data_PCOD9520941
_publ_section_title
;
Structure prediction by ZEFSAII (Michael W. Deem and Ramdas Pophale) SiO2 
 PCOD9520941
Probable space group: I M M M
;
_chemical_formula_sum "Si O2"
_cell_formula_units_Z 88
_cell_length_a 22.102621
_cell_length_b 19.524167
_cell_length_c 12.076031
_cell_angle_alpha 90.000000
_cell_angle_beta 90.000000
_cell_angle_gamma 90.000000
_cell_volume 5211.233220
_symmetry_space_group_name_H-M "I M M M"
_symmetry_group_IT_number 71
_symmetry_cell_setting 'orthorhombic'
loop_
_space_group_symop_operation_xyz
x,y,z
-x,-y,z
x,-y,-z
-x,y,-z
-x,-y,-z
x,y,-z
-x,y,z
x,-y,z
1/2+x,1/2+y,1/2+z
1/2-x,1/2-y,1/2+z
1/2+x,1/2-y,1/2-z
1/2-x,1/2+y,1/2-z
1/2-x,1/2-y,1/2-z
1/2+x,1/2+y,1/2-z
1/2-x,1/2+y,1/2+z
1/2+x,1/2-y,1/2+z
loop_
_atom_site_type_symbol
_atom_site_label
_atom_site_fract_x
_atom_site_fract_y
_atom_site_fract_z
Si Si1 0.429727 0.691942 0.500000
Si Si2 0.823649 0.229783 0.370040
Si Si3 0.827259 0.079772 0.000000
Si Si4 0.752879 0.139034 0.203288
Si Si5 0.070707 0.716305 0.216754
Si Si6 0.874543 0.579670 0.737802
Si Si7 0.431663 0.081891 0.000000
O O1 0.500000 0.671447 0.500000
O O2 0.385839 0.627678 0.500000
O O3 0.418780 0.738293 0.607960
O O4 0.830669 0.216686 0.500000
O O5 0.795509 0.166476 0.301526
O O6 0.777182 0.293071 0.351500
O O7 0.885788 0.253342 0.311537
O O8 0.788596 0.099006 0.891335
O O9 0.841799 0.000000 0.000000
O O10 0.696638 0.094257 0.246487
O O11 0.090253 0.637697 0.194129
O O12 0.000000 0.718479 0.246144
O O13 0.888781 0.500000 0.759895
O O14 0.895118 0.596853 0.611308
O O15 0.500000 0.111169 0.000000
O O16 0.437888 0.000000 0.000000
#
# Coordination Sequence:
#
# PCOD9520941 Si02
#       7
#     8  16   8  16  16  16   8
#     4  10  22  42  58  81 111 137 183 238 291 334
#     4  10  20  35  57  82 113 148 188 232 279 335
#     4  12  21  35  63  86 108 141 183 233 287 335
#     4  10  20  34  52  84 115 145 186 232 282 327
#     4  10  21  36  58  81 110 149 186 233 279 333
#     4  10  20  33  49  78 116 152 188 224 270 328
#     4   9  17  29  46  72 113 154 184 225 272 312
#
# _framework density 16.886597999999999
#
# number of rings (size 3 to 8) (size 9 to 14) (size 15 to 20)
#    0.000    1.909    2.727    1.636    3.818    2.364 
#    0.000    0.455    0.000    3.273    0.000    0.000 
#    0.000    2.909    0.000    0.000    0.000    0.000 
#
# Total GULP energy -245491.547747 kJ/mol
# GULP energy per Si atom -5579.353358 kJ/mol
# Density = 1.684816 g / cm^3
# Si number density = 16.886598 Si / 1000 Ang^3
#
#
#
# Elastic Constant Matrix: (Units=GPa)
#
#
# Indices 1 2 3 4 5 6 
#
# 1 108.7497 70.9269 62.0309 0.0000 0.0000 0.0000
# 2 70.9269 103.6072 41.7146 0.0000 0.0000 0.0000
# 3 62.0309 41.7146 87.1694 0.0000 0.0000 0.0000
# 4 0.0000 0.0000 0.0000 13.9671 0.0000 0.0000
# 5 0.0000 0.0000 0.0000 0.0000 20.1525 0.0000
# 6 0.0000 0.0000 0.0000 0.0000 0.0000 -18.8625
#
#
#
# Elastic Compliance Matrix: (Units=1/GPa)
#
#
# Indices 1 2 3 4 5 6 
#
# 1 0.022587 -0.011137 -0.010744 0.000000 0.000000 0.000000
# 2 -0.011137 0.017447 -0.000424 0.000000 0.000000 0.000000
# 3 -0.010744 -0.000424 0.019320 0.000000 0.000000 0.000000
# 4 0.000000 0.000000 0.000000 0.071597 0.000000 0.000000
# 5 0.000000 0.000000 0.000000 0.000000 0.049622 0.000000
# 6 0.000000 0.000000 0.000000 0.000000 0.000000 -0.053015
#
#
# Mechanical properties :
#
#
# Convention : Reuss Voigt Hill
#
# Bulk Modulus (GPa) = 67.82039 72.09678 69.95859
# Shear Modulus (GPa) = 28.23558 11.37500 19.80529
#
# Velocity S-wave (km/s) = 4.09353 2.59822 3.42839
# Velocity P-wave (km/s) = 7.91152 7.19641 7.56242
#
# Compressibility (1/GPa) = 0.01474483
#
# Stress axis : x y z
#
# Youngs Moduli (GPa) = 44.27264 57.31789 51.75933
#
# Poissons Ratio (x) = 0.63835 0.55610
# Poissons Ratio (y) = 0.49306 0.02193
# Poissons Ratio (z) = 0.47566 0.02429
#
# Static dielectric constant tensor:
#      x y z
#    x 1.580200 0.000000 0.000000 
#    y 0.000000 1.568740 0.000000 
#    z 0.000000 0.000000 1.565930 
# 
# From -- ./inp_files/24020.got.cif
#   From: 2010.05.17/outbox.cif.g08.bks.cpg/sg71_13_cif.got.tgz:24020.got - 2010.06.03 16:22:01.
