data_PCOD9520942
_publ_section_title
;
Structure prediction by ZEFSAII (Michael W. Deem and Ramdas Pophale) SiO2 
 PCOD9520942
Probable space group: I M M M
;
_chemical_formula_sum "Si O2"
_cell_formula_units_Z 112
_cell_length_a 17.197462
_cell_length_b 30.436183
_cell_length_c 13.697997
_cell_angle_alpha 90.000000
_cell_angle_beta 90.000000
_cell_angle_gamma 90.000000
_cell_volume 7169.875457
_symmetry_space_group_name_H-M "I M M M"
_symmetry_group_IT_number 71
_symmetry_cell_setting 'orthorhombic'
loop_
_space_group_symop_operation_xyz
x,y,z
-x,-y,z
x,-y,-z
-x,y,-z
-x,-y,-z
x,y,-z
-x,y,z
x,-y,z
1/2+x,1/2+y,1/2+z
1/2-x,1/2-y,1/2+z
1/2+x,1/2-y,1/2-z
1/2-x,1/2+y,1/2-z
1/2-x,1/2-y,1/2-z
1/2+x,1/2+y,1/2-z
1/2-x,1/2+y,1/2+z
1/2+x,1/2-y,1/2+z
loop_
_atom_site_type_symbol
_atom_site_label
_atom_site_fract_x
_atom_site_fract_y
_atom_site_fract_z
Si Si1 0.588895 0.215114 0.797751
Si Si2 0.839237 0.883661 0.749112
Si Si3 0.911853 0.947669 0.614419
Si Si4 0.228516 0.666375 0.614125
Si Si5 0.138311 0.804605 0.387703
Si Si6 0.907395 0.047934 0.889979
Si Si7 0.808337 0.261941 0.889280
O O1 0.500000 0.201883 0.784510
O O2 0.641712 0.180453 0.856263
O O3 0.593551 0.260531 0.858458
O O4 0.632120 0.224913 0.694983
O O5 0.843036 0.921662 0.667243
O O6 0.763083 0.866947 0.805951
O O7 0.875589 0.842451 0.691429
O O8 0.886643 0.908406 0.832894
O O9 0.910389 0.937735 0.500000
O O10 0.000000 0.935760 0.650783
O O11 0.905134 0.000000 0.625498
O O12 0.233156 0.652764 0.500000
O O13 0.279159 0.711603 0.623356
O O14 0.121671 0.817370 0.500000
O O15 0.229858 0.791118 0.381539
O O16 0.000000 0.045712 0.893777
O O17 0.881124 0.000000 0.849280
O O18 0.877003 0.050829 0.000000
O O19 0.838661 0.266510 0.000000
#
# Coordination Sequence:
#
# PCOD9520942 Si02
#       7
#    16  16  16  16  16  16  16
#     4  11  20  34  51  69  94 128 164 197 240 286
#     4  12  18  29  50  70  94 123 162 201 242 277
#     4   9  19  34  49  69 100 134 164 195 236 287
#     4  10  20  34  50  68  93 126 163 202 241 282
#     4  10  20  33  50  68  92 126 164 202 235 277
#     4   9  19  34  48  65  92 126 161 194 233 282
#     4   9  17  35  53  66  91 127 162 194 239 289
#
# _framework density 15.620913
#
# number of rings (size 3 to 8) (size 9 to 14) (size 15 to 20)
#    0.000    2.000    2.857    4.714    0.000    3.714 
#    0.000    0.000    0.000    0.000    0.000    0.000 
#    0.000    2.286    0.000    8.571    0.000    0.000 
#
# Total GULP energy -311860.595810 kJ/mol
# GULP energy per Si atom -5568.939211 kJ/mol
# Density = 1.558536 g / cm^3
# Si number density = 15.620913 Si / 1000 Ang^3
#
#
#
# Elastic Constant Matrix: (Units=GPa)
#
#
# Indices 1 2 3 4 5 6 
#
# 1 57.8998 27.0107 31.3509 0.0000 0.0000 0.0000
# 2 27.0107 64.4271 27.8805 0.0000 0.0000 0.0000
# 3 31.3509 27.8805 103.7716 0.0001 0.0000 0.0000
# 4 0.0000 0.0000 0.0001 28.3206 0.0000 0.0000
# 5 0.0000 0.0000 0.0000 0.0000 17.8485 0.0000
# 6 0.0000 0.0000 0.0000 0.0000 0.0000 13.2744
#
#
#
# Elastic Compliance Matrix: (Units=1/GPa)
#
#
# Indices 1 2 3 4 5 6 
#
# 1 0.023607 -0.007707 -0.005061 0.000000 0.000000 0.000000
# 2 -0.007707 0.020079 -0.003066 0.000000 0.000000 0.000000
# 3 -0.005061 -0.003066 0.011990 0.000000 0.000000 0.000000
# 4 0.000000 0.000000 0.000000 0.035310 0.000000 0.000000
# 5 0.000000 0.000000 0.000000 0.000000 0.056027 0.000000
# 6 0.000000 0.000000 0.000000 0.000000 0.000000 0.075333
#
#
# Mechanical properties :
#
#
# Convention : Reuss Voigt Hill
#
# Bulk Modulus (GPa) = 41.65507 44.28698 42.97103
# Shear Modulus (GPa) = 19.08266 21.21245 20.14756
#
# Velocity S-wave (km/s) = 3.49895 3.68904 3.59525
# Velocity P-wave (km/s) = 6.56107 6.82334 6.69349
#
# Compressibility (1/GPa) = 0.02400668
#
# Stress axis : x y z
#
# Youngs Moduli (GPa) = 42.36006 49.80209 83.40601
#
# Poissons Ratio (x) = 0.38382 0.42215
# Poissons Ratio (y) = 0.32646 0.25576
# Poissons Ratio (z) = 0.21440 0.15271
#
# Static dielectric constant tensor:
#      x y z
#    x 1.506650 0.000000 0.000000 
#    y 0.000000 1.534170 0.000000 
#    z 0.000000 0.000000 1.585860 
# 
# From -- ./inp_files/35116.got.cif
#   From: 2010.05.17/outbox.cif.g08.bks.cpg/sg71_18_cif.got.tgz:35116.got - 2010.06.03 16:22:01.
