data_PCOD9520815
_publ_section_title
;
Structure prediction by ZEFSAII (Michael W. Deem and Ramdas Pophale) SiO2 
 PCOD9520815
Probable space group: I M M M
;
_chemical_formula_sum "Si O2"
_cell_formula_units_Z 72
_cell_length_a 13.735235
_cell_length_b 26.729780
_cell_length_c 8.428201
_cell_angle_alpha 90.000000
_cell_angle_beta 90.000000
_cell_angle_gamma 90.000000
_cell_volume 3094.328112
_symmetry_space_group_name_H-M "I M M M"
_symmetry_group_IT_number 71
_symmetry_cell_setting 'orthorhombic'
loop_
_space_group_symop_operation_xyz
x,y,z
-x,-y,z
x,-y,-z
-x,y,-z
-x,-y,-z
x,y,-z
-x,y,z
x,-y,z
1/2+x,1/2+y,1/2+z
1/2-x,1/2-y,1/2+z
1/2+x,1/2-y,1/2-z
1/2-x,1/2+y,1/2-z
1/2-x,1/2-y,1/2-z
1/2+x,1/2+y,1/2-z
1/2-x,1/2+y,1/2+z
1/2+x,1/2-y,1/2+z
loop_
_atom_site_type_symbol
_atom_site_label
_atom_site_fract_x
_atom_site_fract_y
_atom_site_fract_z
Si Si1 0.604862 0.089515 0.316180
Si Si2 0.817042 0.057221 0.325934
Si Si3 0.385500 0.442779 0.500000
Si Si4 0.107152 0.205824 0.188925
Si Si5 0.324004 0.809502 0.813280
O O1 0.602969 0.106234 0.500000
O O2 0.500000 0.066102 0.280459
O O3 0.700687 0.056158 0.305277
O O4 0.623005 0.138195 0.211431
O O5 0.839420 0.079141 0.500000
O O6 0.855057 0.000000 0.328422
O O7 0.855951 0.081920 0.165468
O O8 0.343862 0.500000 0.500000
O O9 0.500000 0.446310 0.500000
O O10 0.212166 0.185776 0.249001
O O11 0.121187 0.265076 0.222923
O O12 0.000000 0.190173 0.252252
O O13 0.105100 0.196777 0.000000
O O14 0.320545 0.796747 0.000000
#
# Coordination Sequence:
#
# PCOD9520815 Si02
#       5
#    16  16   8  16  16
#     4  10  21  36  54  76 106 144 181 221 273 330
#     4   9  19  36  57  82 113 147 186 232 276 325
#     4   9  18  34  57  83 109 141 182 226 275 329
#     4   9  18  34  53  71  98 137 175 213 265 324
#     4  10  20  32  50  77 105 133 173 223 268 320
#
# _framework density 23.268381000000002
#
# number of rings (size 3 to 8) (size 9 to 14) (size 15 to 20)
#    0.000    2.556    0.000    1.333    1.556    5.333 
#    0.000    5.556    0.000    3.333    0.000    0.000 
#    0.000    0.000    0.000    0.000    0.000    0.000 
#
# Total GULP energy -200795.973006 kJ/mol
# GULP energy per Si atom -5577.665917 kJ/mol
# Density = 2.321542 g / cm^3
# Si number density = 23.268381 Si / 1000 Ang^3
#
#
#
# Elastic Constant Matrix: (Units=GPa)
#
#
# Indices 1 2 3 4 5 6 
#
# 1 121.8753 -15.6713 45.0476 -0.0009 0.0000 0.0000
# 2 -15.6713 37.9634 4.1791 0.0046 0.0000 -0.0001
# 3 45.0476 4.1791 115.4795 0.0124 0.0014 -0.0007
# 4 -0.0009 0.0046 0.0124 -113.0989 0.0011 0.0030
# 5 0.0000 0.0000 0.0014 0.0011 23.7183 0.0001
# 6 0.0000 -0.0001 -0.0007 0.0030 0.0001 19.4381
#
#
#
# Elastic Compliance Matrix: (Units=1/GPa)
#
#
# Indices 1 2 3 4 5 6 
#
# 1 0.010375 0.004747 -0.004219 0.000000 0.000000 0.000000
# 2 0.004747 0.028619 -0.002888 0.000001 0.000000 0.000000
# 3 -0.004219 -0.002888 0.010410 0.000001 -0.000001 0.000000
# 4 0.000000 0.000001 0.000001 -0.008842 0.000000 0.000001
# 5 0.000000 0.000000 -0.000001 0.000000 0.042161 0.000000
# 6 0.000000 0.000000 0.000000 0.000001 0.000000 0.051445
#
#
# Mechanical properties :
#
#
# Convention : Reuss Voigt Hill
#
# Bulk Modulus (GPa) = 22.37894 38.04767 30.21331
# Shear Modulus (GPa) = 32.51355 2.12902 17.32128
#
# Velocity S-wave (km/s) = 3.74214 0.95759 2.73135
# Velocity P-wave (km/s) = 5.32072 4.19640 4.79165
#
# Compressibility (1/GPa) = 0.04468486
#
# Stress axis : x y z
#
# Youngs Moduli (GPa) = 96.38599 34.94221 96.06297
#
# Poissons Ratio (x) = -0.16588 0.40529
# Poissons Ratio (y) = -0.45757 0.27739
# Poissons Ratio (z) = 0.40665 0.10090
#
# Static dielectric constant tensor:
#      x y z
#    x 1.895440 0.000000 0.000000 
#    y 0.000000 1.866500 0.000000 
#    z 0.000000 0.000000 1.886720 
# 
# From -- ./inp_files/6476.got.cif
#   From: 2010.05.17/outbox.cif.g08.bks.cpg/sg71_4_cif.got.tgz:6476.got - 2010.06.03 16:22:01.
