data_PCOD9520392
_publ_section_title
;
Structure prediction by ZEFSAII (Michael W. Deem and Ramdas Pophale) SiO2 
 PCOD9520392
Probable space group: I M M M
;
_chemical_formula_sum "Si O2"
_cell_formula_units_Z 88
_cell_length_a 20.761712
_cell_length_b 18.532021
_cell_length_c 13.686874
_cell_angle_alpha 90.000000
_cell_angle_beta 90.000000
_cell_angle_gamma 90.000000
_cell_volume 5266.113500
_symmetry_space_group_name_H-M "I M M M"
_symmetry_group_IT_number 71
_symmetry_cell_setting 'orthorhombic'
loop_
_space_group_symop_operation_xyz
x,y,z
-x,-y,z
x,-y,-z
-x,y,-z
-x,-y,-z
x,y,-z
-x,y,z
x,-y,z
1/2+x,1/2+y,1/2+z
1/2-x,1/2-y,1/2+z
1/2+x,1/2-y,1/2-z
1/2-x,1/2+y,1/2-z
1/2-x,1/2-y,1/2-z
1/2+x,1/2+y,1/2-z
1/2-x,1/2+y,1/2+z
1/2+x,1/2-y,1/2+z
loop_
_atom_site_type_symbol
_atom_site_label
_atom_site_fract_x
_atom_site_fract_y
_atom_site_fract_z
Si Si1 0.188716 0.915250 0.194222
Si Si2 0.000000 0.586096 0.113500
Si Si3 0.237606 0.151567 0.611756
Si Si4 0.575790 0.323168 0.383084
Si Si5 0.695977 0.181118 0.888033
Si Si6 0.878251 0.331693 0.193978
O O1 0.200334 0.894670 0.307544
O O2 0.119765 0.886981 0.158404
O O3 0.243089 0.869540 0.136556
O O4 0.196623 0.000000 0.178594
O O5 0.063187 0.617204 0.165158
O O6 0.000000 0.500000 0.115198
O O7 0.000000 0.610822 0.000000
O O8 0.224975 0.130817 0.500000
O O9 0.218187 0.235696 0.624617
O O10 0.313522 0.147300 0.635494
O O11 0.584057 0.318440 0.500000
O O12 0.500000 0.331684 0.362484
O O13 0.601485 0.249062 0.336041
O O14 0.641778 0.165784 0.807429
O O15 0.675929 0.170871 0.000000
#
# Coordination Sequence:
#
# PCOD9520392 Si02
#       6
#    16   8  16  16  16  16
#     4  11  22  36  54  82 118 146 175 226 282 328
#     4  11  24  38  55  83 116 148 182 227 281 327
#     4  10  19  35  60  85 108 140 187 232 271 324
#     4  11  21  34  56  82 108 144 186 223 268 327
#     4  10  20  36  59  84 109 143 187 229 271 326
#     4  11  19  35  58  83 110 143 183 228 272 323
#
# _framework density 16.710616000000002
#
# number of rings (size 3 to 8) (size 9 to 14) (size 15 to 20)
#    0.000    1.364    4.545    3.273    0.000    5.091 
#    0.000    1.364    0.000    2.182    0.000    1.273 
#    0.000    0.000    0.000    0.000    0.000    0.000 
#
# Total GULP energy -245752.242104 kJ/mol
# GULP energy per Si atom -5585.278230 kJ/mol
# Density = 1.667258 g / cm^3
# Si number density = 16.710616 Si / 1000 Ang^3
#
#
#
# Elastic Constant Matrix: (Units=GPa)
#
#
# Indices 1 2 3 4 5 6 
#
# 1 101.3763 17.8214 55.7069 0.0000 0.0000 0.0000
# 2 17.8214 46.1229 3.9681 0.0000 0.0000 0.0000
# 3 55.7069 3.9681 106.4454 0.0000 0.0000 0.0000
# 4 0.0000 0.0000 0.0000 14.3055 0.0000 0.0000
# 5 0.0000 0.0000 0.0000 0.0000 19.4669 0.0000
# 6 0.0000 0.0000 0.0000 0.0000 0.0000 21.1708
#
#
#
# Elastic Compliance Matrix: (Units=1/GPa)
#
#
# Indices 1 2 3 4 5 6 
#
# 1 0.014963 -0.005124 -0.007640 0.000000 0.000000 0.000000
# 2 -0.005124 0.023506 0.001805 0.000000 0.000000 0.000000
# 3 -0.007640 0.001805 0.013325 0.000000 0.000000 0.000000
# 4 0.000000 0.000000 0.000000 0.069903 0.000000 0.000000
# 5 0.000000 0.000000 0.000000 0.000000 0.051369 0.000000
# 6 0.000000 0.000000 0.000000 0.000000 0.000000 0.047235
#
#
# Mechanical properties :
#
#
# Convention : Reuss Voigt Hill
#
# Bulk Modulus (GPa) = 33.47038 45.43750 39.45394
# Shear Modulus (GPa) = 19.82727 22.75185 21.28956
#
# Velocity S-wave (km/s) = 3.44831 3.69388 3.57321
# Velocity P-wave (km/s) = 5.99394 6.74113 6.37849
#
# Compressibility (1/GPa) = 0.02987716
#
# Stress axis : x y z
#
# Youngs Moduli (GPa) = 66.83076 42.54259 75.04493
#
# Poissons Ratio (x) = 0.21800 0.57333
# Poissons Ratio (y) = 0.34246 -0.13549
# Poissons Ratio (z) = 0.51057 -0.07681
#
# Static dielectric constant tensor:
#      x y z
#    x 1.538830 0.000000 0.000000 
#    y 0.000000 1.549760 0.000000 
#    z 0.000000 0.000000 1.569520 
# 
# From -- ./inp_files/36384.got.cif
#   From: 2010.05.17/outbox.cif.g08.bks.cpg/sg71_19_cif.got.tgz:36384.got - 2010.06.03 16:22:01.
