data_PCOD9520301
_publ_section_title
;
Structure prediction by ZEFSAII (Michael W. Deem and Ramdas Pophale) SiO2 
 PCOD9520301
Probable space group: I M M M
;
_chemical_formula_sum "Si O2"
_cell_formula_units_Z 92
_cell_length_a 27.976199
_cell_length_b 7.582356
_cell_length_c 21.364936
_cell_angle_alpha 90.000000
_cell_angle_beta 90.000000
_cell_angle_gamma 90.000000
_cell_volume 4532.047739
_symmetry_space_group_name_H-M "I M M M"
_symmetry_group_IT_number 71
_symmetry_cell_setting 'orthorhombic'
loop_
_space_group_symop_operation_xyz
x,y,z
-x,-y,z
x,-y,-z
-x,y,-z
-x,-y,-z
x,y,-z
-x,y,z
x,-y,z
1/2+x,1/2+y,1/2+z
1/2-x,1/2-y,1/2+z
1/2+x,1/2-y,1/2-z
1/2-x,1/2+y,1/2-z
1/2-x,1/2-y,1/2-z
1/2+x,1/2+y,1/2-z
1/2-x,1/2+y,1/2+z
1/2+x,1/2-y,1/2+z
loop_
_atom_site_type_symbol
_atom_site_label
_atom_site_fract_x
_atom_site_fract_y
_atom_site_fract_z
Si Si1 0.844625 0.710172 0.161437
Si Si2 0.000000 0.215631 0.571744
Si Si3 0.753082 0.297566 0.096811
Si Si4 0.418177 0.286331 0.833617
Si Si5 0.185322 0.294344 0.297987
Si Si6 0.223877 0.500000 0.500000
Si Si7 0.447828 0.288541 0.305633
O O1 0.839452 0.500000 0.164723
O O2 0.807622 0.766487 0.108322
O O3 0.827931 0.780526 0.229501
O O4 0.900783 0.745498 0.154730
O O5 0.046646 0.270783 0.611086
O O6 0.000000 0.274630 0.500000
O O7 0.000000 0.000000 0.571327
O O8 0.752541 0.500000 0.073823
O O9 0.727444 0.297006 0.164498
O O10 0.726918 0.156330 0.053995
O O11 0.417809 0.500000 0.833444
O O12 0.363859 0.223501 0.837218
O O13 0.438175 0.226989 0.765830
O O14 0.197335 0.500000 0.291839
O O15 0.500000 0.224119 0.326676
O O16 0.449874 0.500000 0.302829
#
# Coordination Sequence:
#
# PCOD9520301 Si02
#       7
#    16   8  16  16  16   4  16
#     4   9  20  34  56  87 118 152 191 242 301 359
#     4   9  16  28  45  65  93 139 199 247 282 333
#     4  11  23  42  62  86 118 155 201 243 294 356
#     4   9  16  29  47  70 104 144 190 240 294 347
#     4  10  19  35  56  85 117 149 191 248 306 351
#     4  12  26  44  64  86 117 163 200 248 288 354
#     4   9  16  27  48  78 112 148 183 230 295 359
#
# _framework density 20.299875
#
# number of rings (size 3 to 8) (size 9 to 14) (size 15 to 20)
#    0.000    2.348    1.739    1.304    1.217    1.043 
#    1.565    0.435    0.000    0.522    0.000    1.217 
#    0.000    2.783    0.000    0.000    0.000    0.000 
#
# Total GULP energy -256136.411090 kJ/mol
# GULP energy per Si atom -5568.182850 kJ/mol
# Density = 2.025367 g / cm^3
# Si number density = 20.299875 Si / 1000 Ang^3
#
#
#
# Elastic Constant Matrix: (Units=GPa)
#
#
# Indices 1 2 3 4 5 6 
#
# 1 92.4722 -0.4503 -4.8855 0.0000 0.0000 0.0000
# 2 -0.4503 77.5815 7.4681 0.0000 0.0000 0.0000
# 3 -4.8855 7.4681 7.2815 0.0000 0.0000 0.0000
# 4 0.0000 0.0000 0.0000 21.6015 0.0000 0.0000
# 5 0.0000 0.0000 0.0000 0.0000 -12.3459 0.0000
# 6 0.0000 0.0000 0.0000 0.0000 0.0000 22.8244
#
#
#
# Elastic Compliance Matrix: (Units=1/GPa)
#
#
# Indices 1 2 3 4 5 6 
#
# 1 0.011249 -0.000734 0.008300 0.000000 0.000000 0.000000
# 2 -0.000734 0.014349 -0.015210 0.000000 0.000000 0.000000
# 3 0.008300 -0.015210 0.158503 0.000000 0.000000 0.000000
# 4 0.000000 0.000000 0.000000 0.046293 0.000000 0.000000
# 5 0.000000 0.000000 0.000000 0.000000 -0.080999 0.000000
# 6 0.000000 0.000000 0.000000 0.000000 0.000000 0.043813
#
#
# Mechanical properties :
#
#
# Convention : Reuss Voigt Hill
#
# Bulk Modulus (GPa) = 5.92365 20.17775 13.05070
# Shear Modulus (GPa) = 18.88456 18.09620 18.49038
#
# Velocity S-wave (km/s) = 3.05336 2.98895 3.02132
# Velocity P-wave (km/s) = 3.91855 4.67687 4.31441
#
# Compressibility (1/GPa) = 0.16881490
#
# Stress axis : x y z
#
# Youngs Moduli (GPa) = 88.89684 69.68885 6.30904
#
# Poissons Ratio (x) = 0.05113 -0.05237
# Poissons Ratio (y) = 0.06522 0.09596
# Poissons Ratio (z) = -0.73785 1.05993
#
# Static dielectric constant tensor:
#      x y z
#    x 1.764890 0.000000 0.000000 
#    y 0.000000 1.741400 0.000000 
#    z 0.000000 0.000000 1.725120 
# 
# From -- ./inp_files/56173.got.cif
#   From: 2010.05.17/outbox.cif.g08.bks.cpg/sg71_29_cif.got.tgz:56173.got - 2010.06.03 16:22:01.
