data_PCOD9520276
_publ_section_title
;
Structure prediction by ZEFSAII (Michael W. Deem and Ramdas Pophale) SiO2 
 PCOD9520276
Probable space group: I M M M
;
_chemical_formula_sum "Si O2"
_cell_formula_units_Z 68
_cell_length_a 27.174268
_cell_length_b 7.833193
_cell_length_c 19.432373
_cell_angle_alpha 90.000000
_cell_angle_beta 90.000000
_cell_angle_gamma 90.000000
_cell_volume 4136.399904
_symmetry_space_group_name_H-M "I M M M"
_symmetry_group_IT_number 71
_symmetry_cell_setting 'orthorhombic'
loop_
_space_group_symop_operation_xyz
x,y,z
-x,-y,z
x,-y,-z
-x,y,-z
-x,-y,-z
x,y,-z
-x,y,z
x,-y,z
1/2+x,1/2+y,1/2+z
1/2-x,1/2-y,1/2+z
1/2+x,1/2-y,1/2-z
1/2-x,1/2+y,1/2-z
1/2-x,1/2-y,1/2-z
1/2+x,1/2+y,1/2-z
1/2-x,1/2+y,1/2+z
1/2+x,1/2-y,1/2+z
loop_
_atom_site_type_symbol
_atom_site_label
_atom_site_fract_x
_atom_site_fract_y
_atom_site_fract_z
Si Si1 0.632024 0.801176 0.500000
Si Si2 0.828997 0.699878 0.777515
Si Si3 0.000000 0.500000 0.852874
Si Si4 0.580546 0.691673 0.360123
Si Si5 0.728696 0.703924 0.149059
Si Si6 0.255486 0.700708 0.500000
O O1 0.609726 0.716652 0.431997
O O2 0.691082 0.789551 0.500000
O O3 0.617607 0.000000 0.500000
O O4 0.835154 0.500000 0.793959
O O5 0.878250 0.791763 0.800739
O O6 0.781614 0.764350 0.820891
O O7 0.813145 0.721277 0.698410
O O8 0.042577 0.347338 0.854123
O O9 0.559403 0.500000 0.358775
O O10 0.727443 0.500000 0.156731
O O11 0.727063 0.750699 0.069398
O O12 0.264871 0.500000 0.500000
#
# Coordination Sequence:
#
# PCOD9520276 Si02
#       6
#     8  16   4  16  16   8
#     4  12  22  38  55  76 109 151 190 241 287 326
#     4  10  19  35  54  79 110 145 182 233 282 335
#     4  12  26  45  58  82 106 149 200 252 290 325
#     4  12  24  40  60  80 108 147 193 242 292 335
#     4  10  20  32  52  78 110 147 186 225 276 338
#     4  12  22  32  50  81 113 151 192 230 274 338
#
# _framework density 16.439416000000001
#
# number of rings (size 3 to 8) (size 9 to 14) (size 15 to 20)
#    0.000    0.941    4.706    3.882    0.000    2.824 
#    0.000    1.176    0.000    0.000    0.000    0.000 
#    0.000    1.882    0.000    4.824    0.000    0.118 
#
# Total GULP energy -189382.209868 kJ/mol
# GULP energy per Si atom -5570.064996 kJ/mol
# Density = 1.640200 g / cm^3
# Si number density = 16.439416 Si / 1000 Ang^3
#
#
#
# Elastic Constant Matrix: (Units=GPa)
#
#
# Indices 1 2 3 4 5 6 
#
# 1 76.5363 27.3599 43.2254 0.0000 0.0000 0.0000
# 2 27.3599 116.8994 8.5027 0.0000 0.0000 0.0000
# 3 43.2254 8.5027 98.2400 0.0000 0.0000 0.0000
# 4 0.0000 0.0000 0.0000 10.6522 0.0000 0.0000
# 5 0.0000 0.0000 0.0000 0.0000 -6.5222 0.0000
# 6 0.0000 0.0000 0.0000 0.0000 0.0000 23.7907
#
#
#
# Elastic Compliance Matrix: (Units=1/GPa)
#
#
# Indices 1 2 3 4 5 6 
#
# 1 0.018970 -0.003857 -0.008013 0.000000 0.000000 0.000000
# 2 -0.003857 0.009393 0.000884 0.000000 0.000000 0.000000
# 3 -0.008013 0.000884 0.013628 0.000000 0.000000 0.000000
# 4 0.000000 0.000000 0.000000 0.093877 0.000000 0.000000
# 5 0.000000 0.000000 0.000000 0.000000 -0.153322 0.000000
# 6 0.000000 0.000000 0.000000 0.000000 0.000000 0.042033
#
#
# Mechanical properties :
#
#
# Convention : Reuss Voigt Hill
#
# Bulk Modulus (GPa) = 49.95152 49.98354 49.96753
# Shear Modulus (GPa) = 93.94186 19.75665 56.84926
#
# Velocity S-wave (km/s) = 7.56758 3.47044 5.88695
# Velocity P-wave (km/s) = 10.33484 6.82124 8.75609
#
# Compressibility (1/GPa) = 0.02001941
#
# Stress axis : x y z
#
# Youngs Moduli (GPa) = 52.71496 106.46479 73.37673
#
# Poissons Ratio (x) = 0.41064 0.58796
# Poissons Ratio (y) = 0.20332 -0.06488
# Poissons Ratio (z) = 0.42240 -0.09413
#
# Static dielectric constant tensor:
#      x y z
#    x 1.529690 0.000000 0.000000 
#    y 0.000000 1.592260 0.000000 
#    z 0.000000 0.000000 1.556330 
# 
# From -- ./inp_files/8220.got.cif
#   From: 2010.05.17/outbox.cif.g08.bks.cpg/sg71_5_cif.got.tgz:8220.got - 2010.06.03 16:22:01.
