data_PCOD9520059
_publ_section_title
;
Structure prediction by ZEFSAII (Michael W. Deem and Ramdas Pophale) SiO2 
 PCOD9520059
Probable space group: I M M M
;
_chemical_formula_sum "Si O2"
_cell_formula_units_Z 72
_cell_length_a 19.587333
_cell_length_b 12.256323
_cell_length_c 17.206788
_cell_angle_alpha 90.000000
_cell_angle_beta 90.000000
_cell_angle_gamma 90.000000
_cell_volume 4130.810881
_symmetry_space_group_name_H-M "I M M M"
_symmetry_group_IT_number 71
_symmetry_cell_setting 'orthorhombic'
loop_
_space_group_symop_operation_xyz
x,y,z
-x,-y,z
x,-y,-z
-x,y,-z
-x,-y,-z
x,y,-z
-x,y,z
x,-y,z
1/2+x,1/2+y,1/2+z
1/2-x,1/2-y,1/2+z
1/2+x,1/2-y,1/2-z
1/2-x,1/2+y,1/2-z
1/2-x,1/2-y,1/2-z
1/2+x,1/2+y,1/2-z
1/2-x,1/2+y,1/2+z
1/2+x,1/2-y,1/2+z
loop_
_atom_site_type_symbol
_atom_site_label
_atom_site_fract_x
_atom_site_fract_y
_atom_site_fract_z
Si Si1 0.500000 0.130717 0.912671
Si Si2 0.420686 0.500000 0.905880
Si Si3 0.140755 0.369071 0.327474
Si Si4 0.843349 0.375036 0.152128
Si Si5 0.304723 0.671519 0.092843
Si Si6 0.419851 0.132897 0.500000
O O1 0.432997 0.155363 0.864057
O O2 0.500000 0.000000 0.921614
O O3 0.500000 0.179771 0.000000
O O4 0.500000 0.500000 0.878277
O O5 0.372953 0.396152 0.884236
O O6 0.424373 0.500000 0.000000
O O7 0.153131 0.500000 0.331379
O O8 0.145398 0.329814 0.238342
O O9 0.190261 0.296222 0.379629
O O10 0.868084 0.500000 0.158492
O O11 0.763589 0.375054 0.131198
O O12 0.883514 0.325935 0.078656
O O13 0.298466 0.662734 0.000000
O O14 0.500000 0.156485 0.500000
O O15 0.411584 0.000000 0.500000
#
# Coordination Sequence:
#
# PCOD9520059 Si02
#       6
#     8   8  16  16  16   8
#     4   9  18  34  50  70 104 142 168 203 253 313
#     4   9  20  34  52  78 104 139 184 217 255 314
#     4  10  22  34  51  77 107 138 178 219 265 316
#     4  10  19  34  53  76 107 137 174 218 272 319
#     4  11  20  34  56  75 106 142 176 221 267 315
#     4   9  18  30  52  78 105 137 172 215 266 325
#
# _framework density 17.429991999999999
#
# number of rings (size 3 to 8) (size 9 to 14) (size 15 to 20)
#    0.000    2.111    2.222    1.333    3.111    1.333 
#    0.000    0.000    0.000    0.000    0.000    0.000 
#    0.000    0.889    0.000    0.000    0.000    0.000 
#
# Total GULP energy -200499.668708 kJ/mol
# GULP energy per Si atom -5569.435242 kJ/mol
# Density = 1.739032 g / cm^3
# Si number density = 17.429992 Si / 1000 Ang^3
#
#
#
# Elastic Constant Matrix: (Units=GPa)
#
#
# Indices 1 2 3 4 5 6 
#
# 1 88.4778 8.7324 50.7832 0.0000 0.0000 0.0000
# 2 8.7324 47.6333 15.0664 0.0000 0.0000 0.0000
# 3 50.7832 15.0664 112.1932 0.0000 0.0000 0.0000
# 4 0.0000 0.0000 0.0000 12.5091 0.0000 0.0000
# 5 0.0000 0.0000 0.0000 0.0000 -7.6936 0.0000
# 6 0.0000 0.0000 0.0000 0.0000 0.0000 1.9330
#
#
#
# Elastic Compliance Matrix: (Units=1/GPa)
#
#
# Indices 1 2 3 4 5 6 
#
# 1 0.015288 -0.000641 -0.006834 0.000000 0.000000 0.000000
# 2 -0.000641 0.021952 -0.002658 0.000000 0.000000 0.000000
# 3 -0.006834 -0.002658 0.012363 0.000000 0.000000 0.000000
# 4 0.000000 0.000000 0.000000 0.079942 0.000000 0.000000
# 5 0.000000 0.000000 0.000000 0.000000 -0.129979 0.000000
# 6 0.000000 0.000000 0.000000 0.000000 0.000000 0.517328
#
#
# Mechanical properties :
#
#
# Convention : Reuss Voigt Hill
#
# Bulk Modulus (GPa) = 34.08568 44.16313 39.12440
# Shear Modulus (GPa) = 9.14179 12.93119 11.03649
#
# Velocity S-wave (km/s) = 2.29265 2.72673 2.51906
# Velocity P-wave (km/s) = 5.15815 5.94187 5.56383
#
# Compressibility (1/GPa) = 0.02933783
#
# Stress axis : x y z
#
# Youngs Moduli (GPa) = 65.41101 45.55419 80.88403
#
# Poissons Ratio (x) = 0.02921 0.55275
# Poissons Ratio (y) = 0.04194 0.21497
# Poissons Ratio (z) = 0.44701 0.12107
#
# Static dielectric constant tensor:
#      x y z
#    x 1.603620 0.000000 0.000000 
#    y 0.000000 1.648680 0.000000 
#    z 0.000000 0.000000 1.608140 
# 
# From -- ./inp_files/23542.got.cif
#   From: 2010.05.17/outbox.cif.g08.bks.cpg/sg71_12_cif.got.tgz:23542.got - 2010.06.03 16:22:01.
