data_PCOD9520582
_publ_section_title
;
Structure prediction by ZEFSAII (Michael W. Deem and Ramdas Pophale) SiO2 
 PCOD9520582
Probable space group: I M M M
;
_chemical_formula_sum "Si O2"
_cell_formula_units_Z 120
_cell_length_a 28.716097
_cell_length_b 9.057188
_cell_length_c 30.280978
_cell_angle_alpha 90.000000
_cell_angle_beta 90.000000
_cell_angle_gamma 90.000000
_cell_volume 7875.691425
_symmetry_space_group_name_H-M "I M M M"
_symmetry_group_IT_number 71
_symmetry_cell_setting 'orthorhombic'
loop_
_space_group_symop_operation_xyz
x,y,z
-x,-y,z
x,-y,-z
-x,y,-z
-x,-y,-z
x,y,-z
-x,y,z
x,-y,z
1/2+x,1/2+y,1/2+z
1/2-x,1/2-y,1/2+z
1/2+x,1/2-y,1/2-z
1/2-x,1/2+y,1/2-z
1/2-x,1/2-y,1/2-z
1/2+x,1/2+y,1/2-z
1/2-x,1/2+y,1/2+z
1/2+x,1/2-y,1/2+z
loop_
_atom_site_type_symbol
_atom_site_label
_atom_site_fract_x
_atom_site_fract_y
_atom_site_fract_z
Si Si1 0.943524 0.830425 0.790213
Si Si2 0.000000 0.679221 0.449614
Si Si3 0.375429 0.321612 0.551500
Si Si4 0.408019 0.822389 0.895339
Si Si5 0.728676 0.330447 0.553537
Si Si6 0.054732 0.324138 0.880339
Si Si7 0.054981 0.178237 0.308713
Si Si8 0.323870 0.324425 0.052406
O O1 0.930084 0.732405 0.831892
O O2 0.929469 0.781266 0.741051
O O3 0.000000 0.831730 0.788772
O O4 0.928408 0.000000 0.797163
O O5 0.046458 0.723581 0.423776
O O6 0.000000 0.500000 0.450714
O O7 0.000000 0.732640 0.500000
O O8 0.381437 0.279123 0.500000
O O9 0.377682 0.500000 0.553442
O O10 0.323034 0.279536 0.566700
O O11 0.414090 0.251177 0.582424
O O12 0.416035 0.756809 0.846757
O O13 0.362861 0.758181 0.919402
O O14 0.406117 0.000000 0.894021
O O15 0.727183 0.333290 0.500000
O O16 0.735920 0.500000 0.568167
O O17 0.772434 0.230811 0.565883
O O18 0.058651 0.500000 0.882775
O O19 0.000000 0.284630 0.885876
O O20 0.000000 0.216926 0.313853
O O21 0.058181 0.000000 0.312293
O O22 0.327840 0.500000 0.057729
O O23 0.329910 0.290111 0.000000
#
# Coordination Sequence:
#
# PCOD9520582 Si02
#       8
#    16   8  16  16  16  16  16  16
#     4   8  15  29  48  66  86 119 157 192 232 274
#     4   9  18  30  41  57  85 121 159 191 222 269
#     4   9  18  32  50  71  95 126 162 194 225 268
#     4  11  20  30  45  65  90 122 157 193 233 279
#     4   8  15  30  50  69  88 113 150 195 236 271
#     4  10  20  31  44  68 101 132 160 192 227 265
#     4   9  17  30  47  66  90 117 149 194 241 282
#     4  10  20  32  46  66  91 119 153 193 237 280
#
# _framework density 15.236757000000001
#
# number of rings (size 3 to 8) (size 9 to 14) (size 15 to 20)
#    0.000    2.733    0.667    3.200    0.000    3.733 
#    0.000    4.000    0.000    1.600    0.000    0.933 
#    0.000    0.000    0.000    0.000    0.000    0.000 
#
# Total GULP energy -334299.470885 kJ/mol
# GULP energy per Si atom -5571.657848 kJ/mol
# Density = 1.520208 g / cm^3
# Si number density = 15.236757 Si / 1000 Ang^3
#
#
#
# Elastic Constant Matrix: (Units=GPa)
#
#
# Indices 1 2 3 4 5 6 
#
# 1 97.8717 46.0581 66.5031 0.0000 0.0000 0.0000
# 2 46.0581 43.2669 47.0419 0.0000 0.0000 0.0000
# 3 66.5031 47.0419 110.3414 0.0000 0.0000 0.0000
# 4 0.0000 0.0000 0.0000 22.1356 0.0000 0.0000
# 5 0.0000 0.0000 0.0000 0.0000 2.6713 0.0000
# 6 0.0000 0.0000 0.0000 0.0000 0.0000 21.4761
#
#
#
# Elastic Compliance Matrix: (Units=1/GPa)
#
#
# Indices 1 2 3 4 5 6 
#
# 1 0.022581 -0.017225 -0.006266 0.000000 0.000000 0.000000
# 2 -0.017225 0.056221 -0.013587 0.000000 0.000000 0.000000
# 3 -0.006266 -0.013587 0.018632 0.000000 0.000000 0.000000
# 4 0.000000 0.000000 0.000000 0.045176 0.000000 0.000000
# 5 0.000000 0.000000 0.000000 0.000000 0.374346 0.000000
# 6 0.000000 0.000000 0.000000 0.000000 0.000000 0.046563
#
#
# Mechanical properties :
#
#
# Convention : Reuss Voigt Hill
#
# Bulk Modulus (GPa) = 42.95972 63.40959 53.18465
# Shear Modulus (GPa) = 7.74668 15.38173 11.56421
#
# Velocity S-wave (km/s) = 2.25726 3.18073 2.75793
# Velocity P-wave (km/s) = 5.92028 7.42940 6.71735
#
# Compressibility (1/GPa) = 0.02327762
#
# Stress axis : x y z
#
# Youngs Moduli (GPa) = 44.28408 17.78682 53.67067
#
# Poissons Ratio (x) = 0.30638 0.33632
# Poissons Ratio (y) = 0.76280 0.72923
# Poissons Ratio (z) = 0.27750 0.24167
#
# Static dielectric constant tensor:
#      x y z
#    x 1.496040 0.000000 0.000000 
#    y 0.000000 1.504850 0.000000 
#    z 0.000000 0.000000 1.500040 
# 
# From -- ./inp_files/67161.got.cif
#   From: 2010.05.17/outbox.cif.g08.bks.cpg/sg71_34_cif.got.tgz:67161.got - 2010.06.03 16:22:01.
