data_PCOD9520406
_publ_section_title
;
Structure prediction by ZEFSAII (Michael W. Deem and Ramdas Pophale) SiO2 
 PCOD9520406
Probable space group: I M M M
;
_chemical_formula_sum "Si O2"
_cell_formula_units_Z 88
_cell_length_a 17.332412
_cell_length_b 7.874081
_cell_length_c 31.759287
_cell_angle_alpha 90.000000
_cell_angle_beta 90.000000
_cell_angle_gamma 90.000000
_cell_volume 4334.406369
_symmetry_space_group_name_H-M "I M M M"
_symmetry_group_IT_number 71
_symmetry_cell_setting 'orthorhombic'
loop_
_space_group_symop_operation_xyz
x,y,z
-x,-y,z
x,-y,-z
-x,y,-z
-x,-y,-z
x,y,-z
-x,y,z
x,-y,z
1/2+x,1/2+y,1/2+z
1/2-x,1/2-y,1/2+z
1/2+x,1/2-y,1/2-z
1/2-x,1/2+y,1/2-z
1/2-x,1/2-y,1/2-z
1/2+x,1/2+y,1/2-z
1/2-x,1/2+y,1/2+z
1/2+x,1/2-y,1/2+z
loop_
_atom_site_type_symbol
_atom_site_label
_atom_site_fract_x
_atom_site_fract_y
_atom_site_fract_z
Si Si1 0.313670 0.196427 0.186707
Si Si2 0.907999 0.500000 0.450064
Si Si3 0.179528 0.188458 0.593280
Si Si4 0.830508 0.794382 0.047899
Si Si5 0.000000 0.206746 0.075379
Si Si6 0.000000 0.795949 0.827236
Si Si7 0.347810 0.799278 0.278070
O O1 0.327910 0.293282 0.143560
O O2 0.354801 0.258815 0.229470
O O3 0.223533 0.208943 0.199234
O O4 0.334555 0.000000 0.179335
O O5 0.891987 0.500000 0.500000
O O6 0.869283 0.334931 0.429231
O O7 0.000000 0.500000 0.443653
O O8 0.268789 0.218154 0.580003
O O9 0.155991 0.000000 0.579980
O O10 0.918862 0.738543 0.055345
O O11 0.828053 0.000000 0.052526
O O12 0.807659 0.753143 0.000000
O O13 0.000000 0.256788 0.124151
O O14 0.000000 0.000000 0.072566
O O15 0.075219 0.730453 0.803687
O O16 0.000000 0.000000 0.826294
O O17 0.329369 0.000000 0.276519
#
# Coordination Sequence:
#
# PCOD9520406 Si02
#       7
#    16   8  16  16   8   8  16
#     4  10  20  39  62  87 123 163 207 258 317 374
#     4  11  26  50  74  97 129 165 205 268 342 404
#     4  12  24  41  69 100 129 168 216 267 321 395
#     4  10  19  35  60  90 127 170 217 268 316 370
#     4   9  19  33  54  86 126 177 223 260 309 365
#     4  11  21  34  53  80 120 168 211 254 308 370
#     4  10  21  36  58  86 120 163 211 263 310 369
#
# _framework density 20.302665000000001
#
# number of rings (size 3 to 8) (size 9 to 14) (size 15 to 20)
#    0.000    1.545    1.818    3.273    0.000    6.545 
#    1.636    2.273    0.000    1.091    0.000    0.000 
#    0.000    0.000    0.000    0.000    0.000    0.000 
#
# Total GULP energy -245963.712980 kJ/mol
# GULP energy per Si atom -5590.084386 kJ/mol
# Density = 2.025645 g / cm^3
# Si number density = 20.302665 Si / 1000 Ang^3
#
#
#
# Elastic Constant Matrix: (Units=GPa)
#
#
# Indices 1 2 3 4 5 6 
#
# 1 42.7208 19.0315 19.2558 0.0000 0.0000 0.0000
# 2 19.0315 92.4688 34.1632 0.0000 0.0000 0.0000
# 3 19.2558 34.1632 99.4119 0.0000 0.0000 0.0000
# 4 0.0000 0.0000 0.0000 16.3153 0.0000 0.0000
# 5 0.0000 0.0000 0.0000 0.0000 22.5045 0.0000
# 6 0.0000 0.0000 0.0000 0.0000 0.0000 6.3697
#
#
#
# Elastic Compliance Matrix: (Units=1/GPa)
#
#
# Indices 1 2 3 4 5 6 
#
# 1 0.026967 -0.004147 -0.003798 0.000000 0.000000 0.000000
# 2 -0.004147 0.013025 -0.003673 0.000000 0.000000 0.000000
# 3 -0.003798 -0.003673 0.012057 0.000000 0.000000 0.000000
# 4 0.000000 0.000000 0.000000 0.061292 0.000000 0.000000
# 5 0.000000 0.000000 0.000000 0.000000 0.044436 0.000000
# 6 0.000000 0.000000 0.000000 0.000000 0.000000 0.156994
#
#
# Mechanical properties :
#
#
# Convention : Reuss Voigt Hill
#
# Bulk Modulus (GPa) = 34.70655 42.16694 38.43674
# Shear Modulus (GPa) = 14.38389 19.84795 17.11592
#
# Velocity S-wave (km/s) = 2.66460 3.13006 2.90666
# Velocity P-wave (km/s) = 5.15737 5.82042 5.49890
#
# Compressibility (1/GPa) = 0.02881301
#
# Stress axis : x y z
#
# Youngs Moduli (GPa) = 37.08199 76.77603 82.93892
#
# Poissons Ratio (x) = 0.31838 0.31503
# Poissons Ratio (y) = 0.15378 0.30462
# Poissons Ratio (z) = 0.14085 0.28198
#
# Static dielectric constant tensor:
#      x y z
#    x 1.676310 0.000000 0.000000 
#    y 0.000000 1.740630 0.000000 
#    z 0.000000 0.000000 1.703840 
# 
# From -- ./inp_files/70394.got.cif
#   From: 2010.05.17/outbox.cif.g08.bks.cpg/sg71_36_cif.got.tgz:70394.got - 2010.06.03 16:22:01.
