data_PCOD9520536
_publ_section_title
;
Structure prediction by ZEFSAII (Michael W. Deem and Ramdas Pophale) SiO2 
 PCOD9520536
Probable space group: I M M M
;
_chemical_formula_sum "Si O2"
_cell_formula_units_Z 120
_cell_length_a 15.480903
_cell_length_b 31.675324
_cell_length_c 14.856774
_cell_angle_alpha 90.000000
_cell_angle_beta 90.000000
_cell_angle_gamma 90.000000
_cell_volume 7285.206599
_symmetry_space_group_name_H-M "I M M M"
_symmetry_group_IT_number 71
_symmetry_cell_setting 'orthorhombic'
loop_
_space_group_symop_operation_xyz
x,y,z
-x,-y,z
x,-y,-z
-x,y,-z
-x,-y,-z
x,y,-z
-x,y,z
x,-y,z
1/2+x,1/2+y,1/2+z
1/2-x,1/2-y,1/2+z
1/2+x,1/2-y,1/2-z
1/2-x,1/2+y,1/2-z
1/2-x,1/2-y,1/2-z
1/2+x,1/2+y,1/2-z
1/2-x,1/2+y,1/2+z
1/2+x,1/2-y,1/2+z
loop_
_atom_site_type_symbol
_atom_site_label
_atom_site_fract_x
_atom_site_fract_y
_atom_site_fract_z
Si Si1 0.904496 0.282465 0.103335
Si Si2 0.097992 0.807186 0.837900
Si Si3 0.691386 0.049786 0.891300
Si Si4 0.101816 0.676137 0.394275
Si Si5 0.500000 0.948923 0.898277
Si Si6 0.251646 0.659520 0.102963
Si Si7 0.597783 0.275721 0.866700
Si Si8 0.244160 0.872419 0.796752
O O1 0.877816 0.233537 0.103872
O O2 0.829501 0.312368 0.137117
O O3 0.000000 0.285975 0.146784
O O4 0.913318 0.295058 0.000000
O O5 0.097827 0.786396 0.738834
O O6 0.165560 0.844737 0.836514
O O7 0.000000 0.820335 0.860433
O O8 0.593375 0.061384 0.859379
O O9 0.753740 0.081059 0.838853
O O10 0.705451 0.000000 0.874964
O O11 0.694885 0.055775 0.000000
O O12 0.115306 0.665642 0.500000
O O13 0.117527 0.726534 0.382779
O O14 0.168908 0.650682 0.333110
O O15 0.000000 0.668317 0.373536
O O16 0.500000 0.000000 0.904673
O O17 0.500000 0.931757 0.000000
O O18 0.331411 0.692109 0.096705
O O19 0.264731 0.628369 0.187799
O O20 0.237949 0.643095 0.000000
O O21 0.500000 0.283221 0.899544
#
# Coordination Sequence:
#
# PCOD9520536 Si02
#       8
#    16  16  16  16   8  16  16  16
#     4   9  17  29  43  58  85 129 170 198 227 264
#     4   9  18  31  45  64  90 122 165 207 234 265
#     4   9  18  33  53  75  98 122 146 176 224 290
#     4  10  20  30  43  70 103 127 151 189 238 288
#     4   7  12  26  48  72  95 117 139 163 200 264
#     4  10  20  32  46  65  91 124 165 204 231 265
#     4   9  17  30  46  63  90 128 161 193 239 286
#     4  11  21  31  48  71  94 122 155 194 240 281
#
# _framework density 16.471736
#
# number of rings (size 3 to 8) (size 9 to 14) (size 15 to 20)
#    0.000    2.600    0.000    3.200    0.933    6.667 
#    0.000    0.000    0.000    0.800    0.000    0.933 
#    0.000    1.600    0.000    6.667    0.000    0.000 
#
# Total GULP energy -334115.237894 kJ/mol
# GULP energy per Si atom -5568.587298 kJ/mol
# Density = 1.643425 g / cm^3
# Si number density = 16.471736 Si / 1000 Ang^3
#
#
#
# Elastic Constant Matrix: (Units=GPa)
#
#
# Indices 1 2 3 4 5 6 
#
# 1 43.7604 30.6557 17.7508 0.0000 0.0000 0.0000
# 2 30.6557 68.3611 30.5530 -0.0001 0.0000 0.0000
# 3 17.7508 30.5530 55.5360 0.0001 0.0001 0.0000
# 4 0.0000 -0.0001 0.0001 4.4169 0.0000 0.0000
# 5 0.0000 0.0000 0.0001 0.0000 16.4987 0.0000
# 6 0.0000 0.0000 0.0000 0.0000 0.0000 18.3892
#
#
#
# Elastic Compliance Matrix: (Units=1/GPa)
#
#
# Indices 1 2 3 4 5 6 
#
# 1 0.033759 -0.013680 -0.003264 0.000000 0.000000 0.000000
# 2 -0.013680 0.024941 -0.009349 0.000001 0.000000 0.000000
# 3 -0.003264 -0.009349 0.024193 -0.000001 0.000000 0.000000
# 4 0.000000 0.000001 -0.000001 0.226402 0.000000 0.000000
# 5 0.000000 0.000000 0.000000 0.000000 0.060611 0.000000
# 6 0.000000 0.000000 0.000000 0.000000 0.000000 0.054380
#
#
# Mechanical properties :
#
#
# Convention : Reuss Voigt Hill
#
# Bulk Modulus (GPa) = 32.99567 36.17517 34.58542
# Shear Modulus (GPa) = 10.26748 13.77416 12.02082
#
# Velocity S-wave (km/s) = 2.49938 2.89490 2.70438
# Velocity P-wave (km/s) = 5.32958 5.76052 5.54923
#
# Compressibility (1/GPa) = 0.03030701
#
# Stress axis : x y z
#
# Youngs Moduli (GPa) = 29.62159 40.09440 41.33431
#
# Poissons Ratio (x) = 0.54849 0.13493
# Poissons Ratio (y) = 0.40522 0.38643
# Poissons Ratio (z) = 0.09669 0.37484
#
# Static dielectric constant tensor:
#      x y z
#    x 1.611780 0.000000 0.000000 
#    y 0.000000 1.534430 0.000000 
#    z 0.000000 0.000000 4.650520 
# 
# From -- ./inp_files/35440.got.cif
#   From: 2010.05.17/outbox.cif.g08.bks.cpg/sg71_18_cif.got.tgz:35440.got - 2010.06.03 16:22:01.
