data_PCOD9520045
_publ_section_title
;
Structure prediction by ZEFSAII (Michael W. Deem and Ramdas Pophale) SiO2 
 PCOD9520045
Probable space group: I M M M
;
_chemical_formula_sum "Si O2"
_cell_formula_units_Z 104
_cell_length_a 24.627453
_cell_length_b 33.109931
_cell_length_c 7.516845
_cell_angle_alpha 90.000000
_cell_angle_beta 90.000000
_cell_angle_gamma 90.000000
_cell_volume 6129.335158
_symmetry_space_group_name_H-M "I M M M"
_symmetry_group_IT_number 71
_symmetry_cell_setting 'orthorhombic'
loop_
_space_group_symop_operation_xyz
x,y,z
-x,-y,z
x,-y,-z
-x,y,-z
-x,-y,-z
x,y,-z
-x,y,z
x,-y,z
1/2+x,1/2+y,1/2+z
1/2-x,1/2-y,1/2+z
1/2+x,1/2-y,1/2-z
1/2-x,1/2+y,1/2-z
1/2-x,1/2-y,1/2-z
1/2+x,1/2+y,1/2-z
1/2-x,1/2+y,1/2+z
1/2+x,1/2-y,1/2+z
loop_
_atom_site_type_symbol
_atom_site_label
_atom_site_fract_x
_atom_site_fract_y
_atom_site_fract_z
Si Si1 0.146992 0.045488 0.713487
Si Si2 0.061211 0.114935 0.787705
Si Si3 0.565951 0.765768 0.000000
Si Si4 0.938441 0.500000 0.784538
Si Si5 0.230801 0.546415 0.783615
Si Si6 0.934289 0.640313 0.500000
Si Si7 0.620068 0.916279 0.284773
Si Si8 0.433879 0.296382 0.296368
O O1 0.149884 0.043404 0.500000
O O2 0.102278 0.078673 0.755643
O O3 0.208015 0.056124 0.775732
O O4 0.133795 0.000000 0.777582
O O5 0.080931 0.159025 0.724171
O O6 0.000000 0.106772 0.719804
O O7 0.056992 0.119793 0.000000
O O8 0.583915 0.740055 0.171255
O O9 0.500000 0.765127 0.000000
O O10 0.581183 0.812484 0.000000
O O11 0.908360 0.541138 0.736152
O O12 0.000000 0.500000 0.719035
O O13 0.939475 0.500000 0.000000
O O14 0.218836 0.500000 0.728774
O O15 0.183044 0.576809 0.733217
O O16 0.230306 0.545895 0.000000
O O17 0.909359 0.618185 0.672602
O O18 0.000000 0.636732 0.500000
O O19 0.615851 0.910616 0.500000
O O20 0.415606 0.291410 0.500000
O O21 0.500000 0.296771 0.298058
#
# Coordination Sequence:
#
# PCOD9520045 Si02
#       8
#    16  16   8   8  16   8  16  16
#     4   9  18  30  46  71 102 133 169 211 248 287
#     4   9  18  31  46  69 102 134 166 204 247 299
#     4   9  18  32  49  70  98 132 159 195 254 309
#     4   9  16  27  47  71  92 127 170 196 236 298
#     4   8  14  30  52  69  91 127 173 217 246 279
#     4  11  24  35  46  77 112 129 161 205 252 321
#     4  10  19  34  53  70  97 137 172 208 251 293
#     4   8  15  29  49  71  94 123 164 207 243 292
#
# _framework density 16.967583000000001
#
# number of rings (size 3 to 8) (size 9 to 14) (size 15 to 20)
#    0.000    3.000    0.769    2.308    1.077    2.769 
#    1.385    3.846    0.000    0.000    0.000    1.077 
#    0.000    0.000    0.000    0.000    0.000    0.000 
#
# Total GULP energy -289702.423291 kJ/mol
# GULP energy per Si atom -5571.200448 kJ/mol
# Density = 1.692896 g / cm^3
# Si number density = 16.967583 Si / 1000 Ang^3
#
#
#
# Elastic Constant Matrix: (Units=GPa)
#
#
# Indices 1 2 3 4 5 6 
#
# 1 86.9686 76.1564 26.7003 0.0000 0.0000 0.0000
# 2 76.1564 157.5761 49.1247 0.0000 0.0000 0.0000
# 3 26.7003 49.1247 69.8077 0.0000 0.0000 0.0000
# 4 0.0000 0.0000 0.0000 26.4607 0.0000 0.0000
# 5 0.0000 0.0000 0.0000 0.0000 1.7737 0.0000
# 6 0.0000 0.0000 0.0000 0.0000 0.0000 2.6350
#
#
#
# Elastic Compliance Matrix: (Units=1/GPa)
#
#
# Indices 1 2 3 4 5 6 
#
# 1 0.019999 -0.009327 -0.001086 0.000000 0.000000 0.000000
# 2 -0.009327 0.012480 -0.005215 0.000000 0.000000 0.000000
# 3 -0.001086 -0.005215 0.018410 0.000000 0.000000 0.000000
# 4 0.000000 0.000000 0.000000 0.037792 0.000000 0.000000
# 5 0.000000 0.000000 0.000000 0.000000 0.563790 0.000000
# 6 0.000000 0.000000 0.000000 0.000000 0.000000 0.379507
#
#
# Mechanical properties :
#
#
# Convention : Reuss Voigt Hill
#
# Bulk Modulus (GPa) = 50.93248 68.70169 59.81709
# Shear Modulus (GPa) = 4.67387 16.99862 10.83625
#
# Velocity S-wave (km/s) = 1.66150 3.16860 2.52988
# Velocity P-wave (km/s) = 5.81063 7.34606 6.62299
#
# Compressibility (1/GPa) = 0.01963384
#
# Stress axis : x y z
#
# Youngs Moduli (GPa) = 50.00170 80.13069 54.31848
#
# Poissons Ratio (x) = 0.74739 0.05898
# Poissons Ratio (y) = 0.46637 0.28325
# Poissons Ratio (z) = 0.05429 0.41785
#
# Static dielectric constant tensor:
#      x y z
#    x 1.576850 0.000000 0.000000 
#    y 0.000000 1.563830 0.000000 
#    z 0.000000 0.000000 1.637850 
# 
# From -- ./inp_files/13678.got.cif
#   From: 2010.05.17/outbox.cif.g08.bks.cpg/sg71_7_cif.got.tgz:13678.got - 2010.06.03 16:22:01.
