data_PCOD9520162
_publ_section_title
;
Structure prediction by ZEFSAII (Michael W. Deem and Ramdas Pophale) SiO2 
 PCOD9520162
Probable space group: I M M M
;
_chemical_formula_sum "Si O2"
_cell_formula_units_Z 72
_cell_length_a 8.571468
_cell_length_b 16.498973
_cell_length_c 27.861481
_cell_angle_alpha 90.000000
_cell_angle_beta 90.000000
_cell_angle_gamma 90.000000
_cell_volume 3940.182320
_symmetry_space_group_name_H-M "I M M M"
_symmetry_group_IT_number 71
_symmetry_cell_setting 'orthorhombic'
loop_
_space_group_symop_operation_xyz
x,y,z
-x,-y,z
x,-y,-z
-x,y,-z
-x,-y,-z
x,y,-z
-x,y,z
x,-y,z
1/2+x,1/2+y,1/2+z
1/2-x,1/2-y,1/2+z
1/2+x,1/2-y,1/2-z
1/2-x,1/2+y,1/2-z
1/2-x,1/2-y,1/2-z
1/2+x,1/2+y,1/2-z
1/2-x,1/2+y,1/2+z
1/2+x,1/2-y,1/2+z
loop_
_atom_site_type_symbol
_atom_site_label
_atom_site_fract_x
_atom_site_fract_y
_atom_site_fract_z
Si Si1 0.685045 0.908427 0.854253
Si Si2 0.312465 0.668310 0.894987
Si Si3 0.313603 0.670802 0.555534
Si Si4 0.689965 0.500000 0.055776
Si Si5 0.815858 0.248229 0.196504
O O1 0.500000 0.896060 0.847676
O O2 0.728798 0.892035 0.909512
O O3 0.775910 0.840010 0.825079
O O4 0.724834 0.000000 0.840431
O O5 0.500000 0.673837 0.897661
O O6 0.239681 0.740259 0.926895
O O7 0.262758 0.581470 0.916114
O O8 0.260712 0.687718 0.840538
O O9 0.275027 0.659320 0.500000
O O10 0.500000 0.663942 0.561702
O O11 0.500000 0.500000 0.054914
O O12 0.741738 0.500000 0.000000
O O13 0.750000 0.250000 0.250000
O O14 0.000000 0.261401 0.196827
#
# Coordination Sequence:
#
# PCOD9520162 Si02
#       5
#    16  16  16   8  16
#     4  10  21  37  57  82 110 139 177 224 272 323
#     4  10  19  34  56  81 110 145 187 232 277 329
#     4  10  20  33  51  77 110 148 186 223 268 322
#     4   9  18  32  53  83 117 151 187 229 276 329
#     4  11  22  39  61  82 108 143 182 226 279 332
#
# _framework density 18.273266
#
# number of rings (size 3 to 8) (size 9 to 14) (size 15 to 20)
#    0.000    1.889    0.000    7.333    0.000    4.889 
#    2.000    4.444    0.000    4.000    0.000    0.000 
#    0.000    0.000    0.000    0.000    0.000    0.000 
#
# Total GULP energy -201008.450652 kJ/mol
# GULP energy per Si atom -5583.568074 kJ/mol
# Density = 1.823167 g / cm^3
# Si number density = 18.273266 Si / 1000 Ang^3
#
#
#
# Elastic Constant Matrix: (Units=GPa)
#
#
# Indices 1 2 3 4 5 6 
#
# 1 35.0097 1.2090 6.5251 0.0000 0.0000 0.0000
# 2 1.2090 80.0614 24.3671 0.0000 0.0000 0.0000
# 3 6.5251 24.3671 112.1599 0.0000 0.0000 0.0000
# 4 0.0000 0.0000 0.0000 11.5244 0.0000 0.0000
# 5 0.0000 0.0000 0.0000 0.0000 32.3594 0.0000
# 6 0.0000 0.0000 0.0000 0.0000 0.0000 4.8937
#
#
#
# Elastic Compliance Matrix: (Units=1/GPa)
#
#
# Indices 1 2 3 4 5 6 
#
# 1 0.028877 0.000081 -0.001697 0.000000 0.000000 0.000000
# 2 0.000081 0.013375 -0.002910 0.000000 0.000000 0.000000
# 3 -0.001697 -0.002910 0.009647 0.000000 0.000000 0.000000
# 4 0.000000 0.000000 0.000000 0.086772 0.000000 0.000000
# 5 0.000000 0.000000 0.000000 0.000000 0.030903 0.000000
# 6 0.000000 0.000000 0.000000 0.000000 0.000000 0.204345
#
#
# Mechanical properties :
#
#
# Convention : Reuss Voigt Hill
#
# Bulk Modulus (GPa) = 23.34035 32.38150 27.86092
# Shear Modulus (GPa) = 12.58637 22.76415 17.67526
#
# Velocity S-wave (km/s) = 2.62732 3.53336 3.11348
# Velocity P-wave (km/s) = 4.69089 5.86561 5.31083
#
# Compressibility (1/GPa) = 0.04284427
#
# Stress axis : x y z
#
# Youngs Moduli (GPa) = 34.62949 74.76637 103.66027
#
# Poissons Ratio (x) = -0.00602 0.17596
# Poissons Ratio (y) = -0.00279 0.30170
# Poissons Ratio (z) = 0.05878 0.21760
#
# Static dielectric constant tensor:
#      x y z
#    x 1.614610 0.000000 0.000000 
#    y 0.000000 1.616200 0.000000 
#    z 0.000000 0.000000 1.621970 
# 
# From -- ./inp_files/62855.got.cif
#   From: 2010.05.17/outbox.cif.g08.bks.cpg/sg71_32_cif.got.tgz:62855.got - 2010.06.03 16:22:01.
