data_PCOD9520440
_publ_section_title
;
Structure prediction by ZEFSAII (Michael W. Deem and Ramdas Pophale) SiO2 
 PCOD9520440
Probable space group: I M M M
;
_chemical_formula_sum "Si O2"
_cell_formula_units_Z 100
_cell_length_a 26.993137
_cell_length_b 22.996201
_cell_length_c 8.498564
_cell_angle_alpha 90.000000
_cell_angle_beta 90.000000
_cell_angle_gamma 90.000000
_cell_volume 5275.395253
_symmetry_space_group_name_H-M "I M M M"
_symmetry_group_IT_number 71
_symmetry_cell_setting 'orthorhombic'
loop_
_space_group_symop_operation_xyz
x,y,z
-x,-y,z
x,-y,-z
-x,y,-z
-x,-y,-z
x,y,-z
-x,y,z
x,-y,z
1/2+x,1/2+y,1/2+z
1/2-x,1/2-y,1/2+z
1/2+x,1/2-y,1/2-z
1/2-x,1/2+y,1/2-z
1/2-x,1/2-y,1/2-z
1/2+x,1/2+y,1/2-z
1/2-x,1/2+y,1/2+z
1/2+x,1/2-y,1/2+z
loop_
_atom_site_type_symbol
_atom_site_label
_atom_site_fract_x
_atom_site_fract_y
_atom_site_fract_z
Si Si1 0.304087 0.263375 0.312528
Si Si2 0.500000 0.000000 0.214411
Si Si3 0.914251 0.585595 0.187764
Si Si4 0.714629 0.500000 0.812337
Si Si5 0.672233 0.000000 0.690149
Si Si6 0.444279 0.337513 0.810083
Si Si7 0.653879 0.390885 0.686304
Si Si8 0.097537 0.712230 0.686525
O O1 0.307573 0.253400 0.500000
O O2 0.250000 0.250000 0.250000
O O3 0.317825 0.330407 0.280598
O O4 0.345177 0.225044 0.225187
O O5 0.543293 0.050149 0.224260
O O6 0.861290 0.556338 0.231609
O O7 0.917016 0.653284 0.226804
O O8 0.921743 0.575855 0.000000
O O9 0.771475 0.500000 0.749268
O O10 0.683990 0.443659 0.759855
O O11 0.717603 0.500000 0.000000
O O12 0.675256 0.000000 0.500000
O O13 0.500000 0.352017 0.759279
O O14 0.401693 0.380151 0.748564
O O15 0.430849 0.271098 0.761478
O O16 0.442499 0.338259 0.000000
O O17 0.651780 0.399280 0.500000
O O18 0.090027 0.705134 0.500000
#
# Coordination Sequence:
#
# PCOD9520440 Si02
#       8
#    16   4  16   8   8  16  16  16
#     4  10  21  37  58  84 116 152 189 234 287 342
#     4  10  21  38  59  80 115 160 203 252 299 348
#     4  10  19  36  57  80 110 151 200 246 291 342
#     4  11  22  38  61  85 112 156 195 230 283 348
#     4   8  19  36  54  77 106 146 196 239 279 335
#     4   9  19  38  61  84 114 151 187 231 285 349
#     4  10  22  39  58  86 118 148 187 240 289 338
#     4  10  21  35  54  84 117 149 189 236 288 346
#
# _framework density 18.955925000000001
#
# number of rings (size 3 to 8) (size 9 to 14) (size 15 to 20)
#    0.000    2.240    0.000    2.880    3.360    2.880 
#    0.000    3.200    0.000    2.400    0.000    0.000 
#    0.000    0.000    0.000    0.000    0.000    0.000 
#
# Total GULP energy -278598.323641 kJ/mol
# GULP energy per Si atom -5571.966473 kJ/mol
# Density = 1.891278 g / cm^3
# Si number density = 18.955925 Si / 1000 Ang^3
#
#
#
# Elastic Constant Matrix: (Units=GPa)
#
#
# Indices 1 2 3 4 5 6 
#
# 1 170.6129 51.7028 22.9440 0.0000 0.0000 0.0000
# 2 51.7028 80.9327 25.4295 0.0000 0.0000 0.0000
# 3 22.9440 25.4295 14.9381 0.0000 0.0000 0.0000
# 4 0.0000 0.0000 0.0000 12.9117 0.0000 0.0000
# 5 0.0000 0.0000 0.0000 0.0000 1.1852 0.0000
# 6 0.0000 0.0000 0.0000 0.0000 0.0000 1.6540
#
#
#
# Elastic Compliance Matrix: (Units=1/GPa)
#
#
# Indices 1 2 3 4 5 6 
#
# 1 0.007626 -0.002562 -0.007353 0.000000 0.000000 0.000000
# 2 -0.002562 0.027425 -0.042752 0.000000 0.000000 0.000000
# 3 -0.007353 -0.042752 0.151013 0.000000 0.000000 0.000000
# 4 0.000000 0.000000 0.000000 0.077449 0.000000 0.000000
# 5 0.000000 0.000000 0.000000 0.000000 0.843714 0.000000
# 6 0.000000 0.000000 0.000000 0.000000 0.000000 0.604601
#
#
# Mechanical properties :
#
#
# Convention : Reuss Voigt Hill
#
# Bulk Modulus (GPa) = 12.38662 51.84846 32.11754
# Shear Modulus (GPa) = 2.71139 14.24403 8.47771
#
# Velocity S-wave (km/s) = 1.19728 2.74419 2.11708
# Velocity P-wave (km/s) = 2.90859 6.11983 4.79125
#
# Compressibility (1/GPa) = 0.08073228
#
# Stress axis : x y z
#
# Youngs Moduli (GPa) = 131.12499 36.46254 6.62193
#
# Poissons Ratio (x) = 0.09341 0.04869
# Poissons Ratio (y) = 0.33591 0.28310
# Poissons Ratio (z) = 0.96410 1.55885
#
# Static dielectric constant tensor:
#      x y z
#    x 1.653190 0.000000 0.000000 
#    y 0.000000 1.643340 0.000000 
#    z 0.000000 0.000000 1.669020 
# 
# From -- ./inp_files/15070.got.cif
#   From: 2010.05.17/outbox.cif.g08.bks.cpg/sg71_8_cif.got.tgz:15070.got - 2010.06.03 16:22:01.
