data_PCOD9520529
_publ_section_title
;
Structure prediction by ZEFSAII (Michael W. Deem and Ramdas Pophale) SiO2 
 PCOD9520529
Probable space group: I M M M
;
_chemical_formula_sum "Si O2"
_cell_formula_units_Z 104
_cell_length_a 25.344417
_cell_length_b 8.810230
_cell_length_c 34.023310
_cell_angle_alpha 90.000000
_cell_angle_beta 90.000000
_cell_angle_gamma 90.000000
_cell_volume 7597.069755
_symmetry_space_group_name_H-M "I M M M"
_symmetry_group_IT_number 71
_symmetry_cell_setting 'orthorhombic'
loop_
_space_group_symop_operation_xyz
x,y,z
-x,-y,z
x,-y,-z
-x,y,-z
-x,-y,-z
x,y,-z
-x,y,z
x,-y,z
1/2+x,1/2+y,1/2+z
1/2-x,1/2-y,1/2+z
1/2+x,1/2-y,1/2-z
1/2-x,1/2+y,1/2-z
1/2-x,1/2-y,1/2-z
1/2+x,1/2+y,1/2-z
1/2-x,1/2+y,1/2+z
1/2+x,1/2-y,1/2+z
loop_
_atom_site_type_symbol
_atom_site_label
_atom_site_fract_x
_atom_site_fract_y
_atom_site_fract_z
Si Si1 0.672012 0.182039 0.769642
Si Si2 0.000000 0.672807 0.952247
Si Si3 0.058334 0.681803 0.248075
Si Si4 0.840994 0.680969 0.118277
Si Si5 0.940612 0.180618 0.838603
Si Si6 0.112075 0.818846 0.954511
Si Si7 0.769297 0.317431 0.189047
O O1 0.610398 0.222688 0.772575
O O2 0.711728 0.255123 0.800676
O O3 0.693202 0.227255 0.726023
O O4 0.676784 0.000000 0.772333
O O5 0.945663 0.756700 0.942163
O O6 0.000000 0.500000 0.937461
O O7 0.000000 0.667932 0.000000
O O8 0.062004 0.500000 0.239757
O O9 0.061020 0.770557 0.206991
O O10 0.000000 0.709476 0.265485
O O11 0.838388 0.500000 0.114675
O O12 0.895225 0.728615 0.139574
O O13 0.844854 0.754454 0.075425
O O14 0.794899 0.733175 0.147999
O O15 0.000000 0.215978 0.852900
O O16 0.932161 0.000000 0.842685
O O17 0.110706 0.000000 0.952287
O O18 0.121044 0.774289 0.000000
O O19 0.767961 0.500000 0.188725
#
# Coordination Sequence:
#
# PCOD9520529 Si02
#       7
#    16   8  16  16  16  16  16
#     4   9  16  28  43  60  81 106 135 165 203 242
#     4   9  17  31  49  65  79 101 133 163 201 253
#     4   9  16  28  44  60  81 107 136 169 204 245
#     4  11  21  33  47  61  79 102 136 171 205 251
#     4  10  20  30  40  57  80 104 132 168 211 251
#     4  10  21  35  48  62  81 102 127 165 210 252
#     4   9  18  30  42  60  80 104 136 169 203 239
#
# _framework density 13.689489
#
# number of rings (size 3 to 8) (size 9 to 14) (size 15 to 20)
#    0.000    2.385    1.538    1.615    1.077    4.615 
#    0.000    0.000    0.000    0.000    0.000    0.000 
#    0.000    0.000    0.000    0.000    0.000    0.769 
#
# Total GULP energy -289891.298137 kJ/mol
# GULP energy per Si atom -5574.832656 kJ/mol
# Density = 1.365833 g / cm^3
# Si number density = 13.689489 Si / 1000 Ang^3
#
#
#
# Elastic Constant Matrix: (Units=GPa)
#
#
# Indices 1 2 3 4 5 6 
#
# 1 90.9906 18.4748 47.7890 0.0000 0.0000 0.0000
# 2 18.4748 20.0990 22.0327 0.0000 0.0000 0.0000
# 3 47.7890 22.0327 74.6362 0.0000 0.0000 0.0000
# 4 0.0000 0.0000 0.0000 17.4996 0.0000 0.0000
# 5 0.0000 0.0000 0.0000 0.0000 25.3792 0.0000
# 6 0.0000 0.0000 0.0000 0.0000 0.0000 18.9034
#
#
#
# Elastic Compliance Matrix: (Units=1/GPa)
#
#
# Indices 1 2 3 4 5 6 
#
# 1 0.016952 -0.005446 -0.009247 0.000000 0.000000 0.000000
# 2 -0.005446 0.075306 -0.018744 0.000000 0.000000 0.000000
# 3 -0.009247 -0.018744 0.024852 0.000000 0.000000 0.000000
# 4 0.000000 0.000000 0.000000 0.057144 0.000000 0.000000
# 5 0.000000 0.000000 0.000000 0.000000 0.039402 0.000000
# 6 0.000000 0.000000 0.000000 0.000000 0.000000 0.052901
#
#
# Mechanical properties :
#
#
# Convention : Reuss Voigt Hill
#
# Bulk Modulus (GPa) = 19.90517 40.25766 30.08141
# Shear Modulus (GPa) = 14.27849 18.85172 16.56511
#
# Velocity S-wave (km/s) = 3.23310 3.71495 3.48237
# Velocity P-wave (km/s) = 5.33941 6.91901 6.17988
#
# Compressibility (1/GPa) = 0.05023821
#
# Stress axis : x y z
#
# Youngs Moduli (GPa) = 58.98863 13.27907 40.23806
#
# Poissons Ratio (x) = 0.07232 0.37207
# Poissons Ratio (y) = 0.32125 0.75420
# Poissons Ratio (z) = 0.54546 0.24890
#
# Static dielectric constant tensor:
#      x y z
#    x 1.454610 0.000000 0.000000 
#    y 0.000000 1.459940 0.000000 
#    z 0.000000 0.000000 1.458060 
# 
# From -- ./inp_files/15805.got.cif
#   From: 2010.05.17/outbox.cif.g08.bks.cpg/sg71_8_cif.got.tgz:15805.got - 2010.06.03 16:22:01.
