data_PCOD9520546
_publ_section_title
;
Structure prediction by ZEFSAII (Michael W. Deem and Ramdas Pophale) SiO2 
 PCOD9520546
Probable space group: I M M M
;
_chemical_formula_sum "Si O2"
_cell_formula_units_Z 96
_cell_length_a 12.198462
_cell_length_b 30.490417
_cell_length_c 14.638472
_cell_angle_alpha 90.000000
_cell_angle_beta 90.000000
_cell_angle_gamma 90.000000
_cell_volume 5444.577549
_symmetry_space_group_name_H-M "I M M M"
_symmetry_group_IT_number 71
_symmetry_cell_setting 'orthorhombic'
loop_
_space_group_symop_operation_xyz
x,y,z
-x,-y,z
x,-y,-z
-x,y,-z
-x,-y,-z
x,y,-z
-x,y,z
x,-y,z
1/2+x,1/2+y,1/2+z
1/2-x,1/2-y,1/2+z
1/2+x,1/2-y,1/2-z
1/2-x,1/2+y,1/2-z
1/2-x,1/2-y,1/2-z
1/2+x,1/2+y,1/2-z
1/2-x,1/2+y,1/2+z
1/2+x,1/2-y,1/2+z
loop_
_atom_site_type_symbol
_atom_site_label
_atom_site_fract_x
_atom_site_fract_y
_atom_site_fract_z
Si Si1 0.717937 0.450333 0.696873
Si Si2 0.123957 0.947090 0.000000
Si Si3 0.255799 0.358346 0.750205
Si Si4 0.500000 0.453327 0.178552
Si Si5 0.500000 0.262286 0.892536
Si Si6 0.500000 0.641083 0.176832
Si Si7 0.777839 0.716335 0.609418
Si Si8 0.370965 0.798197 0.608883
O O1 0.765378 0.500000 0.696906
O O2 0.685804 0.436840 0.593659
O O3 0.781138 0.408824 0.738546
O O4 0.605734 0.453375 0.755411
O O5 0.000000 0.928964 0.000000
O O6 0.114718 0.000000 0.000000
O O7 0.386975 0.357993 0.766636
O O8 0.233513 0.329052 0.661542
O O9 0.195673 0.334003 0.833554
O O10 0.500000 0.500000 0.127173
O O11 0.500000 0.406619 0.127634
O O12 0.500000 0.314305 0.879666
O O13 0.610823 0.240195 0.857043
O O14 0.500000 0.253658 0.000000
O O15 0.781401 0.710315 0.500000
O O16 0.679997 0.750401 0.629783
O O17 0.355279 0.805289 0.500000
O O18 0.500000 0.799677 0.629065
#
# Coordination Sequence:
#
# PCOD9520546 Si02
#       8
#    16   8  16   8   8   8  16  16
#     4   9  17  29  46  72 105 144 180 215 259 309
#     4   9  14  24  44  70 107 149 181 211 258 315
#     4  11  22  33  54  79 109 143 179 221 264 314
#     4   8  14  27  42  67 104 134 173 213 253 306
#     4  10  20  36  54  73 103 138 178 222 262 321
#     4  10  20  30  50  81 100 141 184 209 259 312
#     4  10  22  36  52  79 111 143 177 216 260 315
#     4  10  22  39  58  79 105 137 174 221 276 322
#
# _framework density 17.632223
#
# number of rings (size 3 to 8) (size 9 to 14) (size 15 to 20)
#    0.000    2.250    2.500    0.500    3.500    0.000 
#    0.000    0.000    0.000    1.250    0.000    5.833 
#    0.000    4.000    0.000    0.000    0.000    0.000 
#
# Total GULP energy -267417.286311 kJ/mol
# GULP energy per Si atom -5571.193465 kJ/mol
# Density = 1.759209 g / cm^3
# Si number density = 17.632223 Si / 1000 Ang^3
#
#
#
# Elastic Constant Matrix: (Units=GPa)
#
#
# Indices 1 2 3 4 5 6 
#
# 1 66.6858 41.6309 22.7180 0.0000 0.0000 0.0000
# 2 41.6309 149.6007 31.6928 -0.0001 0.0000 0.0000
# 3 22.7180 31.6928 42.0868 -0.0004 0.0000 0.0000
# 4 0.0000 -0.0001 -0.0004 7.1839 0.0001 0.0000
# 5 0.0000 0.0000 0.0000 0.0001 6.1555 0.0000
# 6 0.0000 0.0000 0.0000 0.0000 0.0000 14.3213
#
#
#
# Elastic Compliance Matrix: (Units=1/GPa)
#
#
# Indices 1 2 3 4 5 6 
#
# 1 0.020145 -0.003929 -0.007915 -0.000001 0.000000 0.000000
# 2 -0.003929 0.008720 -0.004445 0.000000 0.000000 0.000000
# 3 -0.007915 -0.004445 0.031381 0.000002 0.000000 0.000000
# 4 -0.000001 0.000000 0.000002 0.139199 -0.000002 0.000000
# 5 0.000000 0.000000 0.000000 -0.000002 0.162455 0.000000
# 6 0.000000 0.000000 0.000000 0.000000 0.000000 0.069826
#
#
# Mechanical properties :
#
#
# Convention : Reuss Voigt Hill
#
# Bulk Modulus (GPa) = 36.14581 50.05075 43.09828
# Shear Modulus (GPa) = 10.55905 16.35425 13.45665
#
# Velocity S-wave (km/s) = 2.44980 3.04883 2.76558
# Velocity P-wave (km/s) = 5.34288 6.39073 5.89015
#
# Compressibility (1/GPa) = 0.02766573
#
# Stress axis : x y z
#
# Youngs Moduli (GPa) = 49.63971 114.68439 31.86690
#
# Poissons Ratio (x) = 0.45061 0.25224
# Poissons Ratio (y) = 0.19504 0.14166
# Poissons Ratio (z) = 0.39292 0.50980
#
# Static dielectric constant tensor:
#      x y z
#    x 1.598080 0.000000 0.000000 
#    y 0.000000 1.626600 0.000000 
#    z 0.000000 0.000000 1.618220 
# 
# From -- ./inp_files/30011.got.cif
#   From: 2010.05.17/outbox.cif.g08.bks.cpg/sg71_16_cif.got.tgz:30011.got - 2010.06.03 16:22:01.
