data_PCOD9520233
_publ_section_title
;
Structure prediction by ZEFSAII (Michael W. Deem and Ramdas Pophale) SiO2 
 PCOD9520233
Probable space group: I M M M
;
_chemical_formula_sum "Si O2"
_cell_formula_units_Z 64
_cell_length_a 27.044476
_cell_length_b 13.962264
_cell_length_c 7.872971
_cell_angle_alpha 90.000000
_cell_angle_beta 90.000000
_cell_angle_gamma 90.000000
_cell_volume 2972.850490
_symmetry_space_group_name_H-M "I M M M"
_symmetry_group_IT_number 71
_symmetry_cell_setting 'orthorhombic'
loop_
_space_group_symop_operation_xyz
x,y,z
-x,-y,z
x,-y,-z
-x,y,-z
-x,-y,-z
x,y,-z
-x,y,z
x,-y,z
1/2+x,1/2+y,1/2+z
1/2-x,1/2-y,1/2+z
1/2+x,1/2-y,1/2-z
1/2-x,1/2+y,1/2-z
1/2-x,1/2-y,1/2-z
1/2+x,1/2+y,1/2-z
1/2-x,1/2+y,1/2+z
1/2+x,1/2-y,1/2+z
loop_
_atom_site_type_symbol
_atom_site_label
_atom_site_fract_x
_atom_site_fract_y
_atom_site_fract_z
Si Si1 0.263562 0.643806 0.200713
Si Si2 0.078762 0.500000 0.191887
Si Si3 0.443326 0.214085 0.293758
Si Si4 0.122910 0.893138 0.795905
Si Si5 0.682968 0.000000 0.185534
O O1 0.250000 0.750000 0.250000
O O2 0.318918 0.618267 0.257370
O O3 0.220306 0.586133 0.290645
O O4 0.260288 0.626797 0.000000
O O5 0.065023 0.604285 0.268248
O O6 0.138038 0.500000 0.186464
O O7 0.057971 0.500000 0.000000
O O8 0.437026 0.209498 0.500000
O O9 0.500000 0.240786 0.258043
O O10 0.406891 0.299104 0.232238
O O11 0.107310 0.000000 0.734170
O O12 0.116843 0.893747 0.000000
O O13 0.659688 0.000000 0.000000
#
# Coordination Sequence:
#
# PCOD9520233 Si02
#       5
#    16   8  16  16   8
#     4  12  24  39  60  86 119 159 200 246 299 361
#     4  10  19  34  58  86 118 155 201 254 305 360
#     4   9  18  33  56  86 116 152 201 255 305 353
#     4  10  20  35  56  83 119 158 200 250 299 356
#     4  12  24  39  59  87 121 157 200 246 299 363
#
# _framework density 21.52816
#
# number of rings (size 3 to 8) (size 9 to 14) (size 15 to 20)
#    0.000    1.500    1.250    5.250    0.000    4.000 
#    0.000    2.500    0.000    3.750    0.000    1.750 
#    0.000    0.000    0.000    0.000    0.000    0.000 
#
# Total GULP energy -178592.451908 kJ/mol
# GULP energy per Si atom -5581.014122 kJ/mol
# Density = 2.147916 g / cm^3
# Si number density = 21.528160 Si / 1000 Ang^3
#
#
#
# Elastic Constant Matrix: (Units=GPa)
#
#
# Indices 1 2 3 4 5 6 
#
# 1 110.2728 44.2963 -0.9321 0.0000 0.0000 0.0000
# 2 44.2963 164.1946 10.1736 0.0000 0.0000 0.0000
# 3 -0.9321 10.1736 44.9621 0.0000 0.0000 0.0000
# 4 0.0000 0.0000 0.0000 7.2608 0.0000 0.0000
# 5 0.0000 0.0000 0.0000 0.0000 16.2607 0.0000
# 6 0.0000 0.0000 0.0000 0.0000 0.0000 22.9365
#
#
#
# Elastic Compliance Matrix: (Units=1/GPa)
#
#
# Indices 1 2 3 4 5 6 
#
# 1 0.010202 -0.002805 0.000846 0.000000 0.000000 0.000000
# 2 -0.002805 0.006948 -0.001630 0.000000 0.000000 0.000000
# 3 0.000846 -0.001630 0.022627 0.000000 0.000000 0.000000
# 4 0.000000 0.000000 0.000000 0.137725 0.000000 0.000000
# 5 0.000000 0.000000 0.000000 0.000000 0.061498 0.000000
# 6 0.000000 0.000000 0.000000 0.000000 0.000000 0.043599
#
#
# Mechanical properties :
#
#
# Convention : Reuss Voigt Hill
#
# Bulk Modulus (GPa) = 30.67504 47.38946 39.03225
# Shear Modulus (GPa) = 16.63099 27.01772 21.82436
#
# Velocity S-wave (km/s) = 2.78244 3.54643 3.18741
# Velocity P-wave (km/s) = 4.96008 6.23138 5.63172
#
# Compressibility (1/GPa) = 0.03259979
#
# Stress axis : x y z
#
# Youngs Moduli (GPa) = 98.01765 143.92596 44.19428
#
# Poissons Ratio (x) = 0.40368 -0.03739
# Poissons Ratio (y) = 0.27492 0.07205
# Poissons Ratio (z) = -0.08294 0.23464
#
# Static dielectric constant tensor:
#      x y z
#    x 1.714630 0.000000 0.000000 
#    y 0.000000 1.789660 0.000000 
#    z 0.000000 0.000000 1.797610 
# 
# From -- ./inp_files/11978.got.cif
#   From: 2010.05.17/outbox.cif.g08.bks.cpg/sg71_6_cif.got.tgz:11978.got - 2010.06.03 16:22:01.
