data_PCOD9520742
_publ_section_title
;
Structure prediction by ZEFSAII (Michael W. Deem and Ramdas Pophale) SiO2 
 PCOD9520742
Probable space group: I M M M
;
_chemical_formula_sum "Si O2"
_cell_formula_units_Z 96
_cell_length_a 9.198777
_cell_length_b 22.463233
_cell_length_c 22.061394
_cell_angle_alpha 90.000000
_cell_angle_beta 90.000000
_cell_angle_gamma 90.000000
_cell_volume 4558.640068
_symmetry_space_group_name_H-M "I M M M"
_symmetry_group_IT_number 71
_symmetry_cell_setting 'orthorhombic'
loop_
_space_group_symop_operation_xyz
x,y,z
-x,-y,z
x,-y,-z
-x,y,-z
-x,-y,-z
x,y,-z
-x,y,z
x,-y,z
1/2+x,1/2+y,1/2+z
1/2-x,1/2-y,1/2+z
1/2+x,1/2-y,1/2-z
1/2-x,1/2+y,1/2-z
1/2-x,1/2-y,1/2-z
1/2+x,1/2+y,1/2-z
1/2-x,1/2+y,1/2+z
1/2+x,1/2-y,1/2+z
loop_
_atom_site_type_symbol
_atom_site_label
_atom_site_fract_x
_atom_site_fract_y
_atom_site_fract_z
Si Si1 0.830683 0.927347 0.567631
Si Si2 0.325694 0.901891 0.067235
Si Si3 0.165860 0.906201 0.187710
Si Si4 0.336096 0.071246 0.687635
Si Si5 0.837561 0.236911 0.190719
Si Si6 0.823950 0.772303 0.064677
O O1 0.778936 0.909518 0.500000
O O2 0.740640 0.906702 0.626077
O O3 0.000000 0.910113 0.573834
O O4 0.827562 0.000000 0.568289
O O5 0.500000 0.901666 0.075084
O O6 0.250017 0.927969 0.127403
O O7 0.262426 0.834632 0.063612
O O8 0.294451 0.928219 0.000000
O O9 0.246723 0.918442 0.250767
O O10 0.159631 0.834444 0.183441
O O11 0.000000 0.928137 0.188860
O O12 0.500000 0.094844 0.693455
O O13 0.344868 0.000000 0.681296
O O14 0.750000 0.250000 0.250000
O O15 0.779947 0.260265 0.126311
O O16 0.000000 0.259249 0.199466
O O17 0.000000 0.783329 0.068880
O O18 0.797432 0.742149 0.000000
#
# Coordination Sequence:
#
# PCOD9520742 Si02
#       6
#    16  16  16  16  16  16
#     4   8  14  26  45  68  93 122 156 192 230 274
#     4   9  16  26  43  68  94 118 148 189 235 277
#     4  10  20  33  49  69  94 126 162 194 229 278
#     4  10  20  32  48  72  99 125 155 194 239 281
#     4   9  18  30  46  69  93 120 153 189 230 274
#     4   8  14  26  43  63  88 117 151 189 226 268
#
# _framework density 21.058910999999998
#
# number of rings (size 3 to 8) (size 9 to 14) (size 15 to 20)
#    0.000    3.000    0.000    3.000    0.000    5.667 
#    0.000    1.667    0.000    1.500    0.000    8.167 
#    0.000    0.000    0.000    0.000    0.000    0.000 
#
# Total GULP energy -267435.518498 kJ/mol
# GULP energy per Si atom -5571.573302 kJ/mol
# Density = 2.101098 g / cm^3
# Si number density = 21.058911 Si / 1000 Ang^3
#
#
#
# Elastic Constant Matrix: (Units=GPa)
#
#
# Indices 1 2 3 4 5 6 
#
# 1 115.8221 5.5933 117.6136 0.0000 0.0000 0.0000
# 2 5.5933 47.3496 8.4982 0.0000 0.0000 0.0000
# 3 117.6136 8.4982 289.2135 0.0000 0.0000 0.0000
# 4 0.0000 0.0000 0.0000 21.1088 0.0000 0.0000
# 5 0.0000 0.0000 0.0000 0.0000 42.7397 0.0000
# 6 0.0000 0.0000 0.0000 0.0000 0.0000 9.3792
#
#
#
# Elastic Compliance Matrix: (Units=1/GPa)
#
#
# Indices 1 2 3 4 5 6 
#
# 1 0.014728 -0.000668 -0.005970 0.000000 0.000000 0.000000
# 2 -0.000668 0.021262 -0.000353 0.000000 0.000000 0.000000
# 3 -0.005970 -0.000353 0.005896 0.000000 0.000000 0.000000
# 4 0.000000 0.000000 0.000000 0.047374 0.000000 0.000000
# 5 0.000000 0.000000 0.000000 0.000000 0.023397 0.000000
# 6 0.000000 0.000000 0.000000 0.000000 0.000000 0.106619
#
#
# Mechanical properties :
#
#
# Convention : Reuss Voigt Hill
#
# Bulk Modulus (GPa) = 35.83771 79.53282 57.68526
# Shear Modulus (GPa) = 20.61345 36.02421 28.31883
#
# Velocity S-wave (km/s) = 3.13205 4.14048 3.67105
# Velocity P-wave (km/s) = 5.48948 7.79146 6.73948
#
# Compressibility (1/GPa) = 0.02790357
#
# Stress axis : x y z
#
# Youngs Moduli (GPa) = 67.89560 47.03271 169.61208
#
# Poissons Ratio (x) = 0.03143 1.01258
# Poissons Ratio (y) = 0.04538 0.05987
# Poissons Ratio (z) = 0.40533 0.01660
#
# Static dielectric constant tensor:
#      x y z
#    x 1.735620 0.000000 0.000000 
#    y 0.000000 1.826140 0.000000 
#    z 0.000000 0.000000 1.818690 
# 
# From -- ./inp_files/50788.got.cif
#   From: 2010.05.17/outbox.cif.g08.bks.cpg/sg71_26_cif.got.tgz:50788.got - 2010.06.03 16:22:01.
