data_PCOD9520286
_publ_section_title
;
Structure prediction by ZEFSAII (Michael W. Deem and Ramdas Pophale) SiO2 
 PCOD9520286
Probable space group: I M M M
;
_chemical_formula_sum "Si O2"
_cell_formula_units_Z 116
_cell_length_a 25.631076
_cell_length_b 7.696367
_cell_length_c 30.814921
_cell_angle_alpha 90.000000
_cell_angle_beta 90.000000
_cell_angle_gamma 90.000000
_cell_volume 6078.741368
_symmetry_space_group_name_H-M "I M M M"
_symmetry_group_IT_number 71
_symmetry_cell_setting 'orthorhombic'
loop_
_space_group_symop_operation_xyz
x,y,z
-x,-y,z
x,-y,-z
-x,y,-z
-x,-y,-z
x,y,-z
-x,y,z
x,-y,z
1/2+x,1/2+y,1/2+z
1/2-x,1/2-y,1/2+z
1/2+x,1/2-y,1/2-z
1/2-x,1/2+y,1/2-z
1/2-x,1/2-y,1/2-z
1/2+x,1/2+y,1/2-z
1/2-x,1/2+y,1/2+z
1/2+x,1/2-y,1/2+z
loop_
_atom_site_type_symbol
_atom_site_label
_atom_site_fract_x
_atom_site_fract_y
_atom_site_fract_z
Si Si1 0.351786 0.289486 0.886139
Si Si2 0.231595 0.212284 0.548989
Si Si3 0.914294 0.809799 0.837707
Si Si4 0.000000 0.500000 0.157573
Si Si5 0.688484 0.797934 0.376823
Si Si6 0.728134 0.798351 0.809597
Si Si7 0.559287 0.289460 0.827996
Si Si8 0.861572 0.294857 0.250536
O O1 0.348603 0.500000 0.883577
O O2 0.324717 0.237754 0.931035
O O3 0.314321 0.217631 0.848463
O O4 0.409973 0.239879 0.872065
O O5 0.239660 0.272619 0.500000
O O6 0.275063 0.268934 0.584019
O O7 0.233268 0.000000 0.548610
O O8 0.954514 0.653046 0.841590
O O9 0.866709 0.792522 0.871542
O O10 0.885426 0.794626 0.791237
O O11 0.938426 0.000000 0.841363
O O12 0.721406 0.785724 0.331728
O O13 0.678672 0.000000 0.384835
O O14 0.694442 0.728343 0.768807
O O15 0.739403 0.000000 0.802161
O O16 0.500000 0.226735 0.825510
O O17 0.558357 0.500000 0.825747
O O18 0.595125 0.226777 0.788349
O O19 0.855584 0.500000 0.241939
#
# Coordination Sequence:
#
# PCOD9520286 Si02
#       8
#    16  16  16   4  16  16  16  16
#     4   8  14  26  42  64  98 135 174 222 274 333
#     4   8  14  26  51  82 107 136 171 211 270 341
#     4  12  25  41  62  82 110 150 187 236 283 323
#     4  12  26  48  60  82 113 146 198 234 271 326
#     4  10  19  35  55  80 114 144 178 226 276 337
#     4   9  17  29  49  73 105 144 180 225 276 337
#     4   9  17  27  42  64  92 136 191 240 283 323
#     4  10  20  34  48  73 108 142 189 240 285 325
#
# _framework density 19.082898
#
# number of rings (size 3 to 8) (size 9 to 14) (size 15 to 20)
#    0.000    2.483    1.379    2.276    0.966    2.483 
#    0.000    0.000    0.000   10.759    0.000    3.862 
#    0.000    1.103    0.000   22.483    0.000   22.345 
#
# Total GULP energy -322941.960059 kJ/mol
# GULP energy per Si atom -5567.964829 kJ/mol
# Density = 1.903946 g / cm^3
# Si number density = 19.082898 Si / 1000 Ang^3
#
#
#
# Elastic Constant Matrix: (Units=GPa)
#
#
# Indices 1 2 3 4 5 6 
#
# 1 122.6840 27.9963 36.1574 0.0000 0.0000 0.0000
# 2 27.9963 84.4678 8.6586 0.0000 0.0000 0.0000
# 3 36.1574 8.6586 85.4555 0.0000 0.0000 0.0000
# 4 0.0000 0.0000 0.0000 7.3695 0.0000 0.0000
# 5 0.0000 0.0000 0.0000 0.0000 10.2892 0.0000
# 6 0.0000 0.0000 0.0000 0.0000 0.0000 12.1487
#
#
#
# Elastic Compliance Matrix: (Units=1/GPa)
#
#
# Indices 1 2 3 4 5 6 
#
# 1 0.009970 -0.002902 -0.003924 0.000000 0.000000 0.000000
# 2 -0.002902 0.012808 -0.000070 0.000000 0.000000 0.000000
# 3 -0.003924 -0.000070 0.013370 0.000000 0.000000 0.000000
# 4 0.000000 0.000000 0.000000 0.135694 0.000000 0.000000
# 5 0.000000 0.000000 0.000000 0.000000 0.097190 0.000000
# 6 0.000000 0.000000 0.000000 0.000000 0.000000 0.082313
#
#
# Mechanical properties :
#
#
# Convention : Reuss Voigt Hill
#
# Bulk Modulus (GPa) = 44.73335 48.69243 46.71289
# Shear Modulus (GPa) = 13.41963 20.61448 17.01706
#
# Velocity S-wave (km/s) = 2.65472 3.29030 2.98945
# Velocity P-wave (km/s) = 5.73491 6.32506 6.03720
#
# Compressibility (1/GPa) = 0.02235469
#
# Stress axis : x y z
#
# Youngs Moduli (GPa) = 100.30214 78.07687 74.79705
#
# Poissons Ratio (x) = 0.22659 0.29353
# Poissons Ratio (y) = 0.29109 0.00522
# Poissons Ratio (z) = 0.39362 0.00545
#
# Static dielectric constant tensor:
#      x y z
#    x 1.679140 0.000000 0.000000 
#    y 0.000000 1.694070 0.000000 
#    z 0.000000 0.000000 1.683970 
# 
# From -- ./inp_files/71028.got.cif
#   From: 2010.05.17/outbox.cif.g08.bks.cpg/sg71_36_cif.got.tgz:71028.got - 2010.06.03 16:22:01.
