data_PCOD9520005
_publ_section_title
;
Structure prediction by ZEFSAII (Michael W. Deem and Ramdas Pophale) SiO2 
 PCOD9520005
Probable space group: I M M M
;
_chemical_formula_sum "Si O2"
_cell_formula_units_Z 80
_cell_length_a 15.818272
_cell_length_b 14.403274
_cell_length_c 18.921551
_cell_angle_alpha 90.000000
_cell_angle_beta 90.000000
_cell_angle_gamma 90.000000
_cell_volume 4310.989790
_symmetry_space_group_name_H-M "I M M M"
_symmetry_group_IT_number 71
_symmetry_cell_setting 'orthorhombic'
loop_
_space_group_symop_operation_xyz
x,y,z
-x,-y,z
x,-y,-z
-x,y,-z
-x,-y,-z
x,y,-z
-x,y,z
x,-y,z
1/2+x,1/2+y,1/2+z
1/2-x,1/2-y,1/2+z
1/2+x,1/2-y,1/2-z
1/2-x,1/2+y,1/2-z
1/2-x,1/2-y,1/2-z
1/2+x,1/2+y,1/2-z
1/2-x,1/2+y,1/2+z
1/2+x,1/2-y,1/2+z
loop_
_atom_site_type_symbol
_atom_site_label
_atom_site_fract_x
_atom_site_fract_y
_atom_site_fract_z
Si Si1 0.905554 0.795271 0.829457
Si Si2 0.377513 0.101507 0.264010
Si Si3 0.257184 0.247414 0.080072
Si Si4 0.407312 0.892442 0.099371
Si Si5 0.184965 0.892544 0.699755
O O1 0.908718 0.686709 0.809356
O O2 0.827467 0.797023 0.884721
O O3 0.878923 0.848184 0.756852
O O4 0.000000 0.825144 0.852458
O O5 0.407815 0.109706 0.184391
O O6 0.275929 0.107161 0.261699
O O7 0.399894 0.000000 0.292618
O O8 0.329852 0.170035 0.076674
O O9 0.295851 0.327672 0.131616
O O10 0.239504 0.280562 0.000000
O O11 0.500000 0.859878 0.076117
O O12 0.396812 0.000000 0.079266
O O13 0.163402 0.000000 0.682629
#
# Coordination Sequence:
#
# PCOD9520005 Si02
#       5
#    16  16  16  16  16
#     4  11  21  36  59  86 116 153 198 240 283 338
#     4   9  16  31  57  85 111 136 173 236 297 333
#     4  11  23  39  57  84 122 156 189 235 293 358
#     4  10  19  33  57  86 112 138 174 230 299 353
#     4  10  20  37  59  82 111 151 201 245 281 326
#
# _framework density 18.557224000000001
#
# number of rings (size 3 to 8) (size 9 to 14) (size 15 to 20)
#    0.000    1.800    4.000    1.800    0.000    3.200 
#    0.000    1.000    0.000    0.000    0.000   11.200 
#    0.000    0.000    0.000    0.000    0.000    0.000 
#
# Total GULP energy -222946.810497 kJ/mol
# GULP energy per Si atom -5573.670262 kJ/mol
# Density = 1.851499 g / cm^3
# Si number density = 18.557224 Si / 1000 Ang^3
#
#
#
# Elastic Constant Matrix: (Units=GPa)
#
#
# Indices 1 2 3 4 5 6 
#
# 1 138.6914 57.8984 46.1225 0.0000 0.0000 0.0000
# 2 57.8984 76.0125 31.1420 0.0000 0.0000 0.0000
# 3 46.1225 31.1420 109.3298 0.0000 0.0000 0.0000
# 4 0.0000 0.0000 0.0000 -1.1591 0.0000 0.0000
# 5 0.0000 0.0000 0.0000 0.0000 -37.9757 0.0000
# 6 0.0000 0.0000 0.0000 0.0000 0.0000 10.6811
#
#
#
# Elastic Compliance Matrix: (Units=1/GPa)
#
#
# Indices 1 2 3 4 5 6 
#
# 1 0.011186 -0.007458 -0.002595 0.000000 0.000000 0.000000
# 2 -0.007458 0.019865 -0.002512 0.000000 0.000000 0.000000
# 3 -0.002595 -0.002512 0.010957 0.000000 0.000000 0.000000
# 4 0.000000 0.000000 0.000000 -0.862732 0.000000 0.000000
# 5 0.000000 0.000000 0.000000 0.000000 -0.026333 0.000000
# 6 0.000000 0.000000 0.000000 0.000000 0.000000 0.093623
#
#
# Mechanical properties :
#
#
# Convention : Reuss Voigt Hill
#
# Bulk Modulus (GPa) = 59.24525 66.03997 62.64261
# Shear Modulus (GPa) = -6.91873 6.90066 -0.00903
#
# Velocity S-wave (km/s) = -1.93298 1.93046 -0.06985
# Velocity P-wave (km/s) = 5.19742 6.37443 5.81577
#
# Compressibility (1/GPa) = 0.01687899
#
# Stress axis : x y z
#
# Youngs Moduli (GPa) = 89.39395 50.33869 91.26567
#
# Poissons Ratio (x) = 0.37540 0.23683
# Poissons Ratio (y) = 0.66666 0.22930
# Poissons Ratio (z) = 0.23197 0.12648
#
# Static dielectric constant tensor:
#      x y z
#    x 1.672380 0.000000 0.000000 
#    y 0.000000 1.652380 0.000000 
#    z 0.000000 0.000000 1.648230 
# 
# From -- ./inp_files/34279.got.cif
#   From: 2010.05.17/outbox.cif.g08.bks.cpg/sg71_18_cif.got.tgz:34279.got - 2010.06.03 16:22:01.
