data_PCOD9520830
_publ_section_title
;
Structure prediction by ZEFSAII (Michael W. Deem and Ramdas Pophale) SiO2 
 PCOD9520830
Probable space group: I M M M
;
_chemical_formula_sum "Si O2"
_cell_formula_units_Z 64
_cell_length_a 7.839623
_cell_length_b 25.531824
_cell_length_c 18.021302
_cell_angle_alpha 90.000000
_cell_angle_beta 90.000000
_cell_angle_gamma 90.000000
_cell_volume 3607.141550
_symmetry_space_group_name_H-M "I M M M"
_symmetry_group_IT_number 71
_symmetry_cell_setting 'orthorhombic'
loop_
_space_group_symop_operation_xyz
x,y,z
-x,-y,z
x,-y,-z
-x,y,-z
-x,-y,-z
x,y,-z
-x,y,z
x,-y,z
1/2+x,1/2+y,1/2+z
1/2-x,1/2-y,1/2+z
1/2+x,1/2-y,1/2-z
1/2-x,1/2+y,1/2-z
1/2-x,1/2-y,1/2-z
1/2+x,1/2+y,1/2-z
1/2-x,1/2+y,1/2+z
1/2+x,1/2-y,1/2+z
loop_
_atom_site_type_symbol
_atom_site_label
_atom_site_fract_x
_atom_site_fract_y
_atom_site_fract_z
Si Si1 0.500000 0.827892 0.088247
Si Si2 0.694710 0.293358 0.690274
Si Si3 0.500000 0.057480 0.838257
Si Si4 0.812649 0.908750 0.258995
Si Si5 0.705166 0.062104 0.418454
O O1 0.333939 0.800849 0.125518
O O2 0.500000 0.890005 0.111288
O O3 0.500000 0.823239 0.000000
O O4 0.500000 0.283114 0.664721
O O5 0.750000 0.250000 0.750000
O O6 0.695347 0.348944 0.732475
O O7 0.663874 0.061799 0.784628
O O8 0.500000 0.000000 0.875283
O O9 0.784183 0.911567 0.346832
O O10 0.000000 0.929934 0.240879
O O11 0.761787 0.080665 0.500000
O O12 0.500000 0.067867 0.414806
O O13 0.741724 0.000000 0.413970
#
# Coordination Sequence:
#
# PCOD9520830 Si02
#       5
#     8  16   8  16  16
#     4  10  22  39  60  89 121 150 189 238 288 343
#     4  10  20  37  62  86 110 146 187 233 285 341
#     4  10  20  35  55  80 112 149 189 233 280 333
#     4  10  20  32  51  79 106 138 186 234 276 332
#     4   9  17  29  45  67 100 140 178 219 266 314
#
# _framework density 17.742581000000001
#
# number of rings (size 3 to 8) (size 9 to 14) (size 15 to 20)
#    0.000    2.250    2.500    1.500    0.000    3.250 
#    0.000    2.500    0.000    0.000    0.000    7.000 
#    0.000    0.000    0.000    0.000    0.000    0.000 
#
# Total GULP energy -178439.083467 kJ/mol
# GULP energy per Si atom -5576.221358 kJ/mol
# Density = 1.770220 g / cm^3
# Si number density = 17.742581 Si / 1000 Ang^3
#
#
#
# Elastic Constant Matrix: (Units=GPa)
#
#
# Indices 1 2 3 4 5 6 
#
# 1 145.9622 40.8272 70.8762 0.0000 0.0000 0.0000
# 2 40.8272 53.2583 27.9461 0.0000 0.0000 0.0000
# 3 70.8762 27.9461 137.3856 0.0000 0.0000 0.0001
# 4 0.0000 0.0000 0.0000 4.1809 0.0000 0.0000
# 5 0.0000 0.0000 0.0000 0.0000 19.8040 0.0000
# 6 0.0000 0.0000 0.0001 0.0000 0.0000 -537.7291
#
#
#
# Elastic Compliance Matrix: (Units=1/GPa)
#
#
# Indices 1 2 3 4 5 6 
#
# 1 0.010556 -0.005860 -0.004254 0.000000 0.000000 0.000000
# 2 -0.005860 0.024273 -0.001914 0.000000 0.000000 0.000000
# 3 -0.004254 -0.001914 0.009863 0.000000 0.000000 0.000000
# 4 0.000000 0.000000 0.000000 0.239180 0.000000 0.000000
# 5 0.000000 0.000000 0.000000 0.000000 0.050495 0.000000
# 6 0.000000 0.000000 0.000000 0.000000 0.000000 -0.001860
#
#
# Mechanical properties :
#
#
# Convention : Reuss Voigt Hill
#
# Bulk Modulus (GPa) = 48.46002 68.43391 58.44696
# Shear Modulus (GPa) = 13.75740 -89.61839 -37.93050
#
# Velocity S-wave (km/s) = 2.78760 -7.11477 -4.62868
# Velocity P-wave (km/s) = 6.14273 5.37021 2.10878
#
# Compressibility (1/GPa) = 0.02063557
#
# Stress axis : x y z
#
# Youngs Moduli (GPa) = 94.73640 41.19795 101.39321
#
# Poissons Ratio (x) = 0.24141 0.43129
# Poissons Ratio (y) = 0.55514 0.19411
# Poissons Ratio (z) = 0.40297 0.07887
#
# Static dielectric constant tensor:
#      x y z
#    x 1.643510 0.000000 0.000000 
#    y 0.000000 1.602410 0.000000 
#    z 0.000000 0.000000 1.575980 
# 
# From -- ./inp_files/5544.got.cif
#   From: 2010.05.17/outbox.cif.g08.bks.cpg/sg71_3_cif.got.tgz:5544.got - 2010.06.03 16:22:01.
