data_PCOD9520769
_publ_section_title
;
Structure prediction by ZEFSAII (Michael W. Deem and Ramdas Pophale) SiO2 
 PCOD9520769
Probable space group: I M M M
;
_chemical_formula_sum "Si O2"
_cell_formula_units_Z 88
_cell_length_a 20.201806
_cell_length_b 31.120071
_cell_length_c 8.898882
_cell_angle_alpha 90.000000
_cell_angle_beta 90.000000
_cell_angle_gamma 90.000000
_cell_volume 5594.563704
_symmetry_space_group_name_H-M "I M M M"
_symmetry_group_IT_number 71
_symmetry_cell_setting 'orthorhombic'
loop_
_space_group_symop_operation_xyz
x,y,z
-x,-y,z
x,-y,-z
-x,y,-z
-x,-y,-z
x,y,-z
-x,y,z
x,-y,z
1/2+x,1/2+y,1/2+z
1/2-x,1/2-y,1/2+z
1/2+x,1/2-y,1/2-z
1/2-x,1/2+y,1/2-z
1/2-x,1/2-y,1/2-z
1/2+x,1/2+y,1/2-z
1/2-x,1/2+y,1/2+z
1/2+x,1/2-y,1/2+z
loop_
_atom_site_type_symbol
_atom_site_label
_atom_site_fract_x
_atom_site_fract_y
_atom_site_fract_z
Si Si1 0.500000 0.947834 0.670334
Si Si2 0.639887 0.049646 0.181266
Si Si3 0.708044 0.132084 0.176175
Si Si4 0.072423 0.317739 0.328158
Si Si5 0.712158 0.291418 0.821604
Si Si6 0.425341 0.272589 0.322381
O O1 0.500000 0.931167 0.500000
O O2 0.568589 0.937109 0.752408
O O3 0.500000 0.000000 0.665272
O O4 0.697388 0.082954 0.226761
O O5 0.652701 0.000000 0.223228
O O6 0.634930 0.051941 0.000000
O O7 0.633985 0.151338 0.186515
O O8 0.753270 0.164652 0.268108
O O9 0.727904 0.133219 0.000000
O O10 0.074980 0.300259 0.500000
O O11 0.077708 0.278167 0.215114
O O12 0.000000 0.338331 0.309272
O O13 0.750000 0.250000 0.750000
O O14 0.636433 0.291970 0.765764
O O15 0.715530 0.286742 0.000000
O O16 0.417253 0.279465 0.500000
O O17 0.500000 0.286731 0.278807
#
# Coordination Sequence:
#
# PCOD9520769 Si02
#       6
#     8  16  16  16  16  16
#     4   9  17  29  45  65  91 125 163 207 255 293
#     4   9  18  32  49  68  91 123 164 207 250 295
#     4  10  20  32  49  70  94 127 164 206 249 290
#     4   9  17  28  43  64  91 126 166 203 241 283
#     4  12  23  35  51  71  99 131 164 201 242 289
#     4  10  20  34  52  72  95 125 161 200 240 285
#
# _framework density 15.729556000000001
#
# number of rings (size 3 to 8) (size 9 to 14) (size 15 to 20)
#    0.000    2.091    1.818    2.455    1.273    2.909 
#    0.000    0.000    0.000    0.000    0.000    0.000 
#    0.000    0.727    0.000    8.364    0.000    2.364 
#
# Total GULP energy -245321.442490 kJ/mol
# GULP energy per Si atom -5575.487329 kJ/mol
# Density = 1.569375 g / cm^3
# Si number density = 15.729556 Si / 1000 Ang^3
#
#
#
# Elastic Constant Matrix: (Units=GPa)
#
#
# Indices 1 2 3 4 5 6 
#
# 1 88.2980 47.4351 49.1794 0.0000 0.0000 0.0000
# 2 47.4351 82.4235 40.4497 0.0000 0.0000 0.0000
# 3 49.1794 40.4497 70.1950 0.0001 0.0000 0.0000
# 4 0.0000 0.0000 0.0001 14.5771 0.0000 0.0000
# 5 0.0000 0.0000 0.0000 0.0000 21.5979 0.0000
# 6 0.0000 0.0000 0.0000 0.0000 0.0000 27.5173
#
#
#
# Elastic Compliance Matrix: (Units=1/GPa)
#
#
# Indices 1 2 3 4 5 6 
#
# 1 0.020976 -0.006776 -0.010791 0.000000 0.000000 0.000000
# 2 -0.006776 0.019105 -0.006262 0.000000 0.000000 0.000000
# 3 -0.010791 -0.006262 0.025415 0.000000 0.000000 0.000000
# 4 0.000000 0.000000 0.000000 0.068601 0.000000 0.000000
# 5 0.000000 0.000000 0.000000 0.000000 0.046301 0.000000
# 6 0.000000 0.000000 0.000000 0.000000 0.000000 0.036341
#
#
# Mechanical properties :
#
#
# Convention : Reuss Voigt Hill
#
# Bulk Modulus (GPa) = 56.06147 57.22720 56.64433
# Shear Modulus (GPa) = 18.49503 19.66193 19.07848
#
# Velocity S-wave (km/s) = 3.43273 3.53937 3.48646
# Velocity P-wave (km/s) = 7.17146 7.29135 7.23165
#
# Compressibility (1/GPa) = 0.01783756
#
# Stress axis : x y z
#
# Youngs Moduli (GPa) = 47.67392 52.34203 39.34673
#
# Poissons Ratio (x) = 0.35466 0.42460
# Poissons Ratio (y) = 0.32303 0.24639
# Poissons Ratio (z) = 0.51447 0.32777
#
# Static dielectric constant tensor:
#      x y z
#    x 1.527880 0.000000 0.000000 
#    y 0.000000 1.549390 0.000000 
#    z 0.000000 0.000000 1.547210 
# 
# From -- ./inp_files/11380.got.cif
#   From: 2010.05.17/outbox.cif.g08.bks.cpg/sg71_6_cif.got.tgz:11380.got - 2010.06.03 16:22:01.
