data_PCOD9520213
_publ_section_title
;
Structure prediction by ZEFSAII (Michael W. Deem and Ramdas Pophale) SiO2 
 PCOD9520213
Probable space group: I M M M
;
_chemical_formula_sum "Si O2"
_cell_formula_units_Z 82
_cell_length_a 26.040767
_cell_length_b 20.552412
_cell_length_c 8.118044
_cell_angle_alpha 90.000000
_cell_angle_beta 90.000000
_cell_angle_gamma 90.000000
_cell_volume 4344.781794
_symmetry_space_group_name_H-M "I M M M"
_symmetry_group_IT_number 71
_symmetry_cell_setting 'orthorhombic'
loop_
_space_group_symop_operation_xyz
x,y,z
-x,-y,z
x,-y,-z
-x,y,-z
-x,-y,-z
x,y,-z
-x,y,z
x,-y,z
1/2+x,1/2+y,1/2+z
1/2-x,1/2-y,1/2+z
1/2+x,1/2-y,1/2-z
1/2-x,1/2+y,1/2-z
1/2-x,1/2-y,1/2-z
1/2+x,1/2+y,1/2-z
1/2-x,1/2+y,1/2+z
1/2+x,1/2-y,1/2+z
loop_
_atom_site_type_symbol
_atom_site_label
_atom_site_fract_x
_atom_site_fract_y
_atom_site_fract_z
Si Si1 0.500000 0.000000 0.000000
Si Si2 0.000000 0.073776 0.197094
Si Si3 0.296776 0.574666 0.798194
Si Si4 0.500000 0.135606 0.816186
Si Si5 0.780353 0.684606 0.196390
Si Si6 0.603373 0.202262 0.199439
Si Si7 0.899033 0.148881 0.697625
O O1 0.500000 0.941098 0.858241
O O2 0.949782 0.110587 0.256944
O O3 0.000000 0.000000 0.259704
O O4 0.000000 0.072712 0.000000
O O5 0.293546 0.500000 0.743351
O O6 0.250516 0.621160 0.743655
O O7 0.349143 0.609805 0.742889
O O8 0.297068 0.573695 0.000000
O O9 0.445983 0.160332 0.741588
O O10 0.500000 0.167879 0.000000
O O11 0.750000 0.750000 0.250000
O O12 0.839590 0.681650 0.248221
O O13 0.778371 0.684527 0.000000
O O14 0.597882 0.276941 0.256786
O O15 0.603897 0.200003 0.000000
O O16 0.894782 0.152332 0.500000
#
# Coordination Sequence:
#
# PCOD9520213 Si02
#       7
#     2   8  16   8  16  16  16
#     4   8  16  36  56  88 118 168 174 236 302 350
#     4  11  24  37  48  75 114 145 173 224 283 333
#     4   9  18  34  54  78 107 143 185 227 268 326
#     4   8  17  33  56  80 117 147 187 225 284 341
#     4  11  21  36  57  83 115 150 186 231 286 340
#     4  10  19  36  59  86 109 140 187 242 275 328
#     4  10  19  34  58  78 101 141 191 230 268 319
#
# _framework density 18.873214000000001
#
# number of rings (size 3 to 8) (size 9 to 14) (size 15 to 20)
#    0.293    1.854    1.951    2.049    0.000    3.902 
#    1.756    0.488    0.000    2.927    0.000    0.683 
#    0.000    0.000    0.000    0.000    0.000    0.000 
#
# Total GULP energy -228330.818587 kJ/mol
# GULP energy per Si atom -5569.044356 kJ/mol
# Density = 1.883026 g / cm^3
# Si number density = 18.873214 Si / 1000 Ang^3
#
#
#
# Elastic Constant Matrix: (Units=GPa)
#
#
# Indices 1 2 3 4 5 6 
#
# 1 212.9104 125.3490 10.7017 0.0000 0.0000 0.0000
# 2 125.3490 200.2461 12.8576 0.0000 0.0000 0.0000
# 3 10.7017 12.8576 8.2429 0.0000 0.0000 0.0000
# 4 0.0000 0.0000 0.0000 10.4544 0.0000 0.0000
# 5 0.0000 0.0000 0.0000 0.0000 28.3047 0.0000
# 6 0.0000 0.0000 0.0000 0.0000 0.0000 12.2252
#
#
#
# Elastic Compliance Matrix: (Units=1/GPa)
#
#
# Indices 1 2 3 4 5 6 
#
# 1 0.007491 -0.004517 -0.002679 0.000000 0.000000 0.000000
# 2 -0.004517 0.008273 -0.007041 0.000000 0.000000 0.000000
# 3 -0.002679 -0.007041 0.135777 0.000000 0.000000 0.000000
# 4 0.000000 0.000000 0.000000 0.095654 0.000000 0.000000
# 5 0.000000 0.000000 0.000000 0.000000 0.035330 0.000000
# 6 0.000000 0.000000 0.000000 0.000000 0.000000 0.081798
#
#
# Mechanical properties :
#
#
# Convention : Reuss Voigt Hill
#
# Bulk Modulus (GPa) = 8.12566 79.91289 44.01928
# Shear Modulus (GPa) = 11.52552 28.36294 19.94423
#
# Velocity S-wave (km/s) = 2.47388 3.88082 3.25429
# Velocity P-wave (km/s) = 3.53197 7.90664 6.12331
#
# Compressibility (1/GPa) = 0.12306685
#
# Stress axis : x y z
#
# Youngs Moduli (GPa) = 133.49606 120.86793 7.36501
#
# Poissons Ratio (x) = 0.54597 0.01973
# Poissons Ratio (y) = 0.60301 0.05186
# Poissons Ratio (z) = 0.35770 0.85101
#
# Static dielectric constant tensor:
#      x y z
#    x 1.666460 0.000000 0.000000 
#    y 0.000000 1.645690 0.000000 
#    z 0.000000 0.000000 1.685010 
# 
# From -- ./inp_files/12454.got.cif
#   From: 2010.05.17/outbox.cif.g08.bks.cpg/sg71_7_cif.got.tgz:12454.got - 2010.06.03 16:22:01.
