data_PCOD9520681
_publ_section_title
;
Structure prediction by ZEFSAII (Michael W. Deem and Ramdas Pophale) SiO2 
 PCOD9520681
Probable space group: I M M M
;
_chemical_formula_sum "Si O2"
_cell_formula_units_Z 88
_cell_length_a 20.312009
_cell_length_b 31.598974
_cell_length_c 8.382100
_cell_angle_alpha 90.000000
_cell_angle_beta 90.000000
_cell_angle_gamma 90.000000
_cell_volume 5379.955700
_symmetry_space_group_name_H-M "I M M M"
_symmetry_group_IT_number 71
_symmetry_cell_setting 'orthorhombic'
loop_
_space_group_symop_operation_xyz
x,y,z
-x,-y,z
x,-y,-z
-x,y,-z
-x,-y,-z
x,y,-z
-x,y,z
x,-y,z
1/2+x,1/2+y,1/2+z
1/2-x,1/2-y,1/2+z
1/2+x,1/2-y,1/2-z
1/2-x,1/2+y,1/2-z
1/2-x,1/2-y,1/2-z
1/2+x,1/2+y,1/2-z
1/2-x,1/2+y,1/2+z
1/2+x,1/2-y,1/2+z
loop_
_atom_site_type_symbol
_atom_site_label
_atom_site_fract_x
_atom_site_fract_y
_atom_site_fract_z
Si Si1 0.000000 0.948588 0.182618
Si Si2 0.211002 0.291979 0.807898
Si Si3 0.703836 0.370918 0.814334
Si Si4 0.073160 0.264282 0.690058
Si Si5 0.645023 0.451961 0.308026
Si Si6 0.573911 0.330921 0.687727
O O1 0.928258 0.938669 0.253667
O O2 0.000000 0.000000 0.174069
O O3 0.000000 0.932181 0.000000
O O4 0.250000 0.250000 0.750000
O O5 0.246989 0.334819 0.750132
O O6 0.136169 0.289984 0.747999
O O7 0.212766 0.291394 0.000000
O O8 0.698491 0.417035 0.736699
O O9 0.631564 0.351214 0.788531
O O10 0.717934 0.376375 0.000000
O O11 0.078762 0.256714 0.500000
O O12 0.075784 0.219175 0.778828
O O13 0.000000 0.282593 0.720291
O O14 0.639374 0.453027 0.500000
O O15 0.658904 0.500000 0.253904
O O16 0.585616 0.338960 0.500000
O O17 0.500000 0.345794 0.727681
#
# Coordination Sequence:
#
# PCOD9520681 Si02
#       6
#     8  16  16  16  16  16
#     4   7  12  26  47  67  87 115 155 203 245 281
#     4  11  22  35  51  71  99 135 170 204 245 292
#     4  11  23  34  47  70  98 129 163 206 254 293
#     4  10  20  34  52  73  98 127 161 206 253 293
#     4   9  18  33  51  69  91 123 164 206 247 295
#     4  10  20  32  47  67  92 128 171 207 243 292
#
# _framework density 16.357012000000001
#
# number of rings (size 3 to 8) (size 9 to 14) (size 15 to 20)
#    0.000    2.091    1.818    3.273    1.273    4.727 
#    0.000    0.000    0.000    1.636    0.000    0.000 
#    0.000    0.727    0.000    8.000    0.000    5.818 
#
# Total GULP energy -245401.437720 kJ/mol
# GULP energy per Si atom -5577.305403 kJ/mol
# Density = 1.631978 g / cm^3
# Si number density = 16.357012 Si / 1000 Ang^3
#
#
#
# Elastic Constant Matrix: (Units=GPa)
#
#
# Indices 1 2 3 4 5 6 
#
# 1 88.5264 55.4403 10.6173 0.0000 0.0000 0.0000
# 2 55.4403 104.3864 12.0085 0.0000 0.0000 0.0000
# 3 10.6173 12.0085 21.2974 0.0002 0.0003 0.0000
# 4 0.0000 0.0000 0.0002 21.7648 0.0000 0.0000
# 5 0.0000 0.0000 0.0003 0.0000 20.7349 0.0000
# 6 0.0000 0.0000 0.0000 0.0000 0.0000 30.4511
#
#
#
# Elastic Compliance Matrix: (Units=1/GPa)
#
#
# Indices 1 2 3 4 5 6 
#
# 1 0.017188 -0.008708 -0.003659 0.000000 0.000000 0.000000
# 2 -0.008708 0.014656 -0.003923 0.000000 0.000000 0.000000
# 3 -0.003659 -0.003923 0.050990 0.000000 -0.000001 0.000000
# 4 0.000000 0.000000 0.000000 0.045946 0.000000 0.000000
# 5 0.000000 0.000000 -0.000001 0.000000 0.048228 0.000000
# 6 0.000000 0.000000 0.000000 0.000000 0.000000 0.032840
#
#
# Mechanical properties :
#
#
# Convention : Reuss Voigt Hill
#
# Bulk Modulus (GPa) = 19.89838 41.14918 30.52378
# Shear Modulus (GPa) = 19.29179 23.66643 21.47911
#
# Velocity S-wave (km/s) = 3.43799 3.80790 3.62766
# Velocity P-wave (km/s) = 5.28689 6.67420 6.02064
#
# Compressibility (1/GPa) = 0.05025534
#
# Stress axis : x y z
#
# Youngs Moduli (GPa) = 58.17918 68.23206 19.61172
#
# Poissons Ratio (x) = 0.59416 0.07176
# Poissons Ratio (y) = 0.50662 0.07693
# Poissons Ratio (z) = 0.21287 0.26764
#
# Static dielectric constant tensor:
#      x y z
#    x 1.560580 0.000000 0.000000 
#    y 0.000000 1.581770 0.000000 
#    z 0.000000 0.000000 1.566720 
# 
# From -- ./inp_files/8873.got.cif
#   From: 2010.05.17/outbox.cif.g08.bks.cpg/sg71_5_cif.got.tgz:8873.got - 2010.06.03 16:22:01.
