data_PCOD9520753
_publ_section_title
;
Structure prediction by ZEFSAII (Michael W. Deem and Ramdas Pophale) SiO2 
 PCOD9520753
Probable space group: I M M M
;
_chemical_formula_sum "Si O2"
_cell_formula_units_Z 128
_cell_length_a 23.972053
_cell_length_b 19.647746
_cell_length_c 14.965589
_cell_angle_alpha 90.000000
_cell_angle_beta 90.000000
_cell_angle_gamma 90.000000
_cell_volume 7048.744655
_symmetry_space_group_name_H-M "I M M M"
_symmetry_group_IT_number 71
_symmetry_cell_setting 'orthorhombic'
loop_
_space_group_symop_operation_xyz
x,y,z
-x,-y,z
x,-y,-z
-x,y,-z
-x,-y,-z
x,y,-z
-x,y,z
x,-y,z
1/2+x,1/2+y,1/2+z
1/2-x,1/2-y,1/2+z
1/2+x,1/2-y,1/2-z
1/2-x,1/2+y,1/2-z
1/2-x,1/2-y,1/2-z
1/2+x,1/2+y,1/2-z
1/2-x,1/2+y,1/2+z
1/2+x,1/2-y,1/2+z
loop_
_atom_site_type_symbol
_atom_site_label
_atom_site_fract_x
_atom_site_fract_y
_atom_site_fract_z
Si Si1 0.821399 0.684268 0.891603
Si Si2 0.561941 0.767293 0.395010
Si Si3 0.222329 0.922603 0.853057
Si Si4 0.265974 0.576739 0.857335
Si Si5 0.065078 0.073913 0.706429
Si Si6 0.596475 0.390789 0.401506
Si Si7 0.223495 0.714792 0.392757
Si Si8 0.861572 0.821946 0.600706
O O1 0.883943 0.694770 0.856957
O O2 0.793610 0.613097 0.865920
O O3 0.777949 0.742921 0.859812
O O4 0.823011 0.689410 0.000000
O O5 0.558362 0.786238 0.500000
O O6 0.500000 0.777196 0.355667
O O7 0.578188 0.687705 0.394208
O O8 0.215944 0.923940 0.746221
O O9 0.163361 0.899654 0.894828
O O10 0.267346 0.864143 0.872427
O O11 0.235371 0.000000 0.882119
O O12 0.265599 0.500000 0.890702
O O13 0.309446 0.626072 0.904868
O O14 0.072226 0.075074 0.813288
O O15 0.095604 0.138539 0.663701
O O16 0.000000 0.076942 0.684549
O O17 0.087637 0.000000 0.674040
O O18 0.578683 0.415275 0.500000
O O19 0.222563 0.722274 0.500000
O O20 0.167314 0.753208 0.361925
O O21 0.883655 0.811236 0.500000
#
# Coordination Sequence:
#
# PCOD9520753 Si02
#       8
#    16  16  16  16  16  16  16  16
#     4   9  17  30  48  71  97 129 170 215 262 307
#     4   9  17  30  49  72  99 133 176 220 255 299
#     4  11  21  32  50  77 108 139 169 209 263 316
#     4  10  20  32  48  74 103 132 172 216 262 318
#     4  11  24  39  53  75 107 140 182 227 261 306
#     4  11  21  35  53  73 104 143 181 217 256 307
#     4   9  18  33  51  76 103 131 173 214 255 315
#     4  10  21  37  57  76 101 136 176 223 269 311
#
# _framework density 18.159261999999998
#
# number of rings (size 3 to 8) (size 9 to 14) (size 15 to 20)
#    0.000    2.000    2.500    2.625    0.000    7.500 
#    0.000    1.250    0.000    0.375    0.000    1.750 
#    0.000    1.500    0.000    2.750    0.000    0.000 
#
# Total GULP energy -356955.299066 kJ/mol
# GULP energy per Si atom -5577.426548 kJ/mol
# Density = 1.811793 g / cm^3
# Si number density = 18.159262 Si / 1000 Ang^3
#
#
#
# Elastic Constant Matrix: (Units=GPa)
#
#
# Indices 1 2 3 4 5 6 
#
# 1 86.4011 34.3007 20.3332 0.0000 0.0000 0.0000
# 2 34.3007 75.3105 2.7975 0.0000 0.0000 0.0000
# 3 20.3332 2.7975 52.4689 0.0000 0.0000 0.0000
# 4 0.0000 0.0000 0.0000 4.9495 0.0000 0.0000
# 5 0.0000 0.0000 0.0000 0.0000 11.4324 0.0000
# 6 0.0000 0.0000 0.0000 0.0000 0.0000 20.4462
#
#
#
# Elastic Compliance Matrix: (Units=1/GPa)
#
#
# Indices 1 2 3 4 5 6 
#
# 1 0.015664 -0.006922 -0.005701 0.000000 0.000000 0.000000
# 2 -0.006922 0.016364 0.001810 0.000000 0.000000 0.000000
# 3 -0.005701 0.001810 0.021172 0.000000 0.000000 0.000000
# 4 0.000000 0.000000 0.000000 0.202039 0.000000 0.000000
# 5 0.000000 0.000000 0.000000 0.000000 0.087471 0.000000
# 6 0.000000 0.000000 0.000000 0.000000 0.000000 0.048909
#
#
# Mechanical properties :
#
#
# Convention : Reuss Voigt Hill
#
# Bulk Modulus (GPa) = 31.67281 36.56036 34.11658
# Shear Modulus (GPa) = 11.79888 17.81557 14.80723
#
# Velocity S-wave (km/s) = 2.55177 3.13561 2.85863
# Velocity P-wave (km/s) = 5.11484 5.76942 5.45197
#
# Compressibility (1/GPa) = 0.03157282
#
# Stress axis : x y z
#
# Youngs Moduli (GPa) = 63.84174 61.10988 47.23282
#
# Poissons Ratio (x) = 0.42303 0.26928
# Poissons Ratio (y) = 0.44194 -0.08550
# Poissons Ratio (z) = 0.36397 -0.11062
#
# Static dielectric constant tensor:
#      x y z
#    x 1.643670 0.000000 0.000000 
#    y 0.000000 1.642940 0.000000 
#    z 0.000000 0.000000 1.670310 
# 
# From -- ./inp_files/47751.got.cif
#   From: 2010.05.17/outbox.cif.g08.bks.cpg/sg71_24_cif.got.tgz:47751.got - 2010.06.03 16:22:01.
