data_PCOD9520185
_publ_section_title
;
Structure prediction by ZEFSAII (Michael W. Deem and Ramdas Pophale) SiO2 
 PCOD9520185
Probable space group: I M M M
;
_chemical_formula_sum "Si O2"
_cell_formula_units_Z 96
_cell_length_a 25.870794
_cell_length_b 24.353247
_cell_length_c 8.556238
_cell_angle_alpha 90.000000
_cell_angle_beta 90.000000
_cell_angle_gamma 90.000000
_cell_volume 5390.753677
_symmetry_space_group_name_H-M "I M M M"
_symmetry_group_IT_number 71
_symmetry_cell_setting 'orthorhombic'
loop_
_space_group_symop_operation_xyz
x,y,z
-x,-y,z
x,-y,-z
-x,y,-z
-x,-y,-z
x,y,-z
-x,y,z
x,-y,z
1/2+x,1/2+y,1/2+z
1/2-x,1/2-y,1/2+z
1/2+x,1/2-y,1/2-z
1/2-x,1/2+y,1/2-z
1/2-x,1/2-y,1/2-z
1/2+x,1/2+y,1/2-z
1/2-x,1/2+y,1/2+z
1/2+x,1/2-y,1/2+z
loop_
_atom_site_type_symbol
_atom_site_label
_atom_site_fract_x
_atom_site_fract_y
_atom_site_fract_z
Si Si1 0.560267 0.500000 0.812697
Si Si2 0.191052 0.308630 0.188803
Si Si3 0.098175 0.614956 0.811043
Si Si4 0.500000 0.812453 0.690374
Si Si5 0.689737 0.311662 0.812918
Si Si6 0.000000 0.813184 0.809514
Si Si7 0.059980 0.500000 0.313107
Si Si8 0.098780 0.884792 0.187399
O O1 0.500000 0.500000 0.759515
O O2 0.588006 0.445294 0.752007
O O3 0.560515 0.500000 0.000000
O O4 0.151382 0.355910 0.237562
O O5 0.250338 0.319703 0.235891
O O6 0.174896 0.249312 0.254731
O O7 0.189519 0.304836 0.000000
O O8 0.050812 0.654237 0.761410
O O9 0.087924 0.554696 0.746199
O O10 0.097644 0.612075 0.000000
O O11 0.500000 0.811123 0.500000
O O12 0.500000 0.749664 0.744829
O O13 0.651385 0.356790 0.744427
O O14 0.687444 0.313251 0.000000
O O15 0.051042 0.846024 0.760325
O O16 0.000000 0.812277 0.000000
O O17 0.059278 0.500000 0.500000
O O18 0.000000 0.500000 0.257045
O O19 0.098497 0.886735 0.000000
#
# Coordination Sequence:
#
# PCOD9520185 Si02
#       8
#     8  16  16   8  16   8   8  16
#     4  11  23  39  58  81 114 149 184 230 285 338
#     4   9  19  36  58  83 112 148 188 230 276 331
#     4  10  19  34  57  80 104 139 188 229 264 318
#     4   9  16  27  49  80 106 129 168 223 270 311
#     4  10  20  35  56  84 117 150 183 226 283 334
#     4   9  18  31  51  80 110 137 172 223 274 323
#     4  11  23  37  52  75 112 147 176 218 279 336
#     4  11  21  36  58  82 111 147 191 231 272 332
#
# _framework density 17.80827
#
# number of rings (size 3 to 8) (size 9 to 14) (size 15 to 20)
#    0.000    2.000    1.667    2.500    0.000    4.667 
#    0.000    0.833    0.000    3.000    0.000    0.000 
#    0.000    0.000    0.000    0.000    0.000    0.000 
#
# Total GULP energy -268022.598128 kJ/mol
# GULP energy per Si atom -5583.804128 kJ/mol
# Density = 1.776774 g / cm^3
# Si number density = 17.808270 Si / 1000 Ang^3
#
#
#
# Elastic Constant Matrix: (Units=GPa)
#
#
# Indices 1 2 3 4 5 6 
#
# 1 115.6356 101.5911 30.5576 0.0000 0.0000 0.0000
# 2 101.5911 201.2500 36.3230 0.0000 0.0000 0.0000
# 3 30.5576 36.3230 25.5970 0.0000 0.0000 0.0000
# 4 0.0000 0.0000 0.0000 24.3306 0.0000 0.0000
# 5 0.0000 0.0000 0.0000 0.0000 20.7934 0.0000
# 6 0.0000 0.0000 0.0000 0.0000 0.0000 24.7850
#
#
#
# Elastic Compliance Matrix: (Units=1/GPa)
#
#
# Indices 1 2 3 4 5 6 
#
# 1 0.017697 -0.006883 -0.011359 0.000000 0.000000 0.000000
# 2 -0.006883 0.009357 -0.005061 0.000000 0.000000 0.000000
# 3 -0.011359 -0.005061 0.059808 0.000000 0.000000 0.000000
# 4 0.000000 0.000000 0.000000 0.041100 0.000000 0.000000
# 5 0.000000 0.000000 0.000000 0.000000 0.048092 0.000000
# 6 0.000000 0.000000 0.000000 0.000000 0.000000 0.040347
#
#
# Mechanical properties :
#
#
# Convention : Reuss Voigt Hill
#
# Bulk Modulus (GPa) = 24.84060 75.49180 50.16620
# Shear Modulus (GPa) = 18.08803 25.58254 21.83528
#
# Velocity S-wave (km/s) = 3.19048 3.79430 3.50542
# Velocity P-wave (km/s) = 5.24894 7.85360 6.67946
#
# Compressibility (1/GPa) = 0.04025668
#
# Stress axis : x y z
#
# Youngs Moduli (GPa) = 56.50773 106.87212 16.72008
#
# Poissons Ratio (x) = 0.73562 0.18992
# Poissons Ratio (y) = 0.38895 0.08462
# Poissons Ratio (z) = 0.64186 0.54085
#
# Static dielectric constant tensor:
#      x y z
#    x 1.608630 0.000000 0.000000 
#    y 0.000000 1.569240 0.000000 
#    z 0.000000 0.000000 1.602180 
# 
# From -- ./inp_files/12959.got.cif
#   From: 2010.05.17/outbox.cif.g08.bks.cpg/sg71_7_cif.got.tgz:12959.got - 2010.06.03 16:22:01.
