data_PCOD9520144
_publ_section_title
;
Structure prediction by ZEFSAII (Michael W. Deem and Ramdas Pophale) SiO2 
 PCOD9520144
Probable space group: I M M M
;
_chemical_formula_sum "Si O2"
_cell_formula_units_Z 74
_cell_length_a 7.769308
_cell_length_b 25.068442
_cell_length_c 21.110458
_cell_angle_alpha 90.000000
_cell_angle_beta 90.000000
_cell_angle_gamma 90.000000
_cell_volume 4111.566678
_symmetry_space_group_name_H-M "I M M M"
_symmetry_group_IT_number 71
_symmetry_cell_setting 'orthorhombic'
loop_
_space_group_symop_operation_xyz
x,y,z
-x,-y,z
x,-y,-z
-x,y,-z
-x,-y,-z
x,y,-z
-x,y,z
x,-y,z
1/2+x,1/2+y,1/2+z
1/2-x,1/2-y,1/2+z
1/2+x,1/2-y,1/2-z
1/2-x,1/2+y,1/2-z
1/2-x,1/2-y,1/2-z
1/2+x,1/2+y,1/2-z
1/2-x,1/2+y,1/2+z
1/2+x,1/2-y,1/2+z
loop_
_atom_site_type_symbol
_atom_site_label
_atom_site_fract_x
_atom_site_fract_y
_atom_site_fract_z
Si Si1 0.692776 0.240725 0.925611
Si Si2 0.000000 0.160608 0.924596
Si Si3 0.000000 0.939820 0.834661
Si Si4 0.300257 0.151288 0.370426
Si Si5 0.693967 0.914004 0.500000
Si Si6 0.205719 0.560848 0.230012
Si Si7 0.000000 0.000000 0.500000
O O1 0.500000 0.219031 0.921593
O O2 0.834161 0.196846 0.909268
O O3 0.708064 0.292534 0.881182
O O4 0.723494 0.256283 0.000000
O O5 0.000000 0.106181 0.886210
O O6 0.000000 0.150817 0.000000
O O7 0.169124 0.934924 0.790075
O O8 0.000000 0.000000 0.861215
O O9 0.500000 0.163594 0.356620
O O10 0.292217 0.121732 0.437569
O O11 0.243547 0.107682 0.318697
O O12 0.500000 0.937425 0.500000
O O13 0.848552 0.954599 0.500000
O O14 0.230254 0.500000 0.203765
O O15 0.000000 0.565750 0.243493
#
# Coordination Sequence:
#
# PCOD9520144 Si02
#       7
#    16   8   8  16   8  16   2
#     4  10  20  34  57  85 118 155 192 231 288 343
#     4  10  22  41  65  91 118 143 178 234 296 362
#     4  10  22  42  66  89 113 147 186 233 294 352
#     4  10  19  34  56  79 113 159 203 246 289 333
#     4  10  23  35  49  74 113 153 206 258 302 330
#     4   9  20  37  57  81 114 157 199 239 284 338
#     4  12  26  32  40  70 112 156 202 264 304 318
#
# _framework density 17.998006
#
# number of rings (size 3 to 8) (size 9 to 14) (size 15 to 20)
#    0.000    2.162    2.162    0.162    4.541    1.081 
#    1.946    1.081    0.000    0.000    0.000    6.054 
#    0.000    0.000    0.000    0.000    0.000    0.000 
#
# Total GULP energy -206045.242096 kJ/mol
# GULP energy per Si atom -5568.790327 kJ/mol
# Density = 1.795704 g / cm^3
# Si number density = 17.998006 Si / 1000 Ang^3
#
#
#
# Elastic Constant Matrix: (Units=GPa)
#
#
# Indices 1 2 3 4 5 6 
#
# 1 113.5667 76.8167 34.3007 0.0000 0.0000 0.0000
# 2 76.8167 147.9740 65.2753 0.0000 0.0000 0.0000
# 3 34.3007 65.2753 47.3668 0.0000 0.0000 0.0000
# 4 0.0000 0.0000 0.0000 32.8090 0.0000 0.0000
# 5 0.0000 0.0000 0.0000 0.0000 5.5538 0.0000
# 6 0.0000 0.0000 0.0000 0.0000 0.0000 15.2320
#
#
#
# Elastic Compliance Matrix: (Units=1/GPa)
#
#
# Indices 1 2 3 4 5 6 
#
# 1 0.013572 -0.006912 -0.000303 0.000000 0.000000 0.000000
# 2 -0.006912 0.020756 -0.023598 0.000000 0.000000 0.000000
# 3 -0.000303 -0.023598 0.053851 0.000000 0.000000 0.000000
# 4 0.000000 0.000000 0.000000 0.030479 0.000000 0.000000
# 5 0.000000 0.000000 0.000000 0.000000 0.180058 0.000000
# 6 0.000000 0.000000 0.000000 0.000000 0.000000 0.065651
#
#
# Mechanical properties :
#
#
# Convention : Reuss Voigt Hill
#
# Bulk Modulus (GPa) = 37.66022 73.52142 55.59082
# Shear Modulus (GPa) = 11.49836 19.55326 15.52581
#
# Velocity S-wave (km/s) = 2.53033 3.29965 2.94026
# Velocity P-wave (km/s) = 5.43202 7.44684 6.51775
#
# Compressibility (1/GPa) = 0.02655322
#
# Stress axis : x y z
#
# Youngs Moduli (GPa) = 73.68020 48.17974 18.56981
#
# Poissons Ratio (x) = 0.33301 0.00563
# Poissons Ratio (y) = 0.50927 0.43820
# Poissons Ratio (z) = 0.02234 1.13693
#
# Static dielectric constant tensor:
#      x y z
#    x 1.633810 0.000000 0.000000 
#    y 0.000000 1.602700 0.000000 
#    z 0.000000 0.000000 1.593720 
# 
# From -- ./inp_files/50369.got.cif
#   From: 2010.05.17/outbox.cif.g08.bks.cpg/sg71_26_cif.got.tgz:50369.got - 2010.06.03 16:22:01.
