data_PCOD9520702
_publ_section_title
;
Structure prediction by ZEFSAII (Michael W. Deem and Ramdas Pophale) SiO2 
 PCOD9520702
Probable space group: I M M M
;
_chemical_formula_sum "Si O2"
_cell_formula_units_Z 104
_cell_length_a 27.790109
_cell_length_b 23.915189
_cell_length_c 9.221832
_cell_angle_alpha 90.000000
_cell_angle_beta 90.000000
_cell_angle_gamma 90.000000
_cell_volume 6128.882195
_symmetry_space_group_name_H-M "I M M M"
_symmetry_group_IT_number 71
_symmetry_cell_setting 'orthorhombic'
loop_
_space_group_symop_operation_xyz
x,y,z
-x,-y,z
x,-y,-z
-x,y,-z
-x,-y,-z
x,y,-z
-x,y,z
x,-y,z
1/2+x,1/2+y,1/2+z
1/2-x,1/2-y,1/2+z
1/2+x,1/2-y,1/2-z
1/2-x,1/2+y,1/2-z
1/2-x,1/2-y,1/2-z
1/2+x,1/2+y,1/2-z
1/2-x,1/2+y,1/2+z
1/2+x,1/2-y,1/2+z
loop_
_atom_site_type_symbol
_atom_site_label
_atom_site_fract_x
_atom_site_fract_y
_atom_site_fract_z
Si Si1 0.771284 0.805450 0.174095
Si Si2 0.000000 0.568045 0.667144
Si Si3 0.557475 0.326110 0.330772
Si Si4 0.441595 0.437412 0.166823
Si Si5 0.097918 0.433228 0.171337
Si Si6 0.174161 0.641970 0.329295
Si Si7 0.861711 0.230712 0.328939
O O1 0.750000 0.750000 0.250000
O O2 0.731219 0.852858 0.203623
O O3 0.823902 0.808754 0.243411
O O4 0.773612 0.798159 0.000000
O O5 0.048863 0.585357 0.748120
O O6 0.000000 0.500000 0.668838
O O7 0.000000 0.586346 0.500000
O O8 0.568937 0.320042 0.500000
O O9 0.500000 0.320882 0.313062
O O10 0.572329 0.387385 0.272105
O O11 0.586231 0.281739 0.235610
O O12 0.500000 0.438637 0.167203
O O13 0.425323 0.500000 0.207407
O O14 0.426959 0.426130 0.000000
O O15 0.103147 0.500000 0.194020
O O16 0.143442 0.400794 0.235681
O O17 0.093228 0.423312 0.000000
O O18 0.168852 0.628745 0.500000
O O19 0.153078 0.704613 0.306790
O O20 0.859187 0.219516 0.500000
#
# Coordination Sequence:
#
# PCOD9520702 Si02
#       7
#    16   8  16  16  16  16  16
#     4   9  17  31  52  76 100 124 157 201 244 292
#     4   9  17  31  51  71  95 131 171 209 250 299
#     4  10  20  32  47  70 101 135 168 203 247 299
#     4   8  14  26  45  67  90 120 159 199 237 279
#     4  10  20  33  51  76 104 134 170 213 259 306
#     4   9  19  34  52  76 100 128 166 205 251 304
#     4  10  20  34  52  74 100 133 171 209 252 302
#
# _framework density 16.968836
#
# number of rings (size 3 to 8) (size 9 to 14) (size 15 to 20)
#    0.000    2.692    0.000    3.462    0.000    6.769 
#    1.385    1.538    0.000    0.923    0.000    4.308 
#    0.000    0.000    0.000    0.000    0.000    0.000 
#
# Total GULP energy -289689.109987 kJ/mol
# GULP energy per Si atom -5570.944423 kJ/mol
# Density = 1.693021 g / cm^3
# Si number density = 16.968836 Si / 1000 Ang^3
#
#
#
# Elastic Constant Matrix: (Units=GPa)
#
#
# Indices 1 2 3 4 5 6 
#
# 1 65.2565 24.9495 56.6215 0.0000 0.0000 0.0000
# 2 24.9495 26.3378 40.5389 0.0000 0.0000 0.0000
# 3 56.6215 40.5389 101.4886 0.0000 0.0000 0.0000
# 4 0.0000 0.0000 0.0000 25.5478 0.0000 0.0000
# 5 0.0000 0.0000 0.0000 0.0000 31.8268 0.0000
# 6 0.0000 0.0000 0.0000 0.0000 0.0000 26.2319
#
#
#
# Elastic Compliance Matrix: (Units=1/GPa)
#
#
# Indices 1 2 3 4 5 6 
#
# 1 0.030184 -0.006940 -0.014068 0.000000 0.000000 0.000000
# 2 -0.006940 0.100168 -0.036140 0.000000 0.000000 0.000000
# 3 -0.014068 -0.036140 0.032138 0.000000 0.000000 0.000000
# 4 0.000000 0.000000 0.000000 0.039142 0.000000 0.000000
# 5 0.000000 0.000000 0.000000 0.000000 0.031420 0.000000
# 6 0.000000 0.000000 0.000000 0.000000 0.000000 0.038122
#
#
# Mechanical properties :
#
#
# Convention : Reuss Voigt Hill
#
# Bulk Modulus (GPa) = 20.74901 48.58919 34.66910
# Shear Modulus (GPa) = 12.45228 21.45283 16.95256
#
# Velocity S-wave (km/s) = 2.71187 3.55949 3.16419
# Velocity P-wave (km/s) = 4.69680 6.75202 5.81591
#
# Compressibility (1/GPa) = 0.04819507
#
# Stress axis : x y z
#
# Youngs Moduli (GPa) = 33.13054 9.98320 31.11625
#
# Poissons Ratio (x) = 0.06928 0.43773
# Poissons Ratio (y) = 0.22992 1.12453
# Poissons Ratio (z) = 0.46607 0.36079
#
# Static dielectric constant tensor:
#      x y z
#    x 1.612730 0.000000 0.000000 
#    y 0.000000 1.573200 0.000000 
#    z 0.000000 0.000000 1.565150 
# 
# From -- ./inp_files/15325.got.cif
#   From: 2010.05.17/outbox.cif.g08.bks.cpg/sg71_8_cif.got.tgz:15325.got - 2010.06.03 16:22:01.
