data_PCOD9520612
_publ_section_title
;
Structure prediction by ZEFSAII (Michael W. Deem and Ramdas Pophale) SiO2 
 PCOD9520612
Probable space group: I M M M
;
_chemical_formula_sum "Si O2"
_cell_formula_units_Z 72
_cell_length_a 7.344304
_cell_length_b 26.854625
_cell_length_c 18.271307
_cell_angle_alpha 90.000000
_cell_angle_beta 90.000000
_cell_angle_gamma 90.000000
_cell_volume 3603.623017
_symmetry_space_group_name_H-M "I M M M"
_symmetry_group_IT_number 71
_symmetry_cell_setting 'orthorhombic'
loop_
_space_group_symop_operation_xyz
x,y,z
-x,-y,z
x,-y,-z
-x,y,-z
-x,-y,-z
x,y,-z
-x,y,z
x,-y,z
1/2+x,1/2+y,1/2+z
1/2-x,1/2-y,1/2+z
1/2+x,1/2-y,1/2-z
1/2-x,1/2+y,1/2-z
1/2-x,1/2-y,1/2-z
1/2+x,1/2+y,1/2-z
1/2-x,1/2+y,1/2+z
1/2+x,1/2-y,1/2+z
loop_
_atom_site_type_symbol
_atom_site_label
_atom_site_fract_x
_atom_site_fract_y
_atom_site_fract_z
Si Si1 0.283156 0.258926 0.164895
Si Si2 0.721892 0.839472 0.085307
Si Si3 0.216493 0.859822 0.412860
Si Si4 0.720011 0.053329 0.087402
Si Si5 0.500000 0.056746 0.411317
O O1 0.500000 0.260072 0.152129
O O2 0.250000 0.250000 0.250000
O O3 0.211406 0.210026 0.124127
O O4 0.218608 0.311526 0.132411
O O5 0.500000 0.839566 0.089073
O O6 0.783025 0.893133 0.116377
O O7 0.769879 0.837297 0.000000
O O8 0.246959 0.850715 0.500000
O O9 0.326240 0.909359 0.391313
O O10 0.000000 0.866549 0.402542
O O11 0.500000 0.052971 0.093871
O O12 0.786051 0.000000 0.116765
O O13 0.758498 0.053735 0.000000
O O14 0.500000 0.053592 0.500000
O O15 0.500000 0.000000 0.383245
#
# Coordination Sequence:
#
# PCOD9520612 Si02
#       5
#    16  16  16  16   8
#     4  10  20  31  46  68  94 133 170 211 258 303
#     4   8  13  23  40  61  86 118 157 198 241 292
#     4   9  18  33  53  77 106 139 175 217 266 320
#     4   7   9  14  28  53  82 108 135 174 224 270
#     4   9  18  32  54  84 110 134 168 216 274 329
#
# _framework density 19.979892
#
# number of rings (size 3 to 8) (size 9 to 14) (size 15 to 20)
#    0.000    3.444    0.000    2.667    1.556    3.111 
#    0.000    2.222    0.000    1.333    0.000    0.000 
#    0.000    0.000    0.000    5.556    0.000    4.444 
#
# Total GULP energy -200521.762838 kJ/mol
# GULP energy per Si atom -5570.048968 kJ/mol
# Density = 1.993442 g / cm^3
# Si number density = 19.979892 Si / 1000 Ang^3
#
#
#
# Elastic Constant Matrix: (Units=GPa)
#
#
# Indices 1 2 3 4 5 6 
#
# 1 85.0536 47.1083 11.8894 0.0000 0.0000 0.0000
# 2 47.1083 266.1029 67.2803 0.0000 0.0000 0.0000
# 3 11.8894 67.2803 41.9509 -0.0001 0.0000 0.0000
# 4 0.0000 0.0000 -0.0001 -3.0995 0.0000 0.0000
# 5 0.0000 0.0000 0.0000 0.0000 10.7792 0.0000
# 6 0.0000 0.0000 0.0000 0.0000 0.0000 -1.9937
#
#
#
# Elastic Compliance Matrix: (Units=1/GPa)
#
#
# Indices 1 2 3 4 5 6 
#
# 1 0.013035 -0.002310 0.000011 0.000000 0.000000 0.000000
# 2 -0.002310 0.006731 -0.010140 0.000000 0.000000 0.000000
# 3 0.000011 -0.010140 0.040096 -0.000001 0.000000 0.000000
# 4 0.000000 0.000000 -0.000001 -0.322628 0.000000 0.000001
# 5 0.000000 0.000000 0.000000 0.000000 0.092772 0.000000
# 6 0.000000 0.000000 0.000000 0.000001 0.000000 -0.501583
#
#
# Mechanical properties :
#
#
# Convention : Reuss Voigt Hill
#
# Bulk Modulus (GPa) = 28.58443 71.74037 50.16240
# Shear Modulus (GPa) = -7.87355 18.92582 5.52613
#
# Velocity S-wave (km/s) = -1.98728 3.08107 1.66489
# Velocity P-wave (km/s) = 3.01197 6.97435 5.37185
#
# Compressibility (1/GPa) = 0.03498408
#
# Stress axis : x y z
#
# Youngs Moduli (GPa) = 76.71398 148.57419 24.94008
#
# Poissons Ratio (x) = 0.34328 -0.00028
# Poissons Ratio (y) = 0.17725 0.25288
# Poissons Ratio (z) = -0.00085 1.50650
#
# Static dielectric constant tensor:
#      x y z
#    x 1.824990 0.000000 0.000000 
#    y 0.000000 1.749640 0.000000 
#    z 0.000000 0.000000 1.661230 
# 
# From -- ./inp_files/42080.got.cif
#   From: 2010.05.17/outbox.cif.g08.bks.cpg/sg71_22_cif.got.tgz:42080.got - 2010.06.03 16:22:01.
