data_PCOD9520255
_publ_section_title
;
Structure prediction by ZEFSAII (Michael W. Deem and Ramdas Pophale) SiO2 
 PCOD9520255
Probable space group: I M M M
;
_chemical_formula_sum "Si O2"
_cell_formula_units_Z 100
_cell_length_a 29.726087
_cell_length_b 7.260471
_cell_length_c 21.176900
_cell_angle_alpha 90.000000
_cell_angle_beta 90.000000
_cell_angle_gamma 90.000000
_cell_volume 4570.512757
_symmetry_space_group_name_H-M "I M M M"
_symmetry_group_IT_number 71
_symmetry_cell_setting 'orthorhombic'
loop_
_space_group_symop_operation_xyz
x,y,z
-x,-y,z
x,-y,-z
-x,y,-z
-x,-y,-z
x,y,-z
-x,y,z
x,-y,z
1/2+x,1/2+y,1/2+z
1/2-x,1/2-y,1/2+z
1/2+x,1/2-y,1/2-z
1/2-x,1/2+y,1/2-z
1/2-x,1/2-y,1/2-z
1/2+x,1/2+y,1/2-z
1/2-x,1/2+y,1/2+z
1/2+x,1/2-y,1/2+z
loop_
_atom_site_type_symbol
_atom_site_label
_atom_site_fract_x
_atom_site_fract_y
_atom_site_fract_z
Si Si1 0.949906 0.222231 0.384423
Si Si2 0.550609 0.724440 0.262088
Si Si3 0.748504 0.500000 0.000000
Si Si4 0.227312 0.776357 0.113060
Si Si5 0.309248 0.778776 0.805589
Si Si6 0.640273 0.708187 0.322398
Si Si7 0.145017 0.711346 0.432795
O O1 0.942885 0.278963 0.311241
O O2 0.908694 0.287842 0.425938
O O3 0.000000 0.280241 0.403793
O O4 0.949049 0.000000 0.385971
O O5 0.500000 0.778298 0.281071
O O6 0.551937 0.500000 0.262020
O O7 0.591919 0.790868 0.304736
O O8 0.752962 0.338236 0.055538
O O9 0.258035 0.738087 0.175069
O O10 0.176184 0.716163 0.127901
O O11 0.228695 0.000000 0.103477
O O12 0.332040 0.701776 0.743353
O O13 0.336352 0.711596 0.867641
O O14 0.313916 0.000000 0.800352
O O15 0.631189 0.500000 0.343597
O O16 0.157667 0.799134 0.500000
O O17 0.160758 0.500000 0.434372
#
# Coordination Sequence:
#
# PCOD9520255 Si02
#       7
#    16  16   4  16  16  16  16
#     4   9  17  31  48  67  95 134 182 239 290 331
#     4   8  14  27  50  81 114 146 184 235 296 356
#     4  12  26  44  68  90 117 170 205 242 296 376
#     4  10  24  42  61  91 124 156 201 251 295 354
#     4  10  21  36  55  78 116 156 189 249 297 344
#     4  10  19  34  60  89 119 152 193 247 302 352
#     4  10  21  34  47  67  98 147 192 231 292 342
#
# _framework density 21.879382
#
# number of rings (size 3 to 8) (size 9 to 14) (size 15 to 20)
#    0.000    2.400    1.600    1.680    3.360    0.960 
#    0.000    1.600    0.000    0.480    0.000    1.120 
#    0.000    3.840    0.000    0.000    0.000    0.000 
#
# Total GULP energy -278728.124332 kJ/mol
# GULP energy per Si atom -5574.562487 kJ/mol
# Density = 2.182958 g / cm^3
# Si number density = 21.879382 Si / 1000 Ang^3
#
#
#
# Elastic Constant Matrix: (Units=GPa)
#
#
# Indices 1 2 3 4 5 6 
#
# 1 133.7890 -5.3261 15.9670 0.0000 0.0000 0.0000
# 2 -5.3261 109.3005 -1.4188 0.0000 0.0000 0.0000
# 3 15.9670 -1.4188 37.5177 0.0000 0.0000 0.0000
# 4 0.0000 0.0000 0.0000 37.9575 0.0000 0.0000
# 5 0.0000 0.0000 0.0000 0.0000 24.5964 0.0000
# 6 0.0000 0.0000 0.0000 0.0000 0.0000 40.2268
#
#
#
# Elastic Compliance Matrix: (Units=1/GPa)
#
#
# Indices 1 2 3 4 5 6 
#
# 1 0.007887 0.000341 -0.003344 0.000000 0.000000 0.000000
# 2 0.000341 0.009168 0.000202 0.000000 0.000000 0.000000
# 3 -0.003344 0.000202 0.028085 0.000000 0.000000 0.000000
# 4 0.000000 0.000000 0.000000 0.026345 0.000000 0.000000
# 5 0.000000 0.000000 0.000000 0.000000 0.040656 0.000000
# 6 0.000000 0.000000 0.000000 0.000000 0.000000 0.024859
#
#
# Mechanical properties :
#
#
# Convention : Reuss Voigt Hill
#
# Bulk Modulus (GPa) = 25.29227 33.22792 29.26010
# Shear Modulus (GPa) = 32.09604 38.64847 35.37225
#
# Velocity S-wave (km/s) = 3.83424 4.20746 4.02517
# Velocity P-wave (km/s) = 5.58451 6.23084 5.91651
#
# Compressibility (1/GPa) = 0.03953777
#
# Stress axis : x y z
#
# Youngs Moduli (GPa) = 126.78959 109.07121 35.60655
#
# Poissons Ratio (x) = -0.03719 0.11906
# Poissons Ratio (y) = -0.04323 -0.00718
# Poissons Ratio (z) = 0.42395 -0.02199
#
# Static dielectric constant tensor:
#      x y z
#    x 1.856670 0.000000 0.000000 
#    y 0.000000 1.715840 0.000000 
#    z 0.000000 0.000000 1.767460 
# 
# From -- ./inp_files/56707.got.cif
#   From: 2010.05.17/outbox.cif.g08.bks.cpg/sg71_29_cif.got.tgz:56707.got - 2010.06.03 16:22:01.
