data_PCOD9520416
_publ_section_title
;
Structure prediction by ZEFSAII (Michael W. Deem and Ramdas Pophale) SiO2 
 PCOD9520416
Probable space group: I M M M
;
_chemical_formula_sum "Si O2"
_cell_formula_units_Z 52
_cell_length_a 15.303837
_cell_length_b 7.291763
_cell_length_c 23.707211
_cell_angle_alpha 90.000000
_cell_angle_beta 90.000000
_cell_angle_gamma 90.000000
_cell_volume 2645.533961
_symmetry_space_group_name_H-M "I M M M"
_symmetry_group_IT_number 71
_symmetry_cell_setting 'orthorhombic'
loop_
_space_group_symop_operation_xyz
x,y,z
-x,-y,z
x,-y,-z
-x,y,-z
-x,-y,-z
x,y,-z
-x,y,z
x,-y,z
1/2+x,1/2+y,1/2+z
1/2-x,1/2-y,1/2+z
1/2+x,1/2-y,1/2-z
1/2-x,1/2+y,1/2-z
1/2-x,1/2-y,1/2-z
1/2+x,1/2+y,1/2-z
1/2-x,1/2+y,1/2+z
1/2+x,1/2-y,1/2+z
loop_
_atom_site_type_symbol
_atom_site_label
_atom_site_fract_x
_atom_site_fract_y
_atom_site_fract_z
Si Si1 0.320151 0.000000 0.000000
Si Si2 0.836343 0.280534 0.000000
Si Si3 0.231230 0.782959 0.684202
Si Si4 0.405381 0.778082 0.620886
Si Si5 0.604225 0.000000 0.126222
O O1 0.255129 0.174606 0.000000
O O2 0.372708 0.000000 0.940847
O O3 0.889888 0.232273 0.055732
O O4 0.821727 0.500000 0.000000
O O5 0.250000 0.750000 0.750000
O O6 0.319813 0.717414 0.653621
O O7 0.150983 0.671789 0.657370
O O8 0.219542 0.000000 0.674529
O O9 0.500000 0.712957 0.640898
O O10 0.406227 0.000000 0.625129
O O11 0.500000 0.000000 0.133548
#
# Coordination Sequence:
#
# PCOD9520416 Si02
#       5
#     4   8  16  16   8
#     4  12  23  42  69  90 128 182 239 282 335 390
#     4  10  19  35  61  90 125 167 207 269 337 394
#     4  11  23  43  69  95 134 174 218 276 338 405
#     4   9  18  34  60  92 125 163 205 257 330 402
#     4  12  27  46  68  98 134 181 235 288 334 390
#
# _framework density 19.655767000000001
#
# number of rings (size 3 to 8) (size 9 to 14) (size 15 to 20)
#    0.000    1.538    4.615    0.692    0.000    3.692 
#    0.000    3.846    0.000    2.769    0.000    0.000 
#    0.000    0.000    0.000    0.000    0.000    0.000 
#
# Total GULP energy -145215.707349 kJ/mol
# GULP energy per Si atom -5585.219513 kJ/mol
# Density = 1.961103 g / cm^3
# Si number density = 19.655767 Si / 1000 Ang^3
#
#
#
# Elastic Constant Matrix: (Units=GPa)
#
#
# Indices 1 2 3 4 5 6 
#
# 1 208.4235 54.0740 70.2857 0.0000 0.0000 0.0000
# 2 54.0740 124.4855 27.0015 0.0000 0.0000 0.0000
# 3 70.2857 27.0015 120.4488 0.0000 0.0000 0.0000
# 4 0.0000 0.0000 0.0000 20.1802 0.0000 0.0000
# 5 0.0000 0.0000 0.0000 0.0000 2.7171 0.0000
# 6 0.0000 0.0000 0.0000 0.0000 0.0000 23.9896
#
#
#
# Elastic Compliance Matrix: (Units=1/GPa)
#
#
# Indices 1 2 3 4 5 6 
#
# 1 0.006451 -0.002087 -0.003297 0.000000 0.000000 0.000000
# 2 -0.002087 0.009119 -0.000826 0.000000 0.000000 0.000000
# 3 -0.003297 -0.000826 0.010411 0.000000 0.000000 0.000000
# 4 0.000000 0.000000 0.000000 0.049553 0.000000 0.000000
# 5 0.000000 0.000000 0.000000 0.000000 0.368040 0.000000
# 6 0.000000 0.000000 0.000000 0.000000 0.000000 0.041685
#
#
# Mechanical properties :
#
#
# Convention : Reuss Voigt Hill
#
# Bulk Modulus (GPa) = 73.74002 84.00891 78.87446
# Shear Modulus (GPa) = 9.95620 29.51049 19.73334
#
# Velocity S-wave (km/s) = 2.25306 3.87895 3.17195
# Velocity P-wave (km/s) = 6.66075 7.93061 7.32325
#
# Compressibility (1/GPa) = 0.01356116
#
# Stress axis : x y z
#
# Youngs Moduli (GPa) = 155.01212 109.66207 96.05086
#
# Poissons Ratio (x) = 0.22889 0.31663
# Poissons Ratio (y) = 0.32354 0.07937
# Poissons Ratio (z) = 0.51100 0.09061
#
# Static dielectric constant tensor:
#      x y z
#    x 1.659860 0.000000 0.000000 
#    y 0.000000 1.748720 0.000000 
#    z 0.000000 0.000000 1.693770 
# 
# From -- ./inp_files/52570.got.cif
#   From: 2010.05.17/outbox.cif.g08.bks.cpg/sg71_27_cif.got.tgz:52570.got - 2010.06.03 16:22:01.
