data_PCOD9520504
_publ_section_title
;
Structure prediction by ZEFSAII (Michael W. Deem and Ramdas Pophale) SiO2 
 PCOD9520504
Probable space group: I M M M
;
_chemical_formula_sum "Si O2"
_cell_formula_units_Z 104
_cell_length_a 21.432020
_cell_length_b 17.575449
_cell_length_c 14.429796
_cell_angle_alpha 90.000000
_cell_angle_beta 90.000000
_cell_angle_gamma 90.000000
_cell_volume 5435.377672
_symmetry_space_group_name_H-M "I M M M"
_symmetry_group_IT_number 71
_symmetry_cell_setting 'orthorhombic'
loop_
_space_group_symop_operation_xyz
x,y,z
-x,-y,z
x,-y,-z
-x,y,-z
-x,-y,-z
x,y,-z
-x,y,z
x,-y,z
1/2+x,1/2+y,1/2+z
1/2-x,1/2-y,1/2+z
1/2+x,1/2-y,1/2-z
1/2-x,1/2+y,1/2-z
1/2-x,1/2-y,1/2-z
1/2+x,1/2+y,1/2-z
1/2-x,1/2+y,1/2+z
1/2+x,1/2-y,1/2+z
loop_
_atom_site_type_symbol
_atom_site_label
_atom_site_fract_x
_atom_site_fract_y
_atom_site_fract_z
Si Si1 0.298095 0.140892 0.890789
Si Si2 0.817247 0.911777 0.229983
Si Si3 0.430324 0.699336 0.274467
Si Si4 0.381511 0.164003 0.389002
Si Si5 0.763187 0.182947 0.608283
Si Si6 0.429363 0.812347 0.110266
Si Si7 0.428336 0.000000 0.387124
O O1 0.244104 0.099573 0.833918
O O2 0.286262 0.231211 0.876574
O O3 0.371293 0.132524 0.865400
O O4 0.290822 0.123726 0.000000
O O5 0.875977 0.859763 0.200763
O O6 0.797791 0.877894 0.329206
O O7 0.833749 0.000000 0.233184
O O8 0.500000 0.667129 0.282782
O O9 0.423106 0.773064 0.339778
O O10 0.423324 0.736016 0.171702
O O11 0.389774 0.168562 0.500000
O O12 0.309821 0.181769 0.366850
O O13 0.396707 0.078491 0.358259
O O14 0.769339 0.165117 0.500000
O O15 0.500000 0.841751 0.126602
O O16 0.423337 0.796317 0.000000
O O17 0.500000 0.000000 0.357865
O O18 0.426921 0.000000 0.500000
#
# Coordination Sequence:
#
# PCOD9520504 Si02
#       7
#    16  16  16  16  16  16   8
#     4  10  19  37  63  85 111 148 191 241 290 343
#     4  12  25  38  56  85 119 155 198 247 290 336
#     4  11  22  37  58  82 112 155 202 239 282 342
#     4  10  20  35  57  86 118 149 186 232 286 353
#     4  10  20  36  60  86 110 144 191 240 293 352
#     4   9  18  34  60  89 111 137 182 237 287 341
#     4   9  18  32  50  78 117 151 176 218 285 352
#
# _framework density 19.133904000000001
#
# number of rings (size 3 to 8) (size 9 to 14) (size 15 to 20)
#    0.000    1.769    3.077    1.846    1.077    1.846 
#    0.000    0.000    0.000    0.462    0.000    7.538 
#    0.000    0.000    0.000    0.000    0.000    0.000 
#
# Total GULP energy -290277.599790 kJ/mol
# GULP energy per Si atom -5582.261534 kJ/mol
# Density = 1.909035 g / cm^3
# Si number density = 19.133904 Si / 1000 Ang^3
#
#
#
# Elastic Constant Matrix: (Units=GPa)
#
#
# Indices 1 2 3 4 5 6 
#
# 1 122.6413 26.3331 26.8551 0.0000 0.0000 0.0000
# 2 26.3331 44.6817 13.1106 0.0000 0.0000 0.0000
# 3 26.8551 13.1106 35.2244 0.0000 0.0000 0.0000
# 4 0.0000 0.0000 0.0000 9.9537 0.0000 0.0000
# 5 0.0000 0.0000 0.0000 0.0000 19.3205 0.0000
# 6 0.0000 0.0000 0.0000 0.0000 0.0000 4.3907
#
#
#
# Elastic Compliance Matrix: (Units=1/GPa)
#
#
# Indices 1 2 3 4 5 6 
#
# 1 0.010476 -0.004300 -0.006386 0.000000 0.000000 0.000000
# 2 -0.004300 0.026889 -0.006730 0.000000 0.000000 0.000000
# 3 -0.006386 -0.006730 0.035763 0.000000 0.000000 0.000000
# 4 0.000000 0.000000 0.000000 0.100465 0.000000 0.000000
# 5 0.000000 0.000000 0.000000 0.000000 0.051758 0.000000
# 6 0.000000 0.000000 0.000000 0.000000 0.000000 0.227753
#
#
# Mechanical properties :
#
#
# Convention : Reuss Voigt Hill
#
# Bulk Modulus (GPa) = 26.11243 37.23834 31.67538
# Shear Modulus (GPa) = 9.98597 15.81622 12.90109
#
# Velocity S-wave (km/s) = 2.28699 2.87820 2.59946
# Velocity P-wave (km/s) = 4.54429 5.52717 5.05965
#
# Compressibility (1/GPa) = 0.03829594
#
# Stress axis : x y z
#
# Youngs Moduli (GPa) = 95.46075 37.18934 27.96173
#
# Poissons Ratio (x) = 0.15991 0.17857
# Poissons Ratio (y) = 0.41047 0.18818
# Poissons Ratio (z) = 0.60962 0.25029
#
# Static dielectric constant tensor:
#      x y z
#    x 1.709440 0.000000 0.000000 
#    y 0.000000 1.627220 0.000000 
#    z 0.000000 0.000000 1.694780 
# 
# From -- ./inp_files/38075.got.cif
#   From: 2010.05.17/outbox.cif.g08.bks.cpg/sg71_20_cif.got.tgz:38075.got - 2010.06.03 16:22:01.
