data_PCOD9520370
_publ_section_title
;
Structure prediction by ZEFSAII (Michael W. Deem and Ramdas Pophale) SiO2 
 PCOD9520370
Probable space group: I M M M
;
_chemical_formula_sum "Si O2"
_cell_formula_units_Z 96
_cell_length_a 23.582270
_cell_length_b 13.378981
_cell_length_c 14.088774
_cell_angle_alpha 90.000000
_cell_angle_beta 90.000000
_cell_angle_gamma 90.000000
_cell_volume 4445.103187
_symmetry_space_group_name_H-M "I M M M"
_symmetry_group_IT_number 71
_symmetry_cell_setting 'orthorhombic'
loop_
_space_group_symop_operation_xyz
x,y,z
-x,-y,z
x,-y,-z
-x,y,-z
-x,-y,-z
x,y,-z
-x,y,z
x,-y,z
1/2+x,1/2+y,1/2+z
1/2-x,1/2-y,1/2+z
1/2+x,1/2-y,1/2-z
1/2-x,1/2+y,1/2-z
1/2-x,1/2-y,1/2-z
1/2+x,1/2+y,1/2-z
1/2-x,1/2+y,1/2+z
1/2+x,1/2-y,1/2+z
loop_
_atom_site_type_symbol
_atom_site_label
_atom_site_fract_x
_atom_site_fract_y
_atom_site_fract_z
Si Si1 0.874825 0.381445 0.743910
Si Si2 0.844443 0.880245 0.182516
Si Si3 0.936214 0.257955 0.894276
Si Si4 0.280863 0.879652 0.601154
Si Si5 0.280249 0.879109 0.110709
Si Si6 0.849168 0.878111 0.604051
O O1 0.886327 0.500000 0.738740
O O2 0.924675 0.329927 0.803755
O O3 0.821904 0.359228 0.813734
O O4 0.843610 0.348657 0.646322
O O5 0.887951 0.826181 0.113249
O O6 0.778561 0.848985 0.163963
O O7 0.867806 0.854890 0.288656
O O8 0.845446 0.000000 0.171898
O O9 0.000000 0.217038 0.886044
O O10 0.932824 0.306158 0.000000
O O11 0.304852 0.847101 0.500000
O O12 0.216629 0.844535 0.606752
O O13 0.276585 0.000000 0.600121
O O14 0.281137 0.000000 0.123384
O O15 0.273057 0.857973 0.000000
O O16 0.872899 0.846779 0.500000
O O17 0.850147 0.000000 0.601401
#
# Coordination Sequence:
#
# PCOD9520370 Si02
#       6
#    16  16  16  16  16  16
#     4  10  19  35  59  83 112 149 181 224 290 349
#     4  10  19  36  60  84 117 158 189 224 283 341
#     4  11  26  43  57  80 111 145 197 251 281 322
#     4   8  12  21  42  74 108 137 165 201 255 326
#     4   9  17  31  55  89 123 151 183 225 277 345
#     4   8  13  24  47  81 117 145 173 216 269 329
#
# _framework density 21.596798
#
# number of rings (size 3 to 8) (size 9 to 14) (size 15 to 20)
#    0.000    2.667    1.667    2.000    0.000    3.333 
#    0.000    2.500    0.000    2.000    0.000    4.667 
#    0.000    0.000    0.000    0.000    0.000    0.000 
#
# Total GULP energy -267408.619735 kJ/mol
# GULP energy per Si atom -5571.012911 kJ/mol
# Density = 2.154764 g / cm^3
# Si number density = 21.596798 Si / 1000 Ang^3
#
#
#
# Elastic Constant Matrix: (Units=GPa)
#
#
# Indices 1 2 3 4 5 6 
#
# 1 71.1939 19.5402 22.9371 0.0000 0.0000 0.0000
# 2 19.5402 71.0098 0.0745 0.0000 0.0000 0.0000
# 3 22.9371 0.0745 125.2736 0.0000 0.0000 0.0000
# 4 0.0000 0.0000 0.0000 24.4025 0.0000 0.0000
# 5 0.0000 0.0000 0.0000 0.0000 25.5512 0.0000
# 6 0.0000 0.0000 0.0000 0.0000 0.0000 17.9714
#
#
#
# Elastic Compliance Matrix: (Units=1/GPa)
#
#
# Indices 1 2 3 4 5 6 
#
# 1 0.016227 -0.004462 -0.002969 0.000000 0.000000 0.000000
# 2 -0.004462 0.015310 0.000808 0.000000 0.000000 0.000000
# 3 -0.002969 0.000808 0.008526 0.000000 0.000000 0.000000
# 4 0.000000 0.000000 0.000000 0.040979 0.000000 0.000000
# 5 0.000000 0.000000 0.000000 0.000000 0.039137 0.000000
# 6 0.000000 0.000000 0.000000 0.000000 0.000000 0.055644
#
#
# Mechanical properties :
#
#
# Convention : Reuss Voigt Hill
#
# Bulk Modulus (GPa) = 37.29005 39.17566 38.23285
# Shear Modulus (GPa) = 25.25156 28.58005 26.91580
#
# Velocity S-wave (km/s) = 3.42311 3.64173 3.53411
# Velocity P-wave (km/s) = 5.73825 5.98848 5.86470
#
# Compressibility (1/GPa) = 0.02681681
#
# Stress axis : x y z
#
# Youngs Moduli (GPa) = 61.62465 65.31836 117.29426
#
# Poissons Ratio (x) = 0.29147 0.34819
# Poissons Ratio (y) = 0.27498 -0.09476
# Poissons Ratio (z) = 0.18293 -0.05277
#
# Static dielectric constant tensor:
#      x y z
#    x 1.736690 0.000000 0.000000 
#    y 0.000000 1.913270 0.000000 
#    z 0.000000 0.000000 1.886980 
# 
# From -- ./inp_files/37840.got.cif
#   From: 2010.05.17/outbox.cif.g08.bks.cpg/sg71_19_cif.got.tgz:37840.got - 2010.06.03 16:22:01.
