data_PCOD9520664
_publ_section_title
;
Structure prediction by ZEFSAII (Michael W. Deem and Ramdas Pophale) SiO2 
 PCOD9520664
Probable space group: I M M M
;
_chemical_formula_sum "Si O2"
_cell_formula_units_Z 72
_cell_length_a 13.817894
_cell_length_b 7.413208
_cell_length_c 30.304398
_cell_angle_alpha 90.000000
_cell_angle_beta 90.000000
_cell_angle_gamma 90.000000
_cell_volume 3104.228656
_symmetry_space_group_name_H-M "I M M M"
_symmetry_group_IT_number 71
_symmetry_cell_setting 'orthorhombic'
loop_
_space_group_symop_operation_xyz
x,y,z
-x,-y,z
x,-y,-z
-x,y,-z
-x,-y,-z
x,y,-z
-x,y,z
x,-y,z
1/2+x,1/2+y,1/2+z
1/2-x,1/2-y,1/2+z
1/2+x,1/2-y,1/2-z
1/2-x,1/2+y,1/2-z
1/2-x,1/2-y,1/2-z
1/2+x,1/2+y,1/2-z
1/2-x,1/2+y,1/2+z
1/2+x,1/2-y,1/2+z
loop_
_atom_site_type_symbol
_atom_site_label
_atom_site_fract_x
_atom_site_fract_y
_atom_site_fract_z
Si Si1 0.820291 0.716493 0.194377
Si Si2 0.604101 0.712903 0.599643
Si Si3 0.500000 0.215677 0.946659
Si Si4 0.892385 0.208878 0.291654
Si Si5 0.706949 0.220241 0.948390
O O1 0.815920 0.500000 0.198349
O O2 0.880718 0.766421 0.151689
O O3 0.870041 0.784379 0.239108
O O4 0.708949 0.785212 0.189361
O O5 0.500000 0.788546 0.586332
O O6 0.602395 0.500000 0.589284
O O7 0.699254 0.788534 0.576560
O O8 0.603124 0.284271 0.930044
O O9 0.500000 0.000000 0.939764
O O10 0.500000 0.242272 0.000000
O O11 0.000000 0.286689 0.300444
O O12 0.896424 0.000000 0.305257
O O13 0.705499 0.000000 0.946077
O O14 0.712956 0.266420 0.000000
#
# Coordination Sequence:
#
# PCOD9520664 Si02
#       5
#    16  16   8  16  16
#     4  10  20  33  50  72  97 126 161 197 235 285
#     4  10  20  32  46  68 100 132 161 197 241 286
#     4   7  10  20  40  64  89 115 147 193 243 281
#     4   9  18  34  54  72  93 123 158 198 243 285
#     4   8  14  26  45  68  93 123 160 200 241 282
#
# _framework density 23.194167
#
# number of rings (size 3 to 8) (size 9 to 14) (size 15 to 20)
#    0.000    3.000    0.000    2.667    0.000    4.889 
#    2.000    2.222    0.000    0.667    0.000    1.556 
#    0.000    2.667    0.000    0.000    0.000    0.000 
#
# Total GULP energy -200877.091412 kJ/mol
# GULP energy per Si atom -5579.919206 kJ/mol
# Density = 2.314138 g / cm^3
# Si number density = 23.194167 Si / 1000 Ang^3
#
#
#
# Elastic Constant Matrix: (Units=GPa)
#
#
# Indices 1 2 3 4 5 6 
#
# 1 230.6147 12.0190 38.6137 0.0000 0.0000 0.0000
# 2 12.0190 82.5937 -10.7738 0.0000 0.0000 0.0000
# 3 38.6137 -10.7738 16.2618 0.0000 0.0000 0.0000
# 4 0.0000 0.0000 0.0000 -30.0913 0.0000 0.0000
# 5 0.0000 0.0000 0.0000 0.0000 57.5918 0.0000
# 6 0.0000 0.0000 0.0000 0.0000 0.0000 0.7022
#
#
#
# Elastic Compliance Matrix: (Units=1/GPa)
#
#
# Indices 1 2 3 4 5 6 
#
# 1 0.008320 -0.004146 -0.022503 0.000000 0.000000 0.000000
# 2 -0.004146 0.015319 0.019994 0.000000 0.000000 0.000000
# 3 -0.022503 0.019994 0.128174 0.000000 0.000000 0.000000
# 4 0.000000 0.000000 0.000000 -0.033232 0.000000 0.000000
# 5 0.000000 0.000000 0.000000 0.000000 0.017364 0.000000
# 6 0.000000 0.000000 0.000000 0.000000 0.000000 1.424017
#
#
# Mechanical properties :
#
#
# Convention : Reuss Voigt Hill
#
# Bulk Modulus (GPa) = 7.22007 45.46532 26.34270
# Shear Modulus (GPa) = 3.08749 24.94798 14.01774
#
# Velocity S-wave (km/s) = 1.15501 3.28321 2.46105
# Velocity P-wave (km/s) = 2.21322 5.83243 4.41110
#
# Compressibility (1/GPa) = 0.13850282
#
# Stress axis : x y z
#
# Youngs Moduli (GPa) = 120.18904 65.27877 7.80188
#
# Poissons Ratio (x) = 0.27066 0.17557
# Poissons Ratio (y) = 0.49832 -0.15599
# Poissons Ratio (z) = 2.70465 -1.30519
#
# Static dielectric constant tensor:
#      x y z
#    x 1.935820 0.000000 0.000000 
#    y 0.000000 1.847320 0.000000 
#    z 0.000000 0.000000 1.810160 
# 
# From -- ./inp_files/65159.got.cif
#   From: 2010.05.17/outbox.cif.g08.bks.cpg/sg71_33_cif.got.tgz:65159.got - 2010.06.03 16:22:01.
