data_PCOD9520022
_publ_section_title
;
Structure prediction by ZEFSAII (Michael W. Deem and Ramdas Pophale) SiO2 
 PCOD9520022
Probable space group: I M M M
;
_chemical_formula_sum "Si O2"
_cell_formula_units_Z 88
_cell_length_a 18.167376
_cell_length_b 9.029362
_cell_length_c 29.441893
_cell_angle_alpha 90.000000
_cell_angle_beta 90.000000
_cell_angle_gamma 90.000000
_cell_volume 4829.642666
_symmetry_space_group_name_H-M "I M M M"
_symmetry_group_IT_number 71
_symmetry_cell_setting 'orthorhombic'
loop_
_space_group_symop_operation_xyz
x,y,z
-x,-y,z
x,-y,-z
-x,y,-z
-x,-y,-z
x,y,-z
-x,y,z
x,-y,z
1/2+x,1/2+y,1/2+z
1/2-x,1/2-y,1/2+z
1/2+x,1/2-y,1/2-z
1/2-x,1/2+y,1/2-z
1/2-x,1/2-y,1/2-z
1/2+x,1/2+y,1/2-z
1/2-x,1/2+y,1/2+z
1/2+x,1/2-y,1/2+z
loop_
_atom_site_type_symbol
_atom_site_label
_atom_site_fract_x
_atom_site_fract_y
_atom_site_fract_z
Si Si1 0.500000 0.175357 0.445953
Si Si2 0.138450 0.177501 0.897338
Si Si3 0.791090 0.678298 0.447114
Si Si4 0.655333 0.325000 0.209546
Si Si5 0.084643 0.178628 0.614315
Si Si6 0.830943 0.325932 0.803084
O O1 0.500000 0.197253 0.500000
O O2 0.428268 0.249913 0.424425
O O3 0.500000 0.000000 0.436568
O O4 0.215682 0.219294 0.921325
O O5 0.139360 0.236822 0.846016
O O6 0.132211 0.000000 0.898000
O O7 0.787871 0.721848 0.500000
O O8 0.797508 0.500000 0.445066
O O9 0.859595 0.750208 0.421314
O O10 0.643043 0.500000 0.217795
O O11 0.609535 0.278949 0.165340
O O12 0.742096 0.305825 0.198398
O O13 0.639509 0.235168 0.255241
O O14 0.000000 0.220091 0.606164
O O15 0.090691 0.000000 0.611718
O O16 0.846047 0.500000 0.807988
#
# Coordination Sequence:
#
# PCOD9520022 Si02
#       6
#     8  16  16  16  16  16
#     4  11  25  43  63  89 121 155 193 243 300 353
#     4  11  22  39  63  88 118 155 196 240 292 356
#     4  10  22  39  60  86 115 150 194 242 292 350
#     4   9  18  34  55  82 116 152 193 240 293 349
#     4  10  21  38  59  84 116 155 199 246 292 346
#     4  10  19  33  58  87 116 150 193 243 293 347
#
# _framework density 18.220811000000001
#
# number of rings (size 3 to 8) (size 9 to 14) (size 15 to 20)
#    0.000    1.909    1.818    1.909    0.000    4.727 
#    1.636    1.818    0.000    0.000    0.000    0.000 
#    0.000    0.000    0.000    0.000    0.000    0.000 
#
# Total GULP energy -245786.582707 kJ/mol
# GULP energy per Si atom -5586.058698 kJ/mol
# Density = 1.817934 g / cm^3
# Si number density = 18.220811 Si / 1000 Ang^3
#
#
#
# Elastic Constant Matrix: (Units=GPa)
#
#
# Indices 1 2 3 4 5 6 
#
# 1 95.8263 40.9682 57.1542 0.0000 0.0000 0.0000
# 2 40.9682 53.3051 53.1351 0.0000 0.0000 0.0000
# 3 57.1542 53.1351 134.7516 0.0000 0.0000 0.0000
# 4 0.0000 0.0000 0.0000 35.0034 0.0000 0.0000
# 5 0.0000 0.0000 0.0000 0.0000 13.7426 0.0000
# 6 0.0000 0.0000 0.0000 0.0000 0.0000 28.9811
#
#
#
# Elastic Compliance Matrix: (Units=1/GPa)
#
#
# Indices 1 2 3 4 5 6 
#
# 1 0.016371 -0.009326 -0.003266 0.000000 0.000000 0.000000
# 2 -0.009326 0.036222 -0.010327 0.000000 0.000000 0.000000
# 3 -0.003266 -0.010327 0.012879 0.000000 0.000000 0.000000
# 4 0.000000 0.000000 0.000000 0.028569 0.000000 0.000000
# 5 0.000000 0.000000 0.000000 0.000000 0.072767 0.000000
# 6 0.000000 0.000000 0.000000 0.000000 0.000000 0.034505
#
#
# Mechanical properties :
#
#
# Convention : Reuss Voigt Hill
#
# Bulk Modulus (GPa) = 50.93692 65.15533 58.04612
# Shear Modulus (GPa) = 19.70865 24.38710 22.04787
#
# Velocity S-wave (km/s) = 3.29242 3.66241 3.48233
# Velocity P-wave (km/s) = 6.51686 7.32944 6.93506
#
# Compressibility (1/GPa) = 0.01963213
#
# Stress axis : x y z
#
# Youngs Moduli (GPa) = 61.08448 27.60734 77.64795
#
# Poissons Ratio (x) = 0.25747 0.25360
# Poissons Ratio (y) = 0.56969 0.80190
# Poissons Ratio (z) = 0.19950 0.28511
#
# Static dielectric constant tensor:
#      x y z
#    x 1.605320 0.000000 0.000000 
#    y 0.000000 1.607870 0.000000 
#    z 0.000000 0.000000 1.600060 
# 
# From -- ./inp_files/70381.got.cif
#   From: 2010.05.17/outbox.cif.g08.bks.cpg/sg71_36_cif.got.tgz:70381.got - 2010.06.03 16:22:01.
