data_PCOD9520153
_publ_section_title
;
Structure prediction by ZEFSAII (Michael W. Deem and Ramdas Pophale) SiO2 
 PCOD9520153
Probable space group: I M M M
;
_chemical_formula_sum "Si O2"
_cell_formula_units_Z 80
_cell_length_a 16.767988
_cell_length_b 12.305301
_cell_length_c 20.304169
_cell_angle_alpha 90.000000
_cell_angle_beta 90.000000
_cell_angle_gamma 90.000000
_cell_volume 4189.463543
_symmetry_space_group_name_H-M "I M M M"
_symmetry_group_IT_number 71
_symmetry_cell_setting 'orthorhombic'
loop_
_space_group_symop_operation_xyz
x,y,z
-x,-y,z
x,-y,-z
-x,y,-z
-x,-y,-z
x,y,-z
-x,y,z
x,-y,z
1/2+x,1/2+y,1/2+z
1/2-x,1/2-y,1/2+z
1/2+x,1/2-y,1/2-z
1/2-x,1/2+y,1/2-z
1/2-x,1/2-y,1/2-z
1/2+x,1/2+y,1/2-z
1/2-x,1/2+y,1/2+z
1/2+x,1/2-y,1/2+z
loop_
_atom_site_type_symbol
_atom_site_label
_atom_site_fract_x
_atom_site_fract_y
_atom_site_fract_z
Si Si1 0.681765 0.707860 0.893391
Si Si2 0.411382 0.739748 0.500000
Si Si3 0.592830 0.500000 0.747001
Si Si4 0.845014 0.232832 0.751085
Si Si5 0.258095 0.128225 0.000000
Si Si6 0.362357 0.872060 0.628426
Si Si7 0.908564 0.000000 0.593064
O O1 0.635536 0.740588 0.826388
O O2 0.702514 0.811168 0.937569
O O3 0.767271 0.651389 0.877810
O O4 0.633009 0.611458 0.927392
O O5 0.500000 0.690714 0.500000
O O6 0.336276 0.658089 0.500000
O O7 0.401236 0.813814 0.565375
O O8 0.500000 0.500000 0.728169
O O9 0.634563 0.611028 0.725057
O O10 0.597692 0.500000 0.826686
O O11 0.750000 0.250000 0.750000
O O12 0.884392 0.315899 0.802146
O O13 0.269560 0.000000 0.000000
O O14 0.377603 0.000000 0.628197
O O15 0.000000 0.000000 0.575090
#
# Coordination Sequence:
#
# PCOD9520153 Si02
#       7
#    16   8   8  16   8  16   8
#     4   9  18  35  54  82 117 144 186 243 279 338
#     4  10  23  41  56  80 113 150 197 245 286 337
#     4   9  18  34  53  79 118 149 179 231 295 345
#     4   9  19  32  55  84 111 147 194 240 286 342
#     4  10  22  39  60  83 112 156 191 227 292 345
#     4  10  19  34  56  80 110 150 192 241 293 336
#     4   9  16  31  60  87 109 140 178 229 289 332
#
# _framework density 19.095523
#
# number of rings (size 3 to 8) (size 9 to 14) (size 15 to 20)
#    0.000    2.600    1.000    0.300    4.200    3.000 
#   14.400    1.000    0.000    1.200    0.000    5.600 
#    0.000    0.000    0.000    0.000    0.000    0.000 
#
# Total GULP energy -222976.807434 kJ/mol
# GULP energy per Si atom -5574.420186 kJ/mol
# Density = 1.905206 g / cm^3
# Si number density = 19.095523 Si / 1000 Ang^3
#
#
#
# Elastic Constant Matrix: (Units=GPa)
#
#
# Indices 1 2 3 4 5 6 
#
# 1 75.0146 44.5341 12.7459 0.0000 0.0000 0.0000
# 2 44.5341 169.6216 46.4556 0.0000 0.0000 0.0000
# 3 12.7459 46.4556 104.4924 0.0000 0.0000 0.0000
# 4 0.0000 0.0000 0.0000 19.9463 0.0000 0.0000
# 5 0.0000 0.0000 0.0000 0.0000 7.5031 0.0000
# 6 0.0000 0.0000 0.0000 0.0000 0.0000 16.5207
#
#
#
# Elastic Compliance Matrix: (Units=1/GPa)
#
#
# Indices 1 2 3 4 5 6 
#
# 1 0.015793 -0.004121 -0.000094 0.000000 0.000000 0.000000
# 2 -0.004121 0.007788 -0.002960 0.000000 0.000000 0.000000
# 3 -0.000094 -0.002960 0.010897 0.000000 0.000000 0.000000
# 4 0.000000 0.000000 0.000000 0.050135 0.000000 0.000000
# 5 0.000000 0.000000 0.000000 0.000000 0.133279 0.000000
# 6 0.000000 0.000000 0.000000 0.000000 0.000000 0.060530
#
#
# Mechanical properties :
#
#
# Convention : Reuss Voigt Hill
#
# Bulk Modulus (GPa) = 49.68005 61.84441 55.76223
# Shear Modulus (GPa) = 16.69554 25.15356 20.92455
#
# Velocity S-wave (km/s) = 2.96009 3.63333 3.31385
# Velocity P-wave (km/s) = 6.14459 7.07521 6.62626
#
# Compressibility (1/GPa) = 0.02012881
#
# Stress axis : x y z
#
# Youngs Moduli (GPa) = 63.31893 128.40353 91.76447
#
# Poissons Ratio (x) = 0.52910 0.00867
# Poissons Ratio (y) = 0.26091 0.27160
# Poissons Ratio (z) = 0.00598 0.38004
#
# Static dielectric constant tensor:
#      x y z
#    x 1.736220 0.000000 0.000000 
#    y 0.000000 1.681200 0.000000 
#    z 0.000000 0.000000 1.742820 
# 
# From -- ./inp_files/53931.got.cif
#   From: 2010.05.17/outbox.cif.g08.bks.cpg/sg71_27_cif.got.tgz:53931.got - 2010.06.03 16:22:01.
