data_PCOD9520397
_publ_section_title
;
Structure prediction by ZEFSAII (Michael W. Deem and Ramdas Pophale) SiO2 
 PCOD9520397
Probable space group: I M M M
;
_chemical_formula_sum "Si O2"
_cell_formula_units_Z 88
_cell_length_a 29.796549
_cell_length_b 17.318659
_cell_length_c 8.700523
_cell_angle_alpha 90.000000
_cell_angle_beta 90.000000
_cell_angle_gamma 90.000000
_cell_volume 4489.785449
_symmetry_space_group_name_H-M "I M M M"
_symmetry_group_IT_number 71
_symmetry_cell_setting 'orthorhombic'
loop_
_space_group_symop_operation_xyz
x,y,z
-x,-y,z
x,-y,-z
-x,y,-z
-x,-y,-z
x,y,-z
-x,y,z
x,-y,z
1/2+x,1/2+y,1/2+z
1/2-x,1/2-y,1/2+z
1/2+x,1/2-y,1/2-z
1/2-x,1/2+y,1/2-z
1/2-x,1/2-y,1/2-z
1/2+x,1/2+y,1/2-z
1/2-x,1/2+y,1/2+z
1/2+x,1/2-y,1/2+z
loop_
_atom_site_type_symbol
_atom_site_label
_atom_site_fract_x
_atom_site_fract_y
_atom_site_fract_z
Si Si1 0.500000 0.910092 0.812104
Si Si2 0.832701 0.000000 0.176636
Si Si3 0.311589 0.814646 0.817006
Si Si4 0.927722 0.000000 0.321279
Si Si5 0.219025 0.861429 0.320799
Si Si6 0.448067 0.663563 0.323456
Si Si7 0.088055 0.684388 0.315496
O O1 0.454305 0.866760 0.760527
O O2 0.500000 0.000000 0.767358
O O3 0.500000 0.907309 0.000000
O O4 0.803957 0.924474 0.214002
O O5 0.874758 0.000000 0.290289
O O6 0.848072 0.000000 0.000000
O O7 0.271117 0.853192 0.724786
O O8 0.304039 0.722363 0.799075
O O9 0.361635 0.837769 0.765239
O O10 0.306852 0.831028 0.000000
O O11 0.945148 0.078232 0.244827
O O12 0.938693 0.000000 0.500000
O O13 0.214374 0.882706 0.500000
O O14 0.433097 0.661888 0.500000
O O15 0.500000 0.688050 0.317738
O O16 0.420397 0.727214 0.231970
O O17 0.088164 0.680000 0.500000
#
# Coordination Sequence:
#
# PCOD9520397 Si02
#       7
#     8   8  16   8  16  16  16
#     4   9  18  34  57  86 117 148 189 245 300 349
#     4  12  24  39  59  84 118 154 191 238 292 343
#     4   9  19  35  56  84 112 147 192 241 291 344
#     4  12  25  39  58  85 118 158 201 239 286 349
#     4  10  20  36  57  81 115 152 192 237 286 344
#     4  11  23  38  57  84 120 157 199 248 297 344
#     4  10  19  35  60  86 115 153 201 246 295 356
#
# _framework density 19.600045999999999
#
# number of rings (size 3 to 8) (size 9 to 14) (size 15 to 20)
#    0.000    1.727    0.909    4.091    0.000    5.091 
#    1.636    0.000    0.000    1.091    0.000    0.000 
#    0.000    0.000    0.000    0.000    0.000    0.000 
#
# Total GULP energy -245771.094414 kJ/mol
# GULP energy per Si atom -5585.706691 kJ/mol
# Density = 1.955544 g / cm^3
# Si number density = 19.600046 Si / 1000 Ang^3
#
#
#
# Elastic Constant Matrix: (Units=GPa)
#
#
# Indices 1 2 3 4 5 6 
#
# 1 121.8201 17.8389 11.5227 0.0000 0.0000 0.0000
# 2 17.8389 41.2564 -1.8511 0.0000 0.0000 0.0000
# 3 11.5227 -1.8511 11.5602 0.0000 0.0000 0.0000
# 4 0.0000 0.0000 0.0000 8.2638 0.0000 0.0000
# 5 0.0000 0.0000 0.0000 0.0000 26.8575 0.0000
# 6 0.0000 0.0000 0.0000 0.0000 0.0000 37.0945
#
#
#
# Elastic Compliance Matrix: (Units=1/GPa)
#
#
# Indices 1 2 3 4 5 6 
#
# 1 0.009913 -0.004764 -0.010644 0.000000 0.000000 0.000000
# 2 -0.004764 0.026704 0.009025 0.000000 0.000000 0.000000
# 3 -0.010644 0.009025 0.098558 0.000000 0.000000 0.000000
# 4 0.000000 0.000000 0.000000 0.121009 0.000000 0.000000
# 5 0.000000 0.000000 0.000000 0.000000 0.037234 0.000000
# 6 0.000000 0.000000 0.000000 0.000000 0.000000 0.026958
#
#
# Mechanical properties :
#
#
# Convention : Reuss Voigt Hill
#
# Bulk Modulus (GPa) = 8.16941 25.51754 16.84348
# Shear Modulus (GPa) = 13.37096 24.25159 18.81128
#
# Velocity S-wave (km/s) = 2.61471 3.52138 3.10136
# Velocity P-wave (km/s) = 3.64592 5.43883 4.62999
#
# Compressibility (1/GPa) = 0.12240780
#
# Stress axis : x y z
#
# Youngs Moduli (GPa) = 100.87531 37.44826 10.14633
#
# Poissons Ratio (x) = 0.17840 0.10800
# Poissons Ratio (y) = 0.48057 -0.09157
# Poissons Ratio (z) = 1.07371 -0.33795
#
# Static dielectric constant tensor:
#      x y z
#    x 1.709250 0.000000 0.000000 
#    y 0.000000 1.665250 0.000000 
#    z 0.000000 0.000000 1.658730 
# 
# From -- ./inp_files/16740.got.cif
#   From: 2010.05.17/outbox.cif.g08.bks.cpg/sg71_9_cif.got.tgz:16740.got - 2010.06.03 16:22:01.
