data_PCOD9520466
_publ_section_title
;
Structure prediction by ZEFSAII (Michael W. Deem and Ramdas Pophale) SiO2 
 PCOD9520466
Probable space group: I M M M
;
_chemical_formula_sum "Si O2"
_cell_formula_units_Z 52
_cell_length_a 14.658340
_cell_length_b 16.718855
_cell_length_c 10.177359
_cell_angle_alpha 90.000000
_cell_angle_beta 90.000000
_cell_angle_gamma 90.000000
_cell_volume 2494.172097
_symmetry_space_group_name_H-M "I M M M"
_symmetry_group_IT_number 71
_symmetry_cell_setting 'orthorhombic'
loop_
_space_group_symop_operation_xyz
x,y,z
-x,-y,z
x,-y,-z
-x,y,-z
-x,-y,-z
x,y,-z
-x,y,z
x,-y,z
1/2+x,1/2+y,1/2+z
1/2-x,1/2-y,1/2+z
1/2+x,1/2-y,1/2-z
1/2-x,1/2+y,1/2-z
1/2-x,1/2-y,1/2-z
1/2+x,1/2+y,1/2-z
1/2-x,1/2+y,1/2+z
1/2+x,1/2-y,1/2+z
loop_
_atom_site_type_symbol
_atom_site_label
_atom_site_fract_x
_atom_site_fract_y
_atom_site_fract_z
Si Si1 0.125495 0.812777 0.000000
Si Si2 0.500000 0.658799 0.000000
Si Si3 0.000000 0.904048 0.797745
Si Si4 0.609883 0.913554 0.780678
Si Si5 0.602353 0.873231 0.500000
Si Si6 0.658465 0.789804 0.000000
O O1 0.085570 0.861427 0.125927
O O2 0.091170 0.721778 0.000000
O O3 0.232501 0.793712 0.000000
O O4 0.500000 0.613267 0.858870
O O5 0.406997 0.712614 0.000000
O O6 0.000000 0.000000 0.820131
O O7 0.500000 0.914701 0.773982
O O8 0.647568 0.900663 0.634546
O O9 0.640203 0.000000 0.832535
O O10 0.632887 0.840679 0.872300
O O11 0.500000 0.908274 0.500000
#
# Coordination Sequence:
#
# PCOD9520466 Si02
#       6
#     8   4   8  16   8   8
#     4  11  24  43  68  94 124 168 221 265 323 390
#     4  12  25  44  69 100 134 166 218 278 333 386
#     4  11  25  47  71  95 126 172 226 279 325 379
#     4  10  20  35  57  88 125 162 199 242 303 377
#     4  10  19  36  60  87 119 158 203 254 307 366
#     4  12  24  39  64  96 130 170 211 266 324 387
#
# _framework density 20.848603000000001
#
# number of rings (size 3 to 8) (size 9 to 14) (size 15 to 20)
#    0.000    1.231    3.077    3.923    0.000   10.462 
#    0.000    0.000    0.000    5.538    0.000    0.000 
#    0.000    0.000    0.000    0.000    0.000    0.000 
#
# Total GULP energy -144954.799424 kJ/mol
# GULP energy per Si atom -5575.184593 kJ/mol
# Density = 2.080115 g / cm^3
# Si number density = 20.848603 Si / 1000 Ang^3
#
#
#
# Elastic Constant Matrix: (Units=GPa)
#
#
# Indices 1 2 3 4 5 6 
#
# 1 100.8531 32.2677 17.8355 0.0000 0.0000 0.0000
# 2 32.2677 118.3482 22.4437 0.0000 0.0000 0.0000
# 3 17.8355 22.4437 127.3609 0.0000 0.0000 0.0000
# 4 0.0000 0.0000 0.0000 -426.8050 0.0000 0.0000
# 5 0.0000 0.0000 0.0000 0.0000 214.4730 0.0000
# 6 0.0000 0.0000 0.0000 0.0000 0.0000 -10.0109
#
#
#
# Elastic Compliance Matrix: (Units=1/GPa)
#
#
# Indices 1 2 3 4 5 6 
#
# 1 0.010996 -0.002800 -0.001047 0.000000 0.000000 0.000000
# 2 -0.002800 0.009455 -0.001274 0.000000 0.000000 0.000000
# 3 -0.001047 -0.001274 0.008223 0.000000 0.000000 0.000000
# 4 0.000000 0.000000 0.000000 -0.002343 0.000000 0.000000
# 5 0.000000 0.000000 0.000000 0.000000 0.004663 0.000000
# 6 0.000000 0.000000 0.000000 0.000000 0.000000 -0.099891
#
#
# Mechanical properties :
#
#
# Convention : Reuss Voigt Hill
#
# Bulk Modulus (GPa) = 54.25022 54.62845 54.43934
# Shear Modulus (GPa) = -95.21469 -26.20088 -60.70779
#
# Velocity S-wave (km/s) = -6.76526 -3.54887 -5.40200
# Velocity P-wave (km/s) = 5.91164 3.07680 3.56937
#
# Compressibility (1/GPa) = 0.01843310
#
# Stress axis : x y z
#
# Youngs Moduli (GPa) = 90.94024 105.76884 121.61351
#
# Poissons Ratio (x) = 0.29612 0.12727
# Poissons Ratio (y) = 0.25460 0.15494
# Poissons Ratio (z) = 0.09517 0.13475
#
# Static dielectric constant tensor:
#      x y z
#    x 1.626770 0.000000 0.000000 
#    y 0.000000 1.738240 0.000000 
#    z 0.000000 0.000000 1.775740 
# 
# From -- ./inp_files/7184.got.cif
#   From: 2010.05.17/outbox.cif.g08.bks.cpg/sg71_4_cif.got.tgz:7184.got - 2010.06.03 16:22:01.
