data_PCOD9520104
_publ_section_title
;
Structure prediction by ZEFSAII (Michael W. Deem and Ramdas Pophale) SiO2 
 PCOD9520104
Probable space group: I M M M
;
_chemical_formula_sum "Si O2"
_cell_formula_units_Z 72
_cell_length_a 7.537664
_cell_length_b 18.297009
_cell_length_c 24.571072
_cell_angle_alpha 90.000000
_cell_angle_beta 90.000000
_cell_angle_gamma 90.000000
_cell_volume 3388.761314
_symmetry_space_group_name_H-M "I M M M"
_symmetry_group_IT_number 71
_symmetry_cell_setting 'orthorhombic'
loop_
_space_group_symop_operation_xyz
x,y,z
-x,-y,z
x,-y,-z
-x,y,-z
-x,-y,-z
x,y,-z
-x,y,z
x,-y,z
1/2+x,1/2+y,1/2+z
1/2-x,1/2-y,1/2+z
1/2+x,1/2-y,1/2-z
1/2-x,1/2+y,1/2-z
1/2-x,1/2-y,1/2-z
1/2+x,1/2+y,1/2-z
1/2-x,1/2+y,1/2+z
1/2+x,1/2-y,1/2+z
loop_
_atom_site_type_symbol
_atom_site_label
_atom_site_fract_x
_atom_site_fract_y
_atom_site_fract_z
Si Si1 0.786258 0.915909 0.240023
Si Si2 0.209212 0.853484 0.870973
Si Si3 0.217903 0.286381 0.937369
Si Si4 0.212721 0.500000 0.562520
Si Si5 0.711191 0.082705 0.637496
O O1 0.718010 0.868733 0.189440
O O2 0.740188 0.890807 0.300639
O O3 0.000000 0.917970 0.236460
O O4 0.722855 0.000000 0.234309
O O5 0.280503 0.784797 0.904349
O O6 0.000000 0.839257 0.864285
O O7 0.228476 0.927643 0.905603
O O8 0.277888 0.359091 0.905998
O O9 0.000000 0.285956 0.937402
O O10 0.273602 0.284199 0.000000
O O11 0.276527 0.500000 0.500000
O O12 0.000000 0.500000 0.561734
O O13 0.500000 0.077873 0.629591
O O14 0.783824 0.000000 0.633102
#
# Coordination Sequence:
#
# PCOD9520104 Si02
#       5
#    16  16  16   8  16
#     4   9  17  31  50  74 102 130 167 213 256 304
#     4  10  19  34  55  76  99 136 180 216 251 298
#     4   9  18  32  51  76 103 132 174 223 258 296
#     4  11  23  35  49  75 109 141 172 209 256 307
#     4   9  18  32  51  76 104 135 169 210 263 315
#
# _framework density 21.246701000000002
#
# number of rings (size 3 to 8) (size 9 to 14) (size 15 to 20)
#    0.000    2.556    1.111    1.000    0.000    4.000 
#    0.000    3.333    0.000    2.000    0.000    3.111 
#    0.000    0.000    0.000    0.000    0.000    0.000 
#
# Total GULP energy -201011.096081 kJ/mol
# GULP energy per Si atom -5583.641558 kJ/mol
# Density = 2.119834 g / cm^3
# Si number density = 21.246701 Si / 1000 Ang^3
#
#
#
# Elastic Constant Matrix: (Units=GPa)
#
#
# Indices 1 2 3 4 5 6 
#
# 1 51.4875 -0.7410 2.8942 0.0000 0.0000 0.0000
# 2 -0.7410 131.8260 107.1995 0.0000 0.0000 0.0000
# 3 2.8942 107.1995 158.6970 0.0000 0.0000 0.0000
# 4 0.0000 0.0000 0.0000 30.3070 0.0000 0.0000
# 5 0.0000 0.0000 0.0000 0.0000 17.9869 0.0000
# 6 0.0000 0.0000 0.0000 0.0000 0.0000 21.5917
#
#
#
# Elastic Compliance Matrix: (Units=1/GPa)
#
#
# Indices 1 2 3 4 5 6 
#
# 1 0.019488 0.000884 -0.000953 0.000000 0.000000 0.000000
# 2 0.000884 0.016871 -0.011413 0.000000 0.000000 0.000000
# 3 -0.000953 -0.011413 0.014028 0.000000 0.000000 0.000000
# 4 0.000000 0.000000 0.000000 0.032996 0.000000 0.000000
# 5 0.000000 0.000000 0.000000 0.000000 0.055596 0.000000
# 6 0.000000 0.000000 0.000000 0.000000 0.000000 0.046314
#
#
# Mechanical properties :
#
#
# Convention : Reuss Voigt Hill
#
# Bulk Modulus (GPa) = 36.46242 62.30178 49.38210
# Shear Modulus (GPa) = 22.99928 29.48764 26.24346
#
# Velocity S-wave (km/s) = 3.29369 3.72945 3.51832
# Velocity P-wave (km/s) = 5.62701 6.92328 6.30853
#
# Compressibility (1/GPa) = 0.02742550
#
# Stress axis : x y z
#
# Youngs Moduli (GPa) = 51.31240 59.27162 71.28602
#
# Poissons Ratio (x) = -0.05242 0.06792
# Poissons Ratio (y) = -0.04538 0.81357
# Poissons Ratio (z) = 0.04889 0.67645
#
# Static dielectric constant tensor:
#      x y z
#    x 1.807420 0.000000 0.000000 
#    y 0.000000 1.768210 0.000000 
#    z 0.000000 0.000000 1.742610 
# 
# From -- ./inp_files/7886.got.cif
#   From: 2010.05.17/outbox.cif.g08.bks.cpg/sg71_4_cif.got.tgz:7886.got - 2010.06.03 16:22:01.
