data_PCOD9520159
_publ_section_title
;
Structure prediction by ZEFSAII (Michael W. Deem and Ramdas Pophale) SiO2 
 PCOD9520159
Probable space group: I M M M
;
_chemical_formula_sum "Si O2"
_cell_formula_units_Z 96
_cell_length_a 24.170938
_cell_length_b 26.112530
_cell_length_c 8.685766
_cell_angle_alpha 90.000000
_cell_angle_beta 90.000000
_cell_angle_gamma 90.000000
_cell_volume 5482.145797
_symmetry_space_group_name_H-M "I M M M"
_symmetry_group_IT_number 71
_symmetry_cell_setting 'orthorhombic'
loop_
_space_group_symop_operation_xyz
x,y,z
-x,-y,z
x,-y,-z
-x,y,-z
-x,-y,-z
x,y,-z
-x,y,z
x,-y,z
1/2+x,1/2+y,1/2+z
1/2-x,1/2-y,1/2+z
1/2+x,1/2-y,1/2-z
1/2-x,1/2+y,1/2-z
1/2-x,1/2-y,1/2-z
1/2+x,1/2+y,1/2-z
1/2-x,1/2+y,1/2+z
1/2+x,1/2-y,1/2+z
loop_
_atom_site_type_symbol
_atom_site_label
_atom_site_fract_x
_atom_site_fract_y
_atom_site_fract_z
Si Si1 0.436131 0.304722 0.814578
Si Si2 0.064759 0.000000 0.184414
Si Si3 0.632533 0.900509 0.813895
Si Si4 0.368197 0.596035 0.184840
Si Si5 0.247395 0.060202 0.186052
Si Si6 0.563260 0.000000 0.812313
Si Si7 0.436314 0.192681 0.315828
O O1 0.500000 0.317599 0.773808
O O2 0.395371 0.350147 0.766056
O O3 0.423022 0.249721 0.742548
O O4 0.433547 0.300268 0.000000
O O5 0.094570 0.950090 0.251173
O O6 0.000000 0.000000 0.224076
O O7 0.070555 0.000000 0.000000
O O8 0.695599 0.912273 0.767622
O O9 0.595548 0.949092 0.764103
O O10 0.605465 0.849217 0.749587
O O11 0.631224 0.898489 0.000000
O O12 0.306396 0.586930 0.244844
O O13 0.368672 0.594126 0.000000
O O14 0.248767 0.000000 0.230692
O O15 0.244003 0.061452 0.000000
O O16 0.500000 0.000000 0.759864
O O17 0.563214 0.000000 0.000000
O O18 0.434944 0.191771 0.500000
O O19 0.500000 0.181298 0.265817
#
# Coordination Sequence:
#
# PCOD9520159 Si02
#       7
#    16   8  16  16  16   8  16
#     4   9  19  37  59  81 107 141 181 227 276 327
#     4  11  23  36  53  80 114 149 182 221 274 333
#     4  10  19  34  56  81 108 144 188 228 269 322
#     4  11  22  36  57  84 111 142 185 231 278 330
#     4  10  20  36  56  79 111 149 187 227 273 326
#     4   9  16  27  49  80 106 131 172 223 268 315
#     4  10  21  36  55  82 114 145 179 224 279 335
#
# _framework density 17.511391
#
# number of rings (size 3 to 8) (size 9 to 14) (size 15 to 20)
#    0.000    2.000    1.667    2.250    0.000    5.000 
#    0.000    2.917    0.000    1.500    0.000    0.000 
#    0.000    0.000    0.000    0.000    0.000    0.000 
#
# Total GULP energy -268011.378823 kJ/mol
# GULP energy per Si atom -5583.570392 kJ/mol
# Density = 1.747153 g / cm^3
# Si number density = 17.511391 Si / 1000 Ang^3
#
#
#
# Elastic Constant Matrix: (Units=GPa)
#
#
# Indices 1 2 3 4 5 6 
#
# 1 186.5165 123.4242 47.0724 0.0000 0.0000 0.0000
# 2 123.4242 164.8043 40.1017 0.0000 0.0000 0.0000
# 3 47.0724 40.1017 22.3924 0.0000 0.0000 0.0000
# 4 0.0000 0.0000 0.0000 7.3832 0.0000 0.0000
# 5 0.0000 0.0000 0.0000 0.0000 20.7344 0.0000
# 6 0.0000 0.0000 0.0000 0.0000 0.0000 15.1493
#
#
#
# Elastic Compliance Matrix: (Units=1/GPa)
#
#
# Indices 1 2 3 4 5 6 
#
# 1 0.014064 -0.005918 -0.018968 0.000000 0.000000 0.000000
# 2 -0.005918 0.013244 -0.011278 0.000000 0.000000 0.000000
# 3 -0.018968 -0.011278 0.104730 0.000000 0.000000 0.000000
# 4 0.000000 0.000000 0.000000 0.135442 0.000000 0.000000
# 5 0.000000 0.000000 0.000000 0.000000 0.048229 0.000000
# 6 0.000000 0.000000 0.000000 0.000000 0.000000 0.066010
#
#
# Mechanical properties :
#
#
# Convention : Reuss Voigt Hill
#
# Bulk Modulus (GPa) = 16.74753 88.32331 52.53542
# Shear Modulus (GPa) = 10.54961 19.52771 15.03866
#
# Velocity S-wave (km/s) = 2.45713 3.34300 2.93370
# Velocity P-wave (km/s) = 4.19935 8.08999 6.44525
#
# Compressibility (1/GPa) = 0.05971028
#
# Stress axis : x y z
#
# Youngs Moduli (GPa) = 71.10145 75.50669 9.54835
#
# Poissons Ratio (x) = 0.44681 0.18112
# Poissons Ratio (y) = 0.42074 0.10769
# Poissons Ratio (z) = 1.34867 0.85159
#
# Static dielectric constant tensor:
#      x y z
#    x 1.584370 0.000000 0.000000 
#    y 0.000000 1.564020 0.000000 
#    z 0.000000 0.000000 1.593030 
# 
# From -- ./inp_files/12951.got.cif
#   From: 2010.05.17/outbox.cif.g08.bks.cpg/sg71_7_cif.got.tgz:12951.got - 2010.06.03 16:22:01.
