data_PCOD9520070
_publ_section_title
;
Structure prediction by ZEFSAII (Michael W. Deem and Ramdas Pophale) SiO2 
 PCOD9520070
Probable space group: I M M M
;
_chemical_formula_sum "Si O2"
_cell_formula_units_Z 96
_cell_length_a 17.255198
_cell_length_b 7.555423
_cell_length_c 30.311018
_cell_angle_alpha 90.000000
_cell_angle_beta 90.000000
_cell_angle_gamma 90.000000
_cell_volume 3951.657111
_symmetry_space_group_name_H-M "I M M M"
_symmetry_group_IT_number 71
_symmetry_cell_setting 'orthorhombic'
loop_
_space_group_symop_operation_xyz
x,y,z
-x,-y,z
x,-y,-z
-x,y,-z
-x,-y,-z
x,y,-z
-x,y,z
x,-y,z
1/2+x,1/2+y,1/2+z
1/2-x,1/2-y,1/2+z
1/2+x,1/2-y,1/2-z
1/2-x,1/2+y,1/2-z
1/2-x,1/2-y,1/2-z
1/2+x,1/2+y,1/2-z
1/2-x,1/2+y,1/2+z
1/2+x,1/2-y,1/2+z
loop_
_atom_site_type_symbol
_atom_site_label
_atom_site_fract_x
_atom_site_fract_y
_atom_site_fract_z
Si Si1 0.914809 0.709749 0.373404
Si Si2 0.699164 0.709499 0.048360
Si Si3 0.376612 0.702344 0.549119
Si Si4 0.292617 0.787742 0.806013
Si Si5 0.634914 0.283739 0.354186
Si Si6 0.416961 0.288358 0.260534
O O1 0.920752 0.500000 0.365553
O O2 0.861232 0.734292 0.415452
O O3 0.867695 0.783320 0.332432
O O4 0.000000 0.784533 0.379024
O O5 0.713633 0.500000 0.052008
O O6 0.782777 0.799050 0.051419
O O7 0.666761 0.747611 0.000000
O O8 0.396088 0.779109 0.500000
O O9 0.405264 0.500000 0.548432
O O10 0.393856 0.780915 0.597748
O O11 0.220294 0.724645 0.836290
O O12 0.330283 0.758155 0.757356
O O13 0.284491 0.000000 0.808097
O O14 0.636717 0.500000 0.357972
O O15 0.583781 0.237502 0.312001
O O16 0.500000 0.221413 0.240978
O O17 0.418869 0.500000 0.258168
#
# Coordination Sequence:
#
# PCOD9520070 Si02
#       6
#    16  16  16  16  16  16
#     4  10  20  33  49  68  92 127 169 210 250 291
#     4  10  20  32  46  67  97 129 161 203 255 302
#     4   9  16  30  54  77  97 126 166 208 248 294
#     4  10  19  34  54  74  97 129 172 217 250 283
#     4   9  17  32  54  78 102 130 168 209 249 294
#     4  10  21  35  51  74 106 139 166 200 253 310
#
# _framework density 24.293604999999999
#
# number of rings (size 3 to 8) (size 9 to 14) (size 15 to 20)
#    0.000    2.333    1.667    1.500    0.000    3.333 
#    0.000    2.500    0.000    0.500    0.000    3.500 
#    0.000    0.000    0.000    5.667    0.000    6.000 
#
# Total GULP energy -267414.601236 kJ/mol
# GULP energy per Si atom -5571.137526 kJ/mol
# Density = 2.423831 g / cm^3
# Si number density = 24.293605 Si / 1000 Ang^3
#
#
#
# Elastic Constant Matrix: (Units=GPa)
#
#
# Indices 1 2 3 4 5 6 
#
# 1 90.8188 1.3714 -4.7186 0.0000 0.0000 0.0000
# 2 1.3714 55.8656 -4.6917 0.0000 0.0000 0.0000
# 3 -4.7186 -4.6917 131.8022 0.0000 0.0000 0.0000
# 4 0.0000 0.0000 0.0000 29.9434 0.0000 0.0000
# 5 0.0000 0.0000 0.0000 0.0000 27.4332 0.0000
# 6 0.0000 0.0000 0.0000 0.0000 0.0000 -8.0874
#
#
#
# Elastic Compliance Matrix: (Units=1/GPa)
#
#
# Indices 1 2 3 4 5 6 
#
# 1 0.011035 -0.000238 0.000387 0.000000 0.000000 0.000000
# 2 -0.000238 0.017959 0.000631 0.000000 0.000000 0.000000
# 3 0.000387 0.000631 0.007623 0.000000 0.000000 0.000000
# 4 0.000000 0.000000 0.000000 0.033396 0.000000 0.000000
# 5 0.000000 0.000000 0.000000 0.000000 0.036452 0.000000
# 6 0.000000 0.000000 0.000000 0.000000 0.000000 -0.123649
#
#
# Mechanical properties :
#
#
# Convention : Reuss Voigt Hill
#
# Bulk Modulus (GPa) = 26.19533 29.15653 27.67593
# Shear Modulus (GPa) = -831.00026 28.95955 -401.02035
#
# Velocity S-wave (km/s) = -18.51508 3.45637 -12.86199
# Velocity P-wave (km/s) = 21.12513 5.28739 14.46227
#
# Compressibility (1/GPa) = 0.03817475
#
# Stress axis : x y z
#
# Youngs Moduli (GPa) = 90.62383 55.68259 131.17477
#
# Poissons Ratio (x) = 0.01328 -0.05071
# Poissons Ratio (y) = 0.02161 -0.08274
# Poissons Ratio (z) = -0.03503 -0.03512
#
# Static dielectric constant tensor:
#      x y z
#    x 1.955200 0.000000 0.000000 
#    y 0.000000 1.932310 0.000000 
#    z 0.000000 0.000000 2.077580 
# 
# From -- ./inp_files/14876.got.cif
#   From: 2010.05.17/outbox.cif.g08.bks.cpg/sg71_8_cif.got.tgz:14876.got - 2010.06.03 16:22:01.
