data_PCOD9520455
_publ_section_title
;
Structure prediction by ZEFSAII (Michael W. Deem and Ramdas Pophale) SiO2 
 PCOD9520455
Probable space group: I M M M
;
_chemical_formula_sum "Si O2"
_cell_formula_units_Z 92
_cell_length_a 16.446048
_cell_length_b 23.589318
_cell_length_c 12.756496
_cell_angle_alpha 90.000000
_cell_angle_beta 90.000000
_cell_angle_gamma 90.000000
_cell_volume 4948.896096
_symmetry_space_group_name_H-M "I M M M"
_symmetry_group_IT_number 71
_symmetry_cell_setting 'orthorhombic'
loop_
_space_group_symop_operation_xyz
x,y,z
-x,-y,z
x,-y,-z
-x,y,-z
-x,-y,-z
x,y,-z
-x,y,z
x,-y,z
1/2+x,1/2+y,1/2+z
1/2-x,1/2-y,1/2+z
1/2+x,1/2-y,1/2-z
1/2-x,1/2+y,1/2-z
1/2-x,1/2-y,1/2-z
1/2+x,1/2+y,1/2-z
1/2-x,1/2+y,1/2+z
1/2+x,1/2-y,1/2+z
loop_
_atom_site_type_symbol
_atom_site_label
_atom_site_fract_x
_atom_site_fract_y
_atom_site_fract_z
Si Si1 0.904066 0.772798 0.717539
Si Si2 0.242151 0.378755 0.500000
Si Si3 0.593480 0.791966 0.000000
Si Si4 0.902580 0.679495 0.882407
Si Si5 0.410067 0.500000 0.334108
Si Si6 0.170884 0.890828 0.776416
Si Si7 0.310456 0.065093 0.623033
Si Si8 0.764405 0.000000 0.000000
O O1 0.897709 0.746291 0.602842
O O2 0.871968 0.725208 0.798821
O O3 0.859050 0.832031 0.728490
O O4 0.000000 0.782044 0.740507
O O5 0.165798 0.337428 0.500000
O O6 0.296288 0.375593 0.606170
O O7 0.212410 0.443816 0.500000
O O8 0.500000 0.815184 0.000000
O O9 0.875908 0.614995 0.862038
O O10 0.000000 0.681378 0.879883
O O11 0.874893 0.694857 0.000000
O O12 0.500000 0.500000 0.382323
O O13 0.398507 0.560593 0.278250
O O14 0.329039 0.500000 0.405437
O O15 0.240457 0.918500 0.704490
O O16 0.284437 0.068172 0.500000
O O17 0.337387 0.000000 0.641016
#
# Coordination Sequence:
#
# PCOD9520455 Si02
#       8
#    16   8   8  16   8  16  16   4
#     4  10  22  39  58  83 115 150 190 235 280 337
#     4  10  22  37  59  86 114 148 187 236 290 333
#     4  10  22  40  58  80 116 156 191 229 276 337
#     4   9  19  36  58  84 113 145 184 233 287 339
#     4  10  19  36  59  81 110 148 184 224 280 338
#     4  11  22  38  58  85 115 146 189 236 285 335
#     4  10  21  37  57  82 115 150 187 233 280 332
#     4   8  19  36  55  86 116 140 180 236 281 328
#
# _framework density 18.590005000000001
#
# number of rings (size 3 to 8) (size 9 to 14) (size 15 to 20)
#    0.000    2.087    0.870    1.696    2.435    3.130 
#    0.000    2.826    0.000    0.522    0.000    0.000 
#    0.000    0.000    0.000    0.000    0.000    0.000 
#
# Total GULP energy -256311.352362 kJ/mol
# GULP energy per Si atom -5571.985921 kJ/mol
# Density = 1.854769 g / cm^3
# Si number density = 18.590005 Si / 1000 Ang^3
#
#
#
# Elastic Constant Matrix: (Units=GPa)
#
#
# Indices 1 2 3 4 5 6 
#
# 1 37.0622 31.5843 17.1773 0.0000 0.0000 0.0000
# 2 31.5843 130.6636 35.8022 0.0000 0.0000 0.0000
# 3 17.1773 35.8022 63.8893 -0.0001 0.0000 0.0000
# 4 0.0000 0.0000 -0.0001 -15.9222 0.0001 0.0000
# 5 0.0000 0.0000 0.0000 0.0001 16.4398 0.0000
# 6 0.0000 0.0000 0.0000 0.0000 0.0000 21.4147
#
#
#
# Elastic Compliance Matrix: (Units=1/GPa)
#
#
# Indices 1 2 3 4 5 6 
#
# 1 0.035607 -0.007069 -0.005612 0.000000 0.000000 0.000000
# 2 -0.007069 0.010445 -0.003953 0.000000 0.000000 0.000000
# 3 -0.005612 -0.003953 0.019376 0.000000 0.000000 0.000000
# 4 0.000000 0.000000 0.000000 -0.062805 0.000000 0.000000
# 5 0.000000 0.000000 0.000000 0.000000 0.060828 0.000000
# 6 0.000000 0.000000 0.000000 0.000000 0.000000 0.046697
#
#
# Mechanical properties :
#
#
# Convention : Reuss Voigt Hill
#
# Bulk Modulus (GPa) = 31.09400 44.52696 37.81048
# Shear Modulus (GPa) = 32.43901 14.18986 23.31443
#
# Velocity S-wave (km/s) = 4.18182 2.76580 3.54522
# Velocity P-wave (km/s) = 6.33082 5.84838 6.09438
#
# Compressibility (1/GPa) = 0.03216055
#
# Stress axis : x y z
#
# Youngs Moduli (GPa) = 28.08426 95.73891 51.61084
#
# Poissons Ratio (x) = 0.67682 0.28963
# Poissons Ratio (y) = 0.19854 0.20399
# Poissons Ratio (z) = 0.15760 0.37841
#
# Static dielectric constant tensor:
#      x y z
#    x 1.629550 0.000000 0.000000 
#    y 0.000000 1.647970 0.000000 
#    z 0.000000 0.000000 1.678780 
# 
# From -- ./inp_files/24295.got.cif
#   From: 2010.05.17/outbox.cif.g08.bks.cpg/sg71_13_cif.got.tgz:24295.got - 2010.06.03 16:22:01.
