data_PCOD9520088
_publ_section_title
;
Structure prediction by ZEFSAII (Michael W. Deem and Ramdas Pophale) SiO2 
 PCOD9520088
Probable space group: I M M M
;
_chemical_formula_sum "Si O2"
_cell_formula_units_Z 88
_cell_length_a 21.757310
_cell_length_b 10.491152
_cell_length_c 23.121795
_cell_angle_alpha 90.000000
_cell_angle_beta 90.000000
_cell_angle_gamma 90.000000
_cell_volume 5277.763500
_symmetry_space_group_name_H-M "I M M M"
_symmetry_group_IT_number 71
_symmetry_cell_setting 'orthorhombic'
loop_
_space_group_symop_operation_xyz
x,y,z
-x,-y,z
x,-y,-z
-x,y,-z
-x,-y,-z
x,y,-z
-x,y,z
x,-y,z
1/2+x,1/2+y,1/2+z
1/2-x,1/2-y,1/2+z
1/2+x,1/2-y,1/2-z
1/2-x,1/2+y,1/2-z
1/2-x,1/2-y,1/2-z
1/2+x,1/2+y,1/2-z
1/2-x,1/2+y,1/2+z
1/2+x,1/2-y,1/2+z
loop_
_atom_site_type_symbol
_atom_site_label
_atom_site_fract_x
_atom_site_fract_y
_atom_site_fract_z
Si Si1 0.120054 0.654463 0.865836
Si Si2 0.500000 0.844382 0.566007
Si Si3 0.245698 0.654568 0.069197
Si Si4 0.871300 0.750254 0.621123
Si Si5 0.569539 0.000000 0.931349
Si Si6 0.426158 0.845759 0.761068
Si Si7 0.427111 0.500000 0.065297
O O1 0.119893 0.500000 0.866641
O O2 0.061244 0.698619 0.902088
O O3 0.182546 0.691538 0.898307
O O4 0.106408 0.689606 0.799491
O O5 0.500000 0.804757 0.500000
O O6 0.500000 0.000000 0.567514
O O7 0.253020 0.500000 0.073763
O O8 0.301204 0.722445 0.103073
O O9 0.245019 0.683661 0.000000
O O10 0.895815 0.625780 0.588494
O O11 0.890245 0.723639 0.687225
O O12 0.906294 0.874232 0.598003
O O13 0.500000 0.000000 0.906711
O O14 0.565479 0.000000 0.000000
O O15 0.500000 0.817485 0.760237
O O16 0.421296 0.000000 0.768481
O O17 0.500000 0.500000 0.061195
O O18 0.400557 0.500000 0.000000
#
# Coordination Sequence:
#
# PCOD9520088 Si02
#       7
#    16   8  16  16   8  16   8
#     4   9  17  30  51  78 108 149 185 225 279 332
#     4   9  14  24  46  80 112 139 182 233 277 327
#     4  10  20  35  53  77 113 151 186 226 282 340
#     4  12  22  35  55  79 110 150 185 227 281 338
#     4  11  22  36  54  79 106 139 193 248 283 315
#     4  10  19  34  54  78 112 146 186 231 280 332
#     4  11  22  36  54  77 106 143 193 240 283 329
#
# _framework density 16.673729000000002
#
# number of rings (size 3 to 8) (size 9 to 14) (size 15 to 20)
#    0.000    1.727    2.727    3.818    0.000    4.364 
#    0.000    0.000    0.000    0.000    0.000    0.000 
#    0.000    0.000    0.000    4.455    0.000    1.545 
#
# Total GULP energy -245351.637621 kJ/mol
# GULP energy per Si atom -5576.173582 kJ/mol
# Density = 1.663578 g / cm^3
# Si number density = 16.673729 Si / 1000 Ang^3
#
#
#
# Elastic Constant Matrix: (Units=GPa)
#
#
# Indices 1 2 3 4 5 6 
#
# 1 177.4219 45.6438 97.2753 0.0000 0.0000 0.0000
# 2 45.6438 69.7661 45.1657 0.0000 0.0000 0.0000
# 3 97.2753 45.1657 178.9589 0.0000 0.0000 0.0000
# 4 0.0000 0.0000 0.0000 19.4396 0.0000 0.0000
# 5 0.0000 0.0000 0.0000 0.0000 32.6721 0.0000
# 6 0.0000 0.0000 0.0000 0.0000 0.0000 21.3836
#
#
#
# Elastic Compliance Matrix: (Units=1/GPa)
#
#
# Indices 1 2 3 4 5 6 
#
# 1 0.008553 -0.003091 -0.003869 0.000000 0.000000 0.000000
# 2 -0.003091 0.018250 -0.002926 0.000000 0.000000 0.000000
# 3 -0.003869 -0.002926 0.008429 0.000000 0.000000 0.000000
# 4 0.000000 0.000000 0.000000 0.051441 0.000000 0.000000
# 5 0.000000 0.000000 0.000000 0.000000 0.030607 0.000000
# 6 0.000000 0.000000 0.000000 0.000000 0.000000 0.046765
#
#
# Mechanical properties :
#
#
# Convention : Reuss Voigt Hill
#
# Bulk Modulus (GPa) = 64.67988 89.14629 76.91308
# Shear Modulus (GPa) = 26.45929 30.56988 28.51458
#
# Velocity S-wave (km/s) = 3.98789 4.28649 4.13988
# Velocity P-wave (km/s) = 7.75114 8.83628 8.31143
#
# Compressibility (1/GPa) = 0.01546076
#
# Stress axis : x y z
#
# Youngs Moduli (GPa) = 116.92374 54.79477 118.63469
#
# Poissons Ratio (x) = 0.16936 0.45897
# Poissons Ratio (y) = 0.36139 0.34711
# Poissons Ratio (z) = 0.45235 0.16032
#
# Static dielectric constant tensor:
#      x y z
#    x 1.576240 0.000000 0.000000 
#    y 0.000000 1.530490 0.000000 
#    z 0.000000 0.000000 1.583700 
# 
# From -- ./inp_files/61153.got.cif
#   From: 2010.05.17/outbox.cif.g08.bks.cpg/sg71_31_cif.got.tgz:61153.got - 2010.06.03 16:22:01.
