data_PCOD9520666
_publ_section_title
;
Structure prediction by ZEFSAII (Michael W. Deem and Ramdas Pophale) SiO2 
 PCOD9520666
Probable space group: I M M M
;
_chemical_formula_sum "Si O2"
_cell_formula_units_Z 72
_cell_length_a 8.749557
_cell_length_b 32.408902
_cell_length_c 14.741941
_cell_angle_alpha 90.000000
_cell_angle_beta 90.000000
_cell_angle_gamma 90.000000
_cell_volume 4180.276908
_symmetry_space_group_name_H-M "I M M M"
_symmetry_group_IT_number 71
_symmetry_cell_setting 'orthorhombic'
loop_
_space_group_symop_operation_xyz
x,y,z
-x,-y,z
x,-y,-z
-x,y,-z
-x,-y,-z
x,y,-z
-x,y,z
x,-y,z
1/2+x,1/2+y,1/2+z
1/2-x,1/2-y,1/2+z
1/2+x,1/2-y,1/2-z
1/2-x,1/2+y,1/2-z
1/2-x,1/2-y,1/2-z
1/2+x,1/2+y,1/2-z
1/2-x,1/2+y,1/2+z
1/2+x,1/2-y,1/2+z
loop_
_atom_site_type_symbol
_atom_site_label
_atom_site_fract_x
_atom_site_fract_y
_atom_site_fract_z
Si Si1 0.183568 0.712817 0.690092
Si Si2 0.685282 0.165285 0.500000
Si Si3 0.329867 0.048504 0.500000
Si Si4 0.681957 0.546946 0.193919
Si Si5 0.815941 0.238379 0.000000
Si Si6 0.683674 0.868853 0.302531
O O1 0.250000 0.750000 0.750000
O O2 0.251912 0.717259 0.590146
O O3 0.223078 0.669839 0.739111
O O4 0.000000 0.716007 0.687465
O O5 0.500000 0.165949 0.500000
O O6 0.732980 0.213252 0.500000
O O7 0.733683 0.143349 0.594072
O O8 0.500000 0.068508 0.500000
O O9 0.235047 0.054832 0.590535
O O10 0.355080 0.000000 0.500000
O O11 0.500000 0.547166 0.201086
O O12 0.734474 0.500000 0.219065
O O13 0.750505 0.588346 0.237181
O O14 0.000000 0.237405 0.000000
O O15 0.500000 0.872916 0.305874
#
# Coordination Sequence:
#
# PCOD9520666 Si02
#       6
#    16   8   8  16   8  16
#     4  11  22  37  57  83 111 141 180 225 269 319
#     4   9  17  32  50  73 104 140 180 218 257 306
#     4   9  16  27  44  64  91 132 175 210 253 310
#     4  10  20  32  46  69 101 133 172 222 267 310
#     4  11  21  38  58  78 110 148 181 221 268 319
#     4  10  20  34  53  76 106 142 181 221 261 315
#
# _framework density 17.223739999999999
#
# number of rings (size 3 to 8) (size 9 to 14) (size 15 to 20)
#    0.000    1.889    2.222    2.667    0.000    5.333 
#    0.000    0.000    0.000    0.000    0.000    0.778 
#    0.000    6.222    0.000    0.000    0.000    0.000 
#
# Total GULP energy -200638.679184 kJ/mol
# GULP energy per Si atom -5573.296644 kJ/mol
# Density = 1.718454 g / cm^3
# Si number density = 17.223740 Si / 1000 Ang^3
#
#
#
# Elastic Constant Matrix: (Units=GPa)
#
#
# Indices 1 2 3 4 5 6 
#
# 1 36.8050 48.9126 27.0692 0.0000 0.0000 0.0000
# 2 48.9126 189.3648 60.7207 0.0000 0.0000 0.0000
# 3 27.0692 60.7207 95.4036 0.0000 0.0000 0.0000
# 4 0.0000 0.0000 0.0000 16.0689 0.0000 0.0000
# 5 0.0000 0.0000 0.0000 0.0000 22.0352 0.0000
# 6 0.0000 0.0000 0.0000 0.0000 0.0000 29.7340
#
#
#
# Elastic Compliance Matrix: (Units=1/GPa)
#
#
# Indices 1 2 3 4 5 6 
#
# 1 0.044516 -0.009358 -0.006675 0.000000 0.000000 0.000000
# 2 -0.009358 0.008602 -0.002820 0.000000 0.000000 0.000000
# 3 -0.006675 -0.002820 0.014170 0.000000 0.000000 0.000000
# 4 0.000000 0.000000 0.000000 0.062232 0.000000 0.000000
# 5 0.000000 0.000000 0.000000 0.000000 0.045382 0.000000
# 6 0.000000 0.000000 0.000000 0.000000 0.000000 0.033632
#
#
# Mechanical properties :
#
#
# Convention : Reuss Voigt Hill
#
# Bulk Modulus (GPa) = 33.80273 66.10871 49.95572
# Shear Modulus (GPa) = 19.52367 25.89235 22.70801
#
# Velocity S-wave (km/s) = 3.37045 3.88144 3.63494
# Velocity P-wave (km/s) = 5.90041 7.65200 6.83257
#
# Compressibility (1/GPa) = 0.02958341
#
# Stress axis : x y z
#
# Youngs Moduli (GPa) = 22.46392 116.24978 70.57049
#
# Poissons Ratio (x) = 1.08788 0.47102
# Poissons Ratio (y) = 0.21022 0.19899
# Poissons Ratio (z) = 0.14994 0.32779
#
# Static dielectric constant tensor:
#      x y z
#    x 1.586100 0.000000 0.000000 
#    y 0.000000 1.652740 0.000000 
#    z 0.000000 0.000000 1.618590 
# 
# From -- ./inp_files/31689.got.cif
#   From: 2010.05.17/outbox.cif.g08.bks.cpg/sg71_16_cif.got.tgz:31689.got - 2010.06.03 16:22:01.
