data_PCOD9520836
_publ_section_title
;
Structure prediction by ZEFSAII (Michael W. Deem and Ramdas Pophale) SiO2 
 PCOD9520836
Probable space group: I M M M
;
_chemical_formula_sum "Si O2"
_cell_formula_units_Z 112
_cell_length_a 14.948035
_cell_length_b 14.140559
_cell_length_c 26.944578
_cell_angle_alpha 90.000000
_cell_angle_beta 90.000000
_cell_angle_gamma 90.000000
_cell_volume 5695.371667
_symmetry_space_group_name_H-M "I M M M"
_symmetry_group_IT_number 71
_symmetry_cell_setting 'orthorhombic'
loop_
_space_group_symop_operation_xyz
x,y,z
-x,-y,z
x,-y,-z
-x,y,-z
-x,-y,-z
x,y,-z
-x,y,z
x,-y,z
1/2+x,1/2+y,1/2+z
1/2-x,1/2-y,1/2+z
1/2+x,1/2-y,1/2-z
1/2-x,1/2+y,1/2-z
1/2-x,1/2-y,1/2-z
1/2+x,1/2+y,1/2-z
1/2-x,1/2+y,1/2+z
1/2+x,1/2-y,1/2+z
loop_
_atom_site_type_symbol
_atom_site_label
_atom_site_fract_x
_atom_site_fract_y
_atom_site_fract_z
Si Si1 0.106099 0.238593 0.055542
Si Si2 0.217504 0.386383 0.895404
Si Si3 0.896353 0.393003 0.315858
Si Si4 0.639567 0.391795 0.757490
Si Si5 0.654096 0.106977 0.289756
Si Si6 0.607730 0.391570 0.647426
Si Si7 0.397298 0.704044 0.859761
O O1 0.166041 0.331962 0.061615
O O2 0.135019 0.167090 0.099150
O O3 0.000000 0.259571 0.062199
O O4 0.116708 0.198945 0.000000
O O5 0.215372 0.500000 0.898362
O O6 0.162084 0.356072 0.845387
O O7 0.320429 0.353250 0.888612
O O8 0.857324 0.500000 0.317524
O O9 0.893502 0.355003 0.259104
O O10 0.860627 0.311041 0.351369
O O11 0.000000 0.401072 0.329147
O O12 0.605811 0.500000 0.755025
O O13 0.743598 0.395074 0.771466
O O14 0.632051 0.351381 0.701958
O O15 0.597485 0.340059 0.804367
O O16 0.618596 0.000000 0.294767
O O17 0.500000 0.394191 0.646656
O O18 0.640968 0.500000 0.644955
O O19 0.500000 0.703230 0.879498
#
# Coordination Sequence:
#
# PCOD9520836 Si02
#       7
#    16  16  16  16  16  16  16
#     4  10  23  41  59  80 105 136 179 231 283 331
#     4  10  22  37  55  80 106 138 181 228 277 328
#     4   9  18  30  43  66 105 151 191 221 256 304
#     4   9  17  28  46  75 108 143 181 217 256 308
#     4   8  16  29  44  68 103 140 175 214 258 305
#     4   9  18  32  52  79 109 142 179 218 263 317
#     4  10  20  32  52  80 112 151 184 218 263 315
#
# _framework density 19.665089999999999
#
# number of rings (size 3 to 8) (size 9 to 14) (size 15 to 20)
#    0.000    2.714    0.000    1.714    4.000    4.286 
#    0.000    3.571    0.000    0.429    0.000    1.000 
#    0.000    0.000    0.000    4.857    0.000    0.143 
#
# Total GULP energy -311905.971311 kJ/mol
# GULP energy per Si atom -5569.749488 kJ/mol
# Density = 1.962033 g / cm^3
# Si number density = 19.665090 Si / 1000 Ang^3
#
#
#
# Elastic Constant Matrix: (Units=GPa)
#
#
# Indices 1 2 3 4 5 6 
#
# 1 40.9862 13.8966 18.1603 0.0000 0.0000 0.0000
# 2 13.8966 67.4028 19.6283 0.0000 0.0000 0.0000
# 3 18.1603 19.6283 67.5705 0.0000 0.0000 0.0000
# 4 0.0000 0.0000 0.0000 20.0339 0.0000 0.0000
# 5 0.0000 0.0000 0.0000 0.0000 20.2910 0.0000
# 6 0.0000 0.0000 0.0000 0.0000 0.0000 19.0645
#
#
#
# Elastic Compliance Matrix: (Units=1/GPa)
#
#
# Indices 1 2 3 4 5 6 
#
# 1 0.028653 -0.004004 -0.006538 0.000000 0.000000 0.000000
# 2 -0.004004 0.016767 -0.003794 0.000000 0.000000 0.000000
# 3 -0.006538 -0.003794 0.017659 0.000000 0.000000 0.000000
# 4 0.000000 0.000000 0.000000 0.049915 0.000000 0.000000
# 5 0.000000 0.000000 0.000000 0.000000 0.049283 0.000000
# 6 0.000000 0.000000 0.000000 0.000000 0.000000 0.052454
#
#
# Mechanical properties :
#
#
# Convention : Reuss Voigt Hill
#
# Bulk Modulus (GPa) = 29.06433 31.03665 30.05049
# Shear Modulus (GPa) = 19.61784 20.16283 19.89034
#
# Velocity S-wave (km/s) = 3.16190 3.20552 3.18379
# Velocity P-wave (km/s) = 5.30490 5.43299 5.36932
#
# Compressibility (1/GPa) = 0.03440643
#
# Stress axis : x y z
#
# Youngs Moduli (GPa) = 34.90084 59.64253 56.62941
#
# Poissons Ratio (x) = 0.23878 0.37023
# Poissons Ratio (y) = 0.13973 0.21488
# Poissons Ratio (z) = 0.22817 0.22631
#
# Static dielectric constant tensor:
#      x y z
#    x 1.732030 0.000000 0.000000 
#    y 0.000000 1.770020 0.000000 
#    z 0.000000 0.000000 1.682260 
# 
# From -- ./inp_files/39276.got.cif
#   From: 2010.05.17/outbox.cif.g08.bks.cpg/sg71_20_cif.got.tgz:39276.got - 2010.06.03 16:22:01.
