data_PCOD9520704
_publ_section_title
;
Structure prediction by ZEFSAII (Michael W. Deem and Ramdas Pophale) SiO2 
 PCOD9520704
Probable space group: I M M M
;
_chemical_formula_sum "Si O2"
_cell_formula_units_Z 104
_cell_length_a 18.483421
_cell_length_b 7.397467
_cell_length_c 33.466721
_cell_angle_alpha 90.000000
_cell_angle_beta 90.000000
_cell_angle_gamma 90.000000
_cell_volume 4575.921392
_symmetry_space_group_name_H-M "I M M M"
_symmetry_group_IT_number 71
_symmetry_cell_setting 'orthorhombic'
loop_
_space_group_symop_operation_xyz
x,y,z
-x,-y,z
x,-y,-z
-x,y,-z
-x,-y,-z
x,y,-z
-x,y,z
x,-y,z
1/2+x,1/2+y,1/2+z
1/2-x,1/2-y,1/2+z
1/2+x,1/2-y,1/2-z
1/2-x,1/2+y,1/2-z
1/2-x,1/2-y,1/2-z
1/2+x,1/2+y,1/2-z
1/2-x,1/2+y,1/2+z
1/2+x,1/2-y,1/2+z
loop_
_atom_site_type_symbol
_atom_site_label
_atom_site_fract_x
_atom_site_fract_y
_atom_site_fract_z
Si Si1 0.813911 0.719396 0.696637
Si Si2 0.844333 0.279174 0.545529
Si Si3 0.581222 0.220484 0.125767
Si Si4 0.314929 0.719917 0.572510
Si Si5 0.351652 0.209346 0.716499
Si Si6 0.581989 0.719422 0.500000
Si Si7 0.921222 0.208280 0.137168
O O1 0.813549 0.500000 0.696610
O O2 0.858553 0.779016 0.657922
O O3 0.730253 0.774238 0.699757
O O4 0.849956 0.781489 0.738340
O O5 0.858604 0.220292 0.500000
O O6 0.844587 0.500000 0.544588
O O7 0.898623 0.224367 0.580705
O O8 0.764646 0.219046 0.560082
O O9 0.500000 0.276791 0.136545
O O10 0.582572 0.000000 0.126356
O O11 0.308168 0.500000 0.573591
O O12 0.372342 0.771160 0.538629
O O13 0.351952 0.783288 0.613512
O O14 0.404449 0.291636 0.683952
O O15 0.371153 0.000000 0.719003
O O16 0.579588 0.500000 0.500000
O O17 0.500000 0.784676 0.500000
O O18 0.000000 0.290255 0.128722
O O19 0.925658 0.000000 0.123804
#
# Coordination Sequence:
#
# PCOD9520704 Si02
#       7
#    16  16  16  16  16   8  16
#     4   9  18  34  54  74  97 128 165 205 248 297
#     4   9  15  23  37  60  92 128 160 192 239 295
#     4   9  17  28  44  67  95 129 164 195 235 293
#     4   9  15  25  40  61  92 129 165 202 244 292
#     4  10  20  33  52  75  98 127 166 211 254 296
#     4   9  14  20  34  58  88 120 156 201 249 293
#     4  10  20  32  47  70 102 139 173 204 245 296
#
# _framework density 22.727663
#
# number of rings (size 3 to 8) (size 9 to 14) (size 15 to 20)
#    0.000    2.692    0.769    1.846    0.000    6.154 
#    0.000    3.077    0.000    0.462    0.000    0.538 
#    0.000    1.846    0.000    4.000    0.000    4.615 
#
# Total GULP energy -290317.975215 kJ/mol
# GULP energy per Si atom -5583.037985 kJ/mol
# Density = 2.267593 g / cm^3
# Si number density = 22.727663 Si / 1000 Ang^3
#
#
#
# Elastic Constant Matrix: (Units=GPa)
#
#
# Indices 1 2 3 4 5 6 
#
# 1 42.7485 -8.2530 25.9103 0.0000 0.0000 0.0000
# 2 -8.2530 72.6488 -3.6719 0.0000 0.0000 0.0000
# 3 25.9103 -3.6719 133.6531 0.0000 0.0000 0.0000
# 4 0.0000 0.0000 0.0000 -11.4067 0.0000 0.0000
# 5 0.0000 0.0000 0.0000 0.0000 7.5710 0.0000
# 6 0.0000 0.0000 0.0000 0.0000 0.0000 -8.3190
#
#
#
# Elastic Compliance Matrix: (Units=1/GPa)
#
#
# Indices 1 2 3 4 5 6 
#
# 1 0.027070 0.002814 -0.005171 0.000000 0.000000 0.000000
# 2 0.002814 0.014076 -0.000159 0.000000 0.000000 0.000000
# 3 -0.005171 -0.000159 0.008480 0.000000 0.000000 0.000000
# 4 0.000000 0.000000 0.000000 -0.087668 0.000000 0.000000
# 5 0.000000 0.000000 0.000000 0.000000 0.132083 0.000000
# 6 0.000000 0.000000 0.000000 0.000000 0.000000 -0.120207
#
#
# Mechanical properties :
#
#
# Convention : Reuss Voigt Hill
#
# Bulk Modulus (GPa) = 22.42382 30.78014 26.60198
# Shear Modulus (GPa) = -797.56166 13.24006 -392.16080
#
# Velocity S-wave (km/s) = -18.75321 2.41623 -13.15000
# Velocity P-wave (km/s) = 21.42482 4.62133 14.79301
#
# Compressibility (1/GPa) = 0.04459544
#
# Stress axis : x y z
#
# Youngs Moduli (GPa) = 36.94154 71.04049 117.92367
#
# Poissons Ratio (x) = -0.19990 0.60973
# Poissons Ratio (y) = -0.10395 0.01872
# Poissons Ratio (z) = 0.19101 0.01128
#
# Static dielectric constant tensor:
#      x y z
#    x 1.799650 0.000000 0.000000 
#    y 0.000000 1.903970 0.000000 
#    z 0.000000 0.000000 1.839740 
# 
# From -- ./inp_files/70526.got.cif
#   From: 2010.05.17/outbox.cif.g08.bks.cpg/sg71_36_cif.got.tgz:70526.got - 2010.06.03 16:22:01.
