data_PCOD9520831
_publ_section_title
;
Structure prediction by ZEFSAII (Michael W. Deem and Ramdas Pophale) SiO2 
 PCOD9520831
Probable space group: I M M M
;
_chemical_formula_sum "Si O2"
_cell_formula_units_Z 104
_cell_length_a 27.723937
_cell_length_b 7.748685
_cell_length_c 26.988679
_cell_angle_alpha 90.000000
_cell_angle_beta 90.000000
_cell_angle_gamma 90.000000
_cell_volume 5797.817456
_symmetry_space_group_name_H-M "I M M M"
_symmetry_group_IT_number 71
_symmetry_cell_setting 'orthorhombic'
loop_
_space_group_symop_operation_xyz
x,y,z
-x,-y,z
x,-y,-z
-x,y,-z
-x,-y,-z
x,y,-z
-x,y,z
x,-y,z
1/2+x,1/2+y,1/2+z
1/2-x,1/2-y,1/2+z
1/2+x,1/2-y,1/2-z
1/2-x,1/2+y,1/2-z
1/2-x,1/2-y,1/2-z
1/2+x,1/2+y,1/2-z
1/2-x,1/2+y,1/2+z
1/2+x,1/2-y,1/2+z
loop_
_atom_site_type_symbol
_atom_site_label
_atom_site_fract_x
_atom_site_fract_y
_atom_site_fract_z
Si Si1 0.886271 0.295668 0.201119
Si Si2 0.555205 0.206882 0.392801
Si Si3 0.725126 0.705411 0.302068
Si Si4 0.054921 0.795081 0.000000
Si Si5 0.349055 0.500000 0.058854
Si Si6 0.808596 0.297625 0.374238
Si Si7 0.554070 0.500000 0.120770
Si Si8 0.406238 0.202876 0.188501
O O1 0.895575 0.500000 0.202655
O O2 0.914146 0.224381 0.153338
O O3 0.829090 0.272591 0.196161
O O4 0.903985 0.232923 0.254808
O O5 0.500000 0.273781 0.391468
O O6 0.576681 0.243160 0.447255
O O7 0.552903 0.000000 0.388430
O O8 0.722862 0.500000 0.305275
O O9 0.750000 0.750000 0.250000
O O10 0.760133 0.762676 0.346507
O O11 0.000000 0.721061 0.000000
O O12 0.051985 0.000000 0.000000
O O13 0.323466 0.330977 0.082112
O O14 0.403802 0.500000 0.079841
O O15 0.347776 0.500000 0.000000
O O16 0.804424 0.500000 0.388817
O O17 0.851988 0.288907 0.333892
O O18 0.500000 0.500000 0.100692
O O19 0.562613 0.668909 0.154979
O O20 0.420970 0.000000 0.186375
#
# Coordination Sequence:
#
# PCOD9520831 Si02
#       8
#    16  16  16   8   8  16   8  16
#     4  10  20  32  51  80 110 140 180 222 267 327
#     4   9  18  33  52  72  97 134 178 222 264 314
#     4  11  21  31  54  83 112 146 176 219 272 324
#     4   9  17  31  51  71  91 123 171 223 269 305
#     4  10  22  39  64  84 108 154 196 241 290 331
#     4   9  19  35  55  84 114 144 186 227 280 338
#     4  10  22  37  56  84 116 147 190 237 286 341
#     4   9  18  34  53  77 113 151 181 218 274 340
#
# _framework density 17.937785999999999
#
# number of rings (size 3 to 8) (size 9 to 14) (size 15 to 20)
#    0.000    2.385    1.538    0.692    3.231    2.923 
#    0.000    1.538    1.692    0.000    0.000    4.308 
#    0.000    0.000    0.000    0.000    0.000    0.000 
#
# Total GULP energy -289933.361269 kJ/mol
# GULP energy per Si atom -5575.641563 kJ/mol
# Density = 1.789696 g / cm^3
# Si number density = 17.937786 Si / 1000 Ang^3
#
#
#
# Elastic Constant Matrix: (Units=GPa)
#
#
# Indices 1 2 3 4 5 6 
#
# 1 45.2958 7.3903 43.7215 0.0000 0.0000 0.0000
# 2 7.3903 58.6438 39.2339 0.0000 0.0000 0.0000
# 3 43.7215 39.2339 165.9079 0.0000 0.0000 0.0000
# 4 0.0000 0.0000 0.0000 16.4372 0.0000 0.0000
# 5 0.0000 0.0000 0.0000 0.0000 16.1031 0.0000
# 6 0.0000 0.0000 0.0000 0.0000 0.0000 14.5004
#
#
#
# Elastic Compliance Matrix: (Units=1/GPa)
#
#
# Indices 1 2 3 4 5 6 
#
# 1 0.029764 0.001778 -0.008264 0.000000 0.000000 0.000000
# 2 0.001778 0.020363 -0.005284 0.000000 0.000000 0.000000
# 3 -0.008264 -0.005284 0.009455 0.000000 0.000000 0.000000
# 4 0.000000 0.000000 0.000000 0.060838 0.000000 0.000000
# 5 0.000000 0.000000 0.000000 0.000000 0.062100 0.000000
# 6 0.000000 0.000000 0.000000 0.000000 0.000000 0.068964
#
#
# Mechanical properties :
#
#
# Convention : Reuss Voigt Hill
#
# Bulk Modulus (GPa) = 27.74573 50.05989 38.90281
# Shear Modulus (GPa) = 17.41935 21.37493 19.39714
#
# Velocity S-wave (km/s) = 3.11963 3.45572 3.29197
# Velocity P-wave (km/s) = 5.33642 6.62501 6.01532
#
# Compressibility (1/GPa) = 0.03604158
#
# Stress axis : x y z
#
# Youngs Moduli (GPa) = 33.59778 49.10829 105.76608
#
# Poissons Ratio (x) = -0.08731 0.87406
# Poissons Ratio (y) = -0.05974 0.55887
# Poissons Ratio (z) = 0.27765 0.25949
#
# Static dielectric constant tensor:
#      x y z
#    x 1.609300 0.000000 0.000000 
#    y 0.000000 1.635950 0.000000 
#    z 0.000000 0.000000 1.611430 
# 
# From -- ./inp_files/56309.got.cif
#   From: 2010.05.17/outbox.cif.g08.bks.cpg/sg71_29_cif.got.tgz:56309.got - 2010.06.03 16:22:01.
