data_PCOD9520939
_publ_section_title
;
Structure prediction by ZEFSAII (Michael W. Deem and Ramdas Pophale) SiO2 
 PCOD9520939
Probable space group: I M M M
;
_chemical_formula_sum "Si O2"
_cell_formula_units_Z 88
_cell_length_a 15.724694
_cell_length_b 13.320915
_cell_length_c 26.124485
_cell_angle_alpha 90.000000
_cell_angle_beta 90.000000
_cell_angle_gamma 90.000000
_cell_volume 5472.225655
_symmetry_space_group_name_H-M "I M M M"
_symmetry_group_IT_number 71
_symmetry_cell_setting 'orthorhombic'
loop_
_space_group_symop_operation_xyz
x,y,z
-x,-y,z
x,-y,-z
-x,y,-z
-x,-y,-z
x,y,-z
-x,y,z
x,-y,z
1/2+x,1/2+y,1/2+z
1/2-x,1/2-y,1/2+z
1/2+x,1/2-y,1/2-z
1/2-x,1/2+y,1/2-z
1/2-x,1/2-y,1/2-z
1/2+x,1/2+y,1/2-z
1/2-x,1/2+y,1/2+z
1/2+x,1/2-y,1/2+z
loop_
_atom_site_type_symbol
_atom_site_label
_atom_site_fract_x
_atom_site_fract_y
_atom_site_fract_z
Si Si1 0.208866 0.617342 0.403438
Si Si2 0.600188 0.879113 0.690793
Si Si3 0.100995 0.315567 0.500000
Si Si4 0.295478 0.615030 0.000000
Si Si5 0.178668 0.696102 0.091065
Si Si6 0.096707 0.378104 0.692801
Si Si7 0.500000 0.113766 0.440087
O O1 0.230774 0.500000 0.400155
O O2 0.143496 0.634387 0.450121
O O3 0.288337 0.690434 0.412065
O O4 0.161690 0.651333 0.351371
O O5 0.500000 0.852111 0.679724
O O6 0.668360 0.838302 0.650097
O O7 0.617680 0.846463 0.749255
O O8 0.603891 0.000000 0.689339
O O9 0.131256 0.199204 0.500000
O O10 0.000000 0.325786 0.500000
O O11 0.238984 0.635483 0.948696
O O12 0.323985 0.500000 0.000000
O O13 0.083802 0.674507 0.072832
O O14 0.095755 0.500000 0.692846
O O15 0.000000 0.345403 0.680981
O O16 0.500000 0.099934 0.500000
O O17 0.500000 0.000000 0.417013
#
# Coordination Sequence:
#
# PCOD9520939 Si02
#       7
#    16  16   8   8  16  16   8
#     4  10  21  35  49  69 100 130 163 207 242 278
#     4   9  16  27  47  74  99 122 157 204 244 284
#     4  10  21  35  55  77  92 123 168 200 239 290
#     4  10  20  33  49  75 108 131 148 191 248 297
#     4  11  20  30  49  74 101 129 166 197 238 290
#     4   8  15  29  49  71  95 126 161 201 246 282
#     4  11  20  32  53  75  99 127 156 197 245 295
#
# _framework density 16.081208
#
# number of rings (size 3 to 8) (size 9 to 14) (size 15 to 20)
#    0.000    2.273    1.818    3.545    0.000    2.364 
#    0.000    0.455    0.000    0.545    0.000    0.000 
#    0.000    1.818    0.000    0.000    0.000    0.000 
#
# Total GULP energy -244991.685118 kJ/mol
# GULP energy per Si atom -5567.992844 kJ/mol
# Density = 1.604461 g / cm^3
# Si number density = 16.081208 Si / 1000 Ang^3
#
#
#
# Elastic Constant Matrix: (Units=GPa)
#
#
# Indices 1 2 3 4 5 6 
#
# 1 78.6176 38.2942 30.9561 0.0000 0.0000 0.0000
# 2 38.2942 77.2153 25.1048 0.0000 0.0000 0.0000
# 3 30.9561 25.1048 101.2898 0.0000 0.0000 0.0000
# 4 0.0000 0.0000 0.0000 50.2865 0.0000 0.0000
# 5 0.0000 0.0000 0.0000 0.0000 12.8298 0.0000
# 6 0.0000 0.0000 0.0000 0.0000 0.0000 14.2987
#
#
#
# Elastic Compliance Matrix: (Units=1/GPa)
#
#
# Indices 1 2 3 4 5 6 
#
# 1 0.017874 -0.007709 -0.003552 0.000000 0.000000 0.000000
# 2 -0.007709 0.017411 -0.001959 0.000000 0.000000 0.000000
# 3 -0.003552 -0.001959 0.011444 0.000000 0.000000 0.000000
# 4 0.000000 0.000000 0.000000 0.019886 0.000000 0.000000
# 5 0.000000 0.000000 0.000000 0.000000 0.077943 0.000000
# 6 0.000000 0.000000 0.000000 0.000000 0.000000 0.069936
#
#
# Mechanical properties :
#
#
# Convention : Reuss Voigt Hill
#
# Bulk Modulus (GPa) = 49.29092 49.53700 49.41396
# Shear Modulus (GPa) = 20.18589 26.33417 23.26003
#
# Velocity S-wave (km/s) = 3.54679 4.05109 3.80730
# Velocity P-wave (km/s) = 6.89135 7.26312 7.07968
#
# Compressibility (1/GPa) = 0.02028771
#
# Stress axis : x y z
#
# Youngs Moduli (GPa) = 55.94860 57.43413 87.38412
#
# Poissons Ratio (x) = 0.44279 0.31036
# Poissons Ratio (y) = 0.43133 0.17121
# Poissons Ratio (z) = 0.19871 0.11253
#
# Static dielectric constant tensor:
#      x y z
#    x 1.525090 0.000000 0.000000 
#    y 0.000000 1.516520 0.000000 
#    z 0.000000 0.000000 1.603120 
# 
# From -- ./inp_files/65384.got.cif
#   From: 2010.05.17/outbox.cif.g08.bks.cpg/sg71_33_cif.got.tgz:65384.got - 2010.06.03 16:22:01.
