data_PCOD9520560
_publ_section_title
;
Structure prediction by ZEFSAII (Michael W. Deem and Ramdas Pophale) SiO2 
 PCOD9520560
Probable space group: I M M M
;
_chemical_formula_sum "Si O2"
_cell_formula_units_Z 80
_cell_length_a 16.318156
_cell_length_b 13.322367
_cell_length_c 19.110904
_cell_angle_alpha 90.000000
_cell_angle_beta 90.000000
_cell_angle_gamma 90.000000
_cell_volume 4154.642934
_symmetry_space_group_name_H-M "I M M M"
_symmetry_group_IT_number 71
_symmetry_cell_setting 'orthorhombic'
loop_
_space_group_symop_operation_xyz
x,y,z
-x,-y,z
x,-y,-z
-x,y,-z
-x,-y,-z
x,y,-z
-x,y,z
x,-y,z
1/2+x,1/2+y,1/2+z
1/2-x,1/2-y,1/2+z
1/2+x,1/2-y,1/2-z
1/2-x,1/2+y,1/2-z
1/2-x,1/2-y,1/2-z
1/2+x,1/2+y,1/2-z
1/2-x,1/2+y,1/2+z
1/2+x,1/2-y,1/2+z
loop_
_atom_site_type_symbol
_atom_site_label
_atom_site_fract_x
_atom_site_fract_y
_atom_site_fract_z
Si Si1 0.675395 0.612267 0.274561
Si Si2 0.177506 0.186097 0.923608
Si Si3 0.593345 0.886498 0.621405
Si Si4 0.867252 0.674711 0.275319
Si Si5 0.363546 0.119273 0.924080
O O1 0.658537 0.500000 0.249670
O O2 0.648640 0.625029 0.355650
O O3 0.773468 0.632803 0.273447
O O4 0.636506 0.704937 0.233018
O O5 0.150099 0.300316 0.910428
O O6 0.275802 0.175065 0.923693
O O7 0.148191 0.151934 0.000000
O O8 0.500000 0.873664 0.596302
O O9 0.593544 0.870027 0.705408
O O10 0.620167 0.000000 0.606074
O O11 0.903883 0.646206 0.350282
O O12 0.347059 0.000000 0.922031
O O13 0.402839 0.140238 0.000000
#
# Coordination Sequence:
#
# PCOD9520560 Si02
#       5
#    16  16  16  16  16
#     4   9  16  26  44  67  86 108 138 177 228 270
#     4   9  17  28  42  61  84 110 143 181 217 257
#     4  10  20  31  43  60  85 122 160 185 210 250
#     4   9  16  27  44  64  86 111 143 181 216 260
#     4   9  16  27  47  72  93 113 137 173 227 278
#
# _framework density 19.255566999999999
#
# number of rings (size 3 to 8) (size 9 to 14) (size 15 to 20)
#    0.000    2.800    0.000    4.800    0.000    2.000 
#    0.000    1.000    0.000   17.400    0.000   16.800 
#    0.000    0.000    0.000    7.200    0.000    2.000 
#
# Total GULP energy -222862.337401 kJ/mol
# GULP energy per Si atom -5571.558435 kJ/mol
# Density = 1.921174 g / cm^3
# Si number density = 19.255567 Si / 1000 Ang^3
#
#
#
# Elastic Constant Matrix: (Units=GPa)
#
#
# Indices 1 2 3 4 5 6 
#
# 1 36.4561 31.0339 16.8560 0.0000 0.0000 0.0000
# 2 31.0339 126.3573 5.1949 0.0000 0.0000 0.0000
# 3 16.8560 5.1949 90.4525 0.0000 0.0000 0.0000
# 4 0.0000 0.0000 0.0000 14.2271 0.0000 0.0000
# 5 0.0000 0.0000 0.0000 0.0000 -16.0277 0.0000
# 6 0.0000 0.0000 0.0000 0.0000 0.0000 158.7354
#
#
#
# Elastic Compliance Matrix: (Units=1/GPa)
#
#
# Indices 1 2 3 4 5 6 
#
# 1 0.038250 -0.009123 -0.006604 0.000000 0.000000 0.000000
# 2 -0.009123 0.010109 0.001119 0.000000 0.000000 0.000000
# 3 -0.006604 0.001119 0.012222 0.000000 0.000000 0.000000
# 4 0.000000 0.000000 0.000000 0.070288 0.000000 0.000000
# 5 0.000000 0.000000 0.000000 0.000000 -0.062392 0.000000
# 6 0.000000 0.000000 0.000000 0.000000 0.000000 0.006300
#
#
# Mechanical properties :
#
#
# Convention : Reuss Voigt Hill
#
# Bulk Modulus (GPa) = 31.88200 39.93728 35.90964
# Shear Modulus (GPa) = 43.68878 44.73237 44.21058
#
# Velocity S-wave (km/s) = 4.76846 4.82507 4.79685
# Velocity P-wave (km/s) = 6.84915 7.19913 7.02632
#
# Compressibility (1/GPa) = 0.03136566
#
# Stress axis : x y z
#
# Youngs Moduli (GPa) = 26.14411 98.92546 81.82044
#
# Poissons Ratio (x) = 0.90247 0.54034
# Poissons Ratio (y) = 0.23851 -0.09160
# Poissons Ratio (z) = 0.17265 -0.11074
#
# Static dielectric constant tensor:
#      x y z
#    x 1.682950 0.000000 0.000000 
#    y 0.000000 1.646060 0.000000 
#    z 0.000000 0.000000 1.740480 
# 
# From -- ./inp_files/54005.got.cif
#   From: 2010.05.17/outbox.cif.g08.bks.cpg/sg71_28_cif.got.tgz:54005.got - 2010.06.03 16:22:01.
