data_PCOD9520736
_publ_section_title
;
Structure prediction by ZEFSAII (Michael W. Deem and Ramdas Pophale) SiO2 
 PCOD9520736
Probable space group: I M M M
;
_chemical_formula_sum "Si O2"
_cell_formula_units_Z 96
_cell_length_a 14.706337
_cell_length_b 31.954101
_cell_length_c 9.612132
_cell_angle_alpha 90.000000
_cell_angle_beta 90.000000
_cell_angle_gamma 90.000000
_cell_volume 4517.007831
_symmetry_space_group_name_H-M "I M M M"
_symmetry_group_IT_number 71
_symmetry_cell_setting 'orthorhombic'
loop_
_space_group_symop_operation_xyz
x,y,z
-x,-y,z
x,-y,-z
-x,y,-z
-x,-y,-z
x,y,-z
-x,y,z
x,-y,z
1/2+x,1/2+y,1/2+z
1/2-x,1/2-y,1/2+z
1/2+x,1/2-y,1/2-z
1/2-x,1/2+y,1/2-z
1/2-x,1/2-y,1/2-z
1/2+x,1/2+y,1/2-z
1/2-x,1/2+y,1/2+z
1/2+x,1/2-y,1/2+z
loop_
_atom_site_type_symbol
_atom_site_label
_atom_site_fract_x
_atom_site_fract_y
_atom_site_fract_z
Si Si1 0.145173 0.707713 0.658067
Si Si2 0.888861 0.046300 0.660240
Si Si3 0.610903 0.952545 0.159702
Si Si4 0.392112 0.377508 0.344012
Si Si5 0.890183 0.374157 0.158490
Si Si6 0.138337 0.784444 0.841107
O O1 0.110680 0.703609 0.500000
O O2 0.133362 0.665499 0.746027
O O3 0.105927 0.746939 0.743773
O O4 0.252658 0.716837 0.649236
O O5 0.860332 0.050478 0.500000
O O6 0.855649 0.084812 0.751900
O O7 0.000000 0.047248 0.659789
O O8 0.862855 0.000000 0.712091
O O9 0.500000 0.952246 0.159672
O O10 0.640401 0.916796 0.266173
O O11 0.638683 0.000000 0.196141
O O12 0.638984 0.943712 0.000000
O O13 0.352161 0.377310 0.500000
O O14 0.500000 0.384698 0.356185
O O15 0.382306 0.330830 0.285365
O O16 0.000000 0.375632 0.151880
O O17 0.855901 0.370003 0.000000
O O18 0.103297 0.781015 0.000000
#
# Coordination Sequence:
#
# PCOD9520736 Si02
#       6
#    16  16  16  16  16  16
#     4  10  20  34  52  70  91 124 163 199 234 280
#     4   8  14  25  41  63  93 125 153 184 224 268
#     4   8  14  26  45  69  97 127 157 190 230 279
#     4   9  17  29  47  71  96 121 150 187 230 274
#     4  10  20  32  48  72 100 127 156 196 243 285
#     4   9  19  35  51  69  95 125 158 194 236 286
#
# _framework density 21.253008000000001
#
# number of rings (size 3 to 8) (size 9 to 14) (size 15 to 20)
#    0.000    3.000    0.000    2.000    0.000    3.667 
#    0.000    5.000    0.000    1.000    0.000    2.333 
#    0.000    0.000    0.000    0.000    0.000    0.000 
#
# Total GULP energy -267847.586103 kJ/mol
# GULP energy per Si atom -5580.158044 kJ/mol
# Density = 2.120464 g / cm^3
# Si number density = 21.253008 Si / 1000 Ang^3
#
#
#
# Elastic Constant Matrix: (Units=GPa)
#
#
# Indices 1 2 3 4 5 6 
#
# 1 53.4475 -3.9116 6.1361 -0.0001 -0.0001 -0.0001
# 2 -3.9116 219.5928 136.8524 -0.0002 0.0001 -0.0001
# 3 6.1361 136.8524 152.2891 -0.0022 -0.0005 -0.0001
# 4 -0.0001 -0.0002 -0.0022 36.6418 0.0004 0.0000
# 5 -0.0001 0.0001 -0.0005 0.0004 4.6641 0.0002
# 6 -0.0001 -0.0001 -0.0001 0.0000 0.0002 26.7345
#
#
#
# Elastic Compliance Matrix: (Units=1/GPa)
#
#
# Indices 1 2 3 4 5 6 
#
# 1 0.019128 0.001866 -0.002448 0.000000 0.000000 0.000000
# 2 0.001866 0.010533 -0.009540 -0.000001 -0.000001 0.000000
# 3 -0.002448 -0.009540 0.015238 0.000001 0.000002 0.000000
# 4 0.000000 -0.000001 0.000001 0.027291 -0.000002 0.000000
# 5 0.000000 -0.000001 0.000002 -0.000002 0.214405 -0.000002
# 6 0.000000 0.000000 0.000000 0.000000 -0.000002 0.037405
#
#
# Mechanical properties :
#
#
# Convention : Reuss Voigt Hill
#
# Bulk Modulus (GPa) = 40.55983 78.16480 59.36231
# Shear Modulus (GPa) = 14.18594 32.69157 23.43876
#
# Velocity S-wave (km/s) = 2.58636 3.92626 3.32451
# Velocity P-wave (km/s) = 5.29573 7.57707 6.53670
#
# Compressibility (1/GPa) = 0.02465494
#
# Stress axis : x y z
#
# Youngs Moduli (GPa) = 52.28069 94.94241 65.62417
#
# Poissons Ratio (x) = -0.17717 0.16063
# Poissons Ratio (y) = -0.09756 0.62607
# Poissons Ratio (z) = 0.12797 0.90577
#
# Static dielectric constant tensor:
#      x y z
#    x 1.821050 0.000000 0.000000 
#    y 0.000000 1.744240 0.000000 
#    z 0.000000 0.000000 1.758740 
# 
# From -- ./inp_files/12840.got.cif
#   From: 2010.05.17/outbox.cif.g08.bks.cpg/sg71_7_cif.got.tgz:12840.got - 2010.06.03 16:22:01.
