data_PCOD9520139
_publ_section_title
;
Structure prediction by ZEFSAII (Michael W. Deem and Ramdas Pophale) SiO2 
 PCOD9520139
Probable space group: I M M M
;
_chemical_formula_sum "Si O2"
_cell_formula_units_Z 80
_cell_length_a 30.519163
_cell_length_b 7.829702
_cell_length_c 16.295317
_cell_angle_alpha 90.000000
_cell_angle_beta 90.000000
_cell_angle_gamma 90.000000
_cell_volume 3893.862980
_symmetry_space_group_name_H-M "I M M M"
_symmetry_group_IT_number 71
_symmetry_cell_setting 'orthorhombic'
loop_
_space_group_symop_operation_xyz
x,y,z
-x,-y,z
x,-y,-z
-x,y,-z
-x,-y,-z
x,y,-z
-x,y,z
x,-y,z
1/2+x,1/2+y,1/2+z
1/2-x,1/2-y,1/2+z
1/2+x,1/2-y,1/2-z
1/2-x,1/2+y,1/2-z
1/2-x,1/2-y,1/2-z
1/2+x,1/2+y,1/2-z
1/2-x,1/2+y,1/2+z
1/2+x,1/2-y,1/2+z
loop_
_atom_site_type_symbol
_atom_site_label
_atom_site_fract_x
_atom_site_fract_y
_atom_site_fract_z
Si Si1 0.573866 0.208693 0.500000
Si Si2 0.289542 0.803179 0.671071
Si Si3 0.799401 0.790158 0.405240
Si Si4 0.952603 0.704069 0.181161
Si Si5 0.174368 0.200281 0.000000
Si Si6 0.632480 0.694008 0.783738
O O1 0.553304 0.263956 0.413199
O O2 0.622515 0.281144 0.500000
O O3 0.574806 0.000000 0.500000
O O4 0.240135 0.736282 0.656101
O O5 0.307515 0.794247 0.578928
O O6 0.326036 0.702584 0.721911
O O7 0.288786 0.000000 0.698343
O O8 0.793143 0.737259 0.500000
O O9 0.845435 0.730084 0.366113
O O10 0.798363 0.000000 0.404392
O O11 0.954740 0.500000 0.176291
O O12 0.910248 0.738416 0.237343
O O13 0.000000 0.767206 0.212515
O O14 0.186720 0.000000 0.000000
O O15 0.621735 0.500000 0.803445
#
# Coordination Sequence:
#
# PCOD9520139 Si02
#       6
#     8  16  16  16   8  16
#     4  10  19  34  56  78 105 145 184 215 257 317
#     4  11  20  35  57  77 108 152 188 216 259 322
#     4   9  19  36  57  79 106 144 186 223 266 319
#     4  10  21  37  57  79 106 143 184 221 264 326
#     4  12  22  31  49  81 117 147 181 225 266 304
#     4  11  22  35  55  83 112 139 176 230 276 315
#
# _framework density 20.54515
#
# number of rings (size 3 to 8) (size 9 to 14) (size 15 to 20)
#    0.000    1.600    3.000    3.000    0.000    1.600 
#    0.000    3.000    0.000    2.400    0.000    4.200 
#    0.000    0.000    0.000    0.000    0.000    0.000 
#
# Total GULP energy -223111.708252 kJ/mol
# GULP energy per Si atom -5577.792706 kJ/mol
# Density = 2.049839 g / cm^3
# Si number density = 20.545150 Si / 1000 Ang^3
#
#
#
# Elastic Constant Matrix: (Units=GPa)
#
#
# Indices 1 2 3 4 5 6 
#
# 1 172.6405 10.8969 45.5793 0.0000 0.0000 0.0000
# 2 10.8969 44.2968 2.9147 0.0000 0.0000 0.0000
# 3 45.5793 2.9147 46.8420 0.0000 0.0000 0.0000
# 4 0.0000 0.0000 0.0000 5.6830 0.0000 0.0000
# 5 0.0000 0.0000 0.0000 0.0000 33.0807 0.0000
# 6 0.0000 0.0000 0.0000 0.0000 0.0000 15.4603
#
#
#
# Elastic Compliance Matrix: (Units=1/GPa)
#
#
# Indices 1 2 3 4 5 6 
#
# 1 0.007885 -0.001441 -0.007583 0.000000 0.000000 0.000000
# 2 -0.001441 0.022931 -0.000025 0.000000 0.000000 0.000000
# 3 -0.007583 -0.000025 0.028729 0.000000 0.000000 0.000000
# 4 0.000000 0.000000 0.000000 0.175962 0.000000 0.000000
# 5 0.000000 0.000000 0.000000 0.000000 0.030229 0.000000
# 6 0.000000 0.000000 0.000000 0.000000 0.000000 0.064682
#
#
# Mechanical properties :
#
#
# Convention : Reuss Voigt Hill
#
# Bulk Modulus (GPa) = 24.12699 42.50679 33.31689
# Shear Modulus (GPa) = 13.79950 24.47071 19.13510
#
# Velocity S-wave (km/s) = 2.59447 3.45493 3.05514
# Velocity P-wave (km/s) = 4.55455 6.05391 5.35694
#
# Compressibility (1/GPa) = 0.04144736
#
# Stress axis : x y z
#
# Youngs Moduli (GPa) = 126.81707 43.60896 34.80847
#
# Poissons Ratio (x) = 0.06283 0.26396
# Poissons Ratio (y) = 0.18272 0.00087
# Poissons Ratio (z) = 0.96167 0.00109
#
# Static dielectric constant tensor:
#      x y z
#    x 1.771460 0.000000 0.000000 
#    y 0.000000 1.737880 0.000000 
#    z 0.000000 0.000000 1.792330 
# 
# From -- ./inp_files/8435.got.cif
#   From: 2010.05.17/outbox.cif.g08.bks.cpg/sg71_5_cif.got.tgz:8435.got - 2010.06.03 16:22:01.
