data_PCOD9520837
_publ_section_title
;
Structure prediction by ZEFSAII (Michael W. Deem and Ramdas Pophale) SiO2 
 PCOD9520837
Probable space group: I M M M
;
_chemical_formula_sum "Si O2"
_cell_formula_units_Z 64
_cell_length_a 8.361541
_cell_length_b 25.145154
_cell_length_c 13.813814
_cell_angle_alpha 90.000000
_cell_angle_beta 90.000000
_cell_angle_gamma 90.000000
_cell_volume 2904.385283
_symmetry_space_group_name_H-M "I M M M"
_symmetry_group_IT_number 71
_symmetry_cell_setting 'orthorhombic'
loop_
_space_group_symop_operation_xyz
x,y,z
-x,-y,z
x,-y,-z
-x,y,-z
-x,-y,-z
x,y,-z
-x,y,z
x,-y,z
1/2+x,1/2+y,1/2+z
1/2-x,1/2-y,1/2+z
1/2+x,1/2-y,1/2-z
1/2-x,1/2+y,1/2-z
1/2-x,1/2-y,1/2-z
1/2+x,1/2+y,1/2-z
1/2-x,1/2+y,1/2+z
1/2+x,1/2-y,1/2+z
loop_
_atom_site_type_symbol
_atom_site_label
_atom_site_fract_x
_atom_site_fract_y
_atom_site_fract_z
Si Si1 0.179760 0.774214 0.618282
Si Si2 0.824220 0.500000 0.824839
Si Si3 0.000000 0.907567 0.887482
Si Si4 0.314603 0.112997 0.383781
Si Si5 0.000000 0.789030 0.119049
Si Si6 0.745869 0.000000 0.888294
O O1 0.178762 0.772640 0.500000
O O2 0.217826 0.835078 0.646793
O O3 0.333448 0.739254 0.648427
O O4 0.000000 0.757997 0.648752
O O5 0.745553 0.555800 0.853234
O O6 0.848385 0.500000 0.710408
O O7 0.000000 0.500000 0.874244
O O8 0.000000 0.849518 0.842507
O O9 0.149111 0.946699 0.875690
O O10 0.000000 0.894171 0.000000
O O11 0.319834 0.113844 0.500000
O O12 0.500000 0.116842 0.348615
O O13 0.000000 0.785697 0.000000
O O14 0.685490 0.000000 0.000000
#
# Coordination Sequence:
#
# PCOD9520837 Si02
#       6
#    16   8   8  16   8   8
#     4   9  16  27  46  77 115 149 182 220 261 319
#     4  10  20  32  52  81 106 146 185 228 277 336
#     4   8  16  33  58  78  97 132 182 234 284 342
#     4   9  16  30  50  76 114 156 188 218 259 316
#     4   9  15  28  53  81 108 145 182 218 276 335
#     4   9  18  36  56  78 102 129 178 241 291 328
#
# _framework density 22.035643
#
# number of rings (size 3 to 8) (size 9 to 14) (size 15 to 20)
#    0.000    3.000    1.250    1.125    0.000    1.750 
#    4.500    1.250    0.000    9.000    0.000    0.000 
#    0.000    0.000    0.000    0.000    0.000    0.000 
#
# Total GULP energy -178292.294718 kJ/mol
# GULP energy per Si atom -5571.634210 kJ/mol
# Density = 2.198549 g / cm^3
# Si number density = 22.035643 Si / 1000 Ang^3
#
#
#
# Elastic Constant Matrix: (Units=GPa)
#
#
# Indices 1 2 3 4 5 6 
#
# 1 137.8404 87.4045 26.7603 0.0000 0.0000 0.0000
# 2 87.4045 194.4009 20.1926 0.0000 0.0000 0.0000
# 3 26.7603 20.1926 57.7830 -0.0002 0.0000 0.0000
# 4 0.0000 0.0000 -0.0002 4.4158 0.0000 0.0000
# 5 0.0000 0.0000 0.0000 0.0000 23.9720 0.0000
# 6 0.0000 0.0000 0.0000 0.0000 0.0000 -8.7291
#
#
#
# Elastic Compliance Matrix: (Units=1/GPa)
#
#
# Indices 1 2 3 4 5 6 
#
# 1 0.010761 -0.004483 -0.003417 0.000000 0.000000 0.000000
# 2 -0.004483 0.007206 -0.000442 0.000000 0.000000 0.000000
# 3 -0.003417 -0.000442 0.019043 0.000001 0.000000 0.000000
# 4 0.000000 0.000000 0.000001 0.226462 0.000000 0.000000
# 5 0.000000 0.000000 0.000000 0.000000 0.041715 0.000000
# 6 0.000000 0.000000 0.000000 0.000000 0.000000 -0.114559
#
#
# Mechanical properties :
#
#
# Convention : Reuss Voigt Hill
#
# Bulk Modulus (GPa) = 49.19893 73.19322 61.19607
# Shear Modulus (GPa) = 23.35506 20.97620 22.16563
#
# Velocity S-wave (km/s) = 3.25911 3.08867 3.17503
# Velocity P-wave (km/s) = 6.04465 6.78290 6.42439
#
# Compressibility (1/GPa) = 0.02032565
#
# Stress axis : x y z
#
# Youngs Moduli (GPa) = 92.92824 138.78012 52.51298
#
# Poissons Ratio (x) = 0.62220 0.17943
# Poissons Ratio (y) = 0.41663 0.02320
# Poissons Ratio (z) = 0.31752 0.06131
#
# Static dielectric constant tensor:
#      x y z
#    x 1.800390 0.000000 0.000000 
#    y 0.000000 1.822090 0.000000 
#    z 0.000000 0.000000 1.825130 
# 
# From -- ./inp_files/31227.got.cif
#   From: 2010.05.17/outbox.cif.g08.bks.cpg/sg71_16_cif.got.tgz:31227.got - 2010.06.03 16:22:01.
