data_PCOD9520576
_publ_section_title
;
Structure prediction by ZEFSAII (Michael W. Deem and Ramdas Pophale) SiO2 
 PCOD9520576
Probable space group: I M M M
;
_chemical_formula_sum "Si O2"
_cell_formula_units_Z 104
_cell_length_a 24.312123
_cell_length_b 27.511394
_cell_length_c 9.519953
_cell_angle_alpha 90.000000
_cell_angle_beta 90.000000
_cell_angle_gamma 90.000000
_cell_volume 6367.519522
_symmetry_space_group_name_H-M "I M M M"
_symmetry_group_IT_number 71
_symmetry_cell_setting 'orthorhombic'
loop_
_space_group_symop_operation_xyz
x,y,z
-x,-y,z
x,-y,-z
-x,y,-z
-x,-y,-z
x,y,-z
-x,y,z
x,-y,z
1/2+x,1/2+y,1/2+z
1/2-x,1/2-y,1/2+z
1/2+x,1/2-y,1/2-z
1/2-x,1/2+y,1/2-z
1/2-x,1/2-y,1/2-z
1/2+x,1/2+y,1/2-z
1/2-x,1/2+y,1/2+z
1/2+x,1/2-y,1/2+z
loop_
_atom_site_type_symbol
_atom_site_label
_atom_site_fract_x
_atom_site_fract_y
_atom_site_fract_z
Si Si1 0.938399 0.559024 0.838403
Si Si2 0.565269 0.404904 0.834082
Si Si3 0.331428 0.942436 0.166071
Si Si4 0.305595 0.236210 0.666659
Si Si5 0.233107 0.632136 0.162634
Si Si6 0.647552 0.681245 0.834085
Si Si7 0.566990 0.500000 0.661757
O O1 0.939434 0.500000 0.837337
O O2 0.888823 0.573424 0.737997
O O3 0.000000 0.575223 0.797651
O O4 0.928089 0.573874 0.000000
O O5 0.500000 0.397791 0.811901
O O6 0.599145 0.356408 0.800598
O O7 0.583891 0.451203 0.743324
O O8 0.573540 0.415405 0.000000
O O9 0.283697 0.910995 0.236080
O O10 0.324072 0.000000 0.193222
O O11 0.333664 0.935135 0.000000
O O12 0.300311 0.246182 0.500000
O O13 0.250000 0.250000 0.750000
O O14 0.308094 0.178047 0.682600
O O15 0.350633 0.270678 0.738547
O O16 0.294603 0.652601 0.186216
O O17 0.229521 0.616686 0.000000
O O18 0.644950 0.694163 0.000000
O O19 0.500000 0.500000 0.663488
O O20 0.584941 0.500000 0.500000
#
# Coordination Sequence:
#
# PCOD9520576 Si02
#       7
#    16  16  16  16  16  16   8
#     4   8  14  26  45  66  86 113 150 186 220 263
#     4   9  17  31  51  72  97 130 166 206 250 298
#     4  10  20  31  44  66  96 126 156 192 234 279
#     4   9  17  30  50  73  94 117 151 193 236 280
#     4   9  18  32  48  67  92 124 160 196 235 287
#     4   9  18  32  50  74  97 120 160 203 244 295
#     4   9  17  29  45  67  95 127 165 205 244 289
#
# _framework density 16.332891
#
# number of rings (size 3 to 8) (size 9 to 14) (size 15 to 20)
#    0.000    3.000    0.000    2.538    0.000    5.846 
#    1.385    1.538    0.000    0.923    0.000    4.308 
#    0.000    0.000    0.000    0.000    0.000    0.000 
#
# Total GULP energy -289516.743939 kJ/mol
# GULP energy per Si atom -5567.629691 kJ/mol
# Density = 1.629572 g / cm^3
# Si number density = 16.332891 Si / 1000 Ang^3
#
#
#
# Elastic Constant Matrix: (Units=GPa)
#
#
# Indices 1 2 3 4 5 6 
#
# 1 31.8923 26.8807 28.3251 0.0000 0.0000 0.0000
# 2 26.8807 61.1689 53.6079 0.0000 0.0000 0.0000
# 3 28.3251 53.6079 72.8857 0.0000 0.0000 0.0000
# 4 0.0000 0.0000 0.0000 31.2751 0.0000 0.0000
# 5 0.0000 0.0000 0.0000 0.0000 18.5542 0.0000
# 6 0.0000 0.0000 0.0000 0.0000 0.0000 24.1135
#
#
#
# Elastic Compliance Matrix: (Units=1/GPa)
#
#
# Indices 1 2 3 4 5 6 
#
# 1 0.052077 -0.014486 -0.009584 0.000000 0.000000 0.000000
# 2 -0.014486 0.050028 -0.031166 0.000000 0.000000 0.000000
# 3 -0.009584 -0.031166 0.040367 0.000000 0.000000 0.000000
# 4 0.000000 0.000000 0.000000 0.031974 0.000000 0.000000
# 5 0.000000 0.000000 0.000000 0.000000 0.053896 0.000000
# 6 0.000000 0.000000 0.000000 0.000000 0.000000 0.041471
#
#
# Mechanical properties :
#
#
# Convention : Reuss Voigt Hill
#
# Bulk Modulus (GPa) = 31.24970 42.61936 36.93453
# Shear Modulus (GPa) = 12.78929 18.59743 15.69336
#
# Velocity S-wave (km/s) = 2.80132 3.37805 3.10311
# Velocity P-wave (km/s) = 5.44405 6.43162 5.95833
#
# Compressibility (1/GPa) = 0.03200031
#
# Stress axis : x y z
#
# Youngs Moduli (GPa) = 19.20235 19.98885 24.77247
#
# Poissons Ratio (x) = 0.28956 0.23741
# Poissons Ratio (y) = 0.27817 0.77206
# Poissons Ratio (z) = 0.18403 0.62298
#
# Static dielectric constant tensor:
#      x y z
#    x 1.560360 0.000000 0.000000 
#    y 0.000000 1.552510 0.000000 
#    z 0.000000 0.000000 1.544750 
# 
# From -- ./inp_files/13311.got.cif
#   From: 2010.05.17/outbox.cif.g08.bks.cpg/sg71_7_cif.got.tgz:13311.got - 2010.06.03 16:22:01.
