data_PCOD9520435
_publ_section_title
;
Structure prediction by ZEFSAII (Michael W. Deem and Ramdas Pophale) SiO2 
 PCOD9520435
Probable space group: I M M M
;
_chemical_formula_sum "Si O2"
_cell_formula_units_Z 120
_cell_length_a 28.557444
_cell_length_b 14.660132
_cell_length_c 15.889882
_cell_angle_alpha 90.000000
_cell_angle_beta 90.000000
_cell_angle_gamma 90.000000
_cell_volume 6652.392828
_symmetry_space_group_name_H-M "I M M M"
_symmetry_group_IT_number 71
_symmetry_cell_setting 'orthorhombic'
loop_
_space_group_symop_operation_xyz
x,y,z
-x,-y,z
x,-y,-z
-x,y,-z
-x,-y,-z
x,y,-z
-x,y,z
x,-y,z
1/2+x,1/2+y,1/2+z
1/2-x,1/2-y,1/2+z
1/2+x,1/2-y,1/2-z
1/2-x,1/2+y,1/2-z
1/2-x,1/2-y,1/2-z
1/2+x,1/2+y,1/2-z
1/2-x,1/2+y,1/2+z
1/2+x,1/2-y,1/2+z
loop_
_atom_site_type_symbol
_atom_site_label
_atom_site_fract_x
_atom_site_fract_y
_atom_site_fract_z
Si Si1 0.607427 0.757091 0.801889
Si Si2 0.325672 0.107004 0.701096
Si Si3 0.311585 0.329740 0.905198
Si Si4 0.221379 0.099768 0.231837
Si Si5 0.789318 0.244587 0.092538
Si Si6 0.057129 0.108633 0.813075
Si Si7 0.554098 0.389681 0.500000
Si Si8 0.055715 0.599508 0.595185
O O1 0.636135 0.828975 0.744761
O O2 0.642131 0.721284 0.874543
O O3 0.584591 0.673541 0.750938
O O4 0.568609 0.818009 0.846077
O O5 0.277135 0.112380 0.754605
O O6 0.312708 0.158304 0.614329
O O7 0.337507 0.000000 0.692713
O O8 0.299838 0.393900 0.825599
O O9 0.266537 0.262977 0.907358
O O10 0.315982 0.368210 0.000000
O O11 0.201655 0.176128 0.169586
O O12 0.212422 0.000000 0.195958
O O13 0.803225 0.211485 0.000000
O O14 0.073159 0.135632 0.908278
O O15 0.000000 0.119537 0.807761
O O16 0.066269 0.000000 0.800434
O O17 0.553347 0.500000 0.500000
O O18 0.500000 0.358759 0.500000
O O19 0.073688 0.612733 0.500000
O O20 0.073418 0.500000 0.625137
O O21 0.000000 0.594301 0.590624
#
# Coordination Sequence:
#
# PCOD9520435 Si02
#       8
#    16  16  16  16  16  16   8  16
#     4  12  19  32  54  83 112 134 175 226 282 313
#     4  10  20  35  54  77 107 142 181 224 272 321
#     4  10  20  34  54  77 106 142 188 229 258 313
#     4  10  19  36  56  76 108 144 178 224 276 323
#     4  10  19  37  57  76 106 147 187 220 268 329
#     4   9  19  35  56  81 109 146 183 217 267 331
#     4   7  12  30  56  76  97 129 177 217 246 310
#     4   9  19  35  53  76 106 138 173 213 262 324
#
# _framework density 18.038622
#
# number of rings (size 3 to 8) (size 9 to 14) (size 15 to 20)
#    0.000    2.200    2.667    3.200    0.000    1.333 
#    1.200    2.667    0.000    1.200    0.000    4.667 
#    0.000    4.267    0.000    0.000    0.000    0.000 
#
# Total GULP energy -334150.155909 kJ/mol
# GULP energy per Si atom -5569.169265 kJ/mol
# Density = 1.799756 g / cm^3
# Si number density = 18.038622 Si / 1000 Ang^3
#
#
#
# Elastic Constant Matrix: (Units=GPa)
#
#
# Indices 1 2 3 4 5 6 
#
# 1 44.0381 30.9933 26.2819 0.0000 0.0000 0.0000
# 2 30.9933 111.0085 60.5845 0.0000 0.0000 0.0000
# 3 26.2819 60.5845 114.5408 0.0000 0.0000 0.0000
# 4 0.0000 0.0000 0.0000 5.1254 0.0000 0.0000
# 5 0.0000 0.0000 0.0000 0.0000 14.8122 0.0000
# 6 0.0000 0.0000 0.0000 0.0000 0.0000 17.0772
#
#
#
# Elastic Compliance Matrix: (Units=1/GPa)
#
#
# Indices 1 2 3 4 5 6 
#
# 1 0.029148 -0.006309 -0.003351 0.000000 0.000000 0.000000
# 2 -0.006309 0.014030 -0.005973 0.000000 0.000000 0.000000
# 3 -0.003351 -0.005973 0.012659 0.000000 0.000000 0.000000
# 4 0.000000 0.000000 0.000000 0.195107 0.000000 0.000000
# 5 0.000000 0.000000 0.000000 0.000000 0.067512 0.000000
# 6 0.000000 0.000000 0.000000 0.000000 0.000000 0.058558
#
#
# Mechanical properties :
#
#
# Convention : Reuss Voigt Hill
#
# Bulk Modulus (GPa) = 40.70040 56.14519 48.42279
# Shear Modulus (GPa) = 12.00568 17.51814 14.76191
#
# Velocity S-wave (km/s) = 2.58263 3.11970 2.86379
# Velocity P-wave (km/s) = 5.61295 6.64600 6.15120
#
# Compressibility (1/GPa) = 0.02456979
#
# Stress axis : x y z
#
# Youngs Moduli (GPa) = 34.30801 71.27714 78.99640
#
# Poissons Ratio (x) = 0.44970 0.26471
# Poissons Ratio (y) = 0.21645 0.47186
# Poissons Ratio (z) = 0.11496 0.42575
#
# Static dielectric constant tensor:
#      x y z
#    x 1.636320 0.000000 0.000000 
#    y 0.000000 1.609150 0.000000 
#    z 0.000000 0.000000 1.639640 
# 
# From -- ./inp_files/41131.got.cif
#   From: 2010.05.17/outbox.cif.g08.bks.cpg/sg71_21_cif.got.tgz:41131.got - 2010.06.03 16:22:01.
