data_PCOD9520158
_publ_section_title
;
Structure prediction by ZEFSAII (Michael W. Deem and Ramdas Pophale) SiO2 
 PCOD9520158
Probable space group: I M M M
;
_chemical_formula_sum "Si O2"
_cell_formula_units_Z 96
_cell_length_a 14.224851
_cell_length_b 12.283743
_cell_length_c 32.384613
_cell_angle_alpha 90.000000
_cell_angle_beta 90.000000
_cell_angle_gamma 90.000000
_cell_volume 5658.706372
_symmetry_space_group_name_H-M "I M M M"
_symmetry_group_IT_number 71
_symmetry_cell_setting 'orthorhombic'
loop_
_space_group_symop_operation_xyz
x,y,z
-x,-y,z
x,-y,-z
-x,y,-z
-x,-y,-z
x,y,-z
-x,y,z
x,-y,z
1/2+x,1/2+y,1/2+z
1/2-x,1/2-y,1/2+z
1/2+x,1/2-y,1/2-z
1/2-x,1/2+y,1/2-z
1/2-x,1/2-y,1/2-z
1/2+x,1/2+y,1/2-z
1/2-x,1/2+y,1/2+z
1/2+x,1/2-y,1/2+z
loop_
_atom_site_type_symbol
_atom_site_label
_atom_site_fract_x
_atom_site_fract_y
_atom_site_fract_z
Si Si1 0.609532 0.129677 0.680902
Si Si2 0.717479 0.235077 0.845009
Si Si3 0.202982 0.000000 0.135605
Si Si4 0.886242 0.121519 0.500000
Si Si5 0.225525 0.500000 0.548635
Si Si6 0.109137 0.000000 0.217575
Si Si7 0.611503 0.722774 0.759906
Si Si8 0.612312 0.217950 0.927356
O O1 0.500000 0.150924 0.668956
O O2 0.686964 0.193693 0.654056
O O3 0.621093 0.180401 0.726717
O O4 0.624773 0.000000 0.680500
O O5 0.667333 0.256598 0.801616
O O6 0.647845 0.257061 0.882874
O O7 0.742298 0.108550 0.851172
O O8 0.196067 0.000000 0.085651
O O9 0.117700 0.000000 0.168015
O O10 0.860144 0.190048 0.460035
O O11 0.000000 0.115861 0.500000
O O12 0.848289 0.000000 0.500000
O O13 0.253516 0.500000 0.500000
O O14 0.162701 0.393419 0.558313
O O15 0.146582 0.111437 0.237722
O O16 0.000000 0.000000 0.227721
O O17 0.500000 0.712925 0.768850
O O18 0.500000 0.202216 0.927628
#
# Coordination Sequence:
#
# PCOD9520158 Si02
#       8
#    16  16   8   8   8   8  16  16
#     4  10  22  37  54  75  99 137 183 218 263 317
#     4  11  22  34  53  76 109 139 175 224 268 307
#     4  10  22  33  52  83 103 140 185 226 265 319
#     4   9  18  33  51  71 100 137 171 204 249 312
#     4  10  19  34  56  81 108 143 180 219 267 317
#     4  10  20  36  55  76 102 139 186 224 272 328
#     4  10  21  35  52  75 106 143 179 219 263 316
#     4  10  20  34  53  79 107 139 177 214 260 315
#
# _framework density 16.965008000000001
#
# number of rings (size 3 to 8) (size 9 to 14) (size 15 to 20)
#    0.000    1.917    2.500    1.250    2.333    1.000 
#    0.000    0.833    0.000    0.250    0.000    0.583 
#    0.000    2.000    0.000    0.000    0.000    0.000 
#
# Total GULP energy -267505.234236 kJ/mol
# GULP energy per Si atom -5573.025713 kJ/mol
# Density = 1.692639 g / cm^3
# Si number density = 16.965008 Si / 1000 Ang^3
#
#
#
# Elastic Constant Matrix: (Units=GPa)
#
#
# Indices 1 2 3 4 5 6 
#
# 1 35.9513 29.0856 18.3262 0.0000 0.0000 0.0000
# 2 29.0856 120.0723 41.5178 0.0000 0.0000 0.0000
# 3 18.3262 41.5178 101.5160 0.0000 0.0000 0.0000
# 4 0.0000 0.0000 0.0000 20.6402 0.0000 0.0000
# 5 0.0000 0.0000 0.0000 0.0000 25.0140 0.0000
# 6 0.0000 0.0000 0.0000 0.0000 0.0000 6.7975
#
#
#
# Elastic Compliance Matrix: (Units=1/GPa)
#
#
# Indices 1 2 3 4 5 6 
#
# 1 0.035560 -0.007447 -0.003374 0.000000 0.000000 0.000000
# 2 -0.007447 0.011260 -0.003261 0.000000 0.000000 0.000000
# 3 -0.003374 -0.003261 0.011793 0.000000 0.000000 0.000000
# 4 0.000000 0.000000 0.000000 0.048449 0.000000 0.000000
# 5 0.000000 0.000000 0.000000 0.000000 0.039978 0.000000
# 6 0.000000 0.000000 0.000000 0.000000 0.000000 0.147112
#
#
# Mechanical properties :
#
#
# Convention : Reuss Voigt Hill
#
# Bulk Modulus (GPa) = 32.84077 48.37764 40.60920
# Shear Modulus (GPa) = 15.03917 21.73102 18.38510
#
# Velocity S-wave (km/s) = 2.98061 3.58289 3.29554
# Velocity P-wave (km/s) = 5.58976 6.75975 6.20240
#
# Compressibility (1/GPa) = 0.03044996
#
# Stress axis : x y z
#
# Youngs Moduli (GPa) = 28.12128 88.81210 84.79464
#
# Poissons Ratio (x) = 0.66142 0.28607
# Poissons Ratio (y) = 0.20943 0.27648
# Poissons Ratio (z) = 0.09487 0.28958
#
# Static dielectric constant tensor:
#      x y z
#    x 1.583810 0.000000 0.000000 
#    y 0.000000 1.592520 0.000000 
#    z 0.000000 0.000000 1.570190 
# 
# From -- ./inp_files/69930.got.cif
#   From: 2010.05.17/outbox.cif.g08.bks.cpg/sg71_35_cif.got.tgz:69930.got - 2010.06.03 16:22:01.
