data_PCOD9520708
_publ_section_title
;
Structure prediction by ZEFSAII (Michael W. Deem and Ramdas Pophale) SiO2 
 PCOD9520708
Probable space group: I M M M
;
_chemical_formula_sum "Si O2"
_cell_formula_units_Z 104
_cell_length_a 33.478510
_cell_length_b 14.401689
_cell_length_c 12.945953
_cell_angle_alpha 90.000000
_cell_angle_beta 90.000000
_cell_angle_gamma 90.000000
_cell_volume 6241.853556
_symmetry_space_group_name_H-M "I M M M"
_symmetry_group_IT_number 71
_symmetry_cell_setting 'orthorhombic'
loop_
_space_group_symop_operation_xyz
x,y,z
-x,-y,z
x,-y,-z
-x,y,-z
-x,-y,-z
x,y,-z
-x,y,z
x,-y,z
1/2+x,1/2+y,1/2+z
1/2-x,1/2-y,1/2+z
1/2+x,1/2-y,1/2-z
1/2-x,1/2+y,1/2-z
1/2-x,1/2-y,1/2-z
1/2+x,1/2+y,1/2-z
1/2-x,1/2+y,1/2+z
1/2+x,1/2-y,1/2+z
loop_
_atom_site_type_symbol
_atom_site_label
_atom_site_fract_x
_atom_site_fract_y
_atom_site_fract_z
Si Si1 0.081697 0.206400 0.882273
Si Si2 0.952948 0.604727 0.823869
Si Si3 0.849980 0.748843 0.265319
Si Si4 0.198074 0.392484 0.122424
Si Si5 0.500000 0.606643 0.374704
Si Si6 0.405812 0.893251 0.881183
Si Si7 0.292686 0.393588 0.876596
O O1 0.071580 0.316083 0.880892
O O2 0.117874 0.194881 0.803397
O O3 0.040979 0.157186 0.844278
O O4 0.090409 0.176786 0.000000
O O5 0.942584 0.500000 0.856463
O O6 0.941308 0.613327 0.702826
O O7 0.000000 0.618394 0.840056
O O8 0.827072 0.678838 0.189053
O O9 0.873705 0.683289 0.346061
O O10 0.819526 0.818598 0.319421
O O11 0.187811 0.500000 0.145859
O O12 0.245395 0.380192 0.142952
O O13 0.191569 0.378199 0.000000
O O14 0.500000 0.500000 0.341308
O O15 0.500000 0.609349 0.500000
O O16 0.390362 0.000000 0.872698
O O17 0.417948 0.879163 0.000000
O O18 0.302605 0.500000 0.846899
O O19 0.298343 0.385754 0.000000
#
# Coordination Sequence:
#
# PCOD9520708 Si02
#       7
#    16  16  16  16   8  16  16
#     4  10  20  32  47  70  99 126 160 201 243 290
#     4   9  17  29  46  67  92 123 160 198 240 290
#     4  11  19  30  51  76  99 126 166 208 250 288
#     4   9  18  33  52  75 104 135 164 196 242 303
#     4   9  18  34  51  63  84 123 163 195 233 280
#     4   9  18  30  43  65  97 128 159 198 246 297
#     4   9  19  35  53  73  98 130 168 208 250 298
#
# _framework density 16.661718
#
# number of rings (size 3 to 8) (size 9 to 14) (size 15 to 20)
#    0.000    2.538    0.769    2.769    0.000    1.846 
#    0.000    2.308    0.000    1.385    0.000    8.615 
#    0.000    4.923    0.000    0.000    0.000    0.000 
#
# Total GULP energy -289884.693835 kJ/mol
# GULP energy per Si atom -5574.705651 kJ/mol
# Density = 1.662380 g / cm^3
# Si number density = 16.661718 Si / 1000 Ang^3
#
#
#
# Elastic Constant Matrix: (Units=GPa)
#
#
# Indices 1 2 3 4 5 6 
#
# 1 47.2230 22.7157 15.8919 0.0000 0.0000 0.0000
# 2 22.7157 45.7530 7.6407 0.0000 0.0000 0.0000
# 3 15.8919 7.6407 46.1692 0.0000 0.0000 0.0000
# 4 0.0000 0.0000 0.0000 22.3870 0.0000 0.0000
# 5 0.0000 0.0000 0.0000 0.0000 18.5410 0.0000
# 6 0.0000 0.0000 0.0000 0.0000 0.0000 17.4378
#
#
#
# Elastic Compliance Matrix: (Units=1/GPa)
#
#
# Indices 1 2 3 4 5 6 
#
# 1 0.030596 -0.013813 -0.008245 0.000000 0.000000 0.000000
# 2 -0.013813 0.028714 0.000003 0.000000 0.000000 0.000000
# 3 -0.008245 0.000003 0.024497 0.000000 0.000000 0.000000
# 4 0.000000 0.000000 0.000000 0.044669 0.000000 0.000000
# 5 0.000000 0.000000 0.000000 0.000000 0.053934 0.000000
# 6 0.000000 0.000000 0.000000 0.000000 0.000000 0.057347
#
#
# Mechanical properties :
#
#
# Convention : Reuss Voigt Hill
#
# Bulk Modulus (GPa) = 25.19209 25.73799 25.46504
# Shear Modulus (GPa) = 16.82935 17.86630 17.34782
#
# Velocity S-wave (km/s) = 3.18159 3.27815 3.23023
# Velocity P-wave (km/s) = 5.35250 5.45978 5.40641
#
# Compressibility (1/GPa) = 0.03969500
#
# Stress axis : x y z
#
# Youngs Moduli (GPa) = 32.68452 34.82604 40.82106
#
# Poissons Ratio (x) = 0.48106 0.33658
# Poissons Ratio (y) = 0.45148 -0.00011
# Poissons Ratio (z) = 0.26949 -0.00009
#
# Static dielectric constant tensor:
#      x y z
#    x 1.552090 0.000000 0.000000 
#    y 0.000000 1.557600 0.000000 
#    z 0.000000 0.000000 1.552030 
# 
# From -- ./inp_files/30029.got.cif
#   From: 2010.05.17/outbox.cif.g08.bks.cpg/sg71_16_cif.got.tgz:30029.got - 2010.06.03 16:22:01.
