data_PCOD9520734
_publ_section_title
;
Structure prediction by ZEFSAII (Michael W. Deem and Ramdas Pophale) SiO2 
 PCOD9520734
Probable space group: I M M M
;
_chemical_formula_sum "Si O2"
_cell_formula_units_Z 80
_cell_length_a 30.197418
_cell_length_b 15.403603
_cell_length_c 7.486491
_cell_angle_alpha 90.000000
_cell_angle_beta 90.000000
_cell_angle_gamma 90.000000
_cell_volume 3482.334090
_symmetry_space_group_name_H-M "I M M M"
_symmetry_group_IT_number 71
_symmetry_cell_setting 'orthorhombic'
loop_
_space_group_symop_operation_xyz
x,y,z
-x,-y,z
x,-y,-z
-x,y,-z
-x,-y,-z
x,y,-z
-x,y,z
x,-y,z
1/2+x,1/2+y,1/2+z
1/2-x,1/2-y,1/2+z
1/2+x,1/2-y,1/2-z
1/2-x,1/2+y,1/2-z
1/2-x,1/2-y,1/2-z
1/2+x,1/2+y,1/2-z
1/2-x,1/2+y,1/2+z
1/2+x,1/2-y,1/2+z
loop_
_atom_site_type_symbol
_atom_site_label
_atom_site_fract_x
_atom_site_fract_y
_atom_site_fract_z
Si Si1 0.049323 0.717958 0.714609
Si Si2 0.825248 0.097488 0.208695
Si Si3 0.644119 0.220069 0.286228
Si Si4 0.723550 0.900753 0.716044
Si Si5 0.053221 0.908725 0.293406
O O1 0.046067 0.724941 0.500000
O O2 0.096637 0.674735 0.750657
O O3 0.058570 0.814646 0.791349
O O4 0.000000 0.688208 0.774901
O O5 0.850811 0.180919 0.285288
O O6 0.773090 0.119561 0.220513
O O7 0.830809 0.000000 0.286498
O O8 0.837110 0.091650 0.000000
O O9 0.648561 0.225337 0.500000
O O10 0.685448 0.163634 0.219847
O O11 0.724656 0.897669 0.500000
O O12 0.713850 0.000000 0.769050
O O13 0.068245 0.906856 0.500000
O O14 0.000000 0.914431 0.299940
O O15 0.069525 0.000000 0.212778
#
# Coordination Sequence:
#
# PCOD9520734 Si02
#       5
#    16  16  16  16  16
#     4   9  18  31  46  66  92 123 162 205 241 275
#     4   9  18  32  49  72 103 132 155 184 228 285
#     4  10  20  32  48  71  98 128 159 193 237 286
#     4   9  18  33  52  73  96 122 157 200 239 278
#     4   7  10  19  36  56  78 106 142 184 225 260
#
# _framework density 22.973098
#
# number of rings (size 3 to 8) (size 9 to 14) (size 15 to 20)
#    0.000    3.200    0.000    2.400    0.000    2.800 
#    0.000    0.000    0.000    0.600    0.000    9.800 
#    0.000    0.000    0.000    0.000    0.000    0.000 
#
# Total GULP energy -222843.132777 kJ/mol
# GULP energy per Si atom -5571.078319 kJ/mol
# Density = 2.292081 g / cm^3
# Si number density = 22.973098 Si / 1000 Ang^3
#
#
#
# Elastic Constant Matrix: (Units=GPa)
#
#
# Indices 1 2 3 4 5 6 
#
# 1 190.5717 50.4042 -1.0503 0.0000 0.0000 0.0000
# 2 50.4042 36.6428 7.1357 0.0000 0.0000 0.0000
# 3 -1.0503 7.1357 70.4568 0.0000 0.0000 0.0000
# 4 0.0000 0.0000 0.0000 -23.5625 0.0000 0.0000
# 5 0.0000 0.0000 0.0000 0.0000 18.1966 0.0000
# 6 0.0000 0.0000 0.0000 0.0000 0.0000 3.0484
#
#
#
# Elastic Compliance Matrix: (Units=1/GPa)
#
#
# Indices 1 2 3 4 5 6 
#
# 1 0.008366 -0.011764 0.001316 0.000000 0.000000 0.000000
# 2 -0.011764 0.044383 -0.004670 0.000000 0.000000 0.000000
# 3 0.001316 -0.004670 0.014686 0.000000 0.000000 0.000000
# 4 0.000000 0.000000 0.000000 -0.042440 0.000000 0.000000
# 5 0.000000 0.000000 0.000000 0.000000 0.054955 0.000000
# 6 0.000000 0.000000 0.000000 0.000000 0.000000 0.328043
#
#
# Mechanical properties :
#
#
# Convention : Reuss Voigt Hill
#
# Bulk Modulus (GPa) = 26.88362 45.62780 36.25571
# Shear Modulus (GPa) = 11.09560 15.61526 13.35543
#
# Velocity S-wave (km/s) = 2.20007 2.60997 2.41374
# Velocity P-wave (km/s) = 4.26396 5.38397 4.85636
#
# Compressibility (1/GPa) = 0.03719737
#
# Stress axis : x y z
#
# Youngs Moduli (GPa) = 119.52850 22.53129 68.09338
#
# Poissons Ratio (x) = 0.26507 -0.08962
# Poissons Ratio (y) = 1.40619 0.31802
# Poissons Ratio (z) = -0.15732 0.10523
#
# Static dielectric constant tensor:
#      x y z
#    x 1.897860 0.000000 0.000000 
#    y 0.000000 1.915940 0.000000 
#    z 0.000000 0.000000 1.861500 
# 
# From -- ./inp_files/14548.got.cif
#   From: 2010.05.17/outbox.cif.g08.bks.cpg/sg71_8_cif.got.tgz:14548.got - 2010.06.03 16:22:01.
