data_PCOD9520155
_publ_section_title
;
Structure prediction by ZEFSAII (Michael W. Deem and Ramdas Pophale) SiO2 
 PCOD9520155
Probable space group: I M M M
;
_chemical_formula_sum "Si O2"
_cell_formula_units_Z 96
_cell_length_a 29.421385
_cell_length_b 20.149722
_cell_length_c 9.268504
_cell_angle_alpha 90.000000
_cell_angle_beta 90.000000
_cell_angle_gamma 90.000000
_cell_volume 5494.672516
_symmetry_space_group_name_H-M "I M M M"
_symmetry_group_IT_number 71
_symmetry_cell_setting 'orthorhombic'
loop_
_space_group_symop_operation_xyz
x,y,z
-x,-y,z
x,-y,-z
-x,y,-z
-x,-y,-z
x,y,-z
-x,y,z
x,-y,z
1/2+x,1/2+y,1/2+z
1/2-x,1/2-y,1/2+z
1/2+x,1/2-y,1/2-z
1/2-x,1/2+y,1/2-z
1/2-x,1/2-y,1/2-z
1/2+x,1/2+y,1/2-z
1/2-x,1/2+y,1/2+z
1/2+x,1/2-y,1/2+z
loop_
_atom_site_type_symbol
_atom_site_label
_atom_site_fract_x
_atom_site_fract_y
_atom_site_fract_z
Si Si1 0.591775 0.195428 0.328036
Si Si2 0.635721 0.577916 0.173297
Si Si3 0.945560 0.574550 0.662514
Si Si4 0.447330 0.325519 0.826499
Si Si5 0.195921 0.309439 0.167815
Si Si6 0.717996 0.347766 0.667554
O O1 0.590546 0.205532 0.500000
O O2 0.567555 0.128622 0.278679
O O3 0.569077 0.258298 0.250374
O O4 0.644140 0.185707 0.282565
O O5 0.632497 0.500000 0.209161
O O6 0.589250 0.617283 0.210670
O O7 0.678656 0.611862 0.251113
O O8 0.641714 0.583694 0.000000
O O9 0.930085 0.593476 0.500000
O O10 0.928866 0.500000 0.693819
O O11 0.000000 0.571881 0.657551
O O12 0.500000 0.340528 0.788926
O O13 0.445580 0.316305 0.000000
O O14 0.232674 0.350541 0.258025
O O15 0.206203 0.230676 0.175287
O O16 0.199226 0.329142 0.000000
O O17 0.780354 0.132918 0.000000
#
# Coordination Sequence:
#
# PCOD9520155 Si02
#       6
#    16  16  16  16  16  16
#     4  11  21  34  54  83 114 143 177 224 277 326
#     4  10  21  37  57  80 110 149 189 232 283 332
#     4   9  19  36  55  75 104 143 183 221 264 318
#     4  10  21  36  55  80 110 146 190 235 277 326
#     4   9  19  34  53  79 110 139 173 217 267 321
#     4  10  19  34  56  81 106 137 178 221 266 321
#
# _framework density 17.47147
#
# number of rings (size 3 to 8) (size 9 to 14) (size 15 to 20)
#    0.000    2.167    1.667    2.000    0.000    5.667 
#    0.000    3.333    0.000    1.000    0.000    2.333 
#    0.000    0.000    0.000    0.000    0.000    0.000 
#
# Total GULP energy -267645.811701 kJ/mol
# GULP energy per Si atom -5575.954410 kJ/mol
# Density = 1.743170 g / cm^3
# Si number density = 17.471470 Si / 1000 Ang^3
#
#
#
# Elastic Constant Matrix: (Units=GPa)
#
#
# Indices 1 2 3 4 5 6 
#
# 1 124.7753 54.3615 52.4678 0.0000 0.0000 0.0000
# 2 54.3615 73.6930 39.2941 0.0000 0.0000 0.0000
# 3 52.4678 39.2941 43.8416 0.0000 0.0000 0.0000
# 4 0.0000 0.0000 0.0000 14.6028 0.0000 0.0000
# 5 0.0000 0.0000 0.0000 0.0000 27.5074 0.0000
# 6 0.0000 0.0000 0.0000 0.0000 0.0000 -53.5419
#
#
#
# Elastic Compliance Matrix: (Units=1/GPa)
#
#
# Indices 1 2 3 4 5 6 
#
# 1 0.016506 -0.003147 -0.016933 0.000000 0.000000 0.000000
# 2 -0.003147 0.026591 -0.020067 0.000000 0.000000 0.000000
# 3 -0.016933 -0.020067 0.061059 0.000000 0.000000 0.000000
# 4 0.000000 0.000000 0.000000 0.068480 0.000000 0.000000
# 5 0.000000 0.000000 0.000000 0.000000 0.036354 0.000000
# 6 0.000000 0.000000 0.000000 0.000000 0.000000 -0.018677
#
#
# Mechanical properties :
#
#
# Convention : Reuss Voigt Hill
#
# Bulk Modulus (GPa) = 41.90597 59.39517 50.65057
# Shear Modulus (GPa) = 17.94947 4.12608 11.03778
#
# Velocity S-wave (km/s) = 3.20872 1.53842 2.51621
# Velocity P-wave (km/s) = 6.14535 6.10123 6.12333
#
# Compressibility (1/GPa) = 0.02386295
#
# Stress axis : x y z
#
# Youngs Moduli (GPa) = 60.58523 37.60648 16.37766
#
# Poissons Ratio (x) = 0.11835 0.27732
# Poissons Ratio (y) = 0.19067 0.32864
# Poissons Ratio (z) = 1.02587 0.75463
#
# Static dielectric constant tensor:
#      x y z
#    x 1.606300 0.000000 0.000000 
#    y 0.000000 1.573950 0.000000 
#    z 0.000000 0.000000 1.590660 
# 
# From -- ./inp_files/10896.got.cif
#   From: 2010.05.17/outbox.cif.g08.bks.cpg/sg71_6_cif.got.tgz:10896.got - 2010.06.03 16:22:01.
