data_PCOD9520377
_publ_section_title
;
Structure prediction by ZEFSAII (Michael W. Deem and Ramdas Pophale) SiO2 
 PCOD9520377
Probable space group: I M M M
;
_chemical_formula_sum "Si O2"
_cell_formula_units_Z 72
_cell_length_a 11.364356
_cell_length_b 16.388589
_cell_length_c 22.570833
_cell_angle_alpha 90.000000
_cell_angle_beta 90.000000
_cell_angle_gamma 90.000000
_cell_volume 4203.721940
_symmetry_space_group_name_H-M "I M M M"
_symmetry_group_IT_number 71
_symmetry_cell_setting 'orthorhombic'
loop_
_space_group_symop_operation_xyz
x,y,z
-x,-y,z
x,-y,-z
-x,y,-z
-x,-y,-z
x,y,-z
-x,y,z
x,-y,z
1/2+x,1/2+y,1/2+z
1/2-x,1/2-y,1/2+z
1/2+x,1/2-y,1/2-z
1/2-x,1/2+y,1/2-z
1/2-x,1/2-y,1/2-z
1/2+x,1/2+y,1/2-z
1/2-x,1/2+y,1/2+z
1/2+x,1/2-y,1/2+z
loop_
_atom_site_type_symbol
_atom_site_label
_atom_site_fract_x
_atom_site_fract_y
_atom_site_fract_z
Si Si1 0.862359 0.902798 0.726943
Si Si2 0.860633 0.590665 0.000000
Si Si3 0.642568 0.500000 0.567797
Si Si4 0.140812 0.838464 0.859087
Si Si5 0.000000 0.905185 0.429791
Si Si6 0.258807 0.331337 0.112948
O O1 0.843209 0.859806 0.789951
O O2 0.769551 0.873658 0.677569
O O3 0.000000 0.885619 0.709735
O O4 0.853639 0.000000 0.734765
O O5 0.823246 0.632640 0.061278
O O6 0.805994 0.500000 0.000000
O O7 0.000000 0.585579 0.000000
O O8 0.500000 0.500000 0.566773
O O9 0.684437 0.500000 0.500000
O O10 0.675251 0.581940 0.602826
O O11 0.217931 0.760996 0.877233
O O12 0.000000 0.822946 0.868490
O O13 0.112858 0.853176 0.411791
O O14 0.000000 0.913184 0.500000
O O15 0.000000 0.000000 0.405852
#
# Coordination Sequence:
#
# PCOD9520377 Si02
#       6
#    16   8   8  16   8  16
#     4  10  19  35  59  85 114 151 195 246 295 339
#     4  11  24  39  55  82 122 156 184 231 300 362
#     4   9  18  34  58  83 115 154 191 235 291 342
#     4  10  21  37  57  88 120 149 192 245 295 348
#     4  11  22  38  58  85 115 151 199 244 283 344
#     4  12  22  35  58  87 115 152 194 243 288 345
#
# _framework density 17.127678
#
# number of rings (size 3 to 8) (size 9 to 14) (size 15 to 20)
#    0.000    1.444    3.333    3.333    1.556    0.000 
#    0.000    0.000    0.000    0.667    0.000    1.556 
#    0.000    0.000    0.000    0.000    0.000    0.000 
#
# Total GULP energy -200676.695916 kJ/mol
# GULP energy per Si atom -5574.352664 kJ/mol
# Density = 1.708869 g / cm^3
# Si number density = 17.127678 Si / 1000 Ang^3
#
#
#
# Elastic Constant Matrix: (Units=GPa)
#
#
# Indices 1 2 3 4 5 6 
#
# 1 72.6166 57.3882 42.6888 0.0000 0.0000 0.0000
# 2 57.3882 162.0959 78.7083 0.0000 0.0000 0.0000
# 3 42.6888 78.7083 137.9690 0.0000 0.0000 0.0000
# 4 0.0000 0.0000 0.0000 21.9050 0.0000 0.0000
# 5 0.0000 0.0000 0.0000 0.0000 3.9773 0.0000
# 6 0.0000 0.0000 0.0000 0.0000 0.0000 35.8588
#
#
#
# Elastic Compliance Matrix: (Units=1/GPa)
#
#
# Indices 1 2 3 4 5 6 
#
# 1 0.019962 -0.005627 -0.002966 0.000000 0.000000 0.000000
# 2 -0.005627 0.010119 -0.004032 0.000000 0.000000 0.000000
# 3 -0.002966 -0.004032 0.010466 0.000000 0.000000 0.000000
# 4 0.000000 0.000000 0.000000 0.045652 0.000000 0.000000
# 5 0.000000 0.000000 0.000000 0.000000 0.251428 0.000000
# 6 0.000000 0.000000 0.000000 0.000000 0.000000 0.027887
#
#
# Mechanical properties :
#
#
# Convention : Reuss Voigt Hill
#
# Bulk Modulus (GPa) = 65.37345 81.13911 73.25628
# Shear Modulus (GPa) = 12.63068 25.27462 18.95265
#
# Velocity S-wave (km/s) = 2.71854 3.84560 3.33010
# Velocity P-wave (km/s) = 6.93578 8.19720 7.59273
#
# Compressibility (1/GPa) = 0.01529673
#
# Stress axis : x y z
#
# Youngs Moduli (GPa) = 50.09626 98.82467 95.54964
#
# Poissons Ratio (x) = 0.55607 0.28343
# Poissons Ratio (y) = 0.28188 0.38522
# Poissons Ratio (z) = 0.14860 0.39843
#
# Static dielectric constant tensor:
#      x y z
#    x 1.582610 0.000000 0.000000 
#    y 0.000000 1.560660 0.000000 
#    z 0.000000 0.000000 1.623120 
# 
# From -- ./inp_files/58630.got.cif
#   From: 2010.05.17/outbox.cif.g08.bks.cpg/sg71_30_cif.got.tgz:58630.got - 2010.06.03 16:22:01.
