data_PCOD9520859
_publ_section_title
;
Structure prediction by ZEFSAII (Michael W. Deem and Ramdas Pophale) SiO2 
 PCOD9520859
Probable space group: I M M M
;
_chemical_formula_sum "Si O2"
_cell_formula_units_Z 80
_cell_length_a 13.556306
_cell_length_b 19.078238
_cell_length_c 18.273174
_cell_angle_alpha 90.000000
_cell_angle_beta 90.000000
_cell_angle_gamma 90.000000
_cell_volume 4725.998891
_symmetry_space_group_name_H-M "I M M M"
_symmetry_group_IT_number 71
_symmetry_cell_setting 'orthorhombic'
loop_
_space_group_symop_operation_xyz
x,y,z
-x,-y,z
x,-y,-z
-x,y,-z
-x,-y,-z
x,y,-z
-x,y,z
x,-y,z
1/2+x,1/2+y,1/2+z
1/2-x,1/2-y,1/2+z
1/2+x,1/2-y,1/2-z
1/2-x,1/2+y,1/2-z
1/2-x,1/2-y,1/2-z
1/2+x,1/2+y,1/2-z
1/2-x,1/2+y,1/2+z
1/2+x,1/2-y,1/2+z
loop_
_atom_site_type_symbol
_atom_site_label
_atom_site_fract_x
_atom_site_fract_y
_atom_site_fract_z
Si Si1 0.806619 0.843236 0.417030
Si Si2 0.890694 0.915834 0.276051
Si Si3 0.113099 0.582450 0.868857
Si Si4 0.312485 0.082423 0.795711
Si Si5 0.384350 0.809741 0.084248
O O1 0.839935 0.857746 0.500000
O O2 0.868102 0.883418 0.355163
O O3 0.694618 0.869844 0.407337
O O4 0.821238 0.760644 0.403938
O O5 0.800494 0.896642 0.222934
O O6 0.000000 0.895287 0.250983
O O7 0.886822 0.000000 0.282888
O O8 0.132157 0.500000 0.885579
O O9 0.129948 0.590375 0.781394
O O10 0.000000 0.598203 0.887672
O O11 0.355974 0.130692 0.858514
O O12 0.315815 0.000000 0.815061
O O13 0.500000 0.791415 0.092789
O O14 0.369859 0.832685 0.000000
#
# Coordination Sequence:
#
# PCOD9520859 Si02
#       5
#    16  16  16  16  16
#     4  10  20  33  47  68 102 136 165 200 241 286
#     4   9  18  32  51  75  99 126 162 200 240 288
#     4   9  18  32  51  76 103 132 167 204 242 285
#     4   9  18  34  54  74  98 126 160 206 253 297
#     4  10  21  35  51  73 100 129 161 201 250 297
#
# _framework density 16.927638000000002
#
# number of rings (size 3 to 8) (size 9 to 14) (size 15 to 20)
#    0.000    2.600    0.000    3.000    0.000    8.000 
#    0.000    6.000    0.000    1.800    0.000    2.800 
#    0.000    0.000    0.000    0.000    0.000    0.000 
#
# Total GULP energy -223037.512765 kJ/mol
# GULP energy per Si atom -5575.937819 kJ/mol
# Density = 1.688911 g / cm^3
# Si number density = 16.927638 Si / 1000 Ang^3
#
#
#
# Elastic Constant Matrix: (Units=GPa)
#
#
# Indices 1 2 3 4 5 6 
#
# 1 80.3161 35.0251 14.3719 0.0000 0.0000 0.0000
# 2 35.0251 51.3320 39.5976 0.0000 0.0000 0.0000
# 3 14.3719 39.5976 50.8297 0.0000 0.0000 0.0000
# 4 0.0000 0.0000 0.0000 26.0508 0.0000 0.0000
# 5 0.0000 0.0000 0.0000 0.0000 13.9245 0.0000
# 6 0.0000 0.0000 0.0000 0.0000 0.0000 24.4000
#
#
#
# Elastic Compliance Matrix: (Units=1/GPa)
#
#
# Indices 1 2 3 4 5 6 
#
# 1 0.020605 -0.023969 0.012847 0.000000 0.000000 0.000000
# 2 -0.023969 0.076700 -0.052974 0.000000 0.000000 0.000000
# 3 0.012847 -0.052974 0.057309 0.000000 0.000000 0.000000
# 4 0.000000 0.000000 0.000000 0.038386 0.000000 0.000000
# 5 0.000000 0.000000 0.000000 0.000000 0.071816 0.000000
# 6 0.000000 0.000000 0.000000 0.000000 0.000000 0.040984
#
#
# Mechanical properties :
#
#
# Convention : Reuss Voigt Hill
#
# Bulk Modulus (GPa) = 37.84865 40.05189 38.95027
# Shear Modulus (GPa) = 11.29177 19.10728 15.19953
#
# Velocity S-wave (km/s) = 2.58556 3.36335 2.99977
# Velocity P-wave (km/s) = 5.59652 6.22855 5.92098
#
# Compressibility (1/GPa) = 0.02642102
#
# Stress axis : x y z
#
# Youngs Moduli (GPa) = 48.53274 13.03780 17.44913
#
# Poissons Ratio (x) = 0.31250 -0.22416
# Poissons Ratio (y) = 1.16328 0.92435
# Poissons Ratio (z) = -0.62348 0.69067
#
# Static dielectric constant tensor:
#      x y z
#    x 1.597050 0.000000 0.000000 
#    y 0.000000 1.548470 0.000000 
#    z 0.000000 0.000000 1.551140 
# 
# From -- ./inp_files/34263.got.cif
#   From: 2010.05.17/outbox.cif.g08.bks.cpg/sg71_18_cif.got.tgz:34263.got - 2010.06.03 16:22:01.
