data_PCOD9520080
_publ_section_title
;
Structure prediction by ZEFSAII (Michael W. Deem and Ramdas Pophale) SiO2 
 PCOD9520080
Probable space group: I M M M
;
_chemical_formula_sum "Si O2"
_cell_formula_units_Z 104
_cell_length_a 22.743915
_cell_length_b 7.460546
_cell_length_c 28.372947
_cell_angle_alpha 90.000000
_cell_angle_beta 90.000000
_cell_angle_gamma 90.000000
_cell_volume 4814.379076
_symmetry_space_group_name_H-M "I M M M"
_symmetry_group_IT_number 71
_symmetry_cell_setting 'orthorhombic'
loop_
_space_group_symop_operation_xyz
x,y,z
-x,-y,z
x,-y,-z
-x,y,-z
-x,-y,-z
x,y,-z
-x,y,z
x,-y,z
1/2+x,1/2+y,1/2+z
1/2-x,1/2-y,1/2+z
1/2+x,1/2-y,1/2-z
1/2-x,1/2+y,1/2-z
1/2-x,1/2-y,1/2-z
1/2+x,1/2+y,1/2-z
1/2-x,1/2+y,1/2+z
1/2+x,1/2-y,1/2+z
loop_
_atom_site_type_symbol
_atom_site_label
_atom_site_fract_x
_atom_site_fract_y
_atom_site_fract_z
Si Si1 0.892088 0.780325 0.886473
Si Si2 0.000000 0.781211 0.947913
Si Si3 0.771647 0.287512 0.802018
Si Si4 0.175835 0.293420 0.620455
Si Si5 0.403673 0.699142 0.287770
Si Si6 0.276709 0.719306 0.554943
Si Si7 0.066568 0.288206 0.319447
O O1 0.940077 0.726825 0.924011
O O2 0.920842 0.712430 0.837048
O O3 0.828564 0.725387 0.908254
O O4 0.890346 0.000000 0.883033
O O5 0.000000 0.000000 0.947285
O O6 0.000000 0.715798 0.000000
O O7 0.778313 0.500000 0.809819
O O8 0.750000 0.250000 0.750000
O O9 0.724350 0.212300 0.838067
O O10 0.834683 0.196255 0.800967
O O11 0.162371 0.500000 0.608666
O O12 0.213477 0.219719 0.576256
O O13 0.116759 0.214733 0.644892
O O14 0.428655 0.500000 0.285049
O O15 0.413869 0.773976 0.235607
O O16 0.285654 0.771574 0.500000
O O17 0.276930 0.500000 0.555682
O O18 0.063714 0.500000 0.328789
O O19 0.000000 0.215891 0.324468
#
# Coordination Sequence:
#
# PCOD9520080 Si02
#       7
#    16   8  16  16  16  16  16
#     4   9  17  27  42  69 104 137 172 215 263 309
#     4   9  16  26  40  62  99 143 179 215 262 307
#     4  12  22  33  52  78 107 139 172 211 259 313
#     4  10  19  34  54  77 105 137 177 224 270 320
#     4  11  21  33  51  77 108 140 175 219 264 312
#     4   9  16  28  49  76 102 131 173 223 273 319
#     4  10  22  37  52  72 104 146 184 219 267 325
#
# _framework density 21.601956000000001
#
# number of rings (size 3 to 8) (size 9 to 14) (size 15 to 20)
#    0.000    1.923    3.077    2.308    1.077    2.154 
#    0.000    0.000    0.000    0.923    0.000    3.231 
#    0.000    2.462    0.000    2.769    0.000    3.077 
#
# Total GULP energy -289689.681829 kJ/mol
# GULP energy per Si atom -5570.955420 kJ/mol
# Density = 2.155279 g / cm^3
# Si number density = 21.601956 Si / 1000 Ang^3
#
#
#
# Elastic Constant Matrix: (Units=GPa)
#
#
# Indices 1 2 3 4 5 6 
#
# 1 140.8964 6.0423 35.3539 0.0000 0.0000 0.0000
# 2 6.0423 77.9607 3.1716 0.0000 0.0000 0.0000
# 3 35.3539 3.1716 88.8394 0.0000 0.0000 0.0000
# 4 0.0000 0.0000 0.0000 6.9343 0.0000 0.0000
# 5 0.0000 0.0000 0.0000 0.0000 38.1023 0.0000
# 6 0.0000 0.0000 0.0000 0.0000 0.0000 0.6301
#
#
#
# Elastic Compliance Matrix: (Units=1/GPa)
#
#
# Indices 1 2 3 4 5 6 
#
# 1 0.007903 -0.000485 -0.003128 0.000000 0.000000 0.000000
# 2 -0.000485 0.012875 -0.000267 0.000000 0.000000 0.000000
# 3 -0.003128 -0.000267 0.012510 0.000000 0.000000 0.000000
# 4 0.000000 0.000000 0.000000 0.144210 0.000000 0.000000
# 5 0.000000 0.000000 0.000000 0.000000 0.026245 0.000000
# 6 0.000000 0.000000 0.000000 0.000000 0.000000 1.587116
#
#
# Mechanical properties :
#
#
# Convention : Reuss Voigt Hill
#
# Bulk Modulus (GPa) = 39.16980 44.09244 41.63112
# Shear Modulus (GPa) = 2.76682 26.67525 14.72103
#
# Velocity S-wave (km/s) = 1.13296 3.51786 2.61333
# Velocity P-wave (km/s) = 4.45908 6.07915 5.33101
#
# Compressibility (1/GPa) = 0.02552987
#
# Stress axis : x y z
#
# Youngs Moduli (GPa) = 126.53368 77.66734 79.93306
#
# Poissons Ratio (x) = 0.03769 0.25001
# Poissons Ratio (y) = 0.06140 0.02131
# Poissons Ratio (z) = 0.39576 0.02070
#
# Static dielectric constant tensor:
#      x y z
#    x 1.795240 0.000000 0.000000 
#    y 0.000000 1.862800 0.000000 
#    z 0.000000 0.000000 0.765350 
# 
# From -- ./inp_files/70734.got.cif
#   From: 2010.05.17/outbox.cif.g08.bks.cpg/sg71_36_cif.got.tgz:70734.got - 2010.06.03 16:22:01.
