data_PCOD9520758
_publ_section_title
;
Structure prediction by ZEFSAII (Michael W. Deem and Ramdas Pophale) SiO2 
 PCOD9520758
Probable space group: I M M M
;
_chemical_formula_sum "Si O2"
_cell_formula_units_Z 116
_cell_length_a 30.555528
_cell_length_b 7.779423
_cell_length_c 24.402926
_cell_angle_alpha 90.000000
_cell_angle_beta 90.000000
_cell_angle_gamma 90.000000
_cell_volume 5800.682329
_symmetry_space_group_name_H-M "I M M M"
_symmetry_group_IT_number 71
_symmetry_cell_setting 'orthorhombic'
loop_
_space_group_symop_operation_xyz
x,y,z
-x,-y,z
x,-y,-z
-x,y,-z
-x,-y,-z
x,y,-z
-x,y,z
x,-y,z
1/2+x,1/2+y,1/2+z
1/2-x,1/2-y,1/2+z
1/2+x,1/2-y,1/2-z
1/2-x,1/2+y,1/2-z
1/2-x,1/2-y,1/2-z
1/2+x,1/2+y,1/2-z
1/2-x,1/2+y,1/2+z
1/2+x,1/2-y,1/2+z
loop_
_atom_site_type_symbol
_atom_site_label
_atom_site_fract_x
_atom_site_fract_y
_atom_site_fract_z
Si Si1 0.950985 0.799938 0.238682
Si Si2 0.110495 0.297486 0.662167
Si Si3 0.797201 0.698585 0.682549
Si Si4 0.950078 0.207848 0.561832
Si Si5 0.839117 0.500000 0.000000
Si Si6 0.450568 0.197687 0.383888
Si Si7 0.856680 0.197290 0.912553
Si Si8 0.299453 0.293029 0.692974
O O1 0.915687 0.773647 0.285722
O O2 0.944463 0.701144 0.181998
O O3 0.000000 0.758057 0.259985
O O4 0.950408 0.000000 0.223024
O O5 0.114933 0.500000 0.672349
O O6 0.159357 0.222597 0.656281
O O7 0.082428 0.270203 0.607992
O O8 0.794321 0.500000 0.664995
O O9 0.748569 0.769855 0.673170
O O10 0.806350 0.709991 0.747793
O O11 0.938640 0.262353 0.500000
O O12 0.000000 0.263487 0.573107
O O13 0.949973 0.000000 0.562861
O O14 0.840969 0.346500 0.952706
O O15 0.500000 0.263709 0.394551
O O16 0.409465 0.293603 0.409537
O O17 0.448737 0.000000 0.402842
O O18 0.836283 0.235184 0.852371
O O19 0.843732 0.000000 0.926631
O O20 0.296977 0.500000 0.702289
#
# Coordination Sequence:
#
# PCOD9520758 Si02
#       8
#    16  16  16  16   4  16  16  16
#     4  10  20  32  48  74 112 155 194 232 282 350
#     4  11  21  31  49  77 111 144 180 230 287 341
#     4   9  19  34  54  84 119 149 178 222 288 354
#     4   9  19  36  55  71  95 138 187 233 281 332
#     4  12  26  44  65  92 120 154 206 256 285 342
#     4  10  20  36  58  86 120 155 190 236 295 349
#     4  11  23  41  66  89 117 158 200 246 297 344
#     4   9  19  36  59  86 113 146 189 231 283 350
#
# _framework density 19.997648000000002
#
# number of rings (size 3 to 8) (size 9 to 14) (size 15 to 20)
#    0.000    2.069    0.690    3.103    0.966    7.172 
#    0.000    1.379    1.517    0.828    0.000    0.000 
#    0.000    0.000    0.000    0.000    0.000    0.000 
#
# Total GULP energy -323119.033865 kJ/mol
# GULP energy per Si atom -5571.017825 kJ/mol
# Density = 1.995213 g / cm^3
# Si number density = 19.997648 Si / 1000 Ang^3
#
#
#
# Elastic Constant Matrix: (Units=GPa)
#
#
# Indices 1 2 3 4 5 6 
#
# 1 64.1463 4.7987 -2.3333 0.0000 0.0000 0.0000
# 2 4.7987 65.7275 3.4786 0.0000 0.0000 0.0000
# 3 -2.3333 3.4786 9.7066 0.0000 0.0000 0.0000
# 4 0.0000 0.0000 0.0000 27.7221 0.0000 0.0000
# 5 0.0000 0.0000 0.0000 0.0000 1.8251 0.0000
# 6 0.0000 0.0000 0.0000 0.0000 0.0000 6.0815
#
#
#
# Elastic Compliance Matrix: (Units=1/GPa)
#
#
# Indices 1 2 3 4 5 6 
#
# 1 0.015850 -0.001385 0.004306 0.000000 0.000000 0.000000
# 2 -0.001385 0.015630 -0.005934 0.000000 0.000000 0.000000
# 3 0.004306 -0.005934 0.106184 0.000000 0.000000 0.000000
# 4 0.000000 0.000000 0.000000 0.036072 0.000000 0.000000
# 5 0.000000 0.000000 0.000000 0.000000 0.547923 0.000000
# 6 0.000000 0.000000 0.000000 0.000000 0.000000 0.164433
#
#
# Mechanical properties :
#
#
# Convention : Reuss Voigt Hill
#
# Bulk Modulus (GPa) = 7.59661 16.82983 12.21322
# Shear Modulus (GPa) = 5.34190 16.03483 10.68837
#
# Velocity S-wave (km/s) = 1.63617 2.83474 2.31439
# Velocity P-wave (km/s) = 2.71596 4.37590 3.64177
#
# Compressibility (1/GPa) = 0.13163774
#
# Stress axis : x y z
#
# Youngs Moduli (GPa) = 63.09297 63.98150 9.41757
#
# Poissons Ratio (x) = 0.08862 -0.04056
# Poissons Ratio (y) = 0.08739 0.05589
# Poissons Ratio (z) = -0.27170 0.37968
#
# Static dielectric constant tensor:
#      x y z
#    x 1.754230 0.000000 0.000000 
#    y 0.000000 1.740840 0.000000 
#    z 0.000000 0.000000 1.657820 
# 
# From -- ./inp_files/62396.got.cif
#   From: 2010.05.17/outbox.cif.g08.bks.cpg/sg71_32_cif.got.tgz:62396.got - 2010.06.03 16:22:01.
