data_PCOD9520365
_publ_section_title
;
Structure prediction by ZEFSAII (Michael W. Deem and Ramdas Pophale) SiO2 
 PCOD9520365
Probable space group: I M M M
;
_chemical_formula_sum "Si O2"
_cell_formula_units_Z 104
_cell_length_a 21.069772
_cell_length_b 30.939841
_cell_length_c 8.159168
_cell_angle_alpha 90.000000
_cell_angle_beta 90.000000
_cell_angle_gamma 90.000000
_cell_volume 5318.924051
_symmetry_space_group_name_H-M "I M M M"
_symmetry_group_IT_number 71
_symmetry_cell_setting 'orthorhombic'
loop_
_space_group_symop_operation_xyz
x,y,z
-x,-y,z
x,-y,-z
-x,y,-z
-x,-y,-z
x,y,-z
-x,y,z
x,-y,z
1/2+x,1/2+y,1/2+z
1/2-x,1/2-y,1/2+z
1/2+x,1/2-y,1/2-z
1/2-x,1/2+y,1/2-z
1/2-x,1/2-y,1/2-z
1/2+x,1/2+y,1/2-z
1/2-x,1/2+y,1/2+z
1/2+x,1/2-y,1/2+z
loop_
_atom_site_type_symbol
_atom_site_label
_atom_site_fract_x
_atom_site_fract_y
_atom_site_fract_z
Si Si1 0.000000 0.265892 0.306290
Si Si2 0.714157 0.449481 0.304567
Si Si3 0.000000 0.166966 0.700904
Si Si4 0.648212 0.917836 0.301496
Si Si5 0.137177 0.132355 0.302005
Si Si6 0.885585 0.673769 0.802764
Si Si7 0.571346 0.000000 0.299336
Si Si8 0.754785 0.799663 0.302545
O O1 0.937713 0.292986 0.258926
O O2 0.000000 0.261597 0.500000
O O3 0.000000 0.216900 0.240490
O O4 0.711491 0.451837 0.500000
O O5 0.711721 0.500000 0.243127
O O6 0.779917 0.425906 0.254777
O O7 0.660380 0.415570 0.246918
O O8 0.934218 0.144258 0.752452
O O9 0.000000 0.166965 0.500000
O O10 0.651404 0.916281 0.500000
O O11 0.608498 0.875799 0.250333
O O12 0.609162 0.958621 0.244522
O O13 0.138081 0.134080 0.500000
O O14 0.187458 0.169595 0.243725
O O15 0.813547 0.682725 0.750184
O O16 0.888350 0.676183 0.000000
O O17 0.500000 0.000000 0.242921
O O18 0.571263 0.000000 0.500000
O O19 0.757945 0.800849 0.500000
O O20 0.750000 0.750000 0.250000
#
# Coordination Sequence:
#
# PCOD9520365 Si02
#       8
#     8  16   8  16  16  16   8  16
#     4  11  23  39  59  83 115 159 197 236 295 354
#     4  11  23  38  58  87 121 152 188 240 301 355
#     4   9  20  39  64  88 114 147 192 247 292 344
#     4  10  19  35  59  81 109 149 195 242 284 332
#     4  10  20  39  63  87 114 151 198 243 293 353
#     4  10  21  36  54  81 114 150 192 239 283 332
#     4   9  18  30  53  85 107 138 191 240 281 327
#     4  10  20  34  55  83 115 149 190 238 286 340
#
# _framework density 19.552827000000001
#
# number of rings (size 3 to 8) (size 9 to 14) (size 15 to 20)
#    0.000    1.923    2.308    1.615    1.077    4.000 
#    0.000    2.308    0.000    2.769    0.000    0.000 
#    0.000    0.000    0.000    0.000    0.000    0.000 
#
# Total GULP energy -289944.183816 kJ/mol
# GULP energy per Si atom -5575.849689 kJ/mol
# Density = 1.950832 g / cm^3
# Si number density = 19.552827 Si / 1000 Ang^3
#
#
#
# Elastic Constant Matrix: (Units=GPa)
#
#
# Indices 1 2 3 4 5 6 
#
# 1 144.8474 56.8879 15.0440 0.0000 0.0000 0.0000
# 2 56.8879 119.6353 8.9643 0.0000 0.0000 0.0000
# 3 15.0440 8.9643 8.2208 0.0000 0.0000 0.0000
# 4 0.0000 0.0000 0.0000 26.7505 0.0000 0.0000
# 5 0.0000 0.0000 0.0000 0.0000 10.1432 0.0000
# 6 0.0000 0.0000 0.0000 0.0000 0.0000 29.1198
#
#
#
# Elastic Compliance Matrix: (Units=1/GPa)
#
#
# Indices 1 2 3 4 5 6 
#
# 1 0.009766 -0.003599 -0.013947 0.000000 0.000000 0.000000
# 2 -0.003599 0.010429 -0.004786 0.000000 0.000000 0.000000
# 3 -0.013947 -0.004786 0.152384 0.000000 0.000000 0.000000
# 4 0.000000 0.000000 0.000000 0.037382 0.000000 0.000000
# 5 0.000000 0.000000 0.000000 0.000000 0.098588 0.000000
# 6 0.000000 0.000000 0.000000 0.000000 0.000000 0.034341
#
#
# Mechanical properties :
#
#
# Convention : Reuss Voigt Hill
#
# Bulk Modulus (GPa) = 7.81770 48.27733 28.04751
# Shear Modulus (GPa) = 11.62271 25.98986 18.80629
#
# Velocity S-wave (km/s) = 2.44073 3.64979 3.10469
# Velocity P-wave (km/s) = 3.45685 6.51963 5.21802
#
# Compressibility (1/GPa) = 0.12791485
#
# Stress axis : x y z
#
# Youngs Moduli (GPa) = 102.39895 95.89048 6.56236
#
# Poissons Ratio (x) = 0.34508 0.09153
# Poissons Ratio (y) = 0.36850 0.03141
# Poissons Ratio (z) = 1.42816 0.45895
#
# Static dielectric constant tensor:
#      x y z
#    x 1.659220 0.000000 0.000000 
#    y 0.000000 1.689970 0.000000 
#    z 0.000000 0.000000 1.695950 
# 
# From -- ./inp_files/11172.got.cif
#   From: 2010.05.17/outbox.cif.g08.bks.cpg/sg71_6_cif.got.tgz:11172.got - 2010.06.03 16:22:01.
