data_PCOD9520082
_publ_section_title
;
Structure prediction by ZEFSAII (Michael W. Deem and Ramdas Pophale) SiO2 
 PCOD9520082
Probable space group: I M M M
;
_chemical_formula_sum "Si O2"
_cell_formula_units_Z 96
_cell_length_a 25.889485
_cell_length_b 24.299135
_cell_length_c 8.644671
_cell_angle_alpha 90.000000
_cell_angle_beta 90.000000
_cell_angle_gamma 90.000000
_cell_volume 5438.294156
_symmetry_space_group_name_H-M "I M M M"
_symmetry_group_IT_number 71
_symmetry_cell_setting 'orthorhombic'
loop_
_space_group_symop_operation_xyz
x,y,z
-x,-y,z
x,-y,-z
-x,y,-z
-x,-y,-z
x,y,-z
-x,y,z
x,-y,z
1/2+x,1/2+y,1/2+z
1/2-x,1/2-y,1/2+z
1/2+x,1/2-y,1/2-z
1/2-x,1/2+y,1/2-z
1/2-x,1/2-y,1/2-z
1/2+x,1/2+y,1/2-z
1/2-x,1/2+y,1/2+z
1/2+x,1/2-y,1/2+z
loop_
_atom_site_type_symbol
_atom_site_label
_atom_site_fract_x
_atom_site_fract_y
_atom_site_fract_z
Si Si1 0.250389 0.688419 0.685558
Si Si2 0.059242 0.194207 0.686802
Si Si3 0.848398 0.614795 0.685256
Si Si4 0.653476 0.619229 0.812616
Si Si5 0.440112 0.814602 0.314830
Si Si6 0.190752 0.500000 0.185642
Si Si7 0.188852 0.000000 0.311754
O O1 0.252705 0.690097 0.500000
O O2 0.250000 0.750000 0.750000
O O3 0.198552 0.655524 0.731209
O O4 0.299296 0.655367 0.750234
O O5 0.060620 0.198105 0.500000
O O6 0.099943 0.147820 0.735005
O O7 0.074052 0.253706 0.754096
O O8 0.000000 0.182496 0.733134
O O9 0.849419 0.611728 0.500000
O O10 0.901305 0.640977 0.745687
O O11 0.836262 0.554950 0.752973
O O12 0.661582 0.556313 0.761009
O O13 0.655477 0.619952 0.000000
O O14 0.436830 0.815169 0.500000
O O15 0.500000 0.824294 0.269999
O O16 0.251027 0.500000 0.236424
O O17 0.189958 0.500000 0.000000
O O18 0.188573 0.000000 0.500000
#
# Coordination Sequence:
#
# PCOD9520082 Si02
#       7
#    16  16  16  16  16   8   8
#     4  11  23  35  51  78 110 140 175 221 273 325
#     4   9  18  33  54  80 111 146 182 225 277 327
#     4  11  23  38  56  81 112 144 180 224 273 327
#     4  10  19  34  54  77 107 143 185 225 268 323
#     4  10  21  37  58  83 110 142 182 226 271 324
#     4  11  21  37  60  81 107 147 186 226 271 321
#     4   9  18  33  54  78 105 143 185 224 268 315
#
# _framework density 17.652595000000002
#
# number of rings (size 3 to 8) (size 9 to 14) (size 15 to 20)
#    0.000    1.833    1.667    2.750    0.000    7.667 
#    0.000    1.250    0.000    5.000    0.000    0.000 
#    0.000    4.000    0.000    0.000    0.000    0.000 
#
# Total GULP energy -268085.610796 kJ/mol
# GULP energy per Si atom -5585.116892 kJ/mol
# Density = 1.761242 g / cm^3
# Si number density = 17.652595 Si / 1000 Ang^3
#
#
#
# Elastic Constant Matrix: (Units=GPa)
#
#
# Indices 1 2 3 4 5 6 
#
# 1 118.5244 103.0483 33.0956 0.0000 0.0000 0.0000
# 2 103.0483 196.9002 40.1688 0.0000 0.0000 0.0000
# 3 33.0956 40.1688 24.7447 0.0000 0.0000 0.0000
# 4 0.0000 0.0000 0.0000 25.8302 0.0000 0.0000
# 5 0.0000 0.0000 0.0000 0.0000 24.8513 0.0000
# 6 0.0000 0.0000 0.0000 0.0000 0.0000 23.1470
#
#
#
# Elastic Compliance Matrix: (Units=1/GPa)
#
#
# Indices 1 2 3 4 5 6 
#
# 1 0.017926 -0.006714 -0.013077 0.000000 0.000000 0.000000
# 2 -0.006714 0.010108 -0.007429 0.000000 0.000000 0.000000
# 3 -0.013077 -0.007429 0.069962 0.000000 0.000000 0.000000
# 4 0.000000 0.000000 0.000000 0.038714 0.000000 0.000000
# 5 0.000000 0.000000 0.000000 0.000000 0.040239 0.000000
# 6 0.000000 0.000000 0.000000 0.000000 0.000000 0.043202
#
#
# Mechanical properties :
#
#
# Convention : Reuss Voigt Hill
#
# Bulk Modulus (GPa) = 22.95838 76.97717 49.96778
# Shear Modulus (GPa) = 17.29450 25.68945 21.49197
#
# Velocity S-wave (km/s) = 3.13343 3.81895 3.49305
# Velocity P-wave (km/s) = 5.11127 7.94652 6.68103
#
# Compressibility (1/GPa) = 0.04355709
#
# Stress axis : x y z
#
# Youngs Moduli (GPa) = 55.78644 98.93247 14.29342
#
# Poissons Ratio (x) = 0.66420 0.18691
# Poissons Ratio (y) = 0.37453 0.10619
# Poissons Ratio (z) = 0.72949 0.73498
#
# Static dielectric constant tensor:
#      x y z
#    x 1.594120 0.000000 0.000000 
#    y 0.000000 1.572020 0.000000 
#    z 0.000000 0.000000 1.597510 
# 
# From -- ./inp_files/12906.got.cif
#   From: 2010.05.17/outbox.cif.g08.bks.cpg/sg71_7_cif.got.tgz:12906.got - 2010.06.03 16:22:01.
