data_PCOD9520799
_publ_section_title
;
Structure prediction by ZEFSAII (Michael W. Deem and Ramdas Pophale) SiO2 
 PCOD9520799
Probable space group: I M M M
;
_chemical_formula_sum "Si O2"
_cell_formula_units_Z 96
_cell_length_a 9.181233
_cell_length_b 18.319522
_cell_length_c 32.485609
_cell_angle_alpha 90.000000
_cell_angle_beta 90.000000
_cell_angle_gamma 90.000000
_cell_volume 5463.942992
_symmetry_space_group_name_H-M "I M M M"
_symmetry_group_IT_number 71
_symmetry_cell_setting 'orthorhombic'
loop_
_space_group_symop_operation_xyz
x,y,z
-x,-y,z
x,-y,-z
-x,y,-z
-x,-y,-z
x,y,-z
-x,y,z
x,-y,z
1/2+x,1/2+y,1/2+z
1/2-x,1/2-y,1/2+z
1/2+x,1/2-y,1/2-z
1/2-x,1/2+y,1/2-z
1/2-x,1/2-y,1/2-z
1/2+x,1/2+y,1/2-z
1/2-x,1/2+y,1/2+z
1/2+x,1/2-y,1/2+z
loop_
_atom_site_type_symbol
_atom_site_label
_atom_site_fract_x
_atom_site_fract_y
_atom_site_fract_z
Si Si1 0.669939 0.411967 0.633795
Si Si2 0.676712 0.413658 0.544160
Si Si3 0.830265 0.088041 0.371486
Si Si4 0.669600 0.911258 0.454179
Si Si5 0.673040 0.828800 0.794841
Si Si6 0.326511 0.827983 0.701395
O O1 0.500000 0.390526 0.639234
O O2 0.673488 0.500000 0.632865
O O3 0.723222 0.384580 0.588718
O O4 0.765251 0.382315 0.670792
O O5 0.726188 0.382231 0.500000
O O6 0.500000 0.409795 0.544709
O O7 0.713061 0.500000 0.543575
O O8 0.763486 0.112945 0.415258
O O9 0.742999 0.122306 0.333688
O O10 0.000000 0.107549 0.368835
O O11 0.818429 0.000000 0.369932
O O12 0.717413 0.887283 0.500000
O O13 0.500000 0.890615 0.448836
O O14 0.674196 0.000000 0.454442
O O15 0.500000 0.818622 0.798971
O O16 0.701541 0.855368 0.748074
O O17 0.754185 0.751779 0.800522
O O18 0.500000 0.822696 0.695749
#
# Coordination Sequence:
#
# PCOD9520799 Si02
#       6
#    16  16  16  16  16  16
#     4   9  17  29  48  75 103 130 161 198 239 282
#     4   7  10  19  38  65  95 125 158 194 228 265
#     4  10  20  32  49  76 106 132 160 200 248 291
#     4   8  14  26  45  69  98 132 167 200 235 281
#     4  10  21  36  53  72  95 125 161 202 249 299
#     4  10  21  37  55  71  91 125 166 204 244 295
#
# _framework density 17.569728999999999
#
# number of rings (size 3 to 8) (size 9 to 14) (size 15 to 20)
#    0.000    3.000    0.000    3.500    0.000    4.333 
#    0.000    5.000    0.000    1.500    0.000    4.667 
#    0.000    0.000    0.000    0.000    0.000    0.000 
#
# Total GULP energy -267273.500578 kJ/mol
# GULP energy per Si atom -5568.197929 kJ/mol
# Density = 1.752974 g / cm^3
# Si number density = 17.569729 Si / 1000 Ang^3
#
#
#
# Elastic Constant Matrix: (Units=GPa)
#
#
# Indices 1 2 3 4 5 6 
#
# 1 84.1679 22.5440 89.1964 0.0000 0.0000 0.0000
# 2 22.5440 9.2412 37.0037 0.0000 0.0000 0.0000
# 3 89.1964 37.0037 188.3581 0.0000 0.0000 0.0000
# 4 0.0000 0.0000 0.0000 -31.0793 0.0000 0.0000
# 5 0.0000 0.0000 0.0000 0.0000 30.1736 0.0000
# 6 0.0000 0.0000 0.0000 0.0000 0.0000 23.6675
#
#
#
# Elastic Compliance Matrix: (Units=1/GPa)
#
#
# Indices 1 2 3 4 5 6 
#
# 1 0.034314 -0.087385 0.000918 0.000000 0.000000 0.000000
# 2 -0.087385 0.729735 -0.101978 0.000000 0.000000 0.000000
# 3 0.000918 -0.101978 0.024908 0.000000 0.000000 0.000000
# 4 0.000000 0.000000 0.000000 -0.032176 0.000000 0.000000
# 5 0.000000 0.000000 0.000000 0.000000 0.033142 0.000000
# 6 0.000000 0.000000 0.000000 0.000000 0.000000 0.042252
#
#
# Mechanical properties :
#
#
# Convention : Reuss Voigt Hill
#
# Bulk Modulus (GPa) = 2.42680 64.36172 33.39426
# Shear Modulus (GPa) = 3.71355 13.42055 8.56705
#
# Velocity S-wave (km/s) = 1.45540 2.76677 2.21057
# Velocity P-wave (km/s) = 2.05146 6.84970 5.05603
#
# Compressibility (1/GPa) = 0.41206567
#
# Stress axis : x y z
#
# Youngs Moduli (GPa) = 29.14256 1.37036 40.14695
#
# Poissons Ratio (x) = 0.11975 -0.03685
# Poissons Ratio (y) = 2.54663 4.09412
# Poissons Ratio (z) = -0.02675 0.13975
#
# Static dielectric constant tensor:
#      x y z
#    x 1.582400 0.000000 0.000000 
#    y 0.000000 1.583130 0.000000 
#    z 0.000000 0.000000 1.636880 
# 
# From -- ./inp_files/63194.got.cif
#   From: 2010.05.17/outbox.cif.g08.bks.cpg/sg71_32_cif.got.tgz:63194.got - 2010.06.03 16:22:01.
