data_PCOD9520924
_publ_section_title
;
Structure prediction by ZEFSAII (Michael W. Deem and Ramdas Pophale) SiO2 
 PCOD9520924
Probable space group: I M M M
;
_chemical_formula_sum "Si O2"
_cell_formula_units_Z 104
_cell_length_a 8.891247
_cell_length_b 24.695895
_cell_length_c 28.982049
_cell_angle_alpha 90.000000
_cell_angle_beta 90.000000
_cell_angle_gamma 90.000000
_cell_volume 6363.800135
_symmetry_space_group_name_H-M "I M M M"
_symmetry_group_IT_number 71
_symmetry_cell_setting 'orthorhombic'
loop_
_space_group_symop_operation_xyz
x,y,z
-x,-y,z
x,-y,-z
-x,y,-z
-x,-y,-z
x,y,-z
-x,y,z
x,-y,z
1/2+x,1/2+y,1/2+z
1/2-x,1/2-y,1/2+z
1/2+x,1/2-y,1/2-z
1/2-x,1/2+y,1/2-z
1/2-x,1/2-y,1/2-z
1/2+x,1/2+y,1/2-z
1/2-x,1/2+y,1/2+z
1/2+x,1/2-y,1/2+z
loop_
_atom_site_type_symbol
_atom_site_label
_atom_site_fract_x
_atom_site_fract_y
_atom_site_fract_z
Si Si1 0.817182 0.561999 0.000000
Si Si2 0.681193 0.562882 0.630872
Si Si3 0.179644 0.063934 0.323700
Si Si4 0.318821 0.351535 0.553285
Si Si5 0.672871 0.065706 0.227225
Si Si6 0.819207 0.371999 0.091250
Si Si7 0.179562 0.764880 0.554322
O O1 0.770920 0.593420 0.953869
O O2 0.764443 0.500000 0.000000
O O3 0.000000 0.561156 0.000000
O O4 0.500000 0.564137 0.634974
O O5 0.724791 0.500000 0.623076
O O6 0.725373 0.601301 0.588581
O O7 0.751606 0.582266 0.679134
O O8 0.238243 0.081449 0.273292
O O9 0.255839 0.098775 0.363634
O O10 0.000000 0.068810 0.325809
O O11 0.218145 0.000000 0.329833
O O12 0.279951 0.364449 0.500000
O O13 0.500000 0.345366 0.555517
O O14 0.242782 0.294501 0.565487
O O15 0.500000 0.083406 0.229763
O O16 0.675051 0.000000 0.226661
O O17 0.755533 0.311948 0.083924
O O18 0.000000 0.370866 0.092683
O O19 0.215784 0.774718 0.500000
O O20 0.000000 0.766184 0.559464
#
# Coordination Sequence:
#
# PCOD9520924 Si02
#       7
#     8  16  16  16  16  16  16
#     4   9  18  30  45  69  99 129 160 199 248 297
#     4   9  17  30  50  77 107 136 164 200 248 296
#     4  10  20  33  49  72 102 133 166 207 254 300
#     4   9  18  32  51  75 103 135 171 206 242 292
#     4   9  17  30  49  72  98 131 170 207 243 293
#     4  11  20  32  51  72  98 131 169 211 252 300
#     4  10  20  34  51  70  96 130 172 215 253 294
#
# _framework density 16.342435999999999
#
# number of rings (size 3 to 8) (size 9 to 14) (size 15 to 20)
#    0.000    2.385    0.769    2.308    0.000    4.923 
#    0.000    1.538    0.000    2.769    0.000    4.308 
#    0.000    0.000    0.000    0.000    0.000    0.000 
#
# Total GULP energy -290023.453447 kJ/mol
# GULP energy per Si atom -5577.374105 kJ/mol
# Density = 1.630524 g / cm^3
# Si number density = 16.342436 Si / 1000 Ang^3
#
#
#
# Elastic Constant Matrix: (Units=GPa)
#
#
# Indices 1 2 3 4 5 6 
#
# 1 48.9830 44.7592 52.2625 0.0000 0.0000 0.0000
# 2 44.7592 100.1792 86.4716 0.0000 0.0000 0.0000
# 3 52.2625 86.4716 145.2401 0.0000 0.0000 0.0000
# 4 0.0000 0.0000 0.0000 6.9356 0.0000 0.0000
# 5 0.0000 0.0000 0.0000 0.0000 26.6980 0.0000
# 6 0.0000 0.0000 0.0000 0.0000 0.0000 20.1574
#
#
#
# Elastic Compliance Matrix: (Units=1/GPa)
#
#
# Indices 1 2 3 4 5 6 
#
# 1 0.037944 -0.010631 -0.007324 0.000000 0.000000 0.000000
# 2 -0.010631 0.023514 -0.010174 0.000000 0.000000 0.000000
# 3 -0.007324 -0.010174 0.015578 0.000000 0.000000 0.000000
# 4 0.000000 0.000000 0.000000 0.144183 0.000000 0.000000
# 5 0.000000 0.000000 0.000000 0.000000 0.037456 0.000000
# 6 0.000000 0.000000 0.000000 0.000000 0.000000 0.049610
#
#
# Mechanical properties :
#
#
# Convention : Reuss Voigt Hill
#
# Bulk Modulus (GPa) = 48.12926 73.48766 60.80846
# Shear Modulus (GPa) = 13.46008 18.15214 15.80611
#
# Velocity S-wave (km/s) = 2.87300 3.33639 3.11333
# Velocity P-wave (km/s) = 6.36553 7.73996 7.08615
#
# Compressibility (1/GPa) = 0.02077738
#
# Stress axis : x y z
#
# Youngs Moduli (GPa) = 26.35451 42.52800 64.19318
#
# Poissons Ratio (x) = 0.45212 0.47016
# Poissons Ratio (y) = 0.28018 0.65310
# Poissons Ratio (z) = 0.19303 0.43268
#
# Static dielectric constant tensor:
#      x y z
#    x 1.545790 0.000000 0.000000 
#    y 0.000000 1.528660 0.000000 
#    z 0.000000 0.000000 1.534220 
# 
# From -- ./inp_files/15515.got.cif
#   From: 2010.05.17/outbox.cif.g08.bks.cpg/sg71_8_cif.got.tgz:15515.got - 2010.06.03 16:22:01.
