data_PCOD9520363
_publ_section_title
;
Structure prediction by ZEFSAII (Michael W. Deem and Ramdas Pophale) SiO2 
 PCOD9520363
Probable space group: I M M M
;
_chemical_formula_sum "Si O2"
_cell_formula_units_Z 80
_cell_length_a 26.701586
_cell_length_b 18.744452
_cell_length_c 7.778316
_cell_angle_alpha 90.000000
_cell_angle_beta 90.000000
_cell_angle_gamma 90.000000
_cell_volume 3893.098472
_symmetry_space_group_name_H-M "I M M M"
_symmetry_group_IT_number 71
_symmetry_cell_setting 'orthorhombic'
loop_
_space_group_symop_operation_xyz
x,y,z
-x,-y,z
x,-y,-z
-x,y,-z
-x,-y,-z
x,y,-z
-x,y,z
x,-y,z
1/2+x,1/2+y,1/2+z
1/2-x,1/2-y,1/2+z
1/2+x,1/2-y,1/2-z
1/2-x,1/2+y,1/2-z
1/2-x,1/2-y,1/2-z
1/2+x,1/2+y,1/2-z
1/2-x,1/2+y,1/2+z
1/2+x,1/2-y,1/2+z
loop_
_atom_site_type_symbol
_atom_site_label
_atom_site_fract_x
_atom_site_fract_y
_atom_site_fract_z
Si Si1 0.000000 0.172050 0.297463
Si Si2 0.500000 0.163735 0.297166
Si Si3 0.402215 0.419027 0.292888
Si Si4 0.307065 0.669130 0.293674
Si Si5 0.401557 0.917746 0.289168
Si Si6 0.804454 0.667562 0.792900
O O1 0.000000 0.251351 0.221215
O O2 0.049164 0.127864 0.246361
O O3 0.000000 0.180852 0.500000
O O4 0.500000 0.147601 0.500000
O O5 0.550691 0.127810 0.228509
O O6 0.398447 0.422817 0.500000
O O7 0.407020 0.500000 0.227830
O O8 0.352079 0.379845 0.227990
O O9 0.311905 0.672311 0.500000
O O10 0.251236 0.642442 0.253938
O O11 0.310576 0.750838 0.228762
O O12 0.401130 0.916426 0.500000
O O13 0.349769 0.881603 0.231689
O O14 0.405567 0.000000 0.237209
O O15 0.806959 0.669833 0.000000
#
# Coordination Sequence:
#
# PCOD9520363 Si02
#       6
#     8   8  16  16  16  16
#     4  12  25  38  55  80 109 138 171 214 264 318
#     4  10  19  35  59  80 103 139 181 220 258 308
#     4  10  21  38  59  80 104 137 177 219 262 311
#     4   9  18  33  52  75 103 137 179 219 254 301
#     4   9  17  30  52  82 109 135 175 224 267 308
#     4   9  17  30  49  74 106 141 175 215 261 307
#
# _framework density 20.549184
#
# number of rings (size 3 to 8) (size 9 to 14) (size 15 to 20)
#    0.000    2.400    0.000    2.700    0.000    7.600 
#    0.000    5.000    0.000    2.400    0.000    0.000 
#    0.000    0.000    0.000    0.000    0.000    0.000 
#
# Total GULP energy -223363.865836 kJ/mol
# GULP energy per Si atom -5584.096646 kJ/mol
# Density = 2.050241 g / cm^3
# Si number density = 20.549184 Si / 1000 Ang^3
#
#
#
# Elastic Constant Matrix: (Units=GPa)
#
#
# Indices 1 2 3 4 5 6 
#
# 1 223.6809 119.3049 -6.4610 0.0000 0.0000 0.0000
# 2 119.3049 117.9619 -14.9763 0.0000 0.0000 0.0000
# 3 -6.4610 -14.9763 21.0281 0.0000 0.0000 0.0000
# 4 0.0000 0.0000 0.0000 -0.1812 0.0000 0.0000
# 5 0.0000 0.0000 0.0000 0.0000 12.7497 0.0000
# 6 0.0000 0.0000 0.0000 0.0000 0.0000 -1.3452
#
#
#
# Elastic Compliance Matrix: (Units=1/GPa)
#
#
# Indices 1 2 3 4 5 6 
#
# 1 0.010094 -0.010790 -0.004584 0.000000 0.000000 0.000000
# 2 -0.010790 0.020855 0.011538 0.000000 0.000000 0.000000
# 3 -0.004584 0.011538 0.054365 0.000000 0.000000 0.000000
# 4 0.000000 0.000000 0.000000 -5.519940 0.000000 0.000000
# 5 0.000000 0.000000 0.000000 0.000000 0.078433 0.000000
# 6 0.000000 0.000000 0.000000 0.000000 0.000000 -0.743375
#
#
# Mechanical properties :
#
#
# Convention : Reuss Voigt Hill
#
# Bulk Modulus (GPa) = 12.87975 62.04510 37.46243
# Shear Modulus (GPa) = -0.82426 19.89823 9.53698
#
# Velocity S-wave (km/s) = -0.63403 3.11516 2.15665
# Velocity P-wave (km/s) = 2.39695 6.57252 4.94689
#
# Compressibility (1/GPa) = 0.07764125
#
# Stress axis : x y z
#
# Youngs Moduli (GPa) = 99.07337 47.94924 18.39433
#
# Poissons Ratio (x) = 0.51739 0.08431
# Poissons Ratio (y) = 1.06904 -0.21223
# Poissons Ratio (z) = 0.45412 -0.55324
#
# Static dielectric constant tensor:
#      x y z
#    x 1.713800 0.000000 0.000000 
#    y 0.000000 1.544400 0.000000 
#    z 0.000000 0.000000 1.761960 
# 
# From -- ./inp_files/14586.got.cif
#   From: 2010.05.17/outbox.cif.g08.bks.cpg/sg71_8_cif.got.tgz:14586.got - 2010.06.03 16:22:01.
