data_PCOD9520239
_publ_section_title
;
Structure prediction by ZEFSAII (Michael W. Deem and Ramdas Pophale) SiO2 
 PCOD9520239
Probable space group: I M M M
;
_chemical_formula_sum "Si O2"
_cell_formula_units_Z 96
_cell_length_a 21.526935
_cell_length_b 12.196106
_cell_length_c 21.891019
_cell_angle_alpha 90.000000
_cell_angle_beta 90.000000
_cell_angle_gamma 90.000000
_cell_volume 5747.372792
_symmetry_space_group_name_H-M "I M M M"
_symmetry_group_IT_number 71
_symmetry_cell_setting 'orthorhombic'
loop_
_space_group_symop_operation_xyz
x,y,z
-x,-y,z
x,-y,-z
-x,y,-z
-x,-y,-z
x,y,-z
-x,y,z
x,-y,z
1/2+x,1/2+y,1/2+z
1/2-x,1/2-y,1/2+z
1/2+x,1/2-y,1/2-z
1/2-x,1/2+y,1/2-z
1/2-x,1/2-y,1/2-z
1/2+x,1/2+y,1/2-z
1/2-x,1/2+y,1/2+z
1/2+x,1/2-y,1/2+z
loop_
_atom_site_type_symbol
_atom_site_label
_atom_site_fract_x
_atom_site_fract_y
_atom_site_fract_z
Si Si1 0.925630 0.125925 0.500000
Si Si2 0.373659 0.225366 0.892637
Si Si3 0.348077 0.314362 0.236307
Si Si4 0.926672 0.500000 0.430889
Si Si5 0.924974 0.000000 0.807052
Si Si6 0.150505 0.000000 0.071786
Si Si7 0.788049 0.626712 0.814550
Si Si8 0.730641 0.721962 0.571836
O O1 0.900896 0.190775 0.558280
O O2 0.000000 0.128177 0.500000
O O3 0.904438 0.000000 0.500000
O O4 0.379358 0.278446 0.826598
O O5 0.406814 0.109539 0.897445
O O6 0.302146 0.202579 0.910172
O O7 0.391201 0.396381 0.274485
O O8 0.281283 0.365254 0.215437
O O9 0.331041 0.205704 0.274208
O O10 0.899414 0.500000 0.500000
O O11 0.000000 0.500000 0.436536
O O12 0.904011 0.000000 0.878181
O O13 0.000000 0.000000 0.800516
O O14 0.191784 0.890036 0.081986
O O15 0.131612 0.000000 0.000000
O O16 0.806404 0.500000 0.815470
O O17 0.788488 0.681187 0.881913
O O18 0.726099 0.750076 0.500000
#
# Coordination Sequence:
#
# PCOD9520239 Si02
#       8
#     8  16  16   8   8   8  16  16
#     4  11  24  39  53  73 115 164 203 240 280 338
#     4  11  22  36  56  82 112 151 197 242 291 338
#     4  10  23  38  57  88 116 153 196 237 299 349
#     4  11  21  35  54  74 105 148 198 245 278 325
#     4  12  24  42  65  88 123 159 202 244 288 371
#     4  10  21  39  63  91 123 144 191 246 316 358
#     4  10  20  36  61  85 120 150 187 243 295 352
#     4  10  19  34  58  89 116 147 182 245 297 355
#
# _framework density 16.703284
#
# number of rings (size 3 to 8) (size 9 to 14) (size 15 to 20)
#    0.000    1.500    4.167    1.000    2.333    3.167 
#    0.000    0.000    0.000    0.000    0.000    0.000 
#    0.000    2.667    0.000    0.000    0.000    0.000 
#
# Total GULP energy -267851.505884 kJ/mol
# GULP energy per Si atom -5580.239706 kJ/mol
# Density = 1.666527 g / cm^3
# Si number density = 16.703284 Si / 1000 Ang^3
#
#
#
# Elastic Constant Matrix: (Units=GPa)
#
#
# Indices 1 2 3 4 5 6 
#
# 1 68.0385 51.9055 51.1860 0.0000 0.0000 0.0000
# 2 51.9055 160.2553 72.6147 0.0000 0.0000 0.0000
# 3 51.1860 72.6147 130.2885 0.0000 0.0000 0.0000
# 4 0.0000 0.0000 0.0000 28.3231 0.0000 0.0000
# 5 0.0000 0.0000 0.0000 0.0000 7.4346 0.0000
# 6 0.0000 0.0000 0.0000 0.0000 0.0000 14.7532
#
#
#
# Elastic Compliance Matrix: (Units=1/GPa)
#
#
# Indices 1 2 3 4 5 6 
#
# 1 0.023059 -0.004500 -0.006551 0.000000 0.000000 0.000000
# 2 -0.004500 0.009227 -0.003374 0.000000 0.000000 0.000000
# 3 -0.006551 -0.003374 0.012130 0.000000 0.000000 0.000000
# 4 0.000000 0.000000 0.000000 0.035307 0.000000 0.000000
# 5 0.000000 0.000000 0.000000 0.000000 0.134507 0.000000
# 6 0.000000 0.000000 0.000000 0.000000 0.000000 0.067782
#
#
# Mechanical properties :
#
#
# Convention : Reuss Voigt Hill
#
# Bulk Modulus (GPa) = 64.25035 78.88830 71.56933
# Shear Modulus (GPa) = 15.82027 22.29391 19.05709
#
# Velocity S-wave (km/s) = 3.08090 3.65732 3.38141
# Velocity P-wave (km/s) = 7.15577 8.07257 7.62796
#
# Compressibility (1/GPa) = 0.01556412
#
# Stress axis : x y z
#
# Youngs Moduli (GPa) = 43.36676 108.38187 82.44308
#
# Poissons Ratio (x) = 0.48775 0.54008
# Poissons Ratio (y) = 0.19516 0.27819
# Poissons Ratio (z) = 0.28409 0.36572
#
# Static dielectric constant tensor:
#      x y z
#    x 1.496770 0.000000 0.000000 
#    y 0.000000 1.543610 0.000000 
#    z 0.000000 0.000000 1.574580 
# 
# From -- ./inp_files/54938.got.cif
#   From: 2010.05.17/outbox.cif.g08.bks.cpg/sg71_28_cif.got.tgz:54938.got - 2010.06.03 16:22:01.
