data_PCOD9520472
_publ_section_title
;
Structure prediction by ZEFSAII (Michael W. Deem and Ramdas Pophale) SiO2 
 PCOD9520472
Probable space group: I M M M
;
_chemical_formula_sum "Si O2"
_cell_formula_units_Z 72
_cell_length_a 20.942642
_cell_length_b 21.854106
_cell_length_c 8.594619
_cell_angle_alpha 90.000000
_cell_angle_beta 90.000000
_cell_angle_gamma 90.000000
_cell_volume 3933.608586
_symmetry_space_group_name_H-M "I M M M"
_symmetry_group_IT_number 71
_symmetry_cell_setting 'orthorhombic'
loop_
_space_group_symop_operation_xyz
x,y,z
-x,-y,z
x,-y,-z
-x,y,-z
-x,-y,-z
x,y,-z
-x,y,z
x,-y,z
1/2+x,1/2+y,1/2+z
1/2-x,1/2-y,1/2+z
1/2+x,1/2-y,1/2-z
1/2-x,1/2+y,1/2-z
1/2-x,1/2-y,1/2-z
1/2+x,1/2+y,1/2-z
1/2-x,1/2+y,1/2+z
1/2+x,1/2-y,1/2+z
loop_
_atom_site_type_symbol
_atom_site_label
_atom_site_fract_x
_atom_site_fract_y
_atom_site_fract_z
Si Si1 0.500000 0.843155 0.810821
Si Si2 0.500000 0.293879 0.314957
Si Si3 0.114968 0.569523 0.310571
Si Si4 0.382882 0.372737 0.183463
Si Si5 0.575135 0.500000 0.676451
Si Si6 0.239201 0.071591 0.812519
O O1 0.500000 0.775727 0.741959
O O2 0.437605 0.881652 0.761629
O O3 0.500000 0.839237 0.000000
O O4 0.500000 0.298379 0.500000
O O5 0.435183 0.326727 0.254475
O O6 0.114758 0.569225 0.500000
O O7 0.098887 0.500000 0.261838
O O8 0.187730 0.583119 0.262396
O O9 0.407571 0.439760 0.230490
O O10 0.310618 0.378773 0.247951
O O11 0.381470 0.363451 0.000000
O O12 0.500000 0.500000 0.658486
O O13 0.603003 0.500000 0.500000
O O14 0.224299 0.000000 0.768187
O O15 0.237162 0.073791 0.000000
#
# Coordination Sequence:
#
# PCOD9520472 Si02
#       6
#     8   8  16  16   8  16
#     4  10  19  36  61  87 114 141 186 239 275 319
#     4  12  26  42  56  73 106 153 197 229 280 338
#     4   8  15  30  58  93 119 144 177 221 277 336
#     4  12  23  35  54  81 111 144 189 237 277 314
#     4  11  21  33  53  79 110 147 182 221 278 334
#     4   9  17  31  53  82 118 152 181 216 274 339
#
# _framework density 18.303802999999998
#
# number of rings (size 3 to 8) (size 9 to 14) (size 15 to 20)
#    0.000    1.889    2.222    5.000    0.000    1.778 
#    0.000    2.222    0.000    2.667    0.000    0.000 
#    0.000    0.000    0.000    0.000    0.000    0.000 
#
# Total GULP energy -200747.769796 kJ/mol
# GULP energy per Si atom -5576.326939 kJ/mol
# Density = 1.826214 g / cm^3
# Si number density = 18.303803 Si / 1000 Ang^3
#
#
#
# Elastic Constant Matrix: (Units=GPa)
#
#
# Indices 1 2 3 4 5 6 
#
# 1 168.3313 98.9477 46.4904 0.0000 0.0000 0.0000
# 2 98.9477 132.6622 36.8350 0.0000 0.0000 0.0000
# 3 46.4904 36.8350 69.6896 0.0000 0.0000 0.0000
# 4 0.0000 0.0000 0.0000 19.1879 0.0000 0.0000
# 5 0.0000 0.0000 0.0000 0.0000 5.2552 0.0000
# 6 0.0000 0.0000 0.0000 0.0000 0.0000 -0.8142
#
#
#
# Elastic Compliance Matrix: (Units=1/GPa)
#
#
# Indices 1 2 3 4 5 6 
#
# 1 0.011306 -0.007429 -0.003616 0.000000 0.000000 0.000000
# 2 -0.007429 0.013716 -0.002294 0.000000 0.000000 0.000000
# 3 -0.003616 -0.002294 0.017974 0.000000 0.000000 0.000000
# 4 0.000000 0.000000 0.000000 0.052116 0.000000 0.000000
# 5 0.000000 0.000000 0.000000 0.000000 0.190287 0.000000
# 6 0.000000 0.000000 0.000000 0.000000 0.000000 -1.228210
#
#
# Mechanical properties :
#
#
# Convention : Reuss Voigt Hill
#
# Bulk Modulus (GPa) = 61.27857 81.69214 71.48535
# Shear Modulus (GPa) = -5.49031 17.28646 5.89807
#
# Velocity S-wave (km/s) = -1.73380 3.07647 1.79703
# Velocity P-wave (km/s) = 5.43537 7.57283 6.59132
#
# Compressibility (1/GPa) = 0.01631892
#
# Stress axis : x y z
#
# Youngs Moduli (GPa) = 88.44833 72.90931 55.63645
#
# Poissons Ratio (x) = 0.54163 0.20117
# Poissons Ratio (y) = 0.65706 0.12762
# Poissons Ratio (z) = 0.31981 0.16723
#
# Static dielectric constant tensor:
#      x y z
#    x 1.690540 0.000000 0.000000 
#    y 0.000000 1.594990 0.000000 
#    z 0.000000 0.000000 1.628800 
# 
# From -- ./inp_files/9996.got.cif
#   From: 2010.05.17/outbox.cif.g08.bks.cpg/sg71_5_cif.got.tgz:9996.got - 2010.06.03 16:22:01.
