data_PCOD9520422
_publ_section_title
;
Structure prediction by ZEFSAII (Michael W. Deem and Ramdas Pophale) SiO2 
 PCOD9520422
Probable space group: I M M M
;
_chemical_formula_sum "Si O2"
_cell_formula_units_Z 68
_cell_length_a 19.666874
_cell_length_b 10.208492
_cell_length_c 16.487307
_cell_angle_alpha 90.000000
_cell_angle_beta 90.000000
_cell_angle_gamma 90.000000
_cell_volume 3310.142215
_symmetry_space_group_name_H-M "I M M M"
_symmetry_group_IT_number 71
_symmetry_cell_setting 'orthorhombic'
loop_
_space_group_symop_operation_xyz
x,y,z
-x,-y,z
x,-y,-z
-x,y,-z
-x,-y,-z
x,y,-z
-x,y,z
x,-y,z
1/2+x,1/2+y,1/2+z
1/2-x,1/2-y,1/2+z
1/2+x,1/2-y,1/2-z
1/2-x,1/2+y,1/2-z
1/2-x,1/2-y,1/2-z
1/2+x,1/2+y,1/2-z
1/2-x,1/2+y,1/2+z
1/2+x,1/2-y,1/2+z
loop_
_atom_site_type_symbol
_atom_site_label
_atom_site_fract_x
_atom_site_fract_y
_atom_site_fract_z
Si Si1 0.365122 0.645529 0.320532
Si Si2 0.227387 0.651771 0.092509
Si Si3 0.614467 0.351323 0.127790
Si Si4 0.500000 0.000000 0.291991
Si Si5 0.500000 0.256748 0.403347
Si Si6 0.000000 0.646298 0.621376
O O1 0.337542 0.500000 0.336078
O O2 0.310954 0.754025 0.346346
O O3 0.382440 0.654193 0.225630
O O4 0.432927 0.669313 0.371928
O O5 0.211498 0.500000 0.111523
O O6 0.308547 0.666601 0.097777
O O7 0.205336 0.678274 0.000000
O O8 0.592516 0.500000 0.105271
O O9 0.564625 0.236307 0.100798
O O10 0.500000 0.115250 0.360947
O O11 0.500000 0.113103 0.218231
O O12 0.500000 0.247214 0.500000
O O13 0.000000 0.500000 0.585820
#
# Coordination Sequence:
#
# PCOD9520422 Si02
#       6
#    16  16  16   4   8   8
#     4  11  22  38  58  84 114 151 190 231 275 332
#     4  10  23  40  58  82 114 148 189 235 280 331
#     4  10  20  38  61  84 111 150 188 228 279 334
#     4  10  21  38  54  88 117 142 188 230 279 320
#     4  12  24  37  56  83 119 154 187 225 277 333
#     4  10  19  35  62  88 112 138 185 239 273 325
#
# _framework density 20.542923999999999
#
# number of rings (size 3 to 8) (size 9 to 14) (size 15 to 20)
#    0.353    1.176    2.353    2.294    1.647    6.118 
#    0.000    0.588    0.000    3.529    0.000    0.000 
#    0.000    0.000    0.000    0.000    0.000    0.000 
#
# Total GULP energy -189493.990761 kJ/mol
# GULP energy per Si atom -5573.352669 kJ/mol
# Density = 2.049617 g / cm^3
# Si number density = 20.542924 Si / 1000 Ang^3
#
#
#
# Elastic Constant Matrix: (Units=GPa)
#
#
# Indices 1 2 3 4 5 6 
#
# 1 60.7494 54.2675 4.1889 0.0000 0.0000 0.0000
# 2 54.2675 153.6587 21.5926 0.0000 0.0000 0.0000
# 3 4.1889 21.5926 101.2394 0.0000 0.0000 0.0000
# 4 0.0000 0.0000 0.0000 1.0185 0.0000 0.0000
# 5 0.0000 0.0000 0.0000 0.0000 -15.4309 0.0000
# 6 0.0000 0.0000 0.0000 0.0000 0.0000 17.6464
#
#
#
# Elastic Compliance Matrix: (Units=1/GPa)
#
#
# Indices 1 2 3 4 5 6 
#
# 1 0.024118 -0.008636 0.000844 0.000000 0.000000 0.000000
# 2 -0.008636 0.009802 -0.001733 0.000000 0.000000 0.000000
# 3 0.000844 -0.001733 0.010212 0.000000 0.000000 0.000000
# 4 0.000000 0.000000 0.000000 0.981820 0.000000 0.000000
# 5 0.000000 0.000000 0.000000 0.000000 -0.064805 0.000000
# 6 0.000000 0.000000 0.000000 0.000000 0.000000 0.056669
#
#
# Mechanical properties :
#
#
# Convention : Reuss Voigt Hill
#
# Bulk Modulus (GPa) = 39.87112 52.86062 46.36587
# Shear Modulus (GPa) = 4.78365 16.35339 10.56852
#
# Velocity S-wave (km/s) = 1.52764 2.82451 2.27063
# Velocity P-wave (km/s) = 4.74999 6.03530 5.43080
#
# Compressibility (1/GPa) = 0.02508081
#
# Stress axis : x y z
#
# Youngs Moduli (GPa) = 41.46351 102.02509 97.92112
#
# Poissons Ratio (x) = 0.88111 -0.08265
# Poissons Ratio (y) = 0.35809 0.16971
# Poissons Ratio (z) = -0.03500 0.17683
#
# Static dielectric constant tensor:
#      x y z
#    x 1.720540 0.000000 0.000000 
#    y 0.000000 1.714280 0.000000 
#    z 0.000000 0.000000 1.715740 
# 
# From -- ./inp_files/46883.got.cif
#   From: 2010.05.17/outbox.cif.g08.bks.cpg/sg71_24_cif.got.tgz:46883.got - 2010.06.03 16:22:01.
