data_PCOD9520087
_publ_section_title
;
Structure prediction by ZEFSAII (Michael W. Deem and Ramdas Pophale) SiO2 
 PCOD9520087
Probable space group: I M M M
;
_chemical_formula_sum "Si O2"
_cell_formula_units_Z 104
_cell_length_a 13.675720
_cell_length_b 32.054604
_cell_length_c 11.173925
_cell_angle_alpha 90.000000
_cell_angle_beta 90.000000
_cell_angle_gamma 90.000000
_cell_volume 4898.311145
_symmetry_space_group_name_H-M "I M M M"
_symmetry_group_IT_number 71
_symmetry_cell_setting 'orthorhombic'
loop_
_space_group_symop_operation_xyz
x,y,z
-x,-y,z
x,-y,-z
-x,y,-z
-x,-y,-z
x,y,-z
-x,y,z
x,-y,z
1/2+x,1/2+y,1/2+z
1/2-x,1/2-y,1/2+z
1/2+x,1/2-y,1/2-z
1/2-x,1/2+y,1/2-z
1/2-x,1/2-y,1/2-z
1/2+x,1/2+y,1/2-z
1/2-x,1/2+y,1/2+z
1/2+x,1/2-y,1/2+z
loop_
_atom_site_type_symbol
_atom_site_label
_atom_site_fract_x
_atom_site_fract_y
_atom_site_fract_z
Si Si1 0.118272 0.343433 0.867501
Si Si2 0.619118 0.252713 0.634805
Si Si3 0.380978 0.306198 0.134543
Si Si4 0.615321 0.921073 0.207933
Si Si5 0.617822 0.403325 0.866245
Si Si6 0.189203 0.050082 0.128445
Si Si7 0.116314 0.500000 0.873435
O O1 0.149223 0.295703 0.850059
O O2 0.139869 0.376535 0.765415
O O3 0.000000 0.342538 0.870770
O O4 0.149889 0.357625 0.000000
O O5 0.649287 0.266577 0.500000
O O6 0.500000 0.253310 0.634130
O O7 0.649789 0.279729 0.749439
O O8 0.500000 0.305304 0.134774
O O9 0.351642 0.354687 0.146558
O O10 0.351880 0.291600 0.000000
O O11 0.500000 0.922297 0.172400
O O12 0.699522 0.933814 0.118495
O O13 0.632976 0.957041 0.306247
O O14 0.500000 0.403635 0.867973
O O15 0.648867 0.429144 0.749566
O O16 0.649850 0.417767 0.000000
O O17 0.187587 0.000000 0.141273
O O18 0.139619 0.060372 0.000000
O O19 0.000000 0.500000 0.886868
O O20 0.167724 0.500000 0.000000
#
# Coordination Sequence:
#
# PCOD9520087 Si02
#       7
#    16  16  16  16  16  16   8
#     4   8  14  25  43  71 110 150 186 230 280 326
#     4   8  13  22  40  71 108 144 182 221 267 327
#     4   8  14  27  49  77 108 139 173 220 274 326
#     4  10  19  34  54  78 110 152 196 236 278 330
#     4   9  20  40  64  89 115 145 185 231 282 339
#     4  11  25  42  58  83 117 150 187 231 284 342
#     4   9  16  26  45  75 104 133 180 237 281 318
#
# _framework density 21.231807
#
# number of rings (size 3 to 8) (size 9 to 14) (size 15 to 20)
#    0.000    3.000    0.769    2.308    0.000    4.923 
#    0.000    4.615    0.000    3.692    0.000    0.000 
#    0.000    0.000    0.000    0.000    0.000    0.000 
#
# Total GULP energy -289844.427212 kJ/mol
# GULP energy per Si atom -5573.931293 kJ/mol
# Density = 2.118348 g / cm^3
# Si number density = 21.231807 Si / 1000 Ang^3
#
#
#
# Elastic Constant Matrix: (Units=GPa)
#
#
# Indices 1 2 3 4 5 6 
#
# 1 60.3886 14.2397 26.3774 0.0000 0.0000 0.0000
# 2 14.2397 90.9149 98.4479 0.0002 0.0000 0.0000
# 3 26.3774 98.4479 208.6154 -0.0007 -0.0010 -0.0002
# 4 0.0000 0.0002 -0.0007 20.6171 0.0001 0.0000
# 5 0.0000 0.0000 -0.0010 0.0001 -8.1885 0.0002
# 6 0.0000 0.0000 -0.0002 0.0000 0.0002 20.3321
#
#
#
# Elastic Compliance Matrix: (Units=1/GPa)
#
#
# Indices 1 2 3 4 5 6 
#
# 1 0.017550 -0.000707 -0.001885 0.000000 0.000000 0.000000
# 2 -0.000707 0.022523 -0.010539 -0.000001 0.000001 0.000000
# 3 -0.001885 -0.010539 0.010005 0.000000 -0.000001 0.000000
# 4 0.000000 -0.000001 0.000000 0.048503 0.000000 0.000000
# 5 0.000000 0.000001 -0.000001 0.000000 -0.122123 0.000001
# 6 0.000000 0.000000 0.000000 0.000000 0.000001 0.049183
#
#
# Mechanical properties :
#
#
# Convention : Reuss Voigt Hill
#
# Bulk Modulus (GPa) = 41.99181 70.89430 56.44306
# Shear Modulus (GPa) = 83.55176 21.27574 52.41375
#
# Velocity S-wave (km/s) = 6.27994 3.16898 4.97393
# Velocity P-wave (km/s) = 8.50906 6.84493 7.72196
#
# Compressibility (1/GPa) = 0.02381417
#
# Stress axis : x y z
#
# Youngs Moduli (GPa) = 56.98119 44.39995 99.94570
#
# Poissons Ratio (x) = 0.03141 0.18841
# Poissons Ratio (y) = 0.04031 1.05335
# Poissons Ratio (z) = 0.10742 0.46794
#
# Static dielectric constant tensor:
#      x y z
#    x 1.851850 0.000000 0.000000 
#    y 0.000000 1.732550 0.000000 
#    z 0.000000 0.000000 1.815410 
# 
# From -- ./inp_files/22702.got.cif
#   From: 2010.05.17/outbox.cif.g08.bks.cpg/sg71_12_cif.got.tgz:22702.got - 2010.06.03 16:22:01.
