data_PCOD9520306
_publ_section_title
;
Structure prediction by ZEFSAII (Michael W. Deem and Ramdas Pophale) SiO2 
 PCOD9520306
Probable space group: I M M M
;
_chemical_formula_sum "Si O2"
_cell_formula_units_Z 88
_cell_length_a 18.411176
_cell_length_b 7.563370
_cell_length_c 30.159261
_cell_angle_alpha 90.000000
_cell_angle_beta 90.000000
_cell_angle_gamma 90.000000
_cell_volume 4199.693266
_symmetry_space_group_name_H-M "I M M M"
_symmetry_group_IT_number 71
_symmetry_cell_setting 'orthorhombic'
loop_
_space_group_symop_operation_xyz
x,y,z
-x,-y,z
x,-y,-z
-x,y,-z
-x,-y,-z
x,y,-z
-x,y,z
x,-y,z
1/2+x,1/2+y,1/2+z
1/2-x,1/2-y,1/2+z
1/2+x,1/2-y,1/2-z
1/2-x,1/2+y,1/2-z
1/2-x,1/2-y,1/2-z
1/2+x,1/2+y,1/2-z
1/2-x,1/2+y,1/2+z
1/2+x,1/2-y,1/2+z
loop_
_atom_site_type_symbol
_atom_site_label
_atom_site_fract_x
_atom_site_fract_y
_atom_site_fract_z
Si Si1 0.787222 0.216375 0.051127
Si Si2 0.338692 0.291046 0.297227
Si Si3 0.917785 0.783626 0.114791
Si Si4 0.644725 0.209945 0.896433
Si Si5 0.500000 0.710556 0.049912
Si Si6 0.827918 0.713515 0.700372
O O1 0.859075 0.270039 0.077956
O O2 0.715594 0.278079 0.077583
O O3 0.786071 0.000000 0.050915
O O4 0.786500 0.273321 0.000000
O O5 0.332425 0.500000 0.305052
O O6 0.388656 0.223772 0.336962
O O7 0.255979 0.221073 0.299527
O O8 0.364124 0.266142 0.246768
O O9 0.000000 0.724814 0.106645
O O10 0.918812 0.000000 0.114733
O O11 0.572221 0.237145 0.924094
O O12 0.638661 0.276369 0.845956
O O13 0.656584 0.000000 0.892537
O O14 0.500000 0.500000 0.047174
O O15 0.500000 0.783678 0.000000
O O16 0.827281 0.500000 0.700929
#
# Coordination Sequence:
#
# PCOD9520306 Si02
#       6
#    16  16  16  16   8  16
#     4   9  16  27  47  74 100 130 172 215 252 300
#     4   9  16  29  48  72 103 137 172 208 252 305
#     4   9  16  27  44  69 104 140 170 207 254 302
#     4  10  19  35  57  78 102 136 177 217 260 312
#     4  11  25  41  55  77 109 137 167 217 274 325
#     4   9  17  30  51  75 100 131 171 217 256 296
#
# _framework density 20.953913
#
# number of rings (size 3 to 8) (size 9 to 14) (size 15 to 20)
#    0.000    2.636    1.818    0.818    0.000    2.545 
#    1.636    1.818    0.000    0.000    0.000    0.000 
#    0.000    0.000    0.000    5.455    0.000    5.455 
#
# Total GULP energy -245536.033778 kJ/mol
# GULP energy per Si atom -5580.364404 kJ/mol
# Density = 2.090622 g / cm^3
# Si number density = 20.953913 Si / 1000 Ang^3
#
#
#
# Elastic Constant Matrix: (Units=GPa)
#
#
# Indices 1 2 3 4 5 6 
#
# 1 104.5858 -11.7841 55.8274 0.0000 0.0000 0.0000
# 2 -11.7841 40.8080 -11.7440 0.0000 0.0000 0.0000
# 3 55.8274 -11.7440 164.4713 0.0000 0.0000 0.0000
# 4 0.0000 0.0000 0.0000 16.7913 0.0000 0.0000
# 5 0.0000 0.0000 0.0000 0.0000 25.6836 0.0000
# 6 0.0000 0.0000 0.0000 0.0000 0.0000 -8.4873
#
#
#
# Elastic Compliance Matrix: (Units=1/GPa)
#
#
# Indices 1 2 3 4 5 6 
#
# 1 0.011889 0.002319 -0.003870 0.000000 0.000000 0.000000
# 2 0.002319 0.025472 0.001032 0.000000 0.000000 0.000000
# 3 -0.003870 0.001032 0.007467 0.000000 0.000000 0.000000
# 4 0.000000 0.000000 0.000000 0.059555 0.000000 0.000000
# 5 0.000000 0.000000 0.000000 0.000000 0.038935 0.000000
# 6 0.000000 0.000000 0.000000 0.000000 0.000000 -0.117824
#
#
# Mechanical properties :
#
#
# Convention : Reuss Voigt Hill
#
# Bulk Modulus (GPa) = 22.83645 41.60708 32.22176
# Shear Modulus (GPa) = 121.57166 25.30191 73.43679
#
# Velocity S-wave (km/s) = 7.62526 3.47868 5.92646
# Velocity P-wave (km/s) = 9.40469 6.00288 7.88932
#
# Compressibility (1/GPa) = 0.04378964
#
# Stress axis : x y z
#
# Youngs Moduli (GPa) = 84.11471 39.25938 133.91759
#
# Poissons Ratio (x) = -0.09106 0.51823
# Poissons Ratio (y) = -0.19509 -0.13814
# Poissons Ratio (z) = 0.32550 -0.04050
#
# Static dielectric constant tensor:
#      x y z
#    x 1.695350 0.000000 0.000000 
#    y 0.000000 1.820520 0.000000 
#    z 0.000000 0.000000 1.761650 
# 
# From -- ./inp_files/16649.got.cif
#   From: 2010.05.17/outbox.cif.g08.bks.cpg/sg71_9_cif.got.tgz:16649.got - 2010.06.03 16:22:01.
