data_PCOD9520060
_publ_section_title
;
Structure prediction by ZEFSAII (Michael W. Deem and Ramdas Pophale) SiO2 
 PCOD9520060
Probable space group: I M M M
;
_chemical_formula_sum "Si O2"
_cell_formula_units_Z 88
_cell_length_a 21.123209
_cell_length_b 25.978643
_cell_length_c 7.456745
_cell_angle_alpha 90.000000
_cell_angle_beta 90.000000
_cell_angle_gamma 90.000000
_cell_volume 4091.906011
_symmetry_space_group_name_H-M "I M M M"
_symmetry_group_IT_number 71
_symmetry_cell_setting 'orthorhombic'
loop_
_space_group_symop_operation_xyz
x,y,z
-x,-y,z
x,-y,-z
-x,y,-z
-x,-y,-z
x,y,-z
-x,y,z
x,-y,z
1/2+x,1/2+y,1/2+z
1/2-x,1/2-y,1/2+z
1/2+x,1/2-y,1/2-z
1/2-x,1/2+y,1/2-z
1/2-x,1/2-y,1/2-z
1/2+x,1/2+y,1/2-z
1/2-x,1/2+y,1/2+z
1/2+x,1/2-y,1/2+z
loop_
_atom_site_type_symbol
_atom_site_label
_atom_site_fract_x
_atom_site_fract_y
_atom_site_fract_z
Si Si1 0.625916 0.837945 0.797429
Si Si2 0.000000 0.835235 0.715582
Si Si3 0.000000 0.715591 0.718734
Si Si4 0.925946 0.556206 0.783959
Si Si5 0.869714 0.109675 0.793425
Si Si6 0.424331 0.500000 0.280239
Si Si7 0.760851 0.188936 0.784413
O O1 0.564519 0.810664 0.714536
O O2 0.610283 0.897565 0.802360
O O3 0.694297 0.832527 0.713681
O O4 0.631350 0.816506 0.000000
O O5 0.063001 0.861677 0.786444
O O6 0.000000 0.839489 0.500000
O O7 0.000000 0.775253 0.762394
O O8 0.000000 0.709317 0.500000
O O9 0.902954 0.500000 0.731075
O O10 0.000000 0.560232 0.737056
O O11 0.922002 0.560315 0.000000
O O12 0.818386 0.151640 0.717928
O O13 0.887175 0.052205 0.720732
O O14 0.850783 0.100505 0.000000
O O15 0.500000 0.500000 0.227386
O O16 0.425391 0.500000 0.500000
O O17 0.750000 0.250000 0.750000
O O18 0.766005 0.185209 0.000000
#
# Coordination Sequence:
#
# PCOD9520060 Si02
#       7
#    16   8   8  16  16   8  16
#     4  10  19  34  53  77 106 139 181 227 274 324
#     4  11  21  34  56  84 111 142 179 228 283 336
#     4   9  18  31  49  73 107 141 173 218 275 328
#     4   9  18  33  52  75 104 137 174 217 268 325
#     4  10  20  37  58  82 111 148 190 230 280 343
#     4   9  16  32  60  84 108 143 183 234 287 336
#     4  10  22  38  57  82 114 149 189 233 280 340
#
# _framework density 21.505870999999999
#
# number of rings (size 3 to 8) (size 9 to 14) (size 15 to 20)
#    0.000    2.273    1.818    1.909    0.000    3.273 
#    1.636    3.636    0.000    0.000    0.000    0.000 
#    0.000    0.000    0.000    0.000    0.000    0.000 
#
# Total GULP energy -245176.401415 kJ/mol
# GULP energy per Si atom -5572.190941 kJ/mol
# Density = 2.145692 g / cm^3
# Si number density = 21.505871 Si / 1000 Ang^3
#
#
#
# Elastic Constant Matrix: (Units=GPa)
#
#
# Indices 1 2 3 4 5 6 
#
# 1 162.9562 100.6480 4.5970 0.0000 0.0000 0.0000
# 2 100.6480 190.3002 5.4968 0.0000 0.0000 0.0000
# 3 4.5970 5.4968 62.3133 0.0000 0.0000 0.0000
# 4 0.0000 0.0000 0.0000 3.0219 0.0000 0.0000
# 5 0.0000 0.0000 0.0000 0.0000 -11.3753 0.0000
# 6 0.0000 0.0000 0.0000 0.0000 0.0000 62.6725
#
#
#
# Elastic Compliance Matrix: (Units=1/GPa)
#
#
# Indices 1 2 3 4 5 6 
#
# 1 0.009118 -0.004815 -0.000248 0.000000 0.000000 0.000000
# 2 -0.004815 0.007811 -0.000334 0.000000 0.000000 0.000000
# 3 -0.000248 -0.000334 0.016096 0.000000 0.000000 0.000000
# 4 0.000000 0.000000 0.000000 0.330915 0.000000 0.000000
# 5 0.000000 0.000000 0.000000 0.000000 -0.087910 0.000000
# 6 0.000000 0.000000 0.000000 0.000000 0.000000 0.015956
#
#
# Mechanical properties :
#
#
# Convention : Reuss Voigt Hill
#
# Bulk Modulus (GPa) = 44.98244 70.78370 57.88307
# Shear Modulus (GPa) = 16.11917 31.18567 23.65242
#
# Velocity S-wave (km/s) = 2.74071 3.81215 3.31994
# Velocity P-wave (km/s) = 5.56571 7.23614 6.45519
#
# Compressibility (1/GPa) = 0.02223090
#
# Stress axis : x y z
#
# Youngs Moduli (GPa) = 109.67848 128.02255 62.12846
#
# Poissons Ratio (x) = 0.61643 0.01540
# Poissons Ratio (y) = 0.52811 0.02074
# Poissons Ratio (z) = 0.02719 0.04274
#
# Static dielectric constant tensor:
#      x y z
#    x 1.762990 0.000000 0.000000 
#    y 0.000000 1.792490 0.000000 
#    z 0.000000 0.000000 1.506610 
# 
# From -- ./inp_files/10521.got.cif
#   From: 2010.05.17/outbox.cif.g08.bks.cpg/sg71_6_cif.got.tgz:10521.got - 2010.06.03 16:22:01.
