data_PCOD9520307
_publ_section_title
;
Structure prediction by ZEFSAII (Michael W. Deem and Ramdas Pophale) SiO2 
 PCOD9520307
Probable space group: I M M M
;
_chemical_formula_sum "Si O2"
_cell_formula_units_Z 72
_cell_length_a 7.619198
_cell_length_b 20.010510
_cell_length_c 23.047419
_cell_angle_alpha 90.000000
_cell_angle_beta 90.000000
_cell_angle_gamma 90.000000
_cell_volume 3513.902561
_symmetry_space_group_name_H-M "I M M M"
_symmetry_group_IT_number 71
_symmetry_cell_setting 'orthorhombic'
loop_
_space_group_symop_operation_xyz
x,y,z
-x,-y,z
x,-y,-z
-x,y,-z
-x,-y,-z
x,y,-z
-x,y,z
x,-y,z
1/2+x,1/2+y,1/2+z
1/2-x,1/2-y,1/2+z
1/2+x,1/2-y,1/2-z
1/2-x,1/2+y,1/2-z
1/2-x,1/2-y,1/2-z
1/2+x,1/2+y,1/2-z
1/2-x,1/2+y,1/2+z
1/2+x,1/2-y,1/2+z
loop_
_atom_site_type_symbol
_atom_site_label
_atom_site_fract_x
_atom_site_fract_y
_atom_site_fract_z
Si Si1 0.792003 0.163838 0.612840
Si Si2 0.211294 0.075379 0.850288
Si Si3 0.709637 0.803398 0.934305
Si Si4 0.214485 0.076612 0.281173
Si Si5 0.789369 0.576645 0.000000
O O1 0.719132 0.236763 0.596920
O O2 0.720314 0.127249 0.669930
O O3 0.769736 0.116222 0.557151
O O4 0.000000 0.171849 0.623007
O O5 0.260929 0.130837 0.896578
O O6 0.270252 0.092288 0.784661
O O7 0.000000 0.073157 0.848666
O O8 0.272959 0.000000 0.864169
O O9 0.500000 0.794316 0.938806
O O10 0.778633 0.808963 0.000000
O O11 0.000000 0.077486 0.281840
O O12 0.265978 0.000000 0.294397
O O13 0.726083 0.500000 0.000000
O O14 0.000000 0.575806 0.000000
#
# Coordination Sequence:
#
# PCOD9520307 Si02
#       5
#    16  16  16  16   8
#     4  10  19  35  57  78 103 142 184 216 255 313
#     4   9  19  36  56  79 105 134 174 221 268 321
#     4  10  21  36  52  76 109 139 174 223 267 308
#     4   8  15  30  54  81 105 132 174 224 261 301
#     4  11  23  35  49  77 114 145 176 219 263 302
#
# _framework density 20.490038999999999
#
# number of rings (size 3 to 8) (size 9 to 14) (size 15 to 20)
#    0.000    2.556    1.111    2.333    0.000    4.889 
#    0.000    3.333    0.000    1.333    0.000    0.000 
#    0.000    0.000    0.000    0.000    0.000    0.000 
#
# Total GULP energy -200954.588731 kJ/mol
# GULP energy per Si atom -5582.071909 kJ/mol
# Density = 2.044340 g / cm^3
# Si number density = 20.490039 Si / 1000 Ang^3
#
#
#
# Elastic Constant Matrix: (Units=GPa)
#
#
# Indices 1 2 3 4 5 6 
#
# 1 39.4777 0.8495 4.0800 0.0000 0.0000 0.0000
# 2 0.8495 185.3147 135.2750 0.0000 0.0000 0.0000
# 3 4.0800 135.2750 168.7933 0.0000 0.0000 0.0000
# 4 0.0000 0.0000 0.0000 101.9848 0.0000 0.0000
# 5 0.0000 0.0000 0.0000 0.0000 6.5172 0.0000
# 6 0.0000 0.0000 0.0000 0.0000 0.0000 19.5739
#
#
#
# Elastic Compliance Matrix: (Units=1/GPa)
#
#
# Indices 1 2 3 4 5 6 
#
# 1 0.025443 0.000801 -0.001257 0.000000 0.000000 0.000000
# 2 0.000801 0.013029 -0.010461 0.000000 0.000000 0.000000
# 3 -0.001257 -0.010461 0.014338 0.000000 0.000000 0.000000
# 4 0.000000 0.000000 0.000000 0.009805 0.000000 0.000000
# 5 0.000000 0.000000 0.000000 0.000000 0.153441 0.000000
# 6 0.000000 0.000000 0.000000 0.000000 0.000000 0.051088
#
#
# Mechanical properties :
#
#
# Convention : Reuss Voigt Hill
#
# Bulk Modulus (GPa) = 32.28226 74.88829 53.58527
# Shear Modulus (GPa) = 16.70541 42.50727 29.60634
#
# Velocity S-wave (km/s) = 2.85843 4.55965 3.80533
# Velocity P-wave (km/s) = 5.16561 8.02175 6.74655
#
# Compressibility (1/GPa) = 0.03097677
#
# Stress axis : x y z
#
# Youngs Moduli (GPa) = 39.30290 76.75335 69.74281
#
# Poissons Ratio (x) = -0.06146 0.08765
# Poissons Ratio (y) = -0.03147 0.72957
# Poissons Ratio (z) = 0.04939 0.80291
#
# Static dielectric constant tensor:
#      x y z
#    x 1.787020 0.000000 0.000000 
#    y 0.000000 1.712740 0.000000 
#    z 0.000000 0.000000 1.704110 
# 
# From -- ./inp_files/9884.got.cif
#   From: 2010.05.17/outbox.cif.g08.bks.cpg/sg71_5_cif.got.tgz:9884.got - 2010.06.03 16:22:01.
