data_PCOD9520881
_publ_section_title
;
Structure prediction by ZEFSAII (Michael W. Deem and Ramdas Pophale) SiO2 
 PCOD9520881
Probable space group: I M M M
;
_chemical_formula_sum "Si O2"
_cell_formula_units_Z 104
_cell_length_a 24.477601
_cell_length_b 8.878501
_cell_length_c 28.360721
_cell_angle_alpha 90.000000
_cell_angle_beta 90.000000
_cell_angle_gamma 90.000000
_cell_volume 6163.476815
_symmetry_space_group_name_H-M "I M M M"
_symmetry_group_IT_number 71
_symmetry_cell_setting 'orthorhombic'
loop_
_space_group_symop_operation_xyz
x,y,z
-x,-y,z
x,-y,-z
-x,y,-z
-x,-y,-z
x,y,-z
-x,y,z
x,-y,z
1/2+x,1/2+y,1/2+z
1/2-x,1/2-y,1/2+z
1/2+x,1/2-y,1/2-z
1/2-x,1/2+y,1/2-z
1/2-x,1/2-y,1/2-z
1/2+x,1/2+y,1/2-z
1/2-x,1/2+y,1/2+z
1/2+x,1/2-y,1/2+z
loop_
_atom_site_type_symbol
_atom_site_label
_atom_site_fract_x
_atom_site_fract_y
_atom_site_fract_z
Si Si1 0.065876 0.669931 0.000000
Si Si2 0.256803 0.175718 0.446369
Si Si3 0.664007 0.174781 0.361332
Si Si4 0.241753 0.320401 0.698747
Si Si5 0.063085 0.316489 0.554141
Si Si6 0.664237 0.180599 0.115748
Si Si7 0.935895 0.821453 0.099381
O O1 0.078436 0.759380 0.047437
O O2 0.089287 0.500000 0.000000
O O3 0.000000 0.656274 0.000000
O O4 0.267686 0.219193 0.500000
O O5 0.309603 0.186073 0.413414
O O6 0.209582 0.273880 0.422731
O O7 0.239496 0.000000 0.445231
O O8 0.704181 0.272924 0.329672
O O9 0.603220 0.237549 0.364190
O O10 0.665678 0.000000 0.346892
O O11 0.237683 0.500000 0.702779
O O12 0.250000 0.250000 0.750000
O O13 0.190093 0.266814 0.666049
O O14 0.077841 0.271190 0.500000
O O15 0.063971 0.500000 0.554381
O O16 0.106529 0.265084 0.593741
O O17 0.000000 0.271042 0.562799
O O18 0.660861 0.000000 0.119019
O O19 0.000000 0.791379 0.107536
O O20 0.927015 0.000000 0.101041
#
# Coordination Sequence:
#
# PCOD9520881 Si02
#       7
#     8  16  16  16  16  16  16
#     4   9  17  29  45  65  91 129 173 207 236 275
#     4   9  18  30  43  64  96 130 159 193 238 285
#     4  10  20  33  51  73  97 126 164 204 247 301
#     4  10  20  35  54  74  96 122 159 207 260 310
#     4   8  13  22  40  69 103 134 160 187 223 270
#     4   9  17  29  47  71  95 122 160 201 237 283
#     4  10  20  33  48  69  99 132 166 205 247 291
#
# _framework density 16.873593
#
# number of rings (size 3 to 8) (size 9 to 14) (size 15 to 20)
#    0.000    2.692    0.000    2.538    1.077    4.000 
#    0.000    0.000    0.000    1.385    0.000    4.308 
#    0.000    0.000    0.000    0.000    0.000    0.000 
#
# Total GULP energy -289612.071588 kJ/mol
# GULP energy per Si atom -5569.462915 kJ/mol
# Density = 1.683519 g / cm^3
# Si number density = 16.873593 Si / 1000 Ang^3
#
#
#
# Elastic Constant Matrix: (Units=GPa)
#
#
# Indices 1 2 3 4 5 6 
#
# 1 81.0282 25.2620 37.2541 0.0000 0.0000 0.0000
# 2 25.2620 24.7641 23.0651 0.0000 0.0000 0.0000
# 3 37.2541 23.0651 104.8483 0.0000 0.0000 0.0000
# 4 0.0000 0.0000 0.0000 24.0171 0.0000 0.0000
# 5 0.0000 0.0000 0.0000 0.0000 14.6943 0.0000
# 6 0.0000 0.0000 0.0000 0.0000 0.0000 17.8329
#
#
#
# Elastic Compliance Matrix: (Units=1/GPa)
#
#
# Indices 1 2 3 4 5 6 
#
# 1 0.018868 -0.016354 -0.003106 0.000000 0.000000 0.000000
# 2 -0.016354 0.064962 -0.008480 0.000000 0.000000 0.000000
# 3 -0.003106 -0.008480 0.012507 0.000000 0.000000 0.000000
# 4 0.000000 0.000000 0.000000 0.041637 0.000000 0.000000
# 5 0.000000 0.000000 0.000000 0.000000 0.068054 0.000000
# 6 0.000000 0.000000 0.000000 0.000000 0.000000 0.056076
#
#
# Mechanical properties :
#
#
# Convention : Reuss Voigt Hill
#
# Bulk Modulus (GPa) = 24.71818 42.42256 33.57037
# Shear Modulus (GPa) = 15.08428 19.64615 17.36522
#
# Velocity S-wave (km/s) = 2.99316 3.41591 3.21149
# Velocity P-wave (km/s) = 5.16005 6.38387 5.80431
#
# Compressibility (1/GPa) = 0.04045605
#
# Stress axis : x y z
#
# Youngs Moduli (GPa) = 52.99867 15.39358 79.95653
#
# Poissons Ratio (x) = 0.25175 0.24838
# Poissons Ratio (y) = 0.86676 0.67801
# Poissons Ratio (z) = 0.16464 0.13053
#
# Static dielectric constant tensor:
#      x y z
#    x 1.589330 0.000000 0.000000 
#    y 0.000000 1.572710 0.000000 
#    z 0.000000 0.000000 1.571070 
# 
# From -- ./inp_files/58227.got.cif
#   From: 2010.05.17/outbox.cif.g08.bks.cpg/sg71_30_cif.got.tgz:58227.got - 2010.06.03 16:22:01.
