data_PCOD9520738
_publ_section_title
;
Structure prediction by ZEFSAII (Michael W. Deem and Ramdas Pophale) SiO2 
 PCOD9520738
Probable space group: I M M M
;
_chemical_formula_sum "Si O2"
_cell_formula_units_Z 88
_cell_length_a 24.579415
_cell_length_b 9.447352
_cell_length_c 22.093984
_cell_angle_alpha 90.000000
_cell_angle_beta 90.000000
_cell_angle_gamma 90.000000
_cell_volume 5130.452541
_symmetry_space_group_name_H-M "I M M M"
_symmetry_group_IT_number 71
_symmetry_cell_setting 'orthorhombic'
loop_
_space_group_symop_operation_xyz
x,y,z
-x,-y,z
x,-y,-z
-x,y,-z
-x,-y,-z
x,y,-z
-x,y,z
x,-y,z
1/2+x,1/2+y,1/2+z
1/2-x,1/2-y,1/2+z
1/2+x,1/2-y,1/2-z
1/2-x,1/2+y,1/2-z
1/2-x,1/2-y,1/2-z
1/2+x,1/2+y,1/2-z
1/2-x,1/2+y,1/2+z
1/2+x,1/2-y,1/2+z
loop_
_atom_site_type_symbol
_atom_site_label
_atom_site_fract_x
_atom_site_fract_y
_atom_site_fract_z
Si Si1 0.436576 0.167485 0.427713
Si Si2 0.874400 0.160167 0.706777
Si Si3 0.065328 0.660066 0.383935
Si Si4 0.848119 0.167349 0.150473
Si Si5 0.566386 0.338739 0.000000
Si Si6 0.252201 0.666617 0.186429
O O1 0.429691 0.187813 0.500000
O O2 0.500000 0.199321 0.413288
O O3 0.394642 0.262513 0.390427
O O4 0.427686 0.000000 0.415158
O O5 0.914133 0.273118 0.678092
O O6 0.864833 0.179648 0.778452
O O7 0.816316 0.172631 0.672354
O O8 0.894868 0.000000 0.697575
O O9 0.084800 0.500000 0.391374
O O10 0.083726 0.756530 0.439902
O O11 0.000000 0.658803 0.384701
O O12 0.791468 0.253791 0.144687
O O13 0.841077 0.000000 0.138067
O O14 0.585088 0.500000 0.000000
O O15 0.500000 0.339755 0.000000
O O16 0.238101 0.500000 0.193481
O O17 0.250000 0.750000 0.250000
#
# Coordination Sequence:
#
# PCOD9520738 Si02
#       6
#    16  16  16  16   8  16
#     4   9  19  36  56  77 103 138 178 218 264 319
#     4   9  19  33  49  73 103 134 168 207 254 305
#     4  10  20  32  48  72 100 130 166 207 249 294
#     4  10  20  33  52  78 105 135 171 212 258 309
#     4   9  17  31  51  69  89 125 165 197 236 289
#     4   9  17  31  51  74 100 131 168 207 250 303
#
# _framework density 17.152484000000001
#
# number of rings (size 3 to 8) (size 9 to 14) (size 15 to 20)
#    0.000    2.636    0.000    3.545    0.000    8.000 
#    0.000    4.545    2.000    0.000    0.000    0.000 
#    0.000    0.000    0.000    0.000    0.000    0.000 
#
# Total GULP energy -245103.897610 kJ/mol
# GULP energy per Si atom -5570.543128 kJ/mol
# Density = 1.711344 g / cm^3
# Si number density = 17.152484 Si / 1000 Ang^3
#
#
#
# Elastic Constant Matrix: (Units=GPa)
#
#
# Indices 1 2 3 4 5 6 
#
# 1 52.9142 47.0689 27.8202 0.0000 0.0000 0.0000
# 2 47.0689 132.8178 44.2427 0.0000 0.0000 0.0000
# 3 27.8202 44.2427 39.1762 0.0000 0.0000 0.0000
# 4 0.0000 0.0000 0.0000 27.0029 0.0000 0.0000
# 5 0.0000 0.0000 0.0000 0.0000 19.2871 0.0000
# 6 0.0000 0.0000 0.0000 0.0000 0.0000 29.7920
#
#
#
# Elastic Compliance Matrix: (Units=1/GPa)
#
#
# Indices 1 2 3 4 5 6 
#
# 1 0.033111 -0.006255 -0.016449 0.000000 0.000000 0.000000
# 2 -0.006255 0.013251 -0.010523 0.000000 0.000000 0.000000
# 3 -0.016449 -0.010523 0.049091 0.000000 0.000000 0.000000
# 4 0.000000 0.000000 0.000000 0.037033 0.000000 0.000000
# 5 0.000000 0.000000 0.000000 0.000000 0.051848 0.000000
# 6 0.000000 0.000000 0.000000 0.000000 0.000000 0.033566
#
#
# Mechanical properties :
#
#
# Convention : Reuss Voigt Hill
#
# Bulk Modulus (GPa) = 34.48467 51.46351 42.97409
# Shear Modulus (GPa) = 17.00564 22.26817 19.63690
#
# Velocity S-wave (km/s) = 3.15213 3.60703 3.38722
# Velocity P-wave (km/s) = 5.77895 6.88594 6.35659
#
# Compressibility (1/GPa) = 0.02899839
#
# Stress axis : x y z
#
# Youngs Moduli (GPa) = 30.20184 75.46609 20.37032
#
# Poissons Ratio (x) = 0.47200 0.33508
# Poissons Ratio (y) = 0.18890 0.21436
# Poissons Ratio (z) = 0.49680 0.79414
#
# Static dielectric constant tensor:
#      x y z
#    x 1.598820 0.000000 0.000000 
#    y 0.000000 1.583240 0.000000 
#    z 0.000000 0.000000 1.565260 
# 
# From -- ./inp_files/14886.got.cif
#   From: 2010.05.17/outbox.cif.g08.bks.cpg/sg71_8_cif.got.tgz:14886.got - 2010.06.03 16:22:01.
