data_PCOD9520019
_publ_section_title
;
Structure prediction by ZEFSAII (Michael W. Deem and Ramdas Pophale) SiO2 
 PCOD9520019
Probable space group: I M M M
;
_chemical_formula_sum "Si O2"
_cell_formula_units_Z 100
_cell_length_a 9.158006
_cell_length_b 30.232510
_cell_length_c 20.882469
_cell_angle_alpha 90.000000
_cell_angle_beta 90.000000
_cell_angle_gamma 90.000000
_cell_volume 5781.718917
_symmetry_space_group_name_H-M "I M M M"
_symmetry_group_IT_number 71
_symmetry_cell_setting 'orthorhombic'
loop_
_space_group_symop_operation_xyz
x,y,z
-x,-y,z
x,-y,-z
-x,y,-z
-x,-y,-z
x,y,-z
-x,y,z
x,-y,z
1/2+x,1/2+y,1/2+z
1/2-x,1/2-y,1/2+z
1/2+x,1/2-y,1/2-z
1/2-x,1/2+y,1/2-z
1/2-x,1/2-y,1/2-z
1/2+x,1/2+y,1/2-z
1/2-x,1/2+y,1/2+z
1/2+x,1/2-y,1/2+z
loop_
_atom_site_type_symbol
_atom_site_label
_atom_site_fract_x
_atom_site_fract_y
_atom_site_fract_z
Si Si1 0.173973 0.948572 0.358927
Si Si2 0.338608 0.383142 0.369727
Si Si3 0.329492 0.947406 0.223375
Si Si4 0.674074 0.129818 0.426667
Si Si5 0.826101 0.705916 0.826194
Si Si6 0.326890 0.799517 0.176743
Si Si7 0.500000 0.397228 0.500000
O O1 0.249641 0.938817 0.290693
O O2 0.240534 0.914636 0.409381
O O3 0.000000 0.943446 0.353720
O O4 0.204999 0.000000 0.374663
O O5 0.500000 0.378560 0.338450
O O6 0.247652 0.419898 0.332167
O O7 0.254888 0.336968 0.363170
O O8 0.375104 0.395562 0.442663
O O9 0.500000 0.935233 0.228607
O O10 0.319229 0.000000 0.211046
O O11 0.701055 0.143268 0.500000
O O12 0.500000 0.122082 0.419323
O O13 0.715329 0.168083 0.376445
O O14 0.738780 0.751185 0.836701
O O15 0.801378 0.691329 0.752633
O O16 0.000000 0.714568 0.832890
O O17 0.500000 0.800219 0.165673
#
# Coordination Sequence:
#
# PCOD9520019 Si02
#       7
#    16  16  16  16  16  16   4
#     4  10  21  36  56  84 114 147 188 233 280 335
#     4  10  20  38  57  79 110 151 187 226 268 332
#     4  10  20  35  59  89 115 141 181 235 288 329
#     4  10  21  37  55  78 111 154 197 234 279 334
#     4   9  19  35  53  81 113 145 184 233 284 341
#     4  10  19  33  58  85 110 141 187 238 288 327
#     4   8  24  40  55  82 112 152 200 212 269 342
#
# _framework density 17.295894000000001
#
# number of rings (size 3 to 8) (size 9 to 14) (size 15 to 20)
#    0.480    1.760    0.000    2.880    0.000    5.120 
#    1.440    4.000    0.000    0.960    0.000    0.000 
#    0.000    0.000    0.000    0.000    0.000    0.000 
#
# Total GULP energy -278365.979200 kJ/mol
# GULP energy per Si atom -5567.319584 kJ/mol
# Density = 1.725653 g / cm^3
# Si number density = 17.295894 Si / 1000 Ang^3
#
#
#
# Elastic Constant Matrix: (Units=GPa)
#
#
# Indices 1 2 3 4 5 6 
#
# 1 65.8462 37.0805 33.0139 0.0000 0.0000 0.0000
# 2 37.0805 55.3497 44.5982 0.0000 0.0000 0.0000
# 3 33.0139 44.5982 71.3787 0.0002 0.0000 0.0000
# 4 0.0000 0.0000 0.0002 -3.8698 0.0000 0.0000
# 5 0.0000 0.0000 0.0000 0.0000 33.5499 0.0000
# 6 0.0000 0.0000 0.0000 0.0000 0.0000 29.3870
#
#
#
# Elastic Compliance Matrix: (Units=1/GPa)
#
#
# Indices 1 2 3 4 5 6 
#
# 1 0.024554 -0.014699 -0.002173 0.000000 0.000000 0.000000
# 2 -0.014699 0.045184 -0.021433 -0.000001 0.000000 0.000000
# 3 -0.002173 -0.021433 0.028406 0.000001 0.000000 0.000000
# 4 0.000000 -0.000001 0.000001 -0.258414 0.000000 0.000000
# 5 0.000000 0.000000 0.000000 0.000000 0.029806 0.000000
# 6 0.000000 0.000000 0.000000 0.000000 0.000000 0.034029
#
#
# Mechanical properties :
#
#
# Convention : Reuss Voigt Hill
#
# Bulk Modulus (GPa) = 46.43566 46.88441 46.66004
# Shear Modulus (GPa) = -395.26838 17.00558 -189.13140
#
# Velocity S-wave (km/s) = -15.13371 3.13903 -10.46842
# Velocity P-wave (km/s) = 16.68731 6.34855 10.91243
#
# Compressibility (1/GPa) = 0.02153517
#
# Stress axis : x y z
#
# Youngs Moduli (GPa) = 40.72737 22.13194 35.20374
#
# Poissons Ratio (x) = 0.32531 0.07648
# Poissons Ratio (y) = 0.59864 0.75451
# Poissons Ratio (z) = 0.08848 0.47435
#
# Static dielectric constant tensor:
#      x y z
#    x 1.579570 0.000000 0.000000 
#    y 0.000000 1.581020 0.000000 
#    z 0.000000 0.000000 1.563550 
# 
# From -- ./inp_files/51192.got.cif
#   From: 2010.05.17/outbox.cif.g08.bks.cpg/sg71_26_cif.got.tgz:51192.got - 2010.06.03 16:22:01.
