data_PCOD9520644
_publ_section_title
;
Structure prediction by ZEFSAII (Michael W. Deem and Ramdas Pophale) SiO2 
 PCOD9520644
Probable space group: I M M M
;
_chemical_formula_sum "Si O2"
_cell_formula_units_Z 80
_cell_length_a 20.460403
_cell_length_b 7.782208
_cell_length_c 26.201510
_cell_angle_alpha 90.000000
_cell_angle_beta 90.000000
_cell_angle_gamma 90.000000
_cell_volume 4171.990765
_symmetry_space_group_name_H-M "I M M M"
_symmetry_group_IT_number 71
_symmetry_cell_setting 'orthorhombic'
loop_
_space_group_symop_operation_xyz
x,y,z
-x,-y,z
x,-y,-z
-x,y,-z
-x,-y,-z
x,y,-z
-x,y,z
x,-y,z
1/2+x,1/2+y,1/2+z
1/2-x,1/2-y,1/2+z
1/2+x,1/2-y,1/2-z
1/2-x,1/2+y,1/2-z
1/2-x,1/2-y,1/2-z
1/2+x,1/2+y,1/2-z
1/2-x,1/2+y,1/2+z
1/2+x,1/2-y,1/2+z
loop_
_atom_site_type_symbol
_atom_site_label
_atom_site_fract_x
_atom_site_fract_y
_atom_site_fract_z
Si Si1 0.500000 0.807807 0.758729
Si Si2 0.109638 0.295726 0.443096
Si Si3 0.256048 0.207204 0.331667
Si Si4 0.259097 0.800007 0.444120
Si Si5 0.354458 0.207433 0.757076
Si Si6 0.500000 0.309379 0.133555
O O1 0.571549 0.727579 0.748757
O O2 0.500000 0.819172 0.819909
O O3 0.500000 0.000000 0.735566
O O4 0.081703 0.272690 0.500000
O O5 0.117270 0.500000 0.434598
O O6 0.180503 0.211122 0.442939
O O7 0.062419 0.218414 0.401591
O O8 0.275065 0.274089 0.388037
O O9 0.307038 0.267636 0.288571
O O10 0.183675 0.249209 0.309726
O O11 0.259214 0.000000 0.334011
O O12 0.278980 0.725512 0.500000
O O13 0.279329 0.000000 0.444530
O O14 0.357950 0.000000 0.755785
O O15 0.500000 0.500000 0.155565
#
# Coordination Sequence:
#
# PCOD9520644 Si02
#       6
#     8  16  16  16  16   8
#     4  10  20  33  47  64  87 115 148 184 223 266
#     4  10  20  32  44  59  82 113 148 183 216 252
#     4   9  17  30  47  67  90 116 147 182 221 265
#     4   9  17  29  45  65  88 113 142 178 220 264
#     4   9  18  31  47  66  88 116 149 184 222 264
#     4  12  23  31  42  59  82 113 147 183 219 258
#
# _framework density 19.175498999999999
#
# number of rings (size 3 to 8) (size 9 to 14) (size 15 to 20)
#    0.000    2.400    0.000    3.000    0.000    7.200 
#    0.000    0.000    0.000    0.000    0.000    0.700 
#    0.000    5.600    0.000    0.000    0.000   28.900 
#
# Total GULP energy -222866.254463 kJ/mol
# GULP energy per Si atom -5571.656362 kJ/mol
# Density = 1.913185 g / cm^3
# Si number density = 19.175499 Si / 1000 Ang^3
#
#
#
# Elastic Constant Matrix: (Units=GPa)
#
#
# Indices 1 2 3 4 5 6 
#
# 1 84.1697 0.2724 25.4768 0.0000 0.0000 0.0000
# 2 0.2724 39.3512 3.3822 0.0000 0.0000 0.0000
# 3 25.4768 3.3822 121.3191 0.0000 0.0000 0.0000
# 4 0.0000 0.0000 0.0000 13.4071 0.0000 0.0000
# 5 0.0000 0.0000 0.0000 0.0000 11.9209 0.0000
# 6 0.0000 0.0000 0.0000 0.0000 0.0000 8.5523
#
#
#
# Elastic Compliance Matrix: (Units=1/GPa)
#
#
# Indices 1 2 3 4 5 6 
#
# 1 0.012688 0.000142 -0.002668 0.000000 0.000000 0.000000
# 2 0.000142 0.025475 -0.000740 0.000000 0.000000 0.000000
# 3 -0.002668 -0.000740 0.008824 0.000000 0.000000 0.000000
# 4 0.000000 0.000000 0.000000 0.074587 0.000000 0.000000
# 5 0.000000 0.000000 0.000000 0.000000 0.083886 0.000000
# 6 0.000000 0.000000 0.000000 0.000000 0.000000 0.116928
#
#
# Mechanical properties :
#
#
# Convention : Reuss Voigt Hill
#
# Bulk Modulus (GPa) = 24.72011 33.67809 29.19910
# Shear Modulus (GPa) = 14.60255 21.15663 17.87959
#
# Velocity S-wave (km/s) = 2.76256 3.32522 3.05687
# Velocity P-wave (km/s) = 4.80574 5.68718 5.26494
#
# Compressibility (1/GPa) = 0.04045289
#
# Stress axis : x y z
#
# Youngs Moduli (GPa) = 78.81468 39.25451 113.33095
#
# Poissons Ratio (x) = -0.00556 0.30241
# Poissons Ratio (y) = -0.01115 0.08386
# Poissons Ratio (z) = 0.21031 0.02905
#
# Static dielectric constant tensor:
#      x y z
#    x 1.666920 0.000000 0.000000 
#    y 0.000000 1.733560 0.000000 
#    z 0.000000 0.000000 1.726790 
# 
# From -- ./inp_files/10751.got.cif
#   From: 2010.05.17/outbox.cif.g08.bks.cpg/sg71_6_cif.got.tgz:10751.got - 2010.06.03 16:22:01.
