data_PCOD9520858
_publ_section_title
;
Structure prediction by ZEFSAII (Michael W. Deem and Ramdas Pophale) SiO2 
 PCOD9520858
Probable space group: I M M M
;
_chemical_formula_sum "Si O2"
_cell_formula_units_Z 72
_cell_length_a 19.519241
_cell_length_b 7.388492
_cell_length_c 22.561009
_cell_angle_alpha 90.000000
_cell_angle_beta 90.000000
_cell_angle_gamma 90.000000
_cell_volume 3253.698091
_symmetry_space_group_name_H-M "I M M M"
_symmetry_group_IT_number 71
_symmetry_cell_setting 'orthorhombic'
loop_
_space_group_symop_operation_xyz
x,y,z
-x,-y,z
x,-y,-z
-x,y,-z
-x,-y,-z
x,y,-z
-x,y,z
x,-y,z
1/2+x,1/2+y,1/2+z
1/2-x,1/2-y,1/2+z
1/2+x,1/2-y,1/2-z
1/2-x,1/2+y,1/2-z
1/2-x,1/2-y,1/2-z
1/2+x,1/2+y,1/2-z
1/2-x,1/2+y,1/2+z
1/2+x,1/2-y,1/2+z
loop_
_atom_site_type_symbol
_atom_site_label
_atom_site_fract_x
_atom_site_fract_y
_atom_site_fract_z
Si Si1 0.918620 0.500000 0.429843
Si Si2 0.076874 0.721172 0.754296
Si Si3 0.777766 0.212017 0.935892
Si Si4 0.325139 0.204477 0.844811
Si Si5 0.575638 0.781713 0.391573
O O1 0.904718 0.500000 0.500000
O O2 0.882897 0.667177 0.395523
O O3 0.000000 0.500000 0.420647
O O4 0.077813 0.500000 0.751562
O O5 0.136444 0.787791 0.711056
O O6 0.085174 0.772606 0.822815
O O7 0.000000 0.775250 0.735418
O O8 0.738365 0.291007 0.879140
O O9 0.858926 0.221032 0.927773
O O10 0.757897 0.000000 0.936732
O O11 0.758747 0.288991 0.000000
O O12 0.303201 0.000000 0.825374
O O13 0.500000 0.720968 0.411247
O O14 0.575303 0.000000 0.393159
#
# Coordination Sequence:
#
# PCOD9520858 Si02
#       5
#     8  16  16  16  16
#     4   9  14  20  36  64  97 129 158 186 219 266
#     4   8  13  25  45  68  93 120 152 190 234 278
#     4  10  20  33  47  66  97 130 154 188 241 290
#     4   8  15  24  41  64  93 127 151 181 222 282
#     4   9  19  34  51  70  90 116 158 208 242 277
#
# _framework density 22.128667
#
# number of rings (size 3 to 8) (size 9 to 14) (size 15 to 20)
#    0.667    2.556    0.000    2.667    0.000    2.222 
#    0.000    2.222    0.000    0.000    0.000    0.000 
#    0.000    2.667    0.000   10.889    0.000    0.000 
#
# Total GULP energy -200630.967331 kJ/mol
# GULP energy per Si atom -5573.082426 kJ/mol
# Density = 2.207830 g / cm^3
# Si number density = 22.128667 Si / 1000 Ang^3
#
#
#
# Elastic Constant Matrix: (Units=GPa)
#
#
# Indices 1 2 3 4 5 6 
#
# 1 96.7209 -0.9470 21.3355 0.0000 0.0000 0.0000
# 2 -0.9470 67.0013 0.7483 0.0000 0.0000 0.0000
# 3 21.3355 0.7483 40.8683 0.0000 0.0000 0.0000
# 4 0.0000 0.0000 0.0000 -7.4531 0.0000 0.0000
# 5 0.0000 0.0000 0.0000 0.0000 33.9531 0.0000
# 6 0.0000 0.0000 0.0000 0.0000 0.0000 -0.3580
#
#
#
# Elastic Compliance Matrix: (Units=1/GPa)
#
#
# Indices 1 2 3 4 5 6 
#
# 1 0.011688 0.000233 -0.006106 0.000000 0.000000 0.000000
# 2 0.000233 0.014933 -0.000395 0.000000 0.000000 0.000000
# 3 -0.006106 -0.000395 0.027664 0.000000 0.000000 0.000000
# 4 0.000000 0.000000 0.000000 -0.134172 0.000000 0.000000
# 5 0.000000 0.000000 0.000000 0.000000 0.029452 0.000000
# 6 0.000000 0.000000 0.000000 0.000000 0.000000 -2.793304
#
#
# Mechanical properties :
#
#
# Convention : Reuss Voigt Hill
#
# Bulk Modulus (GPa) = 23.95277 27.42933 25.69105
# Shear Modulus (GPa) = -1.77476 17.45864 7.84194
#
# Velocity S-wave (km/s) = -0.89653 2.81189 1.88454
# Velocity P-wave (km/s) = 3.12668 4.79214 4.04603
#
# Compressibility (1/GPa) = 0.04174882
#
# Stress axis : x y z
#
# Youngs Moduli (GPa) = 85.55586 66.96670 36.14823
#
# Poissons Ratio (x) = -0.01563 0.22073
# Poissons Ratio (y) = -0.01997 0.01429
# Poissons Ratio (z) = 0.52242 0.02647
#
# Static dielectric constant tensor:
#      x y z
#    x 1.823820 0.000000 0.000000 
#    y 0.000000 1.937300 0.000000 
#    z 0.000000 0.000000 1.823200 
# 
# From -- ./inp_files/60362.got.cif
#   From: 2010.05.17/outbox.cif.g08.bks.cpg/sg71_31_cif.got.tgz:60362.got - 2010.06.03 16:22:01.
