data_PCOD9520918
_publ_section_title
;
Structure prediction by ZEFSAII (Michael W. Deem and Ramdas Pophale) SiO2 
 PCOD9520918
Probable space group: I M M M
;
_chemical_formula_sum "Si O2"
_cell_formula_units_Z 88
_cell_length_a 7.704937
_cell_length_b 24.047028
_cell_length_c 23.717649
_cell_angle_alpha 90.000000
_cell_angle_beta 90.000000
_cell_angle_gamma 90.000000
_cell_volume 4394.425829
_symmetry_space_group_name_H-M "I M M M"
_symmetry_group_IT_number 71
_symmetry_cell_setting 'orthorhombic'
loop_
_space_group_symop_operation_xyz
x,y,z
-x,-y,z
x,-y,-z
-x,y,-z
-x,-y,-z
x,y,-z
-x,y,z
x,-y,z
1/2+x,1/2+y,1/2+z
1/2-x,1/2-y,1/2+z
1/2+x,1/2-y,1/2-z
1/2-x,1/2+y,1/2-z
1/2-x,1/2-y,1/2-z
1/2+x,1/2+y,1/2-z
1/2-x,1/2+y,1/2+z
1/2+x,1/2-y,1/2+z
loop_
_atom_site_type_symbol
_atom_site_label
_atom_site_fract_x
_atom_site_fract_y
_atom_site_fract_z
Si Si1 0.291154 0.440388 0.566537
Si Si2 0.296682 0.818511 0.935956
Si Si3 0.798084 0.240594 0.828485
Si Si4 0.302545 0.655874 0.762013
Si Si5 0.793053 0.066251 0.653231
Si Si6 0.500000 0.067489 0.435496
O O1 0.244301 0.441161 0.500000
O O2 0.500000 0.439316 0.570184
O O3 0.231706 0.500000 0.590721
O O4 0.226091 0.381299 0.587569
O O5 0.500000 0.806705 0.938229
O O6 0.213183 0.775620 0.893205
O O7 0.226471 0.817123 0.000000
O O8 0.702943 0.296470 0.810186
O O9 0.725801 0.188777 0.791412
O O10 0.000000 0.248205 0.812629
O O11 0.500000 0.642029 0.745652
O O12 0.231892 0.601006 0.792031
O O13 0.671041 0.082869 0.600641
O O14 0.000000 0.077452 0.644144
O O15 0.774620 0.000000 0.661620
O O16 0.500000 0.088095 0.500000
O O17 0.500000 0.000000 0.438150
#
# Coordination Sequence:
#
# PCOD9520918 Si02
#       6
#    16  16  16  16  16   8
#     4   8  14  26  45  67  91 124 166 207 248 299
#     4  10  20  33  49  71 103 138 171 214 265 316
#     4  10  20  34  55  79 101 135 179 220 267 318
#     4   9  19  36  56  79 105 133 173 222 266 319
#     4   9  18  34  57  83 113 148 182 225 279 328
#     4   9  18  32  52  82 116 148 185 221 262 330
#
# _framework density 20.025371
#
# number of rings (size 3 to 8) (size 9 to 14) (size 15 to 20)
#    0.000    2.818    0.000    1.636    1.273    2.545 
#    0.000    5.455    0.000    4.364    0.000    0.000 
#    0.000    0.000    0.000    0.000    0.000    0.000 
#
# Total GULP energy -245026.233229 kJ/mol
# GULP energy per Si atom -5568.778028 kJ/mol
# Density = 1.997979 g / cm^3
# Si number density = 20.025371 Si / 1000 Ang^3
#
#
#
# Elastic Constant Matrix: (Units=GPa)
#
#
# Indices 1 2 3 4 5 6 
#
# 1 56.4859 6.6762 5.4820 0.0000 0.0000 0.0000
# 2 6.6762 41.7636 30.5192 0.0000 0.0000 0.0000
# 3 5.4820 30.5192 51.7423 0.0000 0.0000 0.0000
# 4 0.0000 0.0000 0.0000 25.4511 0.0000 0.0000
# 5 0.0000 0.0000 0.0000 0.0000 13.5802 0.0000
# 6 0.0000 0.0000 0.0000 0.0000 0.0000 20.2303
#
#
#
# Elastic Compliance Matrix: (Units=1/GPa)
#
#
# Indices 1 2 3 4 5 6 
#
# 1 0.018049 -0.002615 -0.000370 0.000000 0.000000 0.000000
# 2 -0.002615 0.042462 -0.024768 0.000000 0.000000 0.000000
# 3 -0.000370 -0.024768 0.033975 0.000000 0.000000 0.000000
# 4 0.000000 0.000000 0.000000 0.039291 0.000000 0.000000
# 5 0.000000 0.000000 0.000000 0.000000 0.073637 0.000000
# 6 0.000000 0.000000 0.000000 0.000000 0.000000 0.049431
#
#
# Mechanical properties :
#
#
# Convention : Reuss Voigt Hill
#
# Bulk Modulus (GPa) = 25.65473 26.14961 25.90217
# Shear Modulus (GPa) = 15.36839 19.00659 17.18749
#
# Velocity S-wave (km/s) = 2.77329 3.08413 2.93283
# Velocity P-wave (km/s) = 4.80560 5.07632 4.94281
#
# Compressibility (1/GPa) = 0.03897916
#
# Stress axis : x y z
#
# Youngs Moduli (GPa) = 55.40625 23.55049 29.43355
#
# Poissons Ratio (x) = 0.06158 0.01089
# Poissons Ratio (y) = 0.14488 0.72902
# Poissons Ratio (z) = 0.02049 0.58331
#
# Static dielectric constant tensor:
#      x y z
#    x 1.755770 0.000000 0.000000 
#    y 0.000000 1.722190 0.000000 
#    z 0.000000 0.000000 1.724530 
# 
# From -- ./inp_files/50496.got.cif
#   From: 2010.05.17/outbox.cif.g08.bks.cpg/sg71_26_cif.got.tgz:50496.got - 2010.06.03 16:22:01.
