data_PCOD9520127
_publ_section_title
;
Structure prediction by ZEFSAII (Michael W. Deem and Ramdas Pophale) SiO2 
 PCOD9520127
Probable space group: I M M M
;
_chemical_formula_sum "Si O2"
_cell_formula_units_Z 88
_cell_length_a 25.313174
_cell_length_b 20.028857
_cell_length_c 7.486253
_cell_angle_alpha 90.000000
_cell_angle_beta 90.000000
_cell_angle_gamma 90.000000
_cell_volume 3795.484921
_symmetry_space_group_name_H-M "I M M M"
_symmetry_group_IT_number 71
_symmetry_cell_setting 'orthorhombic'
loop_
_space_group_symop_operation_xyz
x,y,z
-x,-y,z
x,-y,-z
-x,y,-z
-x,-y,-z
x,y,-z
-x,y,z
x,-y,z
1/2+x,1/2+y,1/2+z
1/2-x,1/2-y,1/2+z
1/2+x,1/2-y,1/2-z
1/2-x,1/2+y,1/2-z
1/2-x,1/2-y,1/2-z
1/2+x,1/2+y,1/2-z
1/2-x,1/2+y,1/2+z
1/2+x,1/2-y,1/2+z
loop_
_atom_site_type_symbol
_atom_site_label
_atom_site_fract_x
_atom_site_fract_y
_atom_site_fract_z
Si Si1 0.845595 0.227559 0.205040
Si Si2 0.871719 0.368240 0.207795
Si Si3 0.562959 0.000000 0.718349
Si Si4 0.252245 0.636065 0.717533
Si Si5 0.805631 0.000000 0.216470
Si Si6 0.426283 0.500000 0.714373
Si Si7 0.444274 0.350990 0.205999
O O1 0.874814 0.292775 0.285786
O O2 0.791211 0.196233 0.281378
O O3 0.890403 0.171365 0.203083
O O4 0.832614 0.245125 0.000000
O O5 0.904638 0.432628 0.277862
O O6 0.808058 0.373374 0.222392
O O7 0.887913 0.365007 0.000000
O O8 0.500000 0.000000 0.768447
O O9 0.564321 0.000000 0.500000
O O10 0.251591 0.640070 0.500000
O O11 0.279355 0.567836 0.776586
O O12 0.865652 0.000000 0.267788
O O13 0.802737 0.000000 0.000000
O O14 0.432040 0.500000 0.500000
O O15 0.447243 0.569532 0.783451
O O16 0.500000 0.323926 0.280277
O O17 0.440345 0.330918 0.000000
#
# Coordination Sequence:
#
# PCOD9520127 Si02
#       7
#    16  16   8  16   8   8  16
#     4  10  21  37  57  82 113 153 199 239 283 351
#     4  10  21  36  58  88 114 143 191 241 290 356
#     4   9  19  38  61  84 114 148 184 242 308 351
#     4  10  19  34  55  81 116 153 186 229 288 346
#     4   9  17  31  53  78 109 147 185 223 263 321
#     4  11  20  37  60  80 109 150 196 237 271 323
#     4  11  24  39  55  81 117 153 193 242 292 339
#
# _framework density 23.185441999999998
#
# number of rings (size 3 to 8) (size 9 to 14) (size 15 to 20)
#    0.000    1.909    1.818    2.182    0.000    4.727 
#    0.000    1.818    0.000    1.091    0.000    0.000 
#    0.000    0.000    0.000    0.000    0.000    0.000 
#
# Total GULP energy -245258.368752 kJ/mol
# GULP energy per Si atom -5574.053835 kJ/mol
# Density = 2.313267 g / cm^3
# Si number density = 23.185442 Si / 1000 Ang^3
#
#
#
# Elastic Constant Matrix: (Units=GPa)
#
#
# Indices 1 2 3 4 5 6 
#
# 1 156.2445 78.1004 -1.0268 0.0000 0.0000 0.0000
# 2 78.1004 170.0096 0.9022 0.0000 0.0000 0.0000
# 3 -1.0268 0.9022 69.3877 0.0000 0.0000 0.0000
# 4 0.0000 0.0000 0.0000 -9.8692 0.0000 0.0000
# 5 0.0000 0.0000 0.0000 0.0000 37.8810 0.0000
# 6 0.0000 0.0000 0.0000 0.0000 0.0000 31.5259
#
#
#
# Elastic Compliance Matrix: (Units=1/GPa)
#
#
# Indices 1 2 3 4 5 6 
#
# 1 0.008310 -0.003818 0.000173 0.000000 0.000000 0.000000
# 2 -0.003818 0.007637 -0.000156 0.000000 0.000000 0.000000
# 3 0.000173 -0.000156 0.014416 0.000000 0.000000 0.000000
# 4 0.000000 0.000000 0.000000 -0.101325 0.000000 0.000000
# 5 0.000000 0.000000 0.000000 0.000000 0.026398 0.000000
# 6 0.000000 0.000000 0.000000 0.000000 0.000000 0.031720
#
#
# Mechanical properties :
#
#
# Convention : Reuss Voigt Hill
#
# Bulk Modulus (GPa) = 43.93649 61.28816 52.61232
# Shear Modulus (GPa) = 2130.50505 33.08528 1081.79517
#
# Velocity S-wave (km/s) = 30.34621 3.78164 21.62398
# Velocity P-wave (km/s) = 35.31073 6.74974 25.42053
#
# Compressibility (1/GPa) = 0.02276013
#
# Stress axis : x y z
#
# Youngs Moduli (GPa) = 120.33618 130.94150 69.36566
#
# Poissons Ratio (x) = 0.49999 -0.01197
# Poissons Ratio (y) = 0.45950 0.01081
# Poissons Ratio (z) = -0.02077 0.02040
#
# Static dielectric constant tensor:
#      x y z
#    x 1.898900 0.000000 0.000000 
#    y 0.000000 1.946760 0.000000 
#    z 0.000000 0.000000 1.885920 
# 
# From -- ./inp_files/12625.got.cif
#   From: 2010.05.17/outbox.cif.g08.bks.cpg/sg71_7_cif.got.tgz:12625.got - 2010.06.03 16:22:01.
