data_PCOD9520564
_publ_section_title
;
Structure prediction by ZEFSAII (Michael W. Deem and Ramdas Pophale) SiO2 
 PCOD9520564
Probable space group: I M M M
;
_chemical_formula_sum "Si O2"
_cell_formula_units_Z 120
_cell_length_a 15.701618
_cell_length_b 31.950421
_cell_length_c 13.681763
_cell_angle_alpha 90.000000
_cell_angle_beta 90.000000
_cell_angle_gamma 90.000000
_cell_volume 6863.775269
_symmetry_space_group_name_H-M "I M M M"
_symmetry_group_IT_number 71
_symmetry_cell_setting 'orthorhombic'
loop_
_space_group_symop_operation_xyz
x,y,z
-x,-y,z
x,-y,-z
-x,y,-z
-x,-y,-z
x,y,-z
-x,y,z
x,-y,z
1/2+x,1/2+y,1/2+z
1/2-x,1/2-y,1/2+z
1/2+x,1/2-y,1/2-z
1/2-x,1/2+y,1/2-z
1/2-x,1/2-y,1/2-z
1/2+x,1/2+y,1/2-z
1/2-x,1/2+y,1/2+z
1/2+x,1/2-y,1/2+z
loop_
_atom_site_type_symbol
_atom_site_label
_atom_site_fract_x
_atom_site_fract_y
_atom_site_fract_z
Si Si1 0.900227 0.647267 0.116253
Si Si2 0.000000 0.047560 0.118085
Si Si3 0.250868 0.196650 0.118775
Si Si4 0.598816 0.355025 0.117592
Si Si5 0.252730 0.115172 0.746818
Si Si6 0.187810 0.050485 0.114273
Si Si7 0.595446 0.244579 0.382285
Si Si8 0.904815 0.242950 0.382373
O O1 0.835717 0.620388 0.179796
O O2 0.887127 0.696284 0.142939
O O3 0.000000 0.637931 0.132406
O O4 0.883294 0.643095 0.000000
O O5 0.091811 0.066297 0.141163
O O6 0.000000 0.000000 0.157032
O O7 0.000000 0.044601 0.000000
O O8 0.251597 0.153110 0.175095
O O9 0.167581 0.223246 0.147583
O O10 0.331715 0.225185 0.147445
O O11 0.251052 0.191073 0.000000
O O12 0.500000 0.366238 0.139259
O O13 0.670085 0.379757 0.177201
O O14 0.609488 0.305655 0.142662
O O15 0.610643 0.359286 0.000000
O O16 0.249014 0.073057 0.810129
O O17 0.188506 0.000000 0.121124
O O18 0.203894 0.060868 0.000000
O O19 0.595864 0.244890 0.500000
O O20 0.500000 0.256717 0.352170
O O21 0.903614 0.243319 0.500000
O O22 0.000000 0.256027 0.352750
#
# Coordination Sequence:
#
# PCOD9520564 Si02
#       8
#    16   8  16  16  16  16  16  16
#     4   9  19  36  55  74  99 136 182 224 257 296
#     4   7  12  28  54  76  95 129 169 193 220 278
#     4  10  20  31  43  68 105 135 167 216 262 299
#     4   9  19  34  49  70 103 139 173 207 247 301
#     4  12  22  30  52  81 102 128 171 219 266 305
#     4   9  19  37  58  79 107 140 169 200 244 307
#     4   8  15  30  48  64  94 142 181 208 250 303
#     4   8  15  30  48  62  89 139 181 205 242 298
#
# _framework density 17.483090000000001
#
# number of rings (size 3 to 8) (size 9 to 14) (size 15 to 20)
#    0.000    2.867    0.000    4.000    0.933    5.333 
#    0.000    2.667    0.000    3.200    0.000    2.800 
#    0.000    0.000    0.000    0.000    0.000    0.000 
#
# Total GULP energy -334616.404354 kJ/mol
# GULP energy per Si atom -5576.940073 kJ/mol
# Density = 1.744330 g / cm^3
# Si number density = 17.483090 Si / 1000 Ang^3
#
#
#
# Elastic Constant Matrix: (Units=GPa)
#
#
# Indices 1 2 3 4 5 6 
#
# 1 78.1722 37.2040 56.0408 0.0000 0.0000 0.0000
# 2 37.2040 39.2645 31.5829 0.0000 0.0000 0.0000
# 3 56.0408 31.5829 105.3758 0.0004 0.0001 0.0000
# 4 0.0000 0.0000 0.0004 27.2891 0.0000 0.0000
# 5 0.0000 0.0000 0.0001 0.0000 6.7416 0.0000
# 6 0.0000 0.0000 0.0000 0.0000 0.0000 24.1894
#
#
#
# Elastic Compliance Matrix: (Units=1/GPa)
#
#
# Indices 1 2 3 4 5 6 
#
# 1 0.029076 -0.019913 -0.009495 0.000000 0.000000 0.000000
# 2 -0.019913 0.047196 -0.003555 0.000000 0.000000 0.000000
# 3 -0.009495 -0.003555 0.015605 0.000000 0.000000 0.000000
# 4 0.000000 0.000000 0.000000 0.036645 0.000000 0.000000
# 5 0.000000 0.000000 0.000000 0.000000 0.148332 0.000000
# 6 0.000000 0.000000 0.000000 0.000000 0.000000 0.041340
#
#
# Mechanical properties :
#
#
# Convention : Reuss Voigt Hill
#
# Bulk Modulus (GPa) = 38.53463 52.49644 45.51554
# Shear Modulus (GPa) = 12.73006 18.17636 15.45321
#
# Velocity S-wave (km/s) = 2.70133 3.22786 2.97626
# Velocity P-wave (km/s) = 5.64079 6.63207 6.15641
#
# Compressibility (1/GPa) = 0.02595068
#
# Stress axis : x y z
#
# Youngs Moduli (GPa) = 34.39251 21.18825 64.08166
#
# Poissons Ratio (x) = 0.42192 0.60846
# Poissons Ratio (y) = 0.68485 0.22784
# Poissons Ratio (z) = 0.32656 0.07533
#
# Static dielectric constant tensor:
#      x y z
#    x 1.619010 0.000000 0.000000 
#    y 0.000000 1.564770 0.000000 
#    z 0.000000 0.000000 1.625420 
# 
# From -- ./inp_files/35468.got.cif
#   From: 2010.05.17/outbox.cif.g08.bks.cpg/sg71_18_cif.got.tgz:35468.got - 2010.06.03 16:22:01.
