data_PCOD9520417
_publ_section_title
;
Structure prediction by ZEFSAII (Michael W. Deem and Ramdas Pophale) SiO2 
 PCOD9520417
Probable space group: I M M M
;
_chemical_formula_sum "Si O2"
_cell_formula_units_Z 84
_cell_length_a 13.151483
_cell_length_b 16.113234
_cell_length_c 23.120595
_cell_angle_alpha 90.000000
_cell_angle_beta 90.000000
_cell_angle_gamma 90.000000
_cell_volume 4899.552869
_symmetry_space_group_name_H-M "I M M M"
_symmetry_group_IT_number 71
_symmetry_cell_setting 'orthorhombic'
loop_
_space_group_symop_operation_xyz
x,y,z
-x,-y,z
x,-y,-z
-x,y,-z
-x,-y,-z
x,y,-z
-x,y,z
x,-y,z
1/2+x,1/2+y,1/2+z
1/2-x,1/2-y,1/2+z
1/2+x,1/2-y,1/2-z
1/2-x,1/2+y,1/2-z
1/2-x,1/2-y,1/2-z
1/2+x,1/2+y,1/2-z
1/2-x,1/2+y,1/2+z
1/2+x,1/2-y,1/2+z
loop_
_atom_site_type_symbol
_atom_site_label
_atom_site_fract_x
_atom_site_fract_y
_atom_site_fract_z
Si Si1 0.621464 0.404800 0.307824
Si Si2 0.118050 0.840188 0.320516
Si Si3 0.728623 0.725165 0.390585
Si Si4 0.877542 0.682646 0.000000
Si Si5 0.388103 0.500000 0.902632
Si Si6 0.717221 0.000000 0.500000
Si Si7 0.113487 0.408768 0.431054
O O1 0.500000 0.409388 0.311029
O O2 0.659804 0.500000 0.315320
O O3 0.645705 0.370616 0.243780
O O4 0.658101 0.337471 0.354253
O O5 0.205043 0.781811 0.347063
O O6 0.000000 0.807104 0.319645
O O7 0.115948 0.919890 0.362046
O O8 0.670971 0.775104 0.441902
O O9 0.811421 0.664553 0.418305
O O10 0.847291 0.585036 0.000000
O O11 0.000000 0.692540 0.000000
O O12 0.500000 0.500000 0.931625
O O13 0.293941 0.500000 0.945708
O O14 0.106230 0.413933 0.500000
O O15 0.147067 0.500000 0.410042
O O16 0.000000 0.393090 0.407968
#
# Coordination Sequence:
#
# PCOD9520417 Si02
#       7
#    16  16  16   8   8   4  16
#     4  10  21  38  59  82 112 151 192 235 285 332
#     4  10  20  36  60  88 116 143 181 235 289 344
#     4  12  21  37  57  86 112 150 193 234 284 328
#     4  12  27  41  56  79 115 153 198 239 273 332
#     4  10  19  35  61  94 121 140 178 231 281 345
#     4  12  22  44  60  84 114 162 186 214 294 342
#     4   9  18  33  53  80 114 149 183 225 283 345
#
# _framework density 17.144421999999999
#
# number of rings (size 3 to 8) (size 9 to 14) (size 15 to 20)
#    0.000    1.524    3.810    3.143    0.000    0.000 
#    0.000    0.000    0.000    2.286    0.000    0.000 
#    0.000    0.000    0.000    0.000    0.000    0.000 
#
# Total GULP energy -234017.990308 kJ/mol
# GULP energy per Si atom -5571.856912 kJ/mol
# Density = 1.710540 g / cm^3
# Si number density = 17.144422 Si / 1000 Ang^3
#
#
#
# Elastic Constant Matrix: (Units=GPa)
#
#
# Indices 1 2 3 4 5 6 
#
# 1 90.7958 69.4225 47.6568 0.0000 0.0000 0.0000
# 2 69.4225 136.7637 62.3802 0.0000 0.0000 0.0000
# 3 47.6568 62.3802 103.9663 0.0000 0.0000 0.0000
# 4 0.0000 0.0000 0.0000 287.0207 0.0000 0.0000
# 5 0.0000 0.0000 0.0000 0.0000 27.4670 0.0000
# 6 0.0000 0.0000 0.0000 0.0000 0.0000 35.9687
#
#
#
# Elastic Compliance Matrix: (Units=1/GPa)
#
#
# Indices 1 2 3 4 5 6 
#
# 1 0.019168 -0.007878 -0.004059 0.000000 0.000000 0.000000
# 2 -0.007878 0.013305 -0.004372 0.000000 0.000000 0.000000
# 3 -0.004059 -0.004372 0.014102 0.000000 0.000000 0.000000
# 4 0.000000 0.000000 0.000000 0.003484 0.000000 0.000000
# 5 0.000000 0.000000 0.000000 0.000000 0.036407 0.000000
# 6 0.000000 0.000000 0.000000 0.000000 0.000000 0.027802
#
#
# Mechanical properties :
#
#
# Convention : Reuss Voigt Hill
#
# Bulk Modulus (GPa) = 71.65089 76.71608 74.18348
# Shear Modulus (GPa) = 32.99453 80.22904 56.61178
#
# Velocity S-wave (km/s) = 4.39168 6.84818 5.75258
# Velocity P-wave (km/s) = 8.22186 10.36215 9.35343
#
# Compressibility (1/GPa) = 0.01395656
#
# Stress axis : x y z
#
# Youngs Moduli (GPa) = 52.16958 75.15946 70.91025
#
# Poissons Ratio (x) = 0.59214 0.28785
# Poissons Ratio (y) = 0.41101 0.31000
# Poissons Ratio (z) = 0.21178 0.32858
#
# Static dielectric constant tensor:
#      x y z
#    x 1.589260 0.000000 0.000000 
#    y 0.000000 1.582740 0.000000 
#    z 0.000000 0.000000 1.579510 
# 
# From -- ./inp_files/27229.got.cif
#   From: 2010.05.17/outbox.cif.g08.bks.cpg/sg71_14_cif.got.tgz:27229.got - 2010.06.03 16:22:01.
