data_PCOD9520649
_publ_section_title
;
Structure prediction by ZEFSAII (Michael W. Deem and Ramdas Pophale) SiO2 
 PCOD9520649
Probable space group: I M M M
;
_chemical_formula_sum "Si O2"
_cell_formula_units_Z 112
_cell_length_a 27.302248
_cell_length_b 13.029740
_cell_length_c 15.646505
_cell_angle_alpha 90.000000
_cell_angle_beta 90.000000
_cell_angle_gamma 90.000000
_cell_volume 5566.106353
_symmetry_space_group_name_H-M "I M M M"
_symmetry_group_IT_number 71
_symmetry_cell_setting 'orthorhombic'
loop_
_space_group_symop_operation_xyz
x,y,z
-x,-y,z
x,-y,-z
-x,y,-z
-x,-y,-z
x,y,-z
-x,y,z
x,-y,z
1/2+x,1/2+y,1/2+z
1/2-x,1/2-y,1/2+z
1/2+x,1/2-y,1/2-z
1/2-x,1/2+y,1/2-z
1/2-x,1/2-y,1/2-z
1/2+x,1/2+y,1/2-z
1/2-x,1/2+y,1/2+z
1/2+x,1/2-y,1/2+z
loop_
_atom_site_type_symbol
_atom_site_label
_atom_site_fract_x
_atom_site_fract_y
_atom_site_fract_z
Si Si1 0.841798 0.331667 0.742976
Si Si2 0.176125 0.112080 0.328535
Si Si3 0.733612 0.112827 0.096832
Si Si4 0.940582 0.884118 0.097058
Si Si5 0.444792 0.229877 0.250589
Si Si6 0.719684 0.830443 0.597713
Si Si7 0.072361 0.882062 0.403758
O O1 0.831776 0.209169 0.732106
O O2 0.809161 0.377381 0.666610
O O3 0.899825 0.347277 0.735572
O O4 0.820086 0.364327 0.833525
O O5 0.228057 0.122973 0.374658
O O6 0.131387 0.119224 0.395102
O O7 0.173034 0.000000 0.286882
O O8 0.770463 0.207705 0.105836
O O9 0.756414 0.000000 0.105265
O O10 0.713354 0.121607 0.000000
O O11 0.929347 0.798954 0.167394
O O12 0.000000 0.887386 0.094795
O O13 0.924234 0.000000 0.120295
O O14 0.923735 0.861413 0.000000
O O15 0.500000 0.189614 0.263541
O O16 0.445851 0.306413 0.169364
O O17 0.708029 0.854845 0.500000
O O18 0.058262 0.853803 0.500000
O O19 0.057191 0.000000 0.387633
#
# Coordination Sequence:
#
# PCOD9520649 Si02
#       7
#    16  16  16  16  16  16  16
#     4  10  21  33  49  74 101 131 167 208 246 286
#     4   9  17  31  51  74 103 135 160 186 231 293
#     4   9  18  35  58  78  98 128 164 203 249 299
#     4   8  14  26  44  63  83 114 161 210 247 282
#     4  10  20  32  45  63  91 128 168 208 249 287
#     4  10  20  32  48  75 107 133 160 196 240 293
#     4   9  17  28  43  66  96 128 158 185 220 277
#
# _framework density 20.121784999999999
#
# number of rings (size 3 to 8) (size 9 to 14) (size 15 to 20)
#    0.000    2.714    0.000    3.000    0.000    8.857 
#    0.000    0.714    0.000    2.143    0.000    1.000 
#    0.000    0.000    0.000    6.143    0.000    0.000 
#
# Total GULP energy -312346.925555 kJ/mol
# GULP energy per Si atom -5577.623671 kJ/mol
# Density = 2.007599 g / cm^3
# Si number density = 20.121785 Si / 1000 Ang^3
#
#
#
# Elastic Constant Matrix: (Units=GPa)
#
#
# Indices 1 2 3 4 5 6 
#
# 1 65.5238 0.7558 52.5199 0.0000 0.0000 0.0000
# 2 0.7558 39.1334 -7.2653 0.0000 0.0000 0.0000
# 3 52.5199 -7.2653 98.9587 0.0000 0.0000 0.0000
# 4 0.0000 0.0000 0.0000 9.4815 0.0000 0.0000
# 5 0.0000 0.0000 0.0000 0.0000 12.2954 0.0000
# 6 0.0000 0.0000 0.0000 0.0000 0.0000 3.9100
#
#
#
# Elastic Compliance Matrix: (Units=1/GPa)
#
#
# Indices 1 2 3 4 5 6 
#
# 1 0.026955 -0.003220 -0.014542 0.000000 0.000000 0.000000
# 2 -0.003220 0.026291 0.003639 0.000000 0.000000 0.000000
# 3 -0.014542 0.003639 0.018090 0.000000 0.000000 0.000000
# 4 0.000000 0.000000 0.000000 0.105469 0.000000 0.000000
# 5 0.000000 0.000000 0.000000 0.000000 0.081331 0.000000
# 6 0.000000 0.000000 0.000000 0.000000 0.000000 0.255758
#
#
# Mechanical properties :
#
#
# Convention : Reuss Voigt Hill
#
# Bulk Modulus (GPa) = 23.20700 32.84853 28.02777
# Shear Modulus (GPa) = 8.98466 15.64440 12.31453
#
# Velocity S-wave (km/s) = 2.11538 2.79137 2.47655
# Velocity P-wave (km/s) = 4.18626 5.17197 4.70500
#
# Compressibility (1/GPa) = 0.04309045
#
# Stress axis : x y z
#
# Youngs Moduli (GPa) = 37.09924 38.03518 55.27853
#
# Poissons Ratio (x) = 0.12249 0.80386
# Poissons Ratio (y) = 0.11947 -0.20118
# Poissons Ratio (z) = 0.53950 -0.13842
#
# Static dielectric constant tensor:
#      x y z
#    x 1.737740 0.000000 0.000000 
#    y 0.000000 1.720170 0.000000 
#    z 0.000000 0.000000 1.709820 
# 
# From -- ./inp_files/40354.got.cif
#   From: 2010.05.17/outbox.cif.g08.bks.cpg/sg71_21_cif.got.tgz:40354.got - 2010.06.03 16:22:01.
