data_PCOD9520501
_publ_section_title
;
Structure prediction by ZEFSAII (Michael W. Deem and Ramdas Pophale) SiO2 
 PCOD9520501
Probable space group: I M M M
;
_chemical_formula_sum "Si O2"
_cell_formula_units_Z 80
_cell_length_a 18.353814
_cell_length_b 7.794922
_cell_length_c 24.383356
_cell_angle_alpha 90.000000
_cell_angle_beta 90.000000
_cell_angle_gamma 90.000000
_cell_volume 3488.442585
_symmetry_space_group_name_H-M "I M M M"
_symmetry_group_IT_number 71
_symmetry_cell_setting 'orthorhombic'
loop_
_space_group_symop_operation_xyz
x,y,z
-x,-y,z
x,-y,-z
-x,y,-z
-x,-y,-z
x,y,-z
-x,y,z
x,-y,z
1/2+x,1/2+y,1/2+z
1/2-x,1/2-y,1/2+z
1/2+x,1/2-y,1/2-z
1/2-x,1/2+y,1/2-z
1/2-x,1/2-y,1/2-z
1/2+x,1/2+y,1/2-z
1/2-x,1/2+y,1/2+z
1/2+x,1/2-y,1/2+z
loop_
_atom_site_type_symbol
_atom_site_label
_atom_site_fract_x
_atom_site_fract_y
_atom_site_fract_z
Si Si1 0.728365 0.691261 0.666193
Si Si2 0.000000 0.804118 0.933403
Si Si3 0.892157 0.799746 0.341819
Si Si4 0.420844 0.710739 0.278991
Si Si5 0.000000 0.209917 0.564007
Si Si6 0.840772 0.302773 0.936688
O O1 0.739706 0.500000 0.688807
O O2 0.805415 0.783642 0.665073
O O3 0.656375 0.768554 0.695268
O O4 0.705209 0.686775 0.602950
O O5 0.075058 0.713879 0.919318
O O6 0.000000 0.000000 0.913051
O O7 0.000000 0.810008 0.000000
O O8 0.921391 0.730137 0.284161
O O9 0.930500 0.735130 0.397811
O O10 0.910760 0.000000 0.341406
O O11 0.500000 0.759543 0.303572
O O12 0.418120 0.500000 0.281435
O O13 0.000000 0.268718 0.500000
O O14 0.000000 0.000000 0.560557
O O15 0.817408 0.500000 0.931107
O O16 0.835238 0.252961 0.000000
#
# Coordination Sequence:
#
# PCOD9520501 Si02
#       6
#    16   8  16  16   8  16
#     4  11  23  35  55  87 121 154 197 249 303 366
#     4   9  17  31  52  75 102 140 183 227 280 337
#     4  10  19  37  62  84 115 155 195 244 302 361
#     4   9  18  35  59  85 113 153 203 248 295 353
#     4   9  18  34  62  95 116 144 198 251 294 354
#     4  10  21  37  55  77 110 152 197 242 287 342
#
# _framework density 22.932870000000001
#
# number of rings (size 3 to 8) (size 9 to 14) (size 15 to 20)
#    0.000    2.200    1.000    2.100    1.400    3.200 
#    0.000    3.500    0.000    3.000    0.000    0.000 
#    0.000    0.000    0.000    0.000    0.000    0.000 
#
# Total GULP energy -223102.398679 kJ/mol
# GULP energy per Si atom -5577.559967 kJ/mol
# Density = 2.288067 g / cm^3
# Si number density = 22.932870 Si / 1000 Ang^3
#
#
#
# Elastic Constant Matrix: (Units=GPa)
#
#
# Indices 1 2 3 4 5 6 
#
# 1 169.1678 4.8312 68.5713 0.0000 0.0000 0.0000
# 2 4.8312 27.3584 8.5952 0.0000 0.0000 0.0000
# 3 68.5713 8.5952 134.2348 0.0000 0.0000 0.0000
# 4 0.0000 0.0000 0.0000 0.7465 0.0000 0.0000
# 5 0.0000 0.0000 0.0000 0.0000 27.6698 0.0000
# 6 0.0000 0.0000 0.0000 0.0000 0.0000 20.6344
#
#
#
# Elastic Compliance Matrix: (Units=1/GPa)
#
#
# Indices 1 2 3 4 5 6 
#
# 1 0.007455 -0.000123 -0.003801 0.000000 0.000000 0.000000
# 2 -0.000123 0.037304 -0.002326 0.000000 0.000000 0.000000
# 3 -0.003801 -0.002326 0.009540 0.000000 0.000000 0.000000
# 4 0.000000 0.000000 0.000000 1.339523 0.000000 0.000000
# 5 0.000000 0.000000 0.000000 0.000000 0.036141 0.000000
# 6 0.000000 0.000000 0.000000 0.000000 0.000000 0.048463
#
#
# Mechanical properties :
#
#
# Convention : Reuss Voigt Hill
#
# Bulk Modulus (GPa) = 23.92265 54.97294 39.44779
# Shear Modulus (GPa) = 3.32257 26.39434 14.85845
#
# Velocity S-wave (km/s) = 1.20498 3.39623 2.54817
# Velocity P-wave (km/s) = 3.51997 6.27714 5.08884
#
# Compressibility (1/GPa) = 0.04180139
#
# Stress axis : x y z
#
# Youngs Moduli (GPa) = 134.13213 26.80656 104.82150
#
# Poissons Ratio (x) = 0.00328 0.39838
# Poissons Ratio (y) = 0.01643 0.24382
# Poissons Ratio (z) = 0.50978 0.06235
#
# Static dielectric constant tensor:
#      x y z
#    x 1.879310 0.000000 0.000000 
#    y 0.000000 1.925080 0.000000 
#    z 0.000000 0.000000 1.896230 
# 
# From -- ./inp_files/65822.got.cif
#   From: 2010.05.17/outbox.cif.g08.bks.cpg/sg71_33_cif.got.tgz:65822.got - 2010.06.03 16:22:01.
