data_PCOD9520378
_publ_section_title
;
Structure prediction by ZEFSAII (Michael W. Deem and Ramdas Pophale) SiO2 
 PCOD9520378
Probable space group: I M M M
;
_chemical_formula_sum "Si O2"
_cell_formula_units_Z 64
_cell_length_a 17.143061
_cell_length_b 22.947441
_cell_length_c 8.104693
_cell_angle_alpha 90.000000
_cell_angle_beta 90.000000
_cell_angle_gamma 90.000000
_cell_volume 3188.300161
_symmetry_space_group_name_H-M "I M M M"
_symmetry_group_IT_number 71
_symmetry_cell_setting 'orthorhombic'
loop_
_space_group_symop_operation_xyz
x,y,z
-x,-y,z
x,-y,-z
-x,y,-z
-x,-y,-z
x,y,-z
-x,y,z
x,-y,z
1/2+x,1/2+y,1/2+z
1/2-x,1/2-y,1/2+z
1/2+x,1/2-y,1/2-z
1/2-x,1/2+y,1/2-z
1/2-x,1/2-y,1/2-z
1/2+x,1/2+y,1/2-z
1/2-x,1/2+y,1/2+z
1/2+x,1/2-y,1/2+z
loop_
_atom_site_type_symbol
_atom_site_label
_atom_site_fract_x
_atom_site_fract_y
_atom_site_fract_z
Si Si1 0.409316 0.767471 0.701700
Si Si2 0.177625 0.383780 0.803264
Si Si3 0.911467 0.500000 0.303371
Si Si4 0.351290 0.357981 0.699009
Si Si5 0.500000 0.566983 0.298063
O O1 0.408372 0.767631 0.500000
O O2 0.500000 0.766391 0.751185
O O3 0.366417 0.825798 0.760283
O O4 0.366680 0.708286 0.756300
O O5 0.134313 0.442129 0.748419
O O6 0.267446 0.381282 0.750750
O O7 0.174488 0.381723 0.000000
O O8 0.915886 0.500000 0.500000
O O9 0.000000 0.500000 0.235771
O O10 0.353824 0.357227 0.500000
O O11 0.422688 0.398587 0.755540
O O12 0.500000 0.500000 0.244614
O O13 0.500000 0.567280 0.500000
#
# Coordination Sequence:
#
# PCOD9520378 Si02
#       5
#    16  16   8  16   8
#     4   9  17  33  57  84 114 155 202 244 287 341
#     4  11  23  37  58  87 121 155 191 239 299 356
#     4  11  25  45  65  86 113 148 195 243 290 347
#     4  10  19  35  59  85 116 154 202 248 284 337
#     4   9  18  32  55  85 113 150 200 245 285 334
#
# _framework density 20.073391000000001
#
# number of rings (size 3 to 8) (size 9 to 14) (size 15 to 20)
#    0.000    2.000    1.250    2.625    1.750    2.000 
#    0.000    1.875    0.000    3.750    0.000    0.000 
#    0.000    0.000    0.000    0.000    0.000    0.000 
#
# Total GULP energy -178808.818955 kJ/mol
# GULP energy per Si atom -5587.775592 kJ/mol
# Density = 2.002770 g / cm^3
# Si number density = 20.073391 Si / 1000 Ang^3
#
#
#
# Elastic Constant Matrix: (Units=GPa)
#
#
# Indices 1 2 3 4 5 6 
#
# 1 213.7107 131.3269 15.9171 0.0000 0.0000 0.0000
# 2 131.3269 224.5842 20.1211 0.0000 0.0000 0.0000
# 3 15.9171 20.1211 17.4144 0.0000 0.0000 0.0000
# 4 0.0000 0.0000 0.0000 4.1555 0.0000 0.0000
# 5 0.0000 0.0000 0.0000 0.0000 9.3115 0.0000
# 6 0.0000 0.0000 0.0000 0.0000 0.0000 20.8367
#
#
#
# Elastic Compliance Matrix: (Units=1/GPa)
#
#
# Indices 1 2 3 4 5 6 
#
# 1 0.007363 -0.004130 -0.001958 0.000000 0.000000 0.000000
# 2 -0.004130 0.007284 -0.004641 0.000000 0.000000 0.000000
# 3 -0.001958 -0.004641 0.064575 0.000000 0.000000 0.000000
# 4 0.000000 0.000000 0.000000 0.240643 0.000000 0.000000
# 5 0.000000 0.000000 0.000000 0.000000 0.107394 0.000000
# 6 0.000000 0.000000 0.000000 0.000000 0.000000 0.047992
#
#
# Mechanical properties :
#
#
# Convention : Reuss Voigt Hill
#
# Bulk Modulus (GPa) = 17.31163 87.82659 52.56911
# Shear Modulus (GPa) = 9.69063 26.08371 17.88717
#
# Velocity S-wave (km/s) = 2.19956 3.60865 2.98835
# Velocity P-wave (km/s) = 3.88506 7.82374 6.17675
#
# Compressibility (1/GPa) = 0.05776464
#
# Stress axis : x y z
#
# Youngs Moduli (GPa) = 135.81280 137.29497 15.48581
#
# Poissons Ratio (x) = 0.56705 0.03032
# Poissons Ratio (y) = 0.56093 0.07186
# Poissons Ratio (z) = 0.26590 0.63713
#
# Static dielectric constant tensor:
#      x y z
#    x 1.681170 0.000000 0.000000 
#    y 0.000000 1.592380 0.000000 
#    z 0.000000 0.000000 1.708720 
# 
# From -- ./inp_files/5512.got.cif
#   From: 2010.05.17/outbox.cif.g08.bks.cpg/sg71_3_cif.got.tgz:5512.got - 2010.06.03 16:22:01.
