data_PCOD9520703
_publ_section_title
;
Structure prediction by ZEFSAII (Michael W. Deem and Ramdas Pophale) SiO2 
 PCOD9520703
Probable space group: I M M M
;
_chemical_formula_sum "Si O2"
_cell_formula_units_Z 96
_cell_length_a 9.070752
_cell_length_b 18.483923
_cell_length_c 33.642656
_cell_angle_alpha 90.000000
_cell_angle_beta 90.000000
_cell_angle_gamma 90.000000
_cell_volume 5640.631375
_symmetry_space_group_name_H-M "I M M M"
_symmetry_group_IT_number 71
_symmetry_cell_setting 'orthorhombic'
loop_
_space_group_symop_operation_xyz
x,y,z
-x,-y,z
x,-y,-z
-x,y,-z
-x,-y,-z
x,y,-z
-x,y,z
x,-y,z
1/2+x,1/2+y,1/2+z
1/2-x,1/2-y,1/2+z
1/2+x,1/2-y,1/2-z
1/2-x,1/2+y,1/2-z
1/2-x,1/2-y,1/2-z
1/2+x,1/2+y,1/2-z
1/2-x,1/2+y,1/2+z
1/2+x,1/2-y,1/2+z
loop_
_atom_site_type_symbol
_atom_site_label
_atom_site_fract_x
_atom_site_fract_y
_atom_site_fract_z
Si Si1 0.677212 0.270883 0.954572
Si Si2 0.674851 0.914372 0.824809
Si Si3 0.325401 0.586276 0.240868
Si Si4 0.325307 0.853000 0.663393
Si Si5 0.174861 0.799325 0.879651
Si Si6 0.676189 0.580715 0.087403
O O1 0.500000 0.262330 0.951091
O O2 0.756745 0.221144 0.922224
O O3 0.711865 0.354130 0.942601
O O4 0.719686 0.256579 0.000000
O O5 0.500000 0.901593 0.822780
O O6 0.749413 0.895215 0.782669
O O7 0.747081 0.866929 0.859205
O O8 0.699388 0.000000 0.831247
O O9 0.500000 0.599543 0.243141
O O10 0.303004 0.500000 0.234113
O O11 0.254104 0.629082 0.204487
O O12 0.500000 0.864828 0.667119
O O13 0.300090 0.771070 0.648371
O O14 0.258889 0.902982 0.628535
O O15 0.000000 0.810450 0.882846
O O16 0.500000 0.584046 0.094777
O O17 0.711163 0.500000 0.072862
#
# Coordination Sequence:
#
# PCOD9520703 Si02
#       6
#    16  16  16  16  16  16
#     4   9  18  33  53  76 102 133 168 207 252 300
#     4  10  21  37  57  79 101 127 161 202 250 303
#     4  10  20  33  50  73 102 137 175 212 250 291
#     4  10  20  32  47  70 101 138 178 214 248 288
#     4  10  21  36  54  76 102 133 167 204 249 300
#     4   9  17  29  46  70 101 137 176 215 253 292
#
# _framework density 17.019372000000001
#
# number of rings (size 3 to 8) (size 9 to 14) (size 15 to 20)
#    0.000    2.333    0.000    2.500    0.000    7.667 
#    0.000    1.667    0.000    0.500    0.000    8.167 
#    0.000    0.000    0.000    0.000    0.000    0.000 
#
# Total GULP energy -267909.501839 kJ/mol
# GULP energy per Si atom -5581.447955 kJ/mol
# Density = 1.698064 g / cm^3
# Si number density = 17.019372 Si / 1000 Ang^3
#
#
#
# Elastic Constant Matrix: (Units=GPa)
#
#
# Indices 1 2 3 4 5 6 
#
# 1 72.2190 51.0362 79.5249 0.0000 0.0000 0.0000
# 2 51.0362 46.0800 70.9521 0.0000 0.0000 0.0000
# 3 79.5249 70.9521 161.6604 0.0000 0.0000 0.0000
# 4 0.0000 0.0000 0.0000 8.6754 0.0000 0.0000
# 5 0.0000 0.0000 0.0000 0.0000 28.6380 0.0000
# 6 0.0000 0.0000 0.0000 0.0000 0.0000 24.8852
#
#
#
# Elastic Compliance Matrix: (Units=1/GPa)
#
#
# Indices 1 2 3 4 5 6 
#
# 1 0.063789 -0.068885 -0.001146 0.000000 0.000000 0.000000
# 2 -0.068885 0.141325 -0.028141 0.000000 0.000000 0.000000
# 3 -0.001146 -0.028141 0.019100 0.000000 0.000000 0.000000
# 4 0.000000 0.000000 0.000000 0.115269 0.000000 0.000000
# 5 0.000000 0.000000 0.000000 0.000000 0.034919 0.000000
# 6 0.000000 0.000000 0.000000 0.000000 0.000000 0.040185
#
#
# Mechanical properties :
#
#
# Convention : Reuss Voigt Hill
#
# Bulk Modulus (GPa) = 35.87969 75.88733 55.88351
# Shear Modulus (GPa) = 8.06166 17.66945 12.86555
#
# Velocity S-wave (km/s) = 2.17877 3.22560 2.75241
# Velocity P-wave (km/s) = 5.23993 7.65234 6.55801
#
# Compressibility (1/GPa) = 0.02787092
#
# Stress axis : x y z
#
# Youngs Moduli (GPa) = 15.67679 7.07589 52.35482
#
# Poissons Ratio (x) = 0.48742 0.06000
# Poissons Ratio (y) = 1.07989 1.47331
# Poissons Ratio (z) = 0.01797 0.19912
#
# Static dielectric constant tensor:
#      x y z
#    x 1.563350 0.000000 0.000000 
#    y 0.000000 1.574150 0.000000 
#    z 0.000000 0.000000 1.541290 
# 
# From -- ./inp_files/10899.got.cif
#   From: 2010.05.17/outbox.cif.g08.bks.cpg/sg71_6_cif.got.tgz:10899.got - 2010.06.03 16:22:01.
