data_PCOD9520964
_publ_section_title
;
Structure prediction by ZEFSAII (Michael W. Deem and Ramdas Pophale) SiO2 
 PCOD9520964
Probable space group: I M M M
;
_chemical_formula_sum "Si O2"
_cell_formula_units_Z 80
_cell_length_a 26.566754
_cell_length_b 20.039894
_cell_length_c 8.881795
_cell_angle_alpha 90.000000
_cell_angle_beta 90.000000
_cell_angle_gamma 90.000000
_cell_volume 4728.622664
_symmetry_space_group_name_H-M "I M M M"
_symmetry_group_IT_number 71
_symmetry_cell_setting 'orthorhombic'
loop_
_space_group_symop_operation_xyz
x,y,z
-x,-y,z
x,-y,-z
-x,y,-z
-x,-y,-z
x,y,-z
-x,y,z
x,-y,z
1/2+x,1/2+y,1/2+z
1/2-x,1/2-y,1/2+z
1/2+x,1/2-y,1/2-z
1/2-x,1/2+y,1/2-z
1/2-x,1/2-y,1/2-z
1/2+x,1/2+y,1/2-z
1/2-x,1/2+y,1/2+z
1/2+x,1/2-y,1/2+z
loop_
_atom_site_type_symbol
_atom_site_label
_atom_site_fract_x
_atom_site_fract_y
_atom_site_fract_z
Si Si1 0.610208 0.421910 0.317499
Si Si2 0.691959 0.820624 0.681459
Si Si3 0.692212 0.675440 0.179978
Si Si4 0.895023 0.422657 0.181410
Si Si5 0.500000 0.081044 0.826297
Si Si6 0.500000 0.418922 0.325504
O O1 0.610143 0.417799 0.500000
O O2 0.617011 0.500000 0.278526
O O3 0.653847 0.376765 0.251173
O O4 0.554415 0.399560 0.261692
O O5 0.689282 0.812912 0.500000
O O6 0.681777 0.749419 0.757120
O O7 0.749447 0.840355 0.718878
O O8 0.651170 0.875735 0.727401
O O9 0.687654 0.675078 0.000000
O O10 0.887241 0.500000 0.227847
O O11 0.948306 0.398167 0.246583
O O12 0.898098 0.421861 0.000000
O O13 0.500000 0.000000 0.819322
O O14 0.500000 0.101263 0.000000
O O15 0.500000 0.500000 0.326686
O O16 0.500000 0.397157 0.500000
#
# Coordination Sequence:
#
# PCOD9520964 Si02
#       6
#    16  16  16  16   8   8
#     4   9  17  31  52  75  98 127 164 202 238 282
#     4   9  19  35  52  69  94 130 166 198 237 288
#     4  10  20  33  50  72  99 129 160 200 247 289
#     4   9  17  31  52  74  94 122 163 203 235 278
#     4   9  17  29  46  71 102 129 151 187 244 295
#     4   7  12  26  48  71  94 123 159 195 230 273
#
# _framework density 16.918244999999999
#
# number of rings (size 3 to 8) (size 9 to 14) (size 15 to 20)
#    0.000    3.000    0.000    2.100    0.000    4.000 
#    0.000    3.500    0.000    6.600    0.000    0.000 
#    0.000    0.000    0.000    0.000    0.000    0.000 
#
# Total GULP energy -222803.577762 kJ/mol
# GULP energy per Si atom -5570.089444 kJ/mol
# Density = 1.687974 g / cm^3
# Si number density = 16.918245 Si / 1000 Ang^3
#
#
#
# Elastic Constant Matrix: (Units=GPa)
#
#
# Indices 1 2 3 4 5 6 
#
# 1 183.9465 106.2592 47.0572 0.0000 0.0000 0.0000
# 2 106.2592 83.4552 33.0075 0.0000 0.0000 0.0000
# 3 47.0572 33.0075 19.7300 0.0000 0.0000 0.0000
# 4 0.0000 0.0000 0.0000 21.3569 0.0000 0.0000
# 5 0.0000 0.0000 0.0000 0.0000 27.6667 0.0000
# 6 0.0000 0.0000 0.0000 0.0000 0.0000 -21.6762
#
#
#
# Elastic Compliance Matrix: (Units=1/GPa)
#
#
# Indices 1 2 3 4 5 6 
#
# 1 0.022291 -0.021738 -0.016799 0.000000 0.000000 0.000000
# 2 -0.021738 0.056616 -0.042870 0.000000 0.000000 0.000000
# 3 -0.016799 -0.042870 0.162469 0.000000 0.000000 0.000000
# 4 0.000000 0.000000 0.000000 0.046823 0.000000 0.000000
# 5 0.000000 0.000000 0.000000 0.000000 0.036145 0.000000
# 6 0.000000 0.000000 0.000000 0.000000 0.000000 -0.046134
#
#
# Mechanical properties :
#
#
# Convention : Reuss Voigt Hill
#
# Bulk Modulus (GPa) = 12.72858 73.30883 43.01871
# Shear Modulus (GPa) = 10.70182 12.19000 11.44591
#
# Velocity S-wave (km/s) = 2.51780 2.68717 2.60386
# Velocity P-wave (km/s) = 3.99905 7.28376 5.87561
#
# Compressibility (1/GPa) = 0.07856334
#
# Stress axis : x y z
#
# Youngs Moduli (GPa) = 44.86123 17.66292 6.15502
#
# Poissons Ratio (x) = 0.38396 0.10340
# Poissons Ratio (y) = 0.97519 0.26386
# Poissons Ratio (z) = 0.75360 0.75721
#
# Static dielectric constant tensor:
#      x y z
#    x 1.583850 0.000000 0.000000 
#    y 0.000000 1.542930 0.000000 
#    z 0.000000 0.000000 1.568060 
# 
# From -- ./inp_files/10234.got.cif
#   From: 2010.05.17/outbox.cif.g08.bks.cpg/sg71_6_cif.got.tgz:10234.got - 2010.06.03 16:22:01.
