data_PCOD9520777
_publ_section_title
;
Structure prediction by ZEFSAII (Michael W. Deem and Ramdas Pophale) SiO2 
 PCOD9520777
Probable space group: I M M M
;
_chemical_formula_sum "Si O2"
_cell_formula_units_Z 96
_cell_length_a 23.059582
_cell_length_b 25.492555
_cell_length_c 7.497575
_cell_angle_alpha 90.000000
_cell_angle_beta 90.000000
_cell_angle_gamma 90.000000
_cell_volume 4407.431938
_symmetry_space_group_name_H-M "I M M M"
_symmetry_group_IT_number 71
_symmetry_cell_setting 'orthorhombic'
loop_
_space_group_symop_operation_xyz
x,y,z
-x,-y,z
x,-y,-z
-x,y,-z
-x,-y,-z
x,y,-z
-x,y,z
x,-y,z
1/2+x,1/2+y,1/2+z
1/2-x,1/2-y,1/2+z
1/2+x,1/2-y,1/2-z
1/2-x,1/2+y,1/2-z
1/2-x,1/2-y,1/2-z
1/2+x,1/2+y,1/2-z
1/2-x,1/2+y,1/2+z
1/2+x,1/2-y,1/2+z
loop_
_atom_site_type_symbol
_atom_site_label
_atom_site_fract_x
_atom_site_fract_y
_atom_site_fract_z
Si Si1 0.643982 0.442008 0.284879
Si Si2 0.098905 0.441735 0.282086
Si Si3 0.226084 0.416654 0.295945
Si Si4 0.394369 0.331462 0.789444
Si Si5 0.000000 0.760229 0.280830
Si Si6 0.766563 0.191030 0.712060
Si Si7 0.000000 0.361453 0.282113
O O1 0.646292 0.441031 0.500000
O O2 0.625794 0.500000 0.227397
O O3 0.710665 0.432164 0.219430
O O4 0.602306 0.394214 0.231978
O O5 0.100336 0.439398 0.500000
O O6 0.077482 0.500000 0.234225
O O7 0.165350 0.435720 0.218015
O O8 0.056289 0.395093 0.225208
O O9 0.227161 0.435680 0.500000
O O10 0.225783 0.353486 0.292877
O O11 0.444564 0.294042 0.719768
O O12 0.331189 0.317928 0.714885
O O13 0.392135 0.320886 0.000000
O O14 0.000000 0.759970 0.500000
O O15 0.000000 0.699361 0.224997
O O16 0.766127 0.182189 0.500000
O O17 0.750000 0.250000 0.750000
O O18 0.000000 0.360873 0.500000
#
# Coordination Sequence:
#
# PCOD9520777 Si02
#       7
#    16  16  16  16   8  16   8
#     4   9  17  31  51  75 103 132 162 198 246 301
#     4   9  16  26  43  71 104 133 165 206 251 296
#     4   9  17  29  48  73 102 133 163 198 246 297
#     4   9  19  34  52  73  98 129 167 207 247 292
#     4   9  18  33  50  69  97 131 168 209 252 294
#     4  10  20  32  49  73 101 130 164 205 248 296
#     4   9  17  26  43  68  98 133 167 210 255 291
#
# _framework density 21.781389999999998
#
# number of rings (size 3 to 8) (size 9 to 14) (size 15 to 20)
#    0.000    2.833    0.000    1.250    2.333    4.000 
#    0.000    0.833    0.000    4.000    0.000    0.583 
#    0.000    1.333    0.000    0.000    0.000    0.000 
#
# Total GULP energy -267765.541886 kJ/mol
# GULP energy per Si atom -5578.448789 kJ/mol
# Density = 2.173181 g / cm^3
# Si number density = 21.781390 Si / 1000 Ang^3
#
#
#
# Elastic Constant Matrix: (Units=GPa)
#
#
# Indices 1 2 3 4 5 6 
#
# 1 92.8168 75.3733 4.8133 0.0000 0.0000 0.0000
# 2 75.3733 203.3902 -7.7239 0.0000 0.0000 0.0000
# 3 4.8133 -7.7239 62.9581 0.0000 0.0000 0.0000
# 4 0.0000 0.0000 0.0000 14.6905 0.0000 0.0000
# 5 0.0000 0.0000 0.0000 0.0000 1.3820 0.0000
# 6 0.0000 0.0000 0.0000 0.0000 0.0000 26.6337
#
#
#
# Elastic Compliance Matrix: (Units=1/GPa)
#
#
# Indices 1 2 3 4 5 6 
#
# 1 0.015639 -0.005868 -0.001916 0.000000 0.000000 0.000000
# 2 -0.005868 0.007142 0.001325 0.000000 0.000000 0.000000
# 3 -0.001916 0.001325 0.016193 0.000000 0.000000 0.000000
# 4 0.000000 0.000000 0.000000 0.068071 0.000000 0.000000
# 5 0.000000 0.000000 0.000000 0.000000 0.723596 0.000000
# 6 0.000000 0.000000 0.000000 0.000000 0.000000 0.037546
#
#
# Mechanical properties :
#
#
# Convention : Reuss Voigt Hill
#
# Bulk Modulus (GPa) = 38.38043 56.01005 47.19524
# Shear Modulus (GPa) = 5.61931 27.65474 16.63702
#
# Velocity S-wave (km/s) = 1.60794 3.56708 2.76672
# Velocity P-wave (km/s) = 4.59416 6.53727 5.64987
#
# Compressibility (1/GPa) = 0.02605494
#
# Stress axis : x y z
#
# Youngs Moduli (GPa) = 63.94437 140.02418 61.75679
#
# Poissons Ratio (x) = 0.82169 0.11830
# Poissons Ratio (y) = 0.37524 -0.08182
# Poissons Ratio (z) = 0.12249 -0.18550
#
# Static dielectric constant tensor:
#      x y z
#    x 1.790610 0.000000 0.000000 
#    y 0.000000 1.787770 0.000000 
#    z 0.000000 0.000000 1.869910 
# 
# From -- ./inp_files/12878.got.cif
#   From: 2010.05.17/outbox.cif.g08.bks.cpg/sg71_7_cif.got.tgz:12878.got - 2010.06.03 16:22:01.
