data_PCOD9520373
_publ_section_title
;
Structure prediction by ZEFSAII (Michael W. Deem and Ramdas Pophale) SiO2 
 PCOD9520373
Probable space group: I M M M
;
_chemical_formula_sum "Si O2"
_cell_formula_units_Z 88
_cell_length_a 20.233885
_cell_length_b 18.715557
_cell_length_c 12.347018
_cell_angle_alpha 90.000000
_cell_angle_beta 90.000000
_cell_angle_gamma 90.000000
_cell_volume 4675.672838
_symmetry_space_group_name_H-M "I M M M"
_symmetry_group_IT_number 71
_symmetry_cell_setting 'orthorhombic'
loop_
_space_group_symop_operation_xyz
x,y,z
-x,-y,z
x,-y,-z
-x,y,-z
-x,-y,-z
x,y,-z
-x,y,z
x,-y,z
1/2+x,1/2+y,1/2+z
1/2-x,1/2-y,1/2+z
1/2+x,1/2-y,1/2-z
1/2-x,1/2+y,1/2-z
1/2-x,1/2-y,1/2-z
1/2+x,1/2+y,1/2-z
1/2-x,1/2+y,1/2+z
1/2+x,1/2-y,1/2+z
loop_
_atom_site_type_symbol
_atom_site_label
_atom_site_fract_x
_atom_site_fract_y
_atom_site_fract_z
Si Si1 0.927139 0.119893 0.000000
Si Si2 0.922637 0.348003 0.768999
Si Si3 0.425176 0.320839 0.259644
Si Si4 0.420757 0.081720 0.500000
Si Si5 0.207689 0.414311 0.710153
Si Si6 0.280131 0.581149 0.500000
Si Si7 0.180990 0.085801 0.628389
O O1 0.923615 0.163481 0.888294
O O2 0.858921 0.077695 0.000000
O O3 0.000000 0.084249 0.000000
O O4 0.914399 0.263752 0.750436
O O5 0.866528 0.386896 0.700547
O O6 0.000000 0.366069 0.748536
O O7 0.906328 0.374111 0.891460
O O8 0.500000 0.337438 0.222283
O O9 0.373800 0.369076 0.193587
O O10 0.500000 0.074083 0.500000
O O11 0.392760 0.000000 0.500000
O O12 0.205744 0.500000 0.710734
O O13 0.251469 0.386364 0.609692
O O14 0.248226 0.394718 0.818630
O O15 0.255435 0.500000 0.500000
O O16 0.179036 0.099309 0.500000
O O17 0.170582 0.000000 0.645473
#
# Coordination Sequence:
#
# PCOD9520373 Si02
#       7
#     8  16  16   8  16   8  16
#     4  10  19  35  59  84 114 147 185 235 288 346
#     4  10  21  37  56  85 121 156 197 242 290 348
#     4  10  21  38  59  86 118 154 195 243 296 351
#     4   9  17  31  56  88 120 155 194 239 292 346
#     4  10  21  38  60  84 115 152 192 242 296 351
#     4  10  20  38  58  83 113 143 187 241 290 347
#     4  10  22  40  60  86 118 151 194 248 304 363
#
# _framework density 18.820820999999999
#
# number of rings (size 3 to 8) (size 9 to 14) (size 15 to 20)
#    0.000    2.091    1.818    1.091    1.273    4.909 
#    1.636    3.182    0.000    1.636    0.000    0.000 
#    0.000    0.000    0.000    0.000    0.000    0.000 
#
# Total GULP energy -245112.973929 kJ/mol
# GULP energy per Si atom -5570.749407 kJ/mol
# Density = 1.877798 g / cm^3
# Si number density = 18.820821 Si / 1000 Ang^3
#
#
#
# Elastic Constant Matrix: (Units=GPa)
#
#
# Indices 1 2 3 4 5 6 
#
# 1 143.0476 48.2773 61.6014 0.0000 0.0000 0.0000
# 2 48.2773 47.4321 32.4948 0.0000 0.0000 0.0000
# 3 61.6014 32.4948 91.1607 0.0000 0.0000 0.0000
# 4 0.0000 0.0000 0.0000 4.3664 0.0000 0.0000
# 5 0.0000 0.0000 0.0000 0.0000 -20.9228 0.0000
# 6 0.0000 0.0000 0.0000 0.0000 0.0000 35.2950
#
#
#
# Elastic Compliance Matrix: (Units=1/GPa)
#
#
# Indices 1 2 3 4 5 6 
#
# 1 0.012181 -0.008942 -0.005043 0.000000 0.000000 0.000000
# 2 -0.008942 0.034460 -0.006241 0.000000 0.000000 0.000000
# 3 -0.005043 -0.006241 0.016602 0.000000 0.000000 0.000000
# 4 0.000000 0.000000 0.000000 0.229023 0.000000 0.000000
# 5 0.000000 0.000000 0.000000 0.000000 -0.047795 0.000000
# 6 0.000000 0.000000 0.000000 0.000000 0.000000 0.028333
#
#
# Mechanical properties :
#
#
# Convention : Reuss Voigt Hill
#
# Bulk Modulus (GPa) = 43.87940 62.93194 53.40567
# Shear Modulus (GPa) = 15.58345 13.03218 14.30781
#
# Velocity S-wave (km/s) = 2.88060 2.63427 2.76019
# Velocity P-wave (km/s) = 5.86760 6.53930 6.21254
#
# Compressibility (1/GPa) = 0.02278974
#
# Stress axis : x y z
#
# Youngs Moduli (GPa) = 82.09836 29.01922 60.23318
#
# Poissons Ratio (x) = 0.25950 0.30377
# Poissons Ratio (y) = 0.73416 0.37589
# Poissons Ratio (z) = 0.41405 0.18110
#
# Static dielectric constant tensor:
#      x y z
#    x 1.660560 0.000000 0.000000 
#    y 0.000000 1.642670 0.000000 
#    z 0.000000 0.000000 1.672080 
# 
# From -- ./inp_files/24009.got.cif
#   From: 2010.05.17/outbox.cif.g08.bks.cpg/sg71_13_cif.got.tgz:24009.got - 2010.06.03 16:22:01.
