data_PCOD9520171
_publ_section_title
;
Structure prediction by ZEFSAII (Michael W. Deem and Ramdas Pophale) SiO2 
 PCOD9520171
Probable space group: I M M M
;
_chemical_formula_sum "Si O2"
_cell_formula_units_Z 96
_cell_length_a 28.419839
_cell_length_b 23.792258
_cell_length_c 7.976879
_cell_angle_alpha 90.000000
_cell_angle_beta 90.000000
_cell_angle_gamma 90.000000
_cell_volume 5393.743358
_symmetry_space_group_name_H-M "I M M M"
_symmetry_group_IT_number 71
_symmetry_cell_setting 'orthorhombic'
loop_
_space_group_symop_operation_xyz
x,y,z
-x,-y,z
x,-y,-z
-x,y,-z
-x,-y,-z
x,y,-z
-x,y,z
x,-y,z
1/2+x,1/2+y,1/2+z
1/2-x,1/2-y,1/2+z
1/2+x,1/2-y,1/2-z
1/2-x,1/2+y,1/2-z
1/2-x,1/2-y,1/2-z
1/2+x,1/2+y,1/2-z
1/2-x,1/2+y,1/2+z
1/2+x,1/2-y,1/2+z
loop_
_atom_site_type_symbol
_atom_site_label
_atom_site_fract_x
_atom_site_fract_y
_atom_site_fract_z
Si Si1 0.592679 0.713180 0.811275
Si Si2 0.445843 0.935068 0.797355
Si Si3 0.865365 0.064547 0.000000
Si Si4 0.622339 0.833478 0.298910
Si Si5 0.178299 0.126967 0.696261
Si Si6 0.948464 0.152111 0.000000
Si Si7 0.228802 0.689438 0.799552
O O1 0.598355 0.779400 0.785196
O O2 0.643105 0.681044 0.789463
O O3 0.560389 0.689083 0.665103
O O4 0.576419 0.700839 0.000000
O O5 0.500000 0.921251 0.744345
O O6 0.407039 0.889985 0.738850
O O7 0.436260 0.000000 0.744964
O O8 0.445578 0.934318 0.000000
O O9 0.838356 0.081726 0.169598
O O10 0.911144 0.102873 0.000000
O O11 0.876732 0.000000 0.000000
O O12 0.622006 0.825414 0.500000
O O13 0.676998 0.828996 0.239537
O O14 0.176825 0.109894 0.500000
O O15 0.230574 0.145621 0.744749
O O16 0.000000 0.128326 0.000000
O O17 0.250000 0.750000 0.750000
O O18 0.225803 0.690717 0.000000
#
# Coordination Sequence:
#
# PCOD9520171 Si02
#       7
#    16  16   8  16  16   8  16
#     4  10  19  34  56  82 115 153 185 223 285 348
#     4   9  20  40  60  75  99 142 194 242 283 328
#     4  10  22  39  62  84 110 151 198 240 280 340
#     4  11  21  33  54  86 117 145 184 232 281 340
#     4   9  19  36  56  83 117 152 189 227 283 340
#     4  10  22  39  58  82 117 148 184 242 292 338
#     4  10  20  31  53  84 116 150 181 224 278 332
#
# _framework density 17.798400000000001
#
# number of rings (size 3 to 8) (size 9 to 14) (size 15 to 20)
#    0.000    2.167    2.500    1.000    1.167    2.833 
#    0.000    1.667    0.000    3.000    0.000    4.667 
#    0.000    0.000    0.000    0.000    0.000    0.000 
#
# Total GULP energy -267572.100514 kJ/mol
# GULP energy per Si atom -5574.418761 kJ/mol
# Density = 1.775789 g / cm^3
# Si number density = 17.798400 Si / 1000 Ang^3
#
#
#
# Elastic Constant Matrix: (Units=GPa)
#
#
# Indices 1 2 3 4 5 6 
#
# 1 87.2204 27.5954 25.9119 0.0000 0.0000 0.0000
# 2 27.5954 66.9509 24.2046 0.0000 0.0000 0.0000
# 3 25.9119 24.2046 69.2498 0.0000 0.0000 0.0000
# 4 0.0000 0.0000 0.0000 13.6607 0.0000 0.0000
# 5 0.0000 0.0000 0.0000 0.0000 10.7214 0.0000
# 6 0.0000 0.0000 0.0000 0.0000 0.0000 11.6077
#
#
#
# Elastic Compliance Matrix: (Units=1/GPa)
#
#
# Indices 1 2 3 4 5 6 
#
# 1 0.013957 -0.004424 -0.003676 0.000000 0.000000 0.000000
# 2 -0.004424 0.018499 -0.004811 0.000000 0.000000 0.000000
# 3 -0.003676 -0.004811 0.017497 0.000000 0.000000 0.000000
# 4 0.000000 0.000000 0.000000 0.073203 0.000000 0.000000
# 5 0.000000 0.000000 0.000000 0.000000 0.093272 0.000000
# 6 0.000000 0.000000 0.000000 0.000000 0.000000 0.086149
#
#
# Mechanical properties :
#
#
# Convention : Reuss Voigt Hill
#
# Bulk Modulus (GPa) = 41.43820 42.09388 41.76604
# Shear Modulus (GPa) = 14.86140 16.91190 15.88665
#
# Velocity S-wave (km/s) = 2.89275 3.08586 2.99086
# Velocity P-wave (km/s) = 5.87280 6.03311 5.95350
#
# Compressibility (1/GPa) = 0.02413232
#
# Stress axis : x y z
#
# Youngs Moduli (GPa) = 71.64891 54.05760 57.15108
#
# Poissons Ratio (x) = 0.23913 0.21010
# Poissons Ratio (y) = 0.31695 0.27493
# Poissons Ratio (z) = 0.26340 0.26005
#
# Static dielectric constant tensor:
#      x y z
#    x 1.354310 0.000000 0.000000 
#    y 0.000000 1.580580 0.000000 
#    z 0.000000 0.000000 1.660380 
# 
# From -- ./inp_files/12939.got.cif
#   From: 2010.05.17/outbox.cif.g08.bks.cpg/sg71_7_cif.got.tgz:12939.got - 2010.06.03 16:22:01.
