data_PCOD9520084
_publ_section_title
;
Structure prediction by ZEFSAII (Michael W. Deem and Ramdas Pophale) SiO2 
 PCOD9520084
Probable space group: I M M M
;
_chemical_formula_sum "Si O2"
_cell_formula_units_Z 108
_cell_length_a 22.436587
_cell_length_b 15.043356
_cell_length_c 15.661360
_cell_angle_alpha 90.000000
_cell_angle_beta 90.000000
_cell_angle_gamma 90.000000
_cell_volume 5286.046748
_symmetry_space_group_name_H-M "I M M M"
_symmetry_group_IT_number 71
_symmetry_cell_setting 'orthorhombic'
loop_
_space_group_symop_operation_xyz
x,y,z
-x,-y,z
x,-y,-z
-x,y,-z
-x,-y,-z
x,y,-z
-x,y,z
x,-y,z
1/2+x,1/2+y,1/2+z
1/2-x,1/2-y,1/2+z
1/2+x,1/2-y,1/2-z
1/2-x,1/2+y,1/2-z
1/2-x,1/2-y,1/2-z
1/2+x,1/2+y,1/2-z
1/2-x,1/2+y,1/2+z
1/2+x,1/2-y,1/2+z
loop_
_atom_site_type_symbol
_atom_site_label
_atom_site_fract_x
_atom_site_fract_y
_atom_site_fract_z
Si Si1 0.208930 0.651879 0.094827
Si Si2 0.603408 0.603972 0.728922
Si Si3 0.500000 0.390968 0.399385
Si Si4 0.662164 0.894786 0.764565
Si Si5 0.347525 0.606613 0.903727
Si Si6 0.747225 0.000000 0.000000
Si Si7 0.726357 0.648788 0.640416
Si Si8 0.431399 0.108277 0.094554
O O1 0.161211 0.619523 0.163817
O O2 0.277194 0.621981 0.114025
O O3 0.210305 0.758171 0.098532
O O4 0.195277 0.619906 0.000000
O O5 0.587644 0.500000 0.739380
O O6 0.556513 0.638523 0.658452
O O7 0.612002 0.641534 0.825172
O O8 0.668228 0.611623 0.686942
O O9 0.500000 0.500000 0.403344
O O10 0.500000 0.362809 0.500000
O O11 0.719731 0.840055 0.793918
O O12 0.608318 0.865398 0.825133
O O13 0.671547 0.000000 0.778789
O O14 0.355703 0.500000 0.905723
O O15 0.360209 0.641109 0.000000
O O16 0.750450 0.922520 0.073224
O O17 0.500000 0.136968 0.101765
O O18 0.431430 0.000000 0.094212
O O19 0.407982 0.134471 0.000000
#
# Coordination Sequence:
#
# PCOD9520084 Si02
#       8
#    16  16   8  16  16   4  16  16
#     4  11  23  36  53  81 116 152 188 232 281 335
#     4  10  19  34  54  78 108 140 185 230 283 339
#     4   9  20  32  51  77 107 143 185 234 286 344
#     4  11  21  34  56  85 113 148 189 230 281 338
#     4   9  18  34  55  78 110 151 189 227 276 332
#     4  12  24  36  56  85 117 152 174 232 300 340
#     4  12  23  36  55  84 116 143 183 233 292 338
#     4   8  16  31  54  84 117 150 187 230 278 341
#
# _framework density 20.431146999999999
#
# number of rings (size 3 to 8) (size 9 to 14) (size 15 to 20)
#    0.000    1.852    3.704    1.333    2.074    0.889 
#    0.000    0.370    1.630    2.667    0.000    2.074 
#    0.000    0.000    0.000    0.000    0.000    0.148 
#
# Total GULP energy -300658.350201 kJ/mol
# GULP energy per Si atom -5567.747226 kJ/mol
# Density = 2.038464 g / cm^3
# Si number density = 20.431147 Si / 1000 Ang^3
#
#
#
# Elastic Constant Matrix: (Units=GPa)
#
#
# Indices 1 2 3 4 5 6 
#
# 1 70.1477 0.1946 75.0472 0.0000 0.0000 0.0000
# 2 0.1946 44.7001 6.4288 0.0000 0.0000 0.0000
# 3 75.0472 6.4288 209.4474 0.0000 0.0000 0.0000
# 4 0.0000 0.0000 0.0000 1.5608 0.0000 0.0000
# 5 0.0000 0.0000 0.0000 0.0000 35.9648 0.0000
# 6 0.0000 0.0000 0.0000 0.0000 0.0000 -18.9491
#
#
#
# Elastic Compliance Matrix: (Units=1/GPa)
#
#
# Indices 1 2 3 4 5 6 
#
# 1 0.023171 0.001098 -0.008336 0.000000 0.000000 0.000000
# 2 0.001098 0.022523 -0.001085 0.000000 0.000000 0.000000
# 3 -0.008336 -0.001085 0.007795 0.000000 0.000000 0.000000
# 4 0.000000 0.000000 0.000000 0.640713 0.000000 0.000000
# 5 0.000000 0.000000 0.000000 0.000000 0.027805 0.000000
# 6 0.000000 0.000000 0.000000 0.000000 0.000000 -0.052773
#
#
# Mechanical properties :
#
#
# Convention : Reuss Voigt Hill
#
# Bulk Modulus (GPa) = 27.14256 54.18184 40.66220
# Shear Modulus (GPa) = 7.16169 19.89025 13.52597
#
# Velocity S-wave (km/s) = 1.87427 3.12352 2.57578
# Velocity P-wave (km/s) = 4.24236 6.29169 5.36577
#
# Compressibility (1/GPa) = 0.03684251
#
# Stress axis : x y z
#
# Youngs Moduli (GPa) = 43.15753 44.39996 128.29270
#
# Poissons Ratio (x) = -0.04875 1.06946
# Poissons Ratio (y) = -0.04739 0.13916
# Poissons Ratio (z) = 0.35977 0.04816
#
# Static dielectric constant tensor:
#      x y z
#    x 1.710920 0.000000 0.000000 
#    y 0.000000 1.726860 0.000000 
#    z 0.000000 0.000000 1.704640 
# 
# From -- ./inp_files/39319.got.cif
#   From: 2010.05.17/outbox.cif.g08.bks.cpg/sg71_20_cif.got.tgz:39319.got - 2010.06.03 16:22:01.
