data_PCOD9520602
_publ_section_title
;
Structure prediction by ZEFSAII (Michael W. Deem and Ramdas Pophale) SiO2 
 PCOD9520602
Probable space group: I M M M
;
_chemical_formula_sum "Si O2"
_cell_formula_units_Z 112
_cell_length_a 17.904672
_cell_length_b 23.543417
_cell_length_c 14.500918
_cell_angle_alpha 90.000000
_cell_angle_beta 90.000000
_cell_angle_gamma 90.000000
_cell_volume 6112.675779
_symmetry_space_group_name_H-M "I M M M"
_symmetry_group_IT_number 71
_symmetry_cell_setting 'orthorhombic'
loop_
_space_group_symop_operation_xyz
x,y,z
-x,-y,z
x,-y,-z
-x,y,-z
-x,-y,-z
x,y,-z
-x,y,z
x,-y,z
1/2+x,1/2+y,1/2+z
1/2-x,1/2-y,1/2+z
1/2+x,1/2-y,1/2-z
1/2-x,1/2+y,1/2-z
1/2-x,1/2-y,1/2-z
1/2+x,1/2+y,1/2-z
1/2-x,1/2+y,1/2+z
1/2+x,1/2-y,1/2+z
loop_
_atom_site_type_symbol
_atom_site_label
_atom_site_fract_x
_atom_site_fract_y
_atom_site_fract_z
Si Si1 0.220118 0.728671 0.890703
Si Si2 0.857099 0.564474 0.110701
Si Si3 0.585533 0.176087 0.712342
Si Si4 0.196386 0.886971 0.391271
Si Si5 0.585067 0.568518 0.254712
Si Si6 0.673544 0.835501 0.108885
Si Si7 0.784155 0.065375 0.109486
O O1 0.144516 0.719003 0.834575
O O2 0.274690 0.676050 0.867082
O O3 0.264717 0.786441 0.875080
O O4 0.203505 0.723910 0.000000
O O5 0.879180 0.500000 0.134276
O O6 0.898438 0.614624 0.165052
O O7 0.768321 0.573189 0.128048
O O8 0.867872 0.572440 0.000000
O O9 0.500000 0.191966 0.698061
O O10 0.606616 0.172810 0.820134
O O11 0.181502 0.889024 0.500000
O O12 0.125157 0.905608 0.334163
O O13 0.500000 0.587592 0.267213
O O14 0.584379 0.500000 0.246767
O O15 0.640662 0.582953 0.338385
O O16 0.715424 0.894095 0.132522
O O17 0.653845 0.834554 0.000000
O O18 0.767814 0.000000 0.133301
O O19 0.795905 0.069343 0.000000
#
# Coordination Sequence:
#
# PCOD9520602 Si02
#       7
#    16  16  16  16  16  16  16
#     4   9  19  37  58  77 100 134 175 216 257 303
#     4   9  18  33  54  79 106 139 178 216 256 308
#     4  11  22  34  53  81 111 140 168 209 264 313
#     4   9  17  31  51  72  97 133 174 210 245 295
#     4  10  20  31  45  70 104 136 164 205 261 310
#     4  10  21  38  58  77 101 137 179 217 253 302
#     4   9  18  34  56  76  93 123 170 217 256 298
#
# _framework density 18.322581
#
# number of rings (size 3 to 8) (size 9 to 14) (size 15 to 20)
#    0.000    2.429    0.000    3.857    0.000    4.857 
#    0.000    5.714    0.000    5.143    0.000    3.000 
#    0.000    0.000    0.000    0.000    0.000    0.000 
#
# Total GULP energy -312571.866922 kJ/mol
# GULP energy per Si atom -5581.640481 kJ/mol
# Density = 1.828088 g / cm^3
# Si number density = 18.322581 Si / 1000 Ang^3
#
#
#
# Elastic Constant Matrix: (Units=GPa)
#
#
# Indices 1 2 3 4 5 6 
#
# 1 21.4159 -7.8703 3.4052 0.0000 0.0000 0.0000
# 2 -7.8703 28.4094 13.2281 0.0000 0.0000 0.0000
# 3 3.4052 13.2281 41.1734 0.0000 0.0000 0.0000
# 4 0.0000 0.0000 0.0000 17.4363 0.0000 0.0000
# 5 0.0000 0.0000 0.0000 0.0000 -5.5102 0.0000
# 6 0.0000 0.0000 0.0000 0.0000 0.0000 6.7033
#
#
#
# Elastic Compliance Matrix: (Units=1/GPa)
#
#
# Indices 1 2 3 4 5 6 
#
# 1 0.056154 0.020836 -0.011338 0.000000 0.000000 0.000000
# 2 0.020836 0.049123 -0.017505 0.000000 0.000000 0.000000
# 3 -0.011338 -0.017505 0.030849 0.000000 0.000000 0.000000
# 4 0.000000 0.000000 0.000000 0.057352 0.000000 0.000000
# 5 0.000000 0.000000 0.000000 0.000000 -0.181481 0.000000
# 6 0.000000 0.000000 0.000000 0.000000 0.000000 0.149181
#
#
# Mechanical properties :
#
#
# Convention : Reuss Voigt Hill
#
# Bulk Modulus (GPa) = 8.32565 12.05831 10.19198
# Shear Modulus (GPa) = 23.01701 9.20824 16.11262
#
# Velocity S-wave (km/s) = 3.54815 2.24422 2.96866
# Velocity P-wave (km/s) = 4.61948 3.64840 4.16236
#
# Compressibility (1/GPa) = 0.12011081
#
# Stress axis : x y z
#
# Youngs Moduli (GPa) = 17.80809 20.35720 32.41566
#
# Poissons Ratio (x) = -0.42416 0.36754
# Poissons Ratio (y) = -0.37105 0.56744
# Poissons Ratio (z) = 0.20191 0.35636
#
# Static dielectric constant tensor:
#      x y z
#    x 1.587520 0.000000 0.000000 
#    y 0.000000 1.642920 0.000000 
#    z 0.000000 0.000000 1.651810 
# 
# From -- ./inp_files/35107.got.cif
#   From: 2010.05.17/outbox.cif.g08.bks.cpg/sg71_18_cif.got.tgz:35107.got - 2010.06.03 16:22:01.
