data_PCOD9520196
_publ_section_title
;
Structure prediction by ZEFSAII (Michael W. Deem and Ramdas Pophale) SiO2 
 PCOD9520196
Probable space group: I M M M
;
_chemical_formula_sum "Si O2"
_cell_formula_units_Z 104
_cell_length_a 27.359806
_cell_length_b 22.395272
_cell_length_c 7.842383
_cell_angle_alpha 90.000000
_cell_angle_beta 90.000000
_cell_angle_gamma 90.000000
_cell_volume 4805.265667
_symmetry_space_group_name_H-M "I M M M"
_symmetry_group_IT_number 71
_symmetry_cell_setting 'orthorhombic'
loop_
_space_group_symop_operation_xyz
x,y,z
-x,-y,z
x,-y,-z
-x,y,-z
-x,-y,-z
x,y,-z
-x,y,z
x,-y,z
1/2+x,1/2+y,1/2+z
1/2-x,1/2-y,1/2+z
1/2+x,1/2-y,1/2-z
1/2-x,1/2+y,1/2-z
1/2-x,1/2-y,1/2-z
1/2+x,1/2+y,1/2-z
1/2-x,1/2+y,1/2+z
1/2+x,1/2-y,1/2+z
loop_
_atom_site_type_symbol
_atom_site_label
_atom_site_fract_x
_atom_site_fract_y
_atom_site_fract_z
Si Si1 0.556083 0.933612 0.707902
Si Si2 0.892629 0.683572 0.792989
Si Si3 0.945951 0.797951 0.702743
Si Si4 0.284270 0.805828 0.701085
Si Si5 0.372904 0.605412 0.793617
Si Si6 0.235990 0.931882 0.199262
Si Si7 0.054739 0.000000 0.293204
O O1 0.556367 0.933877 0.500000
O O2 0.500000 0.921438 0.758874
O O3 0.592438 0.882384 0.764161
O O4 0.569498 0.000000 0.765101
O O5 0.933865 0.729387 0.733835
O O6 0.838979 0.700405 0.726064
O O7 0.892371 0.684744 0.000000
O O8 0.947665 0.810153 0.500000
O O9 0.898324 0.833643 0.767630
O O10 0.000000 0.814132 0.770791
O O11 0.288688 0.801375 0.500000
O O12 0.250000 0.750000 0.750000
O O13 0.264312 0.872915 0.735440
O O14 0.321032 0.585427 0.722370
O O15 0.413768 0.557082 0.746719
O O16 0.366852 0.606767 0.000000
O O17 0.244042 0.000000 0.271027
O O18 0.247005 0.935491 0.000000
O O19 0.051841 0.000000 0.500000
O O20 0.000000 0.000000 0.225925
#
# Coordination Sequence:
#
# PCOD9520196 Si02
#       7
#    16  16  16  16  16  16   8
#     4   8  14  27  50  79 108 135 165 207 261 320
#     4  10  21  36  56  82 108 140 184 233 283 338
#     4  10  21  35  53  82 118 153 188 228 279 341
#     4  11  24  41  62  87 116 152 198 251 305 361
#     4  10  19  34  57  82 110 148 194 239 284 336
#     4  11  24  41  61  86 119 157 199 250 304 360
#     4   9  16  28  51  81 109 139 183 237 284 333
#
# _framework density 21.642924000000001
#
# number of rings (size 3 to 8) (size 9 to 14) (size 15 to 20)
#    0.000    2.077    0.769    3.231    0.000    8.615 
#    0.000    1.538    0.000    2.308    0.000    2.154 
#    0.000    0.000    0.000    0.000    0.000    0.000 
#
# Total GULP energy -290136.894910 kJ/mol
# GULP energy per Si atom -5579.555671 kJ/mol
# Density = 2.159366 g / cm^3
# Si number density = 21.642924 Si / 1000 Ang^3
#
#
#
# Elastic Constant Matrix: (Units=GPa)
#
#
# Indices 1 2 3 4 5 6 
#
# 1 49.8688 21.3613 -3.1728 0.0000 0.0000 0.0000
# 2 21.3613 112.2877 0.2218 0.0000 0.0000 0.0000
# 3 -3.1728 0.2218 27.5860 0.0000 0.0000 0.0000
# 4 0.0000 0.0000 0.0000 80.3701 0.0000 0.0000
# 5 0.0000 0.0000 0.0000 0.0000 14.2399 0.0000
# 6 0.0000 0.0000 0.0000 0.0000 0.0000 51.4879
#
#
#
# Elastic Compliance Matrix: (Units=1/GPa)
#
#
# Indices 1 2 3 4 5 6 
#
# 1 0.022012 -0.004193 0.002565 0.000000 0.000000 0.000000
# 2 -0.004193 0.009704 -0.000560 0.000000 0.000000 0.000000
# 3 0.002565 -0.000560 0.036550 0.000000 0.000000 0.000000
# 4 0.000000 0.000000 0.000000 0.012442 0.000000 0.000000
# 5 0.000000 0.000000 0.000000 0.000000 0.070225 0.000000
# 6 0.000000 0.000000 0.000000 0.000000 0.000000 0.019422
#
#
# Mechanical properties :
#
#
# Convention : Reuss Voigt Hill
#
# Bulk Modulus (GPa) = 15.65162 25.17369 20.41265
# Shear Modulus (GPa) = 25.50662 40.64172 33.07417
#
# Velocity S-wave (km/s) = 3.43668 4.33809 3.91343
# Velocity P-wave (km/s) = 4.79533 6.06207 5.46552
#
# Compressibility (1/GPa) = 0.06389114
#
# Stress axis : x y z
#
# Youngs Moduli (GPa) = 45.43035 103.04632 27.35994
#
# Poissons Ratio (x) = 0.43202 -0.07019
# Poissons Ratio (y) = 0.19047 0.01533
# Poissons Ratio (z) = -0.11655 0.05773
#
# Static dielectric constant tensor:
#      x y z
#    x 1.822280 0.000000 0.000000 
#    y 0.000000 1.890470 0.000000 
#    z 0.000000 0.000000 1.805100 
# 
# From -- ./inp_files/14977.got.cif
#   From: 2010.05.17/outbox.cif.g08.bks.cpg/sg71_8_cif.got.tgz:14977.got - 2010.06.03 16:22:01.
