data_PCOD9520695
_publ_section_title
;
Structure prediction by ZEFSAII (Michael W. Deem and Ramdas Pophale) SiO2 
 PCOD9520695
Probable space group: I M M M
;
_chemical_formula_sum "Si O2"
_cell_formula_units_Z 72
_cell_length_a 19.584154
_cell_length_b 8.583996
_cell_length_c 28.487151
_cell_angle_alpha 90.000000
_cell_angle_beta 90.000000
_cell_angle_gamma 90.000000
_cell_volume 4788.983489
_symmetry_space_group_name_H-M "I M M M"
_symmetry_group_IT_number 71
_symmetry_cell_setting 'orthorhombic'
loop_
_space_group_symop_operation_xyz
x,y,z
-x,-y,z
x,-y,-z
-x,y,-z
-x,-y,-z
x,y,-z
-x,y,z
x,-y,z
1/2+x,1/2+y,1/2+z
1/2-x,1/2-y,1/2+z
1/2+x,1/2-y,1/2-z
1/2-x,1/2+y,1/2-z
1/2-x,1/2-y,1/2-z
1/2+x,1/2+y,1/2-z
1/2-x,1/2+y,1/2+z
1/2+x,1/2-y,1/2+z
loop_
_atom_site_type_symbol
_atom_site_label
_atom_site_fract_x
_atom_site_fract_y
_atom_site_fract_z
Si Si1 0.353897 0.686716 0.272751
Si Si2 0.778101 0.813300 0.322694
Si Si3 0.632256 0.812930 0.902237
Si Si4 0.500000 0.810996 0.156208
Si Si5 0.419722 0.313234 0.000000
Si Si6 0.500000 0.186991 0.736092
O O1 0.354256 0.500000 0.274010
O O2 0.295700 0.750995 0.307226
O O3 0.329364 0.735841 0.220018
O O4 0.428798 0.750922 0.284068
O O5 0.803963 0.747251 0.372095
O O6 0.777535 0.000000 0.324053
O O7 0.566641 0.760542 0.871771
O O8 0.618974 0.747643 0.953901
O O9 0.633682 0.000000 0.904133
O O10 0.500000 0.757529 0.209588
O O11 0.500000 0.000000 0.156983
O O12 0.420267 0.500000 0.000000
O O13 0.500000 0.260247 0.000000
O O14 0.500000 0.000000 0.734783
#
# Coordination Sequence:
#
# PCOD9520695 Si02
#       6
#    16  16  16   8   8   8
#     4  10  20  32  47  69  95 126 162 199 239 289
#     4  10  20  33  48  68  94 126 161 201 244 287
#     4  11  20  34  51  68  92 127 166 205 245 289
#     4   9  18  28  44  67  92 124 162 200 239 284
#     4  11  23  35  47  69  97 126 163 208 247 283
#     4  11  19  31  48  70  97 127 162 202 244 287
#
# _framework density 15.034506
#
# number of rings (size 3 to 8) (size 9 to 14) (size 15 to 20)
#    0.000    1.667    3.333    2.667    0.000    2.222 
#    0.000    0.000    0.000    0.000    0.000    0.000 
#    0.000    0.889    0.000    8.889    0.000    5.333 
#
# Total GULP energy -200910.876588 kJ/mol
# GULP energy per Si atom -5580.857683 kJ/mol
# Density = 1.500029 g / cm^3
# Si number density = 15.034506 Si / 1000 Ang^3
#
#
#
# Elastic Constant Matrix: (Units=GPa)
#
#
# Indices 1 2 3 4 5 6 
#
# 1 121.8053 36.9961 57.0572 0.0000 0.0000 0.0000
# 2 36.9961 57.1012 32.0007 0.0000 0.0000 0.0000
# 3 57.0572 32.0007 99.1042 0.0000 0.0000 0.0000
# 4 0.0000 0.0000 0.0000 21.8573 0.0000 0.0000
# 5 0.0000 0.0000 0.0000 0.0000 23.4586 0.0000
# 6 0.0000 0.0000 0.0000 0.0000 0.0000 24.1895
#
#
#
# Elastic Compliance Matrix: (Units=1/GPa)
#
#
# Indices 1 2 3 4 5 6 
#
# 1 0.012258 -0.004868 -0.005485 0.000000 0.000000 0.000000
# 2 -0.004868 0.023315 -0.004726 0.000000 0.000000 0.000000
# 3 -0.005485 -0.004726 0.014774 0.000000 0.000000 0.000000
# 4 0.000000 0.000000 0.000000 0.045751 0.000000 0.000000
# 5 0.000000 0.000000 0.000000 0.000000 0.042628 0.000000
# 6 0.000000 0.000000 0.000000 0.000000 0.000000 0.041340
#
#
# Mechanical properties :
#
#
# Convention : Reuss Voigt Hill
#
# Bulk Modulus (GPa) = 49.53126 58.90209 54.21667
# Shear Modulus (GPa) = 23.04621 24.03151 23.53886
#
# Velocity S-wave (km/s) = 3.91946 4.00237 3.96113
# Velocity P-wave (km/s) = 7.31433 7.78599 7.55384
#
# Compressibility (1/GPa) = 0.02018927
#
# Stress axis : x y z
#
# Youngs Moduli (GPa) = 81.58034 42.89059 67.68425
#
# Poissons Ratio (x) = 0.20878 0.37128
# Poissons Ratio (y) = 0.39712 0.31987
# Poissons Ratio (z) = 0.44750 0.20270
#
# Static dielectric constant tensor:
#      x y z
#    x 1.500900 0.000000 0.000000 
#    y 0.000000 1.498400 0.000000 
#    z 0.000000 0.000000 1.483930 
# 
# From -- ./inp_files/8204.got.cif
#   From: 2010.05.17/outbox.cif.g08.bks.cpg/sg71_5_cif.got.tgz:8204.got - 2010.06.03 16:22:01.
