data_PCOD9520149
_publ_section_title
;
Structure prediction by ZEFSAII (Michael W. Deem and Ramdas Pophale) SiO2 
 PCOD9520149
Probable space group: I M M M
;
_chemical_formula_sum "Si O2"
_cell_formula_units_Z 104
_cell_length_a 20.128142
_cell_length_b 20.633371
_cell_length_c 14.433400
_cell_angle_alpha 90.000000
_cell_angle_beta 90.000000
_cell_angle_gamma 90.000000
_cell_volume 5994.355870
_symmetry_space_group_name_H-M "I M M M"
_symmetry_group_IT_number 71
_symmetry_cell_setting 'orthorhombic'
loop_
_space_group_symop_operation_xyz
x,y,z
-x,-y,z
x,-y,-z
-x,y,-z
-x,-y,-z
x,y,-z
-x,y,z
x,-y,z
1/2+x,1/2+y,1/2+z
1/2-x,1/2-y,1/2+z
1/2+x,1/2-y,1/2-z
1/2-x,1/2+y,1/2-z
1/2-x,1/2-y,1/2-z
1/2+x,1/2+y,1/2-z
1/2-x,1/2+y,1/2+z
1/2+x,1/2-y,1/2+z
loop_
_atom_site_type_symbol
_atom_site_label
_atom_site_fract_x
_atom_site_fract_y
_atom_site_fract_z
Si Si1 0.076381 0.500000 0.888173
Si Si2 0.798970 0.925908 0.187288
Si Si3 0.425265 0.367099 0.799500
Si Si4 0.101163 0.076074 0.500000
Si Si5 0.327099 0.893644 0.686138
Si Si6 0.351699 0.237899 0.777235
Si Si7 0.759914 0.420591 0.000000
Si Si8 0.769220 0.793958 0.103400
O O1 0.114508 0.440301 0.844157
O O2 0.000000 0.500000 0.863660
O O3 0.081020 0.500000 0.000000
O O4 0.865240 0.903354 0.244066
O O5 0.733197 0.922115 0.252337
O O6 0.782032 0.871234 0.111424
O O7 0.807602 0.000000 0.156257
O O8 0.500000 0.379159 0.762765
O O9 0.422771 0.391407 0.905269
O O10 0.408395 0.290284 0.796133
O O11 0.180976 0.081463 0.500000
O O12 0.083484 0.000000 0.500000
O O13 0.361050 0.834537 0.739986
O O14 0.288878 0.883725 0.588933
O O15 0.304433 0.228981 0.866763
O O16 0.311822 0.267313 0.689254
O O17 0.775837 0.500000 0.000000
O O18 0.785969 0.772396 0.000000
#
# Coordination Sequence:
#
# PCOD9520149 Si02
#       8
#     8  16  16   8  16  16   8  16
#     4  11  22  32  50  84 114 142 184 231 288 346
#     4  10  19  34  56  80 106 141 185 225 276 336
#     4  11  23  37  51  77 116 151 191 236 275 334
#     4  11  23  34  55  86 116 147 190 229 290 348
#     4  11  18  34  55  77 110 145 184 228 277 337
#     4   9  22  34  53  80 103 150 189 215 282 339
#     4  11  18  29  54  87 114 146 174 231 294 331
#     4   9  19  34  53  82 109 131 178 237 273 321
#
# _framework density 17.349654000000001
#
# number of rings (size 3 to 8) (size 9 to 14) (size 15 to 20)
#    0.000    1.769    3.846    1.615    2.154    2.462 
#    0.000    0.000    0.000    7.385    0.000    4.308 
#    0.000    3.077    0.000    0.000    0.000    0.000 
#
# Total GULP energy -289507.503004 kJ/mol
# GULP energy per Si atom -5567.451981 kJ/mol
# Density = 1.731017 g / cm^3
# Si number density = 17.349654 Si / 1000 Ang^3
#
#
#
# Elastic Constant Matrix: (Units=GPa)
#
#
# Indices 1 2 3 4 5 6 
#
# 1 113.4258 33.3615 14.5841 0.0000 0.0000 0.0000
# 2 33.3615 91.8931 14.8336 0.0000 0.0000 0.0000
# 3 14.5841 14.8336 64.6574 0.0000 0.0000 0.0000
# 4 0.0000 0.0000 0.0000 9.2143 0.0000 0.0000
# 5 0.0000 0.0000 0.0000 0.0000 23.7096 0.0000
# 6 0.0000 0.0000 0.0000 0.0000 0.0000 6.6661
#
#
#
# Elastic Compliance Matrix: (Units=1/GPa)
#
#
# Indices 1 2 3 4 5 6 
#
# 1 0.010005 -0.003394 -0.001478 0.000000 0.000000 0.000000
# 2 -0.003394 0.012452 -0.002091 0.000000 0.000000 0.000000
# 3 -0.001478 -0.002091 0.016279 0.000000 0.000000 0.000000
# 4 0.000000 0.000000 0.000000 0.108528 0.000000 0.000000
# 5 0.000000 0.000000 0.000000 0.000000 0.042177 0.000000
# 6 0.000000 0.000000 0.000000 0.000000 0.000000 0.150013
#
#
# Mechanical properties :
#
#
# Convention : Reuss Voigt Hill
#
# Bulk Modulus (GPa) = 40.30641 43.94830 42.12735
# Shear Modulus (GPa) = 13.82557 21.73113 17.77835
#
# Velocity S-wave (km/s) = 2.82597 3.54296 3.20458
# Velocity P-wave (km/s) = 5.82498 6.49020 6.16657
#
# Compressibility (1/GPa) = 0.02480995
#
# Stress axis : x y z
#
# Youngs Moduli (GPa) = 99.95501 80.30974 61.42767
#
# Poissons Ratio (x) = 0.27253 0.09079
# Poissons Ratio (y) = 0.33920 0.12846
# Poissons Ratio (z) = 0.14774 0.16795
#
# Static dielectric constant tensor:
#      x y z
#    x 1.584150 0.000000 0.000000 
#    y 0.000000 1.656550 0.000000 
#    z 0.000000 0.000000 1.569500 
# 
# From -- ./inp_files/38375.got.cif
#   From: 2010.05.17/outbox.cif.g08.bks.cpg/sg71_20_cif.got.tgz:38375.got - 2010.06.03 16:22:01.
