data_PCOD9520268
_publ_section_title
;
Structure prediction by ZEFSAII (Michael W. Deem and Ramdas Pophale) SiO2 
 PCOD9520268
Probable space group: I M M M
;
_chemical_formula_sum "Si O2"
_cell_formula_units_Z 68
_cell_length_a 7.773465
_cell_length_b 27.372455
_cell_length_c 19.508869
_cell_angle_alpha 90.000000
_cell_angle_beta 90.000000
_cell_angle_gamma 90.000000
_cell_volume 4151.074143
_symmetry_space_group_name_H-M "I M M M"
_symmetry_group_IT_number 71
_symmetry_cell_setting 'orthorhombic'
loop_
_space_group_symop_operation_xyz
x,y,z
-x,-y,z
x,-y,-z
-x,y,-z
-x,-y,-z
x,y,-z
-x,y,z
x,-y,z
1/2+x,1/2+y,1/2+z
1/2-x,1/2-y,1/2+z
1/2+x,1/2-y,1/2-z
1/2-x,1/2+y,1/2-z
1/2-x,1/2-y,1/2-z
1/2+x,1/2+y,1/2-z
1/2-x,1/2+y,1/2+z
1/2+x,1/2-y,1/2+z
loop_
_atom_site_type_symbol
_atom_site_label
_atom_site_fract_x
_atom_site_fract_y
_atom_site_fract_z
Si Si1 0.306690 0.919401 0.360422
Si Si2 0.796711 0.764739 0.849743
Si Si3 0.800095 0.830957 0.272263
Si Si4 0.500000 0.500000 0.150747
Si Si5 0.705572 0.748755 0.000000
Si Si6 0.708529 0.364543 0.000000
O O1 0.500000 0.940112 0.360427
O O2 0.294277 0.877611 0.302255
O O3 0.274871 0.891814 0.432601
O O4 0.152965 0.957637 0.351193
O O5 0.734482 0.807386 0.798787
O O6 0.712218 0.713810 0.826366
O O7 0.000000 0.759246 0.836768
O O8 0.766598 0.772987 0.929628
O O9 0.000000 0.844135 0.264029
O O10 0.500000 0.748537 0.000000
O O11 0.764393 0.692073 0.000000
O O12 0.500000 0.366003 0.000000
#
# Coordination Sequence:
#
# PCOD9520268 Si02
#       6
#    16  16  16   4   8   8
#     4  12  24  39  60  79 104 145 190 236 286 330
#     4  10  20  31  52  78 108 143 184 219 270 336
#     4  10  19  35  52  77 109 142 177 230 279 327
#     4  12  26  45  58  78 110 141 196 248 286 317
#     4  11  21  31  49  76 111 148 186 224 266 324
#     4  11  21  37  54  75 109 150 186 237 281 318
#
# _framework density 16.381302999999999
#
# number of rings (size 3 to 8) (size 9 to 14) (size 15 to 20)
#    0.000    1.176    4.706    2.471    0.000    4.706 
#    0.000    1.176    0.000    0.000    0.000    0.000 
#    0.000    1.882    0.000    3.412    0.000    0.118 
#
# Total GULP energy -189320.722007 kJ/mol
# GULP energy per Si atom -5568.256530 kJ/mol
# Density = 1.634402 g / cm^3
# Si number density = 16.381303 Si / 1000 Ang^3
#
#
#
# Elastic Constant Matrix: (Units=GPa)
#
#
# Indices 1 2 3 4 5 6 
#
# 1 111.2104 35.1416 15.2157 0.0000 0.0000 0.0000
# 2 35.1416 81.7509 44.5925 0.0000 0.0000 0.0000
# 3 15.2157 44.5925 108.4048 0.0000 0.0000 0.0000
# 4 0.0000 0.0000 0.0000 -5.0813 0.0000 0.0000
# 5 0.0000 0.0000 0.0000 0.0000 2.6491 0.0000
# 6 0.0000 0.0000 0.0000 0.0000 0.0000 19.4538
#
#
#
# Elastic Compliance Matrix: (Units=1/GPa)
#
#
# Indices 1 2 3 4 5 6 
#
# 1 0.010426 -0.004749 0.000490 0.000000 0.000000 0.000000
# 2 -0.004749 0.017934 -0.006711 0.000000 0.000000 0.000000
# 3 0.000490 -0.006711 0.011916 0.000000 0.000000 0.000000
# 4 0.000000 0.000000 0.000000 -0.196801 0.000000 0.000000
# 5 0.000000 0.000000 0.000000 0.000000 0.377493 0.000000
# 6 0.000000 0.000000 0.000000 0.000000 0.000000 0.051404
#
#
# Mechanical properties :
#
#
# Convention : Reuss Voigt Hill
#
# Bulk Modulus (GPa) = 54.53422 54.58509 54.55966
# Shear Modulus (GPa) = 16.64318 17.16539 16.90429
#
# Velocity S-wave (km/s) = 3.19091 3.24059 3.21585
# Velocity P-wave (km/s) = 6.85118 6.88446 6.86784
#
# Compressibility (1/GPa) = 0.01833711
#
# Stress axis : x y z
#
# Youngs Moduli (GPa) = 95.91853 55.75969 83.91841
#
# Poissons Ratio (x) = 0.26480 -0.04113
# Poissons Ratio (y) = 0.45551 0.56315
# Poissons Ratio (z) = -0.04701 0.37418
#
# Static dielectric constant tensor:
#      x y z
#    x 1.589300 0.000000 0.000000 
#    y 0.000000 1.525430 0.000000 
#    z 0.000000 0.000000 1.561870 
# 
# From -- ./inp_files/8038.got.cif
#   From: 2010.05.17/outbox.cif.g08.bks.cpg/sg71_5_cif.got.tgz:8038.got - 2010.06.03 16:22:01.
