data_PCOD9520544
_publ_section_title
;
Structure prediction by ZEFSAII (Michael W. Deem and Ramdas Pophale) SiO2 
 PCOD9520544
Probable space group: I M M M
;
_chemical_formula_sum "Si O2"
_cell_formula_units_Z 88
_cell_length_a 17.422280
_cell_length_b 13.785768
_cell_length_c 22.811031
_cell_angle_alpha 90.000000
_cell_angle_beta 90.000000
_cell_angle_gamma 90.000000
_cell_volume 5478.742251
_symmetry_space_group_name_H-M "I M M M"
_symmetry_group_IT_number 71
_symmetry_cell_setting 'orthorhombic'
loop_
_space_group_symop_operation_xyz
x,y,z
-x,-y,z
x,-y,-z
-x,y,-z
-x,-y,-z
x,y,-z
-x,y,z
x,-y,z
1/2+x,1/2+y,1/2+z
1/2-x,1/2-y,1/2+z
1/2+x,1/2-y,1/2-z
1/2-x,1/2+y,1/2-z
1/2-x,1/2-y,1/2-z
1/2+x,1/2+y,1/2-z
1/2-x,1/2+y,1/2+z
1/2+x,1/2-y,1/2+z
loop_
_atom_site_type_symbol
_atom_site_label
_atom_site_fract_x
_atom_site_fract_y
_atom_site_fract_z
Si Si1 0.000000 0.616626 0.267671
Si Si2 0.344240 0.796521 0.816201
Si Si3 0.412077 0.500000 0.070947
Si Si4 0.668861 0.113829 0.392269
Si Si5 0.736681 0.389830 0.772771
Si Si6 0.322213 0.696792 0.066892
Si Si7 0.500000 0.882365 0.369990
O O1 0.924793 0.660406 0.297236
O O2 0.000000 0.641758 0.198777
O O3 0.000000 0.500000 0.272198
O O4 0.326258 0.691281 0.787233
O O5 0.278278 0.863952 0.788016
O O6 0.339479 0.778819 0.885526
O O7 0.500000 0.500000 0.092349
O O8 0.366423 0.597879 0.086579
O O9 0.414263 0.500000 0.000000
O O10 0.699103 0.119449 0.324681
O O11 0.732190 0.171179 0.428649
O O12 0.581421 0.149235 0.396590
O O13 0.671727 0.000000 0.408756
O O14 0.708530 0.500000 0.773976
O O15 0.343842 0.718673 0.000000
O O16 0.500000 0.000000 0.373490
#
# Coordination Sequence:
#
# PCOD9520544 Si02
#       7
#     8  16   8  16  16  16   8
#     4  11  20  34  52  76 109 138 164 209 262 320
#     4  10  20  30  50  77  97 135 175 205 255 314
#     4   9  18  32  48  63  87 133 177 216 267 310
#     4   9  15  27  47  71  98 131 165 203 258 317
#     4   9  17  32  50  72 102 131 167 214 258 303
#     4  10  20  33  48  68  99 135 177 222 260 310
#     4   9  16  26  47  74 102 130 159 197 246 314
#
# _framework density 16.062080000000002
#
# number of rings (size 3 to 8) (size 9 to 14) (size 15 to 20)
#    0.000    2.455    2.727    0.545    2.545    0.000 
#    0.000    0.909    0.000    4.364    0.000    0.000 
#    0.000    0.000    0.000    1.636    0.000    0.000 
#
# Total GULP energy -245179.501286 kJ/mol
# GULP energy per Si atom -5572.261393 kJ/mol
# Density = 1.602552 g / cm^3
# Si number density = 16.062080 Si / 1000 Ang^3
#
#
#
# Elastic Constant Matrix: (Units=GPa)
#
#
# Indices 1 2 3 4 5 6 
#
# 1 98.5056 20.5995 7.7013 0.0000 0.0000 0.0000
# 2 20.5995 47.6798 6.3845 0.0000 0.0000 0.0000
# 3 7.7013 6.3845 52.6221 0.0000 0.0000 0.0000
# 4 0.0000 0.0000 0.0000 15.4302 0.0000 0.0000
# 5 0.0000 0.0000 0.0000 0.0000 9.2724 0.0000
# 6 0.0000 0.0000 0.0000 0.0000 0.0000 19.8130
#
#
#
# Elastic Compliance Matrix: (Units=1/GPa)
#
#
# Indices 1 2 3 4 5 6 
#
# 1 0.011219 -0.004704 -0.001071 0.000000 0.000000 0.000000
# 2 -0.004704 0.023292 -0.002138 0.000000 0.000000 0.000000
# 3 -0.001071 -0.002138 0.019420 0.000000 0.000000 0.000000
# 4 0.000000 0.000000 0.000000 0.064808 0.000000 0.000000
# 5 0.000000 0.000000 0.000000 0.000000 0.107847 0.000000
# 6 0.000000 0.000000 0.000000 0.000000 0.000000 0.050472
#
#
# Mechanical properties :
#
#
# Convention : Reuss Voigt Hill
#
# Bulk Modulus (GPa) = 26.24300 29.79758 28.02029
# Shear Modulus (GPa) = 16.36211 19.84460 18.10335
#
# Velocity S-wave (km/s) = 3.19514 3.51877 3.36085
# Velocity P-wave (km/s) = 5.47593 5.92459 5.70467
#
# Compressibility (1/GPa) = 0.03810540
#
# Stress axis : x y z
#
# Youngs Moduli (GPa) = 89.13386 42.93396 51.49453
#
# Poissons Ratio (x) = 0.20194 0.05516
# Poissons Ratio (y) = 0.41925 0.11007
# Poissons Ratio (z) = 0.09548 0.09177
#
# Static dielectric constant tensor:
#      x y z
#    x 1.558210 0.000000 0.000000 
#    y 0.000000 1.526320 0.000000 
#    z 0.000000 0.000000 1.564680 
# 
# From -- ./inp_files/60681.got.cif
#   From: 2010.05.17/outbox.cif.g08.bks.cpg/sg71_31_cif.got.tgz:60681.got - 2010.06.03 16:22:01.
