data_PCOD9520175
_publ_section_title
;
Structure prediction by ZEFSAII (Michael W. Deem and Ramdas Pophale) SiO2 
 PCOD9520175
Probable space group: I M M M
;
_chemical_formula_sum "Si O2"
_cell_formula_units_Z 72
_cell_length_a 8.741341
_cell_length_b 19.856358
_cell_length_c 22.661288
_cell_angle_alpha 90.000000
_cell_angle_beta 90.000000
_cell_angle_gamma 90.000000
_cell_volume 3933.346868
_symmetry_space_group_name_H-M "I M M M"
_symmetry_group_IT_number 71
_symmetry_cell_setting 'orthorhombic'
loop_
_space_group_symop_operation_xyz
x,y,z
-x,-y,z
x,-y,-z
-x,y,-z
-x,-y,-z
x,y,-z
-x,y,z
x,-y,z
1/2+x,1/2+y,1/2+z
1/2-x,1/2-y,1/2+z
1/2+x,1/2-y,1/2-z
1/2-x,1/2+y,1/2-z
1/2-x,1/2-y,1/2-z
1/2+x,1/2+y,1/2-z
1/2-x,1/2+y,1/2+z
1/2+x,1/2-y,1/2+z
loop_
_atom_site_type_symbol
_atom_site_label
_atom_site_fract_x
_atom_site_fract_y
_atom_site_fract_z
Si Si1 0.816909 0.422526 0.146861
Si Si2 0.313705 0.922897 0.000000
Si Si3 0.683060 0.422036 0.724032
Si Si4 0.185042 0.660108 0.384067
Si Si5 0.315358 0.305027 0.068700
O O1 0.772978 0.500000 0.133179
O O2 0.750414 0.406473 0.211561
O O3 0.753461 0.370268 0.099603
O O4 0.000000 0.418873 0.149008
O O5 0.266874 0.883737 0.941048
O O6 0.500000 0.923068 0.000000
O O7 0.261322 0.000000 0.000000
O O8 0.500000 0.418018 0.726389
O O9 0.725871 0.500000 0.709932
O O10 0.746635 0.372572 0.674389
O O11 0.230306 0.737109 0.396749
O O12 0.000000 0.657670 0.380589
O O13 0.500000 0.308774 0.070606
O O14 0.270765 0.299437 0.000000
#
# Coordination Sequence:
#
# PCOD9520175 Si02
#       5
#    16   8  16  16  16
#     4  10  22  40  61  84 109 142 188 237 284 338
#     4   9  16  28  51  81 110 145 188 228 265 311
#     4  10  21  37  57  83 115 149 187 233 284 335
#     4  10  19  34  56  83 114 150 190 229 272 328
#     4  10  21  38  59  84 116 150 186 230 279 334
#
# _framework density 18.305022999999998
#
# number of rings (size 3 to 8) (size 9 to 14) (size 15 to 20)
#    0.000    2.111    1.111    2.000    0.000    6.222 
#    0.000    2.778    0.000    2.000    0.000    0.000 
#    0.000    0.000    0.000    0.000    0.000    0.000 
#
# Total GULP energy -201036.687166 kJ/mol
# GULP energy per Si atom -5584.352421 kJ/mol
# Density = 1.826336 g / cm^3
# Si number density = 18.305023 Si / 1000 Ang^3
#
#
#
# Elastic Constant Matrix: (Units=GPa)
#
#
# Indices 1 2 3 4 5 6 
#
# 1 25.1150 37.3441 34.7186 0.0000 0.0000 0.0000
# 2 37.3441 125.9533 79.7894 0.0000 0.0000 0.0000
# 3 34.7186 79.7894 100.1069 0.0000 0.0000 0.0000
# 4 0.0000 0.0000 0.0000 -14.1666 0.0000 0.0000
# 5 0.0000 0.0000 0.0000 0.0000 30.5717 0.0000
# 6 0.0000 0.0000 0.0000 0.0000 0.0000 27.5245
#
#
#
# Elastic Compliance Matrix: (Units=1/GPa)
#
#
# Indices 1 2 3 4 5 6 
#
# 1 0.086402 -0.013401 -0.019284 0.000000 0.000000 0.000000
# 2 -0.013401 0.018115 -0.009791 0.000000 0.000000 0.000000
# 3 -0.019284 -0.009791 0.024481 0.000000 0.000000 0.000000
# 4 0.000000 0.000000 0.000000 -0.070589 0.000000 0.000000
# 5 0.000000 0.000000 0.000000 0.000000 0.032710 0.000000
# 6 0.000000 0.000000 0.000000 0.000000 0.000000 0.036331
#
#
# Mechanical properties :
#
#
# Convention : Reuss Voigt Hill
#
# Bulk Modulus (GPa) = 22.70375 61.65327 42.17851
# Shear Modulus (GPa) = 22.01827 15.40744 18.71285
#
# Velocity S-wave (km/s) = 3.47198 2.90436 3.20078
# Velocity P-wave (km/s) = 5.33880 6.70830 6.06235
#
# Compressibility (1/GPa) = 0.04404559
#
# Stress axis : x y z
#
# Youngs Moduli (GPa) = 11.57387 55.20261 40.84809
#
# Poissons Ratio (x) = 0.73978 0.78771
# Poissons Ratio (y) = 0.15510 0.39993
# Poissons Ratio (z) = 0.22319 0.54047
#
# Static dielectric constant tensor:
#      x y z
#    x 1.618810 0.000000 0.000000 
#    y 0.000000 1.621590 0.000000 
#    z 0.000000 0.000000 1.590850 
# 
# From -- ./inp_files/7982.got.cif
#   From: 2010.05.17/outbox.cif.g08.bks.cpg/sg71_4_cif.got.tgz:7982.got - 2010.06.03 16:22:01.
