data_PCOD9520177
_publ_section_title
;
Structure prediction by ZEFSAII (Michael W. Deem and Ramdas Pophale) SiO2 
 PCOD9520177
Probable space group: I M M M
;
_chemical_formula_sum "Si O2"
_cell_formula_units_Z 80
_cell_length_a 15.332083
_cell_length_b 15.288594
_cell_length_c 17.638882
_cell_angle_alpha 90.000000
_cell_angle_beta 90.000000
_cell_angle_gamma 90.000000
_cell_volume 4134.659636
_symmetry_space_group_name_H-M "I M M M"
_symmetry_group_IT_number 71
_symmetry_cell_setting 'orthorhombic'
loop_
_space_group_symop_operation_xyz
x,y,z
-x,-y,z
x,-y,-z
-x,y,-z
-x,-y,-z
x,y,-z
-x,y,z
x,-y,z
1/2+x,1/2+y,1/2+z
1/2-x,1/2-y,1/2+z
1/2+x,1/2-y,1/2-z
1/2-x,1/2+y,1/2-z
1/2-x,1/2-y,1/2-z
1/2+x,1/2+y,1/2-z
1/2-x,1/2+y,1/2+z
1/2+x,1/2-y,1/2+z
loop_
_atom_site_type_symbol
_atom_site_label
_atom_site_fract_x
_atom_site_fract_y
_atom_site_fract_z
Si Si1 0.406352 0.742775 0.331884
Si Si2 0.099307 0.500000 0.089899
Si Si3 0.231470 0.339107 0.088339
Si Si4 0.500000 0.894881 0.084857
Si Si5 0.630419 0.102465 0.784423
Si Si6 0.172806 0.101471 0.268521
O O1 0.500000 0.743523 0.371443
O O2 0.325277 0.754968 0.388430
O O3 0.403147 0.824831 0.273945
O O4 0.393598 0.657855 0.280213
O O5 0.161585 0.417338 0.104192
O O6 0.000000 0.500000 0.121063
O O7 0.087902 0.500000 0.000000
O O8 0.307418 0.355525 0.149302
O O9 0.256011 0.340718 0.000000
O O10 0.585309 0.874844 0.135621
O O11 0.500000 0.000000 0.078088
O O12 0.500000 0.857464 0.000000
O O13 0.734678 0.106842 0.776516
O O14 0.607656 0.000000 0.767139
O O15 0.149898 0.000000 0.277651
#
# Coordination Sequence:
#
# PCOD9520177 Si02
#       6
#    16   8  16   8  16  16
#     4  11  22  35  55  79 112 150 193 234 279 337
#     4   9  16  26  44  78 117 141 163 202 274 356
#     4  10  19  34  56  84 114 143 177 232 296 349
#     4   9  16  28  50  78 108 140 170 207 270 342
#     4   9  17  32  52  77 108 138 171 223 285 340
#     4  10  21  38  56  77 109 152 200 237 273 329
#
# _framework density 19.34863
#
# number of rings (size 3 to 8) (size 9 to 14) (size 15 to 20)
#    0.000    2.200    2.000    3.000    1.400    1.600 
#    0.000    4.000    0.000    1.800    0.000    2.800 
#    0.000    0.000    0.000    0.000    0.000    0.000 
#
# Total GULP energy -222933.762273 kJ/mol
# GULP energy per Si atom -5573.344057 kJ/mol
# Density = 1.930459 g / cm^3
# Si number density = 19.348630 Si / 1000 Ang^3
#
#
#
# Elastic Constant Matrix: (Units=GPa)
#
#
# Indices 1 2 3 4 5 6 
#
# 1 18.1342 11.5480 -1.1562 0.0000 0.0000 0.0000
# 2 11.5480 49.8898 13.2144 0.0000 0.0000 0.0000
# 3 -1.1562 13.2144 100.2571 0.0000 0.0000 0.0000
# 4 0.0000 0.0000 0.0000 19.3478 0.0000 0.0000
# 5 0.0000 0.0000 0.0000 0.0000 17.2245 0.0000
# 6 0.0000 0.0000 0.0000 0.0000 0.0000 -15.2123
#
#
#
# Elastic Compliance Matrix: (Units=1/GPa)
#
#
# Indices 1 2 3 4 5 6 
#
# 1 0.065456 -0.015906 0.002851 0.000000 0.000000 0.000000
# 2 -0.015906 0.024635 -0.003430 0.000000 0.000000 0.000000
# 3 0.002851 -0.003430 0.010459 0.000000 0.000000 0.000000
# 4 0.000000 0.000000 0.000000 0.051685 0.000000 0.000000
# 5 0.000000 0.000000 0.000000 0.000000 0.058057 0.000000
# 6 0.000000 0.000000 0.000000 0.000000 0.000000 -0.065736
#
#
# Mechanical properties :
#
#
# Convention : Reuss Voigt Hill
#
# Bulk Modulus (GPa) = 14.79750 23.94371 19.37061
# Shear Modulus (GPa) = 24.99348 13.91700 19.45524
#
# Velocity S-wave (km/s) = 3.59798 2.68484 3.17442
# Velocity P-wave (km/s) = 4.99250 4.69179 4.84448
#
# Compressibility (1/GPa) = 0.06757899
#
# Stress axis : x y z
#
# Youngs Moduli (GPa) = 15.27755 40.59326 95.60796
#
# Poissons Ratio (x) = 0.64569 -0.27262
# Poissons Ratio (y) = 0.24301 0.32797
# Poissons Ratio (z) = -0.04356 0.13925
#
# Static dielectric constant tensor:
#      x y z
#    x 1.675930 0.000000 0.000000 
#    y 0.000000 1.725170 0.000000 
#    z 0.000000 0.000000 1.694580 
# 
# From -- ./inp_files/45820.got.cif
#   From: 2010.05.17/outbox.cif.g08.bks.cpg/sg71_23_cif.got.tgz:45820.got - 2010.06.03 16:22:01.
