data_PCOD9520870
_publ_section_title
;
Structure prediction by ZEFSAII (Michael W. Deem and Ramdas Pophale) SiO2 
 PCOD9520870
Probable space group: I M M M
;
_chemical_formula_sum "Si O2"
_cell_formula_units_Z 72
_cell_length_a 14.737665
_cell_length_b 34.579469
_cell_length_c 8.846345
_cell_angle_alpha 90.000000
_cell_angle_beta 90.000000
_cell_angle_gamma 90.000000
_cell_volume 4508.279912
_symmetry_space_group_name_H-M "I M M M"
_symmetry_group_IT_number 71
_symmetry_cell_setting 'orthorhombic'
loop_
_space_group_symop_operation_xyz
x,y,z
-x,-y,z
x,-y,-z
-x,y,-z
-x,-y,-z
x,y,-z
-x,y,z
x,-y,z
1/2+x,1/2+y,1/2+z
1/2-x,1/2-y,1/2+z
1/2+x,1/2-y,1/2-z
1/2-x,1/2+y,1/2-z
1/2-x,1/2-y,1/2-z
1/2+x,1/2+y,1/2-z
1/2-x,1/2+y,1/2+z
1/2+x,1/2-y,1/2+z
loop_
_atom_site_type_symbol
_atom_site_label
_atom_site_fract_x
_atom_site_fract_y
_atom_site_fract_z
Si Si1 0.714472 0.347745 0.180505
Si Si2 0.108616 0.777095 0.177921
Si Si3 0.389948 0.500000 0.173732
Si Si4 0.602582 0.811099 0.315947
Si Si5 0.106113 0.918835 0.180811
O O1 0.659986 0.309251 0.227418
O O2 0.818353 0.340173 0.230381
O O3 0.666696 0.384306 0.255948
O O4 0.712414 0.352274 0.000000
O O5 0.126859 0.733010 0.228443
O O6 0.000000 0.782738 0.188590
O O7 0.132864 0.780796 0.000000
O O8 0.500000 0.500000 0.175845
O O9 0.363110 0.460384 0.255602
O O10 0.360013 0.500000 0.000000
O O11 0.600782 0.810585 0.500000
O O12 0.500000 0.819829 0.264853
O O13 0.000000 0.912824 0.225527
O O14 0.109306 0.919328 0.000000
#
# Coordination Sequence:
#
# PCOD9520870 Si02
#       5
#    16  16   8  16  16
#     4  11  20  28  44  69  92 116 151 196 234 262
#     4   9  17  30  46  62  86 122 156 186 228 281
#     4   9  17  31  51  73  96 119 146 183 219 254
#     4   8  16  31  47  62  84 118 158 195 233 276
#     4  10  20  33  48  67  95 129 155 174 210 270
#
# _framework density 15.970615
#
# number of rings (size 3 to 8) (size 9 to 14) (size 15 to 20)
#    0.000    2.556    0.000    4.333    0.000    5.778 
#    0.000    1.111    0.000    5.333    0.000    0.778 
#    0.000    6.222    0.000    0.000    0.000    0.000 
#
# Total GULP energy -200755.708169 kJ/mol
# GULP energy per Si atom -5576.547449 kJ/mol
# Density = 1.593427 g / cm^3
# Si number density = 15.970615 Si / 1000 Ang^3
#
#
#
# Elastic Constant Matrix: (Units=GPa)
#
#
# Indices 1 2 3 4 5 6 
#
# 1 77.4364 84.8164 32.5436 -0.0010 0.0019 0.0002
# 2 84.8164 125.2142 41.1428 -0.0003 0.0000 0.0001
# 3 32.5436 41.1428 41.7098 -0.0066 0.0099 -0.0008
# 4 -0.0010 -0.0003 -0.0066 26.7669 0.0015 0.0011
# 5 0.0019 0.0000 0.0099 0.0015 14.3404 -0.0005
# 6 0.0002 0.0001 -0.0008 0.0011 -0.0005 22.1728
#
#
#
# Elastic Compliance Matrix: (Units=1/GPa)
#
#
# Indices 1 2 3 4 5 6 
#
# 1 0.052058 -0.032426 -0.008632 -0.000001 -0.000001 -0.000001
# 2 -0.032426 0.032014 -0.006278 -0.000002 0.000009 0.000000
# 3 -0.008632 -0.006278 0.036904 0.000009 -0.000024 0.000001
# 4 -0.000001 -0.000002 0.000009 0.037360 -0.000004 -0.000002
# 5 -0.000001 0.000009 -0.000024 -0.000004 0.069733 0.000002
# 6 -0.000001 0.000000 0.000001 -0.000002 0.000002 0.045100
#
#
# Mechanical properties :
#
#
# Convention : Reuss Voigt Hill
#
# Bulk Modulus (GPa) = 38.02058 62.37401 50.19729
# Shear Modulus (GPa) = 13.27631 18.37987 15.82809
#
# Velocity S-wave (km/s) = 2.88635 3.39611 3.15155
# Velocity P-wave (km/s) = 5.91323 7.38365 6.68897
#
# Compressibility (1/GPa) = 0.02630155
#
# Stress axis : x y z
#
# Youngs Moduli (GPa) = 19.20922 31.23643 27.09755
#
# Poissons Ratio (x) = 1.01288 0.23392
# Poissons Ratio (y) = 0.62288 0.17013
# Poissons Ratio (z) = 0.16582 0.19612
#
# Static dielectric constant tensor:
#      x y z
#    x 1.543410 0.000000 0.000000 
#    y 0.000000 1.514250 0.000000 
#    z 0.000000 0.000000 1.536790 
# 
# From -- ./inp_files/6034.got.cif
#   From: 2010.05.17/outbox.cif.g08.bks.cpg/sg71_4_cif.got.tgz:6034.got - 2010.06.03 16:22:01.
