data_PCOD9520315
_publ_section_title
;
Structure prediction by ZEFSAII (Michael W. Deem and Ramdas Pophale) SiO2 
 PCOD9520315
Probable space group: I M M M
;
_chemical_formula_sum "Si O2"
_cell_formula_units_Z 88
_cell_length_a 20.206465
_cell_length_b 22.128479
_cell_length_c 10.632146
_cell_angle_alpha 90.000000
_cell_angle_beta 90.000000
_cell_angle_gamma 90.000000
_cell_volume 4754.040075
_symmetry_space_group_name_H-M "I M M M"
_symmetry_group_IT_number 71
_symmetry_cell_setting 'orthorhombic'
loop_
_space_group_symop_operation_xyz
x,y,z
-x,-y,z
x,-y,-z
-x,y,-z
-x,-y,-z
x,y,-z
-x,y,z
x,-y,z
1/2+x,1/2+y,1/2+z
1/2-x,1/2-y,1/2+z
1/2+x,1/2-y,1/2-z
1/2-x,1/2+y,1/2-z
1/2-x,1/2-y,1/2-z
1/2+x,1/2+y,1/2-z
1/2-x,1/2+y,1/2+z
1/2+x,1/2-y,1/2+z
loop_
_atom_site_type_symbol
_atom_site_label
_atom_site_fract_x
_atom_site_fract_y
_atom_site_fract_z
Si Si1 0.140983 0.110988 0.143863
Si Si2 0.801321 0.245649 0.136707
Si Si3 0.000000 0.850536 0.156193
Si Si4 0.611234 0.156516 0.248601
Si Si5 0.000000 0.741044 0.642796
Si Si6 0.221120 0.433391 0.348667
Si Si7 0.000000 0.568436 0.149658
O O1 0.162667 0.181249 0.142406
O O2 0.204387 0.077756 0.202362
O O3 0.066117 0.112350 0.190900
O O4 0.136350 0.088917 0.000000
O O5 0.750000 0.250000 0.250000
O O6 0.855347 0.297934 0.152962
O O7 0.768161 0.250402 0.000000
O O8 0.000000 0.790070 0.243114
O O9 0.000000 0.839237 0.000000
O O10 0.564630 0.198412 0.161314
O O11 0.671410 0.119950 0.186404
O O12 0.563286 0.106454 0.306902
O O13 0.000000 0.766070 0.500000
O O14 0.225348 0.432890 0.500000
O O15 0.197519 0.500000 0.308812
O O16 0.000000 0.500000 0.200626
O O17 0.000000 0.565544 0.000000
#
# Coordination Sequence:
#
# PCOD9520315 Si02
#       7
#    16  16   8  16   8  16   8
#     4   9  18  33  53  80 109 142 180 222 272 332
#     4  11  21  34  55  84 115 146 182 229 284 337
#     4  10  19  35  57  80 113 149 177 216 280 346
#     4  11  21  35  54  77 110 149 183 223 277 333
#     4  11  23  33  50  83 116 142 180 229 271 323
#     4  10  20  35  55  78 107 145 187 229 274 325
#     4  10  22  38  54  75 104 142 191 234 262 309
#
# _framework density 18.510572
#
# number of rings (size 3 to 8) (size 9 to 14) (size 15 to 20)
#    0.000    1.727    3.636    1.636    0.000    2.182 
#    0.000    0.455    0.000    7.091    0.000    0.000 
#    0.000    0.727    0.000    0.000    0.000    0.000 
#
# Total GULP energy -245131.204958 kJ/mol
# GULP energy per Si atom -5571.163749 kJ/mol
# Density = 1.846844 g / cm^3
# Si number density = 18.510572 Si / 1000 Ang^3
#
#
#
# Elastic Constant Matrix: (Units=GPa)
#
#
# Indices 1 2 3 4 5 6 
#
# 1 109.7428 3.8070 20.9192 0.0000 0.0000 0.0000
# 2 3.8070 50.5070 4.5416 0.0000 0.0000 0.0000
# 3 20.9192 4.5416 65.2976 0.0000 0.0000 0.0000
# 4 0.0000 0.0000 0.0000 14.1529 0.0000 0.0000
# 5 0.0000 0.0000 0.0000 0.0000 15.8784 0.0000
# 6 0.0000 0.0000 0.0000 0.0000 0.0000 34.8556
#
#
#
# Elastic Compliance Matrix: (Units=1/GPa)
#
#
# Indices 1 2 3 4 5 6 
#
# 1 0.009715 -0.000455 -0.003081 0.000000 0.000000 0.000000
# 2 -0.000455 0.019945 -0.001241 0.000000 0.000000 0.000000
# 3 -0.003081 -0.001241 0.016388 0.000000 0.000000 0.000000
# 4 0.000000 0.000000 0.000000 0.070657 0.000000 0.000000
# 5 0.000000 0.000000 0.000000 0.000000 0.062979 0.000000
# 6 0.000000 0.000000 0.000000 0.000000 0.000000 0.028690
#
#
# Mechanical properties :
#
#
# Convention : Reuss Voigt Hill
#
# Bulk Modulus (GPa) = 27.40223 31.56478 29.48351
# Shear Modulus (GPa) = 21.73035 26.06268 23.89652
#
# Velocity S-wave (km/s) = 3.43000 3.75639 3.59690
# Velocity P-wave (km/s) = 5.52469 5.99193 5.76305
#
# Compressibility (1/GPa) = 0.03649338
#
# Stress axis : x y z
#
# Youngs Moduli (GPa) = 102.93074 50.13747 61.02092
#
# Poissons Ratio (x) = 0.02283 0.18799
# Poissons Ratio (y) = 0.04686 0.07575
# Poissons Ratio (z) = 0.31711 0.06224
#
# Static dielectric constant tensor:
#      x y z
#    x 1.677660 0.000000 0.000000 
#    y 0.000000 1.641820 0.000000 
#    z 0.000000 0.000000 1.637600 
# 
# From -- ./inp_files/24012.got.cif
#   From: 2010.05.17/outbox.cif.g08.bks.cpg/sg71_13_cif.got.tgz:24012.got - 2010.06.03 16:22:01.
