data_PCOD9520818
_publ_section_title
;
Structure prediction by ZEFSAII (Michael W. Deem and Ramdas Pophale) SiO2 
 PCOD9520818
Probable space group: I M M M
;
_chemical_formula_sum "Si O2"
_cell_formula_units_Z 64
_cell_length_a 37.450744
_cell_length_b 7.409735
_cell_length_c 10.606775
_cell_angle_alpha 90.000000
_cell_angle_beta 90.000000
_cell_angle_gamma 90.000000
_cell_volume 2943.381002
_symmetry_space_group_name_H-M "I M M M"
_symmetry_group_IT_number 71
_symmetry_cell_setting 'orthorhombic'
loop_
_space_group_symop_operation_xyz
x,y,z
-x,-y,z
x,-y,-z
-x,y,-z
-x,-y,-z
x,y,-z
-x,y,z
x,-y,z
1/2+x,1/2+y,1/2+z
1/2-x,1/2-y,1/2+z
1/2+x,1/2-y,1/2-z
1/2-x,1/2+y,1/2-z
1/2-x,1/2-y,1/2-z
1/2+x,1/2+y,1/2-z
1/2-x,1/2+y,1/2+z
1/2+x,1/2-y,1/2+z
loop_
_atom_site_type_symbol
_atom_site_label
_atom_site_fract_x
_atom_site_fract_y
_atom_site_fract_z
Si Si1 0.093997 0.783193 0.140791
Si Si2 0.458837 0.720009 0.141775
Si Si3 0.674573 0.214709 0.273723
Si Si4 0.691940 0.209020 0.000000
Si Si5 0.775324 0.280356 0.000000
O O1 0.067635 0.715913 0.249685
O O2 0.134893 0.743399 0.174874
O O3 0.090303 0.000000 0.138091
O O4 0.085962 0.715850 0.000000
O O5 0.500000 0.773113 0.163430
O O6 0.458245 0.500000 0.142358
O O7 0.448378 0.776164 0.000000
O O8 0.678834 0.289303 0.132514
O O9 0.703220 0.281978 0.375870
O O10 0.680853 0.000000 0.265720
O O11 0.734780 0.217245 0.000000
O O12 0.680028 0.000000 0.000000
O O13 0.775128 0.500000 0.000000
#
# Coordination Sequence:
#
# PCOD9520818 Si02
#       5
#    16  16  16   8   8
#     4  10  20  32  50  78 105 133 173 215 251 293
#     4   8  15  29  49  74 105 137 167 205 254 301
#     4  10  21  37  53  74 105 138 169 205 256 310
#     4  10  22  36  54  78 101 130 171 215 256 301
#     4  10  20  36  56  74  99 136 171 205 254 311
#
# _framework density 21.743701999999999
#
# number of rings (size 3 to 8) (size 9 to 14) (size 15 to 20)
#    0.000    2.500    1.250    1.500    1.750    2.500 
#    0.000    2.500    0.000    0.750    0.000    3.500 
#    0.000    0.000    0.000    0.000    0.000    0.000 
#
# Total GULP energy -178771.599070 kJ/mol
# GULP energy per Si atom -5586.612471 kJ/mol
# Density = 2.169421 g / cm^3
# Si number density = 21.743702 Si / 1000 Ang^3
#
#
#
# Elastic Constant Matrix: (Units=GPa)
#
#
# Indices 1 2 3 4 5 6 
#
# 1 60.2044 -21.7451 57.6489 0.0000 0.0000 0.0000
# 2 -21.7451 70.7911 1.1032 0.0000 0.0000 0.0000
# 3 57.6489 1.1032 196.7062 0.0000 0.0000 0.0000
# 4 0.0000 0.0000 0.0000 -14.4040 0.0000 0.0000
# 5 0.0000 0.0000 0.0000 0.0000 51.2558 0.0000
# 6 0.0000 0.0000 0.0000 0.0000 0.0000 -7.5723
#
#
#
# Elastic Compliance Matrix: (Units=1/GPa)
#
#
# Indices 1 2 3 4 5 6 
#
# 1 0.027451 0.008558 -0.008093 0.000000 0.000000 0.000000
# 2 0.008558 0.016795 -0.002602 0.000000 0.000000 0.000000
# 3 -0.008093 -0.002602 0.007470 0.000000 0.000000 0.000000
# 4 0.000000 0.000000 0.000000 -0.069425 0.000000 0.000000
# 5 0.000000 0.000000 0.000000 0.000000 0.019510 0.000000
# 6 0.000000 0.000000 0.000000 0.000000 0.000000 -0.132061
#
#
# Mechanical properties :
#
#
# Convention : Reuss Voigt Hill
#
# Bulk Modulus (GPa) = 21.07838 44.63508 32.85673
# Shear Modulus (GPa) = -45.38371 25.23555 -10.07408
#
# Velocity S-wave (km/s) = -4.57356 3.41044 -2.15480
# Velocity P-wave (km/s) = 4.26320 6.00671 2.99213
#
# Compressibility (1/GPa) = 0.04744197
#
# Stress axis : x y z
#
# Youngs Moduli (GPa) = 36.42904 59.53983 133.86640
#
# Poissons Ratio (x) = -0.50955 1.08338
# Poissons Ratio (y) = -0.31177 0.34837
# Poissons Ratio (z) = 0.29482 0.15494
#
# Static dielectric constant tensor:
#      x y z
#    x 1.710180 0.000000 0.000000 
#    y 0.000000 1.740050 0.000000 
#    z 0.000000 0.000000 1.805260 
# 
# From -- ./inp_files/3737.got.cif
#   From: 2010.05.17/outbox.cif.g08.bks.cpg/sg71_2_cif.got.tgz:3737.got - 2010.06.03 16:22:01.
