data_PCOD9520120
_publ_section_title
;
Structure prediction by ZEFSAII (Michael W. Deem and Ramdas Pophale) SiO2 
 PCOD9520120
Probable space group: I M M M
;
_chemical_formula_sum "Si O2"
_cell_formula_units_Z 104
_cell_length_a 18.749668
_cell_length_b 15.230898
_cell_length_c 20.898122
_cell_angle_alpha 90.000000
_cell_angle_beta 90.000000
_cell_angle_gamma 90.000000
_cell_volume 5967.966161
_symmetry_space_group_name_H-M "I M M M"
_symmetry_group_IT_number 71
_symmetry_cell_setting 'orthorhombic'
loop_
_space_group_symop_operation_xyz
x,y,z
-x,-y,z
x,-y,-z
-x,y,-z
-x,-y,-z
x,y,-z
-x,y,z
x,-y,z
1/2+x,1/2+y,1/2+z
1/2-x,1/2-y,1/2+z
1/2+x,1/2-y,1/2-z
1/2-x,1/2+y,1/2-z
1/2-x,1/2-y,1/2-z
1/2+x,1/2+y,1/2-z
1/2-x,1/2+y,1/2+z
1/2+x,1/2-y,1/2+z
loop_
_atom_site_type_symbol
_atom_site_label
_atom_site_fract_x
_atom_site_fract_y
_atom_site_fract_z
Si Si1 0.817076 0.745534 0.928923
Si Si2 0.083502 0.739059 0.807236
Si Si3 0.918842 0.604754 0.305899
Si Si4 0.581069 0.393727 0.000000
Si Si5 0.700823 0.603534 0.099764
Si Si6 0.724013 0.099226 0.870011
Si Si7 0.203456 0.159649 0.746427
O O1 0.876234 0.731601 0.874538
O O2 0.764708 0.662307 0.926902
O O3 0.768781 0.829977 0.909756
O O4 0.846593 0.757031 0.000000
O O5 0.093325 0.654642 0.761072
O O6 0.124506 0.816200 0.769964
O O7 0.000000 0.754335 0.815192
O O8 0.913270 0.500000 0.296677
O O9 0.857390 0.629075 0.356459
O O10 0.000000 0.625239 0.326504
O O11 0.628482 0.370261 0.062236
O O12 0.576581 0.500000 0.000000
O O13 0.500000 0.359639 0.000000
O O14 0.711935 0.500000 0.088965
O O15 0.700107 0.623115 0.175350
O O16 0.759494 0.099323 0.799321
O O17 0.725006 0.000000 0.896051
O O18 0.250000 0.250000 0.750000
#
# Coordination Sequence:
#
# PCOD9520120 Si02
#       7
#    16  16  16   8  16  16  16
#     4  11  22  37  55  75 107 139 189 233 260 316
#     4  10  20  34  52  78 110 142 175 220 275 322
#     4   9  16  28  50  80 112 140 166 206 265 328
#     4   9  20  36  52  78 114 148 186 223 260 318
#     4  11  20  34  58  82 109 146 181 217 271 320
#     4  10  19  34  55  79 106 139 178 224 271 314
#     4  11  18  33  54  82 109 134 174 225 264 317
#
# _framework density 17.426372000000001
#
# number of rings (size 3 to 8) (size 9 to 14) (size 15 to 20)
#    0.000    1.769    5.385    0.462    0.000    3.077 
#    0.000    0.769    0.000   11.077    0.000    9.692 
#    0.000    0.000    0.000    0.000    0.000    0.000 
#
# Total GULP energy -289934.200984 kJ/mol
# GULP energy per Si atom -5575.657711 kJ/mol
# Density = 1.738671 g / cm^3
# Si number density = 17.426372 Si / 1000 Ang^3
#
#
#
# Elastic Constant Matrix: (Units=GPa)
#
#
# Indices 1 2 3 4 5 6 
#
# 1 99.7379 23.4161 1.4758 0.0000 0.0000 0.0000
# 2 23.4161 57.6400 1.7181 0.0000 0.0000 0.0000
# 3 1.4758 1.7181 43.8732 0.0000 0.0000 0.0000
# 4 0.0000 0.0000 0.0000 7.8731 0.0000 0.0000
# 5 0.0000 0.0000 0.0000 0.0000 18.4315 0.0000
# 6 0.0000 0.0000 0.0000 0.0000 0.0000 17.8333
#
#
#
# Elastic Compliance Matrix: (Units=1/GPa)
#
#
# Indices 1 2 3 4 5 6 
#
# 1 0.011085 -0.004497 -0.000197 0.000000 0.000000 0.000000
# 2 -0.004497 0.019194 -0.000600 0.000000 0.000000 0.000000
# 3 -0.000197 -0.000600 0.022823 0.000000 0.000000 0.000000
# 4 0.000000 0.000000 0.000000 0.127014 0.000000 0.000000
# 5 0.000000 0.000000 0.000000 0.000000 0.054255 0.000000
# 6 0.000000 0.000000 0.000000 0.000000 0.000000 0.056075
#
#
# Mechanical properties :
#
#
# Convention : Reuss Voigt Hill
#
# Bulk Modulus (GPa) = 23.52216 28.27456 25.89836
# Shear Modulus (GPa) = 15.86262 20.47033 18.16647
#
# Velocity S-wave (km/s) = 3.02033 3.43107 3.23223
# Velocity P-wave (km/s) = 5.06858 5.65303 5.36876
#
# Compressibility (1/GPa) = 0.04251311
#
# Stress axis : x y z
#
# Youngs Moduli (GPa) = 90.21140 52.09952 43.81533
#
# Poissons Ratio (x) = 0.23431 0.00862
# Poissons Ratio (y) = 0.40572 0.02630
# Poissons Ratio (z) = 0.01775 0.03128
#
# Static dielectric constant tensor:
#      x y z
#    x 1.604430 0.000000 0.000000 
#    y 0.000000 1.607100 0.000000 
#    z 0.000000 0.000000 1.597470 
# 
# From -- ./inp_files/36676.got.cif
#   From: 2010.05.17/outbox.cif.g08.bks.cpg/sg71_19_cif.got.tgz:36676.got - 2010.06.03 16:22:01.
