data_PCOD9520980
_publ_section_title
;
Structure prediction by ZEFSAII (Michael W. Deem and Ramdas Pophale) SiO2 
 PCOD9520980
Probable space group: I M M M
;
_chemical_formula_sum "Si O2"
_cell_formula_units_Z 116
_cell_length_a 27.535280
_cell_length_b 7.681018
_cell_length_c 27.694108
_cell_angle_alpha 90.000000
_cell_angle_beta 90.000000
_cell_angle_gamma 90.000000
_cell_volume 5857.275630
_symmetry_space_group_name_H-M "I M M M"
_symmetry_group_IT_number 71
_symmetry_cell_setting 'orthorhombic'
loop_
_space_group_symop_operation_xyz
x,y,z
-x,-y,z
x,-y,-z
-x,y,-z
-x,-y,-z
x,y,-z
-x,y,z
x,-y,z
1/2+x,1/2+y,1/2+z
1/2-x,1/2-y,1/2+z
1/2+x,1/2-y,1/2-z
1/2-x,1/2+y,1/2-z
1/2-x,1/2-y,1/2-z
1/2+x,1/2+y,1/2-z
1/2-x,1/2+y,1/2+z
1/2+x,1/2-y,1/2+z
loop_
_atom_site_type_symbol
_atom_site_label
_atom_site_fract_x
_atom_site_fract_y
_atom_site_fract_z
Si Si1 0.179805 0.203750 0.946690
Si Si2 0.444830 0.290340 0.278541
Si Si3 0.608699 0.702990 0.925746
Si Si4 0.138366 0.213557 0.151089
Si Si5 0.740896 0.293093 0.694574
Si Si6 0.443721 0.792833 0.829561
Si Si7 0.282624 0.297640 0.095889
Si Si8 0.420768 0.000000 0.000000
O O1 0.146498 0.276026 0.903641
O O2 0.235503 0.212099 0.928209
O O3 0.167623 0.000000 0.950208
O O4 0.175479 0.281766 0.000000
O O5 0.500000 0.223963 0.283161
O O6 0.446465 0.500000 0.281619
O O7 0.408719 0.227051 0.319998
O O8 0.426654 0.245965 0.224814
O O9 0.606224 0.500000 0.941978
O O10 0.587658 0.709380 0.871650
O O11 0.665269 0.761579 0.923426
O O12 0.581284 0.844275 0.958275
O O13 0.187037 0.266746 0.179499
O O14 0.137703 0.000000 0.150517
O O15 0.750000 0.250000 0.750000
O O16 0.777462 0.222065 0.653808
O O17 0.757456 0.000000 0.810959
O O18 0.500000 0.733209 0.832665
O O19 0.442812 0.000000 0.836399
O O20 0.278999 0.500000 0.083975
#
# Coordination Sequence:
#
# PCOD9520980 Si02
#       8
#    16  16  16  16  16  16  16   4
#     4   9  18  32  54  76 102 146 191 234 282 333
#     4   9  17  31  55  82 110 147 186 231 289 347
#     4  11  25  42  63  89 116 152 193 244 297 345
#     4   8  16  31  48  74 108 140 183 232 279 341
#     4  10  20  33  50  73 108 148 185 227 279 340
#     4  10  21  39  61  86 114 145 187 236 288 354
#     4  10  22  36  52  78 110 143 190 234 280 337
#     4  12  26  44  65  88 120 150 198 244 293 346
#
# _framework density 19.804428999999999
#
# number of rings (size 3 to 8) (size 9 to 14) (size 15 to 20)
#    0.000    2.345    0.690    2.276    4.828    1.103 
#    0.000    3.448    0.000    1.241    0.000    2.897 
#    0.000    0.000    0.000    8.414    0.000    9.103 
#
# Total GULP energy -323100.653292 kJ/mol
# GULP energy per Si atom -5570.700919 kJ/mol
# Density = 1.975935 g / cm^3
# Si number density = 19.804429 Si / 1000 Ang^3
#
#
#
# Elastic Constant Matrix: (Units=GPa)
#
#
# Indices 1 2 3 4 5 6 
#
# 1 39.4880 7.0361 45.0870 0.0000 0.0000 0.0000
# 2 7.0361 61.3303 10.1514 0.0000 0.0000 0.0000
# 3 45.0870 10.1514 162.9753 0.0000 0.0000 0.0000
# 4 0.0000 0.0000 0.0000 28.6732 0.0000 0.0000
# 5 0.0000 0.0000 0.0000 0.0000 -2.5700 0.0000
# 6 0.0000 0.0000 0.0000 0.0000 0.0000 7.5164
#
#
#
# Elastic Compliance Matrix: (Units=1/GPa)
#
#
# Indices 1 2 3 4 5 6 
#
# 1 0.037425 -0.002607 -0.010191 0.000000 0.000000 0.000000
# 2 -0.002607 0.016657 -0.000316 0.000000 0.000000 0.000000
# 3 -0.010191 -0.000316 0.008975 0.000000 0.000000 0.000000
# 4 0.000000 0.000000 0.000000 0.034876 0.000000 0.000000
# 5 0.000000 0.000000 0.000000 0.000000 -0.389101 0.000000
# 6 0.000000 0.000000 0.000000 0.000000 0.000000 0.133042
#
#
# Mechanical properties :
#
#
# Convention : Reuss Voigt Hill
#
# Bulk Modulus (GPa) = 27.15336 43.14917 35.15127
# Shear Modulus (GPa) = -41.79780 20.15855 -10.81963
#
# Velocity S-wave (km/s) = -4.59903 3.19389 -2.33989
# Velocity P-wave (km/s) = 3.80275 5.95283 3.23846
#
# Compressibility (1/GPa) = 0.03682785
#
# Stress axis : x y z
#
# Youngs Moduli (GPa) = 26.72031 60.03637 111.42098
#
# Poissons Ratio (x) = 0.15650 1.13551
# Poissons Ratio (y) = 0.06965 0.03525
# Poissons Ratio (z) = 0.27231 0.01899
#
# Static dielectric constant tensor:
#      x y z
#    x 1.697000 0.000000 0.000000 
#    y 0.000000 1.772000 0.000000 
#    z 0.000000 0.000000 1.721140 
# 
# From -- ./inp_files/67138.got.cif
#   From: 2010.05.17/outbox.cif.g08.bks.cpg/sg71_34_cif.got.tgz:67138.got - 2010.06.03 16:22:01.
