data_PCOD9520892
_publ_section_title
;
Structure prediction by ZEFSAII (Michael W. Deem and Ramdas Pophale) SiO2 
 PCOD9520892
Probable space group: I M M M
;
_chemical_formula_sum "Si O2"
_cell_formula_units_Z 96
_cell_length_a 7.437350
_cell_length_b 24.068037
_cell_length_c 24.298919
_cell_angle_alpha 90.000000
_cell_angle_beta 90.000000
_cell_angle_gamma 90.000000
_cell_volume 4349.565182
_symmetry_space_group_name_H-M "I M M M"
_symmetry_group_IT_number 71
_symmetry_cell_setting 'orthorhombic'
loop_
_space_group_symop_operation_xyz
x,y,z
-x,-y,z
x,-y,-z
-x,y,-z
-x,-y,-z
x,y,-z
-x,y,z
x,-y,z
1/2+x,1/2+y,1/2+z
1/2-x,1/2-y,1/2+z
1/2+x,1/2-y,1/2-z
1/2-x,1/2+y,1/2-z
1/2-x,1/2-y,1/2-z
1/2+x,1/2+y,1/2-z
1/2-x,1/2+y,1/2+z
1/2+x,1/2-y,1/2+z
loop_
_atom_site_type_symbol
_atom_site_label
_atom_site_fract_x
_atom_site_fract_y
_atom_site_fract_z
Si Si1 0.295744 0.752087 0.840372
Si Si2 0.284736 0.059385 0.066321
Si Si3 0.779142 0.319584 0.436666
Si Si4 0.716750 0.063617 0.680257
Si Si5 0.788489 0.832725 0.748506
Si Si6 0.784819 0.567043 0.059666
O O1 0.500000 0.734065 0.851191
O O2 0.213753 0.770449 0.897780
O O3 0.297863 0.808124 0.803296
O O4 0.214072 0.704828 0.801925
O O5 0.500000 0.058958 0.075527
O O6 0.218027 0.119598 0.084595
O O7 0.213940 0.000000 0.087344
O O8 0.259580 0.059471 0.000000
O O9 0.727288 0.313244 0.500000
O O10 0.000000 0.319996 0.435113
O O11 0.500000 0.062224 0.677511
O O12 0.766018 0.104298 0.729760
O O13 0.781598 0.085524 0.620002
O O14 0.778058 0.000000 0.687628
O O15 0.000000 0.820876 0.754438
O O16 0.759601 0.500000 0.060192
O O17 0.000000 0.576637 0.058994
O O18 0.714695 0.587323 0.000000
#
# Coordination Sequence:
#
# PCOD9520892 Si02
#       6
#    16  16  16  16  16  16
#     4   9  18  33  51  69  90 121 163 202 234 278
#     4   7   9  14  27  51  83 113 136 162 206 264
#     4   8  13  23  42  66  90 117 150 192 241 286
#     4   9  17  30  50  74  97 122 155 197 241 284
#     4  10  20  33  49  68  92 126 164 200 239 279
#     4   7  10  19  38  64  91 118 149 184 224 274
#
# _framework density 22.071172000000001
#
# number of rings (size 3 to 8) (size 9 to 14) (size 15 to 20)
#    0.000    3.667    0.000    3.500    0.000    1.000 
#    0.000    1.667    0.000    5.000    0.000    2.333 
#    0.000    0.000    0.000    5.667    0.000    5.500 
#
# Total GULP energy -267245.859818 kJ/mol
# GULP energy per Si atom -5567.622080 kJ/mol
# Density = 2.202094 g / cm^3
# Si number density = 22.071172 Si / 1000 Ang^3
#
#
#
# Elastic Constant Matrix: (Units=GPa)
#
#
# Indices 1 2 3 4 5 6 
#
# 1 72.2133 -1.8496 -8.5668 0.0000 0.0000 0.0000
# 2 -1.8496 42.6209 22.7407 0.0000 0.0000 0.0000
# 3 -8.5668 22.7407 39.5657 0.0000 0.0000 0.0000
# 4 0.0000 0.0000 0.0000 27.0176 0.0000 0.0000
# 5 0.0000 0.0000 0.0000 0.0000 -7.1075 0.0000
# 6 0.0000 0.0000 0.0000 0.0000 0.0000 -4.0585
#
#
#
# Elastic Compliance Matrix: (Units=1/GPa)
#
#
# Indices 1 2 3 4 5 6 
#
# 1 0.014278 -0.001485 0.003945 0.000000 0.000000 0.000000
# 2 -0.001485 0.033995 -0.019860 0.000000 0.000000 0.000000
# 3 0.003945 -0.019860 0.037544 0.000000 0.000000 0.000000
# 4 0.000000 0.000000 0.000000 0.037013 0.000000 0.000000
# 5 0.000000 0.000000 0.000000 0.000000 -0.140697 0.000000
# 6 0.000000 0.000000 0.000000 0.000000 0.000000 -0.246396
#
#
# Mechanical properties :
#
#
# Convention : Reuss Voigt Hill
#
# Bulk Modulus (GPa) = 19.60205 19.89426 19.74815
# Shear Modulus (GPa) = -23.53411 12.64204 -5.44603
#
# Velocity S-wave (km/s) = -3.26894 2.39589 -1.57253
# Velocity P-wave (km/s) = 2.31244 4.08497 2.38113
#
# Compressibility (1/GPa) = 0.05101508
#
# Stress axis : x y z
#
# Youngs Moduli (GPa) = 70.03855 29.41618 26.63573
#
# Poissons Ratio (x) = 0.04369 -0.10508
# Poissons Ratio (y) = 0.10403 0.52900
# Poissons Ratio (z) = -0.27631 0.58422
#
# Static dielectric constant tensor:
#      x y z
#    x 1.871960 0.000000 0.000000 
#    y 0.000000 1.847440 0.000000 
#    z 0.000000 0.000000 1.830960 
# 
# From -- ./inp_files/63464.got.cif
#   From: 2010.05.17/outbox.cif.g08.bks.cpg/sg71_32_cif.got.tgz:63464.got - 2010.06.03 16:22:01.
