data_PCOD9520934
_publ_section_title
;
Structure prediction by ZEFSAII (Michael W. Deem and Ramdas Pophale) SiO2 
 PCOD9520934
Probable space group: I M M M
;
_chemical_formula_sum "Si O2"
_cell_formula_units_Z 104
_cell_length_a 30.040847
_cell_length_b 12.691371
_cell_length_c 16.092359
_cell_angle_alpha 90.000000
_cell_angle_beta 90.000000
_cell_angle_gamma 90.000000
_cell_volume 6135.365300
_symmetry_space_group_name_H-M "I M M M"
_symmetry_group_IT_number 71
_symmetry_cell_setting 'orthorhombic'
loop_
_space_group_symop_operation_xyz
x,y,z
-x,-y,z
x,-y,-z
-x,y,-z
-x,-y,-z
x,y,-z
-x,y,z
x,-y,z
1/2+x,1/2+y,1/2+z
1/2-x,1/2-y,1/2+z
1/2+x,1/2-y,1/2-z
1/2-x,1/2+y,1/2-z
1/2-x,1/2-y,1/2-z
1/2+x,1/2+y,1/2-z
1/2-x,1/2+y,1/2+z
1/2+x,1/2-y,1/2+z
loop_
_atom_site_type_symbol
_atom_site_label
_atom_site_fract_x
_atom_site_fract_y
_atom_site_fract_z
Si Si1 0.140978 0.375307 0.500000
Si Si2 0.213594 0.266767 0.138517
Si Si3 0.116801 0.265705 0.669498
Si Si4 0.120666 0.372701 0.851898
Si Si5 0.254917 0.125470 0.000000
Si Si6 0.799362 0.125353 0.697279
Si Si7 0.052265 0.627599 0.000000
Si Si8 0.946906 0.119075 0.594405
O O1 0.138515 0.500000 0.500000
O O2 0.120806 0.336833 0.587260
O O3 0.193143 0.345292 0.500000
O O4 0.167643 0.324780 0.116585
O O5 0.230765 0.178810 0.076454
O O6 0.206304 0.198248 0.221404
O O7 0.253638 0.350756 0.148229
O O8 0.116955 0.327338 0.757259
O O9 0.156590 0.179539 0.659798
O O10 0.071993 0.199654 0.660047
O O11 0.122784 0.500000 0.848475
O O12 0.081062 0.343088 0.917007
O O13 0.251393 0.000000 0.000000
O O14 0.804355 0.000000 0.710960
O O15 0.050987 0.500000 0.000000
O O16 0.000000 0.663082 0.000000
O O17 0.931951 0.145292 0.500000
O O18 0.000000 0.120122 0.593913
O O19 0.932056 0.000000 0.612043
#
# Coordination Sequence:
#
# PCOD9520934 Si02
#       8
#     8  16  16  16   8  16   8  16
#     4  11  22  35  50  74 113 151 184 220 262 326
#     4  10  20  34  51  75 105 140 184 228 273 333
#     4  11  20  35  54  80 111 146 189 222 271 338
#     4  10  21  36  58  83 110 146 185 233 288 341
#     4  11  21  35  53  74 104 145 189 228 273 326
#     4  10  20  33  49  73 105 142 181 228 271 314
#     4   9  19  38  60  82 106 134 179 237 288 332
#     4   9  18  33  54  78 107 145 185 229 276 320
#
# _framework density 16.950904999999999
#
# number of rings (size 3 to 8) (size 9 to 14) (size 15 to 20)
#    0.000    1.923    2.308    2.769    0.000    0.615 
#    0.000    1.923    0.000    1.846    0.000    0.000 
#    0.000   22.769    0.000    0.000    0.000    0.000 
#
# Total GULP energy -289492.199674 kJ/mol
# GULP energy per Si atom -5567.157686 kJ/mol
# Density = 1.691232 g / cm^3
# Si number density = 16.950905 Si / 1000 Ang^3
#
#
#
# Elastic Constant Matrix: (Units=GPa)
#
#
# Indices 1 2 3 4 5 6 
#
# 1 87.8764 33.1185 40.0155 0.0000 0.0000 0.0000
# 2 33.1185 73.3714 25.0678 0.0000 0.0000 0.0000
# 3 40.0155 25.0678 72.6117 0.0000 0.0000 0.0000
# 4 0.0000 0.0000 0.0000 -0.9184 0.0000 0.0000
# 5 0.0000 0.0000 0.0000 0.0000 24.6517 0.0000
# 6 0.0000 0.0000 0.0000 0.0000 0.0000 27.8424
#
#
#
# Elastic Compliance Matrix: (Units=1/GPa)
#
#
# Indices 1 2 3 4 5 6 
#
# 1 0.016648 -0.004966 -0.007460 0.000000 0.000000 0.000000
# 2 -0.004966 0.016933 -0.003109 0.000000 0.000000 0.000000
# 3 -0.007460 -0.003109 0.018957 0.000000 0.000000 0.000000
# 4 0.000000 0.000000 0.000000 -1.088828 0.000000 0.000000
# 5 0.000000 0.000000 0.000000 0.000000 0.040565 0.000000
# 6 0.000000 0.000000 0.000000 0.000000 0.000000 0.035916
#
#
# Mechanical properties :
#
#
# Convention : Reuss Voigt Hill
#
# Bulk Modulus (GPa) = 46.58275 47.80704 47.19489
# Shear Modulus (GPa) = -5.42545 19.35898 6.96676
#
# Velocity S-wave (km/s) = -1.79099 3.38311 2.02950
# Velocity P-wave (km/s) = 4.82326 6.59735 5.77879
#
# Compressibility (1/GPa) = 0.02146718
#
# Stress axis : x y z
#
# Youngs Moduli (GPa) = 60.06631 59.05608 52.75216
#
# Poissons Ratio (x) = 0.29326 0.39355
# Poissons Ratio (y) = 0.29828 0.16402
# Poissons Ratio (z) = 0.44811 0.18362
#
# Static dielectric constant tensor:
#      x y z
#    x 1.602010 0.000000 0.000000 
#    y 0.000000 1.543220 0.000000 
#    z 0.000000 0.000000 1.653470 
# 
# From -- ./inp_files/48908.got.cif
#   From: 2010.05.17/outbox.cif.g08.bks.cpg/sg71_25_cif.got.tgz:48908.got - 2010.06.03 16:22:01.
