data_PCOD9520319
_publ_section_title
;
Structure prediction by ZEFSAII (Michael W. Deem and Ramdas Pophale) SiO2 
 PCOD9520319
Probable space group: I M M M
;
_chemical_formula_sum "Si O2"
_cell_formula_units_Z 120
_cell_length_a 8.815767
_cell_length_b 25.854488
_cell_length_c 28.348716
_cell_angle_alpha 90.000000
_cell_angle_beta 90.000000
_cell_angle_gamma 90.000000
_cell_volume 6461.441820
_symmetry_space_group_name_H-M "I M M M"
_symmetry_group_IT_number 71
_symmetry_cell_setting 'orthorhombic'
loop_
_space_group_symop_operation_xyz
x,y,z
-x,-y,z
x,-y,-z
-x,y,-z
-x,-y,-z
x,y,-z
-x,y,z
x,-y,z
1/2+x,1/2+y,1/2+z
1/2-x,1/2-y,1/2+z
1/2+x,1/2-y,1/2-z
1/2-x,1/2+y,1/2-z
1/2-x,1/2-y,1/2-z
1/2+x,1/2+y,1/2-z
1/2-x,1/2+y,1/2+z
1/2+x,1/2-y,1/2+z
loop_
_atom_site_type_symbol
_atom_site_label
_atom_site_fract_x
_atom_site_fract_y
_atom_site_fract_z
Si Si1 0.182262 0.248177 0.947527
Si Si2 0.822506 0.937872 0.153121
Si Si3 0.181169 0.158888 0.675875
Si Si4 0.183483 0.938146 0.949438
Si Si5 0.318602 0.867003 0.578862
Si Si6 0.680481 0.136103 0.223384
Si Si7 0.818165 0.939793 0.500000
Si Si8 0.318221 0.776659 0.850706
O O1 0.220709 0.309084 0.939937
O O2 0.249049 0.218264 0.902830
O O3 0.000000 0.243864 0.945972
O O4 0.233063 0.232249 0.000000
O O5 0.763873 0.918792 0.101626
O O6 0.726776 0.915307 0.195626
O O7 0.000000 0.922869 0.158172
O O8 0.817747 0.000000 0.152474
O O9 0.257447 0.129737 0.632002
O O10 0.240689 0.140907 0.726287
O O11 0.220954 0.219455 0.668319
O O12 0.000000 0.153861 0.673160
O O13 0.000000 0.932713 0.948797
O O14 0.213286 0.000000 0.950213
O O15 0.238062 0.916679 0.000000
O O16 0.500000 0.871223 0.577708
O O17 0.245943 0.909531 0.545194
O O18 0.500000 0.140029 0.229478
O O19 0.732503 0.181604 0.187677
O O20 0.000000 0.936828 0.500000
O O21 0.773378 0.000000 0.500000
O O22 0.500000 0.779875 0.854654
#
# Coordination Sequence:
#
# PCOD9520319 Si02
#       8
#    16  16  16  16  16  16   8  16
#     4   9  17  31  52  80 110 141 179 222 267 321
#     4   9  18  33  53  76 101 133 175 218 261 311
#     4  10  20  36  58  82 106 136 179 224 271 325
#     4   7  10  20  42  70  94 116 151 202 251 292
#     4  10  19  35  57  82 111 142 180 224 274 326
#     4  11  22  36  53  76 108 142 178 221 271 325
#     4  11  23  37  55  83 119 155 191 231 272 319
#     4   9  20  35  52  78 108 141 179 219 268 325
#
# _framework density 18.571707
#
# number of rings (size 3 to 8) (size 9 to 14) (size 15 to 20)
#    0.000    2.600    0.667    3.000    0.000    3.200 
#    0.000    1.333    0.000    6.800    0.000    1.867 
#    0.000    0.000    0.000    0.000    0.000    0.000 
#
# Total GULP energy -334644.201910 kJ/mol
# GULP energy per Si atom -5577.403365 kJ/mol
# Density = 1.852944 g / cm^3
# Si number density = 18.571707 Si / 1000 Ang^3
#
#
#
# Elastic Constant Matrix: (Units=GPa)
#
#
# Indices 1 2 3 4 5 6 
#
# 1 26.0289 19.8608 31.7473 0.0000 0.0000 0.0000
# 2 19.8608 43.2669 34.7453 0.0000 0.0000 0.0000
# 3 31.7473 34.7453 169.7114 0.0000 0.0000 0.0000
# 4 0.0000 0.0000 0.0000 8.8041 0.0000 0.0000
# 5 0.0000 0.0000 0.0000 0.0000 26.8445 0.0000
# 6 0.0000 0.0000 0.0000 0.0000 0.0000 18.6874
#
#
#
# Elastic Compliance Matrix: (Units=1/GPa)
#
#
# Indices 1 2 3 4 5 6 
#
# 1 0.065997 -0.024390 -0.007352 0.000000 0.000000 0.000000
# 2 -0.024390 0.036674 -0.002946 0.000000 0.000000 0.000000
# 3 -0.007352 -0.002946 0.007871 0.000000 0.000000 0.000000
# 4 0.000000 0.000000 0.000000 0.113584 0.000000 0.000000
# 5 0.000000 0.000000 0.000000 0.000000 0.037252 0.000000
# 6 0.000000 0.000000 0.000000 0.000000 0.000000 0.053512
#
#
# Mechanical properties :
#
#
# Convention : Reuss Voigt Hill
#
# Bulk Modulus (GPa) = 24.29257 45.74598 35.01927
# Shear Modulus (GPa) = 12.56324 21.04413 16.80369
#
# Velocity S-wave (km/s) = 2.60373 3.36985 3.01125
# Velocity P-wave (km/s) = 4.70617 6.31084 5.56663
#
# Compressibility (1/GPa) = 0.04116485
#
# Stress axis : x y z
#
# Youngs Moduli (GPa) = 15.15227 27.26754 127.05194
#
# Poissons Ratio (x) = 0.66506 0.93413
# Poissons Ratio (y) = 0.36957 0.37425
# Poissons Ratio (z) = 0.11140 0.08032
#
# Static dielectric constant tensor:
#      x y z
#    x 1.619160 0.000000 0.000000 
#    y 0.000000 1.653110 0.000000 
#    z 0.000000 0.000000 1.647920 
# 
# From -- ./inp_files/63805.got.cif
#   From: 2010.05.17/outbox.cif.g08.bks.cpg/sg71_32_cif.got.tgz:63805.got - 2010.06.03 16:22:01.
