data_PCOD9520486
_publ_section_title
;
Structure prediction by ZEFSAII (Michael W. Deem and Ramdas Pophale) SiO2 
 PCOD9520486
Probable space group: I M M M
;
_chemical_formula_sum "Si O2"
_cell_formula_units_Z 88
_cell_length_a 14.396381
_cell_length_b 27.884933
_cell_length_c 11.809113
_cell_angle_alpha 90.000000
_cell_angle_beta 90.000000
_cell_angle_gamma 90.000000
_cell_volume 4740.675354
_symmetry_space_group_name_H-M "I M M M"
_symmetry_group_IT_number 71
_symmetry_cell_setting 'orthorhombic'
loop_
_space_group_symop_operation_xyz
x,y,z
-x,-y,z
x,-y,-z
-x,y,-z
-x,-y,-z
x,y,-z
-x,y,z
x,-y,z
1/2+x,1/2+y,1/2+z
1/2-x,1/2-y,1/2+z
1/2+x,1/2-y,1/2-z
1/2-x,1/2+y,1/2-z
1/2-x,1/2-y,1/2-z
1/2+x,1/2+y,1/2-z
1/2-x,1/2+y,1/2+z
1/2+x,1/2-y,1/2+z
loop_
_atom_site_type_symbol
_atom_site_label
_atom_site_fract_x
_atom_site_fract_y
_atom_site_fract_z
Si Si1 0.654481 0.443254 0.000000
Si Si2 0.393920 0.556935 0.747169
Si Si3 0.787305 0.141973 0.134408
Si Si4 0.855743 0.767434 0.742770
Si Si5 0.203599 0.371563 0.000000
Si Si6 0.895242 0.809831 0.500000
Si Si7 0.603448 0.162346 0.273973
O O1 0.611753 0.428044 0.120243
O O2 0.645114 0.500000 0.000000
O O3 0.760864 0.425928 0.000000
O O4 0.500000 0.563466 0.708259
O O5 0.371908 0.500000 0.739035
O O6 0.325064 0.591165 0.679180
O O7 0.854608 0.183155 0.187390
O O8 0.682903 0.151171 0.181003
O O9 0.788850 0.144919 0.000000
O O10 0.750000 0.750000 0.750000
O O11 0.885540 0.778990 0.614704
O O12 0.904519 0.719886 0.787048
O O13 0.145771 0.358245 0.110206
O O14 0.303537 0.343565 0.000000
O O15 0.000000 0.831129 0.500000
O O16 0.500000 0.143645 0.248971
#
# Coordination Sequence:
#
# PCOD9520486 Si02
#       7
#     8  16  16  16   8   8  16
#     4  10  19  36  64  92 118 149 189 243 299 350
#     4  10  21  39  64  93 123 156 194 239 299 365
#     4  11  24  40  61  86 122 162 201 246 296 353
#     4  10  22  38  59  84 121 156 201 249 296 342
#     4  12  21  40  60  91 122 157 190 251 304 358
#     4  12  22  37  63  87 115 159 204 246 300 358
#     4  11  24  40  61  86 119 161 205 249 299 353
#
# _framework density 18.562757000000001
#
# number of rings (size 3 to 8) (size 9 to 14) (size 15 to 20)
#    0.000    1.273    5.455    1.091    6.364    5.818 
#    0.000    0.909    0.000    2.727    0.000    1.273 
#    0.000    0.000    0.000    0.000    0.000    0.000 
#
# Total GULP energy -245381.017946 kJ/mol
# GULP energy per Si atom -5576.841317 kJ/mol
# Density = 1.852051 g / cm^3
# Si number density = 18.562757 Si / 1000 Ang^3
#
#
#
# Elastic Constant Matrix: (Units=GPa)
#
#
# Indices 1 2 3 4 5 6 
#
# 1 116.3983 32.2260 33.9169 0.0000 0.0001 0.0000
# 2 32.2260 52.0339 23.9849 0.0000 -0.0001 0.0000
# 3 33.9169 23.9849 127.6102 -0.0003 -0.0006 0.0000
# 4 0.0000 0.0000 -0.0003 15.4067 -0.0009 0.0000
# 5 0.0001 -0.0001 -0.0006 -0.0009 91.0936 0.0000
# 6 0.0000 0.0000 0.0000 0.0000 0.0000 19.0509
#
#
#
# Elastic Compliance Matrix: (Units=1/GPa)
#
#
# Indices 1 2 3 4 5 6 
#
# 1 0.010716 -0.005829 -0.001753 0.000000 0.000000 0.000000
# 2 -0.005829 0.024212 -0.003002 0.000000 0.000000 0.000000
# 3 -0.001753 -0.003002 0.008866 0.000000 0.000000 0.000000
# 4 0.000000 0.000000 0.000000 0.064907 0.000001 0.000000
# 5 0.000000 0.000000 0.000000 0.000001 0.010978 0.000000
# 6 0.000000 0.000000 0.000000 0.000000 0.000000 0.052491
#
#
# Mechanical properties :
#
#
# Convention : Reuss Voigt Hill
#
# Bulk Modulus (GPa) = 44.19273 52.92199 48.55736
# Shear Modulus (GPa) = 24.89088 38.83790 31.86439
#
# Velocity S-wave (km/s) = 3.66581 4.57907 4.14765
# Velocity P-wave (km/s) = 6.46347 7.51857 7.01089
#
# Compressibility (1/GPa) = 0.02262815
#
# Stress axis : x y z
#
# Youngs Moduli (GPa) = 93.32231 41.30255 112.78652
#
# Poissons Ratio (x) = 0.24074 0.19766
# Poissons Ratio (y) = 0.54394 0.33853
# Poissons Ratio (z) = 0.16355 0.12397
#
# Static dielectric constant tensor:
#      x y z
#    x 1.644080 0.000000 0.000000 
#    y 0.000000 1.689700 0.000000 
#    z 0.000000 0.000000 1.624710 
# 
# From -- ./inp_files/22357.got.cif
#   From: 2010.05.17/outbox.cif.g08.bks.cpg/sg71_12_cif.got.tgz:22357.got - 2010.06.03 16:22:01.
