data_PCOD9520764
_publ_section_title
;
Structure prediction by ZEFSAII (Michael W. Deem and Ramdas Pophale) SiO2 
 PCOD9520764
Probable space group: I M M M
;
_chemical_formula_sum "Si O2"
_cell_formula_units_Z 116
_cell_length_a 29.663081
_cell_length_b 25.969714
_cell_length_c 7.617789
_cell_angle_alpha 90.000000
_cell_angle_beta 90.000000
_cell_angle_gamma 90.000000
_cell_volume 5868.300756
_symmetry_space_group_name_H-M "I M M M"
_symmetry_group_IT_number 71
_symmetry_cell_setting 'orthorhombic'
loop_
_space_group_symop_operation_xyz
x,y,z
-x,-y,z
x,-y,-z
-x,y,-z
-x,-y,-z
x,y,-z
-x,y,z
x,-y,z
1/2+x,1/2+y,1/2+z
1/2-x,1/2-y,1/2+z
1/2+x,1/2-y,1/2-z
1/2-x,1/2+y,1/2-z
1/2-x,1/2-y,1/2-z
1/2+x,1/2+y,1/2-z
1/2-x,1/2+y,1/2+z
1/2+x,1/2-y,1/2+z
loop_
_atom_site_type_symbol
_atom_site_label
_atom_site_fract_x
_atom_site_fract_y
_atom_site_fract_z
Si Si1 0.616647 0.646736 0.703544
Si Si2 0.694311 0.189606 0.799660
Si Si3 0.448484 0.142070 0.291672
Si Si4 0.050874 0.940886 0.785582
Si Si5 0.849384 0.500000 0.000000
Si Si6 0.141022 0.589578 0.295103
Si Si7 0.793831 0.197198 0.703550
Si Si8 0.051637 0.239683 0.710309
O O1 0.625555 0.636039 0.500000
O O2 0.587828 0.599343 0.777940
O O3 0.664577 0.658823 0.787315
O O4 0.585294 0.697135 0.717803
O O5 0.667476 0.140932 0.729399
O O6 0.747968 0.179384 0.794193
O O7 0.690313 0.247144 0.721920
O O8 0.677828 0.194303 0.000000
O O9 0.448086 0.132802 0.500000
O O10 0.500000 0.135290 0.227892
O O11 0.411640 0.105321 0.207454
O O12 0.436245 0.201922 0.259966
O O13 0.000000 0.926609 0.730385
O O14 0.059292 0.000000 0.734425
O O15 0.050958 0.939358 0.000000
O O16 0.850474 0.544757 0.843653
O O17 0.153964 0.578637 0.500000
O O18 0.781573 0.205631 0.500000
O O19 0.052689 0.236052 0.500000
O O20 0.000000 0.230494 0.770276
#
# Coordination Sequence:
#
# PCOD9520764 Si02
#       8
#    16  16  16  16   4  16  16  16
#     4  11  20  30  49  77 111 144 185 238 290 346
#     4   9  20  38  60  87 115 147 189 234 290 354
#     4  10  20  36  59  88 120 155 195 239 294 357
#     4   8  15  29  49  71  97 137 189 239 284 330
#     4  12  26  44  65  96 120 158 214 252 293 350
#     4  11  23  42  67  90 121 160 202 253 300 349
#     4  10  20  34  57  87 117 148 181 226 289 360
#     4  10  20  32  48  75 114 155 192 232 288 361
#
# _framework density 19.767220999999999
#
# number of rings (size 3 to 8) (size 9 to 14) (size 15 to 20)
#    0.000    2.069    0.690    3.517    0.966    3.862 
#    0.000    0.690    1.517    2.483    0.000    4.828 
#    0.000    0.000    0.000    0.000    0.000    0.000 
#
# Total GULP energy -323239.074657 kJ/mol
# GULP energy per Si atom -5573.087494 kJ/mol
# Density = 1.972223 g / cm^3
# Si number density = 19.767221 Si / 1000 Ang^3
#
#
#
# Elastic Constant Matrix: (Units=GPa)
#
#
# Indices 1 2 3 4 5 6 
#
# 1 77.5813 55.6838 7.4697 0.0000 0.0000 0.0000
# 2 55.6838 88.1612 19.2330 0.0000 0.0000 0.0000
# 3 7.4697 19.2330 75.0779 0.0000 0.0000 0.0000
# 4 0.0000 0.0000 0.0000 17.7099 0.0000 0.0000
# 5 0.0000 0.0000 0.0000 0.0000 21.9878 0.0000
# 6 0.0000 0.0000 0.0000 0.0000 0.0000 15.7138
#
#
#
# Elastic Compliance Matrix: (Units=1/GPa)
#
#
# Indices 1 2 3 4 5 6 
#
# 1 0.023752 -0.015344 0.001568 0.000000 0.000000 0.000000
# 2 -0.015344 0.021927 -0.004090 0.000000 0.000000 0.000000
# 3 0.001568 -0.004090 0.014211 0.000000 0.000000 0.000000
# 4 0.000000 0.000000 0.000000 0.056466 0.000000 0.000000
# 5 0.000000 0.000000 0.000000 0.000000 0.045480 0.000000
# 6 0.000000 0.000000 0.000000 0.000000 0.000000 0.063638
#
#
# Mechanical properties :
#
#
# Convention : Reuss Voigt Hill
#
# Bulk Modulus (GPa) = 41.39705 45.06594 43.23149
# Shear Modulus (GPa) = 18.56944 21.64456 20.10700
#
# Velocity S-wave (km/s) = 3.06830 3.31263 3.19280
# Velocity P-wave (km/s) = 5.79140 6.12202 5.95900
#
# Compressibility (1/GPa) = 0.02415631
#
# Stress axis : x y z
#
# Youngs Moduli (GPa) = 42.10186 45.60648 70.36604
#
# Poissons Ratio (x) = 0.69979 -0.11031
# Poissons Ratio (y) = 0.64601 0.28783
# Poissons Ratio (z) = -0.06600 0.18655
#
# Static dielectric constant tensor:
#      x y z
#    x 1.696010 0.000000 0.000000 
#    y 0.000000 1.680870 0.000000 
#    z 0.000000 0.000000 1.756780 
# 
# From -- ./inp_files/17347.got.cif
#   From: 2010.05.17/outbox.cif.g08.bks.cpg/sg71_9_cif.got.tgz:17347.got - 2010.06.03 16:22:01.
