data_PCOD9520013
_publ_section_title
;
Structure prediction by ZEFSAII (Michael W. Deem and Ramdas Pophale) SiO2 
 PCOD9520013
Probable space group: I M M M
;
_chemical_formula_sum "Si O2"
_cell_formula_units_Z 96
_cell_length_a 25.726271
_cell_length_b 7.505847
_cell_length_c 24.738941
_cell_angle_alpha 90.000000
_cell_angle_beta 90.000000
_cell_angle_gamma 90.000000
_cell_volume 4777.026522
_symmetry_space_group_name_H-M "I M M M"
_symmetry_group_IT_number 71
_symmetry_cell_setting 'orthorhombic'
loop_
_space_group_symop_operation_xyz
x,y,z
-x,-y,z
x,-y,-z
-x,y,-z
-x,-y,-z
x,y,-z
-x,y,z
x,-y,z
1/2+x,1/2+y,1/2+z
1/2-x,1/2-y,1/2+z
1/2+x,1/2-y,1/2-z
1/2-x,1/2+y,1/2-z
1/2-x,1/2-y,1/2-z
1/2+x,1/2+y,1/2-z
1/2-x,1/2+y,1/2+z
1/2+x,1/2-y,1/2+z
loop_
_atom_site_type_symbol
_atom_site_label
_atom_site_fract_x
_atom_site_fract_y
_atom_site_fract_z
Si Si1 0.073831 0.000000 0.939382
Si Si2 0.943089 0.709410 0.852564
Si Si3 0.439898 0.217127 0.937758
Si Si4 0.143899 0.283895 0.347659
Si Si5 0.734926 0.206870 0.357964
Si Si6 0.697502 0.500000 0.560569
Si Si7 0.349811 0.784282 0.725611
O O1 0.057746 0.172895 0.905874
O O2 0.135851 0.000000 0.941506
O O3 0.054700 0.000000 0.000000
O O4 0.936305 0.500000 0.864350
O O5 0.895922 0.768269 0.814691
O O6 0.000000 0.731416 0.826218
O O7 0.500000 0.270121 0.926327
O O8 0.398176 0.276572 0.892495
O O9 0.439260 0.000000 0.937331
O O10 0.427507 0.270882 0.000000
O O11 0.141857 0.500000 0.348417
O O12 0.203284 0.229315 0.358231
O O13 0.136668 0.221510 0.285755
O O14 0.714446 0.327978 0.406070
O O15 0.704930 0.267127 0.302775
O O16 0.721635 0.000000 0.365684
O O17 0.719259 0.500000 0.500000
O O18 0.349218 0.000000 0.728814
#
# Coordination Sequence:
#
# PCOD9520013 Si02
#       7
#     8  16  16  16  16   8  16
#     4  11  23  40  63  88 114 153 204 248 297 365
#     4  10  21  38  59  85 120 158 197 248 304 353
#     4   8  15  29  51  82 118 153 191 239 293 347
#     4  10  19  33  57  89 118 154 205 246 290 351
#     4  11  22  40  60  85 122 158 196 246 303 356
#     4  11  24  41  64  89 117 160 201 243 303 358
#     4   9  19  35  55  82 118 158 198 244 295 353
#
# _framework density 20.096183
#
# number of rings (size 3 to 8) (size 9 to 14) (size 15 to 20)
#    0.000    2.167    2.500    1.250    0.000    2.667 
#    3.000    5.833    0.000    0.500    0.000    1.167 
#    0.000    0.000    0.000    0.000    0.000    0.000 
#
# Total GULP energy -267811.380552 kJ/mol
# GULP energy per Si atom -5579.403762 kJ/mol
# Density = 2.005044 g / cm^3
# Si number density = 20.096183 Si / 1000 Ang^3
#
#
#
# Elastic Constant Matrix: (Units=GPa)
#
#
# Indices 1 2 3 4 5 6 
#
# 1 160.0996 23.1509 102.3241 0.0000 0.0000 0.0000
# 2 23.1509 69.4897 39.6325 0.0000 0.0000 0.0000
# 3 102.3241 39.6325 180.8276 0.0000 0.0000 0.0000
# 4 0.0000 0.0000 0.0000 15.6391 0.0000 0.0000
# 5 0.0000 0.0000 0.0000 0.0000 19.4119 0.0000
# 6 0.0000 0.0000 0.0000 0.0000 0.0000 -5.3051
#
#
#
# Elastic Compliance Matrix: (Units=1/GPa)
#
#
# Indices 1 2 3 4 5 6 
#
# 1 0.009786 -0.000117 -0.005512 0.000000 0.000000 0.000000
# 2 -0.000117 0.016448 -0.003539 0.000000 0.000000 0.000000
# 3 -0.005512 -0.003539 0.009425 0.000000 0.000000 0.000000
# 4 0.000000 0.000000 0.000000 0.063942 0.000000 0.000000
# 5 0.000000 0.000000 0.000000 0.000000 0.051515 0.000000
# 6 0.000000 0.000000 0.000000 0.000000 0.000000 -0.188497
#
#
# Mechanical properties :
#
#
# Convention : Reuss Voigt Hill
#
# Bulk Modulus (GPa) = 57.72485 82.29243 70.00864
# Shear Modulus (GPa) = -376.73059 22.30313 -177.21373
#
# Velocity S-wave (km/s) = -13.70659 3.33501 -9.40076
# Velocity P-wave (km/s) = 14.88985 7.47448 9.10604
#
# Compressibility (1/GPa) = 0.01732356
#
# Stress axis : x y z
#
# Youngs Moduli (GPa) = 102.18927 60.79825 106.10356
#
# Poissons Ratio (x) = 0.00709 0.58483
# Poissons Ratio (y) = 0.01191 0.37550
# Poissons Ratio (z) = 0.56325 0.21516
#
# Static dielectric constant tensor:
#      x y z
#    x 1.719980 0.000000 0.000000 
#    y 0.000000 1.720590 0.000000 
#    z 0.000000 0.000000 1.707320 
# 
# From -- ./inp_files/61915.got.cif
#   From: 2010.05.17/outbox.cif.g08.bks.cpg/sg71_31_cif.got.tgz:61915.got - 2010.06.03 16:22:01.
