data_PCOD9520545
_publ_section_title
;
Structure prediction by ZEFSAII (Michael W. Deem and Ramdas Pophale) SiO2 
 PCOD9520545
Probable space group: I M M M
;
_chemical_formula_sum "Si O2"
_cell_formula_units_Z 72
_cell_length_a 10.784286
_cell_length_b 18.652444
_cell_length_c 21.387706
_cell_angle_alpha 90.000000
_cell_angle_beta 90.000000
_cell_angle_gamma 90.000000
_cell_volume 4302.207442
_symmetry_space_group_name_H-M "I M M M"
_symmetry_group_IT_number 71
_symmetry_cell_setting 'orthorhombic'
loop_
_space_group_symop_operation_xyz
x,y,z
-x,-y,z
x,-y,-z
-x,y,-z
-x,-y,-z
x,y,-z
-x,y,z
x,-y,z
1/2+x,1/2+y,1/2+z
1/2-x,1/2-y,1/2+z
1/2+x,1/2-y,1/2-z
1/2-x,1/2+y,1/2-z
1/2-x,1/2-y,1/2-z
1/2+x,1/2+y,1/2-z
1/2-x,1/2+y,1/2+z
1/2+x,1/2-y,1/2+z
loop_
_atom_site_type_symbol
_atom_site_label
_atom_site_fract_x
_atom_site_fract_y
_atom_site_fract_z
Si Si1 0.638789 0.190367 0.000000
Si Si2 0.749546 0.343843 0.625236
Si Si3 0.353277 0.185419 0.637854
Si Si4 0.500000 0.585190 0.574586
Si Si5 0.142356 0.307182 0.000000
Si Si6 0.850283 0.417631 0.250352
O O1 0.660286 0.149160 0.934886
O O2 0.500000 0.221339 0.000000
O O3 0.752474 0.246590 0.000000
O O4 0.721807 0.259949 0.639408
O O5 0.620818 0.379178 0.604179
O O6 0.801567 0.382062 0.686303
O O7 0.500000 0.201363 0.647808
O O8 0.343457 0.154812 0.566920
O O9 0.312162 0.130141 0.690730
O O10 0.500000 0.500000 0.585215
O O11 0.500000 0.597502 0.500000
O O12 0.000000 0.277682 0.000000
O O13 0.808642 0.500000 0.245122
O O14 0.000000 0.417503 0.251635
#
# Coordination Sequence:
#
# PCOD9520545 Si02
#       6
#     8  16  16   8   8  16
#     4  10  20  30  50  80 109 135 172 214 256 308
#     4  11  19  34  54  74 105 135 182 216 257 310
#     4   9  17  31  54  79 100 132 176 218 263 311
#     4  11  22  34  52  80 105 136 174 218 264 310
#     4   8  16  30  55  80 105 131 169 224 266 304
#     4  10  21  35  49  71 107 143 172 213 269 319
#
# _framework density 16.735593999999999
#
# number of rings (size 3 to 8) (size 9 to 14) (size 15 to 20)
#    0.000    2.111    2.222    2.000    1.556    0.000 
#    0.000    0.556    2.444    6.000    0.000    0.000 
#    0.000   14.222    0.000    0.000    0.000    0.000 
#
# Total GULP energy -200586.651286 kJ/mol
# GULP energy per Si atom -5571.851425 kJ/mol
# Density = 1.669750 g / cm^3
# Si number density = 16.735594 Si / 1000 Ang^3
#
#
#
# Elastic Constant Matrix: (Units=GPa)
#
#
# Indices 1 2 3 4 5 6 
#
# 1 57.2623 17.7758 35.0657 0.0000 0.0000 0.0000
# 2 17.7758 98.9630 88.7706 0.0000 0.0000 0.0000
# 3 35.0657 88.7706 166.2848 0.0000 0.0000 0.0000
# 4 0.0000 0.0000 0.0000 19.2868 0.0000 0.0000
# 5 0.0000 0.0000 0.0000 0.0000 25.2322 0.0000
# 6 0.0000 0.0000 0.0000 0.0000 0.0000 12.7141
#
#
#
# Elastic Compliance Matrix: (Units=1/GPa)
#
#
# Indices 1 2 3 4 5 6 
#
# 1 0.020060 0.000367 -0.004426 0.000000 0.000000 0.000000
# 2 0.000367 0.019397 -0.010432 0.000000 0.000000 0.000000
# 3 -0.004426 -0.010432 0.012516 0.000000 0.000000 0.000000
# 4 0.000000 0.000000 0.000000 0.051849 0.000000 0.000000
# 5 0.000000 0.000000 0.000000 0.000000 0.039632 0.000000
# 6 0.000000 0.000000 0.000000 0.000000 0.000000 0.078653
#
#
# Mechanical properties :
#
#
# Convention : Reuss Voigt Hill
#
# Bulk Modulus (GPa) = 43.49641 67.30383 55.40012
# Shear Modulus (GPa) = 19.32345 23.50649 21.41497
#
# Velocity S-wave (km/s) = 3.40167 3.75184 3.58104
# Velocity P-wave (km/s) = 6.44013 7.68581 7.09038
#
# Compressibility (1/GPa) = 0.02299040
#
# Stress axis : x y z
#
# Youngs Moduli (GPa) = 49.85048 51.55518 79.89514
#
# Poissons Ratio (x) = -0.01893 0.35363
# Poissons Ratio (y) = -0.01830 0.83349
# Poissons Ratio (z) = 0.22065 0.53784
#
# Static dielectric constant tensor:
#      x y z
#    x 1.554730 0.000000 0.000000 
#    y 0.000000 1.552400 0.000000 
#    z 0.000000 0.000000 1.589380 
# 
# From -- ./inp_files/9991.got.cif
#   From: 2010.05.17/outbox.cif.g08.bks.cpg/sg71_5_cif.got.tgz:9991.got - 2010.06.03 16:22:01.
