data_PCOD9520803
_publ_section_title
;
Structure prediction by ZEFSAII (Michael W. Deem and Ramdas Pophale) SiO2 
 PCOD9520803
Probable space group: I M M M
;
_chemical_formula_sum "Si O2"
_cell_formula_units_Z 96
_cell_length_a 23.716297
_cell_length_b 26.740376
_cell_length_c 8.367719
_cell_angle_alpha 90.000000
_cell_angle_beta 90.000000
_cell_angle_gamma 90.000000
_cell_volume 5306.662621
_symmetry_space_group_name_H-M "I M M M"
_symmetry_group_IT_number 71
_symmetry_cell_setting 'orthorhombic'
loop_
_space_group_symop_operation_xyz
x,y,z
-x,-y,z
x,-y,-z
-x,y,-z
-x,-y,-z
x,y,-z
-x,y,z
x,-y,z
1/2+x,1/2+y,1/2+z
1/2-x,1/2-y,1/2+z
1/2+x,1/2-y,1/2-z
1/2-x,1/2+y,1/2-z
1/2-x,1/2-y,1/2-z
1/2+x,1/2+y,1/2-z
1/2-x,1/2+y,1/2+z
1/2+x,1/2-y,1/2+z
loop_
_atom_site_type_symbol
_atom_site_label
_atom_site_fract_x
_atom_site_fract_y
_atom_site_fract_z
Si Si1 0.756672 0.305293 0.314130
Si Si2 0.066367 0.750596 0.192419
Si Si3 0.868081 0.348339 0.815793
Si Si4 0.859844 0.842445 0.309102
Si Si5 0.686152 0.443904 0.808028
Si Si6 0.686224 0.056684 0.809368
O O1 0.773692 0.307865 0.500000
O O2 0.750000 0.250000 0.250000
O O3 0.804227 0.329493 0.205235
O O4 0.695721 0.328023 0.288259
O O5 0.095132 0.698400 0.250420
O O6 0.093667 0.801300 0.262425
O O7 0.000000 0.749187 0.225474
O O8 0.075057 0.752301 0.000000
O O9 0.861383 0.403351 0.740639
O O10 0.884160 0.354279 0.000000
O O11 0.850433 0.837531 0.500000
O O12 0.861260 0.901963 0.272056
O O13 0.673116 0.500000 0.748927
O O14 0.749750 0.431189 0.748643
O O15 0.690218 0.445443 0.000000
O O16 0.674210 0.000000 0.752929
O O17 0.688758 0.057077 0.000000
#
# Coordination Sequence:
#
# PCOD9520803 Si02
#       6
#    16  16  16  16  16  16
#     4  12  22  32  49  77 112 144 175 215 265 325
#     4  10  23  41  58  76 102 139 182 230 281 327
#     4  11  21  34  54  78 107 142 178 219 270 327
#     4  11  21  33  54  81 109 142 179 219 267 324
#     4   9  18  32  50  75 110 146 178 213 257 313
#     4  10  20  32  49  77 112 146 179 215 259 316
#
# _framework density 18.090465999999999
#
# number of rings (size 3 to 8) (size 9 to 14) (size 15 to 20)
#    0.000    1.500    3.333    3.000    0.000    2.667 
#    0.000    0.000    0.000    1.000    0.000    7.000 
#    0.000    0.000    0.000    0.000    0.000    0.000 
#
# Total GULP energy -267318.027963 kJ/mol
# GULP energy per Si atom -5569.125583 kJ/mol
# Density = 1.804929 g / cm^3
# Si number density = 18.090466 Si / 1000 Ang^3
#
#
#
# Elastic Constant Matrix: (Units=GPa)
#
#
# Indices 1 2 3 4 5 6 
#
# 1 59.8591 53.8983 8.0210 0.0000 0.0000 0.0000
# 2 53.8983 172.1527 23.7749 0.0000 0.0000 0.0000
# 3 8.0210 23.7749 28.2494 0.0000 0.0000 0.0000
# 4 0.0000 0.0000 0.0000 22.0455 0.0000 0.0000
# 5 0.0000 0.0000 0.0000 0.0000 16.1092 0.0000
# 6 0.0000 0.0000 0.0000 0.0000 0.0000 10.7214
#
#
#
# Elastic Compliance Matrix: (Units=1/GPa)
#
#
# Indices 1 2 3 4 5 6 
#
# 1 0.023271 -0.007212 -0.000538 0.000000 0.000000 0.000000
# 2 -0.007212 0.008808 -0.005365 0.000000 0.000000 0.000000
# 3 -0.000538 -0.005365 0.040067 0.000000 0.000000 0.000000
# 4 0.000000 0.000000 0.000000 0.045361 0.000000 0.000000
# 5 0.000000 0.000000 0.000000 0.000000 0.062076 0.000000
# 6 0.000000 0.000000 0.000000 0.000000 0.000000 0.093272
#
#
# Mechanical properties :
#
#
# Convention : Reuss Voigt Hill
#
# Bulk Modulus (GPa) = 21.77863 47.96106 34.86985
# Shear Modulus (GPa) = 15.90384 21.41303 18.65844
#
# Velocity S-wave (km/s) = 2.96823 3.44417 3.21502
# Velocity P-wave (km/s) = 4.87976 6.51044 5.75317
#
# Compressibility (1/GPa) = 0.04591656
#
# Stress axis : x y z
#
# Youngs Moduli (GPa) = 42.97106 113.53904 24.95822
#
# Poissons Ratio (x) = 0.81880 0.01343
# Poissons Ratio (y) = 0.30989 0.13390
# Poissons Ratio (z) = 0.02313 0.60912
#
# Static dielectric constant tensor:
#      x y z
#    x 1.579130 0.000000 0.000000 
#    y 0.000000 1.714690 0.000000 
#    z 0.000000 0.000000 1.635090 
# 
# From -- ./inp_files/10866.got.cif
#   From: 2010.05.17/outbox.cif.g08.bks.cpg/sg71_6_cif.got.tgz:10866.got - 2010.06.03 16:22:01.
