data_PCOD9520985
_publ_section_title
;
Structure prediction by ZEFSAII (Michael W. Deem and Ramdas Pophale) SiO2 
 PCOD9520985
Probable space group: I M M M
;
_chemical_formula_sum "Si O2"
_cell_formula_units_Z 104
_cell_length_a 9.350345
_cell_length_b 34.664657
_cell_length_c 14.446960
_cell_angle_alpha 90.000000
_cell_angle_beta 90.000000
_cell_angle_gamma 90.000000
_cell_volume 4682.642613
_symmetry_space_group_name_H-M "I M M M"
_symmetry_group_IT_number 71
_symmetry_cell_setting 'orthorhombic'
loop_
_space_group_symop_operation_xyz
x,y,z
-x,-y,z
x,-y,-z
-x,y,-z
-x,-y,-z
x,y,-z
-x,y,z
x,-y,z
1/2+x,1/2+y,1/2+z
1/2-x,1/2-y,1/2+z
1/2+x,1/2-y,1/2-z
1/2-x,1/2+y,1/2-z
1/2-x,1/2-y,1/2-z
1/2+x,1/2+y,1/2-z
1/2-x,1/2+y,1/2+z
1/2+x,1/2-y,1/2+z
loop_
_atom_site_type_symbol
_atom_site_label
_atom_site_fract_x
_atom_site_fract_y
_atom_site_fract_z
Si Si1 0.336861 0.000000 0.113094
Si Si2 0.662282 0.296347 0.849217
Si Si3 0.328027 0.958374 0.388698
Si Si4 0.169052 0.626474 0.112291
Si Si5 0.338021 0.276189 0.366680
Si Si6 0.663376 0.424245 0.386310
Si Si7 0.341356 0.147874 0.892824
O O1 0.254460 0.038521 0.141324
O O2 0.500000 0.000000 0.146007
O O3 0.340153 0.000000 0.000000
O O4 0.500000 0.297831 0.886420
O O5 0.738260 0.337772 0.852195
O O6 0.651836 0.281560 0.743926
O O7 0.764598 0.264017 0.893444
O O8 0.304598 0.958803 0.500000
O O9 0.500000 0.958098 0.375681
O O10 0.278649 0.916157 0.356155
O O11 0.274026 0.000000 0.352522
O O12 0.000000 0.630835 0.135017
O O13 0.177867 0.627197 0.000000
O O14 0.500000 0.279480 0.401097
O O15 0.236463 0.311369 0.393607
O O16 0.658887 0.424154 0.500000
O O17 0.500000 0.426236 0.354886
O O18 0.741190 0.385458 0.353072
O O19 0.500000 0.149966 0.850990
O O20 0.358440 0.136707 0.000000
#
# Coordination Sequence:
#
# PCOD9520985 Si02
#       7
#     8  16  16  16  16  16  16
#     4   9  15  23  37  59  89 123 157 195 238 281
#     4  10  21  36  53  73  97 127 164 205 248 296
#     4   7  10  19  38  66  99 131 163 199 235 273
#     4   9  17  29  48  76 106 135 168 205 246 292
#     4  10  21  37  55  72  92 124 166 208 247 297
#     4   9  16  26  41  63  92 124 157 192 233 285
#     4  10  20  33  50  74 101 126 155 196 249 302
#
# _framework density 22.209682999999998
#
# number of rings (size 3 to 8) (size 9 to 14) (size 15 to 20)
#    0.000    2.846    0.000    3.462    0.000    6.462 
#    0.000    0.000    0.000    0.462    2.000    2.154 
#    0.000    0.000    0.000    0.000    0.000    0.000 
#
# Total GULP energy -290252.761419 kJ/mol
# GULP energy per Si atom -5581.783873 kJ/mol
# Density = 2.215913 g / cm^3
# Si number density = 22.209683 Si / 1000 Ang^3
#
#
#
# Elastic Constant Matrix: (Units=GPa)
#
#
# Indices 1 2 3 4 5 6 
#
# 1 182.5547 111.8247 1.4533 0.0000 0.0000 0.0000
# 2 111.8247 239.6872 4.5467 0.0001 0.0000 0.0000
# 3 1.4533 4.5467 62.8835 0.0003 0.0001 0.0000
# 4 0.0000 0.0001 0.0003 25.4741 0.0000 0.0000
# 5 0.0000 0.0000 0.0001 0.0000 4.9412 0.0000
# 6 0.0000 0.0000 0.0000 0.0000 0.0000 26.4344
#
#
#
# Elastic Compliance Matrix: (Units=1/GPa)
#
#
# Indices 1 2 3 4 5 6 
#
# 1 0.007670 -0.003580 0.000082 0.000000 0.000000 0.000000
# 2 -0.003580 0.005849 -0.000340 0.000000 0.000000 0.000000
# 3 0.000082 -0.000340 0.015925 0.000000 0.000000 0.000000
# 4 0.000000 0.000000 0.000000 0.039256 0.000000 0.000000
# 5 0.000000 0.000000 0.000000 0.000000 0.202382 0.000000
# 6 0.000000 0.000000 0.000000 0.000000 0.000000 0.037830
#
#
# Mechanical properties :
#
#
# Convention : Reuss Voigt Hill
#
# Bulk Modulus (GPa) = 45.94132 80.08608 63.01370
# Shear Modulus (GPa) = 15.43956 35.85665 25.64810
#
# Velocity S-wave (km/s) = 2.63947 4.02239 3.40195
# Velocity P-wave (km/s) = 5.47898 7.59673 6.62305
#
# Compressibility (1/GPa) = 0.02176690
#
# Stress axis : x y z
#
# Youngs Moduli (GPa) = 130.37646 170.97589 62.79382
#
# Poissons Ratio (x) = 0.61209 -0.00512
# Poissons Ratio (y) = 0.46675 0.02136
# Poissons Ratio (z) = -0.01064 0.05816
#
# Static dielectric constant tensor:
#      x y z
#    x 1.775620 0.000000 0.000000 
#    y 0.000000 1.789750 0.000000 
#    z 0.000000 0.000000 1.921320 
# 
# From -- ./inp_files/51182.got.cif
#   From: 2010.05.17/outbox.cif.g08.bks.cpg/sg71_26_cif.got.tgz:51182.got - 2010.06.03 16:22:01.
