data_PCOD9520415
_publ_section_title
;
Structure prediction by ZEFSAII (Michael W. Deem and Ramdas Pophale) SiO2 
 PCOD9520415
Probable space group: I M M M
;
_chemical_formula_sum "Si O2"
_cell_formula_units_Z 104
_cell_length_a 25.391734
_cell_length_b 8.022516
_cell_length_c 22.172176
_cell_angle_alpha 90.000000
_cell_angle_beta 90.000000
_cell_angle_gamma 90.000000
_cell_volume 4516.596244
_symmetry_space_group_name_H-M "I M M M"
_symmetry_group_IT_number 71
_symmetry_cell_setting 'orthorhombic'
loop_
_space_group_symop_operation_xyz
x,y,z
-x,-y,z
x,-y,-z
-x,y,-z
-x,-y,-z
x,y,-z
-x,y,z
x,-y,z
1/2+x,1/2+y,1/2+z
1/2-x,1/2-y,1/2+z
1/2+x,1/2-y,1/2-z
1/2-x,1/2+y,1/2-z
1/2-x,1/2-y,1/2-z
1/2+x,1/2+y,1/2-z
1/2-x,1/2+y,1/2+z
1/2+x,1/2-y,1/2+z
loop_
_atom_site_type_symbol
_atom_site_label
_atom_site_fract_x
_atom_site_fract_y
_atom_site_fract_z
Si Si1 0.941873 0.702903 0.108538
Si Si2 0.939148 0.199070 0.500000
Si Si3 0.914687 0.307862 0.760495
Si Si4 0.224883 0.810357 0.373308
Si Si5 0.393352 0.199590 0.868348
Si Si6 0.866364 0.296021 0.000000
Si Si7 0.801289 0.190446 0.786769
Si Si8 0.753249 0.305402 0.500000
O O1 0.937917 0.500000 0.112077
O O2 0.936748 0.767708 0.177292
O O3 0.898290 0.754212 0.060197
O O4 0.000000 0.743605 0.085440
O O5 0.912477 0.248829 0.564521
O O6 0.000000 0.261408 0.500000
O O7 0.939826 0.000000 0.500000
O O8 0.932497 0.500000 0.758257
O O9 0.923660 0.238464 0.692656
O O10 0.851939 0.300416 0.774152
O O11 0.166959 0.752021 0.354676
O O12 0.275871 0.706823 0.352631
O O13 0.223275 0.788881 0.443754
O O14 0.233868 0.000000 0.354686
O O15 0.395525 0.000000 0.867340
O O16 0.809177 0.217352 0.000000
O O17 0.861600 0.500000 0.000000
O O18 0.750000 0.250000 0.750000
O O19 0.815139 0.000000 0.773830
O O20 0.768000 0.500000 0.500000
#
# Coordination Sequence:
#
# PCOD9520415 Si02
#       8
#    16   8  16  16  16   8  16   8
#     4   9  18  34  59  91 123 159 206 258 307 358
#     4  11  26  47  68  89 117 156 204 261 326 388
#     4  10  21  37  60  91 128 165 208 258 311 369
#     4  12  24  40  62  89 125 166 206 251 307 372
#     4  11  23  40  64  92 123 159 205 258 313 377
#     4  10  19  35  61  90 123 164 210 255 304 364
#     4  12  23  37  59  88 124 165 207 248 299 362
#     4  12  25  40  59  87 124 161 204 257 306 369
#
# _framework density 23.02619
#
# number of rings (size 3 to 8) (size 9 to 14) (size 15 to 20)
#    0.000    1.154    1.538    5.769    0.000    4.000 
#    0.000    1.538    0.000    2.308    0.000    0.000 
#    0.000    0.000    0.000    0.000    0.000    0.000 
#
# Total GULP energy -290308.550128 kJ/mol
# GULP energy per Si atom -5582.856733 kJ/mol
# Density = 2.297378 g / cm^3
# Si number density = 23.026190 Si / 1000 Ang^3
#
#
#
# Elastic Constant Matrix: (Units=GPa)
#
#
# Indices 1 2 3 4 5 6 
#
# 1 72.0253 1.4405 5.6460 0.0000 0.0000 0.0000
# 2 1.4405 65.9432 8.0300 0.0000 0.0000 0.0000
# 3 5.6460 8.0300 130.8926 0.0000 0.0000 0.0000
# 4 0.0000 0.0000 0.0000 17.3279 0.0000 0.0000
# 5 0.0000 0.0000 0.0000 0.0000 11.2636 0.0000
# 6 0.0000 0.0000 0.0000 0.0000 0.0000 12.8543
#
#
#
# Elastic Compliance Matrix: (Units=1/GPa)
#
#
# Indices 1 2 3 4 5 6 
#
# 1 0.013935 -0.000233 -0.000587 0.000000 0.000000 0.000000
# 2 -0.000233 0.015283 -0.000928 0.000000 0.000000 0.000000
# 3 -0.000587 -0.000928 0.007722 0.000000 0.000000 0.000000
# 4 0.000000 0.000000 0.000000 0.057711 0.000000 0.000000
# 5 0.000000 0.000000 0.000000 0.000000 0.088782 0.000000
# 6 0.000000 0.000000 0.000000 0.000000 0.000000 0.077795
#
#
# Mechanical properties :
#
#
# Convention : Reuss Voigt Hill
#
# Bulk Modulus (GPa) = 29.89997 33.23269 31.56633
# Shear Modulus (GPa) = 18.12453 25.20546 21.66499
#
# Velocity S-wave (km/s) = 2.80862 3.31213 3.07071
# Velocity P-wave (km/s) = 4.85090 5.39359 5.12943
#
# Compressibility (1/GPa) = 0.03344485
#
# Stress axis : x y z
#
# Youngs Moduli (GPa) = 71.76345 65.43393 129.49908
#
# Poissons Ratio (x) = 0.01524 0.07599
# Poissons Ratio (y) = 0.01672 0.12011
# Poissons Ratio (z) = 0.04211 0.06069
#
# Static dielectric constant tensor:
#      x y z
#    x 1.859130 0.000000 0.000000 
#    y 0.000000 1.850330 0.000000 
#    z 0.000000 0.000000 2.039430 
# 
# From -- ./inp_files/56331.got.cif
#   From: 2010.05.17/outbox.cif.g08.bks.cpg/sg71_29_cif.got.tgz:56331.got - 2010.06.03 16:22:01.
