data_PCOD9520741
_publ_section_title
;
Structure prediction by ZEFSAII (Michael W. Deem and Ramdas Pophale) SiO2 
 PCOD9520741
Probable space group: I M M M
;
_chemical_formula_sum "Si O2"
_cell_formula_units_Z 128
_cell_length_a 22.138916
_cell_length_b 18.862472
_cell_length_c 18.977729
_cell_angle_alpha 90.000000
_cell_angle_beta 90.000000
_cell_angle_gamma 90.000000
_cell_volume 7924.998729
_symmetry_space_group_name_H-M "I M M M"
_symmetry_group_IT_number 71
_symmetry_cell_setting 'orthorhombic'
loop_
_space_group_symop_operation_xyz
x,y,z
-x,-y,z
x,-y,-z
-x,y,-z
-x,-y,-z
x,y,-z
-x,y,z
x,-y,z
1/2+x,1/2+y,1/2+z
1/2-x,1/2-y,1/2+z
1/2+x,1/2-y,1/2-z
1/2-x,1/2+y,1/2-z
1/2-x,1/2-y,1/2-z
1/2+x,1/2+y,1/2-z
1/2-x,1/2+y,1/2+z
1/2+x,1/2-y,1/2+z
loop_
_atom_site_type_symbol
_atom_site_label
_atom_site_fract_x
_atom_site_fract_y
_atom_site_fract_z
Si Si1 0.637945 0.183515 0.190224
Si Si2 0.570905 0.419818 0.250859
Si Si3 0.792749 0.224507 0.577235
Si Si4 0.305650 0.918978 0.304135
Si Si5 0.071800 0.229717 0.812074
Si Si6 0.827109 0.920828 0.634012
Si Si7 0.846749 0.315352 0.918346
Si Si8 0.072634 0.418313 0.580876
O O1 0.679928 0.232132 0.141575
O O2 0.676657 0.132539 0.240775
O O3 0.597029 0.231612 0.241753
O O4 0.599535 0.134920 0.137487
O O5 0.500000 0.414034 0.230892
O O6 0.580228 0.500000 0.279287
O O7 0.583623 0.354364 0.302833
O O8 0.614809 0.412620 0.183889
O O9 0.807062 0.254675 0.500000
O O10 0.819780 0.145082 0.582341
O O11 0.720466 0.218395 0.584096
O O12 0.233972 0.917140 0.318976
O O13 0.338869 0.887437 0.373310
O O14 0.323399 0.000000 0.290728
O O15 0.106833 0.264984 0.877228
O O16 0.000000 0.240510 0.817928
O O17 0.828440 0.000000 0.602068
O O18 0.862447 0.326831 0.000000
O O19 0.090321 0.401535 0.500000
O O20 0.090757 0.500000 0.595172
O O21 0.000000 0.415575 0.583828
#
# Coordination Sequence:
#
# PCOD9520741 Si02
#       8
#    16  16  16  16  16  16  16  16
#     4  11  19  30  49  71 103 125 157 204 251 291
#     4   9  17  30  49  72  98 129 164 203 246 290
#     4  10  20  32  48  72 101 136 168 199 246 297
#     4   9  19  31  50  77  98 126 166 203 247 296
#     4  10  20  32  52  77  98 127 167 205 248 298
#     4   9  17  31  49  70  97 128 165 206 245 288
#     4   9  20  35  52  73 101 132 162 202 252 300
#     4   9  18  32  48  65  89 125 163 195 233 283
#
# _framework density 16.151422
#
# number of rings (size 3 to 8) (size 9 to 14) (size 15 to 20)
#    0.000    2.500    1.250    1.500    1.750    2.250 
#    0.000    2.500    0.000    4.875    0.000    8.750 
#    0.000    0.000    0.000    0.000    0.000    0.000 
#
# Total GULP energy -356556.699690 kJ/mol
# GULP energy per Si atom -5571.198433 kJ/mol
# Density = 1.611466 g / cm^3
# Si number density = 16.151422 Si / 1000 Ang^3
#
#
#
# Elastic Constant Matrix: (Units=GPa)
#
#
# Indices 1 2 3 4 5 6 
#
# 1 45.6379 37.3092 28.4076 0.0000 0.0000 0.0000
# 2 37.3092 103.2277 54.1933 0.0000 0.0000 0.0000
# 3 28.4076 54.1933 102.6460 0.0000 0.0000 0.0000
# 4 0.0000 0.0000 0.0000 17.7667 0.0000 0.0000
# 5 0.0000 0.0000 0.0000 0.0000 10.0626 0.0000
# 6 0.0000 0.0000 0.0000 0.0000 0.0000 20.2195
#
#
#
# Elastic Compliance Matrix: (Units=1/GPa)
#
#
# Indices 1 2 3 4 5 6 
#
# 1 0.032149 -0.009613 -0.003822 0.000000 0.000000 0.000000
# 2 -0.009613 0.016276 -0.005933 0.000000 0.000000 0.000000
# 3 -0.003822 -0.005933 0.013932 0.000000 0.000000 0.000000
# 4 0.000000 0.000000 0.000000 0.056285 0.000000 0.000000
# 5 0.000000 0.000000 0.000000 0.000000 0.099378 0.000000
# 6 0.000000 0.000000 0.000000 0.000000 0.000000 0.049457
#
#
# Mechanical properties :
#
#
# Convention : Reuss Voigt Hill
#
# Bulk Modulus (GPa) = 42.33336 54.59243 48.46289
# Shear Modulus (GPa) = 15.91909 18.38320 17.15114
#
# Velocity S-wave (km/s) = 3.14286 3.37735 3.26221
# Velocity P-wave (km/s) = 6.27991 7.00588 6.65281
#
# Compressibility (1/GPa) = 0.02362203
#
# Stress axis : x y z
#
# Youngs Moduli (GPa) = 31.10475 61.43849 71.77543
#
# Poissons Ratio (x) = 0.59061 0.27433
# Poissons Ratio (y) = 0.29901 0.42584
# Poissons Ratio (z) = 0.11889 0.36451
#
# Static dielectric constant tensor:
#      x y z
#    x 1.523620 0.000000 0.000000 
#    y 0.000000 1.556080 0.000000 
#    z 0.000000 0.000000 1.521200 
# 
# From -- ./inp_files/55269.got.cif
#   From: 2010.05.17/outbox.cif.g08.bks.cpg/sg71_28_cif.got.tgz:55269.got - 2010.06.03 16:22:01.
