data_PCOD9520757
_publ_section_title
;
Structure prediction by ZEFSAII (Michael W. Deem and Ramdas Pophale) SiO2 
 PCOD9520757
Probable space group: I M M M
;
_chemical_formula_sum "Si O2"
_cell_formula_units_Z 104
_cell_length_a 14.880679
_cell_length_b 15.174014
_cell_length_c 25.424290
_cell_angle_alpha 90.000000
_cell_angle_beta 90.000000
_cell_angle_gamma 90.000000
_cell_volume 5740.795313
_symmetry_space_group_name_H-M "I M M M"
_symmetry_group_IT_number 71
_symmetry_cell_setting 'orthorhombic'
loop_
_space_group_symop_operation_xyz
x,y,z
-x,-y,z
x,-y,-z
-x,y,-z
-x,-y,-z
x,y,-z
-x,y,z
x,-y,z
1/2+x,1/2+y,1/2+z
1/2-x,1/2-y,1/2+z
1/2+x,1/2-y,1/2-z
1/2-x,1/2+y,1/2-z
1/2-x,1/2-y,1/2-z
1/2+x,1/2+y,1/2-z
1/2-x,1/2+y,1/2+z
1/2+x,1/2-y,1/2+z
loop_
_atom_site_type_symbol
_atom_site_label
_atom_site_fract_x
_atom_site_fract_y
_atom_site_fract_z
Si Si1 0.236088 0.398750 0.749118
Si Si2 0.402026 0.398448 0.086726
Si Si3 0.107659 0.500000 0.439862
Si Si4 0.894255 0.630298 0.653312
Si Si5 0.600688 0.675297 0.803490
Si Si6 0.898587 0.392647 0.840681
Si Si7 0.708144 0.107515 0.557259
O O1 0.262029 0.500000 0.760441
O O2 0.180956 0.399638 0.695004
O O3 0.323883 0.339986 0.759744
O O4 0.163814 0.367806 0.792304
O O5 0.500000 0.358030 0.074189
O O6 0.405527 0.500000 0.069294
O O7 0.391058 0.396288 0.149925
O O8 0.310686 0.360245 0.063347
O O9 0.144015 0.500000 0.500000
O O10 0.127699 0.585410 0.402791
O O11 0.000000 0.500000 0.444835
O O12 0.890532 0.735124 0.662330
O O13 0.000000 0.605706 0.665491
O O14 0.500000 0.673044 0.781334
O O15 0.901070 0.500000 0.841329
O O16 0.852641 0.362663 0.894578
O O17 0.000000 0.361089 0.834788
O O18 0.672430 0.131383 0.500000
O O19 0.710978 0.000000 0.560158
#
# Coordination Sequence:
#
# PCOD9520757 Si02
#       7
#    16  16   8  16  16  16  16
#     4  11  19  31  52  75 104 141 177 214 261 322
#     4   9  16  28  44  62  90 129 170 209 252 307
#     4   9  18  36  60  82 107 139 178 228 280 329
#     4  10  20  34  53  80 109 137 173 220 276 331
#     4  10  20  32  48  74 108 141 172 213 266 320
#     4   9  17  27  41  63  88 120 163 208 251 297
#     4   9  16  26  39  57  83 118 164 210 248 291
#
# _framework density 18.115957000000002
#
# number of rings (size 3 to 8) (size 9 to 14) (size 15 to 20)
#    0.000    2.385    2.308    1.385    0.000    2.154 
#    0.000    3.846    0.000    2.769    0.000    0.000 
#    0.000    1.231    0.000    0.000    0.000    0.000 
#
# Total GULP energy -289482.244814 kJ/mol
# GULP energy per Si atom -5566.966246 kJ/mol
# Density = 1.807472 g / cm^3
# Si number density = 18.115957 Si / 1000 Ang^3
#
#
#
# Elastic Constant Matrix: (Units=GPa)
#
#
# Indices 1 2 3 4 5 6 
#
# 1 106.7748 26.7292 55.6932 0.0000 0.0000 0.0000
# 2 26.7292 52.8094 20.0597 0.0000 0.0000 0.0000
# 3 55.6932 20.0597 118.6461 0.0000 0.0000 0.0000
# 4 0.0000 0.0000 0.0000 6.8712 0.0000 0.0000
# 5 0.0000 0.0000 0.0000 0.0000 19.7094 0.0000
# 6 0.0000 0.0000 0.0000 0.0000 0.0000 11.7230
#
#
#
# Elastic Compliance Matrix: (Units=1/GPa)
#
#
# Indices 1 2 3 4 5 6 
#
# 1 0.013411 -0.004698 -0.005501 0.000000 0.000000 0.000000
# 2 -0.004698 0.021882 -0.001494 0.000000 0.000000 0.000000
# 3 -0.005501 -0.001494 0.011263 0.000000 0.000000 0.000000
# 4 0.000000 0.000000 0.000000 0.145535 0.000000 0.000000
# 5 0.000000 0.000000 0.000000 0.000000 0.050737 0.000000
# 6 0.000000 0.000000 0.000000 0.000000 0.000000 0.085303
#
#
# Mechanical properties :
#
#
# Convention : Reuss Voigt Hill
#
# Bulk Modulus (GPa) = 43.16096 53.68828 48.42462
# Shear Modulus (GPa) = 13.91827 19.37726 16.64777
#
# Velocity S-wave (km/s) = 2.77481 3.27406 3.03472
# Velocity P-wave (km/s) = 5.84317 6.63271 6.25042
#
# Compressibility (1/GPa) = 0.02316909
#
# Stress axis : x y z
#
# Youngs Moduli (GPa) = 74.56661 45.70047 88.78518
#
# Poissons Ratio (x) = 0.21472 0.48839
# Poissons Ratio (y) = 0.35034 0.13266
# Poissons Ratio (z) = 0.41017 0.06828
#
# Static dielectric constant tensor:
#      x y z
#    x 1.641120 0.000000 0.000000 
#    y 0.000000 1.693190 0.000000 
#    z 0.000000 0.000000 1.640050 
# 
# From -- ./inp_files/60146.got.cif
#   From: 2010.05.17/outbox.cif.g08.bks.cpg/sg71_31_cif.got.tgz:60146.got - 2010.06.03 16:22:01.
