data_PCOD9520173
_publ_section_title
;
Structure prediction by ZEFSAII (Michael W. Deem and Ramdas Pophale) SiO2 
 PCOD9520173
Probable space group: I M M M
;
_chemical_formula_sum "Si O2"
_cell_formula_units_Z 72
_cell_length_a 7.880544
_cell_length_b 22.489369
_cell_length_c 20.381012
_cell_angle_alpha 90.000000
_cell_angle_beta 90.000000
_cell_angle_gamma 90.000000
_cell_volume 3612.095409
_symmetry_space_group_name_H-M "I M M M"
_symmetry_group_IT_number 71
_symmetry_cell_setting 'orthorhombic'
loop_
_space_group_symop_operation_xyz
x,y,z
-x,-y,z
x,-y,-z
-x,y,-z
-x,-y,-z
x,y,-z
-x,y,z
x,-y,z
1/2+x,1/2+y,1/2+z
1/2-x,1/2-y,1/2+z
1/2+x,1/2-y,1/2-z
1/2-x,1/2+y,1/2-z
1/2-x,1/2-y,1/2-z
1/2+x,1/2+y,1/2-z
1/2-x,1/2+y,1/2+z
1/2+x,1/2-y,1/2+z
loop_
_atom_site_type_symbol
_atom_site_label
_atom_site_fract_x
_atom_site_fract_y
_atom_site_fract_z
Si Si1 0.696233 0.203479 0.606198
Si Si2 0.812429 0.647312 0.242804
Si Si3 0.795826 0.163278 0.111154
Si Si4 0.500000 0.434240 0.208305
Si Si5 0.500000 0.615894 0.071110
Si Si6 0.206894 0.930440 0.000000
O O1 0.500000 0.189187 0.589315
O O2 0.708353 0.197548 0.686246
O O3 0.731874 0.270519 0.583191
O O4 0.834676 0.157917 0.579454
O O5 0.793181 0.664419 0.318376
O O6 0.665625 0.600362 0.230749
O O7 0.000000 0.622141 0.231989
O O8 0.000000 0.157895 0.121329
O O9 0.742554 0.109368 0.063429
O O10 0.500000 0.500000 0.234680
O O11 0.500000 0.430442 0.129861
O O12 0.500000 0.588102 0.000000
O O13 0.000000 0.931276 0.000000
O O14 0.262224 0.000000 0.000000
#
# Coordination Sequence:
#
# PCOD9520173 Si02
#       6
#    16  16  16   8   8   8
#     4   9  20  35  56  86 120 148 181 238 292 350
#     4  10  20  36  58  88 115 143 188 241 294 339
#     4  10  19  34  56  83 113 155 194 232 290 338
#     4  10  22  41  60  81 116 152 189 235 285 347
#     4  10  22  37  58  90 115 147 190 232 288 346
#     4   9  20  36  53  77 111 154 203 238 269 329
#
# _framework density 19.933028
#
# number of rings (size 3 to 8) (size 9 to 14) (size 15 to 20)
#    0.000    2.333    1.111    0.667    3.111    2.000 
#    0.000    0.556    0.000    0.667    0.000    6.222 
#    0.000    0.000    0.000    0.000    0.000    0.000 
#
# Total GULP energy -200768.427550 kJ/mol
# GULP energy per Si atom -5576.900765 kJ/mol
# Density = 1.988766 g / cm^3
# Si number density = 19.933028 Si / 1000 Ang^3
#
#
#
# Elastic Constant Matrix: (Units=GPa)
#
#
# Indices 1 2 3 4 5 6 
#
# 1 83.3497 43.9003 10.2878 0.0000 0.0000 0.0000
# 2 43.9003 101.9110 2.4347 0.0000 0.0000 0.0000
# 3 10.2878 2.4347 72.2413 0.0000 0.0000 0.0000
# 4 0.0000 0.0000 0.0000 10.7310 0.0000 0.0000
# 5 0.0000 0.0000 0.0000 0.0000 -14.0807 0.0000
# 6 0.0000 0.0000 0.0000 0.0000 0.0000 -44.8004
#
#
#
# Elastic Compliance Matrix: (Units=1/GPa)
#
#
# Indices 1 2 3 4 5 6 
#
# 1 0.015809 -0.006762 -0.002023 0.000000 0.000000 0.000000
# 2 -0.006762 0.012712 0.000534 0.000000 0.000000 0.000000
# 3 -0.002023 0.000534 0.014113 0.000000 0.000000 0.000000
# 4 0.000000 0.000000 0.000000 0.093188 0.000000 0.000000
# 5 0.000000 0.000000 0.000000 0.000000 -0.071019 0.000000
# 6 0.000000 0.000000 0.000000 0.000000 0.000000 -0.022321
#
#
# Mechanical properties :
#
#
# Convention : Reuss Voigt Hill
#
# Bulk Modulus (GPa) = 38.26624 41.19417 39.73020
# Shear Modulus (GPa) = 73.86246 3.76193 38.81220
#
# Velocity S-wave (km/s) = 6.09391 1.37527 4.41742
# Velocity P-wave (km/s) = 8.29177 4.82006 6.78183
#
# Compressibility (1/GPa) = 0.02613270
#
# Stress axis : x y z
#
# Youngs Moduli (GPa) = 63.25620 78.66319 70.85848
#
# Poissons Ratio (x) = 0.53189 0.14338
# Poissons Ratio (y) = 0.42771 -0.03787
# Poissons Ratio (z) = 0.12799 -0.04204
#
# Static dielectric constant tensor:
#      x y z
#    x 1.685570 0.000000 0.000000 
#    y 0.000000 1.653570 0.000000 
#    z 0.000000 0.000000 1.741150 
# 
# From -- ./inp_files/50221.got.cif
#   From: 2010.05.17/outbox.cif.g08.bks.cpg/sg71_26_cif.got.tgz:50221.got - 2010.06.03 16:22:01.
