data_PCOD9520298
_publ_section_title
;
Structure prediction by ZEFSAII (Michael W. Deem and Ramdas Pophale) SiO2 
 PCOD9520298
Probable space group: I M M M
;
_chemical_formula_sum "Si O2"
_cell_formula_units_Z 104
_cell_length_a 22.667608
_cell_length_b 7.665101
_cell_length_c 28.323228
_cell_angle_alpha 90.000000
_cell_angle_beta 90.000000
_cell_angle_gamma 90.000000
_cell_volume 4921.146838
_symmetry_space_group_name_H-M "I M M M"
_symmetry_group_IT_number 71
_symmetry_cell_setting 'orthorhombic'
loop_
_space_group_symop_operation_xyz
x,y,z
-x,-y,z
x,-y,-z
-x,y,-z
-x,-y,-z
x,y,-z
-x,y,z
x,-y,z
1/2+x,1/2+y,1/2+z
1/2-x,1/2-y,1/2+z
1/2+x,1/2-y,1/2-z
1/2-x,1/2+y,1/2-z
1/2-x,1/2-y,1/2-z
1/2+x,1/2+y,1/2-z
1/2-x,1/2+y,1/2+z
1/2+x,1/2-y,1/2+z
loop_
_atom_site_type_symbol
_atom_site_label
_atom_site_fract_x
_atom_site_fract_y
_atom_site_fract_z
Si Si1 0.890975 0.796279 0.888409
Si Si2 0.000000 0.697933 0.944558
Si Si3 0.773005 0.292147 0.801343
Si Si4 0.176566 0.297676 0.622239
Si Si5 0.406295 0.696970 0.290360
Si Si6 0.275782 0.714142 0.554903
Si Si7 0.066222 0.292544 0.317315
O O1 0.922651 0.720252 0.840943
O O2 0.829809 0.725104 0.910923
O O3 0.940599 0.786464 0.927586
O O4 0.879943 0.000000 0.878154
O O5 0.000000 0.500000 0.926678
O O6 0.000000 0.694534 0.000000
O O7 0.778080 0.500000 0.808742
O O8 0.750000 0.250000 0.750000
O O9 0.727093 0.213694 0.837954
O O10 0.836543 0.205610 0.800229
O O11 0.163372 0.500000 0.611616
O O12 0.212633 0.227009 0.576848
O O13 0.117838 0.221931 0.647879
O O14 0.429123 0.500000 0.287450
O O15 0.418772 0.772640 0.238575
O O16 0.283488 0.764966 0.500000
O O17 0.276528 0.500000 0.556214
O O18 0.064592 0.500000 0.325385
O O19 0.000000 0.222515 0.325530
#
# Coordination Sequence:
#
# PCOD9520298 Si02
#       7
#    16   8  16  16  16  16  16
#     4  10  21  37  57  80 108 143 188 235 279 333
#     4  11  25  41  55  75 107 149 195 239 282 329
#     4  12  22  33  53  81 112 145 178 219 269 326
#     4  10  19  35  56  80 112 145 185 235 280 334
#     4  11  22  36  55  81 110 143 183 228 274 327
#     4   9  17  32  57  85 108 136 180 233 286 336
#     4  10  22  37  54  78 111 154 193 228 277 335
#
# _framework density 21.133282999999999
#
# number of rings (size 3 to 8) (size 9 to 14) (size 15 to 20)
#    0.000    1.615    3.077    2.538    1.077    2.769 
#    0.000    0.000    0.000    0.923    0.000    3.231 
#    0.000    0.000    0.000    2.769    0.000    3.077 
#
# Total GULP energy -289762.664540 kJ/mol
# GULP energy per Si atom -5572.358933 kJ/mol
# Density = 2.108518 g / cm^3
# Si number density = 21.133283 Si / 1000 Ang^3
#
#
#
# Elastic Constant Matrix: (Units=GPa)
#
#
# Indices 1 2 3 4 5 6 
#
# 1 147.0507 8.0119 40.8658 0.0000 0.0000 0.0000
# 2 8.0119 55.6377 8.8217 0.0000 0.0000 0.0000
# 3 40.8658 8.8217 90.8361 0.0000 0.0000 0.0000
# 4 0.0000 0.0000 0.0000 17.6333 0.0000 0.0000
# 5 0.0000 0.0000 0.0000 0.0000 26.3040 0.0000
# 6 0.0000 0.0000 0.0000 0.0000 0.0000 6.5761
#
#
#
# Elastic Compliance Matrix: (Units=1/GPa)
#
#
# Indices 1 2 3 4 5 6 
#
# 1 0.007790 -0.000575 -0.003449 0.000000 0.000000 0.000000
# 2 -0.000575 0.018297 -0.001518 0.000000 0.000000 0.000000
# 3 -0.003449 -0.001518 0.012708 0.000000 0.000000 0.000000
# 4 0.000000 0.000000 0.000000 0.056711 0.000000 0.000000
# 5 0.000000 0.000000 0.000000 0.000000 0.038017 0.000000
# 6 0.000000 0.000000 0.000000 0.000000 0.000000 0.152065
#
#
# Mechanical properties :
#
#
# Convention : Reuss Voigt Hill
#
# Bulk Modulus (GPa) = 36.08696 45.43592 40.76144
# Shear Modulus (GPa) = 16.34474 25.82437 21.08456
#
# Velocity S-wave (km/s) = 2.78405 3.49947 3.16206
# Velocity P-wave (km/s) = 5.23904 6.15425 5.71499
#
# Compressibility (1/GPa) = 0.02771084
#
# Stress axis : x y z
#
# Youngs Moduli (GPa) = 128.36738 54.65392 78.69138
#
# Poissons Ratio (x) = 0.03142 0.27139
# Poissons Ratio (y) = 0.07381 0.11947
# Poissons Ratio (z) = 0.44272 0.08298
#
# Static dielectric constant tensor:
#      x y z
#    x 1.773580 0.000000 0.000000 
#    y 0.000000 1.834190 0.000000 
#    z 0.000000 0.000000 1.677230 
# 
# From -- ./inp_files/61947.got.cif
#   From: 2010.05.17/outbox.cif.g08.bks.cpg/sg71_31_cif.got.tgz:61947.got - 2010.06.03 16:22:01.
