data_PCOD9520354
_publ_section_title
;
Structure prediction by ZEFSAII (Michael W. Deem and Ramdas Pophale) SiO2 
 PCOD9520354
Probable space group: I M M M
;
_chemical_formula_sum "Si O2"
_cell_formula_units_Z 88
_cell_length_a 22.283940
_cell_length_b 16.800348
_cell_length_c 12.845766
_cell_angle_alpha 90.000000
_cell_angle_beta 90.000000
_cell_angle_gamma 90.000000
_cell_volume 4809.171500
_symmetry_space_group_name_H-M "I M M M"
_symmetry_group_IT_number 71
_symmetry_cell_setting 'orthorhombic'
loop_
_space_group_symop_operation_xyz
x,y,z
-x,-y,z
x,-y,-z
-x,y,-z
-x,-y,-z
x,y,-z
-x,y,z
x,-y,z
1/2+x,1/2+y,1/2+z
1/2-x,1/2-y,1/2+z
1/2+x,1/2-y,1/2-z
1/2-x,1/2+y,1/2-z
1/2-x,1/2-y,1/2-z
1/2+x,1/2+y,1/2-z
1/2-x,1/2+y,1/2+z
1/2+x,1/2-y,1/2+z
loop_
_atom_site_type_symbol
_atom_site_label
_atom_site_fract_x
_atom_site_fract_y
_atom_site_fract_z
Si Si1 0.427526 0.594550 0.731403
Si Si2 0.691270 0.000000 0.380153
Si Si3 0.067171 0.500000 0.216696
Si Si4 0.067640 0.903934 0.000000
Si Si5 0.067732 0.360853 0.615535
Si Si6 0.155407 0.771167 0.690471
Si Si7 0.786009 0.677970 0.877411
O O1 0.500000 0.608087 0.739589
O O2 0.418331 0.500000 0.748983
O O3 0.407039 0.615188 0.612699
O O4 0.386830 0.651418 0.800446
O O5 0.619562 0.000000 0.366657
O O6 0.712203 0.085753 0.338065
O O7 0.709992 0.000000 0.500000
O O8 0.073871 0.575104 0.293338
O O9 0.000000 0.500000 0.172639
O O10 0.000000 0.871340 0.000000
O O11 0.063428 0.000000 0.000000
O O12 0.072505 0.397217 0.500000
O O13 0.117353 0.294305 0.629651
O O14 0.000000 0.327024 0.624177
O O15 0.172523 0.731840 0.802652
O O16 0.218194 0.791712 0.636509
O O17 0.803464 0.680371 0.000000
#
# Coordination Sequence:
#
# PCOD9520354 Si02
#       7
#    16   8   8   8  16  16  16
#     4   9  18  32  52  80 112 143 174 213 267 327
#     4  10  20  40  61  78 111 149 184 225 270 327
#     4  10  19  35  58  85 113 143 182 218 274 337
#     4   7  12  26  46  70 102 137 167 199 249 313
#     4  10  20  35  57  84 113 142 176 224 279 331
#     4  11  21  35  59  80 108 142 183 234 268 320
#     4  10  23  39  56  79 106 145 188 227 272 321
#
# _framework density 18.298369999999998
#
# number of rings (size 3 to 8) (size 9 to 14) (size 15 to 20)
#    0.000    2.273    1.818    2.455    2.545    1.273 
#    0.000    0.000    0.000    0.000    0.000    3.818 
#    0.000    0.000    0.000    0.000    0.000    0.000 
#
# Total GULP energy -245017.432965 kJ/mol
# GULP energy per Si atom -5568.578022 kJ/mol
# Density = 1.825672 g / cm^3
# Si number density = 18.298370 Si / 1000 Ang^3
#
#
#
# Elastic Constant Matrix: (Units=GPa)
#
#
# Indices 1 2 3 4 5 6 
#
# 1 68.5388 40.3143 -0.7109 0.0000 0.0000 0.0000
# 2 40.3143 82.3297 1.6979 0.0000 0.0000 0.0000
# 3 -0.7109 1.6979 28.4563 0.0000 0.0000 0.0000
# 4 0.0000 0.0000 0.0000 -9.3975 0.0000 0.0000
# 5 0.0000 0.0000 0.0000 0.0000 15.2518 0.0000
# 6 0.0000 0.0000 0.0000 0.0000 0.0000 28.9129
#
#
#
# Elastic Compliance Matrix: (Units=1/GPa)
#
#
# Indices 1 2 3 4 5 6 
#
# 1 0.020528 -0.010075 0.001114 0.000000 0.000000 0.000000
# 2 -0.010075 0.017106 -0.001272 0.000000 0.000000 0.000000
# 3 0.001114 -0.001272 0.035245 0.000000 0.000000 0.000000
# 4 0.000000 0.000000 0.000000 -0.106412 0.000000 0.000000
# 5 0.000000 0.000000 0.000000 0.000000 0.065566 0.000000
# 6 0.000000 0.000000 0.000000 0.000000 0.000000 0.034587
#
#
# Mechanical properties :
#
#
# Convention : Reuss Voigt Hill
#
# Bulk Modulus (GPa) = 19.07936 29.10304 24.09120
# Shear Modulus (GPa) = 47.82078 16.15502 31.98790
#
# Velocity S-wave (km/s) = 5.11768 2.97453 4.18560
# Velocity P-wave (km/s) = 6.73575 5.26653 6.04593
#
# Compressibility (1/GPa) = 0.05241267
#
# Stress axis : x y z
#
# Youngs Moduli (GPa) = 48.71449 58.45962 28.37251
#
# Poissons Ratio (x) = 0.58897 -0.03161
# Poissons Ratio (y) = 0.49079 0.03610
# Poissons Ratio (z) = -0.05426 0.07438
#
# Static dielectric constant tensor:
#      x y z
#    x 1.607670 0.000000 0.000000 
#    y 0.000000 1.628210 0.000000 
#    z 0.000000 0.000000 1.643150 
# 
# From -- ./inp_files/25703.got.cif
#   From: 2010.05.17/outbox.cif.g08.bks.cpg/sg71_13_cif.got.tgz:25703.got - 2010.06.03 16:22:01.
