data_PCOD9520696
_publ_section_title
;
Structure prediction by ZEFSAII (Michael W. Deem and Ramdas Pophale) SiO2 
 PCOD9520696
Probable space group: I M M M
;
_chemical_formula_sum "Si O2"
_cell_formula_units_Z 104
_cell_length_a 22.535657
_cell_length_b 23.027839
_cell_length_c 9.744630
_cell_angle_alpha 90.000000
_cell_angle_beta 90.000000
_cell_angle_gamma 90.000000
_cell_volume 5056.951193
_symmetry_space_group_name_H-M "I M M M"
_symmetry_group_IT_number 71
_symmetry_cell_setting 'orthorhombic'
loop_
_space_group_symop_operation_xyz
x,y,z
-x,-y,z
x,-y,-z
-x,y,-z
-x,-y,-z
x,y,-z
-x,y,z
x,-y,z
1/2+x,1/2+y,1/2+z
1/2-x,1/2-y,1/2+z
1/2+x,1/2-y,1/2-z
1/2-x,1/2+y,1/2-z
1/2-x,1/2-y,1/2-z
1/2+x,1/2+y,1/2-z
1/2-x,1/2+y,1/2+z
1/2+x,1/2-y,1/2+z
loop_
_atom_site_type_symbol
_atom_site_label
_atom_site_fract_x
_atom_site_fract_y
_atom_site_fract_z
Si Si1 0.250269 0.192276 0.845087
Si Si2 0.133264 0.935107 0.660605
Si Si3 0.889765 0.834187 0.845649
Si Si4 0.572499 0.102707 0.847910
Si Si5 0.927238 0.500000 0.845444
Si Si6 0.570820 0.764726 0.849140
Si Si7 0.245169 0.435334 0.335237
O O1 0.250000 0.250000 0.750000
O O2 0.181189 0.174095 0.851399
O O3 0.280825 0.129778 0.805688
O O4 0.270118 0.207650 0.000000
O O5 0.140181 0.919601 0.500000
O O6 0.096810 0.887675 0.745217
O O7 0.196815 0.937607 0.737912
O O8 0.107719 0.000000 0.667938
O O9 0.912024 0.776359 0.773552
O O10 0.911848 0.842602 0.000000
O O11 0.500000 0.101514 0.849665
O O12 0.591720 0.057380 0.734816
O O13 0.589992 0.169108 0.826175
O O14 0.592705 0.084253 0.000000
O O15 0.000000 0.500000 0.847089
O O16 0.905805 0.500000 0.000000
O O17 0.500000 0.765656 0.856434
O O18 0.592925 0.745231 0.000000
O O19 0.259345 0.433181 0.500000
O O20 0.216295 0.500000 0.315546
#
# Coordination Sequence:
#
# PCOD9520696 Si02
#       7
#    16  16  16  16   8  16  16
#     4   9  18  30  45  69  97 125 156 191 232 277
#     4   9  16  26  43  67  92 118 151 191 231 272
#     4  10  20  32  47  69  96 126 157 190 234 282
#     4   8  14  25  40  58  82 111 141 177 222 268
#     4   9  15  21  33  57  85 109 137 177 223 267
#     4   9  18  32  49  69  92 120 156 195 234 278
#     4   8  14  26  43  64  92 122 152 189 233 278
#
# _framework density 20.565750000000001
#
# number of rings (size 3 to 8) (size 9 to 14) (size 15 to 20)
#    0.000    3.154    0.000    3.000    0.000    5.846 
#    0.000    1.538    0.000    0.462    2.000    3.231 
#    0.000    0.000    0.000    0.000    0.000    0.000 
#
# Total GULP energy -289586.425118 kJ/mol
# GULP energy per Si atom -5568.969714 kJ/mol
# Density = 2.051894 g / cm^3
# Si number density = 20.565750 Si / 1000 Ang^3
#
#
#
# Elastic Constant Matrix: (Units=GPa)
#
#
# Indices 1 2 3 4 5 6 
#
# 1 25.9579 13.3913 8.5526 0.0000 0.0000 0.0000
# 2 13.3913 164.7334 105.8272 0.0000 0.0000 0.0000
# 3 8.5526 105.8272 161.5723 0.0000 0.0000 0.0000
# 4 0.0000 0.0000 0.0000 33.9591 0.0000 0.0000
# 5 0.0000 0.0000 0.0000 0.0000 11.7976 0.0000
# 6 0.0000 0.0000 0.0000 0.0000 0.0000 21.2502
#
#
#
# Elastic Compliance Matrix: (Units=1/GPa)
#
#
# Indices 1 2 3 4 5 6 
#
# 1 0.040210 -0.003283 0.000022 0.000000 0.000000 0.000000
# 2 -0.003283 0.010748 -0.006866 0.000000 0.000000 0.000000
# 3 0.000022 -0.006866 0.010685 0.000000 0.000000 0.000000
# 4 0.000000 0.000000 0.000000 0.029447 0.000000 0.000000
# 5 0.000000 0.000000 0.000000 0.000000 0.084763 0.000000
# 6 0.000000 0.000000 0.000000 0.000000 0.000000 0.047058
#
#
# Mechanical properties :
#
#
# Convention : Reuss Voigt Hill
#
# Bulk Modulus (GPa) = 24.16077 67.53398 45.84738
# Shear Modulus (GPa) = 19.45806 28.36754 23.91280
#
# Velocity S-wave (km/s) = 3.07927 3.71800 3.41361
# Velocity P-wave (km/s) = 4.94127 7.16525 6.15455
#
# Compressibility (1/GPa) = 0.04138941
#
# Stress axis : x y z
#
# Youngs Moduli (GPa) = 24.86927 93.03946 93.58729
#
# Poissons Ratio (x) = 0.30541 -0.00201
# Poissons Ratio (y) = 0.08163 0.64258
# Poissons Ratio (z) = -0.00054 0.63882
#
# Static dielectric constant tensor:
#      x y z
#    x 1.840070 0.000000 0.000000 
#    y 0.000000 1.777450 0.000000 
#    z 0.000000 0.000000 1.713080 
# 
# From -- ./inp_files/17247.got.cif
#   From: 2010.05.17/outbox.cif.g08.bks.cpg/sg71_9_cif.got.tgz:17247.got - 2010.06.03 16:22:01.
