data_PCOD9520864
_publ_section_title
;
Structure prediction by ZEFSAII (Michael W. Deem and Ramdas Pophale) SiO2 
 PCOD9520864
Probable space group: I M M M
;
_chemical_formula_sum "Si O2"
_cell_formula_units_Z 112
_cell_length_a 15.592415
_cell_length_b 14.331969
_cell_length_c 29.356894
_cell_angle_alpha 90.000000
_cell_angle_beta 90.000000
_cell_angle_gamma 90.000000
_cell_volume 6560.385349
_symmetry_space_group_name_H-M "I M M M"
_symmetry_group_IT_number 71
_symmetry_cell_setting 'orthorhombic'
loop_
_space_group_symop_operation_xyz
x,y,z
-x,-y,z
x,-y,-z
-x,y,-z
-x,-y,-z
x,y,-z
-x,y,z
x,-y,z
1/2+x,1/2+y,1/2+z
1/2-x,1/2-y,1/2+z
1/2+x,1/2-y,1/2-z
1/2-x,1/2+y,1/2-z
1/2-x,1/2-y,1/2-z
1/2+x,1/2+y,1/2-z
1/2-x,1/2+y,1/2+z
1/2+x,1/2-y,1/2+z
loop_
_atom_site_type_symbol
_atom_site_label
_atom_site_fract_x
_atom_site_fract_y
_atom_site_fract_z
Si Si1 0.846344 0.217581 0.240621
Si Si2 0.602220 0.612718 0.549374
Si Si3 0.733477 0.889535 0.378232
Si Si4 0.405723 0.103955 0.298642
Si Si5 0.594066 0.886915 0.553484
Si Si6 0.597454 0.612843 0.830700
Si Si7 0.896987 0.888535 0.150288
O O1 0.750000 0.250000 0.250000
O O2 0.899373 0.313187 0.236857
O O3 0.880875 0.152995 0.280945
O O4 0.855138 0.165489 0.192227
O O5 0.636350 0.646590 0.500000
O O6 0.500000 0.631143 0.549027
O O7 0.611219 0.500000 0.549302
O O8 0.633075 0.642216 0.599653
O O9 0.669802 0.882838 0.334982
O O10 0.676399 0.851236 0.419493
O O11 0.826884 0.852741 0.364414
O O12 0.745978 0.000000 0.387435
O O13 0.500000 0.107576 0.321032
O O14 0.396011 0.000000 0.279011
O O15 0.600461 0.868264 0.500000
O O16 0.500000 0.852543 0.569153
O O17 0.592496 0.000000 0.559044
O O18 0.500000 0.637770 0.843673
O O19 0.602372 0.500000 0.828491
O O20 0.000000 0.873487 0.152962
O O21 0.882929 0.000000 0.154694
#
# Coordination Sequence:
#
# PCOD9520864 Si02
#       7
#    16  16  16  16  16  16  16
#     4  12  22  32  46  65  92 126 161 204 248 292
#     4   7  10  19  38  65  95 123 148 178 224 279
#     4   9  16  28  45  66  90 117 153 194 237 283
#     4  10  20  33  48  65  88 120 156 196 239 284
#     4   8  13  22  40  67  95 122 153 191 236 284
#     4  10  20  34  51  69  92 123 161 204 245 287
#     4   9  17  29  47  71  97 125 159 199 239 286
#
# _framework density 17.072168000000001
#
# number of rings (size 3 to 8) (size 9 to 14) (size 15 to 20)
#    0.000    2.714    1.429    3.857    0.000    3.429 
#    0.000    0.000    0.000    1.286    0.000    5.000 
#    0.000    0.000    0.000    0.000    0.000    0.143 
#
# Total GULP energy -311951.018130 kJ/mol
# GULP energy per Si atom -5570.553895 kJ/mol
# Density = 1.703331 g / cm^3
# Si number density = 17.072168 Si / 1000 Ang^3
#
#
#
# Elastic Constant Matrix: (Units=GPa)
#
#
# Indices 1 2 3 4 5 6 
#
# 1 125.9927 25.4557 58.2604 0.0000 0.0000 0.0000
# 2 25.4557 52.9555 26.2995 0.0000 0.0000 0.0000
# 3 58.2604 26.2995 111.5101 0.0000 0.0000 0.0000
# 4 0.0000 0.0000 0.0000 -1.4011 0.0000 0.0000
# 5 0.0000 0.0000 0.0000 0.0000 26.7159 0.0000
# 6 0.0000 0.0000 0.0000 0.0000 0.0000 6.2593
#
#
#
# Elastic Compliance Matrix: (Units=1/GPa)
#
#
# Indices 1 2 3 4 5 6 
#
# 1 0.010797 -0.002705 -0.005003 0.000000 0.000000 0.000000
# 2 -0.002705 0.022067 -0.003791 0.000000 0.000000 0.000000
# 3 -0.005003 -0.003791 0.012476 0.000000 0.000000 0.000000
# 4 0.000000 0.000000 0.000000 -0.713730 0.000000 0.000000
# 5 0.000000 0.000000 0.000000 0.000000 0.037431 0.000000
# 6 0.000000 0.000000 0.000000 0.000000 0.000000 0.159761
#
#
# Mechanical properties :
#
#
# Convention : Reuss Voigt Hill
#
# Bulk Modulus (GPa) = 44.76081 56.72104 50.74092
# Shear Modulus (GPa) = -11.34426 18.34434 3.50004
#
# Velocity S-wave (km/s) = -2.58056 3.28154 1.43339
# Velocity P-wave (km/s) = 4.17090 6.90322 5.70311
#
# Compressibility (1/GPa) = 0.02234097
#
# Stress axis : x y z
#
# Youngs Moduli (GPa) = 92.61808 45.31657 80.15519
#
# Poissons Ratio (x) = 0.12260 0.40102
# Poissons Ratio (y) = 0.25057 0.30386
# Poissons Ratio (z) = 0.46337 0.17179
#
# Static dielectric constant tensor:
#      x y z
#    x 1.587220 0.000000 0.000000 
#    y 0.000000 1.621840 0.000000 
#    z 0.000000 0.000000 1.604220 
# 
# From -- ./inp_files/70087.got.cif
#   From: 2010.05.17/outbox.cif.g08.bks.cpg/sg71_36_cif.got.tgz:70087.got - 2010.06.03 16:22:01.
