data_PCOD9520192
_publ_section_title
;
Structure prediction by ZEFSAII (Michael W. Deem and Ramdas Pophale) SiO2 
 PCOD9520192
Probable space group: I M M M
;
_chemical_formula_sum "Si O2"
_cell_formula_units_Z 104
_cell_length_a 22.886715
_cell_length_b 12.056821
_cell_length_c 23.578060
_cell_angle_alpha 90.000000
_cell_angle_beta 90.000000
_cell_angle_gamma 90.000000
_cell_volume 6506.154068
_symmetry_space_group_name_H-M "I M M M"
_symmetry_group_IT_number 71
_symmetry_cell_setting 'orthorhombic'
loop_
_space_group_symop_operation_xyz
x,y,z
-x,-y,z
x,-y,-z
-x,y,-z
-x,-y,-z
x,y,-z
-x,y,z
x,-y,z
1/2+x,1/2+y,1/2+z
1/2-x,1/2-y,1/2+z
1/2+x,1/2-y,1/2-z
1/2-x,1/2+y,1/2-z
1/2-x,1/2-y,1/2-z
1/2+x,1/2+y,1/2-z
1/2-x,1/2+y,1/2+z
1/2+x,1/2-y,1/2+z
loop_
_atom_site_type_symbol
_atom_site_label
_atom_site_fract_x
_atom_site_fract_y
_atom_site_fract_z
Si Si1 0.167209 0.253659 0.568711
Si Si2 0.066934 0.866798 0.636386
Si Si3 0.569270 0.367996 0.268137
Si Si4 0.319304 0.000000 0.934988
Si Si5 0.500000 0.630769 0.432153
Si Si6 0.179564 0.000000 0.934901
Si Si7 0.619880 0.711594 0.379876
Si Si8 0.788933 0.631451 0.067572
O O1 0.164312 0.253098 0.500000
O O2 0.114135 0.186542 0.595490
O O3 0.163599 0.381031 0.589714
O O4 0.229435 0.196896 0.583261
O O5 0.080090 0.840633 0.702390
O O6 0.000000 0.832058 0.624332
O O7 0.068908 0.000000 0.631386
O O8 0.500000 0.350294 0.278924
O O9 0.579829 0.500000 0.276215
O O10 0.607387 0.301289 0.313216
O O11 0.249121 0.000000 0.937157
O O12 0.341125 0.000000 0.000000
O O13 0.500000 0.500000 0.413189
O O14 0.500000 0.629999 0.500000
O O15 0.557264 0.692727 0.409538
O O16 0.157393 0.891994 0.902845
O O17 0.157015 0.000000 0.000000
O O18 0.656029 0.818763 0.398863
O O19 0.781515 0.500000 0.076501
O O20 0.798473 0.650325 0.000000
#
# Coordination Sequence:
#
# PCOD9520192 Si02
#       8
#    16  16  16   8   8   8  16  16
#     4  10  19  34  57  82 106 133 164 206 258 308
#     4   9  19  35  56  79 106 135 170 209 250 303
#     4   9  17  32  51  75 101 135 172 212 262 305
#     4   9  18  32  52  80 110 136 161 198 256 318
#     4  11  20  26  41  75 107 127 163 222 269 296
#     4  11  18  27  48  78 108 135 164 209 261 302
#     4  12  19  30  50  74 104 135 174 215 258 304
#     4  10  21  35  51  72 104 143 176 207 252 310
#
# _framework density 15.984866
#
# number of rings (size 3 to 8) (size 9 to 14) (size 15 to 20)
#    0.000    1.923    3.846    2.769    0.000    1.231 
#    0.000    2.308    1.692    2.769    0.000    0.000 
#    0.000    0.000    0.000    0.000    0.000    0.000 
#
# Total GULP energy -289914.285773 kJ/mol
# GULP energy per Si atom -5575.274726 kJ/mol
# Density = 1.594848 g / cm^3
# Si number density = 15.984866 Si / 1000 Ang^3
#
#
#
# Elastic Constant Matrix: (Units=GPa)
#
#
# Indices 1 2 3 4 5 6 
#
# 1 89.9269 41.4980 40.0322 0.0000 0.0000 0.0000
# 2 41.4980 75.4424 30.1802 0.0000 0.0000 0.0000
# 3 40.0322 30.1802 42.1673 0.0000 0.0000 0.0000
# 4 0.0000 0.0000 0.0000 21.2636 0.0000 0.0000
# 5 0.0000 0.0000 0.0000 0.0000 1.6794 0.0000
# 6 0.0000 0.0000 0.0000 0.0000 0.0000 20.3337
#
#
#
# Elastic Compliance Matrix: (Units=1/GPa)
#
#
# Indices 1 2 3 4 5 6 
#
# 1 0.020468 -0.004883 -0.015936 0.000000 0.000000 0.000000
# 2 -0.004883 0.019738 -0.009491 0.000000 0.000000 0.000000
# 3 -0.015936 -0.009491 0.045637 0.000000 0.000000 0.000000
# 4 0.000000 0.000000 0.000000 0.047029 0.000000 0.000000
# 5 0.000000 0.000000 0.000000 0.000000 0.595466 0.000000
# 6 0.000000 0.000000 0.000000 0.000000 0.000000 0.049179
#
#
# Mechanical properties :
#
#
# Convention : Reuss Voigt Hill
#
# Bulk Modulus (GPa) = 39.64788 47.88416 43.76602
# Shear Modulus (GPa) = 5.90635 15.04376 10.47505
#
# Velocity S-wave (km/s) = 1.92431 3.07110 2.56268
# Velocity P-wave (km/s) = 5.45844 6.52660 6.01627
#
# Compressibility (1/GPa) = 0.02522203
#
# Stress axis : x y z
#
# Youngs Moduli (GPa) = 48.85677 50.66346 21.91184
#
# Poissons Ratio (x) = 0.24741 0.34920
# Poissons Ratio (y) = 0.23859 0.20796
# Poissons Ratio (z) = 0.77860 0.48084
#
# Static dielectric constant tensor:
#      x y z
#    x 1.521580 0.000000 0.000000 
#    y 0.000000 1.537450 0.000000 
#    z 0.000000 0.000000 1.535580 
# 
# From -- ./inp_files/66054.got.cif
#   From: 2010.05.17/outbox.cif.g08.bks.cpg/sg71_34_cif.got.tgz:66054.got - 2010.06.03 16:22:01.
