data_PCOD9520646
_publ_section_title
;
Structure prediction by ZEFSAII (Michael W. Deem and Ramdas Pophale) SiO2 
 PCOD9520646
Probable space group: I M M M
;
_chemical_formula_sum "Si O2"
_cell_formula_units_Z 80
_cell_length_a 19.557680
_cell_length_b 8.504373
_cell_length_c 34.273099
_cell_angle_alpha 90.000000
_cell_angle_beta 90.000000
_cell_angle_gamma 90.000000
_cell_volume 5700.500806
_symmetry_space_group_name_H-M "I M M M"
_symmetry_group_IT_number 71
_symmetry_cell_setting 'orthorhombic'
loop_
_space_group_symop_operation_xyz
x,y,z
-x,-y,z
x,-y,-z
-x,y,-z
-x,-y,-z
x,y,-z
-x,y,z
x,-y,z
1/2+x,1/2+y,1/2+z
1/2-x,1/2-y,1/2+z
1/2+x,1/2-y,1/2-z
1/2-x,1/2+y,1/2-z
1/2-x,1/2-y,1/2-z
1/2+x,1/2+y,1/2-z
1/2-x,1/2+y,1/2+z
1/2+x,1/2-y,1/2+z
loop_
_atom_site_type_symbol
_atom_site_label
_atom_site_fract_x
_atom_site_fract_y
_atom_site_fract_z
Si Si1 0.270892 0.687588 0.190396
Si Si2 0.000000 0.186191 0.663974
Si Si3 0.642211 0.687137 0.266725
Si Si4 0.500000 0.816059 0.250233
Si Si5 0.920840 0.308491 0.456176
Si Si6 0.637288 0.811782 0.875878
O O1 0.263715 0.500000 0.192400
O O2 0.324755 0.734130 0.224705
O O3 0.199275 0.766028 0.201780
O O4 0.301851 0.737877 0.149156
O O5 0.932907 0.263070 0.645440
O O6 0.000000 0.218254 0.710043
O O7 0.000000 0.000000 0.656783
O O8 0.632305 0.500000 0.266333
O O9 0.569849 0.771037 0.271935
O O10 0.500000 0.000000 0.240758
O O11 0.902014 0.257646 0.500000
O O12 0.920927 0.500000 0.456033
O O13 0.872755 0.258107 0.420667
O O14 0.000000 0.260878 0.448858
O O15 0.643968 0.000000 0.875099
#
# Coordination Sequence:
#
# PCOD9520646 Si02
#       6
#    16   8  16   8  16  16
#     4  10  20  32  45  62  87 114 142 180 221 259
#     4  12  22  30  39  59  86 113 146 185 221 256
#     4  10  20  33  47  63  86 113 143 179 217 258
#     4  12  22  32  48  65  85 112 145 182 220 260
#     4   8  14  25  41  62  85 109 142 183 221 257
#     4  11  19  29  46  64  82 111 148 186 223 261
#
# _framework density 14.033855000000001
#
# number of rings (size 3 to 8) (size 9 to 14) (size 15 to 20)
#    0.000    1.800    3.000    4.200    0.000    1.600 
#    0.000    0.000    0.000    3.000    0.000    0.000 
#    0.000    0.000    0.000    0.900    0.000   18.600 
#
# Total GULP energy -223174.240862 kJ/mol
# GULP energy per Si atom -5579.356022 kJ/mol
# Density = 1.400191 g / cm^3
# Si number density = 14.033855 Si / 1000 Ang^3
#
#
#
# Elastic Constant Matrix: (Units=GPa)
#
#
# Indices 1 2 3 4 5 6 
#
# 1 75.2370 9.7253 31.4090 0.0000 0.0000 0.0000
# 2 9.7253 24.9426 -1.0118 0.0000 0.0000 0.0000
# 3 31.4090 -1.0118 84.3592 0.0000 0.0000 0.0000
# 4 0.0000 0.0000 0.0000 11.7795 0.0000 0.0000
# 5 0.0000 0.0000 0.0000 0.0000 22.4932 0.0000
# 6 0.0000 0.0000 0.0000 0.0000 0.0000 20.3520
#
#
#
# Elastic Compliance Matrix: (Units=1/GPa)
#
#
# Indices 1 2 3 4 5 6 
#
# 1 0.016821 -0.006816 -0.006345 0.000000 0.000000 0.000000
# 2 -0.006816 0.042874 0.003052 0.000000 0.000000 0.000000
# 3 -0.006345 0.003052 0.014253 0.000000 0.000000 0.000000
# 4 0.000000 0.000000 0.000000 0.084894 0.000000 0.000000
# 5 0.000000 0.000000 0.000000 0.000000 0.044458 0.000000
# 6 0.000000 0.000000 0.000000 0.000000 0.000000 0.049135
#
#
# Mechanical properties :
#
#
# Convention : Reuss Voigt Hill
#
# Bulk Modulus (GPa) = 18.61152 29.42043 24.01598
# Shear Modulus (GPa) = 17.20806 20.55269 18.88037
#
# Velocity S-wave (km/s) = 3.50549 3.83104 3.67187
# Velocity P-wave (km/s) = 5.44750 6.37013 5.92680
#
# Compressibility (1/GPa) = 0.05373015
#
# Stress axis : x y z
#
# Youngs Moduli (GPa) = 59.44924 23.32442 70.16093
#
# Poissons Ratio (x) = 0.15898 0.44515
# Poissons Ratio (y) = 0.40521 -0.21413
# Poissons Ratio (z) = 0.37718 -0.07119
#
# Static dielectric constant tensor:
#      x y z
#    x 1.447780 0.000000 0.000000 
#    y 0.000000 1.469270 0.000000 
#    z 0.000000 0.000000 1.470190 
# 
# From -- ./inp_files/49171.got.cif
#   From: 2010.05.17/outbox.cif.g08.bks.cpg/sg71_25_cif.got.tgz:49171.got - 2010.06.03 16:22:01.
