data_PCOD9520337
_publ_section_title
;
Structure prediction by ZEFSAII (Michael W. Deem and Ramdas Pophale) SiO2 
 PCOD9520337
Probable space group: I M M M
;
_chemical_formula_sum "Si O2"
_cell_formula_units_Z 96
_cell_length_a 23.178117
_cell_length_b 7.868650
_cell_length_c 25.078812
_cell_angle_alpha 90.000000
_cell_angle_beta 90.000000
_cell_angle_gamma 90.000000
_cell_volume 4573.886030
_symmetry_space_group_name_H-M "I M M M"
_symmetry_group_IT_number 71
_symmetry_cell_setting 'orthorhombic'
loop_
_space_group_symop_operation_xyz
x,y,z
-x,-y,z
x,-y,-z
-x,y,-z
-x,-y,-z
x,y,-z
-x,y,z
x,-y,z
1/2+x,1/2+y,1/2+z
1/2-x,1/2-y,1/2+z
1/2+x,1/2-y,1/2-z
1/2-x,1/2+y,1/2-z
1/2-x,1/2-y,1/2-z
1/2+x,1/2+y,1/2-z
1/2-x,1/2+y,1/2+z
1/2+x,1/2-y,1/2+z
loop_
_atom_site_type_symbol
_atom_site_label
_atom_site_fract_x
_atom_site_fract_y
_atom_site_fract_z
Si Si1 0.317922 0.807970 0.000000
Si Si2 0.703573 0.192555 0.813498
Si Si3 0.680923 0.307874 0.500000
Si Si4 0.500000 0.793417 0.765881
Si Si5 0.687738 0.297076 0.381850
Si Si6 0.624188 0.793319 0.720600
Si Si7 0.876866 0.811376 0.396799
Si Si8 0.500000 0.797528 0.109982
O O1 0.337721 0.712122 0.052109
O O2 0.249896 0.821830 0.000000
O O3 0.342409 0.000000 0.000000
O O4 0.754353 0.269917 0.850754
O O5 0.677100 0.268288 0.759080
O O6 0.647136 0.189052 0.851358
O O7 0.721917 0.000000 0.801357
O O8 0.655147 0.500000 0.500000
O O9 0.671160 0.229301 0.440862
O O10 0.560741 0.737243 0.740064
O O11 0.500000 0.744745 0.827883
O O12 0.500000 0.000000 0.763606
O O13 0.697863 0.500000 0.389803
O O14 0.638007 0.265600 0.338904
O O15 0.625431 0.000000 0.722962
O O16 0.941493 0.772168 0.413973
O O17 0.872729 0.000000 0.374570
O O18 0.500000 0.000000 0.106873
#
# Coordination Sequence:
#
# PCOD9520337 Si02
#       8
#     8  16   8   8  16  16  16   8
#     4  11  21  40  62  77 104 156 202 228 276 344
#     4  10  19  35  58  81 111 154 193 219 272 352
#     4   9  18  35  60  81 106 145 192 230 266 337
#     4   9  18  35  60  81 106 145 192 230 266 337
#     4  10  20  35  56  85 114 146 187 232 278 334
#     4  10  20  35  56  85 114 146 187 232 278 334
#     4  12  24  36  54  86 118 142 186 250 292 317
#     4  11  21  40  62  77 104 156 202 228 276 344
#
# _framework density 20.988716
#
# number of rings (size 3 to 8) (size 9 to 14) (size 15 to 20)
#    0.000    1.667    3.333    2.500    0.000    1.667 
#    0.000    2.500    0.000    0.500    0.000    3.500 
#    0.000    0.000    0.000    0.000    0.000    0.000 
#
# Total GULP energy -267760.376192 kJ/mol
# GULP energy per Si atom -5578.341171 kJ/mol
# Density = 2.094094 g / cm^3
# Si number density = 20.988716 Si / 1000 Ang^3
#
#
#
# Elastic Constant Matrix: (Units=GPa)
#
#
# Indices 1 2 3 4 5 6 
#
# 1 35.2900 6.4749 1.9453 0.0000 0.0000 0.0000
# 2 6.4749 48.7812 3.4842 0.0000 0.0000 0.0000
# 3 1.9453 3.4842 127.5623 0.0000 0.0000 0.0000
# 4 0.0000 0.0000 0.0000 14.8750 0.0000 0.0000
# 5 0.0000 0.0000 0.0000 0.0000 12.4846 0.0000
# 6 0.0000 0.0000 0.0000 0.0000 0.0000 13.6216
#
#
#
# Elastic Compliance Matrix: (Units=1/GPa)
#
#
# Indices 1 2 3 4 5 6 
#
# 1 0.029059 -0.003833 -0.000338 0.000000 0.000000 0.000000
# 2 -0.003833 0.021045 -0.000516 0.000000 0.000000 0.000000
# 3 -0.000338 -0.000516 0.007859 0.000000 0.000000 0.000000
# 4 0.000000 0.000000 0.000000 0.067227 0.000000 0.000000
# 5 0.000000 0.000000 0.000000 0.000000 0.080099 0.000000
# 6 0.000000 0.000000 0.000000 0.000000 0.000000 0.073413
#
#
# Mechanical properties :
#
#
# Convention : Reuss Voigt Hill
#
# Bulk Modulus (GPa) = 20.58163 26.16027 23.37095
# Shear Modulus (GPa) = 16.43266 21.51150 18.97208
#
# Velocity S-wave (km/s) = 2.80112 3.20489 3.00978
# Velocity P-wave (km/s) = 4.50434 5.11724 4.82054
#
# Compressibility (1/GPa) = 0.04858702
#
# Stress axis : x y z
#
# Youngs Moduli (GPa) = 34.41325 47.51650 127.24955
#
# Poissons Ratio (x) = 0.18213 0.04307
# Poissons Ratio (y) = 0.13190 0.06571
# Poissons Ratio (z) = 0.01165 0.02454
#
# Static dielectric constant tensor:
#      x y z
#    x 1.749800 0.000000 0.000000 
#    y 0.000000 1.779050 0.000000 
#    z 0.000000 0.000000 1.783300 
# 
# From -- ./inp_files/61604.got.cif
#   From: 2010.05.17/outbox.cif.g08.bks.cpg/sg71_31_cif.got.tgz:61604.got - 2010.06.03 16:22:01.
