data_PCOD9520488
_publ_section_title
;
Structure prediction by ZEFSAII (Michael W. Deem and Ramdas Pophale) SiO2 
 PCOD9520488
Probable space group: I M M M
;
_chemical_formula_sum "Si O2"
_cell_formula_units_Z 56
_cell_length_a 15.798055
_cell_length_b 8.075244
_cell_length_c 19.709482
_cell_angle_alpha 90.000000
_cell_angle_beta 90.000000
_cell_angle_gamma 90.000000
_cell_volume 2514.400681
_symmetry_space_group_name_H-M "I M M M"
_symmetry_group_IT_number 71
_symmetry_cell_setting 'orthorhombic'
loop_
_space_group_symop_operation_xyz
x,y,z
-x,-y,z
x,-y,-z
-x,y,-z
-x,-y,-z
x,y,-z
-x,y,z
x,-y,z
1/2+x,1/2+y,1/2+z
1/2-x,1/2-y,1/2+z
1/2+x,1/2-y,1/2-z
1/2-x,1/2+y,1/2-z
1/2-x,1/2-y,1/2-z
1/2+x,1/2+y,1/2-z
1/2-x,1/2+y,1/2+z
1/2+x,1/2-y,1/2+z
loop_
_atom_site_type_symbol
_atom_site_label
_atom_site_fract_x
_atom_site_fract_y
_atom_site_fract_z
Si Si1 0.500000 0.308720 0.239295
Si Si2 0.342722 0.799073 0.852176
Si Si3 0.000000 0.687947 0.112699
Si Si4 0.815222 0.197136 0.923659
Si Si5 0.099129 0.303354 0.500000
O O1 0.500000 0.500000 0.260613
O O2 0.413495 0.274208 0.197440
O O3 0.500000 0.198476 0.306092
O O4 0.243331 0.748823 0.859179
O O5 0.369459 0.743879 0.927873
O O6 0.348885 0.000000 0.844751
O O7 0.913356 0.769231 0.088092
O O8 0.000000 0.500000 0.088986
O O9 0.802158 0.000000 0.926519
O O10 0.793163 0.261465 0.000000
O O11 0.117609 0.500000 0.500000
O O12 0.000000 0.280099 0.500000
#
# Coordination Sequence:
#
# PCOD9520488 Si02
#       5
#     8  16   8  16   8
#     4  12  26  42  60  88 127 168 208 253 304 364
#     4  10  19  36  64  95 125 160 201 245 301 369
#     4  12  27  45  63  84 120 169 213 257 308 363
#     4  10  21  40  69  99 124 156 202 254 306 363
#     4   9  14  26  56  91 122 155 195 238 286 358
#
# _framework density 22.271708
#
# number of rings (size 3 to 8) (size 9 to 14) (size 15 to 20)
#    0.000    1.571    2.857    3.000    0.000    4.571 
#    0.000    1.429    0.000    0.000    0.000    0.000 
#    0.000    0.000    0.000    0.000    0.000    0.000 
#
# Total GULP energy -156110.923645 kJ/mol
# GULP energy per Si atom -5575.390130 kJ/mol
# Density = 2.222102 g / cm^3
# Si number density = 22.271708 Si / 1000 Ang^3
#
#
#
# Elastic Constant Matrix: (Units=GPa)
#
#
# Indices 1 2 3 4 5 6 
#
# 1 145.4673 11.9610 12.1697 0.0000 0.0000 0.0000
# 2 11.9610 39.1215 -5.2819 0.0000 0.0000 0.0000
# 3 12.1697 -5.2819 64.3456 0.0000 0.0000 0.0000
# 4 0.0000 0.0000 0.0000 13.1616 0.0000 0.0000
# 5 0.0000 0.0000 0.0000 0.0000 20.5591 0.0000
# 6 0.0000 0.0000 0.0000 0.0000 0.0000 9.0161
#
#
#
# Elastic Compliance Matrix: (Units=1/GPa)
#
#
# Indices 1 2 3 4 5 6 
#
# 1 0.007203 -0.002413 -0.001560 0.000000 0.000000 0.000000
# 2 -0.002413 0.026656 0.002645 0.000000 0.000000 0.000000
# 3 -0.001560 0.002645 0.016053 0.000000 0.000000 0.000000
# 4 0.000000 0.000000 0.000000 0.075978 0.000000 0.000000
# 5 0.000000 0.000000 0.000000 0.000000 0.048640 0.000000
# 6 0.000000 0.000000 0.000000 0.000000 0.000000 0.110913
#
#
# Mechanical properties :
#
#
# Convention : Reuss Voigt Hill
#
# Bulk Modulus (GPa) = 21.16183 31.84799 26.50491
# Shear Modulus (GPa) = 16.45529 23.88641 20.17085
#
# Velocity S-wave (km/s) = 2.72111 3.27846 3.01270
# Velocity P-wave (km/s) = 4.40397 5.35368 4.90187
#
# Compressibility (1/GPa) = 0.04725488
#
# Stress axis : x y z
#
# Youngs Moduli (GPa) = 138.82418 37.51470 62.29255
#
# Poissons Ratio (x) = 0.09052 0.09720
# Poissons Ratio (y) = 0.33499 -0.16473
# Poissons Ratio (z) = 0.21663 -0.09921
#
# Static dielectric constant tensor:
#      x y z
#    x 1.926940 0.000000 0.000000 
#    y 0.000000 1.790490 0.000000 
#    z 0.000000 0.000000 1.827760 
# 
# From -- ./inp_files/52603.got.cif
#   From: 2010.05.17/outbox.cif.g08.bks.cpg/sg71_27_cif.got.tgz:52603.got - 2010.06.03 16:22:01.
