data_PCOD9520468
_publ_section_title
;
Structure prediction by ZEFSAII (Michael W. Deem and Ramdas Pophale) SiO2 
 PCOD9520468
Probable space group: I M M M
;
_chemical_formula_sum "Si O2"
_cell_formula_units_Z 60
_cell_length_a 11.217127
_cell_length_b 15.688752
_cell_length_c 17.755385
_cell_angle_alpha 90.000000
_cell_angle_beta 90.000000
_cell_angle_gamma 90.000000
_cell_volume 3124.641012
_symmetry_space_group_name_H-M "I M M M"
_symmetry_group_IT_number 71
_symmetry_cell_setting 'orthorhombic'
loop_
_space_group_symop_operation_xyz
x,y,z
-x,-y,z
x,-y,-z
-x,y,-z
-x,-y,-z
x,y,-z
-x,y,z
x,-y,z
1/2+x,1/2+y,1/2+z
1/2-x,1/2-y,1/2+z
1/2+x,1/2-y,1/2-z
1/2-x,1/2+y,1/2-z
1/2-x,1/2-y,1/2-z
1/2+x,1/2+y,1/2-z
1/2-x,1/2+y,1/2+z
1/2+x,1/2-y,1/2+z
loop_
_atom_site_type_symbol
_atom_site_label
_atom_site_fract_x
_atom_site_fract_y
_atom_site_fract_z
Si Si1 0.232122 0.328611 0.588200
Si Si2 0.000000 0.852153 0.085855
Si Si3 0.000000 0.000000 0.207806
Si Si4 0.732762 0.500000 0.186919
Si Si5 0.138375 0.147740 0.410226
Si Si6 0.139196 0.500000 0.665621
O O1 0.204988 0.344301 0.500000
O O2 0.372848 0.306259 0.593316
O O3 0.159821 0.245496 0.613263
O O4 0.200359 0.414726 0.632229
O O5 0.000000 0.920753 0.151562
O O6 0.000000 0.888804 0.000000
O O7 0.116618 0.000000 0.259036
O O8 0.720817 0.416957 0.135033
O O9 0.841512 0.500000 0.244670
O O10 0.160755 0.142419 0.500000
O O11 0.000000 0.124342 0.397516
O O12 0.000000 0.500000 0.645516
#
# Coordination Sequence:
#
# PCOD9520468 Si02
#       6
#    16   8   4   8  16   8
#     4  10  21  38  62  88 118 153 194 237 285 345
#     4  10  19  36  60  88 119 155 193 232 281 350
#     4  12  19  36  59  88 112 152 192 238 293 340
#     4  12  23  39  60  85 118 154 194 243 292 344
#     4  10  21  39  63  89 114 150 196 242 287 341
#     4  12  25  40  56  87 121 154 189 237 299 350
#
# _framework density 19.202206
#
# number of rings (size 3 to 8) (size 9 to 14) (size 15 to 20)
#    0.000    1.333    4.000    1.800    0.000    6.400 
#    2.400    0.000    0.000    0.800    0.000    0.000 
#    0.000    0.000    0.000    0.000    0.000    0.000 
#
# Total GULP energy -167451.800641 kJ/mol
# GULP energy per Si atom -5581.726688 kJ/mol
# Density = 1.915850 g / cm^3
# Si number density = 19.202206 Si / 1000 Ang^3
#
#
#
# Elastic Constant Matrix: (Units=GPa)
#
#
# Indices 1 2 3 4 5 6 
#
# 1 66.3217 7.5725 9.7897 0.0000 0.0000 0.0000
# 2 7.5725 109.0202 46.8992 0.0000 0.0000 0.0000
# 3 9.7897 46.8992 57.1928 0.0000 0.0000 0.0000
# 4 0.0000 0.0000 0.0000 17.2242 0.0000 0.0000
# 5 0.0000 0.0000 0.0000 0.0000 26.6444 0.0000
# 6 0.0000 0.0000 0.0000 0.0000 0.0000 -0.6419
#
#
#
# Elastic Compliance Matrix: (Units=1/GPa)
#
#
# Indices 1 2 3 4 5 6 
#
# 1 0.015470 0.000100 -0.002730 0.000000 0.000000 0.000000
# 2 0.000100 0.014173 -0.011639 0.000000 0.000000 0.000000
# 3 -0.002730 -0.011639 0.027496 0.000000 0.000000 0.000000
# 4 0.000000 0.000000 0.000000 0.058058 0.000000 0.000001
# 5 0.000000 0.000000 0.000000 0.000000 0.037531 0.000000
# 6 0.000000 0.000000 0.000000 0.000001 0.000000 -1.557889
#
#
# Mechanical properties :
#
#
# Convention : Reuss Voigt Hill
#
# Bulk Modulus (GPa) = 34.96435 40.11747 37.54091
# Shear Modulus (GPa) = -3.65740 19.86356 8.10308
#
# Velocity S-wave (km/s) = -1.38160 3.21976 2.05646
# Velocity P-wave (km/s) = 3.96269 5.89576 5.02309
#
# Compressibility (1/GPa) = 0.02860056
#
# Stress axis : x y z
#
# Youngs Moduli (GPa) = 64.64311 70.55877 36.36881
#
# Poissons Ratio (x) = -0.00704 0.09928
# Poissons Ratio (y) = -0.00645 0.42329
# Poissons Ratio (z) = 0.17646 0.82122
#
# Static dielectric constant tensor:
#      x y z
#    x 1.672440 0.000000 0.000000 
#    y 0.000000 1.646290 0.000000 
#    z 0.000000 0.000000 1.660560 
# 
# From -- ./inp_files/42887.got.cif
#   From: 2010.05.17/outbox.cif.g08.bks.cpg/sg71_22_cif.got.tgz:42887.got - 2010.06.03 16:22:01.
