data_PCOD9520174
_publ_section_title
;
Structure prediction by ZEFSAII (Michael W. Deem and Ramdas Pophale) SiO2 
 PCOD9520174
Probable space group: I M M M
;
_chemical_formula_sum "Si O2"
_cell_formula_units_Z 88
_cell_length_a 9.292554
_cell_length_b 19.567764
_cell_length_c 27.897141
_cell_angle_alpha 90.000000
_cell_angle_beta 90.000000
_cell_angle_gamma 90.000000
_cell_volume 5072.662786
_symmetry_space_group_name_H-M "I M M M"
_symmetry_group_IT_number 71
_symmetry_cell_setting 'orthorhombic'
loop_
_space_group_symop_operation_xyz
x,y,z
-x,-y,z
x,-y,-z
-x,y,-z
-x,-y,-z
x,y,-z
-x,y,z
x,-y,z
1/2+x,1/2+y,1/2+z
1/2-x,1/2-y,1/2+z
1/2+x,1/2-y,1/2-z
1/2-x,1/2+y,1/2-z
1/2-x,1/2-y,1/2-z
1/2+x,1/2+y,1/2-z
1/2-x,1/2+y,1/2+z
1/2+x,1/2-y,1/2+z
loop_
_atom_site_type_symbol
_atom_site_label
_atom_site_fract_x
_atom_site_fract_y
_atom_site_fract_z
Si Si1 0.831262 0.825008 0.056264
Si Si2 0.169904 0.313164 0.809697
Si Si3 0.170518 0.579847 0.630720
Si Si4 0.672023 0.832867 0.419437
Si Si5 0.330155 0.346092 0.714410
Si Si6 0.171486 0.919070 0.500000
O O1 0.735953 0.873798 0.088750
O O2 0.797059 0.745428 0.065484
O O3 0.000000 0.834192 0.069275
O O4 0.814291 0.839420 0.000000
O O5 0.205531 0.338502 0.862986
O O6 0.263563 0.345437 0.767480
O O7 0.190706 0.230981 0.806460
O O8 0.000000 0.325461 0.800964
O O9 0.196094 0.500000 0.621163
O O10 0.248125 0.602769 0.679497
O O11 0.000000 0.591228 0.634899
O O12 0.500000 0.843125 0.425786
O O13 0.758031 0.883484 0.453598
O O14 0.500000 0.359647 0.715344
O O15 0.000000 0.908234 0.500000
O O16 0.199762 0.000000 0.500000
#
# Coordination Sequence:
#
# PCOD9520174 Si02
#       6
#    16  16  16  16  16   8
#     4  10  20  37  60  86 114 145 190 242 286 337
#     4   9  18  33  56  86 115 142 181 235 285 335
#     4  11  24  39  55  79 116 158 197 239 286 339
#     4  10  19  37  62  87 115 148 190 235 281 340
#     4  10  19  34  56  83 114 147 187 234 283 337
#     4  11  25  41  57  85 122 153 186 231 283 340
#
# _framework density 17.347892000000002
#
# number of rings (size 3 to 8) (size 9 to 14) (size 15 to 20)
#    0.000    1.909    2.727    1.364    0.000    5.091 
#    0.000    2.727    0.000    1.091    0.000    0.000 
#    0.000    0.000    0.000    0.000    0.000    0.000 
#
# Total GULP energy -245706.276815 kJ/mol
# GULP energy per Si atom -5584.233564 kJ/mol
# Density = 1.730841 g / cm^3
# Si number density = 17.347892 Si / 1000 Ang^3
#
#
#
# Elastic Constant Matrix: (Units=GPa)
#
#
# Indices 1 2 3 4 5 6 
#
# 1 93.6256 84.7577 82.2263 0.0000 0.0000 0.0000
# 2 84.7577 101.3862 75.9938 0.0000 0.0000 0.0000
# 3 82.2263 75.9938 134.8704 0.0000 0.0000 0.0000
# 4 0.0000 0.0000 0.0000 21.2077 0.0000 0.0000
# 5 0.0000 0.0000 0.0000 0.0000 36.8225 0.0000
# 6 0.0000 0.0000 0.0000 0.0000 0.0000 26.3702
#
#
#
# Elastic Compliance Matrix: (Units=1/GPa)
#
#
# Indices 1 2 3 4 5 6 
#
# 1 0.054697 -0.035888 -0.013126 0.000000 0.000000 0.000000
# 2 -0.035888 0.040621 -0.001009 0.000000 0.000000 0.000000
# 3 -0.013126 -0.001009 0.015985 0.000000 0.000000 0.000000
# 4 0.000000 0.000000 0.000000 0.047153 0.000000 0.000000
# 5 0.000000 0.000000 0.000000 0.000000 0.027157 0.000000
# 6 0.000000 0.000000 0.000000 0.000000 0.000000 0.037922
#
#
# Mechanical properties :
#
#
# Convention : Reuss Voigt Hill
#
# Bulk Modulus (GPa) = 88.81812 90.64865 89.73338
# Shear Modulus (GPa) = 15.27500 22.67370 18.97435
#
# Velocity S-wave (km/s) = 2.97056 3.61917 3.31079
# Velocity P-wave (km/s) = 7.94198 8.35652 8.15188
#
# Compressibility (1/GPa) = 0.01125896
#
# Stress axis : x y z
#
# Youngs Moduli (GPa) = 18.28252 24.61786 62.55740
#
# Poissons Ratio (x) = 0.88348 0.82112
# Poissons Ratio (y) = 0.65612 0.06310
# Poissons Ratio (z) = 0.23998 0.02483
#
# Static dielectric constant tensor:
#      x y z
#    x 1.572970 0.000000 0.000000 
#    y 0.000000 1.565070 0.000000 
#    z 0.000000 0.000000 1.580650 
# 
# From -- ./inp_files/68013.got.cif
#   From: 2010.05.17/outbox.cif.g08.bks.cpg/sg71_35_cif.got.tgz:68013.got - 2010.06.03 16:22:01.
