data_PCOD9520756
_publ_section_title
;
Structure prediction by ZEFSAII (Michael W. Deem and Ramdas Pophale) SiO2 
 PCOD9520756
Probable space group: I M M M
;
_chemical_formula_sum "Si O2"
_cell_formula_units_Z 104
_cell_length_a 8.863186
_cell_length_b 24.938206
_cell_length_c 29.034178
_cell_angle_alpha 90.000000
_cell_angle_beta 90.000000
_cell_angle_gamma 90.000000
_cell_volume 6417.481221
_symmetry_space_group_name_H-M "I M M M"
_symmetry_group_IT_number 71
_symmetry_cell_setting 'orthorhombic'
loop_
_space_group_symop_operation_xyz
x,y,z
-x,-y,z
x,-y,-z
-x,y,-z
-x,-y,-z
x,y,-z
-x,y,z
x,-y,z
1/2+x,1/2+y,1/2+z
1/2-x,1/2-y,1/2+z
1/2+x,1/2-y,1/2-z
1/2-x,1/2+y,1/2-z
1/2-x,1/2-y,1/2-z
1/2+x,1/2+y,1/2-z
1/2-x,1/2+y,1/2+z
1/2+x,1/2-y,1/2+z
loop_
_atom_site_type_symbol
_atom_site_label
_atom_site_fract_x
_atom_site_fract_y
_atom_site_fract_z
Si Si1 0.818125 0.356126 0.053854
Si Si2 0.673785 0.065046 0.278429
Si Si3 0.819567 0.563847 0.500000
Si Si4 0.683172 0.735576 0.553095
Si Si5 0.679807 0.437795 0.126015
Si Si6 0.681751 0.377584 0.411003
Si Si7 0.817451 0.436988 0.676084
O O1 0.768679 0.295445 0.066775
O O2 0.748681 0.400129 0.087081
O O3 0.000000 0.358394 0.057083
O O4 0.778867 0.364470 0.000000
O O5 0.500000 0.082166 0.284444
O O6 0.767680 0.080563 0.323171
O O7 0.727845 0.081578 0.227591
O O8 0.673895 0.000000 0.276741
O O9 0.792092 0.500000 0.500000
O O10 0.747561 0.590345 0.545306
O O11 0.000000 0.572369 0.500000
O O12 0.730282 0.726368 0.500000
O O13 0.500000 0.736423 0.552886
O O14 0.729122 0.684662 0.583070
O O15 0.500000 0.436595 0.123515
O O16 0.729549 0.500000 0.120147
O O17 0.500000 0.380467 0.412226
O O18 0.743802 0.403273 0.364399
O O19 0.777878 0.500000 0.670633
O O20 0.000000 0.433711 0.673791
#
# Coordination Sequence:
#
# PCOD9520756 Si02
#       7
#    16  16   8  16  16  16  16
#     4   9  18  33  54  74  94 127 167 200 230 278
#     4   8  15  30  51  70  91 126 168 200 229 280
#     4  11  23  35  45  63  97 135 166 201 246 293
#     4   8  15  31  51  69  91 121 161 206 245 279
#     4  10  20  32  48  74 107 133 151 187 244 290
#     4  11  20  31  50  72  95 125 162 206 250 295
#     4   9  18  32  48  69  99 130 160 200 247 290
#
# _framework density 16.205734
#
# number of rings (size 3 to 8) (size 9 to 14) (size 15 to 20)
#    0.000    2.692    0.769    3.462    0.000    4.923 
#    0.000    4.615    0.000    0.923    0.000    0.000 
#    0.000    0.000    0.000    0.000    0.000    0.000 
#
# Total GULP energy -289767.181548 kJ/mol
# GULP energy per Si atom -5572.445799 kJ/mol
# Density = 1.616885 g / cm^3
# Si number density = 16.205734 Si / 1000 Ang^3
#
#
#
# Elastic Constant Matrix: (Units=GPa)
#
#
# Indices 1 2 3 4 5 6 
#
# 1 31.3485 38.9125 47.9763 0.0000 0.0000 0.0000
# 2 38.9125 109.0495 90.9986 0.0000 0.0000 0.0000
# 3 47.9763 90.9986 144.3726 0.0000 0.0000 0.0000
# 4 0.0000 0.0000 0.0000 4.1736 0.0000 0.0000
# 5 0.0000 0.0000 0.0000 0.0000 23.5026 0.0000
# 6 0.0000 0.0000 0.0000 0.0000 0.0000 13.0183
#
#
#
# Elastic Compliance Matrix: (Units=1/GPa)
#
#
# Indices 1 2 3 4 5 6 
#
# 1 0.071682 -0.012027 -0.016240 0.000000 0.000000 0.000000
# 2 -0.012027 0.021363 -0.009469 0.000000 0.000000 0.000000
# 3 -0.016240 -0.009469 0.018291 0.000000 0.000000 0.000000
# 4 0.000000 0.000000 0.000000 0.239599 0.000000 0.000000
# 5 0.000000 0.000000 0.000000 0.000000 0.042548 0.000000
# 6 0.000000 0.000000 0.000000 0.000000 0.000000 0.076815
#
#
# Mechanical properties :
#
#
# Convention : Reuss Voigt Hill
#
# Bulk Modulus (GPa) = 27.88185 71.17170 49.52677
# Shear Modulus (GPa) = 8.96501 15.26447 12.11474
#
# Velocity S-wave (km/s) = 2.35457 3.07240 2.73712
# Velocity P-wave (km/s) = 4.96329 7.52324 6.37312
#
# Compressibility (1/GPa) = 0.03586563
#
# Stress axis : x y z
#
# Youngs Moduli (GPa) = 13.95049 46.81017 54.67067
#
# Poissons Ratio (x) = 0.56297 0.88786
# Poissons Ratio (y) = 0.16778 0.51765
# Poissons Ratio (z) = 0.22656 0.44322
#
# Static dielectric constant tensor:
#      x y z
#    x 1.545600 0.000000 0.000000 
#    y 0.000000 1.541620 0.000000 
#    z 0.000000 0.000000 1.531200 
# 
# From -- ./inp_files/63525.got.cif
#   From: 2010.05.17/outbox.cif.g08.bks.cpg/sg71_32_cif.got.tgz:63525.got - 2010.06.03 16:22:01.
