data_PCOD9520877
_publ_section_title
;
Structure prediction by ZEFSAII (Michael W. Deem and Ramdas Pophale) SiO2 
 PCOD9520877
Probable space group: I M M M
;
_chemical_formula_sum "Si O2"
_cell_formula_units_Z 104
_cell_length_a 28.413545
_cell_length_b 24.639515
_cell_length_c 8.623648
_cell_angle_alpha 90.000000
_cell_angle_beta 90.000000
_cell_angle_gamma 90.000000
_cell_volume 6037.381196
_symmetry_space_group_name_H-M "I M M M"
_symmetry_group_IT_number 71
_symmetry_cell_setting 'orthorhombic'
loop_
_space_group_symop_operation_xyz
x,y,z
-x,-y,z
x,-y,-z
-x,y,-z
-x,-y,-z
x,y,-z
-x,y,z
x,-y,z
1/2+x,1/2+y,1/2+z
1/2-x,1/2-y,1/2+z
1/2+x,1/2-y,1/2-z
1/2-x,1/2+y,1/2-z
1/2-x,1/2-y,1/2-z
1/2+x,1/2+y,1/2-z
1/2-x,1/2+y,1/2+z
1/2+x,1/2-y,1/2+z
loop_
_atom_site_type_symbol
_atom_site_label
_atom_site_fract_x
_atom_site_fract_y
_atom_site_fract_z
Si Si1 0.364598 0.333293 0.184520
Si Si2 0.898854 0.937539 0.815224
Si Si3 0.052227 0.241577 0.312522
Si Si4 0.500000 0.565248 0.826443
Si Si5 0.801568 0.262283 0.183721
Si Si6 0.379745 0.160566 0.187772
Si Si7 0.553927 0.936996 0.188790
O O1 0.363432 0.394954 0.238992
O O2 0.416408 0.310280 0.223778
O O3 0.330648 0.291355 0.268812
O O4 0.357566 0.328911 0.000000
O O5 0.951737 0.922912 0.761036
O O6 0.890121 0.000000 0.768286
O O7 0.896136 0.934107 0.000000
O O8 0.049369 0.244327 0.500000
O O9 0.081518 0.294364 0.265327
O O10 0.000000 0.239736 0.248407
O O11 0.500000 0.500000 0.841109
O O12 0.500000 0.589664 0.000000
O O13 0.750000 0.250000 0.250000
O O14 0.830503 0.314617 0.249867
O O15 0.799213 0.268179 0.000000
O O16 0.404011 0.103660 0.237680
O O17 0.376037 0.159903 0.000000
O O18 0.500000 0.921024 0.235811
O O19 0.561180 0.000000 0.234564
O O20 0.553701 0.935416 0.000000
#
# Coordination Sequence:
#
# PCOD9520877 Si02
#       7
#    16  16  16   8  16  16  16
#     4  10  20  33  52  77 102 129 168 209 254 310
#     4  10  20  33  48  69 101 138 173 211 253 295
#     4   8  14  24  40  65  96 129 164 203 243 287
#     4   9  17  29  45  65  91 131 179 215 244 283
#     4  11  22  38  58  77  99 125 162 212 269 325
#     4   9  16  28  48  74 103 135 172 212 254 300
#     4   8  13  22  42  76 114 149 183 215 244 281
#
# _framework density 17.226011
#
# number of rings (size 3 to 8) (size 9 to 14) (size 15 to 20)
#    0.000    2.692    0.000    4.385    1.077    3.692 
#    0.000    0.000    0.000    9.692    0.000    3.231 
#    0.000    0.000    0.000    0.000    0.000    0.000 
#
# Total GULP energy -289559.879536 kJ/mol
# GULP energy per Si atom -5568.459222 kJ/mol
# Density = 1.718680 g / cm^3
# Si number density = 17.226011 Si / 1000 Ang^3
#
#
#
# Elastic Constant Matrix: (Units=GPa)
#
#
# Indices 1 2 3 4 5 6 
#
# 1 109.4187 50.3545 29.2853 0.0000 0.0000 0.0000
# 2 50.3545 107.9022 27.9175 0.0000 0.0000 0.0000
# 3 29.2853 27.9175 48.2956 0.0000 0.0000 0.0000
# 4 0.0000 0.0000 0.0000 18.5075 0.0000 0.0000
# 5 0.0000 0.0000 0.0000 0.0000 18.8769 0.0000
# 6 0.0000 0.0000 0.0000 0.0000 0.0000 13.1060
#
#
#
# Elastic Compliance Matrix: (Units=1/GPa)
#
#
# Indices 1 2 3 4 5 6 
#
# 1 0.012581 -0.004583 -0.004980 0.000000 0.000000 0.000000
# 2 -0.004583 0.012567 -0.004485 0.000000 0.000000 0.000000
# 3 -0.004980 -0.004485 0.026318 0.000000 0.000000 0.000000
# 4 0.000000 0.000000 0.000000 0.054032 0.000000 0.000000
# 5 0.000000 0.000000 0.000000 0.000000 0.052975 0.000000
# 6 0.000000 0.000000 0.000000 0.000000 0.000000 0.076301
#
#
# Mechanical properties :
#
#
# Convention : Reuss Voigt Hill
#
# Bulk Modulus (GPa) = 42.78954 53.41457 48.10205
# Shear Modulus (GPa) = 18.47337 20.63536 19.55436
#
# Velocity S-wave (km/s) = 3.27832 3.46485 3.37288
# Velocity P-wave (km/s) = 6.26290 6.86166 6.56910
#
# Compressibility (1/GPa) = 0.02337020
#
# Stress axis : x y z
#
# Youngs Moduli (GPa) = 79.48516 79.57490 37.99646
#
# Poissons Ratio (x) = 0.36467 0.18921
# Poissons Ratio (y) = 0.36426 0.17043
# Poissons Ratio (z) = 0.39581 0.35693
#
# Static dielectric constant tensor:
#      x y z
#    x 1.335590 0.000000 0.000000 
#    y 0.000000 1.613780 0.000000 
#    z 0.000000 0.000000 1.591000 
# 
# From -- ./inp_files/15291.got.cif
#   From: 2010.05.17/outbox.cif.g08.bks.cpg/sg71_8_cif.got.tgz:15291.got - 2010.06.03 16:22:01.
