data_PCOD9520984
_publ_section_title
;
Structure prediction by ZEFSAII (Michael W. Deem and Ramdas Pophale) SiO2 
 PCOD9520984
Probable space group: I M M M
;
_chemical_formula_sum "Si O2"
_cell_formula_units_Z 96
_cell_length_a 7.888752
_cell_length_b 20.682554
_cell_length_c 31.002891
_cell_angle_alpha 90.000000
_cell_angle_beta 90.000000
_cell_angle_gamma 90.000000
_cell_volume 5058.417410
_symmetry_space_group_name_H-M "I M M M"
_symmetry_group_IT_number 71
_symmetry_cell_setting 'orthorhombic'
loop_
_space_group_symop_operation_xyz
x,y,z
-x,-y,z
x,-y,-z
-x,y,-z
-x,-y,-z
x,y,-z
-x,y,z
x,-y,z
1/2+x,1/2+y,1/2+z
1/2-x,1/2-y,1/2+z
1/2+x,1/2-y,1/2-z
1/2-x,1/2+y,1/2-z
1/2-x,1/2-y,1/2-z
1/2+x,1/2+y,1/2-z
1/2-x,1/2+y,1/2+z
1/2+x,1/2-y,1/2+z
loop_
_atom_site_type_symbol
_atom_site_label
_atom_site_fract_x
_atom_site_fract_y
_atom_site_fract_z
Si Si1 0.299353 0.069350 0.552402
Si Si2 0.795558 0.295655 0.627081
Si Si3 0.293045 0.928499 0.834698
Si Si4 0.296168 0.928509 0.734595
Si Si5 0.204334 0.709235 0.049144
Si Si6 0.200946 0.788801 0.293283
O O1 0.289308 0.070425 0.500000
O O2 0.500000 0.068054 0.563196
O O3 0.230225 0.139139 0.566115
O O4 0.226221 0.000000 0.566886
O O5 0.734496 0.368035 0.637287
O O6 0.749653 0.266035 0.581304
O O7 0.729361 0.248401 0.664927
O O8 0.000000 0.297099 0.629753
O O9 0.500000 0.928325 0.834794
O O10 0.241846 0.919800 0.784608
O O11 0.238247 0.000000 0.848821
O O12 0.500000 0.930651 0.734747
O O13 0.247852 0.864119 0.709320
O O14 0.236191 0.000000 0.719949
O O15 0.000000 0.704105 0.047473
O O16 0.264239 0.719034 0.000000
O O17 0.250000 0.750000 0.250000
O O18 0.000000 0.785311 0.295787
#
# Coordination Sequence:
#
# PCOD9520984 Si02
#       6
#    16  16  16  16  16  16
#     4   7  10  20  41  66  88 112 148 194 237 276
#     4  10  20  33  50  74 100 130 166 202 250 304
#     4   8  14  28  50  72  95 124 161 205 246 288
#     4   9  17  32  53  74 100 136 174 211 253 299
#     4   9  18  32  50  73  99 127 162 207 256 299
#     4  11  21  33  50  74 105 136 169 209 253 305
#
# _framework density 18.978268
#
# number of rings (size 3 to 8) (size 9 to 14) (size 15 to 20)
#    0.000    3.000    1.667    3.000    0.000    2.000 
#    0.000    0.833    0.000    4.500    0.000    5.833 
#    0.000    0.000    0.000    0.000    0.000    0.000 
#
# Total GULP energy -267383.758794 kJ/mol
# GULP energy per Si atom -5570.494975 kJ/mol
# Density = 1.893507 g / cm^3
# Si number density = 18.978268 Si / 1000 Ang^3
#
#
#
# Elastic Constant Matrix: (Units=GPa)
#
#
# Indices 1 2 3 4 5 6 
#
# 1 19.3219 13.3570 3.9533 0.0000 0.0000 0.0000
# 2 13.3570 202.6293 71.8622 0.0000 0.0000 0.0000
# 3 3.9533 71.8622 67.0719 0.0000 0.0000 0.0000
# 4 0.0000 0.0000 0.0000 27.4694 0.0000 0.0000
# 5 0.0000 0.0000 0.0000 0.0000 17.3019 0.0000
# 6 0.0000 0.0000 0.0000 0.0000 0.0000 22.0669
#
#
#
# Elastic Compliance Matrix: (Units=1/GPa)
#
#
# Indices 1 2 3 4 5 6 
#
# 1 0.054269 -0.003940 0.001023 0.000000 0.000000 0.000000
# 2 -0.003940 0.008246 -0.008602 0.000000 0.000000 0.000000
# 3 0.001023 -0.008602 0.024066 0.000000 0.000000 0.000000
# 4 0.000000 0.000000 0.000000 0.036404 0.000000 0.000000
# 5 0.000000 0.000000 0.000000 0.000000 0.057797 0.000000
# 6 0.000000 0.000000 0.000000 0.000000 0.000000 0.045317
#
#
# Mechanical properties :
#
#
# Convention : Reuss Voigt Hill
#
# Bulk Modulus (GPa) = 15.73776 51.92980 33.83378
# Shear Modulus (GPa) = 18.49671 26.69100 22.59386
#
# Velocity S-wave (km/s) = 3.12529 3.75427 3.45412
# Velocity P-wave (km/s) = 4.61885 6.79815 5.81157
#
# Compressibility (1/GPa) = 0.06354145
#
# Stress axis : x y z
#
# Youngs Moduli (GPa) = 18.42666 121.27600 41.55271
#
# Poissons Ratio (x) = 0.47784 -0.04250
# Poissons Ratio (y) = 0.07260 0.35745
# Poissons Ratio (z) = -0.01885 1.04326
#
# Static dielectric constant tensor:
#      x y z
#    x 1.699820 0.000000 0.000000 
#    y 0.000000 1.698930 0.000000 
#    z 0.000000 0.000000 1.674620 
# 
# From -- ./inp_files/14837.got.cif
#   From: 2010.05.17/outbox.cif.g08.bks.cpg/sg71_8_cif.got.tgz:14837.got - 2010.06.03 16:22:01.
