data_PCOD9520620
_publ_section_title
;
Structure prediction by ZEFSAII (Michael W. Deem and Ramdas Pophale) SiO2 
 PCOD9520620
Probable space group: I M M M
;
_chemical_formula_sum "Si O2"
_cell_formula_units_Z 64
_cell_length_a 17.637615
_cell_length_b 23.871891
_cell_length_c 7.517915
_cell_angle_alpha 90.000000
_cell_angle_beta 90.000000
_cell_angle_gamma 90.000000
_cell_volume 3165.367160
_symmetry_space_group_name_H-M "I M M M"
_symmetry_group_IT_number 71
_symmetry_cell_setting 'orthorhombic'
loop_
_space_group_symop_operation_xyz
x,y,z
-x,-y,z
x,-y,-z
-x,y,-z
-x,-y,-z
x,y,-z
-x,y,z
x,-y,z
1/2+x,1/2+y,1/2+z
1/2-x,1/2-y,1/2+z
1/2+x,1/2-y,1/2-z
1/2-x,1/2+y,1/2-z
1/2-x,1/2-y,1/2-z
1/2+x,1/2+y,1/2-z
1/2-x,1/2+y,1/2+z
1/2+x,1/2-y,1/2+z
loop_
_atom_site_type_symbol
_atom_site_label
_atom_site_fract_x
_atom_site_fract_y
_atom_site_fract_z
Si Si1 0.407247 0.936152 0.500000
Si Si2 0.091043 0.649401 0.296659
Si Si3 0.907744 0.000000 0.708619
Si Si4 0.588678 0.377773 0.782290
Si Si5 0.163159 0.236335 0.712523
O O1 0.500000 0.937003 0.500000
O O2 0.382365 0.900771 0.671294
O O3 0.381107 0.000000 0.500000
O O4 0.118063 0.643106 0.500000
O O5 0.116121 0.709817 0.224317
O O6 0.000000 0.648198 0.299152
O O7 0.884421 0.939209 0.781376
O O8 0.886828 0.000000 0.500000
O O9 0.000000 0.000000 0.716852
O O10 0.500000 0.370443 0.735116
O O11 0.635621 0.323958 0.719873
O O12 0.591249 0.379430 0.000000
O O13 0.151458 0.234241 0.500000
O O14 0.250000 0.250000 0.750000
#
# Coordination Sequence:
#
# PCOD9520620 Si02
#       5
#     8  16   8  16  16
#     4   9  18  32  54  82 106 129 164 216 268 312
#     4   9  18  33  53  76 103 136 175 215 258 309
#     4   7  10  18  38  68  95 115 144 193 242 286
#     4   8  13  24  44  69  95 123 157 197 244 297
#     4  10  20  31  47  69  99 135 169 209 253 301
#
# _framework density 20.218824000000001
#
# number of rings (size 3 to 8) (size 9 to 14) (size 15 to 20)
#    0.000    3.250    0.000    2.250    1.750    3.500 
#    0.000    2.500    2.750    0.000    0.000    0.000 
#    0.000    3.000    0.000    0.000    0.000    0.000 
#
# Total GULP energy -178344.866574 kJ/mol
# GULP energy per Si atom -5573.277080 kJ/mol
# Density = 2.017281 g / cm^3
# Si number density = 20.218824 Si / 1000 Ang^3
#
#
#
# Elastic Constant Matrix: (Units=GPa)
#
#
# Indices 1 2 3 4 5 6 
#
# 1 26.3636 53.9014 6.7137 0.0000 0.0000 0.0000
# 2 53.9014 267.6301 55.1364 0.0000 0.0000 0.0000
# 3 6.7137 55.1364 70.0198 0.0000 0.0000 0.0000
# 4 0.0000 0.0000 0.0000 -13.2544 0.0000 0.0000
# 5 0.0000 0.0000 0.0000 0.0000 12.4466 0.0000
# 6 0.0000 0.0000 0.0000 0.0000 0.0000 -0.1601
#
#
#
# Elastic Compliance Matrix: (Units=1/GPa)
#
#
# Indices 1 2 3 4 5 6 
#
# 1 0.065880 -0.014284 0.004931 0.000000 0.000000 0.000000
# 2 -0.014284 0.007557 -0.004581 0.000000 0.000000 0.000000
# 3 0.004931 -0.004581 0.017416 0.000000 0.000000 0.000000
# 4 0.000000 0.000000 0.000000 -0.075446 0.000000 0.000000
# 5 0.000000 0.000000 0.000000 0.000000 0.080343 0.000000
# 6 0.000000 0.000000 0.000000 0.000000 0.000000 -6.245113
#
#
# Mechanical properties :
#
#
# Convention : Reuss Voigt Hill
#
# Bulk Modulus (GPa) = 15.87677 66.16851 41.02264
# Shear Modulus (GPa) = -0.81961 16.35721 7.76880
#
# Velocity S-wave (km/s) = -0.63738 2.84739 1.96232
# Velocity P-wave (km/s) = 2.70700 6.60359 5.04655
#
# Compressibility (1/GPa) = 0.06298510
#
# Stress axis : x y z
#
# Youngs Moduli (GPa) = 15.17908 132.32372 57.41753
#
# Poissons Ratio (x) = 1.89016 -0.28314
# Poissons Ratio (y) = 0.21682 0.26304
# Poissons Ratio (z) = -0.07485 0.60621
#
# Static dielectric constant tensor:
#      x y z
#    x 1.647480 0.000000 0.000000 
#    y 0.000000 1.736990 0.000000 
#    z 0.000000 0.000000 2.098560 
# 
# From -- ./inp_files/5566.got.cif
#   From: 2010.05.17/outbox.cif.g08.bks.cpg/sg71_3_cif.got.tgz:5566.got - 2010.06.03 16:22:01.
