data_PCOD9520759
_publ_section_title
;
Structure prediction by ZEFSAII (Michael W. Deem and Ramdas Pophale) SiO2 
 PCOD9520759
Probable space group: I M M M
;
_chemical_formula_sum "Si O2"
_cell_formula_units_Z 104
_cell_length_a 27.052363
_cell_length_b 7.532370
_cell_length_c 24.962735
_cell_angle_alpha 90.000000
_cell_angle_beta 90.000000
_cell_angle_gamma 90.000000
_cell_volume 5086.616758
_symmetry_space_group_name_H-M "I M M M"
_symmetry_group_IT_number 71
_symmetry_cell_setting 'orthorhombic'
loop_
_space_group_symop_operation_xyz
x,y,z
-x,-y,z
x,-y,-z
-x,y,-z
-x,-y,-z
x,y,-z
-x,y,z
x,-y,z
1/2+x,1/2+y,1/2+z
1/2-x,1/2-y,1/2+z
1/2+x,1/2-y,1/2-z
1/2-x,1/2+y,1/2-z
1/2-x,1/2-y,1/2-z
1/2+x,1/2+y,1/2-z
1/2-x,1/2+y,1/2+z
1/2+x,1/2-y,1/2+z
loop_
_atom_site_type_symbol
_atom_site_label
_atom_site_fract_x
_atom_site_fract_y
_atom_site_fract_z
Si Si1 0.824645 0.789281 0.158980
Si Si2 0.056142 0.214052 0.644068
Si Si3 0.712538 0.783823 0.153530
Si Si4 0.627368 0.706855 0.235934
Si Si5 0.000000 0.295222 0.934782
Si Si6 0.892717 0.714668 0.061015
Si Si7 0.640964 0.212108 0.060464
O O1 0.768642 0.720571 0.159097
O O2 0.859474 0.714907 0.206215
O O3 0.850438 0.764262 0.102104
O O4 0.820485 0.000000 0.169148
O O5 0.085028 0.282739 0.696938
O O6 0.090420 0.254609 0.592969
O O7 0.000000 0.278638 0.639810
O O8 0.054692 0.000000 0.647836
O O9 0.677775 0.720189 0.201646
O O10 0.685492 0.724130 0.098764
O O11 0.711985 0.000000 0.154172
O O12 0.614319 0.500000 0.243630
O O13 0.946791 0.217446 0.919968
O O14 0.000000 0.500000 0.916325
O O15 0.000000 0.297243 0.000000
O O16 0.895943 0.500000 0.059410
O O17 0.883838 0.774864 0.000000
O O18 0.646498 0.000000 0.057007
O O19 0.640822 0.283145 0.000000
#
# Coordination Sequence:
#
# PCOD9520759 Si02
#       7
#    16  16  16  16   8  16  16
#     4  10  20  32  48  75 103 127 159 199 244 294
#     4   9  18  33  51  69  94 129 162 196 242 290
#     4   9  18  32  50  70  96 130 164 198 240 287
#     4   9  18  33  50  70  96 126 164 202 240 287
#     4   7  12  28  51  67  85 119 157 191 228 271
#     4   9  18  33  52  72  95 126 163 200 239 285
#     4   9  18  32  49  70  96 127 162 198 240 288
#
# _framework density 20.445810999999999
#
# number of rings (size 3 to 8) (size 9 to 14) (size 15 to 20)
#    0.000    3.000    0.000    1.385    0.000    3.077 
#    1.385    3.462    0.000    1.385    0.000    0.000 
#    0.000    0.000    0.000    0.000    0.000    0.000 
#
# Total GULP energy -289915.903871 kJ/mol
# GULP energy per Si atom -5575.305844 kJ/mol
# Density = 2.039928 g / cm^3
# Si number density = 20.445811 Si / 1000 Ang^3
#
#
#
# Elastic Constant Matrix: (Units=GPa)
#
#
# Indices 1 2 3 4 5 6 
#
# 1 9.9624 -6.8911 10.3604 0.0000 0.0000 0.0000
# 2 -6.8911 51.2578 -3.5354 0.0000 0.0000 0.0000
# 3 10.3604 -3.5354 108.0682 0.0000 0.0000 0.0000
# 4 0.0000 0.0000 0.0000 16.1209 0.0000 0.0000
# 5 0.0000 0.0000 0.0000 0.0000 6.4520 0.0000
# 6 0.0000 0.0000 0.0000 0.0000 0.0000 -45.6025
#
#
#
# Elastic Compliance Matrix: (Units=1/GPa)
#
#
# Indices 1 2 3 4 5 6 
#
# 1 0.123005 0.015759 -0.011277 0.000000 0.000000 0.000000
# 2 0.015759 0.021572 -0.000805 0.000000 0.000000 0.000000
# 3 -0.011277 -0.000805 0.010308 0.000000 0.000000 0.000000
# 4 0.000000 0.000000 0.000000 0.062031 0.000000 0.000000
# 5 0.000000 0.000000 0.000000 0.000000 0.154991 0.000000
# 6 0.000000 0.000000 0.000000 0.000000 0.000000 -0.021929
#
#
# Mechanical properties :
#
#
# Convention : Reuss Voigt Hill
#
# Bulk Modulus (GPa) = 6.16371 18.79512 12.47942
# Shear Modulus (GPa) = 12.60384 6.68440 9.64412
#
# Velocity S-wave (km/s) = 2.48554 1.81009 2.17420
# Velocity P-wave (km/s) = 3.35535 3.68526 3.52417
#
# Compressibility (1/GPa) = 0.16223982
#
# Stress axis : x y z
#
# Youngs Moduli (GPa) = 8.12976 46.35560 97.01034
#
# Poissons Ratio (x) = -0.73052 1.09397
# Poissons Ratio (y) = -0.12812 0.07810
# Poissons Ratio (z) = 0.09168 0.03732
#
# Static dielectric constant tensor:
#      x y z
#    x 1.719540 0.000000 0.000000 
#    y 0.000000 1.804890 0.000000 
#    z 0.000000 0.000000 1.720880 
# 
# From -- ./inp_files/56221.got.cif
#   From: 2010.05.17/outbox.cif.g08.bks.cpg/sg71_29_cif.got.tgz:56221.got - 2010.06.03 16:22:01.
