data_PCOD9520085
_publ_section_title
;
Structure prediction by ZEFSAII (Michael W. Deem and Ramdas Pophale) SiO2 
 PCOD9520085
Probable space group: I M M M
;
_chemical_formula_sum "Si O2"
_cell_formula_units_Z 88
_cell_length_a 15.349769
_cell_length_b 18.666667
_cell_length_c 16.871171
_cell_angle_alpha 90.000000
_cell_angle_beta 90.000000
_cell_angle_gamma 90.000000
_cell_volume 4834.080202
_symmetry_space_group_name_H-M "I M M M"
_symmetry_group_IT_number 71
_symmetry_cell_setting 'orthorhombic'
loop_
_space_group_symop_operation_xyz
x,y,z
-x,-y,z
x,-y,-z
-x,y,-z
-x,-y,-z
x,y,-z
-x,y,z
x,-y,z
1/2+x,1/2+y,1/2+z
1/2-x,1/2-y,1/2+z
1/2+x,1/2-y,1/2-z
1/2-x,1/2+y,1/2-z
1/2-x,1/2-y,1/2-z
1/2+x,1/2+y,1/2-z
1/2-x,1/2+y,1/2+z
1/2+x,1/2-y,1/2+z
loop_
_atom_site_type_symbol
_atom_site_label
_atom_site_fract_x
_atom_site_fract_y
_atom_site_fract_z
Si Si1 0.902011 0.205347 0.857329
Si Si2 0.099422 0.351161 0.404399
Si Si3 0.806232 0.352578 0.094654
Si Si4 0.170567 0.780606 0.695520
Si Si5 0.099743 0.500000 0.903511
Si Si6 0.774388 0.922611 0.094952
O O1 0.866019 0.282991 0.885245
O O2 0.899173 0.200349 0.761979
O O3 0.835810 0.143573 0.884023
O O4 0.000000 0.195174 0.887123
O O5 0.102548 0.343077 0.500000
O O6 0.130172 0.278555 0.362191
O O7 0.174580 0.407120 0.380755
O O8 0.000000 0.369651 0.382840
O O9 0.716612 0.340608 0.142255
O O10 0.852283 0.426489 0.119515
O O11 0.792199 0.353386 0.000000
O O12 0.250000 0.750000 0.750000
O O13 0.000000 0.500000 0.875630
O O14 0.098032 0.500000 0.000000
O O15 0.803716 0.000000 0.126197
O O16 0.774197 0.925736 0.000000
#
# Coordination Sequence:
#
# PCOD9520085 Si02
#       6
#    16  16  16  16   8  16
#     4  11  22  36  56  80 109 148 188 227 276 326
#     4  10  19  34  58  84 109 141 181 224 274 329
#     4  10  19  34  57  81 110 146 181 221 276 334
#     4  10  19  34  54  78 108 143 182 225 266 320
#     4   9  18  32  52  84 115 135 170 225 277 331
#     4  10  21  37  56  81 113 144 183 232 273 321
#
# _framework density 18.204084000000002
#
# number of rings (size 3 to 8) (size 9 to 14) (size 15 to 20)
#    0.000    1.909    3.636    2.182    0.000    2.909 
#    1.636    2.727    0.000    0.000    0.000    0.000 
#    0.000    5.818    0.000    0.000    0.000    0.000 
#
# Total GULP energy -245200.067764 kJ/mol
# GULP energy per Si atom -5572.728813 kJ/mol
# Density = 1.816265 g / cm^3
# Si number density = 18.204084 Si / 1000 Ang^3
#
#
#
# Elastic Constant Matrix: (Units=GPa)
#
#
# Indices 1 2 3 4 5 6 
#
# 1 83.1997 45.7324 11.8904 0.0000 0.0000 0.0000
# 2 45.7324 143.3108 21.3243 0.0000 0.0000 0.0000
# 3 11.8904 21.3243 38.7605 0.0000 0.0000 0.0000
# 4 0.0000 0.0000 0.0000 -9.2969 0.0000 0.0000
# 5 0.0000 0.0000 0.0000 0.0000 22.3335 0.0000
# 6 0.0000 0.0000 0.0000 0.0000 0.0000 13.4685
#
#
#
# Elastic Compliance Matrix: (Units=1/GPa)
#
#
# Indices 1 2 3 4 5 6 
#
# 1 0.014732 -0.004388 -0.002105 0.000000 0.000000 0.000000
# 2 -0.004388 0.008907 -0.003554 0.000000 0.000000 0.000000
# 3 -0.002105 -0.003554 0.028401 0.000000 0.000000 0.000000
# 4 0.000000 0.000000 0.000000 -0.107562 0.000000 0.000000
# 5 0.000000 0.000000 0.000000 0.000000 0.044776 0.000000
# 6 0.000000 0.000000 0.000000 0.000000 0.000000 0.074247
#
#
# Mechanical properties :
#
#
# Convention : Reuss Voigt Hill
#
# Bulk Modulus (GPa) = 31.30383 47.01835 39.16109
# Shear Modulus (GPa) = 53.05411 17.72260 35.38835
#
# Velocity S-wave (km/s) = 5.40438 3.12356 4.41384
# Velocity P-wave (km/s) = 7.49510 6.23646 6.89456
#
# Compressibility (1/GPa) = 0.03194497
#
# Stress axis : x y z
#
# Youngs Moduli (GPa) = 67.87914 112.27204 35.21048
#
# Poissons Ratio (x) = 0.49264 0.07413
# Poissons Ratio (y) = 0.29785 0.12514
# Poissons Ratio (z) = 0.14290 0.39903
#
# Static dielectric constant tensor:
#      x y z
#    x 1.639970 0.000000 0.000000 
#    y 0.000000 1.627270 0.000000 
#    z 0.000000 0.000000 1.648250 
# 
# From -- ./inp_files/44691.got.cif
#   From: 2010.05.17/outbox.cif.g08.bks.cpg/sg71_23_cif.got.tgz:44691.got - 2010.06.03 16:22:01.
