data_PCOD9520809
_publ_section_title
;
Structure prediction by ZEFSAII (Michael W. Deem and Ramdas Pophale) SiO2 
 PCOD9520809
Probable space group: I M M M
;
_chemical_formula_sum "Si O2"
_cell_formula_units_Z 80
_cell_length_a 28.893758
_cell_length_b 8.053615
_cell_length_c 17.846403
_cell_angle_alpha 90.000000
_cell_angle_beta 90.000000
_cell_angle_gamma 90.000000
_cell_volume 4152.843752
_symmetry_space_group_name_H-M "I M M M"
_symmetry_group_IT_number 71
_symmetry_cell_setting 'orthorhombic'
loop_
_space_group_symop_operation_xyz
x,y,z
-x,-y,z
x,-y,-z
-x,y,-z
-x,-y,-z
x,y,-z
-x,y,z
x,-y,z
1/2+x,1/2+y,1/2+z
1/2-x,1/2-y,1/2+z
1/2+x,1/2-y,1/2-z
1/2-x,1/2+y,1/2-z
1/2-x,1/2-y,1/2-z
1/2+x,1/2+y,1/2-z
1/2-x,1/2+y,1/2+z
1/2+x,1/2-y,1/2+z
loop_
_atom_site_type_symbol
_atom_site_label
_atom_site_fract_x
_atom_site_fract_y
_atom_site_fract_z
Si Si1 0.708190 0.300053 0.661774
Si Si2 0.387460 0.312554 0.589251
Si Si3 0.690921 0.805331 0.831015
Si Si4 0.600004 0.698797 0.914938
Si Si5 0.053455 0.500000 0.908207
Si Si6 0.500000 0.692536 0.908478
O O1 0.711401 0.500000 0.671197
O O2 0.665689 0.268042 0.606858
O O3 0.695148 0.224868 0.742185
O O4 0.759394 0.241155 0.638163
O O5 0.393553 0.319932 0.500000
O O6 0.396438 0.500000 0.619044
O O7 0.420458 0.166504 0.617991
O O8 0.644541 0.730285 0.864596
O O9 0.688334 0.000000 0.846747
O O10 0.594344 0.500000 0.919617
O O11 0.550048 0.765962 0.886894
O O12 0.608137 0.760757 0.000000
O O13 0.000000 0.500000 0.886367
O O14 0.055182 0.500000 0.000000
O O15 0.500000 0.500000 0.883220
O O16 0.500000 0.692454 0.000000
#
# Coordination Sequence:
#
# PCOD9520809 Si02
#       6
#    16  16  16  16   8   8
#     4   9  19  35  52  70  98 135 170 205 250 309
#     4   9  18  33  54  78 103 136 174 213 259 308
#     4  10  20  32  50  74 100 132 166 207 258 305
#     4   9  17  31  51  74  99 130 170 210 247 294
#     4   9  18  32  52  80 108 134 167 210 262 312
#     4   7  12  26  49  71  93 127 166 203 242 285
#
# _framework density 19.263908000000001
#
# number of rings (size 3 to 8) (size 9 to 14) (size 15 to 20)
#    0.000    3.000    0.000    1.800    1.400    2.400 
#    0.000    4.500    2.200    1.800    0.000    0.000 
#    0.000    0.000    0.000    0.000    0.000    0.000 
#
# Total GULP energy -222711.236506 kJ/mol
# GULP energy per Si atom -5567.780913 kJ/mol
# Density = 1.922006 g / cm^3
# Si number density = 19.263908 Si / 1000 Ang^3
#
#
#
# Elastic Constant Matrix: (Units=GPa)
#
#
# Indices 1 2 3 4 5 6 
#
# 1 195.2623 57.4430 30.8651 0.0000 0.0000 0.0000
# 2 57.4430 51.6056 7.3731 0.0000 0.0000 0.0000
# 3 30.8651 7.3731 6.9678 0.0000 0.0000 0.0000
# 4 0.0000 0.0000 0.0000 8.6640 0.0000 0.0000
# 5 0.0000 0.0000 0.0000 0.0000 -17.6268 0.0000
# 6 0.0000 0.0000 0.0000 0.0000 0.0000 25.0120
#
#
#
# Elastic Compliance Matrix: (Units=1/GPa)
#
#
# Indices 1 2 3 4 5 6 
#
# 1 0.022462 -0.012709 -0.086053 0.000000 0.000000 0.000000
# 2 -0.012709 0.030019 0.024530 0.000000 0.000000 0.000000
# 3 -0.086053 0.024530 0.498746 0.000000 0.000000 0.000000
# 4 0.000000 0.000000 0.000000 0.115421 0.000000 0.000000
# 5 0.000000 0.000000 0.000000 0.000000 -0.056732 0.000000
# 6 0.000000 0.000000 0.000000 0.000000 0.000000 0.039981
#
#
# Mechanical properties :
#
#
# Convention : Reuss Voigt Hill
#
# Bulk Modulus (GPa) = 2.48285 49.46646 25.97465
# Shear Modulus (GPa) = 5.36127 13.75347 9.55737
#
# Velocity S-wave (km/s) = 1.67006 2.67488 2.22981
# Velocity P-wave (km/s) = 2.23841 5.93920 4.48801
#
# Compressibility (1/GPa) = 0.40276330
#
# Stress axis : x y z
#
# Youngs Moduli (GPa) = 44.51888 33.31193 2.00503
#
# Poissons Ratio (x) = 0.42335 0.17254
# Poissons Ratio (y) = 0.56577 -0.04918
# Poissons Ratio (z) = 3.83098 -0.81713
#
# Static dielectric constant tensor:
#      x y z
#    x 1.709560 0.000000 0.000000 
#    y 0.000000 1.713020 0.000000 
#    z 0.000000 0.000000 1.647430 
# 
# From -- ./inp_files/14754.got.cif
#   From: 2010.05.17/outbox.cif.g08.bks.cpg/sg71_8_cif.got.tgz:14754.got - 2010.06.03 16:22:01.
