data_PCOD9520095
_publ_section_title
;
Structure prediction by ZEFSAII (Michael W. Deem and Ramdas Pophale) SiO2 
 PCOD9520095
Probable space group: I M M M
;
_chemical_formula_sum "Si O2"
_cell_formula_units_Z 72
_cell_length_a 19.777897
_cell_length_b 13.061878
_cell_length_c 14.382183
_cell_angle_alpha 90.000000
_cell_angle_beta 90.000000
_cell_angle_gamma 90.000000
_cell_volume 3715.442498
_symmetry_space_group_name_H-M "I M M M"
_symmetry_group_IT_number 71
_symmetry_cell_setting 'orthorhombic'
loop_
_space_group_symop_operation_xyz
x,y,z
-x,-y,z
x,-y,-z
-x,y,-z
-x,-y,-z
x,y,-z
-x,y,z
x,-y,z
1/2+x,1/2+y,1/2+z
1/2-x,1/2-y,1/2+z
1/2+x,1/2-y,1/2-z
1/2-x,1/2+y,1/2-z
1/2-x,1/2-y,1/2-z
1/2+x,1/2+y,1/2-z
1/2-x,1/2+y,1/2+z
1/2+x,1/2-y,1/2+z
loop_
_atom_site_type_symbol
_atom_site_label
_atom_site_fract_x
_atom_site_fract_y
_atom_site_fract_z
Si Si1 0.918908 0.116634 0.203718
Si Si2 0.338323 0.225737 0.831972
Si Si3 0.919535 0.376961 0.500000
Si Si4 0.774519 0.384575 0.160365
Si Si5 0.385314 0.888156 0.500000
Si Si6 0.923972 0.838188 0.000000
O O1 0.884370 0.200182 0.268344
O O2 0.000000 0.133770 0.202217
O O3 0.906980 0.000000 0.234677
O O4 0.892473 0.128155 0.097604
O O5 0.280324 0.301107 0.870729
O O6 0.301320 0.146980 0.762166
O O7 0.382458 0.170585 0.910038
O O8 0.912574 0.500000 0.500000
O O9 0.000000 0.353113 0.500000
O O10 0.746821 0.500000 0.160845
O O11 0.837044 0.383297 0.089779
O O12 0.427146 0.784677 0.500000
O O13 0.419298 0.000000 0.500000
O O14 0.000000 0.881154 0.000000
#
# Coordination Sequence:
#
# PCOD9520095 Si02
#       6
#    16  16   8  16   8   8
#     4  10  20  35  57  85 117 151 189 235 289 349
#     4  11  21  38  62  83 119 152 199 242 291 346
#     4  11  25  44  64  87 117 159 209 256 299 347
#     4  10  21  36  59  87 117 152 186 235 295 352
#     4  10  19  35  54  80 116 144 179 226 285 350
#     4  10  19  34  54  81 116 149 182 227 286 346
#
# _framework density 19.378578999999998
#
# number of rings (size 3 to 8) (size 9 to 14) (size 15 to 20)
#    0.000    1.667    2.222    3.000    0.000    1.556 
#    0.000    1.667    0.000    4.000    0.000    0.000 
#    0.000    0.000    0.000    0.000    0.000    0.000 
#
# Total GULP energy -200969.279924 kJ/mol
# GULP energy per Si atom -5582.479998 kJ/mol
# Density = 1.933447 g / cm^3
# Si number density = 19.378579 Si / 1000 Ang^3
#
#
#
# Elastic Constant Matrix: (Units=GPa)
#
#
# Indices 1 2 3 4 5 6 
#
# 1 71.1328 33.6692 29.0952 0.0000 0.0000 0.0000
# 2 33.6692 113.6030 32.8454 0.0000 0.0000 0.0000
# 3 29.0952 32.8454 88.2624 0.0000 0.0000 0.0000
# 4 0.0000 0.0000 0.0000 48.3698 0.0000 0.0000
# 5 0.0000 0.0000 0.0000 0.0000 30.6175 0.0000
# 6 0.0000 0.0000 0.0000 0.0000 0.0000 31.6380
#
#
#
# Elastic Compliance Matrix: (Units=1/GPa)
#
#
# Indices 1 2 3 4 5 6 
#
# 1 0.017732 -0.003995 -0.004359 0.000000 0.000000 0.000000
# 2 -0.003995 0.010764 -0.002689 0.000000 0.000000 0.000000
# 3 -0.004359 -0.002689 0.013767 0.000000 0.000000 0.000000
# 4 0.000000 0.000000 0.000000 0.020674 0.000000 0.000000
# 5 0.000000 0.000000 0.000000 0.000000 0.032661 0.000000
# 6 0.000000 0.000000 0.000000 0.000000 0.000000 0.031608
#
#
# Mechanical properties :
#
#
# Convention : Reuss Voigt Hill
#
# Bulk Modulus (GPa) = 49.55780 51.57974 50.56877
# Shear Modulus (GPa) = 32.04786 33.95097 32.99941
#
# Velocity S-wave (km/s) = 4.07108 4.19021 4.13107
# Velocity P-wave (km/s) = 6.90849 7.07709 6.99330
#
# Compressibility (1/GPa) = 0.02017846
#
# Stress axis : x y z
#
# Youngs Moduli (GPa) = 56.39521 92.90206 72.63673
#
# Poissons Ratio (x) = 0.37116 0.31659
# Poissons Ratio (y) = 0.22531 0.19530
# Poissons Ratio (z) = 0.24580 0.24978
#
# Static dielectric constant tensor:
#      x y z
#    x 1.671290 0.000000 0.000000 
#    y 0.000000 1.673580 0.000000 
#    z 0.000000 0.000000 1.670270 
# 
# From -- ./inp_files/36096.got.cif
#   From: 2010.05.17/outbox.cif.g08.bks.cpg/sg71_19_cif.got.tgz:36096.got - 2010.06.03 16:22:01.
