data_PCOD9520792
_publ_section_title
;
Structure prediction by ZEFSAII (Michael W. Deem and Ramdas Pophale) SiO2 
 PCOD9520792
Probable space group: I M M M
;
_chemical_formula_sum "Si O2"
_cell_formula_units_Z 80
_cell_length_a 12.125986
_cell_length_b 28.771172
_cell_length_c 13.747084
_cell_angle_alpha 90.000000
_cell_angle_beta 90.000000
_cell_angle_gamma 90.000000
_cell_volume 4796.066566
_symmetry_space_group_name_H-M "I M M M"
_symmetry_group_IT_number 71
_symmetry_cell_setting 'orthorhombic'
loop_
_space_group_symop_operation_xyz
x,y,z
-x,-y,z
x,-y,-z
-x,y,-z
-x,-y,-z
x,y,-z
-x,y,z
x,-y,z
1/2+x,1/2+y,1/2+z
1/2-x,1/2-y,1/2+z
1/2+x,1/2-y,1/2-z
1/2-x,1/2+y,1/2-z
1/2-x,1/2-y,1/2-z
1/2+x,1/2+y,1/2-z
1/2-x,1/2+y,1/2+z
1/2+x,1/2-y,1/2+z
loop_
_atom_site_type_symbol
_atom_site_label
_atom_site_fract_x
_atom_site_fract_y
_atom_site_fract_z
Si Si1 0.763383 0.809404 0.616147
Si Si2 0.769659 0.633307 0.293545
Si Si3 0.500000 0.158512 0.117626
Si Si4 0.628907 0.555243 0.614222
Si Si5 0.627028 0.717102 0.617192
Si Si6 0.500000 0.733227 0.882366
O O1 0.759009 0.816990 0.500000
O O2 0.729921 0.853455 0.680057
O O3 0.683099 0.766351 0.641163
O O4 0.887183 0.792880 0.643496
O O5 0.890472 0.635400 0.339766
O O6 0.707383 0.586127 0.319869
O O7 0.699630 0.675216 0.342293
O O8 0.500000 0.212993 0.148564
O O9 0.500000 0.156550 0.000000
O O10 0.650005 0.565808 0.500000
O O11 0.500000 0.566261 0.632743
O O12 0.643383 0.500000 0.627456
O O13 0.628516 0.713452 0.500000
O O14 0.500000 0.715135 0.649424
O O15 0.500000 0.735087 0.000000
#
# Coordination Sequence:
#
# PCOD9520792 Si02
#       6
#    16  16   8  16  16   8
#     4  10  22  35  48  72 107 145 181 215 249 294
#     4  12  22  32  55  75 102 139 178 211 259 313
#     4  11  22  34  50  77 108 137 172 213 261 314
#     4   9  19  37  59  81 104 128 160 210 269 322
#     4  10  20  32  49  75 105 136 177 223 256 297
#     4   9  18  34  48  66 106 147 174 210 256 295
#
# _framework density 16.680337000000002
#
# number of rings (size 3 to 8) (size 9 to 14) (size 15 to 20)
#    0.000    1.800    2.000    3.600    4.200    1.600 
#    0.000    0.500    0.000    2.400    0.000    1.400 
#    0.000    1.600    0.000    0.000    0.000    0.000 
#
# Total GULP energy -223492.764004 kJ/mol
# GULP energy per Si atom -5587.319100 kJ/mol
# Density = 1.664237 g / cm^3
# Si number density = 16.680337 Si / 1000 Ang^3
#
#
#
# Elastic Constant Matrix: (Units=GPa)
#
#
# Indices 1 2 3 4 5 6 
#
# 1 121.6035 34.9545 41.0011 0.0006 0.0000 0.0000
# 2 34.9545 49.2566 30.4050 0.0004 -0.0001 0.0000
# 3 41.0011 30.4050 68.3718 0.0017 -0.0003 0.0000
# 4 0.0006 0.0004 0.0017 23.4244 -0.0002 0.0000
# 5 0.0000 -0.0001 -0.0003 -0.0002 24.2763 0.0001
# 6 0.0000 0.0000 0.0000 0.0000 0.0001 20.6372
#
#
#
# Elastic Compliance Matrix: (Units=1/GPa)
#
#
# Indices 1 2 3 4 5 6 
#
# 1 0.011212 -0.005246 -0.004390 0.000000 0.000000 0.000000
# 2 -0.005246 0.030438 -0.010390 0.000000 0.000000 0.000000
# 3 -0.004390 -0.010390 0.021879 -0.000001 0.000000 0.000000
# 4 0.000000 0.000000 -0.000001 0.042690 0.000000 0.000000
# 5 0.000000 0.000000 0.000000 0.000000 0.041192 0.000000
# 6 0.000000 0.000000 0.000000 0.000000 0.000000 0.048456
#
#
# Mechanical properties :
#
#
# Convention : Reuss Voigt Hill
#
# Bulk Modulus (GPa) = 42.59656 50.21701 46.40678
# Shear Modulus (GPa) = 20.51309 22.52567 21.51938
#
# Velocity S-wave (km/s) = 3.51062 3.67881 3.59570
# Velocity P-wave (km/s) = 6.48267 6.94375 6.71717
#
# Compressibility (1/GPa) = 0.02347608
#
# Stress axis : x y z
#
# Youngs Moduli (GPa) = 89.19181 32.85345 45.70556
#
# Poissons Ratio (x) = 0.17236 0.20067
# Poissons Ratio (y) = 0.46792 0.47487
# Poissons Ratio (z) = 0.39160 0.34134
#
# Static dielectric constant tensor:
#      x y z
#    x 1.563710 0.000000 0.000000 
#    y 0.000000 1.522260 0.000000 
#    z 0.000000 0.000000 1.607000 
# 
# From -- ./inp_files/22198.got.cif
#   From: 2010.05.17/outbox.cif.g08.bks.cpg/sg71_12_cif.got.tgz:22198.got - 2010.06.03 16:22:01.
