data_PCOD9520590
_publ_section_title
;
Structure prediction by ZEFSAII (Michael W. Deem and Ramdas Pophale) SiO2 
 PCOD9520590
Probable space group: I M M M
;
_chemical_formula_sum "Si O2"
_cell_formula_units_Z 88
_cell_length_a 19.466804
_cell_length_b 28.232877
_cell_length_c 9.391346
_cell_angle_alpha 90.000000
_cell_angle_beta 90.000000
_cell_angle_gamma 90.000000
_cell_volume 5161.520227
_symmetry_space_group_name_H-M "I M M M"
_symmetry_group_IT_number 71
_symmetry_cell_setting 'orthorhombic'
loop_
_space_group_symop_operation_xyz
x,y,z
-x,-y,z
x,-y,-z
-x,y,-z
-x,-y,-z
x,y,-z
-x,y,z
x,-y,z
1/2+x,1/2+y,1/2+z
1/2-x,1/2-y,1/2+z
1/2+x,1/2-y,1/2-z
1/2-x,1/2+y,1/2-z
1/2-x,1/2-y,1/2-z
1/2+x,1/2+y,1/2-z
1/2-x,1/2+y,1/2+z
1/2+x,1/2-y,1/2+z
loop_
_atom_site_type_symbol
_atom_site_label
_atom_site_fract_x
_atom_site_fract_y
_atom_site_fract_z
Si Si1 0.500000 0.056664 0.339511
Si Si2 0.867324 0.416437 0.662977
Si Si3 0.674369 0.345196 0.672912
Si Si4 0.320417 0.807642 0.164484
Si Si5 0.920896 0.762513 0.171656
Si Si6 0.283827 0.551938 0.326665
O O1 0.500000 0.075351 0.500000
O O2 0.568090 0.072728 0.258994
O O3 0.500000 0.000000 0.342779
O O4 0.881410 0.431134 0.500000
O O5 0.851544 0.360550 0.663233
O O6 0.796657 0.441509 0.709708
O O7 0.679306 0.346960 0.500000
O O8 0.742423 0.315839 0.718555
O O9 0.607598 0.314838 0.709178
O O10 0.678880 0.399748 0.722364
O O11 0.368826 0.774317 0.256835
O O12 0.317787 0.790799 0.000000
O O13 0.000000 0.755538 0.215343
O O14 0.917447 0.757821 0.000000
O O15 0.287061 0.552160 0.500000
O O16 0.308193 0.500000 0.278302
#
# Coordination Sequence:
#
# PCOD9520590 Si02
#       6
#     8  16  16  16  16  16
#     4  11  23  33  41  59  91 127 155 183 226 277
#     4   9  18  31  47  66  86 112 152 197 234 267
#     4   8  15  29  46  66  93 121 151 188 229 274
#     4   9  18  32  50  69  88 116 156 199 232 261
#     4  10  20  31  45  67  96 128 154 180 226 284
#     4   8  13  24  46  71  88 108 147 195 233 265
#
# _framework density 17.049240000000001
#
# number of rings (size 3 to 8) (size 9 to 14) (size 15 to 20)
#    0.000    3.000    0.000    3.545    1.273    2.545 
#    0.000    0.000    0.000    1.636    0.000    3.818 
#    0.000    0.000    0.000    1.636    0.000    1.818 
#
# Total GULP energy -245047.673453 kJ/mol
# GULP energy per Si atom -5569.265306 kJ/mol
# Density = 1.701043 g / cm^3
# Si number density = 17.049240 Si / 1000 Ang^3
#
#
#
# Elastic Constant Matrix: (Units=GPa)
#
#
# Indices 1 2 3 4 5 6 
#
# 1 45.2636 31.1057 10.6614 0.0000 0.0000 0.0000
# 2 31.1057 90.1948 5.2968 0.0000 0.0000 0.0000
# 3 10.6614 5.2968 18.5480 0.0000 0.0000 0.0000
# 4 0.0000 0.0000 0.0000 16.6898 0.0000 0.0000
# 5 0.0000 0.0000 0.0000 0.0000 11.5398 0.0000
# 6 0.0000 0.0000 0.0000 0.0000 0.0000 7.7071
#
#
#
# Elastic Compliance Matrix: (Units=1/GPa)
#
#
# Indices 1 2 3 4 5 6 
#
# 1 0.033051 -0.010458 -0.016011 0.000000 0.000000 0.000000
# 2 -0.010458 0.014585 0.001846 0.000000 0.000000 0.000000
# 3 -0.016011 0.001846 0.062590 0.000000 0.000000 0.000000
# 4 0.000000 0.000000 0.000000 0.059917 0.000000 0.000000
# 5 0.000000 0.000000 0.000000 0.000000 0.086656 0.000000
# 6 0.000000 0.000000 0.000000 0.000000 0.000000 0.129750
#
#
# Mechanical properties :
#
#
# Convention : Reuss Voigt Hill
#
# Bulk Modulus (GPa) = 16.39876 27.57047 21.98462
# Shear Modulus (GPa) = 10.96196 14.31686 12.63941
#
# Velocity S-wave (km/s) = 2.53841 2.90096 2.72572
# Velocity P-wave (km/s) = 4.26975 5.23708 4.77796
#
# Compressibility (1/GPa) = 0.06098021
#
# Stress axis : x y z
#
# Youngs Moduli (GPa) = 30.25629 68.56168 15.97697
#
# Poissons Ratio (x) = 0.71702 0.25581
# Poissons Ratio (y) = 0.31642 -0.02949
# Poissons Ratio (z) = 0.48444 -0.12657
#
# Static dielectric constant tensor:
#      x y z
#    x 1.565110 0.000000 0.000000 
#    y 0.000000 1.608210 0.000000 
#    z 0.000000 0.000000 1.573090 
# 
# From -- ./inp_files/8776.got.cif
#   From: 2010.05.17/outbox.cif.g08.bks.cpg/sg71_5_cif.got.tgz:8776.got - 2010.06.03 16:22:01.
