data_PCOD9520414
_publ_section_title
;
Structure prediction by ZEFSAII (Michael W. Deem and Ramdas Pophale) SiO2 
 PCOD9520414
Probable space group: I M M M
;
_chemical_formula_sum "Si O2"
_cell_formula_units_Z 96
_cell_length_a 15.006587
_cell_length_b 13.533465
_cell_length_c 21.578702
_cell_angle_alpha 90.000000
_cell_angle_beta 90.000000
_cell_angle_gamma 90.000000
_cell_volume 4382.442756
_symmetry_space_group_name_H-M "I M M M"
_symmetry_group_IT_number 71
_symmetry_cell_setting 'orthorhombic'
loop_
_space_group_symop_operation_xyz
x,y,z
-x,-y,z
x,-y,-z
-x,y,-z
-x,-y,-z
x,y,-z
-x,y,z
x,-y,z
1/2+x,1/2+y,1/2+z
1/2-x,1/2-y,1/2+z
1/2+x,1/2-y,1/2-z
1/2-x,1/2+y,1/2-z
1/2-x,1/2-y,1/2-z
1/2+x,1/2+y,1/2-z
1/2-x,1/2+y,1/2+z
1/2+x,1/2-y,1/2+z
loop_
_atom_site_type_symbol
_atom_site_label
_atom_site_fract_x
_atom_site_fract_y
_atom_site_fract_z
Si Si1 0.348531 0.891905 0.074998
Si Si2 0.639804 0.390063 0.394640
Si Si3 0.099390 0.117475 0.749455
Si Si4 0.747501 0.389090 0.841021
Si Si5 0.096546 0.825775 0.573938
Si Si6 0.600886 0.819785 0.568914
O O1 0.246669 0.885398 0.097430
O O2 0.395155 0.789836 0.093371
O O3 0.384444 0.000000 0.094749
O O4 0.348390 0.892269 0.000000
O O5 0.611831 0.500000 0.414235
O O6 0.614376 0.376773 0.322821
O O7 0.600574 0.298968 0.431426
O O8 0.186333 0.158533 0.713449
O O9 0.000000 0.158163 0.735207
O O10 0.097284 0.000000 0.733927
O O11 0.770852 0.500000 0.821377
O O12 0.675575 0.385823 0.896193
O O13 0.834753 0.344874 0.873607
O O14 0.103053 0.828127 0.500000
O O15 0.000000 0.864731 0.592303
O O16 0.632224 0.853298 0.500000
O O17 0.500000 0.856223 0.577951
#
# Coordination Sequence:
#
# PCOD9520414 Si02
#       6
#    16  16  16  16  16  16
#     4   9  17  31  53  81 116 156 190 225 282 352
#     4  10  19  35  61  89 119 152 187 231 286 347
#     4   9  19  36  59  88 118 149 190 238 289 346
#     4  11  23  40  60  79 109 153 197 244 294 334
#     4  10  20  34  54  82 113 145 189 242 291 342
#     4  11  24  40  59  87 120 152 192 239 289 349
#
# _framework density 21.905591000000001
#
# number of rings (size 3 to 8) (size 9 to 14) (size 15 to 20)
#    0.000    2.000    1.667    2.000    0.000    5.667 
#    0.000    4.167    0.000    0.000    0.000    4.667 
#    0.000    0.000    0.000    0.000    0.000    0.000 
#
# Total GULP energy -267685.241551 kJ/mol
# GULP energy per Si atom -5576.775866 kJ/mol
# Density = 2.185573 g / cm^3
# Si number density = 21.905591 Si / 1000 Ang^3
#
#
#
# Elastic Constant Matrix: (Units=GPa)
#
#
# Indices 1 2 3 4 5 6 
#
# 1 90.9263 12.8929 8.0228 0.0000 0.0000 0.0000
# 2 12.8929 38.2800 11.5173 0.0000 0.0000 0.0000
# 3 8.0228 11.5173 42.0366 0.0000 0.0000 0.0000
# 4 0.0000 0.0000 0.0000 21.0008 0.0000 0.0000
# 5 0.0000 0.0000 0.0000 0.0000 69.6066 0.0000
# 6 0.0000 0.0000 0.0000 0.0000 0.0000 -8.1777
#
#
#
# Elastic Compliance Matrix: (Units=1/GPa)
#
#
# Indices 1 2 3 4 5 6 
#
# 1 0.011609 -0.003535 -0.001247 0.000000 0.000000 0.000000
# 2 -0.003535 0.029546 -0.007421 0.000000 0.000000 0.000000
# 3 -0.001247 -0.007421 0.026060 0.000000 0.000000 0.000000
# 4 0.000000 0.000000 0.000000 0.047617 0.000000 0.000000
# 5 0.000000 0.000000 0.000000 0.000000 0.014366 0.000000
# 6 0.000000 0.000000 0.000000 0.000000 0.000000 -0.122284
#
#
# Mechanical properties :
#
#
# Convention : Reuss Voigt Hill
#
# Bulk Modulus (GPa) = 23.35877 26.23432 24.79654
# Shear Modulus (GPa) = 109.67236 25.73994 67.70615
#
# Velocity S-wave (km/s) = 7.08340 3.43160 5.56554
# Velocity P-wave (km/s) = 8.80829 5.26339 7.25566
#
# Compressibility (1/GPa) = 0.04281047
#
# Stress axis : x y z
#
# Youngs Moduli (GPa) = 86.13875 33.84502 38.37306
#
# Poissons Ratio (x) = 0.11963 0.04786
# Poissons Ratio (y) = 0.30448 0.28475
# Poissons Ratio (z) = 0.10743 0.25115
#
# Static dielectric constant tensor:
#      x y z
#    x 1.824540 0.000000 0.000000 
#    y 0.000000 1.842520 0.000000 
#    z 0.000000 0.000000 1.805010 
# 
# From -- ./inp_files/37832.got.cif
#   From: 2010.05.17/outbox.cif.g08.bks.cpg/sg71_19_cif.got.tgz:37832.got - 2010.06.03 16:22:01.
