data_PCOD9520960
_publ_section_title
;
Structure prediction by ZEFSAII (Michael W. Deem and Ramdas Pophale) SiO2 
 PCOD9520960
Probable space group: I M M M
;
_chemical_formula_sum "Si O2"
_cell_formula_units_Z 104
_cell_length_a 8.703672
_cell_length_b 29.245825
_cell_length_c 25.032864
_cell_angle_alpha 90.000000
_cell_angle_beta 90.000000
_cell_angle_gamma 90.000000
_cell_volume 6372.017106
_symmetry_space_group_name_H-M "I M M M"
_symmetry_group_IT_number 71
_symmetry_cell_setting 'orthorhombic'
loop_
_space_group_symop_operation_xyz
x,y,z
-x,-y,z
x,-y,-z
-x,y,-z
-x,-y,-z
x,y,-z
-x,y,z
x,-y,z
1/2+x,1/2+y,1/2+z
1/2-x,1/2-y,1/2+z
1/2+x,1/2-y,1/2-z
1/2-x,1/2+y,1/2-z
1/2-x,1/2-y,1/2-z
1/2+x,1/2+y,1/2-z
1/2-x,1/2+y,1/2+z
1/2+x,1/2-y,1/2+z
loop_
_atom_site_type_symbol
_atom_site_label
_atom_site_fract_x
_atom_site_fract_y
_atom_site_fract_z
Si Si1 0.313141 0.052966 0.262965
Si Si2 0.187433 0.500000 0.061573
Si Si3 0.314516 0.946855 0.857555
Si Si4 0.187790 0.409404 0.126125
Si Si5 0.177320 0.276430 0.564794
Si Si6 0.816504 0.127040 0.938168
Si Si7 0.685367 0.820106 0.562231
O O1 0.500000 0.053710 0.262763
O O2 0.264332 0.065498 0.203015
O O3 0.261825 0.083532 0.312676
O O4 0.269570 0.000000 0.272864
O O5 0.235120 0.454082 0.092359
O O6 0.000000 0.500000 0.061707
O O7 0.237105 0.500000 0.000000
O O8 0.500000 0.944444 0.859268
O O9 0.247175 0.912795 0.900916
O O10 0.271973 0.000000 0.866879
O O11 0.238137 0.362831 0.097723
O O12 0.000000 0.409044 0.125801
O O13 0.185323 0.275899 0.500000
O O14 0.259915 0.323174 0.581198
O O15 0.253098 0.228773 0.581792
O O16 0.000000 0.277939 0.580765
O O17 0.000000 0.126373 0.937797
O O18 0.764622 0.121085 0.000000
O O19 0.731488 0.826755 0.500000
O O20 0.500000 0.818807 0.563097
#
# Coordination Sequence:
#
# PCOD9520960 Si02
#       7
#    16   8  16  16  16  16  16
#     4   8  13  24  41  61  86 120 162 197 224 258
#     4   9  14  18  28  54  93 129 156 187 232 278
#     4   9  18  31  48  70  95 123 155 188 218 257
#     4   9  14  21  36  59  90 126 158 192 231 270
#     4   9  17  30  48  67  88 118 154 187 221 269
#     4  10  20  33  50  72  96 119 142 175 225 278
#     4   9  16  25  39  64  96 124 152 190 235 275
#
# _framework density 16.321362000000001
#
# number of rings (size 3 to 8) (size 9 to 14) (size 15 to 20)
#    0.000    3.000    0.769    2.308    0.000    5.231 
#    0.000    1.538    0.000    1.846    0.000    0.538 
#    0.000    3.077    0.000    0.000    0.000    0.000 
#
# Total GULP energy -289608.084828 kJ/mol
# GULP energy per Si atom -5569.386247 kJ/mol
# Density = 1.628421 g / cm^3
# Si number density = 16.321362 Si / 1000 Ang^3
#
#
#
# Elastic Constant Matrix: (Units=GPa)
#
#
# Indices 1 2 3 4 5 6 
#
# 1 12.2714 32.2515 22.4051 0.0000 0.0000 0.0000
# 2 32.2515 155.4412 94.0828 0.0000 0.0000 0.0000
# 3 22.4051 94.0828 107.0547 0.0001 0.0000 0.0000
# 4 0.0000 0.0000 0.0001 10.3159 0.0000 0.0000
# 5 0.0000 0.0000 0.0000 0.0000 7.2476 0.0000
# 6 0.0000 0.0000 0.0000 0.0000 0.0000 17.7362
#
#
#
# Elastic Compliance Matrix: (Units=1/GPa)
#
#
# Indices 1 2 3 4 5 6 
#
# 1 0.184715 -0.031890 -0.010633 0.000000 0.000000 0.000000
# 2 -0.031890 0.019250 -0.010243 0.000000 0.000000 0.000000
# 3 -0.010633 -0.010243 0.020568 0.000000 0.000000 0.000000
# 4 0.000000 0.000000 0.000000 0.096938 0.000000 0.000000
# 5 0.000000 0.000000 0.000000 0.000000 0.137977 0.000000
# 6 0.000000 0.000000 0.000000 0.000000 0.000000 0.056382
#
#
# Mechanical properties :
#
#
# Convention : Reuss Voigt Hill
#
# Bulk Modulus (GPa) = 8.40323 63.58290 35.99307
# Shear Modulus (GPa) = 7.56399 15.46182 11.51290
#
# Velocity S-wave (km/s) = 2.15510 3.08122 2.65880
# Velocity P-wave (km/s) = 3.36933 7.19027 5.61482
#
# Compressibility (1/GPa) = 0.11900180
#
# Stress axis : x y z
#
# Youngs Moduli (GPa) = 5.41375 51.94914 48.61876
#
# Poissons Ratio (x) = 1.65664 0.51695
# Poissons Ratio (y) = 0.17264 0.49800
# Poissons Ratio (z) = 0.05756 0.53212
#
# Static dielectric constant tensor:
#      x y z
#    x 1.559170 0.000000 0.000000 
#    y 0.000000 1.532530 0.000000 
#    z 0.000000 0.000000 1.550240 
# 
# From -- ./inp_files/58218.got.cif
#   From: 2010.05.17/outbox.cif.g08.bks.cpg/sg71_30_cif.got.tgz:58218.got - 2010.06.03 16:22:01.
