data_PCOD9520405
_publ_section_title
;
Structure prediction by ZEFSAII (Michael W. Deem and Ramdas Pophale) SiO2 
 PCOD9520405
Probable space group: I M M M
;
_chemical_formula_sum "Si O2"
_cell_formula_units_Z 96
_cell_length_a 12.498701
_cell_length_b 22.751373
_cell_length_c 18.951371
_cell_angle_alpha 90.000000
_cell_angle_beta 90.000000
_cell_angle_gamma 90.000000
_cell_volume 5389.061292
_symmetry_space_group_name_H-M "I M M M"
_symmetry_group_IT_number 71
_symmetry_cell_setting 'orthorhombic'
loop_
_space_group_symop_operation_xyz
x,y,z
-x,-y,z
x,-y,-z
-x,y,-z
-x,-y,-z
x,y,-z
-x,y,z
x,-y,z
1/2+x,1/2+y,1/2+z
1/2-x,1/2-y,1/2+z
1/2+x,1/2-y,1/2-z
1/2-x,1/2+y,1/2-z
1/2-x,1/2-y,1/2-z
1/2+x,1/2+y,1/2-z
1/2-x,1/2+y,1/2+z
1/2+x,1/2-y,1/2+z
loop_
_atom_site_type_symbol
_atom_site_label
_atom_site_fract_x
_atom_site_fract_y
_atom_site_fract_z
Si Si1 0.872006 0.255529 0.082553
Si Si2 0.309044 0.128692 0.338586
Si Si3 0.872548 0.068601 0.417932
Si Si4 0.500000 0.567483 0.414240
Si Si5 0.719495 0.627663 0.583843
Si Si6 0.500000 0.930426 0.421511
Si Si7 0.871269 0.430036 0.306209
O O1 0.837245 0.305307 0.137753
O O2 0.802343 0.196914 0.093849
O O3 0.000000 0.243417 0.089746
O O4 0.856335 0.273997 0.000000
O O5 0.193396 0.110212 0.366930
O O6 0.395432 0.090424 0.381557
O O7 0.326333 0.108699 0.258589
O O8 0.844105 0.080192 0.500000
O O9 0.000000 0.075355 0.411083
O O10 0.846570 0.000000 0.403774
O O11 0.500000 0.500000 0.393319
O O12 0.500000 0.571186 0.500000
O O13 0.390904 0.597637 0.390737
O O14 0.730793 0.617526 0.500000
O O15 0.816465 0.597813 0.624975
O O16 0.500000 0.905005 0.500000
O O17 0.500000 0.000000 0.424775
O O18 0.845672 0.500000 0.298735
O O19 0.000000 0.425283 0.307325
#
# Coordination Sequence:
#
# PCOD9520405 Si02
#       7
#    16  16  16   8  16   8  16
#     4  10  19  35  60  90 122 155 193 244 298 349
#     4  12  21  35  56  84 121 160 197 240 288 354
#     4   9  18  33  52  75 109 154 201 248 294 341
#     4   9  16  31  59  89 111 132 175 246 308 351
#     4  10  21  39  62  87 114 149 197 249 304 364
#     4  11  20  29  51  85 116 151 199 248 289 334
#     4  11  24  41  59  83 121 161 196 247 308 356
#
# _framework density 17.813863000000001
#
# number of rings (size 3 to 8) (size 9 to 14) (size 15 to 20)
#    0.000    1.667    2.500    4.000    0.000    3.333 
#    1.500    1.667    0.000    1.000    0.000    0.000 
#    0.000    0.000    0.000    0.000    0.000    0.000 
#
# Total GULP energy -267866.569421 kJ/mol
# GULP energy per Si atom -5580.553530 kJ/mol
# Density = 1.777332 g / cm^3
# Si number density = 17.813863 Si / 1000 Ang^3
#
#
#
# Elastic Constant Matrix: (Units=GPa)
#
#
# Indices 1 2 3 4 5 6 
#
# 1 52.7912 28.7012 29.8539 0.0000 0.0000 0.0000
# 2 28.7012 91.1348 41.7892 0.0000 0.0000 0.0000
# 3 29.8539 41.7892 73.3659 0.0000 0.0000 0.0000
# 4 0.0000 0.0000 0.0000 27.0839 0.0000 0.0000
# 5 0.0000 0.0000 0.0000 0.0000 34.0263 0.0000
# 6 0.0000 0.0000 0.0000 0.0000 0.0000 33.4183
#
#
#
# Elastic Compliance Matrix: (Units=1/GPa)
#
#
# Indices 1 2 3 4 5 6 
#
# 1 0.025899 -0.004499 -0.007976 0.000000 0.000000 0.000000
# 2 -0.004499 0.015633 -0.007074 0.000000 0.000000 0.000000
# 3 -0.007976 -0.007074 0.020905 0.000000 0.000000 0.000000
# 4 0.000000 0.000000 0.000000 0.036922 0.000000 0.000000
# 5 0.000000 0.000000 0.000000 0.000000 0.029389 0.000000
# 6 0.000000 0.000000 0.000000 0.000000 0.000000 0.029924
#
#
# Mechanical properties :
#
#
# Convention : Reuss Voigt Hill
#
# Bulk Modulus (GPa) = 42.84607 46.44230 44.64418
# Shear Modulus (GPa) = 24.32485 26.70223 25.51354
#
# Velocity S-wave (km/s) = 3.69928 3.87584 3.78859
# Velocity P-wave (km/s) = 6.50773 6.79389 6.65235
#
# Compressibility (1/GPa) = 0.02333937
#
# Stress axis : x y z
#
# Youngs Moduli (GPa) = 38.61128 63.96565 47.83469
#
# Poissons Ratio (x) = 0.28778 0.38154
# Poissons Ratio (y) = 0.17371 0.33838
# Poissons Ratio (z) = 0.30797 0.45250
#
# Static dielectric constant tensor:
#      x y z
#    x 1.589340 0.000000 0.000000 
#    y 0.000000 1.615070 0.000000 
#    z 0.000000 0.000000 1.620680 
# 
# From -- ./inp_files/43582.got.cif
#   From: 2010.05.17/outbox.cif.g08.bks.cpg/sg71_22_cif.got.tgz:43582.got - 2010.06.03 16:22:01.
