data_PCOD9520712
_publ_section_title
;
Structure prediction by ZEFSAII (Michael W. Deem and Ramdas Pophale) SiO2 
 PCOD9520712
Probable space group: I M M M
;
_chemical_formula_sum "Si O2"
_cell_formula_units_Z 112
_cell_length_a 19.833355
_cell_length_b 16.062635
_cell_length_c 18.590377
_cell_angle_alpha 90.000000
_cell_angle_beta 90.000000
_cell_angle_gamma 90.000000
_cell_volume 5922.446868
_symmetry_space_group_name_H-M "I M M M"
_symmetry_group_IT_number 71
_symmetry_cell_setting 'orthorhombic'
loop_
_space_group_symop_operation_xyz
x,y,z
-x,-y,z
x,-y,-z
-x,y,-z
-x,-y,-z
x,y,-z
-x,y,z
x,-y,z
1/2+x,1/2+y,1/2+z
1/2-x,1/2-y,1/2+z
1/2+x,1/2-y,1/2-z
1/2-x,1/2+y,1/2-z
1/2-x,1/2-y,1/2-z
1/2+x,1/2+y,1/2-z
1/2-x,1/2+y,1/2+z
1/2+x,1/2-y,1/2+z
loop_
_atom_site_type_symbol
_atom_site_label
_atom_site_fract_x
_atom_site_fract_y
_atom_site_fract_z
Si Si1 0.141070 0.899677 0.921251
Si Si2 0.424868 0.860174 0.684673
Si Si3 0.925663 0.594930 0.346597
Si Si4 0.206543 0.899175 0.294053
Si Si5 0.301612 0.899510 0.418480
Si Si6 0.075802 0.166237 0.778328
Si Si7 0.219963 0.398343 0.647045
O O1 0.094462 0.871913 0.855960
O O2 0.217879 0.872934 0.903415
O O3 0.141214 0.000000 0.921607
O O4 0.120062 0.869632 0.000000
O O5 0.500000 0.876967 0.656076
O O6 0.417484 0.908673 0.759874
O O7 0.368752 0.878310 0.625962
O O8 0.420931 0.764741 0.709876
O O9 0.928183 0.500000 0.373924
O O10 0.854724 0.633359 0.371948
O O11 0.000000 0.633211 0.360834
O O12 0.239627 0.870871 0.368443
O O13 0.133527 0.863269 0.275914
O O14 0.256201 0.875138 0.227790
O O15 0.202392 0.000000 0.292951
O O16 0.301652 0.867562 0.500000
O O17 0.297722 0.000000 0.421337
O O18 0.000000 0.142786 0.756883
O O19 0.216681 0.500000 0.645507
#
# Coordination Sequence:
#
# PCOD9520712 Si02
#       7
#    16  16  16  16  16  16  16
#     4   9  18  32  49  68  92 123 157 194 238 293
#     4  10  20  32  47  71 103 133 161 197 241 290
#     4   9  15  25  45  69  92 121 158 196 232 273
#     4   9  17  32  52  73  97 125 166 215 253 293
#     4  10  20  34  52  73 101 138 174 208 249 295
#     4  10  21  34  50  73 100 129 161 202 252 299
#     4   8  13  25  45  67  89 115 151 195 238 273
#
# _framework density 18.911102
#
# number of rings (size 3 to 8) (size 9 to 14) (size 15 to 20)
#    0.000    2.714    1.429    1.714    0.000    3.714 
#    0.000    2.857    0.000    0.857    0.000    5.000 
#    0.000    3.429    0.000    0.143    0.000    0.000 
#
# Total GULP energy -312120.415295 kJ/mol
# GULP energy per Si atom -5573.578845 kJ/mol
# Density = 1.886806 g / cm^3
# Si number density = 18.911102 Si / 1000 Ang^3
#
#
#
# Elastic Constant Matrix: (Units=GPa)
#
#
# Indices 1 2 3 4 5 6 
#
# 1 125.2575 8.1616 4.2814 0.0000 0.0000 0.0000
# 2 8.1616 14.2509 3.2099 0.0000 0.0000 0.0000
# 3 4.2814 3.2099 27.2412 0.0000 0.0000 0.0000
# 4 0.0000 0.0000 0.0000 1.7017 0.0000 0.0000
# 5 0.0000 0.0000 0.0000 0.0000 15.2398 0.0000
# 6 0.0000 0.0000 0.0000 0.0000 0.0000 1.5422
#
#
#
# Elastic Compliance Matrix: (Units=1/GPa)
#
#
# Indices 1 2 3 4 5 6 
#
# 1 0.008309 -0.004586 -0.000765 0.000000 0.000000 0.000000
# 2 -0.004586 0.074616 -0.008071 0.000000 0.000000 0.000000
# 3 -0.000765 -0.008071 0.037781 0.000000 0.000000 0.000000
# 4 0.000000 0.000000 0.000000 0.587655 0.000000 0.000000
# 5 0.000000 0.000000 0.000000 0.000000 0.065618 0.000000
# 6 0.000000 0.000000 0.000000 0.000000 0.000000 0.648422
#
#
# Mechanical properties :
#
#
# Convention : Reuss Voigt Hill
#
# Bulk Modulus (GPa) = 10.65429 22.00616 16.33022
# Shear Modulus (GPa) = 3.37717 13.76985 8.57351
#
# Velocity S-wave (km/s) = 1.33779 2.70133 2.13153
# Velocity P-wave (km/s) = 2.83414 4.62509 3.83561
#
# Compressibility (1/GPa) = 0.09385888
#
# Stress axis : x y z
#
# Youngs Moduli (GPa) = 120.35821 13.40203 26.46868
#
# Poissons Ratio (x) = 0.06146 0.02026
# Poissons Ratio (y) = 0.55196 0.21364
# Poissons Ratio (z) = 0.09213 0.10817
#
# Static dielectric constant tensor:
#      x y z
#    x 1.687530 0.000000 0.000000 
#    y 0.000000 2.286110 0.000000 
#    z 0.000000 0.000000 1.654510 
# 
# From -- ./inp_files/54286.got.cif
#   From: 2010.05.17/outbox.cif.g08.bks.cpg/sg71_28_cif.got.tgz:54286.got - 2010.06.03 16:22:01.
