data_PCOD9520787
_publ_section_title
;
Structure prediction by ZEFSAII (Michael W. Deem and Ramdas Pophale) SiO2 
 PCOD9520787
Probable space group: I M M M
;
_chemical_formula_sum "Si O2"
_cell_formula_units_Z 104
_cell_length_a 32.418304
_cell_length_b 7.398868
_cell_length_c 19.567800
_cell_angle_alpha 90.000000
_cell_angle_beta 90.000000
_cell_angle_gamma 90.000000
_cell_volume 4693.508089
_symmetry_space_group_name_H-M "I M M M"
_symmetry_group_IT_number 71
_symmetry_cell_setting 'orthorhombic'
loop_
_space_group_symop_operation_xyz
x,y,z
-x,-y,z
x,-y,-z
-x,y,-z
-x,-y,-z
x,y,-z
-x,y,z
x,-y,z
1/2+x,1/2+y,1/2+z
1/2-x,1/2-y,1/2+z
1/2+x,1/2-y,1/2-z
1/2-x,1/2+y,1/2-z
1/2-x,1/2-y,1/2-z
1/2+x,1/2+y,1/2-z
1/2-x,1/2+y,1/2+z
1/2+x,1/2-y,1/2+z
loop_
_atom_site_type_symbol
_atom_site_label
_atom_site_fract_x
_atom_site_fract_y
_atom_site_fract_z
Si Si1 0.916305 0.217374 0.075451
Si Si2 0.170614 0.278885 0.420790
Si Si3 0.677874 0.280020 0.577038
Si Si4 0.748279 0.783963 0.830532
Si Si5 0.500000 0.219874 0.921497
Si Si6 0.414327 0.779859 0.851141
Si Si7 0.545479 0.786688 0.719051
O O1 0.869215 0.279860 0.087167
O O2 0.943331 0.265790 0.140238
O O3 0.915511 0.000000 0.072983
O O4 0.929882 0.280122 0.000000
O O5 0.175698 0.223896 0.500000
O O6 0.170670 0.500000 0.420978
O O7 0.207817 0.219037 0.371301
O O8 0.126769 0.218639 0.389551
O O9 0.690749 0.230389 0.500000
O O10 0.677030 0.500000 0.579217
O O11 0.710531 0.215286 0.632174
O O12 0.750000 0.750000 0.750000
O O13 0.748071 0.000000 0.839012
O O14 0.542731 0.275939 0.886474
O O15 0.500000 0.000000 0.918841
O O16 0.500000 0.275207 0.000000
O O17 0.419937 0.720894 0.772212
O O18 0.412359 0.000000 0.854133
O O19 0.500000 0.709910 0.732911
O O20 0.542798 0.000000 0.732483
#
# Coordination Sequence:
#
# PCOD9520787 Si02
#       7
#    16  16  16  16   8  16  16
#     4   9  19  35  54  74  94 123 168 214 249 287
#     4   9  17  29  47  71  97 128 167 206 241 282
#     4   8  15  31  53  72  93 125 164 203 242 287
#     4  10  20  32  49  75 103 130 161 199 244 293
#     4   9  14  22  40  64  94 131 164 194 233 281
#     4   9  16  27  42  66  99 131 162 197 239 285
#     4  10  20  33  49  71 104 139 162 192 247 306
#
# _framework density 22.158265
#
# number of rings (size 3 to 8) (size 9 to 14) (size 15 to 20)
#    0.000    2.846    0.769    1.846    2.154    4.615 
#    0.000    1.538    0.000    2.769    0.000    0.000 
#    0.000    2.462    0.000    0.000    0.000    0.000 
#
# Total GULP energy -290285.982647 kJ/mol
# GULP energy per Si atom -5582.422743 kJ/mol
# Density = 2.210783 g / cm^3
# Si number density = 22.158265 Si / 1000 Ang^3
#
#
#
# Elastic Constant Matrix: (Units=GPa)
#
#
# Indices 1 2 3 4 5 6 
#
# 1 81.3440 1.5767 70.2678 0.0000 0.0000 0.0000
# 2 1.5767 71.7704 -3.9633 0.0000 0.0000 0.0000
# 3 70.2678 -3.9633 168.4262 0.0000 0.0000 0.0000
# 4 0.0000 0.0000 0.0000 -8.4292 0.0000 0.0000
# 5 0.0000 0.0000 0.0000 0.0000 39.9577 0.0000
# 6 0.0000 0.0000 0.0000 0.0000 0.0000 -5.7117
#
#
#
# Elastic Compliance Matrix: (Units=1/GPa)
#
#
# Indices 1 2 3 4 5 6 
#
# 1 0.019274 -0.000869 -0.008062 0.000000 0.000000 0.000000
# 2 -0.000869 0.013991 0.000692 0.000000 0.000000 0.000000
# 3 -0.008062 0.000692 0.009317 0.000000 0.000000 0.000000
# 4 0.000000 0.000000 0.000000 -0.118635 0.000000 0.000000
# 5 0.000000 0.000000 0.000000 0.000000 0.025026 0.000000
# 6 0.000000 0.000000 0.000000 0.000000 0.000000 -0.175079
#
#
# Mechanical properties :
#
#
# Convention : Reuss Voigt Hill
#
# Bulk Modulus (GPa) = 38.30773 50.81146 44.55960
# Shear Modulus (GPa) = -24.88473 22.07397 -1.40538
#
# Velocity S-wave (km/s) = -3.35482 3.15968 -0.79726
# Velocity P-wave (km/s) = 1.52293 6.02432 4.39384
#
# Compressibility (1/GPa) = 0.02610439
#
# Stress axis : x y z
#
# Youngs Moduli (GPa) = 51.88251 71.47656 107.33108
#
# Poissons Ratio (x) = 0.06209 0.86527
# Poissons Ratio (y) = 0.04507 -0.07423
# Poissons Ratio (z) = 0.41826 -0.04943
#
# Static dielectric constant tensor:
#      x y z
#    x 1.783550 0.000000 0.000000 
#    y 0.000000 1.851980 0.000000 
#    z 0.000000 0.000000 1.798950 
# 
# From -- ./inp_files/48819.got.cif
#   From: 2010.05.17/outbox.cif.g08.bks.cpg/sg71_25_cif.got.tgz:48819.got - 2010.06.03 16:22:01.
