data_PCOD9520667
_publ_section_title
;
Structure prediction by ZEFSAII (Michael W. Deem and Ramdas Pophale) SiO2 
 PCOD9520667
Probable space group: I M M M
;
_chemical_formula_sum "Si O2"
_cell_formula_units_Z 96
_cell_length_a 27.806271
_cell_length_b 13.704268
_cell_length_c 14.765257
_cell_angle_alpha 90.000000
_cell_angle_beta 90.000000
_cell_angle_gamma 90.000000
_cell_volume 5626.516603
_symmetry_space_group_name_H-M "I M M M"
_symmetry_group_IT_number 71
_symmetry_cell_setting 'orthorhombic'
loop_
_space_group_symop_operation_xyz
x,y,z
-x,-y,z
x,-y,-z
-x,y,-z
-x,-y,-z
x,y,-z
-x,y,z
x,-y,z
1/2+x,1/2+y,1/2+z
1/2-x,1/2-y,1/2+z
1/2+x,1/2-y,1/2-z
1/2-x,1/2+y,1/2-z
1/2-x,1/2-y,1/2-z
1/2+x,1/2+y,1/2-z
1/2-x,1/2+y,1/2+z
1/2+x,1/2-y,1/2+z
loop_
_atom_site_type_symbol
_atom_site_label
_atom_site_fract_x
_atom_site_fract_y
_atom_site_fract_z
Si Si1 0.870711 0.883033 0.901295
Si Si2 0.129170 0.215708 0.278743
Si Si3 0.284855 0.616792 0.893082
Si Si4 0.056333 0.109827 0.391528
Si Si5 0.696035 0.116941 0.727338
Si Si6 0.258402 0.617563 0.597417
O O1 0.890751 0.838946 0.810183
O O2 0.814122 0.855483 0.896606
O O3 0.873717 0.000000 0.898518
O O4 0.889226 0.850930 0.000000
O O5 0.175239 0.164391 0.327626
O O6 0.087172 0.197705 0.350793
O O7 0.148312 0.319716 0.242883
O O8 0.289339 0.500000 0.881428
O O9 0.230949 0.641870 0.857484
O O10 0.291591 0.637503 0.000000
O O11 0.060437 0.111658 0.500000
O O12 0.000000 0.117096 0.368365
O O13 0.073487 0.000000 0.362694
O O14 0.728193 0.143023 0.815339
O O15 0.687337 0.000000 0.725754
O O16 0.238850 0.651567 0.500000
O O17 0.258062 0.500000 0.595610
#
# Coordination Sequence:
#
# PCOD9520667 Si02
#       6
#    16  16  16  16  16  16
#     4   9  17  28  44  68  97 126 159 200 243 291
#     4  12  20  30  51  76  93 130 176 212 240 294
#     4  10  20  32  46  69 102 134 165 207 253 293
#     4   9  19  36  57  81 106 127 151 195 256 311
#     4  10  21  34  43  63 100 136 169 206 243 282
#     4   8  14  26  41  56  84 125 160 191 228 272
#
# _framework density 17.062066999999999
#
# number of rings (size 3 to 8) (size 9 to 14) (size 15 to 20)
#    0.000    2.333    1.667    4.000    0.000    3.333 
#    0.000    0.000    0.000    1.000    0.000    3.500 
#    0.000    0.000    0.000    5.667    0.000    0.167 
#
# Total GULP energy -267404.402789 kJ/mol
# GULP energy per Si atom -5570.925058 kJ/mol
# Density = 1.702323 g / cm^3
# Si number density = 17.062067 Si / 1000 Ang^3
#
#
#
# Elastic Constant Matrix: (Units=GPa)
#
#
# Indices 1 2 3 4 5 6 
#
# 1 39.4375 18.2738 8.6238 0.0000 0.0000 0.0000
# 2 18.2738 61.5880 7.9649 0.0000 0.0000 0.0000
# 3 8.6238 7.9649 77.4514 0.0000 0.0000 0.0000
# 4 0.0000 0.0000 0.0000 2.3741 0.0000 0.0000
# 5 0.0000 0.0000 0.0000 0.0000 21.7709 0.0000
# 6 0.0000 0.0000 0.0000 0.0000 0.0000 16.8386
#
#
#
# Elastic Compliance Matrix: (Units=1/GPa)
#
#
# Indices 1 2 3 4 5 6 
#
# 1 0.029848 -0.008540 -0.002445 0.000000 0.000000 0.000000
# 2 -0.008540 0.018899 -0.000993 0.000000 0.000000 0.000000
# 3 -0.002445 -0.000993 0.013286 0.000000 0.000000 0.000000
# 4 0.000000 0.000000 0.000000 0.421216 0.000000 0.000000
# 5 0.000000 0.000000 0.000000 0.000000 0.045933 0.000000
# 6 0.000000 0.000000 0.000000 0.000000 0.000000 0.059387
#
#
# Mechanical properties :
#
#
# Convention : Reuss Voigt Hill
#
# Bulk Modulus (GPa) = 26.26232 27.57799 26.92015
# Shear Modulus (GPa) = 7.99721 17.77100 12.88411
#
# Velocity S-wave (km/s) = 2.16733 3.23081 2.75095
# Velocity P-wave (km/s) = 4.65711 5.48780 5.08943
#
# Compressibility (1/GPa) = 0.03807737
#
# Stress axis : x y z
#
# Youngs Moduli (GPa) = 33.50256 52.91212 75.26909
#
# Poissons Ratio (x) = 0.45188 0.18405
# Poissons Ratio (y) = 0.28612 0.07472
# Poissons Ratio (z) = 0.08192 0.05252
#
# Static dielectric constant tensor:
#      x y z
#    x 1.558540 0.000000 0.000000 
#    y 0.000000 1.626750 0.000000 
#    z 0.000000 0.000000 1.638580 
# 
# From -- ./inp_files/41014.got.cif
#   From: 2010.05.17/outbox.cif.g08.bks.cpg/sg71_21_cif.got.tgz:41014.got - 2010.06.03 16:22:01.
