data_PCOD9520903
_publ_section_title
;
Structure prediction by ZEFSAII (Michael W. Deem and Ramdas Pophale) SiO2 
 PCOD9520903
Probable space group: I M M M
;
_chemical_formula_sum "Si O2"
_cell_formula_units_Z 96
_cell_length_a 7.395984
_cell_length_b 26.005662
_cell_length_c 22.721217
_cell_angle_alpha 90.000000
_cell_angle_beta 90.000000
_cell_angle_gamma 90.000000
_cell_volume 4370.141167
_symmetry_space_group_name_H-M "I M M M"
_symmetry_group_IT_number 71
_symmetry_cell_setting 'orthorhombic'
loop_
_space_group_symop_operation_xyz
x,y,z
-x,-y,z
x,-y,-z
-x,y,-z
-x,-y,-z
x,y,-z
-x,y,z
x,-y,z
1/2+x,1/2+y,1/2+z
1/2-x,1/2-y,1/2+z
1/2+x,1/2-y,1/2-z
1/2-x,1/2+y,1/2-z
1/2-x,1/2-y,1/2-z
1/2+x,1/2+y,1/2-z
1/2-x,1/2+y,1/2+z
1/2+x,1/2-y,1/2+z
loop_
_atom_site_type_symbol
_atom_site_label
_atom_site_fract_x
_atom_site_fract_y
_atom_site_fract_z
Si Si1 0.210823 0.556037 0.908560
Si Si2 0.782029 0.087641 0.722317
Si Si3 0.779790 0.056578 0.144950
Si Si4 0.278910 0.740258 0.500000
Si Si5 0.279428 0.335645 0.603387
Si Si6 0.779176 0.359465 0.000000
Si Si7 0.714770 0.692391 0.267150
O O1 0.289796 0.500000 0.924240
O O2 0.221005 0.562588 0.838181
O O3 0.280109 0.605920 0.943824
O O4 0.000000 0.553931 0.924503
O O5 0.726169 0.065577 0.786322
O O6 0.720943 0.147293 0.724256
O O7 0.000000 0.083896 0.721115
O O8 0.724069 0.104307 0.103779
O O9 0.000000 0.057305 0.145534
O O10 0.720852 0.000000 0.126231
O O11 0.500000 0.741622 0.500000
O O12 0.220676 0.705534 0.444604
O O13 0.218466 0.799838 0.500000
O O14 0.500000 0.335552 0.600847
O O15 0.217934 0.317196 0.667353
O O16 0.000000 0.356217 0.000000
O O17 0.500000 0.685050 0.269956
O O18 0.750000 0.750000 0.250000
#
# Coordination Sequence:
#
# PCOD9520903 Si02
#       7
#    16  16  16   8  16   8  16
#     4  10  20  33  49  70  94 119 156 204 243 281
#     4   9  18  31  47  70  96 125 158 189 230 287
#     4   8  13  24  42  62  88 122 152 180 223 274
#     4   9  16  27  43  62  87 120 157 191 226 275
#     4   8  15  26  40  63  90 115 150 192 224 263
#     4   9  19  32  46  63  86 123 159 192 243 290
#     4   9  18  30  46  69  97 124 154 193 233 277
#
# _framework density 21.967252999999999
#
# number of rings (size 3 to 8) (size 9 to 14) (size 15 to 20)
#    0.000    3.167    0.000    2.750    2.333    2.667 
#    0.000    0.833    0.000    3.500    0.000    0.583 
#    0.000    0.000    0.000    0.000    0.000   36.417 
#
# Total GULP energy -267582.001233 kJ/mol
# GULP energy per Si atom -5574.625026 kJ/mol
# Density = 2.191725 g / cm^3
# Si number density = 21.967253 Si / 1000 Ang^3
#
#
#
# Elastic Constant Matrix: (Units=GPa)
#
#
# Indices 1 2 3 4 5 6 
#
# 1 70.8816 3.9331 2.2726 0.0000 0.0000 0.0000
# 2 3.9331 254.3002 83.2531 0.0000 0.0000 0.0000
# 3 2.2726 83.2531 85.8456 0.0000 0.0000 0.0000
# 4 0.0000 0.0000 0.0000 24.8097 0.0000 0.0000
# 5 0.0000 0.0000 0.0000 0.0000 -14.8991 0.0000
# 6 0.0000 0.0000 0.0000 0.0000 0.0000 1.1958
#
#
#
# Elastic Compliance Matrix: (Units=1/GPa)
#
#
# Indices 1 2 3 4 5 6 
#
# 1 0.014123 -0.000141 -0.000237 0.000000 0.000000 0.000000
# 2 -0.000141 0.005763 -0.005585 0.000000 0.000000 0.000000
# 3 -0.000237 -0.005585 0.017072 0.000000 0.000000 0.000000
# 4 0.000000 0.000000 0.000000 0.040307 0.000000 0.000000
# 5 0.000000 0.000000 0.000000 0.000000 -0.067118 0.000000
# 6 0.000000 0.000000 0.000000 0.000000 0.000000 0.836247
#
#
# Mechanical properties :
#
#
# Convention : Reuss Voigt Hill
#
# Bulk Modulus (GPa) = 39.94989 65.54945 52.74967
# Shear Modulus (GPa) = 5.76924 23.65919 14.71422
#
# Velocity S-wave (km/s) = 1.62234 3.28536 2.59091
# Velocity P-wave (km/s) = 4.66207 6.65551 5.74590
#
# Compressibility (1/GPa) = 0.02503136
#
# Stress axis : x y z
#
# Youngs Moduli (GPa) = 70.80424 173.51902 58.57639
#
# Poissons Ratio (x) = 0.02441 0.01391
# Poissons Ratio (y) = 0.00996 0.32717
# Poissons Ratio (z) = 0.01681 0.96915
#
# Static dielectric constant tensor:
#      x y z
#    x 1.900590 0.000000 0.000000 
#    y 0.000000 1.750940 0.000000 
#    z 0.000000 0.000000 1.775530 
# 
# From -- ./inp_files/59107.got.cif
#   From: 2010.05.17/outbox.cif.g08.bks.cpg/sg71_30_cif.got.tgz:59107.got - 2010.06.03 16:22:01.
