data_PCOD9520402
_publ_section_title
;
Structure prediction by ZEFSAII (Michael W. Deem and Ramdas Pophale) SiO2 
 PCOD9520402
Probable space group: I M M M
;
_chemical_formula_sum "Si O2"
_cell_formula_units_Z 90
_cell_length_a 7.758299
_cell_length_b 21.559552
_cell_length_c 28.701649
_cell_angle_alpha 90.000000
_cell_angle_beta 90.000000
_cell_angle_gamma 90.000000
_cell_volume 4800.794256
_symmetry_space_group_name_H-M "I M M M"
_symmetry_group_IT_number 71
_symmetry_cell_setting 'orthorhombic'
loop_
_space_group_symop_operation_xyz
x,y,z
-x,-y,z
x,-y,-z
-x,y,-z
-x,-y,-z
x,y,-z
-x,y,z
x,-y,z
1/2+x,1/2+y,1/2+z
1/2-x,1/2-y,1/2+z
1/2+x,1/2-y,1/2-z
1/2-x,1/2+y,1/2-z
1/2-x,1/2-y,1/2-z
1/2+x,1/2+y,1/2-z
1/2-x,1/2+y,1/2+z
1/2+x,1/2-y,1/2+z
loop_
_atom_site_type_symbol
_atom_site_label
_atom_site_fract_x
_atom_site_fract_y
_atom_site_fract_z
Si Si1 0.792059 0.700243 0.687497
Si Si2 0.706903 0.796832 0.083698
Si Si3 0.295271 0.569683 0.136748
Si Si4 0.709457 0.109102 0.000000
Si Si5 0.705874 0.661964 0.214673
Si Si6 0.500000 0.500000 0.500000
Si Si7 0.297050 0.841783 0.447598
O O1 0.732354 0.684905 0.635466
O O2 0.739583 0.656741 0.730361
O O3 0.728059 0.770065 0.699150
O O4 0.000000 0.701321 0.687505
O O5 0.500000 0.791088 0.085638
O O6 0.771130 0.728868 0.069214
O O7 0.745161 0.847852 0.045001
O O8 0.500000 0.564062 0.144343
O O9 0.224258 0.500000 0.132590
O O10 0.224432 0.608926 0.180638
O O11 0.273875 0.610671 0.090443
O O12 0.845082 0.053609 0.000000
O O13 0.500000 0.093846 0.000000
O O14 0.500000 0.663944 0.208239
O O15 0.224437 0.848546 0.500000
O O16 0.500000 0.853356 0.449845
#
# Coordination Sequence:
#
# PCOD9520402 Si02
#       7
#    16  16  16   8  16   2  16
#     4   9  17  30  52  81 111 139 180 236 294 341
#     4  10  19  35  60  89 117 151 194 243 292 346
#     4  10  21  38  58  76 106 155 203 239 288 357
#     4  10  23  41  67  94 122 164 203 243 300 357
#     4   9  17  31  50  78 108 141 182 233 289 344
#     4  12  26  44  68  90 132 160 200 248 280 398
#     4  11  23  35  53  83 119 149 188 247 299 343
#
# _framework density 18.746897000000001
#
# number of rings (size 3 to 8) (size 9 to 14) (size 15 to 20)
#    0.000    2.133    2.667    0.667    1.244    3.200 
#    0.000    1.778    1.956    0.000    0.000    0.000 
#    0.000    0.000    0.000    0.000    0.000    0.000 
#
# Total GULP energy -250689.533886 kJ/mol
# GULP energy per Si atom -5570.878531 kJ/mol
# Density = 1.870423 g / cm^3
# Si number density = 18.746897 Si / 1000 Ang^3
#
#
#
# Elastic Constant Matrix: (Units=GPa)
#
#
# Indices 1 2 3 4 5 6 
#
# 1 35.3856 28.5066 15.6637 0.0000 0.0000 0.0000
# 2 28.5066 123.5800 75.6963 0.0000 0.0000 0.0000
# 3 15.6637 75.6963 182.1626 0.0000 0.0000 0.0000
# 4 0.0000 0.0000 0.0000 6.9096 0.0000 0.0000
# 5 0.0000 0.0000 0.0000 0.0000 19.7728 0.0000
# 6 0.0000 0.0000 0.0000 0.0000 0.0000 16.3900
#
#
#
# Elastic Compliance Matrix: (Units=1/GPa)
#
#
# Indices 1 2 3 4 5 6 
#
# 1 0.034739 -0.008295 0.000460 0.000000 0.000000 0.000000
# 2 -0.008295 0.012836 -0.004620 0.000000 0.000000 0.000000
# 3 0.000460 -0.004620 0.007370 0.000000 0.000000 0.000000
# 4 0.000000 0.000000 0.000000 0.144726 0.000000 0.000000
# 5 0.000000 0.000000 0.000000 0.000000 0.050574 0.000000
# 6 0.000000 0.000000 0.000000 0.000000 0.000000 0.061013
#
#
# Mechanical properties :
#
#
# Convention : Reuss Voigt Hill
#
# Bulk Modulus (GPa) = 33.29637 64.54015 48.91826
# Shear Modulus (GPa) = 14.44333 23.36525 18.90429
#
# Velocity S-wave (km/s) = 2.77869 3.53420 3.17897
# Velocity P-wave (km/s) = 5.30041 7.15234 6.29485
#
# Compressibility (1/GPa) = 0.03003331
#
# Stress axis : x y z
#
# Youngs Moduli (GPa) = 28.78610 77.90891 135.68427
#
# Poissons Ratio (x) = 0.64625 -0.06239
# Poissons Ratio (y) = 0.23878 0.62692
# Poissons Ratio (z) = -0.01324 0.35997
#
# Static dielectric constant tensor:
#      x y z
#    x 1.683020 0.000000 0.000000 
#    y 0.000000 1.625240 0.000000 
#    z 0.000000 0.000000 1.692230 
# 
# From -- ./inp_files/63226.got.cif
#   From: 2010.05.17/outbox.cif.g08.bks.cpg/sg71_32_cif.got.tgz:63226.got - 2010.06.03 16:22:01.
