data_PCOD9520398
_publ_section_title
;
Structure prediction by ZEFSAII (Michael W. Deem and Ramdas Pophale) SiO2 
 PCOD9520398
Probable space group: I M M M
;
_chemical_formula_sum "Si O2"
_cell_formula_units_Z 96
_cell_length_a 16.511459
_cell_length_b 15.110972
_cell_length_c 18.664217
_cell_angle_alpha 90.000000
_cell_angle_beta 90.000000
_cell_angle_gamma 90.000000
_cell_volume 4656.800431
_symmetry_space_group_name_H-M "I M M M"
_symmetry_group_IT_number 71
_symmetry_cell_setting 'orthorhombic'
loop_
_space_group_symop_operation_xyz
x,y,z
-x,-y,z
x,-y,-z
-x,y,-z
-x,-y,-z
x,y,-z
-x,y,z
x,-y,z
1/2+x,1/2+y,1/2+z
1/2-x,1/2-y,1/2+z
1/2+x,1/2-y,1/2-z
1/2-x,1/2+y,1/2-z
1/2-x,1/2-y,1/2-z
1/2+x,1/2+y,1/2-z
1/2-x,1/2+y,1/2+z
1/2+x,1/2-y,1/2+z
loop_
_atom_site_type_symbol
_atom_site_label
_atom_site_fract_x
_atom_site_fract_y
_atom_site_fract_z
Si Si1 0.874410 0.099083 0.755438
Si Si2 0.408188 0.854055 0.417794
Si Si3 0.409009 0.780312 0.811094
Si Si4 0.313890 0.902256 0.710945
Si Si5 0.813438 0.601657 0.581184
Si Si6 0.122588 0.856302 0.919516
O O1 0.908037 0.176571 0.705573
O O2 0.776735 0.107694 0.741846
O O3 0.900067 0.109402 0.839396
O O4 0.896497 0.000000 0.733228
O O5 0.404799 0.883304 0.500000
O O6 0.500000 0.875082 0.390525
O O7 0.333649 0.893474 0.372902
O O8 0.397824 0.747561 0.417736
O O9 0.500000 0.810869 0.821091
O O10 0.368871 0.825259 0.742247
O O11 0.356051 0.821738 0.874176
O O12 0.341868 0.000000 0.732448
O O13 0.843568 0.603827 0.500000
O O14 0.824191 0.500000 0.607483
O O15 0.718100 0.622564 0.580195
O O16 0.093960 0.887970 0.000000
#
# Coordination Sequence:
#
# PCOD9520398 Si02
#       6
#    16  16  16  16  16  16
#     4  11  23  40  62  87 116 153 200 249 292 344
#     4  10  21  36  55  83 120 160 200 242 290 347
#     4  12  24  38  59  87 121 157 191 238 299 353
#     4  11  22  37  59  85 114 153 197 242 291 347
#     4  10  21  38  62  92 122 154 196 242 290 352
#     4  10  19  35  60  86 116 155 198 242 291 345
#
# _framework density 20.615013000000001
#
# number of rings (size 3 to 8) (size 9 to 14) (size 15 to 20)
#    0.000    1.333    3.333    3.000    0.000    4.333 
#    0.000    1.667    0.000    3.000    0.000   12.833 
#    0.000    0.000    0.000    0.000    0.000    0.000 
#
# Total GULP energy -267619.094739 kJ/mol
# GULP energy per Si atom -5575.397807 kJ/mol
# Density = 2.056809 g / cm^3
# Si number density = 20.615013 Si / 1000 Ang^3
#
#
#
# Elastic Constant Matrix: (Units=GPa)
#
#
# Indices 1 2 3 4 5 6 
#
# 1 66.9823 28.9909 33.3554 0.0000 0.0000 0.0000
# 2 28.9909 101.1824 27.6984 0.0000 0.0000 0.0000
# 3 33.3554 27.6984 113.2426 0.0000 0.0000 0.0000
# 4 0.0000 0.0000 0.0000 53.4594 0.0000 0.0000
# 5 0.0000 0.0000 0.0000 0.0000 -14.4824 0.0000
# 6 0.0000 0.0000 0.0000 0.0000 0.0000 -68.6315
#
#
#
# Elastic Compliance Matrix: (Units=1/GPa)
#
#
# Indices 1 2 3 4 5 6 
#
# 1 0.019026 -0.004198 -0.004577 0.000000 0.000000 0.000000
# 2 -0.004198 0.011519 -0.001581 0.000000 0.000000 0.000000
# 3 -0.004577 -0.001581 0.010565 0.000000 0.000000 0.000000
# 4 0.000000 0.000000 0.000000 0.018706 0.000000 0.000000
# 5 0.000000 0.000000 0.000000 0.000000 -0.069049 0.000000
# 6 0.000000 0.000000 0.000000 0.000000 0.000000 -0.014571
#
#
# Mechanical properties :
#
#
# Convention : Reuss Voigt Hill
#
# Bulk Modulus (GPa) = 49.02568 51.27740 50.15154
# Shear Modulus (GPa) = 1348.61893 6.82661 677.72277
#
# Velocity S-wave (km/s) = 25.60494 1.82172 18.15119
# Velocity P-wave (km/s) = 29.96637 5.41781 21.53296
#
# Compressibility (1/GPa) = 0.02039747
#
# Stress axis : x y z
#
# Youngs Moduli (GPa) = 52.56057 86.81470 94.64826
#
# Poissons Ratio (x) = 0.36447 0.43321
# Poissons Ratio (y) = 0.22066 0.14962
# Poissons Ratio (z) = 0.24058 0.13724
#
# Static dielectric constant tensor:
#      x y z
#    x 1.733520 0.000000 0.000000 
#    y 0.000000 1.762690 0.000000 
#    z 0.000000 0.000000 1.813060 
# 
# From -- ./inp_files/52988.got.cif
#   From: 2010.05.17/outbox.cif.g08.bks.cpg/sg71_27_cif.got.tgz:52988.got - 2010.06.03 16:22:01.
