data_PCOD9520360
_publ_section_title
;
Structure prediction by ZEFSAII (Michael W. Deem and Ramdas Pophale) SiO2 
 PCOD9520360
Probable space group: I M M M
;
_chemical_formula_sum "Si O2"
_cell_formula_units_Z 64
_cell_length_a 10.245637
_cell_length_b 20.406274
_cell_length_c 16.074587
_cell_angle_alpha 90.000000
_cell_angle_beta 90.000000
_cell_angle_gamma 90.000000
_cell_volume 3360.798712
_symmetry_space_group_name_H-M "I M M M"
_symmetry_group_IT_number 71
_symmetry_cell_setting 'orthorhombic'
loop_
_space_group_symop_operation_xyz
x,y,z
-x,-y,z
x,-y,-z
-x,y,-z
-x,-y,-z
x,y,-z
-x,y,z
x,-y,z
1/2+x,1/2+y,1/2+z
1/2-x,1/2-y,1/2+z
1/2+x,1/2-y,1/2-z
1/2-x,1/2+y,1/2-z
1/2-x,1/2-y,1/2-z
1/2+x,1/2+y,1/2-z
1/2-x,1/2+y,1/2+z
1/2+x,1/2-y,1/2+z
loop_
_atom_site_type_symbol
_atom_site_label
_atom_site_fract_x
_atom_site_fract_y
_atom_site_fract_z
Si Si1 0.000000 0.618631 0.500000
Si Si2 0.211208 0.270532 0.500000
Si Si3 0.847542 0.214346 0.317204
Si Si4 0.000000 0.816678 0.000000
Si Si5 0.500000 0.076091 0.813591
Si Si6 0.000000 0.071002 0.133428
Si Si7 0.730667 0.576005 0.234686
O O1 0.131732 0.661483 0.500000
O O2 0.000000 0.582256 0.587515
O O3 0.171712 0.239201 0.588414
O O4 0.366821 0.276944 0.500000
O O5 0.750000 0.250000 0.250000
O O6 0.819671 0.136092 0.320386
O O7 0.000000 0.225185 0.292996
O O8 0.000000 0.865742 0.077401
O O9 0.368018 0.100667 0.772055
O O10 0.500000 0.000000 0.793790
O O11 0.127361 0.072770 0.190657
O O12 0.000000 0.000000 0.090404
O O13 0.739613 0.500000 0.202178
#
# Coordination Sequence:
#
# PCOD9520360 Si02
#       7
#     4   8  16   4   8   8  16
#     4  12  19  38  56  84 131 172 198 260 322 376
#     4  12  28  40  60  95 132 163 223 268 314 391
#     4  12  25  44  68  95 130 173 216 271 328 382
#     4  12  23  38  56  88 129 176 200 258 332 380
#     4  10  21  35  58  92 125 164 212 252 315 395
#     4  10  19  35  58  90 121 162 214 256 309 389
#     4  10  22  39  63  90 122 166 216 264 316 381
#
# _framework density 19.043094
#
# number of rings (size 3 to 8) (size 9 to 14) (size 15 to 20)
#    0.000    1.000    2.500    4.875    3.500    0.000 
#    0.000    5.625    0.000    1.500    0.000    3.500 
#    0.000    0.000    0.000    0.000    0.000    0.000 
#
# Total GULP energy -178427.576416 kJ/mol
# GULP energy per Si atom -5575.861763 kJ/mol
# Density = 1.899975 g / cm^3
# Si number density = 19.043094 Si / 1000 Ang^3
#
#
#
# Elastic Constant Matrix: (Units=GPa)
#
#
# Indices 1 2 3 4 5 6 
#
# 1 165.4223 23.8449 23.8291 0.0000 0.0000 0.0000
# 2 23.8449 70.4858 19.8443 0.0000 0.0000 0.0000
# 3 23.8291 19.8443 64.3122 0.0000 0.0000 0.0000
# 4 0.0000 0.0000 0.0000 27.3762 0.0000 0.0000
# 5 0.0000 0.0000 0.0000 0.0000 27.1162 0.0000
# 6 0.0000 0.0000 0.0000 0.0000 0.0000 51.6436
#
#
#
# Elastic Compliance Matrix: (Units=1/GPa)
#
#
# Indices 1 2 3 4 5 6 
#
# 1 0.006563 -0.001682 -0.001913 0.000000 0.000000 0.000000
# 2 -0.001682 0.015968 -0.004304 0.000000 0.000000 0.000000
# 3 -0.001913 -0.004304 0.017586 0.000000 0.000000 0.000000
# 4 0.000000 0.000000 0.000000 0.036528 0.000000 0.000000
# 5 0.000000 0.000000 0.000000 0.000000 0.036878 0.000000
# 6 0.000000 0.000000 0.000000 0.000000 0.000000 0.019363
#
#
# Mechanical properties :
#
#
# Convention : Reuss Voigt Hill
#
# Bulk Modulus (GPa) = 41.11867 48.36187 44.74027
# Shear Modulus (GPa) = 31.88969 36.74067 34.31518
#
# Velocity S-wave (km/s) = 4.09664 4.39719 4.24957
# Velocity P-wave (km/s) = 6.63445 7.15762 6.90099
#
# Compressibility (1/GPa) = 0.02431985
#
# Stress axis : x y z
#
# Youngs Moduli (GPa) = 152.36713 62.62566 56.86356
#
# Poissons Ratio (x) = 0.10532 0.10877
# Poissons Ratio (y) = 0.25624 0.24474
# Poissons Ratio (z) = 0.29146 0.26954
#
# Static dielectric constant tensor:
#      x y z
#    x 1.716160 0.000000 0.000000 
#    y 0.000000 1.715630 0.000000 
#    z 0.000000 0.000000 1.642100 
# 
# From -- ./inp_files/31257.got.cif
#   From: 2010.05.17/outbox.cif.g08.bks.cpg/sg71_16_cif.got.tgz:31257.got - 2010.06.03 16:22:01.
