data_PCOD9520257
_publ_section_title
;
Structure prediction by ZEFSAII (Michael W. Deem and Ramdas Pophale) SiO2 
 PCOD9520257
Probable space group: I M M M
;
_chemical_formula_sum "Si O2"
_cell_formula_units_Z 60
_cell_length_a 19.426887
_cell_length_b 14.557826
_cell_length_c 10.906960
_cell_angle_alpha 90.000000
_cell_angle_beta 90.000000
_cell_angle_gamma 90.000000
_cell_volume 3084.632703
_symmetry_space_group_name_H-M "I M M M"
_symmetry_group_IT_number 71
_symmetry_cell_setting 'orthorhombic'
loop_
_space_group_symop_operation_xyz
x,y,z
-x,-y,z
x,-y,-z
-x,y,-z
-x,-y,-z
x,y,-z
-x,y,z
x,-y,z
1/2+x,1/2+y,1/2+z
1/2-x,1/2-y,1/2+z
1/2+x,1/2-y,1/2-z
1/2-x,1/2+y,1/2-z
1/2-x,1/2-y,1/2-z
1/2+x,1/2+y,1/2-z
1/2-x,1/2+y,1/2+z
1/2+x,1/2-y,1/2+z
loop_
_atom_site_type_symbol
_atom_site_label
_atom_site_fract_x
_atom_site_fract_y
_atom_site_fract_z
Si Si1 0.709132 0.800412 0.639676
Si Si2 0.246525 0.000000 0.702379
Si Si3 0.875648 0.000000 0.143881
Si Si4 0.921482 0.200729 0.500000
Si Si5 0.918639 0.201974 0.773064
Si Si6 0.872178 0.000000 0.500000
O O1 0.737191 0.788705 0.500000
O O2 0.750000 0.750000 0.750000
O O3 0.712615 0.907876 0.673017
O O4 0.632398 0.759553 0.642521
O O5 0.206999 0.000000 0.832117
O O6 0.180023 0.000000 0.613336
O O7 0.906108 0.093976 0.200109
O O8 0.890446 0.000000 0.000000
O O9 0.894384 0.226054 0.633821
O O10 0.917202 0.090439 0.500000
O O11 0.000000 0.231980 0.500000
O O12 0.000000 0.220238 0.785931
#
# Coordination Sequence:
#
# PCOD9520257 Si02
#       6
#    16   8   8   8  16   4
#     4  12  25  41  66  93 128 167 214 261 315 376
#     4  12  24  40  61  90 126 165 211 256 310 375
#     4  12  23  37  58  94 128 161 200 262 330 381
#     4  10  19  34  60  91 118 158 203 247 312 389
#     4  11  24  40  63  92 128 166 209 261 321 383
#     4  12  15  34  60  82 117 148 198 250 304 356
#
# _framework density 19.451263000000001
#
# number of rings (size 3 to 8) (size 9 to 14) (size 15 to 20)
#    0.000    0.533    6.667    1.400    1.867    4.800 
#    0.000    0.667    0.000    1.600    0.000    2.800 
#    0.000    0.000    0.000    0.000    0.000    0.000 
#
# Total GULP energy -167388.933570 kJ/mol
# GULP energy per Si atom -5579.631119 kJ/mol
# Density = 1.940699 g / cm^3
# Si number density = 19.451263 Si / 1000 Ang^3
#
#
#
# Elastic Constant Matrix: (Units=GPa)
#
#
# Indices 1 2 3 4 5 6 
#
# 1 100.8961 47.0699 30.7802 0.0000 0.0000 0.0000
# 2 47.0699 107.8683 34.6977 0.0000 0.0000 0.0000
# 3 30.7802 34.6977 121.2783 0.0000 0.0000 0.0000
# 4 0.0000 0.0000 0.0000 18.7993 0.0000 0.0000
# 5 0.0000 0.0000 0.0000 0.0000 28.2179 0.0000
# 6 0.0000 0.0000 0.0000 0.0000 0.0000 22.7365
#
#
#
# Elastic Compliance Matrix: (Units=1/GPa)
#
#
# Indices 1 2 3 4 5 6 
#
# 1 0.012798 -0.005000 -0.001818 0.000000 0.000000 0.000000
# 2 -0.005000 0.012164 -0.002211 0.000000 0.000000 0.000000
# 3 -0.001818 -0.002211 0.009339 0.000000 0.000000 0.000000
# 4 0.000000 0.000000 0.000000 0.053193 0.000000 0.000000
# 5 0.000000 0.000000 0.000000 0.000000 0.035439 0.000000
# 6 0.000000 0.000000 0.000000 0.000000 0.000000 0.043982
#
#
# Mechanical properties :
#
#
# Convention : Reuss Voigt Hill
#
# Bulk Modulus (GPa) = 61.56170 61.68203 61.62186
# Shear Modulus (GPa) = 26.26222 28.45040 27.35631
#
# Velocity S-wave (km/s) = 3.67843 3.82861 3.75427
# Velocity P-wave (km/s) = 7.05401 7.16409 7.10927
#
# Compressibility (1/GPa) = 0.01624387
#
# Stress axis : x y z
#
# Youngs Moduli (GPa) = 78.13534 82.21245 107.07346
#
# Poissons Ratio (x) = 0.41107 0.19462
# Poissons Ratio (y) = 0.39068 0.23674
# Poissons Ratio (z) = 0.14202 0.18177
#
# Static dielectric constant tensor:
#      x y z
#    x 1.679900 0.000000 0.000000 
#    y 0.000000 1.634900 0.000000 
#    z 0.000000 0.000000 1.798630 
# 
# From -- ./inp_files/19414.got.cif
#   From: 2010.05.17/outbox.cif.g08.bks.cpg/sg71_10_cif.got.tgz:19414.got - 2010.06.03 16:22:01.
