data_PCOD9520814
_publ_section_title
;
Structure prediction by ZEFSAII (Michael W. Deem and Ramdas Pophale) SiO2 
 PCOD9520814
Probable space group: I M M M
;
_chemical_formula_sum "Si O2"
_cell_formula_units_Z 88
_cell_length_a 19.737037
_cell_length_b 8.311859
_cell_length_c 28.467424
_cell_angle_alpha 90.000000
_cell_angle_beta 90.000000
_cell_angle_gamma 90.000000
_cell_volume 4670.122715
_symmetry_space_group_name_H-M "I M M M"
_symmetry_group_IT_number 71
_symmetry_cell_setting 'orthorhombic'
loop_
_space_group_symop_operation_xyz
x,y,z
-x,-y,z
x,-y,-z
-x,y,-z
-x,-y,-z
x,y,-z
-x,y,z
x,-y,z
1/2+x,1/2+y,1/2+z
1/2-x,1/2-y,1/2+z
1/2+x,1/2-y,1/2-z
1/2-x,1/2+y,1/2-z
1/2-x,1/2-y,1/2-z
1/2+x,1/2+y,1/2-z
1/2-x,1/2+y,1/2+z
1/2+x,1/2-y,1/2+z
loop_
_atom_site_type_symbol
_atom_site_label
_atom_site_fract_x
_atom_site_fract_y
_atom_site_fract_z
Si Si1 0.211221 0.191174 0.703914
Si Si2 0.923422 0.190984 0.848443
Si Si3 0.576188 0.191369 0.756766
Si Si4 0.161356 0.184107 0.443984
Si Si5 0.290599 0.192003 0.612192
Si Si6 0.421339 0.000000 0.942536
O O1 0.250000 0.250000 0.750000
O O2 0.133425 0.240409 0.709479
O O3 0.248900 0.253561 0.657687
O O4 0.215002 0.000000 0.702522
O O5 0.906888 0.267399 0.797575
O O6 0.865138 0.234790 0.885218
O O7 0.000000 0.242960 0.861254
O O8 0.923804 0.000000 0.841885
O O9 0.500000 0.253126 0.765507
O O10 0.576117 0.000000 0.761237
O O11 0.153635 0.177877 0.500000
O O12 0.239298 0.220406 0.430537
O O13 0.115580 0.334168 0.426984
O O14 0.146310 0.000000 0.425987
O O15 0.299420 0.000000 0.616208
O O16 0.500000 0.000000 0.928327
O O17 0.419190 0.000000 0.000000
#
# Coordination Sequence:
#
# PCOD9520814 Si02
#       6
#    16  16  16  16  16   8
#     4  11  21  33  50  74 103 134 173 217 259 311
#     4  10  20  32  50  77 104 136 179 222 266 315
#     4  10  20  34  50  69  99 138 177 218 263 309
#     4   9  19  37  59  84 113 144 181 226 274 323
#     4  10  21  35  54  79 104 138 178 219 268 320
#     4   9  18  34  58  88 115 143 181 221 270 328
#
# _framework density 18.843188000000001
#
# number of rings (size 3 to 8) (size 9 to 14) (size 15 to 20)
#    0.000    2.091    1.818    1.636    1.273    3.273 
#    0.000    2.727    0.000    3.818    0.000    3.818 
#    0.000    0.000    0.000    0.000    0.000    0.000 
#
# Total GULP energy -245389.280922 kJ/mol
# GULP energy per Si atom -5577.029112 kJ/mol
# Density = 1.880030 g / cm^3
# Si number density = 18.843188 Si / 1000 Ang^3
#
#
#
# Elastic Constant Matrix: (Units=GPa)
#
#
# Indices 1 2 3 4 5 6 
#
# 1 123.9391 45.5656 6.3047 0.0000 0.0000 0.0000
# 2 45.5656 70.8842 12.2602 0.0000 0.0000 0.0000
# 3 6.3047 12.2602 5.3094 0.0000 0.0000 0.0000
# 4 0.0000 0.0000 0.0000 13.5821 0.0000 0.0000
# 5 0.0000 0.0000 0.0000 0.0000 24.8031 0.0000
# 6 0.0000 0.0000 0.0000 0.0000 0.0000 34.3295
#
#
#
# Elastic Compliance Matrix: (Units=1/GPa)
#
#
# Indices 1 2 3 4 5 6 
#
# 1 0.010653 -0.007759 0.005266 0.000000 0.000000 0.000000
# 2 -0.007759 0.029139 -0.058074 0.000000 0.000000 0.000000
# 3 0.005266 -0.058074 0.316191 0.000000 0.000000 0.000000
# 4 0.000000 0.000000 0.000000 0.073626 0.000000 0.000000
# 5 0.000000 0.000000 0.000000 0.000000 0.040317 0.000000
# 6 0.000000 0.000000 0.000000 0.000000 0.000000 0.029129
#
#
# Mechanical properties :
#
#
# Convention : Reuss Voigt Hill
#
# Bulk Modulus (GPa) = 4.25802 36.48818 20.37310
# Shear Modulus (GPa) = 7.15847 23.60977 15.38412
#
# Velocity S-wave (km/s) = 1.95121 3.54356 2.86042
# Velocity P-wave (km/s) = 2.70941 6.01237 4.66313
#
# Compressibility (1/GPa) = 0.23485076
#
# Stress axis : x y z
#
# Youngs Moduli (GPa) = 93.86958 34.31775 3.16264
#
# Poissons Ratio (x) = 0.26626 -0.01665
# Poissons Ratio (y) = 0.72831 0.18367
# Poissons Ratio (z) = -0.49432 1.99296
#
# Static dielectric constant tensor:
#      x y z
#    x 1.676480 0.000000 0.000000 
#    y 0.000000 1.663140 0.000000 
#    z 0.000000 0.000000 1.639920 
# 
# From -- ./inp_files/49249.got.cif
#   From: 2010.05.17/outbox.cif.g08.bks.cpg/sg71_25_cif.got.tgz:49249.got - 2010.06.03 16:22:01.
