data_PCOD9520372
_publ_section_title
;
Structure prediction by ZEFSAII (Michael W. Deem and Ramdas Pophale) SiO2 
 PCOD9520372
Probable space group: I M M M
;
_chemical_formula_sum "Si O2"
_cell_formula_units_Z 104
_cell_length_a 30.416617
_cell_length_b 21.226027
_cell_length_c 7.656506
_cell_angle_alpha 90.000000
_cell_angle_beta 90.000000
_cell_angle_gamma 90.000000
_cell_volume 4943.223522
_symmetry_space_group_name_H-M "I M M M"
_symmetry_group_IT_number 71
_symmetry_cell_setting 'orthorhombic'
loop_
_space_group_symop_operation_xyz
x,y,z
-x,-y,z
x,-y,-z
-x,y,-z
-x,-y,-z
x,y,-z
-x,y,z
x,-y,z
1/2+x,1/2+y,1/2+z
1/2-x,1/2-y,1/2+z
1/2+x,1/2-y,1/2-z
1/2-x,1/2+y,1/2-z
1/2-x,1/2-y,1/2-z
1/2+x,1/2+y,1/2-z
1/2-x,1/2+y,1/2+z
1/2+x,1/2-y,1/2+z
loop_
_atom_site_type_symbol
_atom_site_label
_atom_site_fract_x
_atom_site_fract_y
_atom_site_fract_z
Si Si1 0.176632 0.879792 0.200270
Si Si2 0.085721 0.853236 0.298351
Si Si3 0.229432 0.000000 0.214571
Si Si4 0.051354 0.717473 0.285882
Si Si5 0.500000 0.427318 0.290456
Si Si6 0.331697 0.000000 0.214307
Si Si7 0.801419 0.256610 0.208148
Si Si8 0.131406 0.366825 0.705922
O O1 0.124744 0.890133 0.203912
O O2 0.204460 0.937020 0.276768
O O3 0.180441 0.809905 0.278178
O O4 0.192196 0.873883 0.000000
O O5 0.098502 0.846480 0.500000
O O6 0.072928 0.783885 0.228816
O O7 0.042196 0.893398 0.284283
O O8 0.280348 0.000000 0.264239
O O9 0.227011 0.000000 0.000000
O O10 0.050870 0.718325 0.500000
O O11 0.085965 0.664039 0.226610
O O12 0.000000 0.711723 0.231886
O O13 0.500000 0.500000 0.245175
O O14 0.500000 0.420632 0.500000
O O15 0.354434 0.064783 0.275562
O O16 0.332210 0.000000 0.000000
O O17 0.750000 0.250000 0.250000
O O18 0.828659 0.316426 0.276561
O O19 0.807101 0.259975 0.000000
O O20 0.124252 0.375613 0.500000
#
# Coordination Sequence:
#
# PCOD9520372 Si02
#       8
#    16  16   8  16   8   8  16  16
#     4  10  21  36  54  78 109 146 189 233 282 341
#     4  11  21  36  57  81 111 145 185 237 290 338
#     4   9  18  34  53  73 106 148 186 230 283 338
#     4   9  17  32  55  83 114 147 180 226 289 343
#     4  11  25  41  57  79 111 152 195 236 278 336
#     4   9  18  34  58  85 111 147 192 234 286 352
#     4  11  22  35  55  83 114 148 192 241 289 344
#     4  10  19  35  59  84 113 150 194 239 290 351
#
# _framework density 21.038903000000001
#
# number of rings (size 3 to 8) (size 9 to 14) (size 15 to 20)
#    0.000    1.923    2.308    2.077    1.077    3.692 
#    0.000    0.769    0.000    3.231    0.000    0.000 
#    0.000    1.231    0.000    0.000    0.000    0.000 
#
# Total GULP energy -290228.012321 kJ/mol
# GULP energy per Si atom -5581.307929 kJ/mol
# Density = 2.099102 g / cm^3
# Si number density = 21.038903 Si / 1000 Ang^3
#
#
#
# Elastic Constant Matrix: (Units=GPa)
#
#
# Indices 1 2 3 4 5 6 
#
# 1 124.6378 62.0148 7.2748 0.0000 0.0000 0.0000
# 2 62.0148 160.2100 20.9687 0.0000 0.0000 0.0000
# 3 7.2748 20.9687 37.0375 0.0000 0.0000 0.0000
# 4 0.0000 0.0000 0.0000 9.1432 0.0000 0.0000
# 5 0.0000 0.0000 0.0000 0.0000 40.6709 0.0000
# 6 0.0000 0.0000 0.0000 0.0000 0.0000 39.1611
#
#
#
# Elastic Compliance Matrix: (Units=1/GPa)
#
#
# Indices 1 2 3 4 5 6 
#
# 1 0.009939 -0.003879 0.000244 0.000000 0.000000 0.000000
# 2 -0.003879 0.008255 -0.003912 0.000000 0.000000 0.000000
# 3 0.000244 -0.003912 0.029166 0.000000 0.000000 0.000000
# 4 0.000000 0.000000 0.000000 0.109371 0.000000 0.000000
# 5 0.000000 0.000000 0.000000 0.000000 0.024588 0.000000
# 6 0.000000 0.000000 0.000000 0.000000 0.000000 0.025536
#
#
# Mechanical properties :
#
#
# Convention : Reuss Voigt Hill
#
# Bulk Modulus (GPa) = 30.99158 55.82244 43.40701
# Shear Modulus (GPa) = 21.48647 33.23683 27.36165
#
# Velocity S-wave (km/s) = 3.19920 3.97896 3.61019
# Velocity P-wave (km/s) = 5.33002 6.90652 6.16884
#
# Compressibility (1/GPa) = 0.03226683
#
# Stress axis : x y z
#
# Youngs Moduli (GPa) = 100.61211 121.13310 34.28602
#
# Poissons Ratio (x) = 0.46990 -0.00837
# Poissons Ratio (y) = 0.39030 0.13412
# Poissons Ratio (z) = -0.02455 0.47385
#
# Static dielectric constant tensor:
#      x y z
#    x 1.859570 0.000000 0.000000 
#    y 0.000000 1.775600 0.000000 
#    z 0.000000 0.000000 1.843920 
# 
# From -- ./inp_files/17077.got.cif
#   From: 2010.05.17/outbox.cif.g08.bks.cpg/sg71_9_cif.got.tgz:17077.got - 2010.06.03 16:22:01.
