data_PCOD9520346
_publ_section_title
;
Structure prediction by ZEFSAII (Michael W. Deem and Ramdas Pophale) SiO2 
 PCOD9520346
Probable space group: I M M M
;
_chemical_formula_sum "Si O2"
_cell_formula_units_Z 104
_cell_length_a 23.950486
_cell_length_b 8.328923
_cell_length_c 27.225276
_cell_angle_alpha 90.000000
_cell_angle_beta 90.000000
_cell_angle_gamma 90.000000
_cell_volume 5430.945802
_symmetry_space_group_name_H-M "I M M M"
_symmetry_group_IT_number 71
_symmetry_cell_setting 'orthorhombic'
loop_
_space_group_symop_operation_xyz
x,y,z
-x,-y,z
x,-y,-z
-x,y,-z
-x,-y,-z
x,y,-z
-x,y,z
x,-y,z
1/2+x,1/2+y,1/2+z
1/2-x,1/2-y,1/2+z
1/2+x,1/2-y,1/2-z
1/2-x,1/2+y,1/2-z
1/2-x,1/2-y,1/2-z
1/2+x,1/2+y,1/2-z
1/2-x,1/2+y,1/2+z
1/2+x,1/2-y,1/2+z
loop_
_atom_site_type_symbol
_atom_site_label
_atom_site_fract_x
_atom_site_fract_y
_atom_site_fract_z
Si Si1 0.937090 0.806309 0.291086
Si Si2 0.740469 0.806949 0.056658
Si Si3 0.062791 0.692067 0.179637
Si Si4 0.637346 0.305932 0.408043
Si Si5 0.063305 0.196037 0.000000
Si Si6 0.566527 0.818763 0.056129
Si Si7 0.144892 0.181062 0.628110
O O1 0.929974 0.760969 0.234309
O O2 0.885033 0.745213 0.323701
O O3 0.000000 0.749737 0.306306
O O4 0.937156 0.000000 0.295947
O O5 0.800525 0.751469 0.077325
O O6 0.693872 0.761960 0.096727
O O7 0.741935 0.000000 0.053637
O O8 0.731134 0.749146 0.000000
O O9 0.063469 0.500000 0.182463
O O10 0.110596 0.748412 0.142669
O O11 0.000000 0.742400 0.162576
O O12 0.638318 0.500000 0.407252
O O13 0.596260 0.252964 0.451658
O O14 0.000000 0.252442 0.000000
O O15 0.063020 0.000000 0.000000
O O16 0.500000 0.810859 0.056798
O O17 0.593445 0.687659 0.090185
O O18 0.582847 0.000000 0.072253
O O19 0.585420 0.801146 0.000000
O O20 0.162636 0.000000 0.639453
#
# Coordination Sequence:
#
# PCOD9520346 Si02
#       7
#    16  16  16  16   8  16  16
#     4   9  19  37  58  79 106 141 182 229 277 326
#     4  10  21  38  57  78 109 149 192 232 269 318
#     4  10  21  36  56  85 117 144 173 216 275 338
#     4  10  19  35  58  83 110 145 187 226 266 316
#     4   9  16  28  53  87 113 135 174 223 264 313
#     4   9  18  32  49  71 101 137 176 220 274 334
#     4  11  22  34  52  79 107 139 184 232 280 330
#
# _framework density 19.149518
#
# number of rings (size 3 to 8) (size 9 to 14) (size 15 to 20)
#    0.000    2.231    0.769    2.769    0.000    6.769 
#    0.000    3.462    0.000    1.385    0.000    0.000 
#    0.000    0.000    0.000    0.000    0.000    0.000 
#
# Total GULP energy -289918.583435 kJ/mol
# GULP energy per Si atom -5575.357374 kJ/mol
# Density = 1.910593 g / cm^3
# Si number density = 19.149518 Si / 1000 Ang^3
#
#
#
# Elastic Constant Matrix: (Units=GPa)
#
#
# Indices 1 2 3 4 5 6 
#
# 1 131.6403 13.4727 80.1782 0.0000 0.0000 0.0000
# 2 13.4727 11.5162 11.7216 0.0000 0.0000 0.0000
# 3 80.1782 11.7216 110.3263 0.0000 0.0000 0.0000
# 4 0.0000 0.0000 0.0000 13.3993 0.0000 0.0000
# 5 0.0000 0.0000 0.0000 0.0000 32.1655 0.0000
# 6 0.0000 0.0000 0.0000 0.0000 0.0000 20.6292
#
#
#
# Elastic Compliance Matrix: (Units=1/GPa)
#
#
# Indices 1 2 3 4 5 6 
#
# 1 0.014088 -0.006795 -0.009516 0.000000 0.000000 0.000000
# 2 -0.006795 0.100641 -0.005754 0.000000 0.000000 0.000000
# 3 -0.009516 -0.005754 0.016591 0.000000 0.000000 0.000000
# 4 0.000000 0.000000 0.000000 0.074630 0.000000 0.000000
# 5 0.000000 0.000000 0.000000 0.000000 0.031089 0.000000
# 6 0.000000 0.000000 0.000000 0.000000 0.000000 0.048475
#
#
# Mechanical properties :
#
#
# Convention : Reuss Voigt Hill
#
# Bulk Modulus (GPa) = 11.46939 51.58088 31.52513
# Shear Modulus (GPa) = 13.93884 23.11281 18.52583
#
# Velocity S-wave (km/s) = 2.70088 3.47791 3.11373
# Velocity P-wave (km/s) = 3.96595 6.56675 5.42452
#
# Compressibility (1/GPa) = 0.08718860
#
# Stress axis : x y z
#
# Youngs Moduli (GPa) = 70.98208 9.93630 60.27272
#
# Poissons Ratio (x) = 0.06752 0.57358
# Poissons Ratio (y) = 0.48235 0.34682
# Poissons Ratio (z) = 0.67549 0.05717
#
# Static dielectric constant tensor:
#      x y z
#    x 1.683140 0.000000 0.000000 
#    y 0.000000 1.698160 0.000000 
#    z 0.000000 0.000000 1.658000 
# 
# From -- ./inp_files/66804.got.cif
#   From: 2010.05.17/outbox.cif.g08.bks.cpg/sg71_34_cif.got.tgz:66804.got - 2010.06.03 16:22:01.
