data_PCOD9520072
_publ_section_title
;
Structure prediction by ZEFSAII (Michael W. Deem and Ramdas Pophale) SiO2 
 PCOD9520072
Probable space group: I M M M
;
_chemical_formula_sum "Si O2"
_cell_formula_units_Z 120
_cell_length_a 26.138681
_cell_length_b 7.673697
_cell_length_c 28.088616
_cell_angle_alpha 90.000000
_cell_angle_beta 90.000000
_cell_angle_gamma 90.000000
_cell_volume 5634.023529
_symmetry_space_group_name_H-M "I M M M"
_symmetry_group_IT_number 71
_symmetry_cell_setting 'orthorhombic'
loop_
_space_group_symop_operation_xyz
x,y,z
-x,-y,z
x,-y,-z
-x,y,-z
-x,-y,-z
x,y,-z
-x,y,z
x,-y,z
1/2+x,1/2+y,1/2+z
1/2-x,1/2-y,1/2+z
1/2+x,1/2-y,1/2-z
1/2-x,1/2+y,1/2-z
1/2-x,1/2-y,1/2-z
1/2+x,1/2+y,1/2-z
1/2-x,1/2+y,1/2+z
1/2+x,1/2-y,1/2+z
loop_
_atom_site_type_symbol
_atom_site_label
_atom_site_fract_x
_atom_site_fract_y
_atom_site_fract_z
Si Si1 0.577295 0.796700 0.947855
Si Si2 0.141746 0.713828 0.817137
Si Si3 0.748965 0.296518 0.146644
Si Si4 0.940749 0.286325 0.895095
Si Si5 0.803554 0.788456 0.552224
Si Si6 0.345220 0.799671 0.789474
Si Si7 0.562207 0.201698 0.500000
Si Si8 0.555038 0.298954 0.843557
O O1 0.638750 0.780676 0.945356
O O2 0.556796 0.708021 0.900722
O O3 0.563259 0.000000 0.945701
O O4 0.561993 0.727985 0.000000
O O5 0.140027 0.500000 0.817087
O O6 0.197186 0.774408 0.835553
O O7 0.096889 0.769699 0.852924
O O8 0.138680 0.770442 0.762185
O O9 0.758689 0.500000 0.137483
O O10 0.728190 0.221831 0.097033
O O11 0.703490 0.285556 0.185160
O O12 0.940330 0.500000 0.896579
O O13 0.000000 0.235039 0.887431
O O14 0.923525 0.225252 0.948067
O O15 0.782281 0.744816 0.500000
O O16 0.807343 0.000000 0.555224
O O17 0.394717 0.790578 0.823154
O O18 0.329860 0.000000 0.782924
O O19 0.500000 0.201352 0.500000
O O20 0.579491 0.000000 0.500000
O O21 0.500000 0.225708 0.827835
O O22 0.557926 0.500000 0.828682
#
# Coordination Sequence:
#
# PCOD9520072 Si02
#       8
#    16  16  16  16  16  16   8  16
#     4  10  20  34  55  82 110 140 175 218 266 319
#     4   9  19  32  47  74 104 135 178 223 265 314
#     4  10  19  34  54  75 106 141 176 218 266 321
#     4   8  13  24  42  65  98 136 170 206 251 304
#     4   9  17  30  50  75 105 143 180 214 263 323
#     4  11  22  36  55  76 102 138 182 225 269 319
#     4   7  10  18  36  62  92 132 171 197 236 301
#     4  11  24  40  57  78 105 139 179 224 275 326
#
# _framework density 21.299166
#
# number of rings (size 3 to 8) (size 9 to 14) (size 15 to 20)
#    0.000    2.467    1.333    2.400    0.000    2.667 
#    1.200    3.333    0.000    0.000    0.000    0.000 
#    0.000    0.000    0.000    0.000    0.000   25.333 
#
# Total GULP energy -334771.634125 kJ/mol
# GULP energy per Si atom -5579.527235 kJ/mol
# Density = 2.125069 g / cm^3
# Si number density = 21.299166 Si / 1000 Ang^3
#
#
#
# Elastic Constant Matrix: (Units=GPa)
#
#
# Indices 1 2 3 4 5 6 
#
# 1 113.5155 -5.3081 75.2043 0.0000 0.0000 0.0000
# 2 -5.3081 37.4098 -2.0268 0.0000 0.0000 0.0000
# 3 75.2043 -2.0268 168.9071 0.0000 0.0000 0.0000
# 4 0.0000 0.0000 0.0000 5.1687 0.0000 0.0000
# 5 0.0000 0.0000 0.0000 0.0000 -3.4940 0.0000
# 6 0.0000 0.0000 0.0000 0.0000 0.0000 110.5842
#
#
#
# Elastic Compliance Matrix: (Units=1/GPa)
#
#
# Indices 1 2 3 4 5 6 
#
# 1 0.012577 0.001482 -0.005582 0.000000 0.000000 0.000000
# 2 0.001482 0.026923 -0.000337 0.000000 0.000000 0.000000
# 3 -0.005582 -0.000337 0.008402 0.000000 0.000000 0.000000
# 4 0.000000 0.000000 0.000000 0.193471 0.000000 0.000000
# 5 0.000000 0.000000 0.000000 0.000000 -0.286207 0.000000
# 6 0.000000 0.000000 0.000000 0.000000 0.000000 0.009043
#
#
# Mechanical properties :
#
#
# Convention : Reuss Voigt Hill
#
# Bulk Modulus (GPa) = 25.62252 50.61903 38.12078
# Shear Modulus (GPa) = -359.48277 39.24932 -160.11672
#
# Velocity S-wave (km/s) = -13.00555 4.29740 -8.67976
# Velocity P-wave (km/s) = 14.61060 6.95995 9.08375
#
# Compressibility (1/GPa) = 0.03902816
#
# Stress axis : x y z
#
# Youngs Moduli (GPa) = 79.51222 37.14292 119.02423
#
# Poissons Ratio (x) = -0.05505 0.66438
# Poissons Ratio (y) = -0.11785 0.04009
# Poissons Ratio (z) = 0.44383 0.01251
#
# Static dielectric constant tensor:
#      x y z
#    x 1.739690 0.000000 0.000000 
#    y 0.000000 1.785840 0.000000 
#    z 0.000000 0.000000 1.788800 
# 
# From -- ./inp_files/67178.got.cif
#   From: 2010.05.17/outbox.cif.g08.bks.cpg/sg71_34_cif.got.tgz:67178.got - 2010.06.03 16:22:01.
