data_PCOD9520643
_publ_section_title
;
Structure prediction by ZEFSAII (Michael W. Deem and Ramdas Pophale) SiO2 
 PCOD9520643
Probable space group: I M M M
;
_chemical_formula_sum "Si O2"
_cell_formula_units_Z 96
_cell_length_a 27.206507
_cell_length_b 29.749055
_cell_length_c 9.055293
_cell_angle_alpha 90.000000
_cell_angle_beta 90.000000
_cell_angle_gamma 90.000000
_cell_volume 7329.063236
_symmetry_space_group_name_H-M "I M M M"
_symmetry_group_IT_number 71
_symmetry_cell_setting 'orthorhombic'
loop_
_space_group_symop_operation_xyz
x,y,z
-x,-y,z
x,-y,-z
-x,y,-z
-x,-y,-z
x,y,-z
-x,y,z
x,-y,z
1/2+x,1/2+y,1/2+z
1/2-x,1/2-y,1/2+z
1/2+x,1/2-y,1/2-z
1/2-x,1/2+y,1/2-z
1/2-x,1/2-y,1/2-z
1/2+x,1/2+y,1/2-z
1/2-x,1/2+y,1/2+z
1/2+x,1/2-y,1/2+z
loop_
_atom_site_type_symbol
_atom_site_label
_atom_site_fract_x
_atom_site_fract_y
_atom_site_fract_z
Si Si1 0.401785 0.949245 0.677529
Si Si2 0.147270 0.301046 0.322327
Si Si3 0.756297 0.360675 0.676165
Si Si4 0.055452 0.361408 0.322313
Si Si5 0.785870 0.550285 0.822705
Si Si6 0.702781 0.274052 0.677176
O O1 0.406010 0.945683 0.500000
O O2 0.431311 0.909560 0.753653
O O3 0.343833 0.944529 0.715170
O O4 0.417129 0.000000 0.719399
O O5 0.148218 0.295015 0.500000
O O6 0.192845 0.334439 0.284707
O O7 0.096996 0.325492 0.277874
O O8 0.157496 0.253547 0.243991
O O9 0.757052 0.366883 0.500000
O O10 0.756572 0.408566 0.753690
O O11 0.711760 0.326546 0.712328
O O12 0.058161 0.365140 0.500000
O O13 0.000000 0.348330 0.281475
O O14 0.770738 0.500000 0.775292
O O15 0.782666 0.552143 0.000000
O O16 0.704472 0.269200 0.500000
O O17 0.750000 0.250000 0.750000
#
# Coordination Sequence:
#
# PCOD9520643 Si02
#       6
#    16  16  16  16  16  16
#     4   9  18  31  43  55  72  95 126 165 205 241
#     4   9  17  29  41  56  76  96 123 157 193 234
#     4   9  16  26  40  58  76  95 122 154 186 225
#     4  10  20  32  44  57  74  97 127 165 205 241
#     4   9  17  27  39  56  76  99 127 156 189 228
#     4   9  17  27  40  59  79  97 119 149 188 229
#
# _framework density 13.098535999999999
#
# number of rings (size 3 to 8) (size 9 to 14) (size 15 to 20)
#    0.000    2.833    1.667    2.500    0.000    5.333 
#    0.000    3.333    0.000    0.000    0.000    0.000 
#    0.000    0.000    0.000    0.000    0.000    0.833 
#
# Total GULP energy -267232.399670 kJ/mol
# GULP energy per Si atom -5567.341660 kJ/mol
# Density = 1.306872 g / cm^3
# Si number density = 13.098536 Si / 1000 Ang^3
#
#
#
# Elastic Constant Matrix: (Units=GPa)
#
#
# Indices 1 2 3 4 5 6 
#
# 1 55.7277 55.3704 19.5015 0.0000 0.0000 0.0000
# 2 55.3704 110.2427 32.9685 0.0000 0.0000 0.0000
# 3 19.5015 32.9685 14.6854 0.0000 0.0000 0.0000
# 4 0.0000 0.0000 0.0000 25.8941 0.0000 0.0000
# 5 0.0000 0.0000 0.0000 0.0000 13.1000 0.0000
# 6 0.0000 0.0000 0.0000 0.0000 0.0000 16.6305
#
#
#
# Elastic Compliance Matrix: (Units=1/GPa)
#
#
# Indices 1 2 3 4 5 6 
#
# 1 0.038280 -0.012246 -0.023342 0.000000 0.000000 0.000000
# 2 -0.012246 0.031520 -0.054499 0.000000 0.000000 0.000000
# 3 -0.023342 -0.054499 0.221440 0.000000 0.000000 0.000000
# 4 0.000000 0.000000 0.000000 0.038619 0.000000 0.000000
# 5 0.000000 0.000000 0.000000 0.000000 0.076336 0.000000
# 6 0.000000 0.000000 0.000000 0.000000 0.000000 0.060131
#
#
# Mechanical properties :
#
#
# Convention : Reuss Voigt Hill
#
# Bulk Modulus (GPa) = 9.00361 44.03739 26.52050
# Shear Modulus (GPa) = 7.31506 15.97928 11.64717
#
# Velocity S-wave (km/s) = 2.36575 3.49654 2.98517
# Velocity P-wave (km/s) = 3.78828 7.07065 5.67209
#
# Compressibility (1/GPa) = 0.11106655
#
# Stress axis : x y z
#
# Youngs Moduli (GPa) = 26.12311 31.72613 4.51589
#
# Poissons Ratio (x) = 0.38852 0.10541
# Poissons Ratio (y) = 0.31991 0.24611
# Poissons Ratio (z) = 0.60976 1.72904
#
# Static dielectric constant tensor:
#      x y z
#    x 1.421500 0.000000 0.000000 
#    y 0.000000 1.438980 0.000000 
#    z 0.000000 0.000000 1.436410 
# 
# From -- ./inp_files/13139.got.cif
#   From: 2010.05.17/outbox.cif.g08.bks.cpg/sg71_7_cif.got.tgz:13139.got - 2010.06.03 16:22:01.
