data_PCOD9520898
_publ_section_title
;
Structure prediction by ZEFSAII (Michael W. Deem and Ramdas Pophale) SiO2 
 PCOD9520898
Probable space group: I M M M
;
_chemical_formula_sum "Si O2"
_cell_formula_units_Z 72
_cell_length_a 33.935859
_cell_length_b 13.835950
_cell_length_c 7.665959
_cell_angle_alpha 90.000000
_cell_angle_beta 90.000000
_cell_angle_gamma 90.000000
_cell_volume 3599.434896
_symmetry_space_group_name_H-M "I M M M"
_symmetry_group_IT_number 71
_symmetry_cell_setting 'orthorhombic'
loop_
_space_group_symop_operation_xyz
x,y,z
-x,-y,z
x,-y,-z
-x,y,-z
-x,-y,-z
x,y,-z
-x,y,z
x,-y,z
1/2+x,1/2+y,1/2+z
1/2-x,1/2-y,1/2+z
1/2+x,1/2-y,1/2-z
1/2-x,1/2+y,1/2-z
1/2-x,1/2-y,1/2-z
1/2+x,1/2+y,1/2-z
1/2-x,1/2+y,1/2+z
1/2+x,1/2-y,1/2+z
loop_
_atom_site_type_symbol
_atom_site_label
_atom_site_fract_x
_atom_site_fract_y
_atom_site_fract_z
Si Si1 0.917946 0.705013 0.711082
Si Si2 0.707556 0.286769 0.809431
Si Si3 0.867971 0.109580 0.286024
Si Si4 0.839953 0.607250 0.204250
Si Si5 0.000000 0.613120 0.713419
O O1 0.918162 0.706155 0.500000
O O2 0.899768 0.808824 0.768170
O O3 0.886140 0.626417 0.772255
O O4 0.960963 0.671229 0.769387
O O5 0.750000 0.250000 0.750000
O O6 0.675929 0.359238 0.721475
O O7 0.682023 0.189058 0.810555
O O8 0.714637 0.328975 0.000000
O O9 0.866920 0.112938 0.500000
O O10 0.877333 0.000000 0.234877
O O11 0.829284 0.500000 0.259947
O O12 0.829888 0.619125 0.000000
O O13 0.000000 0.500000 0.767805
O O14 0.000000 0.611859 0.500000
#
# Coordination Sequence:
#
# PCOD9520898 Si02
#       5
#    16  16  16  16   8
#     4   9  17  30  49  71  95 126 162 198 240 295
#     4  10  20  33  50  72  98 127 160 200 245 294
#     4   8  15  29  48  68  92 124 160 198 240 283
#     4  10  20  33  49  69  95 127 161 200 245 289
#     4   9  16  26  44  72 102 127 155 197 248 299
#
# _framework density 20.003139999999998
#
# number of rings (size 3 to 8) (size 9 to 14) (size 15 to 20)
#    0.000    2.778    0.000    3.333    0.000    3.556 
#    0.000    3.333    0.000   21.333    0.000    0.000 
#    0.000    7.111    0.000    0.000    0.000    0.000 
#
# Total GULP energy -200477.231711 kJ/mol
# GULP energy per Si atom -5568.811992 kJ/mol
# Density = 1.995761 g / cm^3
# Si number density = 20.003140 Si / 1000 Ang^3
#
#
#
# Elastic Constant Matrix: (Units=GPa)
#
#
# Indices 1 2 3 4 5 6 
#
# 1 134.6188 27.9963 3.8767 0.0000 0.0000 0.0000
# 2 27.9963 110.0991 1.5808 0.0000 0.0000 0.0000
# 3 3.8767 1.5808 31.8514 0.0000 0.0000 0.0000
# 4 0.0000 0.0000 0.0000 2.0369 0.0000 0.0000
# 5 0.0000 0.0000 0.0000 0.0000 12.5750 0.0000
# 6 0.0000 0.0000 0.0000 0.0000 0.0000 10.8774
#
#
#
# Elastic Compliance Matrix: (Units=1/GPa)
#
#
# Indices 1 2 3 4 5 6 
#
# 1 0.007867 -0.001988 -0.000859 0.000000 0.000000 0.000000
# 2 -0.001988 0.009592 -0.000234 0.000000 0.000000 0.000000
# 3 -0.000859 -0.000234 0.031512 0.000000 0.000000 0.000000
# 4 0.000000 0.000000 0.000000 0.490936 0.000000 0.000000
# 5 0.000000 0.000000 0.000000 0.000000 0.079523 0.000000
# 6 0.000000 0.000000 0.000000 0.000000 0.000000 0.091933
#
#
# Mechanical properties :
#
#
# Convention : Reuss Voigt Hill
#
# Bulk Modulus (GPa) = 23.35992 38.16409 30.76200
# Shear Modulus (GPa) = 6.83252 21.30559 14.06906
#
# Velocity S-wave (km/s) = 1.85017 3.26715 2.65494
# Velocity P-wave (km/s) = 4.03332 5.77519 4.98099
#
# Compressibility (1/GPa) = 0.04280837
#
# Stress axis : x y z
#
# Youngs Moduli (GPa) = 127.12056 104.25793 31.73404
#
# Poissons Ratio (x) = 0.20726 0.02725
# Poissons Ratio (y) = 0.25271 0.00743
# Poissons Ratio (z) = 0.10917 0.02440
#
# Static dielectric constant tensor:
#      x y z
#    x 1.730580 0.000000 0.000000 
#    y 0.000000 1.685090 0.000000 
#    z 0.000000 0.000000 1.768790 
# 
# From -- ./inp_files/6482.got.cif
#   From: 2010.05.17/outbox.cif.g08.bks.cpg/sg71_4_cif.got.tgz:6482.got - 2010.06.03 16:22:01.
