data_PCOD9520562
_publ_section_title
;
Structure prediction by ZEFSAII (Michael W. Deem and Ramdas Pophale) SiO2 
 PCOD9520562
Probable space group: I M M M
;
_chemical_formula_sum "Si O2"
_cell_formula_units_Z 88
_cell_length_a 8.016676
_cell_length_b 31.508292
_cell_length_c 20.627243
_cell_angle_alpha 90.000000
_cell_angle_beta 90.000000
_cell_angle_gamma 90.000000
_cell_volume 5210.271784
_symmetry_space_group_name_H-M "I M M M"
_symmetry_group_IT_number 71
_symmetry_cell_setting 'orthorhombic'
loop_
_space_group_symop_operation_xyz
x,y,z
-x,-y,z
x,-y,-z
-x,y,-z
-x,-y,-z
x,y,-z
-x,y,z
x,-y,z
1/2+x,1/2+y,1/2+z
1/2-x,1/2-y,1/2+z
1/2+x,1/2-y,1/2-z
1/2-x,1/2+y,1/2-z
1/2-x,1/2-y,1/2-z
1/2+x,1/2+y,1/2-z
1/2-x,1/2+y,1/2+z
1/2+x,1/2-y,1/2+z
loop_
_atom_site_type_symbol
_atom_site_label
_atom_site_fract_x
_atom_site_fract_y
_atom_site_fract_z
Si Si1 0.196504 0.708363 0.290300
Si Si2 0.191734 0.948290 0.500000
Si Si3 0.202783 0.267150 0.429245
Si Si4 0.801858 0.668514 0.072102
Si Si5 0.691555 0.630257 0.204829
Si Si6 0.205407 0.951267 0.357437
O O1 0.250000 0.750000 0.250000
O O2 0.264054 0.710069 0.363891
O O3 0.232889 0.665211 0.252050
O O4 0.000000 0.711996 0.295682
O O5 0.266898 0.938028 0.429734
O O6 0.000000 0.933115 0.500000
O O7 0.185120 0.000000 0.500000
O O8 0.253787 0.284588 0.500000
O O9 0.266642 0.218833 0.425945
O O10 0.000000 0.266036 0.428725
O O11 0.705307 0.648651 0.131964
O O12 0.000000 0.661583 0.080237
O O13 0.752023 0.653304 0.000000
O O14 0.500000 0.626269 0.223976
O O15 0.762593 0.582857 0.195556
O O16 0.000000 0.950176 0.359910
O O17 0.252725 0.000000 0.345242
#
# Coordination Sequence:
#
# PCOD9520562 Si02
#       6
#    16   8  16  16  16  16
#     4  11  21  33  49  68  95 124 152 189 230 276
#     4   7  10  20  38  58  81 109 145 193 237 261
#     4   9  18  33  51  67  84 114 157 197 229 265
#     4  10  20  31  43  62  90 123 158 196 234 272
#     4  11  21  30  46  69  92 122 156 193 235 279
#     4   8  15  27  42  62  87 115 152 196 234 267
#
# _framework density 16.889714999999999
#
# number of rings (size 3 to 8) (size 9 to 14) (size 15 to 20)
#    0.000    2.455    1.818    2.727    1.273    1.818 
#    0.000    0.000    0.000    2.182    0.000    1.273 
#    0.000    0.727    0.000    9.091    0.000    0.000 
#
# Total GULP energy -245226.755090 kJ/mol
# GULP energy per Si atom -5573.335343 kJ/mol
# Density = 1.685127 g / cm^3
# Si number density = 16.889715 Si / 1000 Ang^3
#
#
#
# Elastic Constant Matrix: (Units=GPa)
#
#
# Indices 1 2 3 4 5 6 
#
# 1 15.3039 3.5446 9.8571 0.0000 0.0000 0.0000
# 2 3.5446 95.8062 60.9837 0.0000 0.0000 0.0000
# 3 9.8571 60.9837 107.5329 0.0000 0.0000 0.0000
# 4 0.0000 0.0000 0.0000 29.9846 0.0000 0.0000
# 5 0.0000 0.0000 0.0000 0.0000 15.3688 0.0000
# 6 0.0000 0.0000 0.0000 0.0000 0.0000 9.2921
#
#
#
# Elastic Compliance Matrix: (Units=1/GPa)
#
#
# Indices 1 2 3 4 5 6 
#
# 1 0.069774 0.002331 -0.007718 0.000000 0.000000 0.000000
# 2 0.002331 0.016412 -0.009521 0.000000 0.000000 0.000000
# 3 -0.007718 -0.009521 0.015407 0.000000 0.000000 0.000000
# 4 0.000000 0.000000 0.000000 0.033350 0.000000 0.000000
# 5 0.000000 0.000000 0.000000 0.000000 0.065067 0.000000
# 6 0.000000 0.000000 0.000000 0.000000 0.000000 0.107619
#
#
# Mechanical properties :
#
#
# Convention : Reuss Voigt Hill
#
# Bulk Modulus (GPa) = 13.93206 40.82374 27.37790
# Shear Modulus (GPa) = 13.83622 20.54627 17.19124
#
# Velocity S-wave (km/s) = 2.86529 3.49161 3.19384
# Velocity P-wave (km/s) = 4.38329 6.36226 5.46313
#
# Compressibility (1/GPa) = 0.07177688
#
# Stress axis : x y z
#
# Youngs Moduli (GPa) = 14.33195 60.93077 64.90719
#
# Poissons Ratio (x) = -0.14205 0.50095
# Poissons Ratio (y) = -0.03341 0.61800
# Poissons Ratio (z) = 0.11061 0.58014
#
# Static dielectric constant tensor:
#      x y z
#    x 1.605790 0.000000 0.000000 
#    y 0.000000 1.632720 0.000000 
#    z 0.000000 0.000000 1.625200 
# 
# From -- ./inp_files/11321.got.cif
#   From: 2010.05.17/outbox.cif.g08.bks.cpg/sg71_6_cif.got.tgz:11321.got - 2010.06.03 16:22:01.
