data_PCOD9520869
_publ_section_title
;
Structure prediction by ZEFSAII (Michael W. Deem and Ramdas Pophale) SiO2 
 PCOD9520869
Probable space group: I M M M
;
_chemical_formula_sum "Si O2"
_cell_formula_units_Z 104
_cell_length_a 29.687163
_cell_length_b 20.817529
_cell_length_c 7.344628
_cell_angle_alpha 90.000000
_cell_angle_beta 90.000000
_cell_angle_gamma 90.000000
_cell_volume 4539.078351
_symmetry_space_group_name_H-M "I M M M"
_symmetry_group_IT_number 71
_symmetry_cell_setting 'orthorhombic'
loop_
_space_group_symop_operation_xyz
x,y,z
-x,-y,z
x,-y,-z
-x,y,-z
-x,-y,-z
x,y,-z
-x,y,z
x,-y,z
1/2+x,1/2+y,1/2+z
1/2-x,1/2-y,1/2+z
1/2+x,1/2-y,1/2-z
1/2-x,1/2+y,1/2-z
1/2-x,1/2-y,1/2-z
1/2+x,1/2+y,1/2-z
1/2-x,1/2+y,1/2+z
1/2+x,1/2-y,1/2+z
loop_
_atom_site_type_symbol
_atom_site_label
_atom_site_fract_x
_atom_site_fract_y
_atom_site_fract_z
Si Si1 0.159253 0.070931 0.719785
Si Si2 0.293167 0.795428 0.218192
Si Si3 0.604551 0.200805 0.221992
Si Si4 0.947357 0.572936 0.278490
Si Si5 0.735940 0.069048 0.789750
Si Si6 0.418193 0.337467 0.778007
Si Si7 0.000000 0.073417 0.277561
O O1 0.161467 0.072933 0.500000
O O2 0.210047 0.074675 0.787909
O O3 0.128460 0.129436 0.780081
O O4 0.140827 0.000000 0.769044
O O5 0.250000 0.750000 0.250000
O O6 0.344194 0.782217 0.279057
O O7 0.282540 0.866195 0.292333
O O8 0.295836 0.797701 0.000000
O O9 0.584053 0.132395 0.282090
O O10 0.576381 0.263732 0.277593
O O11 0.604274 0.198215 0.000000
O O12 0.946096 0.572952 0.500000
O O13 0.934372 0.500000 0.221738
O O14 0.000000 0.583132 0.227600
O O15 0.724092 0.000000 0.707891
O O16 0.720920 0.067548 0.000000
O O17 0.456901 0.385903 0.720262
O O18 0.418023 0.337311 0.000000
O O19 0.000000 0.071796 0.500000
O O20 0.000000 0.000000 0.216563
#
# Coordination Sequence:
#
# PCOD9520869 Si02
#       7
#    16  16  16  16  16  16   8
#     4   9  16  27  44  64  87 116 149 184 222 264
#     4  10  20  33  48  67  94 126 158 195 235 279
#     4   9  17  26  39  59  82 113 150 183 222 271
#     4   8  14  24  38  57  84 117 150 186 231 284
#     4   9  18  31  46  65  88 116 151 189 228 268
#     4   9  16  24  36  56  81 109 140 175 211 256
#     4   9  16  24  34  52  80 110 134 162 207 254
#
# _framework density 22.912140999999998
#
# number of rings (size 3 to 8) (size 9 to 14) (size 15 to 20)
#    0.000    3.000    0.000    1.846    1.077    4.308 
#    0.000    3.077    0.000    0.000    0.000    0.538 
#    0.000    3.692    0.000    1.692    0.000    2.154 
#
# Total GULP energy -290091.678110 kJ/mol
# GULP energy per Si atom -5578.686117 kJ/mol
# Density = 2.285999 g / cm^3
# Si number density = 22.912141 Si / 1000 Ang^3
#
#
#
# Elastic Constant Matrix: (Units=GPa)
#
#
# Indices 1 2 3 4 5 6 
#
# 1 78.2921 81.3978 -1.1680 0.0000 0.0000 0.0000
# 2 81.3978 216.9074 7.7673 0.0000 0.0000 0.0000
# 3 -1.1680 7.7673 85.9231 0.0000 0.0000 0.0000
# 4 0.0000 0.0000 0.0000 -5.0486 0.0000 0.0000
# 5 0.0000 0.0000 0.0000 0.0000 1.0129 0.0000
# 6 0.0000 0.0000 0.0000 0.0000 0.0000 40.9221
#
#
#
# Elastic Compliance Matrix: (Units=1/GPa)
#
#
# Indices 1 2 3 4 5 6 
#
# 1 0.021030 -0.007928 0.001003 0.000000 0.000000 0.000000
# 2 -0.007928 0.007614 -0.000796 0.000000 0.000000 0.000000
# 3 0.001003 -0.000796 0.011724 0.000000 0.000000 0.000000
# 4 0.000000 0.000000 0.000000 -0.198074 0.000000 0.000000
# 5 0.000000 0.000000 0.000000 0.000000 0.987255 0.000000
# 6 0.000000 0.000000 0.000000 0.000000 0.000000 0.024437
#
#
# Mechanical properties :
#
#
# Convention : Reuss Voigt Hill
#
# Bulk Modulus (GPa) = 40.12023 61.90186 51.01104
# Shear Modulus (GPa) = 5.69648 26.91897 16.30772
#
# Velocity S-wave (km/s) = 1.57849 3.43137 2.67076
# Velocity P-wave (km/s) = 4.56844 6.54024 5.64116
#
# Compressibility (1/GPa) = 0.02492508
#
# Stress axis : x y z
#
# Youngs Moduli (GPa) = 47.55169 131.34166 85.29583
#
# Poissons Ratio (x) = 1.04123 -0.08551
# Poissons Ratio (y) = 0.37697 0.06790
# Poissons Ratio (z) = -0.04767 0.10455
#
# Static dielectric constant tensor:
#      x y z
#    x 1.576500 0.000000 0.000000 
#    y 0.000000 1.865250 0.000000 
#    z 0.000000 0.000000 1.900110 
# 
# From -- ./inp_files/17031.got.cif
#   From: 2010.05.17/outbox.cif.g08.bks.cpg/sg71_9_cif.got.tgz:17031.got - 2010.06.03 16:22:01.
