data_PCOD9520910
_publ_section_title
;
Structure prediction by ZEFSAII (Michael W. Deem and Ramdas Pophale) SiO2 
 PCOD9520910
Probable space group: I M M M
;
_chemical_formula_sum "Si O2"
_cell_formula_units_Z 96
_cell_length_a 23.063862
_cell_length_b 12.156903
_cell_length_c 13.848150
_cell_angle_alpha 90.000000
_cell_angle_beta 90.000000
_cell_angle_gamma 90.000000
_cell_volume 3882.815381
_symmetry_space_group_name_H-M "I M M M"
_symmetry_group_IT_number 71
_symmetry_cell_setting 'orthorhombic'
loop_
_space_group_symop_operation_xyz
x,y,z
-x,-y,z
x,-y,-z
-x,y,-z
-x,-y,-z
x,y,-z
-x,y,z
x,-y,z
1/2+x,1/2+y,1/2+z
1/2-x,1/2-y,1/2+z
1/2+x,1/2-y,1/2-z
1/2-x,1/2+y,1/2-z
1/2-x,1/2-y,1/2-z
1/2+x,1/2+y,1/2-z
1/2-x,1/2+y,1/2+z
1/2+x,1/2-y,1/2+z
loop_
_atom_site_type_symbol
_atom_site_label
_atom_site_fract_x
_atom_site_fract_y
_atom_site_fract_z
Si Si1 0.274481 0.500000 0.756058
Si Si2 0.891801 0.000000 0.380888
Si Si3 0.152286 0.702808 0.889270
Si Si4 0.153923 0.500000 0.216585
Si Si5 0.403168 0.248329 0.884179
Si Si6 0.062193 0.124481 0.117507
Si Si7 0.086214 0.500000 0.385537
Si Si8 0.730146 0.812433 0.887943
O O1 0.332112 0.500000 0.818859
O O2 0.218248 0.500000 0.824165
O O3 0.259498 0.602329 0.685710
O O4 0.919303 0.123276 0.357514
O O5 0.883241 0.000000 0.500000
O O6 0.126369 0.607130 0.826004
O O7 0.118732 0.810506 0.854749
O O8 0.220900 0.718671 0.885602
O O9 0.136856 0.682888 0.000000
O O10 0.148203 0.500000 0.331551
O O11 0.333894 0.231483 0.861659
O O12 0.433143 0.127493 0.859205
O O13 0.408066 0.249755 0.000000
O O14 0.000000 0.173431 0.146606
O O15 0.065145 0.000000 0.151950
O O16 0.062314 0.120223 0.000000
O O17 0.088267 0.500000 0.500000
O O18 0.727702 0.852521 0.000000
#
# Coordination Sequence:
#
# PCOD9520910 Si02
#       8
#     8   8  16   8  16  16   8  16
#     4  12  23  31  50  66  97 136 192 226 270 308
#     4  10  22  33  46  65  89 118 167 229 277 308
#     4  10  22  35  50  76 111 142 170 216 267 317
#     4  12  23  33  51  68 105 140 190 221 263 316
#     4   9  17  33  49  63  84 121 172 224 266 301
#     4   8  15  32  58  83 107 138 173 207 256 324
#     4  10  20  35  54  68  90 135 189 234 266 305
#     4  10  20  33  49  70  98 134 183 228 263 306
#
# _framework density 24.724329000000001
#
# number of rings (size 3 to 8) (size 9 to 14) (size 15 to 20)
#    0.000    2.167    1.667    2.000    3.500    3.333 
#    0.000    0.417    0.000    2.000    0.000    0.000 
#    0.000    1.333    0.000    1.833    0.000    0.167 
#
# Total GULP energy -267224.065959 kJ/mol
# GULP energy per Si atom -5567.168041 kJ/mol
# Density = 2.466806 g / cm^3
# Si number density = 24.724329 Si / 1000 Ang^3
#
#
#
# Elastic Constant Matrix: (Units=GPa)
#
#
# Indices 1 2 3 4 5 6 
#
# 1 76.7708 17.7528 5.8856 0.0000 0.0000 0.0000
# 2 17.7528 170.2460 36.3561 0.0000 0.0000 0.0000
# 3 5.8856 36.3561 83.6501 0.0000 0.0000 0.0000
# 4 0.0000 0.0000 0.0000 31.2635 0.0000 0.0000
# 5 0.0000 0.0000 0.0000 0.0000 1.8708 0.0000
# 6 0.0000 0.0000 0.0000 0.0000 0.0000 -14.1952
#
#
#
# Elastic Compliance Matrix: (Units=1/GPa)
#
#
# Indices 1 2 3 4 5 6 
#
# 1 0.013358 -0.001314 -0.000369 0.000000 0.000000 0.000000
# 2 -0.001314 0.006604 -0.002778 0.000000 0.000000 0.000000
# 3 -0.000369 -0.002778 0.013188 0.000000 0.000000 0.000000
# 4 0.000000 0.000000 0.000000 0.031986 0.000000 0.000000
# 5 0.000000 0.000000 0.000000 0.000000 0.534522 0.000000
# 6 0.000000 0.000000 0.000000 0.000000 0.000000 -0.070447
#
#
# Mechanical properties :
#
#
# Convention : Reuss Voigt Hill
#
# Bulk Modulus (GPa) = 41.27381 50.07290 45.67335
# Shear Modulus (GPa) = 9.15401 21.83264 15.49333
#
# Velocity S-wave (km/s) = 1.92626 2.97483 2.50600
# Velocity P-wave (km/s) = 4.65587 5.66533 5.18522
#
# Compressibility (1/GPa) = 0.02422844
#
# Stress axis : x y z
#
# Youngs Moduli (GPa) = 74.86178 151.42105 75.82766
#
# Poissons Ratio (x) = 0.19900 0.02796
# Poissons Ratio (y) = 0.09838 0.21064
# Poissons Ratio (z) = 0.02760 0.42062
#
# Static dielectric constant tensor:
#      x y z
#    x 1.932040 0.000000 0.000000 
#    y 0.000000 2.124050 0.000000 
#    z 0.000000 0.000000 1.987760 
# 
# From -- ./inp_files/40921.got.cif
#   From: 2010.05.17/outbox.cif.g08.bks.cpg/sg71_21_cif.got.tgz:40921.got - 2010.06.03 16:22:01.
