data_PCOD9520563
_publ_section_title
;
Structure prediction by ZEFSAII (Michael W. Deem and Ramdas Pophale) SiO2 
 PCOD9520563
Probable space group: I M M M
;
_chemical_formula_sum "Si O2"
_cell_formula_units_Z 96
_cell_length_a 25.281350
_cell_length_b 11.194906
_cell_length_c 19.670347
_cell_angle_alpha 90.000000
_cell_angle_beta 90.000000
_cell_angle_gamma 90.000000
_cell_volume 5567.147574
_symmetry_space_group_name_H-M "I M M M"
_symmetry_group_IT_number 71
_symmetry_cell_setting 'orthorhombic'
loop_
_space_group_symop_operation_xyz
x,y,z
-x,-y,z
x,-y,-z
-x,y,-z
-x,-y,-z
x,y,-z
-x,y,z
x,-y,z
1/2+x,1/2+y,1/2+z
1/2-x,1/2-y,1/2+z
1/2+x,1/2-y,1/2-z
1/2-x,1/2+y,1/2-z
1/2-x,1/2-y,1/2-z
1/2+x,1/2+y,1/2-z
1/2-x,1/2+y,1/2+z
1/2+x,1/2-y,1/2+z
loop_
_atom_site_type_symbol
_atom_site_label
_atom_site_fract_x
_atom_site_fract_y
_atom_site_fract_z
Si Si1 0.175359 0.143990 0.236528
Si Si2 0.269044 0.768722 0.138752
Si Si3 0.940600 0.500000 0.616293
Si Si4 0.116175 0.135201 0.500000
Si Si5 0.941523 0.861720 0.771170
Si Si6 0.757807 0.865063 0.500000
Si Si7 0.441617 0.264362 0.873961
Si Si8 0.676530 0.000000 0.923559
O O1 0.219902 0.188238 0.184449
O O2 0.193202 0.191215 0.311113
O O3 0.116986 0.187306 0.211843
O O4 0.174286 0.000000 0.238866
O O5 0.247411 0.701841 0.071376
O O6 0.302208 0.883292 0.114341
O O7 0.937125 0.371895 0.653343
O O8 0.887107 0.500000 0.573357
O O9 0.000000 0.500000 0.584458
O O10 0.178674 0.127753 0.500000
O O11 0.098325 0.204717 0.433093
O O12 0.094074 0.000000 0.500000
O O13 0.939162 0.852258 0.689272
O O14 0.000000 0.810228 0.790453
O O15 0.942352 0.000000 0.792455
O O16 0.736087 0.000000 0.500000
O O17 0.500000 0.274645 0.905242
O O18 0.697739 0.000000 0.000000
#
# Coordination Sequence:
#
# PCOD9520563 Si02
#       8
#    16  16   8   8  16   8  16   8
#     4  10  20  36  54  77 108 135 171 214 256 310
#     4  11  22  35  53  77 104 139 174 211 261 301
#     4  10  22  33  44  62  92 135 174 208 246 282
#     4  11  21  31  45  64  88 126 162 208 251 278
#     4   9  17  31  52  73  95 126 161 204 255 302
#     4  11  22  36  53  73 101 132 172 212 253 301
#     4  10  20  31  43  64  92 126 168 206 242 288
#     4  12  22  35  52  72 101 135 177 221 254 306
#
# _framework density 17.244019000000002
#
# number of rings (size 3 to 8) (size 9 to 14) (size 15 to 20)
#    0.000    1.667    1.667    4.250    1.167    4.167 
#    0.000    0.000    0.000    0.000    0.000    0.583 
#    0.000    4.000    0.000    0.000    0.000    0.000 
#
# Total GULP energy -267282.102582 kJ/mol
# GULP energy per Si atom -5568.377137 kJ/mol
# Density = 1.720477 g / cm^3
# Si number density = 17.244019 Si / 1000 Ang^3
#
#
#
# Elastic Constant Matrix: (Units=GPa)
#
#
# Indices 1 2 3 4 5 6 
#
# 1 113.9661 18.6311 27.0783 0.0000 0.0000 0.0000
# 2 18.6311 78.5872 28.7307 0.0000 0.0000 0.0000
# 3 27.0783 28.7307 67.9770 0.0000 0.0000 0.0000
# 4 0.0000 0.0000 0.0000 18.9576 0.0000 0.0000
# 5 0.0000 0.0000 0.0000 0.0000 6.0316 0.0000
# 6 0.0000 0.0000 0.0000 0.0000 0.0000 18.8848
#
#
#
# Elastic Compliance Matrix: (Units=1/GPa)
#
#
# Indices 1 2 3 4 5 6 
#
# 1 0.009765 -0.001056 -0.003444 0.000000 0.000000 0.000000
# 2 -0.001056 0.015164 -0.005989 0.000000 0.000000 0.000000
# 3 -0.003444 -0.005989 0.018614 0.000000 0.000000 0.000000
# 4 0.000000 0.000000 0.000000 0.052749 0.000000 0.000000
# 5 0.000000 0.000000 0.000000 0.000000 0.165793 0.000000
# 6 0.000000 0.000000 0.000000 0.000000 0.000000 0.052953
#
#
# Mechanical properties :
#
#
# Convention : Reuss Voigt Hill
#
# Bulk Modulus (GPa) = 44.31283 45.49005 44.90144
# Shear Modulus (GPa) = 14.55445 21.18083 17.86764
#
# Velocity S-wave (km/s) = 2.90837 3.50851 3.22244
# Velocity P-wave (km/s) = 6.08535 6.54602 6.31988
#
# Compressibility (1/GPa) = 0.02256683
#
# Stress axis : x y z
#
# Youngs Moduli (GPa) = 102.40233 65.94361 53.72390
#
# Poissons Ratio (x) = 0.06965 0.18500
# Poissons Ratio (y) = 0.10816 0.32173
# Poissons Ratio (z) = 0.35263 0.39491
#
# Static dielectric constant tensor:
#      x y z
#    x 1.640920 0.000000 0.000000 
#    y 0.000000 1.636740 0.000000 
#    z 0.000000 0.000000 1.545850 
# 
# From -- ./inp_files/55761.got.cif
#   From: 2010.05.17/outbox.cif.g08.bks.cpg/sg71_28_cif.got.tgz:55761.got - 2010.06.03 16:22:01.
