data_PCOD9520527
_publ_section_title
;
Structure prediction by ZEFSAII (Michael W. Deem and Ramdas Pophale) SiO2 
 PCOD9520527
Probable space group: I M M M
;
_chemical_formula_sum "Si O2"
_cell_formula_units_Z 80
_cell_length_a 33.752782
_cell_length_b 19.358392
_cell_length_c 8.977648
_cell_angle_alpha 90.000000
_cell_angle_beta 90.000000
_cell_angle_gamma 90.000000
_cell_volume 5865.991478
_symmetry_space_group_name_H-M "I M M M"
_symmetry_group_IT_number 71
_symmetry_cell_setting 'orthorhombic'
loop_
_space_group_symop_operation_xyz
x,y,z
-x,-y,z
x,-y,-z
-x,y,-z
-x,-y,-z
x,y,-z
-x,y,z
x,-y,z
1/2+x,1/2+y,1/2+z
1/2-x,1/2-y,1/2+z
1/2+x,1/2-y,1/2-z
1/2-x,1/2+y,1/2-z
1/2-x,1/2-y,1/2-z
1/2+x,1/2+y,1/2-z
1/2-x,1/2+y,1/2+z
1/2+x,1/2-y,1/2+z
loop_
_atom_site_type_symbol
_atom_site_label
_atom_site_fract_x
_atom_site_fract_y
_atom_site_fract_z
Si Si1 0.545551 0.919036 0.321049
Si Si2 0.690007 0.781887 0.676939
Si Si3 0.257093 0.500000 0.176804
Si Si4 0.378294 0.139515 0.823601
Si Si5 0.328239 0.000000 0.824933
Si Si6 0.264765 0.642312 0.676972
O O1 0.549769 0.914154 0.500000
O O2 0.500000 0.901833 0.283352
O O3 0.578210 0.872572 0.242031
O O4 0.551825 0.000000 0.280906
O O5 0.691129 0.794830 0.500000
O O6 0.647720 0.802252 0.743212
O O7 0.703295 0.702870 0.703132
O O8 0.723546 0.828818 0.755798
O O9 0.210882 0.500000 0.225726
O O10 0.274571 0.430018 0.246426
O O11 0.260564 0.500000 0.000000
O O12 0.354392 0.067825 0.797477
O O13 0.379682 0.151505 0.000000
O O14 0.316487 0.000000 0.000000
O O15 0.259901 0.633013 0.500000
#
# Coordination Sequence:
#
# PCOD9520527 Si02
#       6
#    16  16   8  16   8  16
#     4   9  18  31  45  61  83 111 144 183 221 257
#     4  10  20  32  46  63  83 111 145 180 219 261
#     4  12  22  30  46  65  83 112 147 182 219 261
#     4  11  20  30  45  62  85 114 144 183 222 259
#     4  10  20  30  39  59  86 113 146 183 220 253
#     4  10  20  33  46  61  85 112 141 181 222 258
#
# _framework density 13.637934
#
# number of rings (size 3 to 8) (size 9 to 14) (size 15 to 20)
#    0.000    1.800    3.000    3.300    0.000    3.600 
#    0.000    1.000    0.000    0.000    0.000    0.000 
#    0.000    0.000    0.000    0.900    0.000   17.400 
#
# Total GULP energy -223254.883742 kJ/mol
# GULP energy per Si atom -5581.372094 kJ/mol
# Density = 1.360689 g / cm^3
# Si number density = 13.637934 Si / 1000 Ang^3
#
#
#
# Elastic Constant Matrix: (Units=GPa)
#
#
# Indices 1 2 3 4 5 6 
#
# 1 92.5765 40.9385 47.9862 0.0000 0.0000 0.0000
# 2 40.9385 86.5198 53.3516 0.0000 0.0000 0.0000
# 3 47.9862 53.3516 76.2757 0.0000 0.0000 0.0000
# 4 0.0000 0.0000 0.0000 20.0579 0.0000 0.0000
# 5 0.0000 0.0000 0.0000 0.0000 22.1973 0.0000
# 6 0.0000 0.0000 0.0000 0.0000 0.0000 23.8682
#
#
#
# Elastic Compliance Matrix: (Units=1/GPa)
#
#
# Indices 1 2 3 4 5 6 
#
# 1 0.016318 -0.002446 -0.008555 0.000000 0.000000 0.000000
# 2 -0.002446 0.020691 -0.012934 0.000000 0.000000 0.000000
# 3 -0.008555 -0.012934 0.027539 0.000000 0.000000 0.000000
# 4 0.000000 0.000000 0.000000 0.049856 0.000000 0.000000
# 5 0.000000 0.000000 0.000000 0.000000 0.045051 0.000000
# 6 0.000000 0.000000 0.000000 0.000000 0.000000 0.041897
#
#
# Mechanical properties :
#
#
# Convention : Reuss Voigt Hill
#
# Bulk Modulus (GPa) = 59.95691 59.99161 59.97426
# Shear Modulus (GPa) = 19.62483 20.76439 20.19461
#
# Velocity S-wave (km/s) = 3.79752 3.90622 3.85225
# Velocity P-wave (km/s) = 7.95531 8.02677 7.99112
#
# Compressibility (1/GPa) = 0.01667864
#
# Stress axis : x y z
#
# Youngs Moduli (GPa) = 61.28240 48.33098 36.31197
#
# Poissons Ratio (x) = 0.11820 0.31066
# Poissons Ratio (y) = 0.14987 0.46965
# Poissons Ratio (z) = 0.52429 0.62510
#
# Static dielectric constant tensor:
#      x y z
#    x 1.432610 0.000000 0.000000 
#    y 0.000000 1.448850 0.000000 
#    z 0.000000 0.000000 1.452640 
# 
# From -- ./inp_files/16800.got.cif
#   From: 2010.05.17/outbox.cif.g08.bks.cpg/sg71_9_cif.got.tgz:16800.got - 2010.06.03 16:22:01.
