data_PCOD9520477
_publ_section_title
;
Structure prediction by ZEFSAII (Michael W. Deem and Ramdas Pophale) SiO2 
 PCOD9520477
Probable space group: I M M M
;
_chemical_formula_sum "Si O2"
_cell_formula_units_Z 104
_cell_length_a 22.552863
_cell_length_b 8.251301
_cell_length_c 27.973023
_cell_angle_alpha 90.000000
_cell_angle_beta 90.000000
_cell_angle_gamma 90.000000
_cell_volume 5205.512746
_symmetry_space_group_name_H-M "I M M M"
_symmetry_group_IT_number 71
_symmetry_cell_setting 'orthorhombic'
loop_
_space_group_symop_operation_xyz
x,y,z
-x,-y,z
x,-y,-z
-x,y,-z
-x,-y,-z
x,y,-z
-x,y,z
x,-y,z
1/2+x,1/2+y,1/2+z
1/2-x,1/2-y,1/2+z
1/2+x,1/2-y,1/2-z
1/2-x,1/2+y,1/2-z
1/2-x,1/2-y,1/2-z
1/2+x,1/2+y,1/2-z
1/2-x,1/2+y,1/2+z
1/2+x,1/2-y,1/2+z
loop_
_atom_site_type_symbol
_atom_site_label
_atom_site_fract_x
_atom_site_fract_y
_atom_site_fract_z
Si Si1 0.500000 0.808792 0.685715
Si Si2 0.798615 0.197936 0.053329
Si Si3 0.624752 0.311200 0.182134
Si Si4 0.569630 0.197618 0.000000
Si Si5 0.878448 0.811253 0.139951
Si Si6 0.000000 0.303707 0.703306
Si Si7 0.335190 0.196355 0.080508
Si Si8 0.689198 0.186265 0.271429
O O1 0.559304 0.761380 0.657308
O O2 0.500000 0.746252 0.740782
O O3 0.500000 0.000000 0.690842
O O4 0.844447 0.256917 0.093583
O O5 0.730031 0.245651 0.061968
O O6 0.798653 0.000000 0.055583
O O7 0.816399 0.246292 0.000000
O O8 0.634332 0.500000 0.193188
O O9 0.556429 0.268227 0.176818
O O10 0.657494 0.263549 0.133720
O O11 0.644322 0.205932 0.227552
O O12 0.610270 0.246347 0.954188
O O13 0.500000 0.250649 0.000000
O O14 0.568145 0.000000 0.000000
O O15 0.833441 0.788411 0.184021
O O16 0.889465 0.000000 0.131447
O O17 0.000000 0.500000 0.701682
O O18 0.336289 0.000000 0.082135
O O19 0.750000 0.250000 0.250000
O O20 0.693772 0.000000 0.286242
#
# Coordination Sequence:
#
# PCOD9520477 Si02
#       8
#     8  16  16   8  16   8  16  16
#     4  11  23  41  64  88 121 164 207 252 315 387
#     4   9  18  36  62  92 121 156 206 259 309 364
#     4  12  25  39  58  88 124 158 197 247 303 364
#     4   9  18  32  55  89 119 158 214 261 301 364
#     4  11  22  37  63  93 122 159 206 260 317 377
#     4  11  23  41  63  85 114 162 209 250 301 370
#     4  10  19  36  62  88 122 164 211 258 306 365
#     4  12  24  40  60  87 123 161 202 247 301 362
#
# _framework density 19.978819999999999
#
# number of rings (size 3 to 8) (size 9 to 14) (size 15 to 20)
#    0.000    1.308    2.308    4.615    1.077    1.846 
#    0.000    1.538    0.000    6.462    0.000    0.000 
#    0.000    0.000    0.000    0.000    0.000    0.000 
#
# Total GULP energy -290485.184938 kJ/mol
# GULP energy per Si atom -5586.253557 kJ/mol
# Density = 1.993335 g / cm^3
# Si number density = 19.978820 Si / 1000 Ang^3
#
#
#
# Elastic Constant Matrix: (Units=GPa)
#
#
# Indices 1 2 3 4 5 6 
#
# 1 75.0042 0.5457 19.1325 0.0000 0.0000 0.0000
# 2 0.5457 30.2327 -4.4156 0.0000 0.0000 0.0000
# 3 19.1325 -4.4156 113.7565 0.0000 0.0000 0.0000
# 4 0.0000 0.0000 0.0000 18.8710 0.0000 0.0000
# 5 0.0000 0.0000 0.0000 0.0000 11.9470 0.0000
# 6 0.0000 0.0000 0.0000 0.0000 0.0000 22.6030
#
#
#
# Elastic Compliance Matrix: (Units=1/GPa)
#
#
# Indices 1 2 3 4 5 6 
#
# 1 0.013941 -0.000597 -0.002368 0.000000 0.000000 0.000000
# 2 -0.000597 0.033291 0.001393 0.000000 0.000000 0.000000
# 3 -0.002368 0.001393 0.009243 0.000000 0.000000 0.000000
# 4 0.000000 0.000000 0.000000 0.052991 0.000000 0.000000
# 5 0.000000 0.000000 0.000000 0.000000 0.083703 0.000000
# 6 0.000000 0.000000 0.000000 0.000000 0.000000 0.044242
#
#
# Mechanical properties :
#
#
# Convention : Reuss Voigt Hill
#
# Bulk Modulus (GPa) = 18.75131 27.72430 23.23780
# Shear Modulus (GPa) = 19.35488 24.26626 21.81057
#
# Velocity S-wave (km/s) = 3.11588 3.48889 3.30765
# Velocity P-wave (km/s) = 4.72768 5.48970 5.12288
#
# Compressibility (1/GPa) = 0.05332961
#
# Stress axis : x y z
#
# Youngs Moduli (GPa) = 71.73117 30.03820 108.18980
#
# Poissons Ratio (x) = 0.01795 0.25618
# Poissons Ratio (y) = 0.04286 -0.15068
# Poissons Ratio (z) = 0.16985 -0.04183
#
# Static dielectric constant tensor:
#      x y z
#    x 2.147860 0.000000 0.000000 
#    y 0.000000 1.689500 0.000000 
#    z 0.000000 0.000000 1.760260 
# 
# From -- ./inp_files/56312.got.cif
#   From: 2010.05.17/outbox.cif.g08.bks.cpg/sg71_29_cif.got.tgz:56312.got - 2010.06.03 16:22:01.
