data_PCOD9520596
_publ_section_title
;
Structure prediction by ZEFSAII (Michael W. Deem and Ramdas Pophale) SiO2 
 PCOD9520596
Probable space group: I M M M
;
_chemical_formula_sum "Si O2"
_cell_formula_units_Z 112
_cell_length_a 13.880489
_cell_length_b 27.143466
_cell_length_c 14.431354
_cell_angle_alpha 90.000000
_cell_angle_beta 90.000000
_cell_angle_gamma 90.000000
_cell_volume 5437.223046
_symmetry_space_group_name_H-M "I M M M"
_symmetry_group_IT_number 71
_symmetry_cell_setting 'orthorhombic'
loop_
_space_group_symop_operation_xyz
x,y,z
-x,-y,z
x,-y,-z
-x,y,-z
-x,-y,-z
x,y,-z
-x,y,z
x,-y,z
1/2+x,1/2+y,1/2+z
1/2-x,1/2-y,1/2+z
1/2+x,1/2-y,1/2-z
1/2-x,1/2+y,1/2-z
1/2-x,1/2-y,1/2-z
1/2+x,1/2+y,1/2-z
1/2-x,1/2+y,1/2+z
1/2+x,1/2-y,1/2+z
loop_
_atom_site_type_symbol
_atom_site_label
_atom_site_fract_x
_atom_site_fract_y
_atom_site_fract_z
Si Si1 0.384559 0.658052 0.106428
Si Si2 0.884977 0.201305 0.201152
Si Si3 0.610132 0.943355 0.138086
Si Si4 0.614629 0.810617 0.285537
Si Si5 0.391040 0.916967 0.645341
Si Si6 0.279954 0.845978 0.896868
Si Si7 0.816103 0.947606 0.395028
O O1 0.500000 0.661084 0.100363
O O2 0.354920 0.693448 0.190832
O O3 0.356265 0.603464 0.142737
O O4 0.347574 0.665316 0.000000
O O5 0.859088 0.257429 0.175034
O O6 0.828756 0.163495 0.136070
O O7 0.000000 0.195171 0.195304
O O8 0.500000 0.932670 0.106987
O O9 0.608229 0.936598 0.249209
O O10 0.684430 0.902500 0.103920
O O11 0.632415 0.000000 0.115336
O O12 0.500000 0.810246 0.271316
O O13 0.632714 0.858507 0.348867
O O14 0.660458 0.819910 0.185138
O O15 0.500000 0.923941 0.608922
O O16 0.299543 0.942642 0.600772
O O17 0.296382 0.826083 0.000000
O O18 0.853984 0.948870 0.500000
O O19 0.840449 0.000000 0.349292
#
# Coordination Sequence:
#
# PCOD9520596 Si02
#       7
#    16  16  16  16  16  16  16
#     4   9  18  33  54  78 100 127 169 218 264 306
#     4  10  21  38  57  77 107 144 179 219 264 313
#     4   9  18  33  54  79 106 138 176 219 268 318
#     4   9  19  36  56  76 101 134 172 218 271 315
#     4   9  17  31  50  71  98 133 171 209 250 304
#     4  11  22  34  53  81 111 144 179 216 261 315
#     4  10  20  31  45  69 101 134 165 204 257 312
#
# _framework density 20.598752000000001
#
# number of rings (size 3 to 8) (size 9 to 14) (size 15 to 20)
#    0.000    2.429    0.000    3.857    0.000    3.714 
#    0.000    6.429    0.000    3.857    0.000    1.000 
#    0.000    0.000    0.000    0.000    0.000    0.000 
#
# Total GULP energy -312242.807542 kJ/mol
# GULP energy per Si atom -5575.764420 kJ/mol
# Density = 2.055187 g / cm^3
# Si number density = 20.598752 Si / 1000 Ang^3
#
#
#
# Elastic Constant Matrix: (Units=GPa)
#
#
# Indices 1 2 3 4 5 6 
#
# 1 42.3959 33.7631 8.4363 0.0000 0.0000 0.0000
# 2 33.7631 111.6996 5.9036 0.0000 0.0000 0.0000
# 3 8.4363 5.9036 45.7423 0.0001 0.0001 0.0000
# 4 0.0000 0.0000 0.0001 2.5515 0.0001 0.0000
# 5 0.0000 0.0000 0.0001 0.0001 -2.6368 0.0000
# 6 0.0000 0.0000 0.0000 0.0000 0.0000 28.1506
#
#
#
# Elastic Compliance Matrix: (Units=1/GPa)
#
#
# Indices 1 2 3 4 5 6 
#
# 1 0.032034 -0.009435 -0.004690 0.000000 0.000000 0.000000
# 2 -0.009435 0.011793 0.000218 0.000000 0.000000 0.000000
# 3 -0.004690 0.000218 0.022699 -0.000001 0.000001 0.000000
# 4 0.000000 0.000000 -0.000001 0.391920 0.000008 0.000000
# 5 0.000000 0.000000 0.000001 0.000008 -0.379241 0.000000
# 6 0.000000 0.000000 0.000000 0.000000 0.000000 0.035523
#
#
# Mechanical properties :
#
#
# Convention : Reuss Voigt Hill
#
# Bulk Modulus (GPa) = 25.83235 32.89374 29.36305
# Shear Modulus (GPa) = 32.16532 15.72871 23.94702
#
# Velocity S-wave (km/s) = 3.95589 2.76629 3.41331
# Velocity P-wave (km/s) = 5.78216 5.11924 5.46077
#
# Compressibility (1/GPa) = 0.03871115
#
# Stress axis : x y z
#
# Youngs Moduli (GPa) = 31.21643 84.79632 44.05574
#
# Poissons Ratio (x) = 0.80006 0.20664
# Poissons Ratio (y) = 0.29453 -0.00961
# Poissons Ratio (z) = 0.14642 -0.01849
#
# Static dielectric constant tensor:
#      x y z
#    x 1.748200 0.000000 0.000000 
#    y 0.000000 1.797390 0.000000 
#    z 0.000000 0.000000 1.763640 
# 
# From -- ./inp_files/35086.got.cif
#   From: 2010.05.17/outbox.cif.g08.bks.cpg/sg71_18_cif.got.tgz:35086.got - 2010.06.03 16:22:01.
