data_PCOD9520804
_publ_section_title
;
Structure prediction by ZEFSAII (Michael W. Deem and Ramdas Pophale) SiO2 
 PCOD9520804
Probable space group: I M M M
;
_chemical_formula_sum "Si O2"
_cell_formula_units_Z 80
_cell_length_a 15.257765
_cell_length_b 18.673660
_cell_length_c 14.788460
_cell_angle_alpha 90.000000
_cell_angle_beta 90.000000
_cell_angle_gamma 90.000000
_cell_volume 4213.503119
_symmetry_space_group_name_H-M "I M M M"
_symmetry_group_IT_number 71
_symmetry_cell_setting 'orthorhombic'
loop_
_space_group_symop_operation_xyz
x,y,z
-x,-y,z
x,-y,-z
-x,y,-z
-x,-y,-z
x,y,-z
-x,y,z
x,-y,z
1/2+x,1/2+y,1/2+z
1/2-x,1/2-y,1/2+z
1/2+x,1/2-y,1/2-z
1/2-x,1/2+y,1/2-z
1/2-x,1/2-y,1/2-z
1/2+x,1/2+y,1/2-z
1/2-x,1/2+y,1/2+z
1/2+x,1/2-y,1/2+z
loop_
_atom_site_type_symbol
_atom_site_label
_atom_site_fract_x
_atom_site_fract_y
_atom_site_fract_z
Si Si1 0.394680 0.583372 0.891592
Si Si2 0.645714 0.655348 0.398139
Si Si3 0.347211 0.720556 0.223712
Si Si4 0.853828 0.345499 0.602144
Si Si5 0.895648 0.000000 0.896105
Si Si6 0.104479 0.500000 0.603592
O O1 0.500000 0.589973 0.876915
O O2 0.371359 0.500000 0.868899
O O3 0.348680 0.646609 0.834153
O O4 0.379114 0.592824 0.000000
O O5 0.608389 0.659540 0.500000
O O6 0.609156 0.706378 0.320932
O O7 0.749677 0.666744 0.405956
O O8 0.634566 0.575248 0.359232
O O9 0.250000 0.750000 0.250000
O O10 0.389900 0.781971 0.162857
O O11 0.890773 0.345223 0.500000
O O12 0.866582 0.424388 0.643382
O O13 0.000000 0.000000 0.895586
O O14 0.863252 0.000000 0.000000
O O15 0.140161 0.500000 0.500000
O O16 0.000000 0.500000 0.600270
#
# Coordination Sequence:
#
# PCOD9520804 Si02
#       6
#    16  16  16  16   8   8
#     4   9  19  36  57  82 114 150 184 222 275 339
#     4   9  18  31  46  66  96 132 165 203 250 302
#     4  10  20  32  49  78 105 140 179 223 267 318
#     4   9  17  31  49  69  97 131 164 206 262 312
#     4   9  17  29  45  65  88 117 156 198 241 293
#     4   9  17  29  47  71  96 123 160 205 253 308
#
# _framework density 18.986578000000002
#
# number of rings (size 3 to 8) (size 9 to 14) (size 15 to 20)
#    0.000    2.800    0.000    1.800    1.400    4.800 
#    1.800    2.000    0.000    0.000    0.000    0.000 
#    0.000    0.800    0.000    0.200    0.000    0.000 
#
# Total GULP energy -222684.824924 kJ/mol
# GULP energy per Si atom -5567.120623 kJ/mol
# Density = 1.894336 g / cm^3
# Si number density = 18.986578 Si / 1000 Ang^3
#
#
#
# Elastic Constant Matrix: (Units=GPa)
#
#
# Indices 1 2 3 4 5 6 
#
# 1 48.2716 13.6625 13.1799 0.0000 0.0000 0.0000
# 2 13.6625 159.4633 87.3520 0.0000 0.0000 0.0000
# 3 13.1799 87.3520 98.6660 0.0000 0.0000 0.0000
# 4 0.0000 0.0000 0.0000 36.9879 0.0000 0.0000
# 5 0.0000 0.0000 0.0000 0.0000 3.5278 0.0000
# 6 0.0000 0.0000 0.0000 0.0000 0.0000 76.4493
#
#
#
# Elastic Compliance Matrix: (Units=1/GPa)
#
#
# Indices 1 2 3 4 5 6 
#
# 1 0.021523 -0.000523 -0.002412 0.000000 0.000000 0.000000
# 2 -0.000523 0.012189 -0.010721 0.000000 0.000000 0.000000
# 3 -0.002412 -0.010721 0.019949 0.000000 0.000000 0.000000
# 4 0.000000 0.000000 0.000000 0.027036 0.000000 0.000000
# 5 0.000000 0.000000 0.000000 0.000000 0.283460 0.000000
# 6 0.000000 0.000000 0.000000 0.000000 0.000000 0.013081
#
#
# Mechanical properties :
#
#
# Convention : Reuss Voigt Hill
#
# Bulk Modulus (GPa) = 37.95305 59.42107 48.68706
# Shear Modulus (GPa) = 12.09680 36.20679 24.15179
#
# Velocity S-wave (km/s) = 2.52687 4.37162 3.57044
# Velocity P-wave (km/s) = 5.34287 7.53961 6.53422
#
# Compressibility (1/GPa) = 0.02634835
#
# Stress axis : x y z
#
# Youngs Moduli (GPa) = 46.46258 82.04250 50.12689
#
# Poissons Ratio (x) = 0.04287 0.12093
# Poissons Ratio (y) = 0.02428 0.53743
# Poissons Ratio (z) = 0.11209 0.87960
#
# Static dielectric constant tensor:
#      x y z
#    x 1.674600 0.000000 0.000000 
#    y 0.000000 1.782240 0.000000 
#    z 0.000000 0.000000 1.726650 
# 
# From -- ./inp_files/36290.got.cif
#   From: 2010.05.17/outbox.cif.g08.bks.cpg/sg71_19_cif.got.tgz:36290.got - 2010.06.03 16:22:01.
