data_PCOD9520783
_publ_section_title
;
Structure prediction by ZEFSAII (Michael W. Deem and Ramdas Pophale) SiO2 
 PCOD9520783
Probable space group: I M M M
;
_chemical_formula_sum "Si O2"
_cell_formula_units_Z 88
_cell_length_a 14.047226
_cell_length_b 10.409544
_cell_length_c 29.995764
_cell_angle_alpha 90.000000
_cell_angle_beta 90.000000
_cell_angle_gamma 90.000000
_cell_volume 4386.137104
_symmetry_space_group_name_H-M "I M M M"
_symmetry_group_IT_number 71
_symmetry_cell_setting 'orthorhombic'
loop_
_space_group_symop_operation_xyz
x,y,z
-x,-y,z
x,-y,-z
-x,y,-z
-x,-y,-z
x,y,-z
-x,y,z
x,-y,z
1/2+x,1/2+y,1/2+z
1/2-x,1/2-y,1/2+z
1/2+x,1/2-y,1/2-z
1/2-x,1/2+y,1/2-z
1/2-x,1/2-y,1/2-z
1/2+x,1/2+y,1/2-z
1/2-x,1/2+y,1/2+z
1/2+x,1/2-y,1/2+z
loop_
_atom_site_type_symbol
_atom_site_label
_atom_site_fract_x
_atom_site_fract_y
_atom_site_fract_z
Si Si1 0.115547 0.354749 0.309914
Si Si2 0.705411 0.647727 0.451987
Si Si3 0.616561 0.351190 0.736428
Si Si4 0.388915 0.344202 0.362437
Si Si5 0.114460 0.000000 0.449043
Si Si6 0.612912 0.223747 0.911328
O O1 0.149999 0.500000 0.301425
O O2 0.146746 0.248885 0.274203
O O3 0.136494 0.316021 0.360809
O O4 0.000000 0.357774 0.307205
O O5 0.682095 0.707456 0.500000
O O6 0.672097 0.500000 0.453377
O O7 0.662091 0.705796 0.406823
O O8 0.818600 0.648050 0.444429
O O9 0.500000 0.351587 0.735402
O O10 0.643899 0.500000 0.744996
O O11 0.647450 0.308118 0.686754
O O12 0.500000 0.310697 0.365399
O O13 0.381936 0.500000 0.362262
O O14 0.137136 0.871709 0.422021
O O15 0.152273 0.000000 0.500000
O O16 0.000000 0.000000 0.452925
O O17 0.500000 0.203367 0.918260
#
# Coordination Sequence:
#
# PCOD9520783 Si02
#       6
#    16  16  16  16   8  16
#     4   9  17  28  45  72 106 139 167 203 254 305
#     4  10  20  32  49  74 102 133 168 207 256 310
#     4   8  14  26  48  73  98 131 170 210 251 299
#     4   8  15  30  51  75 101 130 166 210 257 302
#     4   9  18  32  50  70  91 127 179 223 253 285
#     4  10  20  33  50  71 101 136 172 211 252 300
#
# _framework density 20.063213000000001
#
# number of rings (size 3 to 8) (size 9 to 14) (size 15 to 20)
#    0.000    3.000    0.000    2.182    1.273    2.545 
#    0.000    3.636    2.000    0.000    0.000    0.000 
#    0.000    2.182    0.000    0.000    0.000    0.000 
#
# Total GULP energy -245271.260664 kJ/mol
# GULP energy per Si atom -5574.346833 kJ/mol
# Density = 2.001755 g / cm^3
# Si number density = 20.063213 Si / 1000 Ang^3
#
#
#
# Elastic Constant Matrix: (Units=GPa)
#
#
# Indices 1 2 3 4 5 6 
#
# 1 46.5122 7.3552 32.8235 0.0000 0.0000 0.0000
# 2 7.3552 86.6269 61.1657 0.0000 0.0000 0.0000
# 3 32.8235 61.1657 163.2391 0.0000 0.0000 0.0000
# 4 0.0000 0.0000 0.0000 -0.3255 0.0000 0.0000
# 5 0.0000 0.0000 0.0000 0.0000 7.2164 0.0000
# 6 0.0000 0.0000 0.0000 0.0000 0.0000 6.1682
#
#
#
# Elastic Compliance Matrix: (Units=1/GPa)
#
#
# Indices 1 2 3 4 5 6 
#
# 1 0.025298 0.001963 -0.005822 0.000000 0.000000 0.000000
# 2 0.001963 0.015849 -0.006333 0.000000 0.000000 0.000000
# 3 -0.005822 -0.006333 0.009670 0.000000 0.000000 0.000000
# 4 0.000000 0.000000 0.000000 -3.072306 0.000000 0.000000
# 5 0.000000 0.000000 0.000000 0.000000 0.138574 0.000000
# 6 0.000000 0.000000 0.000000 0.000000 0.000000 0.162121
#
#
# Mechanical properties :
#
#
# Convention : Reuss Voigt Hill
#
# Bulk Modulus (GPa) = 32.86050 55.45191 44.15621
# Shear Modulus (GPa) = -1.85855 15.61406 6.87775
#
# Velocity S-wave (km/s) = -0.96351 2.79273 1.85351
# Velocity P-wave (km/s) = 3.89567 6.17233 5.16110
#
# Compressibility (1/GPa) = 0.03043167
#
# Stress axis : x y z
#
# Youngs Moduli (GPa) = 39.52849 63.09568 103.41419
#
# Poissons Ratio (x) = -0.12387 0.60213
# Poissons Ratio (y) = -0.07760 0.65496
# Poissons Ratio (z) = 0.23015 0.39961
#
# Static dielectric constant tensor:
#      x y z
#    x 1.761660 0.000000 0.000000 
#    y 0.000000 1.718900 0.000000 
#    z 0.000000 0.000000 1.728500 
# 
# From -- ./inp_files/69818.got.cif
#   From: 2010.05.17/outbox.cif.g08.bks.cpg/sg71_35_cif.got.tgz:69818.got - 2010.06.03 16:22:01.
