data_PCOD9520867
_publ_section_title
;
Structure prediction by ZEFSAII (Michael W. Deem and Ramdas Pophale) SiO2 
 PCOD9520867
Probable space group: I M M M
;
_chemical_formula_sum "Si O2"
_cell_formula_units_Z 72
_cell_length_a 32.434983
_cell_length_b 8.522588
_cell_length_c 14.890260
_cell_angle_alpha 90.000000
_cell_angle_beta 90.000000
_cell_angle_gamma 90.000000
_cell_volume 4116.114526
_symmetry_space_group_name_H-M "I M M M"
_symmetry_group_IT_number 71
_symmetry_cell_setting 'orthorhombic'
loop_
_space_group_symop_operation_xyz
x,y,z
-x,-y,z
x,-y,-z
-x,y,-z
-x,-y,-z
x,y,-z
-x,y,z
x,-y,z
1/2+x,1/2+y,1/2+z
1/2-x,1/2-y,1/2+z
1/2+x,1/2-y,1/2-z
1/2-x,1/2+y,1/2-z
1/2-x,1/2-y,1/2-z
1/2+x,1/2+y,1/2-z
1/2-x,1/2+y,1/2+z
1/2+x,1/2-y,1/2+z
loop_
_atom_site_type_symbol
_atom_site_label
_atom_site_fract_x
_atom_site_fract_y
_atom_site_fract_z
Si Si1 0.953186 0.685670 0.306015
Si Si2 0.632444 0.687703 0.192702
Si Si3 0.336711 0.811336 0.000000
Si Si4 0.711288 0.689835 0.306526
Si Si5 0.759713 0.809048 0.000000
Si Si6 0.548507 0.675161 0.000000
O O1 0.952849 0.500000 0.292281
O O2 0.911760 0.760767 0.266629
O O3 0.945386 0.726403 0.410567
O O4 0.000000 0.742866 0.283327
O O5 0.632545 0.500000 0.186925
O O6 0.669444 0.741355 0.257703
O O7 0.642650 0.750997 0.092273
O O8 0.431771 0.500000 0.000000
O O9 0.288479 0.761696 0.000000
O O10 0.711674 0.500000 0.305806
O O11 0.750000 0.750000 0.250000
O O12 0.717894 0.742706 0.409006
O O13 0.759540 0.000000 0.000000
O O14 0.500000 0.648854 0.000000
O O15 0.661198 0.000000 0.000000
#
# Coordination Sequence:
#
# PCOD9520867 Si02
#       6
#    16  16   8  16   8   8
#     4  10  20  33  48  66  92 129 171 209 247 299
#     4  11  22  33  49  75 105 133 167 213 256 296
#     4  11  20  32  52  72 100 141 177 207 243 297
#     4  10  20  35  54  76 102 132 168 206 247 295
#     4   9  18  34  54  74  99 135 170 202 245 292
#     4   9  16  27  44  65  92 125 161 204 249 290
#
# _framework density 17.492225999999999
#
# number of rings (size 3 to 8) (size 9 to 14) (size 15 to 20)
#    0.000    1.889    2.222    2.667    0.000    3.556 
#    0.000    0.556    0.000    0.000    0.000    0.778 
#    0.000    6.222    0.000    0.000    0.000    0.000 
#
# Total GULP energy -200604.290350 kJ/mol
# GULP energy per Si atom -5572.341399 kJ/mol
# Density = 1.745241 g / cm^3
# Si number density = 17.492226 Si / 1000 Ang^3
#
#
#
# Elastic Constant Matrix: (Units=GPa)
#
#
# Indices 1 2 3 4 5 6 
#
# 1 187.2230 27.2509 63.1955 0.0000 0.0000 0.0000
# 2 27.2509 34.9306 12.5873 0.0000 0.0000 0.0000
# 3 63.1955 12.5873 95.2447 0.0000 0.0000 0.0000
# 4 0.0000 0.0000 0.0000 10.2458 0.0000 0.0000
# 5 0.0000 0.0000 0.0000 0.0000 0.2110 0.0000
# 6 0.0000 0.0000 0.0000 0.0000 0.0000 26.2742
#
#
#
# Elastic Compliance Matrix: (Units=1/GPa)
#
#
# Indices 1 2 3 4 5 6 
#
# 1 0.007432 -0.004222 -0.004373 0.000000 0.000000 0.000000
# 2 -0.004222 0.032458 -0.001488 0.000000 0.000000 0.000000
# 3 -0.004373 -0.001488 0.013598 0.000000 0.000000 0.000000
# 4 0.000000 0.000000 0.000000 0.097601 0.000000 0.000000
# 5 0.000000 0.000000 0.000000 0.000000 4.739646 0.000000
# 6 0.000000 0.000000 0.000000 0.000000 0.000000 0.038060
#
#
# Mechanical properties :
#
#
# Convention : Reuss Voigt Hill
#
# Bulk Modulus (GPa) = 30.01123 58.16286 44.08704
# Shear Modulus (GPa) = 1.00805 21.63716 11.32261
#
# Velocity S-wave (km/s) = 0.75996 3.52086 2.54696
# Velocity P-wave (km/s) = 4.23842 7.06056 5.82304
#
# Compressibility (1/GPa) = 0.03332086
#
# Stress axis : x y z
#
# Youngs Moduli (GPa) = 134.55571 30.80880 73.54275
#
# Poissons Ratio (x) = 0.13008 0.32161
# Poissons Ratio (y) = 0.56810 0.10945
# Poissons Ratio (z) = 0.58843 0.04585
#
# Static dielectric constant tensor:
#      x y z
#    x 1.665110 0.000000 0.000000 
#    y 0.000000 1.606360 0.000000 
#    z 0.000000 0.000000 1.629150 
# 
# From -- ./inp_files/31682.got.cif
#   From: 2010.05.17/outbox.cif.g08.bks.cpg/sg71_16_cif.got.tgz:31682.got - 2010.06.03 16:22:01.
