data_PCOD9520099
_publ_section_title
;
Structure prediction by ZEFSAII (Michael W. Deem and Ramdas Pophale) SiO2 
 PCOD9520099
Probable space group: I M M M
;
_chemical_formula_sum "Si O2"
_cell_formula_units_Z 72
_cell_length_a 7.522416
_cell_length_b 22.947773
_cell_length_c 20.098034
_cell_angle_alpha 90.000000
_cell_angle_beta 90.000000
_cell_angle_gamma 90.000000
_cell_volume 3469.376789
_symmetry_space_group_name_H-M "I M M M"
_symmetry_group_IT_number 71
_symmetry_cell_setting 'orthorhombic'
loop_
_space_group_symop_operation_xyz
x,y,z
-x,-y,z
x,-y,-z
-x,y,-z
-x,-y,-z
x,y,-z
-x,y,z
x,-y,z
1/2+x,1/2+y,1/2+z
1/2-x,1/2-y,1/2+z
1/2+x,1/2-y,1/2-z
1/2-x,1/2+y,1/2-z
1/2-x,1/2-y,1/2-z
1/2+x,1/2+y,1/2-z
1/2-x,1/2+y,1/2+z
1/2+x,1/2-y,1/2+z
loop_
_atom_site_type_symbol
_atom_site_label
_atom_site_fract_x
_atom_site_fract_y
_atom_site_fract_z
Si Si1 0.213219 0.500000 0.576223
Si Si2 0.209481 0.112936 0.163984
Si Si3 0.781857 0.067416 0.305505
Si Si4 0.286199 0.717721 0.424405
Si Si5 0.787519 0.851469 0.575086
O O1 0.277608 0.500000 0.500000
O O2 0.272134 0.442671 0.615829
O O3 0.000000 0.500000 0.575147
O O4 0.280792 0.096174 0.236477
O O5 0.283851 0.169646 0.126756
O O6 0.000000 0.123800 0.173773
O O7 0.721322 0.104274 0.369131
O O8 0.000000 0.067837 0.304861
O O9 0.728080 0.000000 0.308316
O O10 0.220035 0.707800 0.500000
O O11 0.500000 0.711923 0.426759
O O12 0.245882 0.784281 0.406007
O O13 0.717074 0.860349 0.500000
O O14 0.000000 0.859145 0.571890
#
# Coordination Sequence:
#
# PCOD9520099 Si02
#       5
#     8  16  16  16  16
#     4  11  23  35  49  75 108 137 166 206 253 297
#     4  10  19  34  55  75  98 135 176 210 247 296
#     4   9  17  31  52  76 101 130 169 217 255 292
#     4   9  18  32  50  73 100 130 168 211 251 298
#     4   9  18  32  51  75 102 133 168 208 259 310
#
# _framework density 20.753008000000001
#
# number of rings (size 3 to 8) (size 9 to 14) (size 15 to 20)
#    0.000    2.556    1.111    1.000    0.000    4.000 
#    0.000    5.556    0.000    0.000    0.000    3.111 
#    0.000    0.000    0.000    0.000    0.000    0.000 
#
# Total GULP energy -201001.788846 kJ/mol
# GULP energy per Si atom -5583.383024 kJ/mol
# Density = 2.070577 g / cm^3
# Si number density = 20.753008 Si / 1000 Ang^3
#
#
#
# Elastic Constant Matrix: (Units=GPa)
#
#
# Indices 1 2 3 4 5 6 
#
# 1 52.2135 2.7378 4.0259 0.0000 0.0000 0.0000
# 2 2.7378 168.7292 144.3652 0.0000 0.0000 0.0000
# 3 4.0259 144.3652 187.4697 0.0000 0.0000 0.0000
# 4 0.0000 0.0000 0.0000 81.5403 0.0000 0.0000
# 5 0.0000 0.0000 0.0000 0.0000 29.6671 0.0000
# 6 0.0000 0.0000 0.0000 0.0000 0.0000 4.2043
#
#
#
# Elastic Compliance Matrix: (Units=1/GPa)
#
#
# Indices 1 2 3 4 5 6 
#
# 1 0.019185 0.000121 -0.000505 0.000000 0.000000 0.000000
# 2 0.000121 0.017375 -0.013382 0.000000 0.000000 0.000000
# 3 -0.000505 -0.013382 0.015650 0.000000 0.000000 0.000000
# 4 0.000000 0.000000 0.000000 0.012264 0.000000 0.000000
# 5 0.000000 0.000000 0.000000 0.000000 0.033707 0.000000
# 6 0.000000 0.000000 0.000000 0.000000 0.000000 0.237850
#
#
# Mechanical properties :
#
#
# Convention : Reuss Voigt Hill
#
# Bulk Modulus (GPa) = 40.52405 78.96336 59.74371
# Shear Modulus (GPa) = 13.44847 40.23458 26.84152
#
# Velocity S-wave (km/s) = 2.54840 4.40788 3.60026
# Velocity P-wave (km/s) = 5.31303 8.00235 6.79213
#
# Compressibility (1/GPa) = 0.02467670
#
# Stress axis : x y z
#
# Youngs Moduli (GPa) = 52.12476 57.55500 63.89605
#
# Poissons Ratio (x) = -0.00695 0.03227
# Poissons Ratio (y) = -0.00630 0.85508
# Poissons Ratio (z) = 0.02632 0.77022
#
# Static dielectric constant tensor:
#      x y z
#    x 1.789270 0.000000 0.000000 
#    y 0.000000 1.690890 0.000000 
#    z 0.000000 0.000000 1.736940 
# 
# From -- ./inp_files/7894.got.cif
#   From: 2010.05.17/outbox.cif.g08.bks.cpg/sg71_4_cif.got.tgz:7894.got - 2010.06.03 16:22:01.
