data_PCOD9520283
_publ_section_title
;
Structure prediction by ZEFSAII (Michael W. Deem and Ramdas Pophale) SiO2 
 PCOD9520283
Probable space group: I M M M
;
_chemical_formula_sum "Si O2"
_cell_formula_units_Z 90
_cell_length_a 23.855613
_cell_length_b 7.474536
_cell_length_c 22.815852
_cell_angle_alpha 90.000000
_cell_angle_beta 90.000000
_cell_angle_gamma 90.000000
_cell_volume 4068.286315
_symmetry_space_group_name_H-M "I M M M"
_symmetry_group_IT_number 71
_symmetry_cell_setting 'orthorhombic'
loop_
_space_group_symop_operation_xyz
x,y,z
-x,-y,z
x,-y,-z
-x,y,-z
-x,-y,-z
x,y,-z
-x,y,z
x,-y,z
1/2+x,1/2+y,1/2+z
1/2-x,1/2-y,1/2+z
1/2+x,1/2-y,1/2-z
1/2-x,1/2+y,1/2-z
1/2-x,1/2-y,1/2-z
1/2+x,1/2+y,1/2-z
1/2-x,1/2+y,1/2+z
1/2+x,1/2-y,1/2+z
loop_
_atom_site_type_symbol
_atom_site_label
_atom_site_fract_x
_atom_site_fract_y
_atom_site_fract_z
Si Si1 0.583040 0.217106 0.500000
Si Si2 0.000000 0.000000 0.500000
Si Si3 0.619192 0.279653 0.171347
Si Si4 0.233832 0.789841 0.380524
Si Si5 0.000000 0.800520 0.375927
Si Si6 0.666369 0.702914 0.704841
Si Si7 0.940209 0.282940 0.870484
Si Si8 0.212201 0.719496 0.000000
O O1 0.558940 0.274545 0.438124
O O2 0.647654 0.268657 0.500000
O O3 0.578241 0.000000 0.500000
O O4 0.000000 0.845549 0.446044
O O5 0.618018 0.500000 0.170776
O O6 0.672054 0.219781 0.132599
O O7 0.558703 0.219472 0.147051
O O8 0.638417 0.219580 0.236294
O O9 0.277961 0.775430 0.326786
O O10 0.259860 0.715720 0.440161
O O11 0.226747 0.000000 0.390708
O O12 0.000000 0.000000 0.348071
O O13 0.681412 0.500000 0.719678
O O14 0.615494 0.710747 0.658954
O O15 0.936143 0.500000 0.868711
O O16 0.000000 0.231923 0.842561
O O17 0.213040 0.500000 0.000000
#
# Coordination Sequence:
#
# PCOD9520283 Si02
#       8
#     8   2  16  16   8  16  16   8
#     4   9  15  30  52  74 101 130 172 227 277 303
#     4   8  16  28  60  80 116 140 170 234 286 336
#     4   9  19  33  51  75 108 144 176 207 269 331
#     4  10  19  35  55  79 102 138 184 230 270 316
#     4   8  16  32  50  80 111 138 168 216 278 331
#     4  11  22  34  51  76 109 149 181 215 265 328
#     4  10  20  34  54  77 101 138 184 229 268 312
#     4   9  16  28  52  77 100 128 171 233 282 311
#
# _framework density 22.122336000000001
#
# number of rings (size 3 to 8) (size 9 to 14) (size 15 to 20)
#    0.267    2.133    1.778    1.333    1.244    2.133 
#    1.600    2.667    0.000    1.067    0.000    0.000 
#    0.000    0.000    0.000    5.778    0.000    0.000 
#
# Total GULP energy -250598.099808 kJ/mol
# GULP energy per Si atom -5568.846662 kJ/mol
# Density = 2.207198 g / cm^3
# Si number density = 22.122336 Si / 1000 Ang^3
#
#
#
# Elastic Constant Matrix: (Units=GPa)
#
#
# Indices 1 2 3 4 5 6 
#
# 1 211.0844 0.2382 76.2553 0.0000 0.0000 0.0000
# 2 0.2382 55.6602 -0.5650 0.0000 0.0000 0.0000
# 3 76.2553 -0.5650 121.6638 0.0000 0.0000 0.0000
# 4 0.0000 0.0000 0.0000 -6.7472 0.0000 0.0000
# 5 0.0000 0.0000 0.0000 0.0000 13.1894 0.0000
# 6 0.0000 0.0000 0.0000 0.0000 0.0000 -31.8153
#
#
#
# Elastic Compliance Matrix: (Units=1/GPa)
#
#
# Indices 1 2 3 4 5 6 
#
# 1 0.006124 -0.000065 -0.003839 0.000000 0.000000 0.000000
# 2 -0.000065 0.017968 0.000124 0.000000 0.000000 0.000000
# 3 -0.003839 0.000124 0.010626 0.000000 0.000000 0.000000
# 4 0.000000 0.000000 0.000000 -0.148211 0.000000 0.000000
# 5 0.000000 0.000000 0.000000 0.000000 0.075818 0.000000
# 6 0.000000 0.000000 0.000000 0.000000 0.000000 -0.031431
#
#
# Mechanical properties :
#
#
# Convention : Reuss Voigt Hill
#
# Bulk Modulus (GPa) = 36.82075 60.02948 48.42512
# Shear Modulus (GPa) = -95.25038 15.75737 -39.74650
#
# Velocity S-wave (km/s) = -6.56884 2.67176 -4.24331
# Velocity P-wave (km/s) = 6.39160 6.05903 1.43888
#
# Compressibility (1/GPa) = 0.02715860
#
# Stress axis : x y z
#
# Youngs Moduli (GPa) = 163.28346 55.65541 94.10853
#
# Poissons Ratio (x) = 0.00363 0.36127
# Poissons Ratio (y) = 0.01064 -0.01170
# Poissons Ratio (z) = 0.62682 -0.00692
#
# Static dielectric constant tensor:
#      x y z
#    x 1.808320 0.000000 0.000000 
#    y 0.000000 1.877830 0.000000 
#    z 0.000000 0.000000 1.827480 
# 
# From -- ./inp_files/61208.got.cif
#   From: 2010.05.17/outbox.cif.g08.bks.cpg/sg71_31_cif.got.tgz:61208.got - 2010.06.03 16:22:01.
