data_PCOD9520454
_publ_section_title
;
Structure prediction by ZEFSAII (Michael W. Deem and Ramdas Pophale) SiO2 
 PCOD9520454
Probable space group: I M M M
;
_chemical_formula_sum "Si O2"
_cell_formula_units_Z 56
_cell_length_a 7.521531
_cell_length_b 15.994064
_cell_length_c 27.044649
_cell_angle_alpha 90.000000
_cell_angle_beta 90.000000
_cell_angle_gamma 90.000000
_cell_volume 3253.467169
_symmetry_space_group_name_H-M "I M M M"
_symmetry_group_IT_number 71
_symmetry_cell_setting 'orthorhombic'
loop_
_space_group_symop_operation_xyz
x,y,z
-x,-y,z
x,-y,-z
-x,y,-z
-x,-y,-z
x,y,-z
-x,y,z
x,-y,z
1/2+x,1/2+y,1/2+z
1/2-x,1/2-y,1/2+z
1/2+x,1/2-y,1/2-z
1/2-x,1/2+y,1/2-z
1/2-x,1/2-y,1/2-z
1/2+x,1/2+y,1/2-z
1/2-x,1/2+y,1/2+z
1/2+x,1/2-y,1/2+z
loop_
_atom_site_type_symbol
_atom_site_label
_atom_site_fract_x
_atom_site_fract_y
_atom_site_fract_z
Si Si1 0.788229 0.320127 0.902646
Si Si2 0.784182 0.500000 0.057125
Si Si3 0.000000 0.302999 0.444337
Si Si4 0.000000 0.401522 0.654830
Si Si5 0.207131 0.220106 0.194955
O O1 0.732274 0.414459 0.915661
O O2 0.671084 0.255946 0.934369
O O3 0.757961 0.292844 0.845737
O O4 0.000000 0.312088 0.912714
O O5 0.000000 0.500000 0.056342
O O6 0.723965 0.500000 0.000000
O O7 0.000000 0.334446 0.500000
O O8 0.000000 0.373982 0.402572
O O9 0.169548 0.357017 0.679724
O O10 0.000000 0.500000 0.660914
O O11 0.250000 0.250000 0.250000
O O12 0.000000 0.198487 0.191412
#
# Coordination Sequence:
#
# PCOD9520454 Si02
#       5
#    16   8   8   8  16
#     4   9  19  33  50  77 108 142 180 222 268 328
#     4   9  16  29  49  73 106 141 175 214 261 318
#     4  10  20  34  56  78 103 143 186 224 275 326
#     4  10  22  39  57  83 112 140 183 230 273 327
#     4  10  19  36  59  80 109 145 181 225 276 326
#
# _framework density 17.212406000000001
#
# number of rings (size 3 to 8) (size 9 to 14) (size 15 to 20)
#    0.000    2.429    1.429    0.857    0.000    3.143 
#    2.571    1.429    0.000    0.000    0.000    8.000 
#    0.000    0.000    0.000    0.000    0.000    0.000 
#
# Total GULP energy -156188.476273 kJ/mol
# GULP energy per Si atom -5578.159867 kJ/mol
# Density = 1.717323 g / cm^3
# Si number density = 17.212406 Si / 1000 Ang^3
#
#
#
# Elastic Constant Matrix: (Units=GPa)
#
#
# Indices 1 2 3 4 5 6 
#
# 1 86.3151 54.6519 50.3853 0.0000 0.0000 0.0000
# 2 54.6519 153.1377 77.2258 0.0000 0.0000 0.0000
# 3 50.3853 77.2258 147.2092 0.0000 0.0000 0.0000
# 4 0.0000 0.0000 0.0000 7.9928 0.0000 0.0000
# 5 0.0000 0.0000 0.0000 0.0000 9.9088 0.0000
# 6 0.0000 0.0000 0.0000 0.0000 0.0000 17.4593
#
#
#
# Elastic Compliance Matrix: (Units=1/GPa)
#
#
# Indices 1 2 3 4 5 6 
#
# 1 0.016129 -0.004041 -0.003400 0.000000 0.000000 0.000000
# 2 -0.004041 0.009892 -0.003806 0.000000 0.000000 0.000000
# 3 -0.003400 -0.003806 0.009953 0.000000 0.000000 0.000000
# 4 0.000000 0.000000 0.000000 0.125113 0.000000 0.000000
# 5 0.000000 0.000000 0.000000 0.000000 0.100921 0.000000
# 6 0.000000 0.000000 0.000000 0.000000 0.000000 0.057276
#
#
# Mechanical properties :
#
#
# Convention : Reuss Voigt Hill
#
# Bulk Modulus (GPa) = 74.18991 83.46533 78.82762
# Shear Modulus (GPa) = 14.43949 20.69878 17.56913
#
# Velocity S-wave (km/s) = 2.89952 3.47154 3.19834
# Velocity P-wave (km/s) = 7.37603 8.04148 7.71593
#
# Compressibility (1/GPa) = 0.01347892
#
# Stress axis : x y z
#
# Youngs Moduli (GPa) = 61.99889 101.09534 100.46720
#
# Poissons Ratio (x) = 0.40857 0.34163
# Poissons Ratio (y) = 0.25056 0.38237
# Poissons Ratio (z) = 0.21082 0.38476
#
# Static dielectric constant tensor:
#      x y z
#    x 1.618670 0.000000 0.000000 
#    y 0.000000 1.541370 0.000000 
#    z 0.000000 0.000000 1.578560 
# 
# From -- ./inp_files/3386.got.cif
#   From: 2010.05.17/outbox.cif.g08.bks.cpg/sg71_2_cif.got.tgz:3386.got - 2010.06.03 16:22:01.
