data_PCOD9520041
_publ_section_title
;
Structure prediction by ZEFSAII (Michael W. Deem and Ramdas Pophale) SiO2 
 PCOD9520041
Probable space group: I M M M
;
_chemical_formula_sum "Si O2"
_cell_formula_units_Z 96
_cell_length_a 23.293012
_cell_length_b 23.698651
_cell_length_c 10.733918
_cell_angle_alpha 90.000000
_cell_angle_beta 90.000000
_cell_angle_gamma 90.000000
_cell_volume 5925.261870
_symmetry_space_group_name_H-M "I M M M"
_symmetry_group_IT_number 71
_symmetry_cell_setting 'orthorhombic'
loop_
_space_group_symop_operation_xyz
x,y,z
-x,-y,z
x,-y,-z
-x,y,-z
-x,-y,-z
x,y,-z
-x,y,z
x,-y,z
1/2+x,1/2+y,1/2+z
1/2-x,1/2-y,1/2+z
1/2+x,1/2-y,1/2-z
1/2-x,1/2+y,1/2-z
1/2-x,1/2-y,1/2-z
1/2+x,1/2+y,1/2-z
1/2-x,1/2+y,1/2+z
1/2+x,1/2-y,1/2+z
loop_
_atom_site_type_symbol
_atom_site_label
_atom_site_fract_x
_atom_site_fract_y
_atom_site_fract_z
Si Si1 0.264272 0.123284 0.646693
Si Si2 0.567393 0.261929 0.863319
Si Si3 0.933889 0.117707 0.758288
Si Si4 0.360663 0.216250 0.639228
Si Si5 0.180580 0.841829 0.865526
Si Si6 0.243245 0.000000 0.351078
Si Si7 0.890023 0.000000 0.649954
O O1 0.246319 0.126897 0.500000
O O2 0.318822 0.163675 0.660567
O O3 0.215200 0.141222 0.743029
O O4 0.274888 0.057907 0.679673
O O5 0.500000 0.249302 0.864167
O O6 0.572113 0.329179 0.836278
O O7 0.596212 0.227431 0.751939
O O8 0.592209 0.249698 0.000000
O O9 0.883507 0.132328 0.855326
O O10 0.000000 0.118462 0.803830
O O11 0.919953 0.057094 0.698501
O O12 0.386989 0.210879 0.500000
O O13 0.324196 0.274150 0.636203
O O14 0.205817 0.858964 0.000000
O O15 0.176874 0.000000 0.306205
O O16 0.238093 0.000000 0.500000
O O17 0.891490 0.000000 0.500000
#
# Coordination Sequence:
#
# PCOD9520041 Si02
#       7
#    16  16  16  16  16   8   8
#     4  10  19  34  52  71  95 123 159 200 244 290
#     4   9  18  32  50  74 102 128 156 195 241 283
#     4  10  20  32  46  66  94 129 168 208 245 282
#     4   9  19  32  49  73  98 126 158 193 238 292
#     4  10  20  33  48  69  95 125 161 201 247 291
#     4   9  18  31  50  70  92 126 161 199 246 282
#     4  11  19  30  47  68  92 125 171 213 247 279
#
# _framework density 16.201816000000001
#
# number of rings (size 3 to 8) (size 9 to 14) (size 15 to 20)
#    0.000    2.333    1.667    1.250    0.000    5.333 
#    0.000    5.000    0.000    1.000    0.000    0.583 
#    0.000    4.667    0.000    0.000    0.000    0.000 
#
# Total GULP energy -267212.493781 kJ/mol
# GULP energy per Si atom -5566.926954 kJ/mol
# Density = 1.616494 g / cm^3
# Si number density = 16.201816 Si / 1000 Ang^3
#
#
#
# Elastic Constant Matrix: (Units=GPa)
#
#
# Indices 1 2 3 4 5 6 
#
# 1 51.6990 51.2722 48.1055 0.0000 0.0000 0.0000
# 2 51.2722 101.6661 43.1293 0.0000 0.0000 0.0000
# 3 48.1055 43.1293 114.1450 0.0000 0.0000 0.0000
# 4 0.0000 0.0000 0.0000 7.4262 0.0000 0.0000
# 5 0.0000 0.0000 0.0000 0.0000 14.1844 0.0000
# 6 0.0000 0.0000 0.0000 0.0000 0.0000 15.6619
#
#
#
# Elastic Compliance Matrix: (Units=1/GPa)
#
#
# Indices 1 2 3 4 5 6 
#
# 1 0.053778 -0.020848 -0.014787 0.000000 0.000000 0.000000
# 2 -0.020848 0.019796 0.001306 0.000000 0.000000 0.000000
# 3 -0.014787 0.001306 0.014499 0.000000 0.000000 0.000000
# 4 0.000000 0.000000 0.000000 0.134658 0.000000 0.000000
# 5 0.000000 0.000000 0.000000 0.000000 0.070500 0.000000
# 6 0.000000 0.000000 0.000000 0.000000 0.000000 0.063849
#
#
# Mechanical properties :
#
#
# Convention : Reuss Voigt Hill
#
# Bulk Modulus (GPa) = 51.50489 61.39155 56.44822
# Shear Modulus (GPa) = 11.56848 15.78806 13.67827
#
# Velocity S-wave (km/s) = 2.67502 3.12502 2.90874
# Velocity P-wave (km/s) = 6.43425 7.14108 6.79686
#
# Compressibility (1/GPa) = 0.01941563
#
# Stress axis : x y z
#
# Youngs Moduli (GPa) = 18.59499 50.51510 68.97056
#
# Poissons Ratio (x) = 1.05315 1.01986
# Poissons Ratio (y) = 0.38767 -0.09011
# Poissons Ratio (z) = 0.27496 -0.06600
#
# Static dielectric constant tensor:
#      x y z
#    x 1.539790 0.000000 0.000000 
#    y 0.000000 1.540390 0.000000 
#    z 0.000000 0.000000 1.572860 
# 
# From -- ./inp_files/27594.got.cif
#   From: 2010.05.17/outbox.cif.g08.bks.cpg/sg71_14_cif.got.tgz:27594.got - 2010.06.03 16:22:01.
