data_PCOD9520353
_publ_section_title
;
Structure prediction by ZEFSAII (Michael W. Deem and Ramdas Pophale) SiO2 
 PCOD9520353
Probable space group: I M M M
;
_chemical_formula_sum "Si O2"
_cell_formula_units_Z 66
_cell_length_a 7.317307
_cell_length_b 20.422586
_cell_length_c 19.301064
_cell_angle_alpha 90.000000
_cell_angle_beta 90.000000
_cell_angle_gamma 90.000000
_cell_volume 2884.318800
_symmetry_space_group_name_H-M "I M M M"
_symmetry_group_IT_number 71
_symmetry_cell_setting 'orthorhombic'
loop_
_space_group_symop_operation_xyz
x,y,z
-x,-y,z
x,-y,-z
-x,y,-z
-x,-y,-z
x,y,-z
-x,y,z
x,-y,z
1/2+x,1/2+y,1/2+z
1/2-x,1/2-y,1/2+z
1/2+x,1/2-y,1/2-z
1/2-x,1/2+y,1/2-z
1/2-x,1/2-y,1/2-z
1/2+x,1/2+y,1/2-z
1/2-x,1/2+y,1/2+z
1/2+x,1/2-y,1/2+z
loop_
_atom_site_type_symbol
_atom_site_label
_atom_site_fract_x
_atom_site_fract_y
_atom_site_fract_z
Si Si1 0.785933 0.227934 0.423960
Si Si2 0.000000 0.500000 0.000000
Si Si3 0.220472 0.136949 0.855498
Si Si4 0.779130 0.138228 0.699675
Si Si5 0.780959 0.000000 0.629625
Si Si6 0.722956 0.500000 0.419859
O O1 0.707962 0.213137 0.500000
O O2 0.771604 0.304345 0.406389
O O3 0.709209 0.187411 0.359318
O O4 0.000000 0.210850 0.427254
O O5 0.159790 0.500000 0.061049
O O6 0.286476 0.150870 0.777489
O O7 0.282587 0.066292 0.882170
O O8 0.000000 0.135072 0.853886
O O9 0.741026 0.064749 0.674508
O O10 0.000000 0.144967 0.702436
O O11 0.000000 0.000000 0.614146
O O12 0.500000 0.500000 0.418646
O O13 0.778141 0.500000 0.500000
#
# Coordination Sequence:
#
# PCOD9520353 Si02
#       6
#    16   2  16  16   8   8
#     4  10  21  36  53  79 114 151 193 237 297 372
#     4  12  26  40  60 102 128 152 220 254 300 378
#     4  10  19  35  58  85 109 144 196 244 293 361
#     4   9  19  37  62  83 109 156 200 236 300 366
#     4  10  22  43  65  88 127 168 201 256 312 358
#     4   9  17  29  51  80 112 139 175 231 291 353
#
# _framework density 22.882353999999999
#
# number of rings (size 3 to 8) (size 9 to 14) (size 15 to 20)
#    0.000    2.303    0.000    2.364    1.697    4.364 
#    4.364    0.606    0.000    2.182    0.000    0.000 
#    0.000    0.000    0.000    0.000    0.000    0.000 
#
# Total GULP energy -184268.343350 kJ/mol
# GULP energy per Si atom -5583.889192 kJ/mol
# Density = 2.283027 g / cm^3
# Si number density = 22.882354 Si / 1000 Ang^3
#
#
#
# Elastic Constant Matrix: (Units=GPa)
#
#
# Indices 1 2 3 4 5 6 
#
# 1 99.0677 -14.8782 6.6955 0.0000 0.0000 0.0000
# 2 -14.8782 95.5875 32.4279 0.0000 0.0000 0.0000
# 3 6.6955 32.4279 173.2223 0.0000 0.0000 0.0000
# 4 0.0000 0.0000 0.0000 16.4454 0.0000 0.0000
# 5 0.0000 0.0000 0.0000 0.0000 3.7099 0.0000
# 6 0.0000 0.0000 0.0000 0.0000 0.0000 6.2888
#
#
#
# Elastic Compliance Matrix: (Units=1/GPa)
#
#
# Indices 1 2 3 4 5 6 
#
# 1 0.010427 0.001879 -0.000755 0.000000 0.000000 0.000000
# 2 0.001879 0.011510 -0.002227 0.000000 0.000000 0.000000
# 3 -0.000755 -0.002227 0.006219 0.000000 0.000000 0.000000
# 4 0.000000 0.000000 0.000000 0.060807 0.000000 0.000000
# 5 0.000000 0.000000 0.000000 0.000000 0.269550 0.000000
# 6 0.000000 0.000000 0.000000 0.000000 0.000000 0.159013
#
#
# Mechanical properties :
#
#
# Convention : Reuss Voigt Hill
#
# Bulk Modulus (GPa) = 38.53560 46.26312 42.39936
# Shear Modulus (GPa) = 9.46283 28.19762 18.83023
#
# Velocity S-wave (km/s) = 2.03578 3.51420 2.87176
# Velocity P-wave (km/s) = 4.73320 6.06035 5.43742
#
# Compressibility (1/GPa) = 0.02595003
#
# Stress axis : x y z
#
# Youngs Moduli (GPa) = 95.90182 86.88323 160.79592
#
# Poissons Ratio (x) = -0.16326 0.12137
# Poissons Ratio (y) = -0.18021 0.35814
# Poissons Ratio (z) = 0.07239 0.19351
#
# Static dielectric constant tensor:
#      x y z
#    x 1.912090 0.000000 0.000000 
#    y 0.000000 1.800090 0.000000 
#    z 0.000000 0.000000 1.823550 
# 
# From -- ./inp_files/7656.got.cif
#   From: 2010.05.17/outbox.cif.g08.bks.cpg/sg71_4_cif.got.tgz:7656.got - 2010.06.03 16:22:01.
