data_PCOD9520325
_publ_section_title
;
Structure prediction by ZEFSAII (Michael W. Deem and Ramdas Pophale) SiO2 
 PCOD9520325
Probable space group: I M M M
;
_chemical_formula_sum "Si O2"
_cell_formula_units_Z 120
_cell_length_a 11.837445
_cell_length_b 24.895392
_cell_length_c 23.097661
_cell_angle_alpha 90.000000
_cell_angle_beta 90.000000
_cell_angle_gamma 90.000000
_cell_volume 6806.830657
_symmetry_space_group_name_H-M "I M M M"
_symmetry_group_IT_number 71
_symmetry_cell_setting 'orthorhombic'
loop_
_space_group_symop_operation_xyz
x,y,z
-x,-y,z
x,-y,-z
-x,y,-z
-x,-y,-z
x,y,-z
-x,y,z
x,-y,z
1/2+x,1/2+y,1/2+z
1/2-x,1/2-y,1/2+z
1/2+x,1/2-y,1/2-z
1/2-x,1/2+y,1/2-z
1/2-x,1/2-y,1/2-z
1/2+x,1/2+y,1/2-z
1/2-x,1/2+y,1/2+z
1/2+x,1/2-y,1/2+z
loop_
_atom_site_type_symbol
_atom_site_label
_atom_site_fract_x
_atom_site_fract_y
_atom_site_fract_z
Si Si1 0.864280 0.560746 0.565828
Si Si2 0.629415 0.836346 0.377095
Si Si3 0.134434 0.060985 0.233534
Si Si4 0.240986 0.355102 0.347109
Si Si5 0.500000 0.435174 0.935030
Si Si6 0.277861 0.437619 0.136014
Si Si7 0.868042 0.714889 0.250664
Si Si8 0.363249 0.272610 0.566968
O O1 0.826494 0.572039 0.500000
O O2 0.827684 0.500000 0.580732
O O3 0.820614 0.604195 0.610022
O O4 0.000000 0.561002 0.565863
O O5 0.500000 0.842536 0.394048
O O6 0.687016 0.893674 0.380712
O O7 0.634439 0.815887 0.310627
O O8 0.676029 0.787529 0.415973
O O9 0.177844 0.108025 0.192346
O O10 0.193882 0.065689 0.295868
O O11 0.000000 0.065144 0.241940
O O12 0.157654 0.000000 0.211545
O O13 0.154311 0.324440 0.304743
O O14 0.309216 0.312962 0.386658
O O15 0.500000 0.500000 0.938503
O O16 0.610416 0.421566 0.899059
O O17 0.500000 0.413393 0.000000
O O18 0.249549 0.500000 0.123154
O O19 0.750000 0.750000 0.250000
O O20 0.000000 0.737483 0.254796
O O21 0.335413 0.284992 0.500000
O O22 0.500000 0.274549 0.572852
#
# Coordination Sequence:
#
# PCOD9520325 Si02
#       8
#    16  16  16  16   8  16  16  16
#     4   9  19  36  56  79 111 151 190 228 277 340
#     4  10  21  39  57  81 114 151 189 234 291 353
#     4  10  20  33  51  81 120 157 189 230 286 347
#     4  12  20  34  58  86 111 147 193 244 290 342
#     4   9  18  34  58  84 112 148 191 237 280 336
#     4  10  19  35  57  84 116 151 189 233 286 350
#     4  11  23  39  58  85 118 153 196 243 295 358
#     4  10  22  39  58  80 109 149 196 243 293 351
#
# _framework density 17.629351
#
# number of rings (size 3 to 8) (size 9 to 14) (size 15 to 20)
#    0.000    1.800    3.333    2.000    0.000    1.333 
#    1.200    0.000    0.000    0.000    0.000    9.333 
#    0.000    0.000    0.000    0.000    0.000    0.000 
#
# Total GULP energy -334369.935686 kJ/mol
# GULP energy per Si atom -5572.832261 kJ/mol
# Density = 1.758923 g / cm^3
# Si number density = 17.629351 Si / 1000 Ang^3
#
#
#
# Elastic Constant Matrix: (Units=GPa)
#
#
# Indices 1 2 3 4 5 6 
#
# 1 57.1507 41.6310 9.1608 0.0000 0.0000 0.0000
# 2 41.6310 98.5198 35.5776 0.0000 0.0000 0.0000
# 3 9.1608 35.5776 70.1063 0.0000 0.0000 0.0000
# 4 0.0000 0.0000 0.0000 27.8231 0.0000 0.0000
# 5 0.0000 0.0000 0.0000 0.0000 22.8152 0.0000
# 6 0.0000 0.0000 0.0000 0.0000 0.0000 12.1091
#
#
#
# Elastic Compliance Matrix: (Units=1/GPa)
#
#
# Indices 1 2 3 4 5 6 
#
# 1 0.025670 -0.011798 0.002633 0.000000 0.000000 0.000000
# 2 -0.011798 0.017850 -0.007517 0.000000 0.000000 0.000000
# 3 0.002633 -0.007517 0.017735 0.000000 0.000000 0.000000
# 4 0.000000 0.000000 0.000000 0.035941 0.000000 0.000000
# 5 0.000000 0.000000 0.000000 0.000000 0.043831 0.000000
# 6 0.000000 0.000000 0.000000 0.000000 0.000000 0.082582
#
#
# Mechanical properties :
#
#
# Convention : Reuss Voigt Hill
#
# Bulk Modulus (GPa) = 35.85427 44.27950 40.06689
# Shear Modulus (GPa) = 18.77797 21.84331 20.31064
#
# Velocity S-wave (km/s) = 3.26721 3.52381 3.39793
# Velocity P-wave (km/s) = 5.88344 6.45970 6.17829
#
# Compressibility (1/GPa) = 0.02789068
#
# Stress axis : x y z
#
# Youngs Moduli (GPa) = 38.95652 56.02189 56.38653
#
# Poissons Ratio (x) = 0.66094 -0.14846
# Poissons Ratio (y) = 0.45961 0.42386
# Poissons Ratio (z) = -0.10257 0.42112
#
# Static dielectric constant tensor:
#      x y z
#    x 1.571180 0.000000 0.000000 
#    y 0.000000 1.604480 0.000000 
#    z 0.000000 0.000000 1.593160 
# 
# From -- ./inp_files/55834.got.cif
#   From: 2010.05.17/outbox.cif.g08.bks.cpg/sg71_28_cif.got.tgz:55834.got - 2010.06.03 16:22:01.
