data_PCOD9520579
_publ_section_title
;
Structure prediction by ZEFSAII (Michael W. Deem and Ramdas Pophale) SiO2 
 PCOD9520579
Probable space group: I M M M
;
_chemical_formula_sum "Si O2"
_cell_formula_units_Z 128
_cell_length_a 19.124689
_cell_length_b 23.126568
_cell_length_c 18.853379
_cell_angle_alpha 90.000000
_cell_angle_beta 90.000000
_cell_angle_gamma 90.000000
_cell_volume 8338.631222
_symmetry_space_group_name_H-M "I M M M"
_symmetry_group_IT_number 71
_symmetry_cell_setting 'orthorhombic'
loop_
_space_group_symop_operation_xyz
x,y,z
-x,-y,z
x,-y,-z
-x,y,-z
-x,-y,-z
x,y,-z
-x,y,z
x,-y,z
1/2+x,1/2+y,1/2+z
1/2-x,1/2-y,1/2+z
1/2+x,1/2-y,1/2-z
1/2-x,1/2+y,1/2-z
1/2-x,1/2-y,1/2-z
1/2+x,1/2+y,1/2-z
1/2-x,1/2+y,1/2+z
1/2+x,1/2-y,1/2+z
loop_
_atom_site_type_symbol
_atom_site_label
_atom_site_fract_x
_atom_site_fract_y
_atom_site_fract_z
Si Si1 0.817646 0.565864 0.309500
Si Si2 0.420680 0.243385 0.145970
Si Si3 0.417791 0.931147 0.324347
Si Si4 0.920881 0.614252 0.415867
Si Si5 0.920066 0.231571 0.188181
Si Si6 0.716801 0.330074 0.301058
Si Si7 0.863643 0.329435 0.082131
Si Si8 0.277015 0.287153 0.859787
O O1 0.795411 0.500000 0.299926
O O2 0.869581 0.581493 0.244156
O O3 0.864757 0.573950 0.378897
O O4 0.753139 0.609380 0.314398
O O5 0.500000 0.263089 0.130325
O O6 0.413409 0.178810 0.115952
O O7 0.412425 0.243066 0.231744
O O8 0.357810 0.283248 0.117388
O O9 0.500000 0.917901 0.311050
O O10 0.388857 0.890752 0.386903
O O11 0.412782 0.000000 0.339017
O O12 0.912542 0.616948 0.500000
O O13 0.000000 0.594491 0.399752
O O14 0.864903 0.179396 0.183153
O O15 0.899149 0.280827 0.132117
O O16 0.000000 0.214298 0.178454
O O17 0.727566 0.315782 0.218009
O O18 0.754293 0.279463 0.346175
O O19 0.780430 0.318467 0.092287
O O20 0.882493 0.323105 0.000000
#
# Coordination Sequence:
#
# PCOD9520579 Si02
#       8
#    16  16  16  16  16  16  16  16
#     4  11  20  33  51  68  90 122 164 203 229 274
#     4   9  16  29  51  72  93 126 157 189 234 283
#     4  10  21  35  50  68  92 127 167 200 229 269
#     4  10  20  31  44  66  97 127 155 191 233 275
#     4   9  18  31  50  73  95 122 158 196 235 288
#     4   9  16  30  50  70  89 119 153 194 241 275
#     4  11  21  31  47  71 100 131 160 196 237 276
#     4   9  16  30  48  68  97 120 152 195 234 282
#
# _framework density 15.350242
#
# number of rings (size 3 to 8) (size 9 to 14) (size 15 to 20)
#    0.000    2.250    2.500    2.250    0.000    3.750 
#    0.000    1.250    0.000    0.375    0.000    0.000 
#    0.000    0.500    0.000    5.500    0.000    0.000 
#
# Total GULP energy -356753.280512 kJ/mol
# GULP energy per Si atom -5574.270008 kJ/mol
# Density = 1.531530 g / cm^3
# Si number density = 15.350242 Si / 1000 Ang^3
#
#
#
# Elastic Constant Matrix: (Units=GPa)
#
#
# Indices 1 2 3 4 5 6 
#
# 1 108.5796 42.7199 26.6929 0.0000 0.0000 0.0000
# 2 42.7199 59.5487 20.9399 0.0000 0.0000 0.0000
# 3 26.6929 20.9399 42.5890 0.0000 0.0000 0.0000
# 4 0.0000 0.0000 0.0000 3.9924 0.0000 0.0000
# 5 0.0000 0.0000 0.0000 0.0000 15.3015 0.0000
# 6 0.0000 0.0000 0.0000 0.0000 0.0000 21.8589
#
#
#
# Elastic Compliance Matrix: (Units=1/GPa)
#
#
# Indices 1 2 3 4 5 6 
#
# 1 0.013501 -0.008113 -0.004473 0.000000 0.000000 0.000000
# 2 -0.008113 0.025178 -0.007295 0.000000 0.000000 0.000000
# 3 -0.004473 -0.007295 0.029870 0.000000 0.000000 0.000000
# 4 0.000000 0.000000 0.000000 0.250473 0.000000 0.000000
# 5 0.000000 0.000000 0.000000 0.000000 0.065353 0.000000
# 6 0.000000 0.000000 0.000000 0.000000 0.000000 0.045748
#
#
# Mechanical properties :
#
#
# Convention : Reuss Voigt Hill
#
# Bulk Modulus (GPa) = 34.73601 43.49142 39.11371
# Shear Modulus (GPa) = 10.42792 16.25489 13.34141
#
# Velocity S-wave (km/s) = 2.60923 3.25766 2.95130
# Velocity P-wave (km/s) = 5.63520 6.52258 6.09506
#
# Compressibility (1/GPa) = 0.02878857
#
# Stress axis : x y z
#
# Youngs Moduli (GPa) = 74.06585 39.71683 33.47795
#
# Poissons Ratio (x) = 0.32222 0.14975
# Poissons Ratio (y) = 0.60089 0.24421
# Poissons Ratio (z) = 0.33131 0.28972
#
# Static dielectric constant tensor:
#      x y z
#    x 1.544290 0.000000 0.000000 
#    y 0.000000 1.490630 0.000000 
#    z 0.000000 0.000000 1.508990 
# 
# From -- ./inp_files/47770.got.cif
#   From: 2010.05.17/outbox.cif.g08.bks.cpg/sg71_24_cif.got.tgz:47770.got - 2010.06.03 16:22:01.
