data_PCOD9520032
_publ_section_title
;
Structure prediction by ZEFSAII (Michael W. Deem and Ramdas Pophale) SiO2 
 PCOD9520032
Probable space group: I M M M
;
_chemical_formula_sum "Si O2"
_cell_formula_units_Z 92
_cell_length_a 29.348775
_cell_length_b 7.903929
_cell_length_c 22.569034
_cell_angle_alpha 90.000000
_cell_angle_beta 90.000000
_cell_angle_gamma 90.000000
_cell_volume 5235.353122
_symmetry_space_group_name_H-M "I M M M"
_symmetry_group_IT_number 71
_symmetry_cell_setting 'orthorhombic'
loop_
_space_group_symop_operation_xyz
x,y,z
-x,-y,z
x,-y,-z
-x,y,-z
-x,-y,-z
x,y,-z
-x,y,z
x,-y,z
1/2+x,1/2+y,1/2+z
1/2-x,1/2-y,1/2+z
1/2+x,1/2-y,1/2-z
1/2-x,1/2+y,1/2-z
1/2-x,1/2-y,1/2-z
1/2+x,1/2+y,1/2-z
1/2-x,1/2+y,1/2+z
1/2+x,1/2-y,1/2+z
loop_
_atom_site_type_symbol
_atom_site_label
_atom_site_fract_x
_atom_site_fract_y
_atom_site_fract_z
Si Si1 0.795138 0.692735 0.714986
Si Si2 0.799030 0.191255 0.415816
Si Si3 0.805127 0.205559 0.935003
Si Si4 0.055285 0.191367 0.000000
Si Si5 0.142546 0.802935 0.816953
Si Si6 0.051945 0.698985 0.130935
Si Si7 0.326486 0.000000 0.000000
O O1 0.787736 0.500000 0.696653
O O2 0.750000 0.750000 0.750000
O O3 0.803441 0.794179 0.655059
O O4 0.836489 0.708797 0.761073
O O5 0.745423 0.219996 0.430007
O O6 0.823430 0.347343 0.448841
O O7 0.812252 0.000000 0.433276
O O8 0.833878 0.258814 0.877979
O O9 0.801339 0.000000 0.933560
O O10 0.824382 0.250556 0.000000
O O11 0.066880 0.274369 0.937515
O O12 0.000000 0.186928 0.000000
O O13 0.073347 0.000000 0.000000
O O14 0.088875 0.783945 0.827107
O O15 0.154362 0.000000 0.809841
O O16 0.051626 0.500000 0.142859
O O17 0.000000 0.763875 0.136774
#
# Coordination Sequence:
#
# PCOD9520032 Si02
#       7
#    16  16  16   8  16  16   4
#     4  12  23  38  55  78 111 147 188 228 274 330
#     4  12  22  36  58  80 106 146 184 230 280 330
#     4  10  19  34  49  71 104 136 180 235 281 323
#     4   9  17  31  52  73  95 127 171 224 281 335
#     4  11  23  35  54  78 103 140 184 229 279 330
#     4  10  21  37  53  72 100 134 174 227 285 335
#     4  12  22  40  54  82 112 140 186 230 282 326
#
# _framework density 17.572835999999999
#
# number of rings (size 3 to 8) (size 9 to 14) (size 15 to 20)
#    0.000    1.130    4.348    3.130    1.217    2.783 
#    0.000    0.000    0.000    0.000    0.000    0.000 
#    0.000    0.000    0.000    1.565    0.000    6.696 
#
# Total GULP energy -256404.806362 kJ/mol
# GULP energy per Si atom -5574.017530 kJ/mol
# Density = 1.753284 g / cm^3
# Si number density = 17.572836 Si / 1000 Ang^3
#
#
#
# Elastic Constant Matrix: (Units=GPa)
#
#
# Indices 1 2 3 4 5 6 
#
# 1 43.7885 -4.0516 23.0467 0.0000 0.0000 0.0000
# 2 -4.0516 88.5582 22.7800 0.0000 0.0000 0.0000
# 3 23.0467 22.7800 122.3757 0.0000 0.0000 0.0000
# 4 0.0000 0.0000 0.0000 26.3699 0.0000 0.0000
# 5 0.0000 0.0000 0.0000 0.0000 11.6807 0.0000
# 6 0.0000 0.0000 0.0000 0.0000 0.0000 16.8351
#
#
#
# Elastic Compliance Matrix: (Units=1/GPa)
#
#
# Indices 1 2 3 4 5 6 
#
# 1 0.025891 0.002561 -0.005353 0.000000 0.000000 0.000000
# 2 0.002561 0.012113 -0.002737 0.000000 0.000000 0.000000
# 3 -0.005353 -0.002737 0.009689 0.000000 0.000000 0.000000
# 4 0.000000 0.000000 0.000000 0.037922 0.000000 0.000000
# 5 0.000000 0.000000 0.000000 0.000000 0.085611 0.000000
# 6 0.000000 0.000000 0.000000 0.000000 0.000000 0.059400
#
#
# Mechanical properties :
#
#
# Convention : Reuss Voigt Hill
#
# Bulk Modulus (GPa) = 27.29512 37.58582 32.44047
# Shear Modulus (GPa) = 19.69308 25.17362 22.43335
#
# Velocity S-wave (km/s) = 3.35125 3.78898 3.57682
# Velocity P-wave (km/s) = 5.52637 6.37000 5.96312
#
# Compressibility (1/GPa) = 0.03663659
#
# Stress axis : x y z
#
# Youngs Moduli (GPa) = 38.62288 82.55377 103.20783
#
# Poissons Ratio (x) = -0.21146 0.55246
# Poissons Ratio (y) = -0.09893 0.28251
# Poissons Ratio (z) = 0.20674 0.22597
#
# Static dielectric constant tensor:
#      x y z
#    x 1.598270 0.000000 0.000000 
#    y 0.000000 1.650240 0.000000 
#    z 0.000000 0.000000 1.625780 
# 
# From -- ./inp_files/56176.got.cif
#   From: 2010.05.17/outbox.cif.g08.bks.cpg/sg71_29_cif.got.tgz:56176.got - 2010.06.03 16:22:01.
