data_PCOD9520181
_publ_section_title
;
Structure prediction by ZEFSAII (Michael W. Deem and Ramdas Pophale) SiO2 
 PCOD9520181
Probable space group: I M M M
;
_chemical_formula_sum "Si O2"
_cell_formula_units_Z 60
_cell_length_a 14.381312
_cell_length_b 20.836961
_cell_length_c 10.728398
_cell_angle_alpha 90.000000
_cell_angle_beta 90.000000
_cell_angle_gamma 90.000000
_cell_volume 3214.902184
_symmetry_space_group_name_H-M "I M M M"
_symmetry_group_IT_number 71
_symmetry_cell_setting 'orthorhombic'
loop_
_space_group_symop_operation_xyz
x,y,z
-x,-y,z
x,-y,-z
-x,y,-z
-x,-y,-z
x,y,-z
-x,y,z
x,-y,z
1/2+x,1/2+y,1/2+z
1/2-x,1/2-y,1/2+z
1/2+x,1/2-y,1/2-z
1/2-x,1/2+y,1/2-z
1/2-x,1/2-y,1/2-z
1/2+x,1/2+y,1/2-z
1/2-x,1/2+y,1/2+z
1/2+x,1/2-y,1/2+z
loop_
_atom_site_type_symbol
_atom_site_label
_atom_site_fract_x
_atom_site_fract_y
_atom_site_fract_z
Si Si1 0.787380 0.705124 0.362882
Si Si2 0.500000 0.341809 0.000000
Si Si3 0.500000 0.769126 0.185238
Si Si4 0.179598 0.928077 0.500000
Si Si5 0.697454 0.926697 0.747567
Si Si6 0.500000 0.879865 0.352974
O O1 0.752981 0.725733 0.500000
O O2 0.750000 0.750000 0.250000
O O3 0.899773 0.708111 0.364585
O O4 0.766760 0.630432 0.335875
O O5 0.500000 0.302353 0.130509
O O6 0.405174 0.380304 0.000000
O O7 0.500000 0.803249 0.320815
O O8 0.243319 0.920924 0.378838
O O9 0.141013 0.000000 0.500000
O O10 0.591285 0.911075 0.708548
O O11 0.704458 0.000000 0.794237
O O12 0.500000 0.890642 0.500000
#
# Coordination Sequence:
#
# PCOD9520181 Si02
#       6
#    16   4   8   8  16   8
#     4  11  23  39  60  85 117 157 195 241 297 353
#     4  12  19  36  56  72 107 152 196 246 280 342
#     4  10  22  36  55  80 114 152 190 235 291 346
#     4  10  21  35  54  83 109 145 194 246 291 339
#     4  10  21  35  56  85 117 150 193 238 291 354
#     4  10  19  34  56  84 122 154 187 235 296 352
#
# _framework density 18.663087999999998
#
# number of rings (size 3 to 8) (size 9 to 14) (size 15 to 20)
#    0.000    1.600    2.667    2.200    1.867    2.133 
#    0.000    0.000    0.000    4.800    0.000    0.000 
#    0.000   11.733    0.000    0.000    0.000    0.000 
#
# Total GULP energy -167022.560531 kJ/mol
# GULP energy per Si atom -5567.418684 kJ/mol
# Density = 1.862061 g / cm^3
# Si number density = 18.663088 Si / 1000 Ang^3
#
#
#
# Elastic Constant Matrix: (Units=GPa)
#
#
# Indices 1 2 3 4 5 6 
#
# 1 61.8875 46.5126 11.4095 0.0000 0.0000 0.0000
# 2 46.5126 125.9592 46.0911 0.0000 0.0000 0.0000
# 3 11.4095 46.0911 93.4650 0.0000 0.0000 0.0000
# 4 0.0000 0.0000 0.0000 29.4257 0.0000 0.0000
# 5 0.0000 0.0000 0.0000 0.0000 15.4132 0.0000
# 6 0.0000 0.0000 0.0000 0.0000 0.0000 34.6908
#
#
#
# Elastic Compliance Matrix: (Units=1/GPa)
#
#
# Indices 1 2 3 4 5 6 
#
# 1 0.022573 -0.008940 0.001653 0.000000 0.000000 0.000000
# 2 -0.008940 0.013228 -0.005432 0.000000 0.000000 0.000000
# 3 0.001653 -0.005432 0.013176 0.000000 0.000000 0.000000
# 4 0.000000 0.000000 0.000000 0.033984 0.000000 0.000000
# 5 0.000000 0.000000 0.000000 0.000000 0.064879 0.000000
# 6 0.000000 0.000000 0.000000 0.000000 0.000000 0.028826
#
#
# Mechanical properties :
#
#
# Convention : Reuss Voigt Hill
#
# Bulk Modulus (GPa) = 42.48257 54.37088 48.42672
# Shear Modulus (GPa) = 23.81511 27.72584 25.77047
#
# Velocity S-wave (km/s) = 3.57607 3.85853 3.71998
# Velocity P-wave (km/s) = 6.31374 7.00336 6.66747
#
# Compressibility (1/GPa) = 0.02353907
#
# Stress axis : x y z
#
# Youngs Moduli (GPa) = 44.30099 75.59661 75.89531
#
# Poissons Ratio (x) = 0.67586 -0.12548
# Poissons Ratio (y) = 0.39607 0.41226
# Poissons Ratio (z) = -0.07324 0.41063
#
# Static dielectric constant tensor:
#      x y z
#    x 1.553670 0.000000 0.000000 
#    y 0.000000 1.696160 0.000000 
#    z 0.000000 0.000000 1.689580 
# 
# From -- ./inp_files/19399.got.cif
#   From: 2010.05.17/outbox.cif.g08.bks.cpg/sg71_10_cif.got.tgz:19399.got - 2010.06.03 16:22:01.
