data_PCOD9520212
_publ_section_title
;
Structure prediction by ZEFSAII (Michael W. Deem and Ramdas Pophale) SiO2 
 PCOD9520212
Probable space group: I M M M
;
_chemical_formula_sum "Si O2"
_cell_formula_units_Z 66
_cell_length_a 7.567033
_cell_length_b 18.932626
_cell_length_c 21.012036
_cell_angle_alpha 90.000000
_cell_angle_beta 90.000000
_cell_angle_gamma 90.000000
_cell_volume 3010.264243
_symmetry_space_group_name_H-M "I M M M"
_symmetry_group_IT_number 71
_symmetry_cell_setting 'orthorhombic'
loop_
_space_group_symop_operation_xyz
x,y,z
-x,-y,z
x,-y,-z
-x,y,-z
-x,-y,-z
x,y,-z
-x,y,z
x,-y,z
1/2+x,1/2+y,1/2+z
1/2-x,1/2-y,1/2+z
1/2+x,1/2-y,1/2-z
1/2-x,1/2+y,1/2-z
1/2-x,1/2-y,1/2-z
1/2+x,1/2+y,1/2-z
1/2-x,1/2+y,1/2+z
1/2+x,1/2-y,1/2+z
loop_
_atom_site_type_symbol
_atom_site_label
_atom_site_fract_x
_atom_site_fract_y
_atom_site_fract_z
Si Si1 0.783929 0.582369 0.500000
Si Si2 0.216240 0.420470 0.764509
Si Si3 0.211143 0.691586 0.129973
Si Si4 0.000000 0.500000 0.000000
Si Si5 0.694217 0.619734 0.000000
Si Si6 0.288841 0.854984 0.866613
O O1 0.735693 0.500000 0.500000
O O2 0.721290 0.619661 0.564758
O O3 0.000000 0.585643 0.500000
O O4 0.270158 0.500000 0.781585
O O5 0.274124 0.362131 0.815375
O O6 0.276449 0.399388 0.693826
O O7 0.000000 0.419601 0.764534
O O8 0.286979 0.668017 0.062445
O O9 0.254142 0.772539 0.144323
O O10 0.000000 0.684638 0.126089
O O11 0.846269 0.561635 0.000000
O O12 0.500000 0.587196 0.000000
O O13 0.500000 0.865272 0.868195
#
# Coordination Sequence:
#
# PCOD9520212 Si02
#       6
#     8  16  16   2   8  16
#     4   9  17  30  55  85 115 145 193 261 323 387
#     4   9  19  34  57  84 118 163 216 270 325 382
#     4  11  22  38  61  86 124 170 215 265 322 382
#     4  12  26  48  68  98 140 164 212 266 336 382
#     4  12  26  44  69  98 129 171 219 267 319 386
#     4  10  19  34  57  88 119 158 209 262 322 392
#
# _framework density 21.924985
#
# number of rings (size 3 to 8) (size 9 to 14) (size 15 to 20)
#    0.000    1.818    1.212    3.091    1.697    3.879 
#    0.000    1.212    0.000    6.545    0.000    0.000 
#    0.000    0.000    0.000    0.000    0.000    0.000 
#
# Total GULP energy -184296.591696 kJ/mol
# GULP energy per Si atom -5584.745203 kJ/mol
# Density = 2.187508 g / cm^3
# Si number density = 21.924985 Si / 1000 Ang^3
#
#
#
# Elastic Constant Matrix: (Units=GPa)
#
#
# Indices 1 2 3 4 5 6 
#
# 1 62.9330 -31.7110 -12.4790 0.0000 0.0000 0.0000
# 2 -31.7110 132.9856 55.8170 0.0000 0.0000 0.0000
# 3 -12.4790 55.8170 156.3722 0.0000 0.0000 0.0000
# 4 0.0000 0.0000 0.0000 -87.6018 0.0000 0.0000
# 5 0.0000 0.0000 0.0000 0.0000 -17.2559 0.0000
# 6 0.0000 0.0000 0.0000 0.0000 0.0000 -10.5990
#
#
#
# Elastic Compliance Matrix: (Units=1/GPa)
#
#
# Indices 1 2 3 4 5 6 
#
# 1 0.018062 0.004354 -0.000113 0.000000 0.000000 0.000000
# 2 0.004354 0.009894 -0.003184 0.000000 0.000000 0.000000
# 3 -0.000113 -0.003184 0.007523 0.000000 0.000000 0.000000
# 4 0.000000 0.000000 0.000000 -0.011415 0.000000 0.000000
# 5 0.000000 0.000000 0.000000 0.000000 -0.057951 0.000000
# 6 0.000000 0.000000 0.000000 0.000000 0.000000 -0.094348
#
#
# Mechanical properties :
#
#
# Convention : Reuss Voigt Hill
#
# Bulk Modulus (GPa) = 26.60093 41.72721 34.16407
# Shear Modulus (GPa) = -42.43796 -0.38044 -21.40920
#
# Velocity S-wave (km/s) = -4.40432 -0.41701 -3.12825
# Velocity P-wave (km/s) = 3.70202 4.34065 1.60255
#
# Compressibility (1/GPa) = 0.03759268
#
# Stress axis : x y z
#
# Youngs Moduli (GPa) = 55.36621 101.06691 132.93211
#
# Poissons Ratio (x) = -0.44007 0.01500
# Poissons Ratio (y) = -0.24108 0.42330
# Poissons Ratio (z) = 0.00625 0.32183
#
# Static dielectric constant tensor:
#      x y z
#    x 1.820070 0.000000 0.000000 
#    y 0.000000 1.750520 0.000000 
#    z 0.000000 0.000000 1.780730 
# 
# From -- ./inp_files/50055.got.cif
#   From: 2010.05.17/outbox.cif.g08.bks.cpg/sg71_26_cif.got.tgz:50055.got - 2010.06.03 16:22:01.
