data_PCOD9520928
_publ_section_title
;
Structure prediction by ZEFSAII (Michael W. Deem and Ramdas Pophale) SiO2 
 PCOD9520928
Probable space group: I M M M
;
_chemical_formula_sum "Si O2"
_cell_formula_units_Z 104
_cell_length_a 7.386989
_cell_length_b 19.920349
_cell_length_c 32.499635
_cell_angle_alpha 90.000000
_cell_angle_beta 90.000000
_cell_angle_gamma 90.000000
_cell_volume 4782.366755
_symmetry_space_group_name_H-M "I M M M"
_symmetry_group_IT_number 71
_symmetry_cell_setting 'orthorhombic'
loop_
_space_group_symop_operation_xyz
x,y,z
-x,-y,z
x,-y,-z
-x,y,-z
-x,-y,-z
x,y,-z
-x,y,z
x,-y,z
1/2+x,1/2+y,1/2+z
1/2-x,1/2-y,1/2+z
1/2+x,1/2-y,1/2-z
1/2-x,1/2+y,1/2-z
1/2-x,1/2-y,1/2-z
1/2+x,1/2+y,1/2-z
1/2-x,1/2+y,1/2+z
1/2+x,1/2-y,1/2+z
loop_
_atom_site_type_symbol
_atom_site_label
_atom_site_fract_x
_atom_site_fract_y
_atom_site_fract_z
Si Si1 0.283415 0.213886 0.792968
Si Si2 0.282078 0.924031 0.410787
Si Si3 0.779674 0.425391 0.325455
Si Si4 0.791163 0.418028 0.000000
Si Si5 0.713700 0.710260 0.126695
Si Si6 0.778952 0.716215 0.455014
Si Si7 0.219869 0.574672 0.421452
O O1 0.500000 0.210466 0.796832
O O2 0.250000 0.250000 0.750000
O O3 0.217446 0.137404 0.798434
O O4 0.213485 0.256820 0.831809
O O5 0.500000 0.926812 0.414277
O O6 0.210782 0.899964 0.455712
O O7 0.236940 0.869288 0.376940
O O8 0.219466 0.000000 0.402916
O O9 0.719106 0.500000 0.313094
O O10 0.729773 0.414708 0.373471
O O11 0.000000 0.426364 0.324741
O O12 0.791419 0.500000 0.000000
O O13 0.000000 0.395966 0.000000
O O14 0.500000 0.724740 0.126303
O O15 0.786759 0.742615 0.084532
O O16 0.720093 0.740513 0.500000
O O17 0.724431 0.638663 0.447837
O O18 0.000000 0.718275 0.454923
O O19 0.280217 0.500000 0.434105
O O20 0.000000 0.573918 0.422493
#
# Coordination Sequence:
#
# PCOD9520928 Si02
#       7
#    16  16  16   8  16  16  16
#     4  10  20  35  54  76 101 129 164 206 254 301
#     4   9  18  33  52  72  96 130 171 211 250 295
#     4   8  13  25  47  70  92 122 160 198 233 275
#     4   7  12  26  47  69  93 123 162 207 248 284
#     4  10  20  33  49  72 103 134 162 201 254 306
#     4   9  16  25  38  62 100 138 164 191 236 292
#     4   8  12  20  37  61  91 128 165 196 227 269
#
# _framework density 21.746556000000002
#
# number of rings (size 3 to 8) (size 9 to 14) (size 15 to 20)
#    0.000    3.154    1.538    1.846    1.077    1.231 
#    0.000    2.308    0.000    4.615    0.000    0.000 
#    0.000    0.615    0.000    1.385    0.000    1.538 
#
# Total GULP energy -290150.052090 kJ/mol
# GULP energy per Si atom -5579.808694 kJ/mol
# Density = 2.169706 g / cm^3
# Si number density = 21.746556 Si / 1000 Ang^3
#
#
#
# Elastic Constant Matrix: (Units=GPa)
#
#
# Indices 1 2 3 4 5 6 
#
# 1 75.5981 -0.3822 7.2701 0.0000 0.0000 0.0000
# 2 -0.3822 140.6650 95.3211 0.0000 0.0000 0.0000
# 3 7.2701 95.3211 138.5512 0.0000 0.0000 0.0000
# 4 0.0000 0.0000 0.0000 31.5792 0.0000 0.0000
# 5 0.0000 0.0000 0.0000 0.0000 54.7532 0.0000
# 6 0.0000 0.0000 0.0000 0.0000 0.0000 26.2439
#
#
#
# Elastic Compliance Matrix: (Units=1/GPa)
#
#
# Indices 1 2 3 4 5 6 
#
# 1 0.013364 0.000958 -0.001360 0.000000 0.000000 0.000000
# 2 0.000958 0.013387 -0.009260 0.000000 0.000000 0.000000
# 3 -0.001360 -0.009260 0.013660 0.000000 0.000000 0.000000
# 4 0.000000 0.000000 0.000000 0.031666 0.000000 0.000000
# 5 0.000000 0.000000 0.000000 0.000000 0.018264 0.000000
# 6 0.000000 0.000000 0.000000 0.000000 0.000000 0.038104
#
#
# Mechanical properties :
#
#
# Convention : Reuss Voigt Hill
#
# Bulk Modulus (GPa) = 47.42647 62.13694 54.78170
# Shear Modulus (GPa) = 32.30020 39.35562 35.82791
#
# Velocity S-wave (km/s) = 3.85814 4.25872 4.06337
# Velocity P-wave (km/s) = 6.45779 7.26757 6.87461
#
# Compressibility (1/GPa) = 0.02108527
#
# Stress axis : x y z
#
# Youngs Moduli (GPa) = 74.83055 74.70023 73.20742
#
# Poissons Ratio (x) = -0.07158 0.09960
# Poissons Ratio (y) = -0.07170 0.67792
# Poissons Ratio (z) = 0.10180 0.69174
#
# Static dielectric constant tensor:
#      x y z
#    x 1.921920 0.000000 0.000000 
#    y 0.000000 1.810780 0.000000 
#    z 0.000000 0.000000 1.769550 
# 
# From -- ./inp_files/28891.got.cif
#   From: 2010.05.17/outbox.cif.g08.bks.cpg/sg71_15_cif.got.tgz:28891.got - 2010.06.03 16:22:01.
