data_PCOD9520230
_publ_section_title
;
Structure prediction by ZEFSAII (Michael W. Deem and Ramdas Pophale) SiO2 
 PCOD9520230
Probable space group: I M M M
;
_chemical_formula_sum "Si O2"
_cell_formula_units_Z 88
_cell_length_a 15.411681
_cell_length_b 17.793315
_cell_length_c 16.941615
_cell_angle_alpha 90.000000
_cell_angle_beta 90.000000
_cell_angle_gamma 90.000000
_cell_volume 4645.812590
_symmetry_space_group_name_H-M "I M M M"
_symmetry_group_IT_number 71
_symmetry_cell_setting 'orthorhombic'
loop_
_space_group_symop_operation_xyz
x,y,z
-x,-y,z
x,-y,-z
-x,y,-z
-x,-y,-z
x,y,-z
-x,y,z
x,-y,z
1/2+x,1/2+y,1/2+z
1/2-x,1/2-y,1/2+z
1/2+x,1/2-y,1/2-z
1/2-x,1/2+y,1/2-z
1/2-x,1/2-y,1/2-z
1/2+x,1/2+y,1/2-z
1/2-x,1/2+y,1/2+z
1/2+x,1/2-y,1/2+z
loop_
_atom_site_type_symbol
_atom_site_label
_atom_site_fract_x
_atom_site_fract_y
_atom_site_fract_z
Si Si1 0.730121 0.419740 0.216248
Si Si2 0.596747 0.378373 0.909072
Si Si3 0.000000 0.911845 0.905375
Si Si4 0.401419 0.151805 0.257040
Si Si5 0.838510 0.707321 0.589191
Si Si6 0.847351 0.193899 0.839813
O O1 0.717738 0.500000 0.257111
O O2 0.672478 0.417653 0.138529
O O3 0.831281 0.404011 0.205520
O O4 0.694898 0.351249 0.267553
O O5 0.500000 0.391627 0.875429
O O6 0.617841 0.289469 0.906946
O O7 0.596344 0.401553 0.000000
O O8 0.917124 0.862914 0.877238
O O9 0.000000 0.000000 0.877726
O O10 0.000000 0.914012 0.000000
O O11 0.500000 0.127354 0.264044
O O12 0.377266 0.162609 0.164063
O O13 0.388749 0.231230 0.302653
O O14 0.853528 0.677563 0.500000
O O15 0.734593 0.713265 0.604205
#
# Coordination Sequence:
#
# PCOD9520230 Si02
#       6
#    16  16   8  16  16  16
#     4  11  23  38  57  84 117 155 195 241 293 349
#     4  10  20  34  55  86 120 151 188 237 294 352
#     4  11  24  38  56  86 120 152 192 245 302 356
#     4  11  21  38  62  85 114 152 199 245 285 342
#     4  10  19  34  58  86 115 148 188 239 291 342
#     4  11  20  38  57  84 112 153 196 237 289 352
#
# _framework density 18.941787999999999
#
# number of rings (size 3 to 8) (size 9 to 14) (size 15 to 20)
#    0.000    1.364    4.545    2.727    1.273    2.182 
#    0.000    0.909    0.000    4.909    0.000    6.364 
#    0.000    0.000    0.000    0.000    0.000    0.000 
#
# Total GULP energy -245484.349168 kJ/mol
# GULP energy per Si atom -5579.189754 kJ/mol
# Density = 1.889868 g / cm^3
# Si number density = 18.941788 Si / 1000 Ang^3
#
#
#
# Elastic Constant Matrix: (Units=GPa)
#
#
# Indices 1 2 3 4 5 6 
#
# 1 158.5854 15.6449 43.4821 0.0000 0.0000 0.0000
# 2 15.6449 40.3057 14.4409 0.0000 0.0000 0.0000
# 3 43.4821 14.4409 70.0285 0.0000 0.0000 0.0000
# 4 0.0000 0.0000 0.0000 4.5948 0.0000 0.0000
# 5 0.0000 0.0000 0.0000 0.0000 25.8974 0.0000
# 6 0.0000 0.0000 0.0000 0.0000 0.0000 -23.2609
#
#
#
# Elastic Compliance Matrix: (Units=1/GPa)
#
#
# Indices 1 2 3 4 5 6 
#
# 1 0.007669 -0.001372 -0.004479 0.000000 0.000000 0.000000
# 2 -0.001372 0.027035 -0.004723 0.000000 0.000000 0.000000
# 3 -0.004479 -0.004723 0.018035 0.000000 0.000000 0.000000
# 4 0.000000 0.000000 0.000000 0.217638 0.000000 0.000000
# 5 0.000000 0.000000 0.000000 0.000000 0.038614 0.000000
# 6 0.000000 0.000000 0.000000 0.000000 0.000000 -0.042991
#
#
# Mechanical properties :
#
#
# Convention : Reuss Voigt Hill
#
# Bulk Modulus (GPa) = 31.65458 46.22836 38.94147
# Shear Modulus (GPa) = 16.79658 14.46971 15.63314
#
# Velocity S-wave (km/s) = 2.98106 2.76688 2.87596
# Velocity P-wave (km/s) = 5.34759 5.88778 5.62418
#
# Compressibility (1/GPa) = 0.03159100
#
# Stress axis : x y z
#
# Youngs Moduli (GPa) = 130.39175 36.98883 55.44783
#
# Poissons Ratio (x) = 0.05075 0.24835
# Poissons Ratio (y) = 0.17891 0.26188
# Poissons Ratio (z) = 0.58403 0.17470
#
# Static dielectric constant tensor:
#      x y z
#    x 1.689290 0.000000 0.000000 
#    y 0.000000 1.646170 0.000000 
#    z 0.000000 0.000000 1.666080 
# 
# From -- ./inp_files/36393.got.cif
#   From: 2010.05.17/outbox.cif.g08.bks.cpg/sg71_19_cif.got.tgz:36393.got - 2010.06.03 16:22:01.
