data_PCOD9520125
_publ_section_title
;
Structure prediction by ZEFSAII (Michael W. Deem and Ramdas Pophale) SiO2 
 PCOD9520125
Probable space group: I M M M
;
_chemical_formula_sum "Si O2"
_cell_formula_units_Z 72
_cell_length_a 12.769990
_cell_length_b 13.175034
_cell_length_c 18.240338
_cell_angle_alpha 90.000000
_cell_angle_beta 90.000000
_cell_angle_gamma 90.000000
_cell_volume 3068.846623
_symmetry_space_group_name_H-M "I M M M"
_symmetry_group_IT_number 71
_symmetry_cell_setting 'orthorhombic'
loop_
_space_group_symop_operation_xyz
x,y,z
-x,-y,z
x,-y,-z
-x,y,-z
-x,-y,-z
x,y,-z
-x,y,z
x,-y,z
1/2+x,1/2+y,1/2+z
1/2-x,1/2-y,1/2+z
1/2+x,1/2-y,1/2-z
1/2-x,1/2+y,1/2-z
1/2-x,1/2-y,1/2-z
1/2+x,1/2+y,1/2-z
1/2-x,1/2+y,1/2+z
1/2+x,1/2-y,1/2+z
loop_
_atom_site_type_symbol
_atom_site_label
_atom_site_fract_x
_atom_site_fract_y
_atom_site_fract_z
Si Si1 0.879336 0.831849 0.915738
Si Si2 0.876119 0.790872 0.384020
Si Si3 0.126261 0.616605 0.500000
Si Si4 0.126254 0.110904 0.761095
Si Si5 0.829106 0.392774 0.916151
O O1 0.832141 0.883751 0.843898
O O2 0.876222 0.713609 0.891297
O O3 0.000000 0.864800 0.921176
O O4 0.838380 0.842833 0.000000
O O5 0.852841 0.687070 0.427995
O O6 0.850338 0.800688 0.297373
O O7 0.795729 0.873083 0.416249
O O8 0.000000 0.812665 0.393767
O O9 0.166694 0.500000 0.500000
O O10 0.000000 0.607577 0.500000
O O11 0.000000 0.112888 0.767073
O O12 0.155471 0.000000 0.730264
O O13 0.856021 0.500000 0.879905
O O14 0.864494 0.398342 0.000000
#
# Coordination Sequence:
#
# PCOD9520125 Si02
#       5
#    16  16   8  16  16
#     4   9  19  36  55  75 105 146 189 235 281 324
#     4  10  19  34  55  81 113 143 173 217 268 324
#     4   9  18  34  55  77 108 151 185 209 251 315
#     4   9  18  33  54  81 111 143 182 229 278 326
#     4  10  20  33  52  79 109 141 181 227 270 324
#
# _framework density 23.461583999999998
#
# number of rings (size 3 to 8) (size 9 to 14) (size 15 to 20)
#    0.000    2.556    1.111    0.667    0.000    3.111 
#    0.000    7.778    0.000    4.000    0.000    0.000 
#    0.000    0.000    0.000    0.000    0.000    0.000 
#
# Total GULP energy -200407.582207 kJ/mol
# GULP energy per Si atom -5566.877284 kJ/mol
# Density = 2.340818 g / cm^3
# Si number density = 23.461584 Si / 1000 Ang^3
#
#
#
# Elastic Constant Matrix: (Units=GPa)
#
#
# Indices 1 2 3 4 5 6 
#
# 1 63.2941 -3.4005 23.9692 0.0000 0.0000 0.0000
# 2 -3.4005 146.4113 65.3580 0.0000 0.0000 0.0000
# 3 23.9692 65.3580 170.6353 0.0000 0.0000 0.0000
# 4 0.0000 0.0000 0.0000 30.8367 0.0000 0.0000
# 5 0.0000 0.0000 0.0000 0.0000 25.6561 0.0000
# 6 0.0000 0.0000 0.0000 0.0000 0.0000 2.9490
#
#
#
# Elastic Compliance Matrix: (Units=1/GPa)
#
#
# Indices 1 2 3 4 5 6 
#
# 1 0.017058 0.001768 -0.003073 0.000000 0.000000 0.000000
# 2 0.001768 0.008422 -0.003474 0.000000 0.000000 0.000000
# 3 -0.003073 -0.003474 0.007623 0.000000 0.000000 0.000000
# 4 0.000000 0.000000 0.000000 0.032429 0.000000 0.000000
# 5 0.000000 0.000000 0.000000 0.000000 0.038977 0.000000
# 6 0.000000 0.000000 0.000000 0.000000 0.000000 0.339101
#
#
# Mechanical properties :
#
#
# Convention : Reuss Voigt Hill
#
# Bulk Modulus (GPa) = 42.47350 61.35488 51.91419
# Shear Modulus (GPa) = 10.84560 31.51597 21.18078
#
# Velocity S-wave (km/s) = 2.15238 3.66908 3.00790
# Velocity P-wave (km/s) = 4.93150 6.64511 5.85138
#
# Compressibility (1/GPa) = 0.02354409
#
# Stress axis : x y z
#
# Youngs Moduli (GPa) = 58.62304 118.73601 131.18353
#
# Poissons Ratio (x) = -0.20994 0.40318
# Poissons Ratio (y) = -0.10366 0.45576
# Poissons Ratio (z) = 0.18017 0.41252
#
# Static dielectric constant tensor:
#      x y z
#    x 1.920950 0.000000 0.000000 
#    y 0.000000 2.016370 0.000000 
#    z 0.000000 0.000000 1.916550 
# 
# From -- ./inp_files/23468.got.cif
#   From: 2010.05.17/outbox.cif.g08.bks.cpg/sg71_12_cif.got.tgz:23468.got - 2010.06.03 16:22:01.
