data_PCOD9520161
_publ_section_title
;
Structure prediction by ZEFSAII (Michael W. Deem and Ramdas Pophale) SiO2 
 PCOD9520161
Probable space group: I M M M
;
_chemical_formula_sum "Si O2"
_cell_formula_units_Z 104
_cell_length_a 23.331514
_cell_length_b 28.077881
_cell_length_c 7.599783
_cell_angle_alpha 90.000000
_cell_angle_beta 90.000000
_cell_angle_gamma 90.000000
_cell_volume 4978.613843
_symmetry_space_group_name_H-M "I M M M"
_symmetry_group_IT_number 71
_symmetry_cell_setting 'orthorhombic'
loop_
_space_group_symop_operation_xyz
x,y,z
-x,-y,z
x,-y,-z
-x,y,-z
-x,-y,-z
x,y,-z
-x,y,z
x,-y,z
1/2+x,1/2+y,1/2+z
1/2-x,1/2-y,1/2+z
1/2+x,1/2-y,1/2-z
1/2-x,1/2+y,1/2-z
1/2-x,1/2-y,1/2-z
1/2+x,1/2+y,1/2-z
1/2-x,1/2+y,1/2+z
1/2+x,1/2-y,1/2+z
loop_
_atom_site_type_symbol
_atom_site_label
_atom_site_fract_x
_atom_site_fract_y
_atom_site_fract_z
Si Si1 0.837480 0.630494 0.703151
Si Si2 0.064311 0.700829 0.709113
Si Si3 0.767659 0.803357 0.290242
Si Si4 0.369462 0.404270 0.708438
Si Si5 0.064552 0.000000 0.289316
Si Si6 0.251668 0.944571 0.784038
Si Si7 0.101639 0.192722 0.802347
O O1 0.852642 0.620667 0.500000
O O2 0.889088 0.662698 0.780713
O O3 0.781772 0.664164 0.711005
O O4 0.810216 0.581520 0.776534
O O5 0.062365 0.692745 0.500000
O O6 0.082724 0.756288 0.727847
O O7 0.000000 0.694660 0.780470
O O8 0.771889 0.810979 0.500000
O O9 0.750000 0.750000 0.250000
O O10 0.829374 0.808472 0.203575
O O11 0.363783 0.394880 0.500000
O O12 0.402831 0.453094 0.729972
O O13 0.304927 0.415269 0.776728
O O14 0.406577 0.359665 0.782285
O O15 0.063932 0.000000 0.500000
O O16 0.000000 0.000000 0.222340
O O17 0.247696 0.000000 0.732510
O O18 0.250976 0.943392 0.000000
O O19 0.078219 0.192692 0.000000
#
# Coordination Sequence:
#
# PCOD9520161 Si02
#       7
#    16  16  16  16   8  16  16
#     4  10  19  34  56  81 110 145 186 230 279 336
#     4  10  22  38  55  77 110 153 193 230 278 335
#     4  12  22  32  51  81 114 144 177 220 273 330
#     4  10  20  36  58  82 108 140 184 232 279 332
#     4  11  25  41  55  75 107 149 194 235 276 326
#     4   9  16  30  55  84 110 137 175 226 282 333
#     4  11  22  36  56  83 112 144 185 232 279 330
#
# _framework density 20.88935
#
# number of rings (size 3 to 8) (size 9 to 14) (size 15 to 20)
#    0.000    1.615    3.846    2.077    0.000    2.769 
#    0.000    3.077    0.000    0.462    0.000    3.231 
#    0.000    0.000    0.000    2.769    0.000    3.077 
#
# Total GULP energy -289943.608095 kJ/mol
# GULP energy per Si atom -5575.838617 kJ/mol
# Density = 2.084180 g / cm^3
# Si number density = 20.889350 Si / 1000 Ang^3
#
#
#
# Elastic Constant Matrix: (Units=GPa)
#
#
# Indices 1 2 3 4 5 6 
#
# 1 123.3306 45.0024 0.4963 0.0000 0.0000 0.0000
# 2 45.0024 109.7760 4.6420 0.0000 0.0000 0.0000
# 3 0.4963 4.6420 64.0390 0.0000 0.0000 0.0000
# 4 0.0000 0.0000 0.0000 11.6337 0.0000 0.0000
# 5 0.0000 0.0000 0.0000 0.0000 9.6234 0.0000
# 6 0.0000 0.0000 0.0000 0.0000 0.0000 12.0817
#
#
#
# Elastic Compliance Matrix: (Units=1/GPa)
#
#
# Indices 1 2 3 4 5 6 
#
# 1 0.009537 -0.003919 0.000210 0.000000 0.000000 0.000000
# 2 -0.003919 0.010748 -0.000749 0.000000 0.000000 0.000000
# 3 0.000210 -0.000749 0.015668 0.000000 0.000000 0.000000
# 4 0.000000 0.000000 0.000000 0.085957 0.000000 0.000000
# 5 0.000000 0.000000 0.000000 0.000000 0.103914 0.000000
# 6 0.000000 0.000000 0.000000 0.000000 0.000000 0.082770
#
#
# Mechanical properties :
#
#
# Convention : Reuss Voigt Hill
#
# Bulk Modulus (GPa) = 36.98421 44.15854 40.57137
# Shear Modulus (GPa) = 15.31295 23.13476 19.22386
#
# Velocity S-wave (km/s) = 2.71043 3.33151 3.03689
# Velocity P-wave (km/s) = 5.24771 5.99865 5.63570
#
# Compressibility (1/GPa) = 0.02703857
#
# Stress axis : x y z
#
# Youngs Moduli (GPa) = 104.85104 93.04429 63.82384
#
# Poissons Ratio (x) = 0.36461 -0.01341
# Poissons Ratio (y) = 0.41088 0.04778
# Poissons Ratio (z) = -0.02203 0.06966
#
# Static dielectric constant tensor:
#      x y z
#    x 1.707220 0.000000 0.000000 
#    y 0.000000 1.545160 0.000000 
#    z 0.000000 0.000000 1.834910 
# 
# From -- ./inp_files/13265.got.cif
#   From: 2010.05.17/outbox.cif.g08.bks.cpg/sg71_7_cif.got.tgz:13265.got - 2010.06.03 16:22:01.
