data_PCOD9520151
_publ_section_title
;
Structure prediction by ZEFSAII (Michael W. Deem and Ramdas Pophale) SiO2 
 PCOD9520151
Probable space group: I M M M
;
_chemical_formula_sum "Si O2"
_cell_formula_units_Z 88
_cell_length_a 18.862374
_cell_length_b 8.364321
_cell_length_c 29.091423
_cell_angle_alpha 90.000000
_cell_angle_beta 90.000000
_cell_angle_gamma 90.000000
_cell_volume 4589.781471
_symmetry_space_group_name_H-M "I M M M"
_symmetry_group_IT_number 71
_symmetry_cell_setting 'orthorhombic'
loop_
_space_group_symop_operation_xyz
x,y,z
-x,-y,z
x,-y,-z
-x,y,-z
-x,-y,-z
x,y,-z
-x,y,z
x,-y,z
1/2+x,1/2+y,1/2+z
1/2-x,1/2-y,1/2+z
1/2+x,1/2-y,1/2-z
1/2-x,1/2+y,1/2-z
1/2-x,1/2-y,1/2-z
1/2+x,1/2+y,1/2-z
1/2-x,1/2+y,1/2+z
1/2+x,1/2-y,1/2+z
loop_
_atom_site_type_symbol
_atom_site_label
_atom_site_fract_x
_atom_site_fract_y
_atom_site_fract_z
Si Si1 0.000000 0.804336 0.946874
Si Si2 0.710806 0.689668 0.113326
Si Si3 0.809984 0.312724 0.284637
Si Si4 0.633806 0.307706 0.385971
Si Si5 0.078862 0.194923 0.446534
Si Si6 0.083909 0.809275 0.214272
O O1 0.070566 0.752358 0.919432
O O2 0.000000 0.000000 0.946572
O O3 0.000000 0.753508 0.000000
O O4 0.714631 0.500000 0.107022
O O5 0.696279 0.727342 0.166603
O O6 0.787323 0.759223 0.100004
O O7 0.644623 0.752661 0.083610
O O8 0.799713 0.500000 0.292258
O O9 0.750000 0.250000 0.250000
O O10 0.882632 0.276934 0.257945
O O11 0.629716 0.500000 0.384829
O O12 0.618930 0.252785 0.333591
O O13 0.087304 0.239016 0.500000
O O14 0.000000 0.246661 0.431113
O O15 0.078993 0.000000 0.444646
O O16 0.000000 0.786735 0.210684
O O17 0.097611 0.000000 0.218900
#
# Coordination Sequence:
#
# PCOD9520151 Si02
#       6
#     8  16  16  16  16  16
#     4   9  18  34  57  85 115 151 199 245 286 343
#     4  11  22  35  57  89 118 148 188 238 291 347
#     4  12  24  38  56  81 114 151 191 237 286 338
#     4  10  19  34  56  80 109 151 193 235 284 337
#     4   8  16  34  59  84 112 148 189 231 276 334
#     4  10  20  36  58  81 108 149 197 236 277 337
#
# _framework density 19.173027000000001
#
# number of rings (size 3 to 8) (size 9 to 14) (size 15 to 20)
#    0.000    1.909    2.727    2.727    0.000    1.818 
#    0.000    2.273    0.000    3.818    0.000    5.091 
#    0.000    0.000    0.000    0.000    0.000    0.000 
#
# Total GULP energy -245667.628449 kJ/mol
# GULP energy per Si atom -5583.355192 kJ/mol
# Density = 1.912939 g / cm^3
# Si number density = 19.173027 Si / 1000 Ang^3
#
#
#
# Elastic Constant Matrix: (Units=GPa)
#
#
# Indices 1 2 3 4 5 6 
#
# 1 153.3479 2.1219 74.8642 0.0000 0.0000 0.0000
# 2 2.1219 4.0793 -6.1683 0.0000 0.0000 0.0000
# 3 74.8642 -6.1683 95.6905 0.0000 0.0000 0.0000
# 4 0.0000 0.0000 0.0000 13.0583 0.0000 0.0000
# 5 0.0000 0.0000 0.0000 0.0000 38.7249 0.0000
# 6 0.0000 0.0000 0.0000 0.0000 0.0000 28.3031
#
#
#
# Elastic Compliance Matrix: (Units=1/GPa)
#
#
# Indices 1 2 3 4 5 6 
#
# 1 0.012245 -0.023108 -0.011069 0.000000 0.000000 0.000000
# 2 -0.023108 0.315223 0.038398 0.000000 0.000000 0.000000
# 3 -0.011069 0.038398 0.021586 0.000000 0.000000 0.000000
# 4 0.000000 0.000000 0.000000 0.076579 0.000000 0.000000
# 5 0.000000 0.000000 0.000000 0.000000 0.025823 0.000000
# 6 0.000000 0.000000 0.000000 0.000000 0.000000 0.035332
#
#
# Mechanical properties :
#
#
# Convention : Reuss Voigt Hill
#
# Bulk Modulus (GPa) = 2.79724 43.86149 23.32936
# Shear Modulus (GPa) = 8.36804 28.17059 18.26932
#
# Velocity S-wave (km/s) = 2.09140 3.83728 3.09020
# Velocity P-wave (km/s) = 2.70075 6.52375 4.99266
#
# Compressibility (1/GPa) = 0.35749554
#
# Stress axis : x y z
#
# Youngs Moduli (GPa) = 81.66622 3.17236 46.32671
#
# Poissons Ratio (x) = 0.07331 0.51281
# Poissons Ratio (y) = 1.88711 -1.77885
# Poissons Ratio (z) = 0.90400 -0.12181
#
# Static dielectric constant tensor:
#      x y z
#    x 1.660390 0.000000 0.000000 
#    y 0.000000 1.675900 0.000000 
#    z 0.000000 0.000000 1.638880 
# 
# From -- ./inp_files/70372.got.cif
#   From: 2010.05.17/outbox.cif.g08.bks.cpg/sg71_36_cif.got.tgz:70372.got - 2010.06.03 16:22:01.
