data_PCOD9520547
_publ_section_title
;
Structure prediction by ZEFSAII (Michael W. Deem and Ramdas Pophale) SiO2 
 PCOD9520547
Probable space group: I M M M
;
_chemical_formula_sum "Si O2"
_cell_formula_units_Z 104
_cell_length_a 25.395338
_cell_length_b 17.104005
_cell_length_c 14.107032
_cell_angle_alpha 90.000000
_cell_angle_beta 90.000000
_cell_angle_gamma 90.000000
_cell_volume 6127.558466
_symmetry_space_group_name_H-M "I M M M"
_symmetry_group_IT_number 71
_symmetry_cell_setting 'orthorhombic'
loop_
_space_group_symop_operation_xyz
x,y,z
-x,-y,z
x,-y,-z
-x,y,-z
-x,-y,-z
x,y,-z
-x,y,z
x,-y,z
1/2+x,1/2+y,1/2+z
1/2-x,1/2-y,1/2+z
1/2+x,1/2-y,1/2-z
1/2-x,1/2+y,1/2-z
1/2-x,1/2-y,1/2-z
1/2+x,1/2+y,1/2-z
1/2-x,1/2+y,1/2+z
1/2+x,1/2-y,1/2+z
loop_
_atom_site_type_symbol
_atom_site_label
_atom_site_fract_x
_atom_site_fract_y
_atom_site_fract_z
Si Si1 0.500000 0.678505 0.890890
Si Si2 0.179684 0.406528 0.107446
Si Si3 0.000000 0.630672 0.610665
Si Si4 0.199842 0.091630 0.612538
Si Si5 0.561046 0.406893 0.610224
Si Si6 0.000000 0.593219 0.887854
Si Si7 0.589717 0.856087 0.254648
Si Si8 0.894291 0.824726 0.716991
O O1 0.500000 0.773933 0.886854
O O2 0.446887 0.650538 0.840364
O O3 0.500000 0.655180 0.000000
O O4 0.181093 0.500000 0.099297
O O5 0.239834 0.381227 0.126167
O O6 0.142280 0.389507 0.196840
O O7 0.163620 0.378161 0.000000
O O8 0.053250 0.607665 0.669287
O O9 0.000000 0.606706 0.500000
O O10 0.189418 0.095687 0.500000
O O11 0.157399 0.142657 0.667359
O O12 0.195717 0.000000 0.640562
O O13 0.571886 0.392368 0.500000
O O14 0.500000 0.384219 0.628162
O O15 0.565109 0.500000 0.626652
O O16 0.598768 0.360293 0.679011
O O17 0.950516 0.636304 0.842312
O O18 0.000000 0.500000 0.862746
O O19 0.000000 0.597775 0.000000
O O20 0.603439 0.768602 0.223733
#
# Coordination Sequence:
#
# PCOD9520547 Si02
#       8
#     8  16   8  16  16   8  16  16
#     4   9  17  29  45  67  97 131 157 189 247 306
#     4   9  18  35  56  76 101 132 167 210 262 318
#     4   8  17  33  47  67 103 138 165 190 231 294
#     4   9  19  35  55  76  99 133 173 213 260 313
#     4   9  18  31  45  61  88 132 174 200 236 295
#     4  10  20  34  53  79 110 138 165 208 263 316
#     4  10  20  30  51  81 103 132 168 207 259 308
#     4  11  19  31  48  74 105 130 166 214 259 302
#
# _framework density 16.972503
#
# number of rings (size 3 to 8) (size 9 to 14) (size 15 to 20)
#    0.000    2.538    0.769    3.692    0.000    3.692 
#    0.000    0.000    0.000   11.077    0.000    2.154 
#    0.000    0.000    0.000    0.000    0.000    0.000 
#
# Total GULP energy -289521.625932 kJ/mol
# GULP energy per Si atom -5567.723576 kJ/mol
# Density = 1.693387 g / cm^3
# Si number density = 16.972503 Si / 1000 Ang^3
#
#
#
# Elastic Constant Matrix: (Units=GPa)
#
#
# Indices 1 2 3 4 5 6 
#
# 1 108.3989 33.4235 54.2587 0.0000 0.0000 0.0000
# 2 33.4235 23.6546 19.3858 0.0000 0.0000 0.0000
# 3 54.2587 19.3858 79.6194 0.0000 0.0000 0.0000
# 4 0.0000 0.0000 0.0000 22.0495 0.0000 0.0000
# 5 0.0000 0.0000 0.0000 0.0000 29.7119 0.0000
# 6 0.0000 0.0000 0.0000 0.0000 0.0000 13.9800
#
#
#
# Elastic Compliance Matrix: (Units=1/GPa)
#
#
# Indices 1 2 3 4 5 6 
#
# 1 0.020062 -0.021416 -0.008457 0.000000 0.000000 0.000000
# 2 -0.021416 0.075675 -0.003831 0.000000 0.000000 0.000000
# 3 -0.008457 -0.003831 0.019256 0.000000 0.000000 0.000000
# 4 0.000000 0.000000 0.000000 0.045352 0.000000 0.000000
# 5 0.000000 0.000000 0.000000 0.000000 0.033657 0.000000
# 6 0.000000 0.000000 0.000000 0.000000 0.000000 0.071531
#
#
# Mechanical properties :
#
#
# Convention : Reuss Voigt Hill
#
# Bulk Modulus (GPa) = 21.01531 47.31210 34.16370
# Shear Modulus (GPa) = 14.33476 20.12193 17.22834
#
# Velocity S-wave (km/s) = 2.90933 3.44693 3.18948
# Velocity P-wave (km/s) = 4.86770 6.61650 5.80829
#
# Compressibility (1/GPa) = 0.04758437
#
# Stress axis : x y z
#
# Youngs Moduli (GPa) = 49.84598 13.21441 51.93198
#
# Poissons Ratio (x) = 0.28300 0.43920
# Poissons Ratio (y) = 1.06750 0.19895
# Poissons Ratio (z) = 0.42156 0.05062
#
# Static dielectric constant tensor:
#      x y z
#    x 1.614910 0.000000 0.000000 
#    y 0.000000 1.578500 0.000000 
#    z 0.000000 0.000000 1.589100 
# 
# From -- ./inp_files/39513.got.cif
#   From: 2010.05.17/outbox.cif.g08.bks.cpg/sg71_20_cif.got.tgz:39513.got - 2010.06.03 16:22:01.
