data_PCOD9520515
_publ_section_title
;
Structure prediction by ZEFSAII (Michael W. Deem and Ramdas Pophale) SiO2 
 PCOD9520515
Probable space group: I M M M
;
_chemical_formula_sum "Si O2"
_cell_formula_units_Z 88
_cell_length_a 12.400197
_cell_length_b 24.232353
_cell_length_c 15.048758
_cell_angle_alpha 90.000000
_cell_angle_beta 90.000000
_cell_angle_gamma 90.000000
_cell_volume 4521.940359
_symmetry_space_group_name_H-M "I M M M"
_symmetry_group_IT_number 71
_symmetry_cell_setting 'orthorhombic'
loop_
_space_group_symop_operation_xyz
x,y,z
-x,-y,z
x,-y,-z
-x,y,-z
-x,-y,-z
x,y,-z
-x,y,z
x,-y,z
1/2+x,1/2+y,1/2+z
1/2-x,1/2-y,1/2+z
1/2+x,1/2-y,1/2-z
1/2-x,1/2+y,1/2-z
1/2-x,1/2-y,1/2-z
1/2+x,1/2+y,1/2-z
1/2-x,1/2+y,1/2+z
1/2+x,1/2-y,1/2+z
loop_
_atom_site_type_symbol
_atom_site_label
_atom_site_fract_x
_atom_site_fract_y
_atom_site_fract_z
Si Si1 0.252164 0.437678 0.782842
Si Si2 0.000000 0.922399 0.289766
Si Si3 0.375654 0.847442 0.602055
Si Si4 0.721744 0.750399 0.854001
Si Si5 0.237464 0.873896 0.901152
Si Si6 0.000000 0.900113 0.094686
Si Si7 0.500000 0.688959 0.896122
O O1 0.209214 0.500000 0.789489
O O2 0.378097 0.440033 0.814759
O O3 0.188851 0.392181 0.839930
O O4 0.244595 0.415435 0.680887
O O5 0.000000 0.934273 0.184394
O O6 0.000000 0.859827 0.324121
O O7 0.375150 0.866201 0.500000
O O8 0.500000 0.842047 0.631934
O O9 0.314232 0.788874 0.605688
O O10 0.750000 0.750000 0.750000
O O11 0.715845 0.813541 0.884778
O O12 0.607994 0.723069 0.877921
O O13 0.108224 0.865167 0.901728
O O14 0.267909 0.894531 0.000000
O O15 0.000000 0.930680 0.000000
O O16 0.500000 0.670035 0.000000
#
# Coordination Sequence:
#
# PCOD9520515 Si02
#       7
#    16   8  16  16  16   8   8
#     4  11  23  41  63  89 122 164 213 262 307 362
#     4  10  19  38  60  90 122 163 205 253 307 370
#     4  11  25  44  66  93 123 159 205 258 316 375
#     4  12  23  39  65  95 130 165 203 253 315 379
#     4  10  20  36  58  91 127 164 204 248 308 370
#     4   8  16  31  53  83 122 159 198 248 294 349
#     4  12  24  39  63  95 135 169 202 253 318 387
#
# _framework density 19.460671999999999
#
# number of rings (size 3 to 8) (size 9 to 14) (size 15 to 20)
#    0.000    1.273    3.636    3.000    2.545    1.091 
#    0.000    0.909    0.000    7.091    0.000    1.273 
#    0.000    0.000    0.000    0.000    0.000    0.000 
#
# Total GULP energy -245200.414900 kJ/mol
# GULP energy per Si atom -5572.736702 kJ/mol
# Density = 1.941638 g / cm^3
# Si number density = 19.460672 Si / 1000 Ang^3
#
#
#
# Elastic Constant Matrix: (Units=GPa)
#
#
# Indices 1 2 3 4 5 6 
#
# 1 93.8496 13.9615 14.0958 0.0000 0.0000 0.0000
# 2 13.9615 75.5000 -3.5723 0.0000 0.0000 0.0000
# 3 14.0958 -3.5723 83.3445 0.0000 0.0000 0.0000
# 4 0.0000 0.0000 0.0000 -3.3553 0.0000 0.0000
# 5 0.0000 0.0000 0.0000 0.0000 21.3098 0.0000
# 6 0.0000 0.0000 0.0000 0.0000 0.0000 15.5400
#
#
#
# Elastic Compliance Matrix: (Units=1/GPa)
#
#
# Indices 1 2 3 4 5 6 
#
# 1 0.011280 -0.002181 -0.002001 0.000000 0.000000 0.000000
# 2 -0.002181 0.013694 0.000956 0.000000 0.000000 0.000000
# 3 -0.002001 0.000956 0.012378 0.000000 0.000000 0.000000
# 4 0.000000 0.000000 0.000000 -0.298035 0.000000 0.000000
# 5 0.000000 0.000000 0.000000 0.000000 0.046927 0.000000
# 6 0.000000 0.000000 0.000000 0.000000 0.000000 0.064350
#
#
# Mechanical properties :
#
#
# Convention : Reuss Voigt Hill
#
# Bulk Modulus (GPa) = 32.36324 33.51825 32.94075
# Shear Modulus (GPa) = -37.69189 21.91285 -7.88952
#
# Velocity S-wave (km/s) = -4.40571 3.35924 -2.01566
# Velocity P-wave (km/s) = 3.03549 5.68392 3.39800
#
# Compressibility (1/GPa) = 0.03089925
#
# Stress axis : x y z
#
# Youngs Moduli (GPa) = 88.64981 73.02735 80.78967
#
# Poissons Ratio (x) = 0.15925 0.16168
# Poissons Ratio (y) = 0.19332 -0.07721
# Poissons Ratio (z) = 0.17741 -0.06979
#
# Static dielectric constant tensor:
#      x y z
#    x 1.687030 0.000000 0.000000 
#    y 0.000000 1.665610 0.000000 
#    z 0.000000 0.000000 1.731610 
# 
# From -- ./inp_files/32781.got.cif
#   From: 2010.05.17/outbox.cif.g08.bks.cpg/sg71_17_cif.got.tgz:32781.got - 2010.06.03 16:22:01.
