data_PCOD9520064
_publ_section_title
;
Structure prediction by ZEFSAII (Michael W. Deem and Ramdas Pophale) SiO2 
 PCOD9520064
Probable space group: I M M M
;
_chemical_formula_sum "Si O2"
_cell_formula_units_Z 98
_cell_length_a 24.213312
_cell_length_b 17.489673
_cell_length_c 12.939927
_cell_angle_alpha 90.000000
_cell_angle_beta 90.000000
_cell_angle_gamma 90.000000
_cell_volume 5479.837930
_symmetry_space_group_name_H-M "I M M M"
_symmetry_group_IT_number 71
_symmetry_cell_setting 'orthorhombic'
loop_
_space_group_symop_operation_xyz
x,y,z
-x,-y,z
x,-y,-z
-x,y,-z
-x,-y,-z
x,y,-z
-x,y,z
x,-y,z
1/2+x,1/2+y,1/2+z
1/2-x,1/2-y,1/2+z
1/2+x,1/2-y,1/2-z
1/2-x,1/2+y,1/2-z
1/2-x,1/2-y,1/2-z
1/2+x,1/2+y,1/2-z
1/2-x,1/2+y,1/2+z
1/2+x,1/2-y,1/2+z
loop_
_atom_site_type_symbol
_atom_site_label
_atom_site_fract_x
_atom_site_fract_y
_atom_site_fract_z
Si Si1 0.401205 0.412727 0.375863
Si Si2 0.189937 0.287998 0.617046
Si Si3 0.381651 0.909955 0.220912
Si Si4 0.000000 0.500000 0.000000
Si Si5 0.792095 0.408726 0.114972
Si Si6 0.000000 0.623675 0.807409
Si Si7 0.000000 0.199845 0.875397
Si Si8 0.296703 0.657781 0.728302
O O1 0.394741 0.407472 0.500000
O O2 0.418705 0.500000 0.352595
O O3 0.446509 0.349943 0.343900
O O4 0.343331 0.393828 0.321899
O O5 0.185171 0.259963 0.500000
O O6 0.149417 0.359458 0.635804
O O7 0.253335 0.311458 0.642939
O O8 0.176579 0.226525 0.706038
O O9 0.349060 0.889811 0.327386
O O10 0.445324 0.893324 0.240826
O O11 0.373500 0.000000 0.201385
O O12 0.000000 0.432517 0.092305
O O13 0.790358 0.500000 0.107354
O O14 0.742461 0.383364 0.188139
O O15 0.789091 0.375679 0.000000
O O16 0.000000 0.713293 0.837027
O O17 0.000000 0.202096 0.000000
#
# Coordination Sequence:
#
# PCOD9520064 Si02
#       8
#    16  16  16   2  16   8   8  16
#     4  10  20  35  56  82 113 146 182 222 274 336
#     4  10  21  36  54  76 108 145 185 228 282 332
#     4  10  21  35  52  75 107 141 184 230 274 331
#     4  12  24  32  60  88 112 160 188 244 288 342
#     4   9  18  30  49  75 107 138 170 213 271 326
#     4  12  22  37  55  85 115 146 194 231 286 341
#     4  10  21  34  52  79 111 145 176 219 275 334
#     4  10  19  34  53  80 106 141 181 227 269 327
#
# _framework density 17.883741000000001
#
# number of rings (size 3 to 8) (size 9 to 14) (size 15 to 20)
#    0.000    1.959    1.224    2.694    1.143    1.959 
#    0.000    2.857    0.000    0.980    0.000    1.714 
#    0.000    7.837    0.000    0.000    0.000    0.000 
#
# Total GULP energy -273061.062585 kJ/mol
# GULP energy per Si atom -5572.674747 kJ/mol
# Density = 1.784304 g / cm^3
# Si number density = 17.883741 Si / 1000 Ang^3
#
#
#
# Elastic Constant Matrix: (Units=GPa)
#
#
# Indices 1 2 3 4 5 6 
#
# 1 85.5355 33.1556 22.2407 0.0000 0.0000 0.0000
# 2 33.1556 94.8951 25.2317 0.0000 0.0000 0.0000
# 3 22.2407 25.2317 44.5725 0.0000 0.0000 0.0000
# 4 0.0000 0.0000 0.0000 22.3543 0.0000 0.0000
# 5 0.0000 0.0000 0.0000 0.0000 10.8761 0.0000
# 6 0.0000 0.0000 0.0000 0.0000 0.0000 31.0045
#
#
#
# Elastic Compliance Matrix: (Units=1/GPa)
#
#
# Indices 1 2 3 4 5 6 
#
# 1 0.014453 -0.003687 -0.005124 0.000000 0.000000 0.000000
# 2 -0.003687 0.013346 -0.005715 0.000000 0.000000 0.000000
# 3 -0.005124 -0.005715 0.028227 0.000000 0.000000 0.000000
# 4 0.000000 0.000000 0.000000 0.044734 0.000000 0.000000
# 5 0.000000 0.000000 0.000000 0.000000 0.091945 0.000000
# 6 0.000000 0.000000 0.000000 0.000000 0.000000 0.032253
#
#
# Mechanical properties :
#
#
# Convention : Reuss Voigt Hill
#
# Bulk Modulus (GPa) = 37.07421 42.91769 39.99595
# Shear Modulus (GPa) = 19.01124 22.47198 20.74161
#
# Velocity S-wave (km/s) = 3.26398 3.54864 3.40928
# Velocity P-wave (km/s) = 5.91442 6.39068 6.15716
#
# Compressibility (1/GPa) = 0.02697293
#
# Stress axis : x y z
#
# Youngs Moduli (GPa) = 69.19124 74.93003 35.42651
#
# Poissons Ratio (x) = 0.27628 0.18154
# Poissons Ratio (y) = 0.25512 0.20246
# Poissons Ratio (z) = 0.35456 0.42823
#
# Static dielectric constant tensor:
#      x y z
#    x 1.601750 0.000000 0.000000 
#    y 0.000000 1.647480 0.000000 
#    z 0.000000 0.000000 1.596390 
# 
# From -- ./inp_files/39225.got.cif
#   From: 2010.05.17/outbox.cif.g08.bks.cpg/sg71_20_cif.got.tgz:39225.got - 2010.06.03 16:22:01.
