data_PCOD9520727
_publ_section_title
;
Structure prediction by ZEFSAII (Michael W. Deem and Ramdas Pophale) SiO2 
 PCOD9520727
Probable space group: I M M M
;
_chemical_formula_sum "Si O2"
_cell_formula_units_Z 88
_cell_length_a 18.791533
_cell_length_b 7.384254
_cell_length_c 27.590733
_cell_angle_alpha 90.000000
_cell_angle_beta 90.000000
_cell_angle_gamma 90.000000
_cell_volume 3828.530193
_symmetry_space_group_name_H-M "I M M M"
_symmetry_group_IT_number 71
_symmetry_cell_setting 'orthorhombic'
loop_
_space_group_symop_operation_xyz
x,y,z
-x,-y,z
x,-y,-z
-x,y,-z
-x,-y,-z
x,y,-z
-x,y,z
x,-y,z
1/2+x,1/2+y,1/2+z
1/2-x,1/2-y,1/2+z
1/2+x,1/2-y,1/2-z
1/2-x,1/2+y,1/2-z
1/2-x,1/2-y,1/2-z
1/2+x,1/2+y,1/2-z
1/2-x,1/2+y,1/2+z
1/2+x,1/2-y,1/2+z
loop_
_atom_site_type_symbol
_atom_site_label
_atom_site_fract_x
_atom_site_fract_y
_atom_site_fract_z
Si Si1 0.578420 0.793736 0.071956
Si Si2 0.639456 0.278622 0.379305
Si Si3 0.329165 0.716953 0.730119
Si Si4 0.000000 0.220693 0.057485
Si Si5 0.233816 0.279983 0.447225
Si Si6 0.917826 0.207289 0.318183
O O1 0.500000 0.712208 0.061702
O O2 0.652737 0.711549 0.054940
O O3 0.586955 0.799073 0.129974
O O4 0.575770 0.000000 0.054081
O O5 0.638113 0.500000 0.379111
O O6 0.647863 0.218450 0.323337
O O7 0.570231 0.224567 0.411181
O O8 0.711721 0.220211 0.406376
O O9 0.339485 0.500000 0.728046
O O10 0.250000 0.750000 0.750000
O O11 0.377000 0.790409 0.773551
O O12 0.000000 0.000000 0.056332
O O13 0.000000 0.276650 0.000000
O O14 0.264409 0.237994 0.500000
O O15 0.229125 0.500000 0.443160
O O16 0.000000 0.201268 0.304720
O O17 0.892814 0.000000 0.326079
#
# Coordination Sequence:
#
# PCOD9520727 Si02
#       6
#    16  16  16   8  16  16
#     4   9  17  29  46  68  93 122 155 191 230 274
#     4   9  17  27  42  64  92 125 158 194 239 288
#     4  10  20  32  48  70  97 128 159 195 236 283
#     4   9  16  26  42  66  97 129 161 201 250 299
#     4   9  16  26  41  62  89 118 150 190 234 278
#     4   9  18  31  47  66  91 123 156 188 226 273
#
# _framework density 22.985323000000001
#
# number of rings (size 3 to 8) (size 9 to 14) (size 15 to 20)
#    0.000    2.818    0.000    1.636    1.273    4.727 
#    0.000    1.818    0.000    0.545    0.000    2.545 
#    0.000    2.909    0.000    0.000    0.000    0.182 
#
# Total GULP energy -245411.230343 kJ/mol
# GULP energy per Si atom -5577.527962 kJ/mol
# Density = 2.293301 g / cm^3
# Si number density = 22.985323 Si / 1000 Ang^3
#
#
#
# Elastic Constant Matrix: (Units=GPa)
#
#
# Indices 1 2 3 4 5 6 
#
# 1 121.6147 4.2490 86.4320 0.0000 0.0000 0.0000
# 2 4.2490 83.8371 9.9677 0.0000 0.0000 0.0000
# 3 86.4320 9.9677 192.2354 0.0000 0.0000 0.0000
# 4 0.0000 0.0000 0.0000 -9.7280 0.0000 0.0000
# 5 0.0000 0.0000 0.0000 0.0000 35.3887 0.0000
# 6 0.0000 0.0000 0.0000 0.0000 0.0000 0.5206
#
#
#
# Elastic Compliance Matrix: (Units=1/GPa)
#
#
# Indices 1 2 3 4 5 6 
#
# 1 0.012084 0.000034 -0.005435 0.000000 0.000000 0.000000
# 2 0.000034 0.012002 -0.000637 0.000000 0.000000 0.000000
# 3 -0.005435 -0.000637 0.007679 0.000000 0.000000 0.000000
# 4 0.000000 0.000000 0.000000 -0.102796 0.000000 0.000000
# 5 0.000000 0.000000 0.000000 0.000000 0.028258 0.000000
# 6 0.000000 0.000000 0.000000 0.000000 0.000000 1.920744
#
#
# Mechanical properties :
#
#
# Convention : Reuss Voigt Hill
#
# Bulk Modulus (GPa) = 50.79406 66.55384 58.67395
# Shear Modulus (GPa) = 2.63628 25.03884 13.83756
#
# Velocity S-wave (km/s) = 1.07212 3.30410 2.45627
# Velocity P-wave (km/s) = 4.86611 6.60105 5.79883
#
# Compressibility (1/GPa) = 0.01968734
#
# Stress axis : x y z
#
# Youngs Moduli (GPa) = 82.75289 83.31961 130.23105
#
# Poissons Ratio (x) = -0.00281 0.70780
# Poissons Ratio (y) = -0.00279 0.08302
# Poissons Ratio (z) = 0.44976 0.05312
#
# Static dielectric constant tensor:
#      x y z
#    x 1.806520 0.000000 0.000000 
#    y 0.000000 2.120780 0.000000 
#    z 0.000000 0.000000 1.788740 
# 
# From -- ./inp_files/16661.got.cif
#   From: 2010.05.17/outbox.cif.g08.bks.cpg/sg71_9_cif.got.tgz:16661.got - 2010.06.03 16:22:01.
