data_PCOD9520979
_publ_section_title
;
Structure prediction by ZEFSAII (Michael W. Deem and Ramdas Pophale) SiO2 
 PCOD9520979
Probable space group: I M M M
;
_chemical_formula_sum "Si O2"
_cell_formula_units_Z 72
_cell_length_a 32.660031
_cell_length_b 14.832962
_cell_length_c 8.118305
_cell_angle_alpha 90.000000
_cell_angle_beta 90.000000
_cell_angle_gamma 90.000000
_cell_volume 3932.872256
_symmetry_space_group_name_H-M "I M M M"
_symmetry_group_IT_number 71
_symmetry_cell_setting 'orthorhombic'
loop_
_space_group_symop_operation_xyz
x,y,z
-x,-y,z
x,-y,-z
-x,y,-z
-x,-y,-z
x,y,-z
-x,y,z
x,-y,z
1/2+x,1/2+y,1/2+z
1/2-x,1/2-y,1/2+z
1/2+x,1/2-y,1/2-z
1/2-x,1/2+y,1/2-z
1/2-x,1/2-y,1/2-z
1/2+x,1/2+y,1/2-z
1/2-x,1/2+y,1/2+z
1/2+x,1/2-y,1/2+z
loop_
_atom_site_type_symbol
_atom_site_label
_atom_site_fract_x
_atom_site_fract_y
_atom_site_fract_z
Si Si1 0.836602 0.000000 0.298655
Si Si2 0.548616 0.500000 0.683683
Si Si3 0.758229 0.500000 0.804045
Si Si4 0.788990 0.308144 0.303650
Si Si5 0.453950 0.304031 0.300630
Si Si6 0.367626 0.302322 0.198791
O O1 0.789106 0.000000 0.243357
O O2 0.857883 0.905982 0.245250
O O3 0.837230 0.000000 0.500000
O O4 0.500000 0.500000 0.658732
O O5 0.567862 0.500000 0.500000
O O6 0.554626 0.404924 0.769554
O O7 0.781438 0.589944 0.750881
O O8 0.755230 0.500000 0.000000
O O9 0.790950 0.306173 0.500000
O O10 0.750000 0.250000 0.250000
O O11 0.830164 0.259816 0.241671
O O12 0.455574 0.310351 0.500000
O O13 0.500000 0.274663 0.248608
O O14 0.411093 0.259737 0.253515
O O15 0.367371 0.304594 0.000000
#
# Coordination Sequence:
#
# PCOD9520979 Si02
#       6
#     8   8   8  16  16  16
#     4   9  17  32  49  71 104 140 174 212 259 306
#     4   7  11  22  39  59  88 125 161 202 247 286
#     4  11  21  38  58  77 107 143 177 223 270 315
#     4  11  22  37  56  80 108 141 180 221 266 319
#     4   9  17  29  45  67  97 132 173 218 258 303
#     4  10  20  33  50  73 105 140 175 217 261 311
#
# _framework density 18.307230000000001
#
# number of rings (size 3 to 8) (size 9 to 14) (size 15 to 20)
#    0.000    2.333    2.222    3.000    0.000    2.222 
#    0.000    0.000    0.000    4.000    0.000    0.778 
#    0.000    6.222    0.000    0.000    0.000    0.000 
#
# Total GULP energy -200422.294546 kJ/mol
# GULP energy per Si atom -5567.285960 kJ/mol
# Density = 1.826556 g / cm^3
# Si number density = 18.307230 Si / 1000 Ang^3
#
#
#
# Elastic Constant Matrix: (Units=GPa)
#
#
# Indices 1 2 3 4 5 6 
#
# 1 200.0903 63.0202 17.6680 0.0000 0.0000 0.0000
# 2 63.0202 94.9642 11.8834 0.0000 0.0000 0.0000
# 3 17.6680 11.8834 19.4052 0.0000 0.0000 0.0000
# 4 0.0000 0.0000 0.0000 28.0651 0.0000 0.0000
# 5 0.0000 0.0000 0.0000 0.0000 25.7248 0.0000
# 6 0.0000 0.0000 0.0000 0.0000 0.0000 19.0483
#
#
#
# Elastic Compliance Matrix: (Units=1/GPa)
#
#
# Indices 1 2 3 4 5 6 
#
# 1 0.006539 -0.003893 -0.003570 0.000000 0.000000 0.000000
# 2 -0.003893 0.013722 -0.004859 0.000000 0.000000 0.000000
# 3 -0.003570 -0.004859 0.057758 0.000000 0.000000 0.000000
# 4 0.000000 0.000000 0.000000 0.035631 0.000000 0.000000
# 5 0.000000 0.000000 0.000000 0.000000 0.038873 0.000000
# 6 0.000000 0.000000 0.000000 0.000000 0.000000 0.052498
#
#
# Mechanical properties :
#
#
# Convention : Reuss Voigt Hill
#
# Bulk Modulus (GPa) = 18.73486 55.51141 37.12314
# Shear Modulus (GPa) = 20.20567 29.36020 24.78293
#
# Velocity S-wave (km/s) = 3.32580 4.00903 3.68329
# Velocity P-wave (km/s) = 5.00037 7.19845 6.19764
#
# Compressibility (1/GPa) = 0.05337644
#
# Stress axis : x y z
#
# Youngs Moduli (GPa) = 152.92865 72.87808 17.31361
#
# Poissons Ratio (x) = 0.28369 0.06181
# Poissons Ratio (y) = 0.59531 0.08412
# Poissons Ratio (z) = 0.54592 0.35408
#
# Static dielectric constant tensor:
#      x y z
#    x 1.690800 0.000000 0.000000 
#    y 0.000000 1.737910 0.000000 
#    z 0.000000 0.000000 1.664270 
# 
# From -- ./inp_files/16399.got.cif
#   From: 2010.05.17/outbox.cif.g08.bks.cpg/sg71_9_cif.got.tgz:16399.got - 2010.06.03 16:22:01.
