data_PCOD9520606
_publ_section_title
;
Structure prediction by ZEFSAII (Michael W. Deem and Ramdas Pophale) SiO2 
 PCOD9520606
Probable space group: I M M M
;
_chemical_formula_sum "Si O2"
_cell_formula_units_Z 104
_cell_length_a 14.426148
_cell_length_b 21.004089
_cell_length_c 16.132385
_cell_angle_alpha 90.000000
_cell_angle_beta 90.000000
_cell_angle_gamma 90.000000
_cell_volume 4888.243271
_symmetry_space_group_name_H-M "I M M M"
_symmetry_group_IT_number 71
_symmetry_cell_setting 'orthorhombic'
loop_
_space_group_symop_operation_xyz
x,y,z
-x,-y,z
x,-y,-z
-x,y,-z
-x,-y,-z
x,y,-z
-x,y,z
x,-y,z
1/2+x,1/2+y,1/2+z
1/2-x,1/2-y,1/2+z
1/2+x,1/2-y,1/2-z
1/2-x,1/2+y,1/2-z
1/2-x,1/2-y,1/2-z
1/2+x,1/2+y,1/2-z
1/2-x,1/2+y,1/2+z
1/2+x,1/2-y,1/2+z
loop_
_atom_site_type_symbol
_atom_site_label
_atom_site_fract_x
_atom_site_fract_y
_atom_site_fract_z
Si Si1 0.100703 0.342676 0.639826
Si Si2 0.703620 0.571088 0.100402
Si Si3 0.359162 0.238077 0.405567
Si Si4 0.808149 0.870258 0.903529
Si Si5 0.400239 0.891524 0.324017
Si Si6 0.391425 0.500000 0.601410
Si Si7 0.641293 0.294834 0.095261
O O1 0.197353 0.361070 0.597171
O O2 0.106112 0.380415 0.726030
O O3 0.102980 0.265246 0.646266
O O4 0.000000 0.358251 0.601578
O O5 0.668093 0.500000 0.119254
O O6 0.806679 0.578154 0.139489
O O7 0.640036 0.631860 0.125493
O O8 0.713068 0.576505 0.000000
O O9 0.393247 0.240086 0.500000
O O10 0.358274 0.308187 0.366028
O O11 0.403451 0.180309 0.358427
O O12 0.250781 0.219702 0.408975
O O13 0.841146 0.936604 0.866939
O O14 0.836068 0.869645 0.000000
O O15 0.500000 0.922394 0.344351
O O16 0.500000 0.500000 0.620689
O O17 0.383258 0.500000 0.500000
O O18 0.606064 0.290940 0.000000
#
# Coordination Sequence:
#
# PCOD9520606 Si02
#       7
#    16  16  16  16  16   8  16
#     4  10  20  33  50  75 108 143 177 218 260 301
#     4   9  18  33  52  73  99 133 173 219 272 325
#     4   8  15  28  47  71  96 124 163 213 264 309
#     4   9  18  33  53  76 102 134 174 215 258 310
#     4  10  20  31  45  72 105 136 174 216 258 314
#     4   9  18  34  55  77 101 129 165 210 258 310
#     4   8  15  29  50  74  97 125 170 221 262 311
#
# _framework density 21.275537
#
# number of rings (size 3 to 8) (size 9 to 14) (size 15 to 20)
#    0.000    3.000    0.000    2.769    0.000    8.923 
#    1.385    2.692    0.000    1.846    0.000    2.154 
#    0.000    0.000    0.000    0.000    0.000    0.000 
#
# Total GULP energy -289485.882556 kJ/mol
# GULP energy per Si atom -5567.036203 kJ/mol
# Density = 2.122711 g / cm^3
# Si number density = 21.275537 Si / 1000 Ang^3
#
#
#
# Elastic Constant Matrix: (Units=GPa)
#
#
# Indices 1 2 3 4 5 6 
#
# 1 60.4988 16.9826 -8.8592 0.0000 -0.0001 0.0000
# 2 16.9826 143.5319 -3.5289 0.0002 0.0003 0.0000
# 3 -8.8592 -3.5289 10.7251 0.0003 0.0005 0.0000
# 4 0.0000 0.0002 0.0003 1.3343 0.0005 0.0000
# 5 -0.0001 0.0003 0.0005 0.0005 -6.8799 0.0000
# 6 0.0000 0.0000 0.0000 0.0000 0.0000 1.2522
#
#
#
# Elastic Compliance Matrix: (Units=1/GPa)
#
#
# Indices 1 2 3 4 5 6 
#
# 1 0.019308 -0.001908 0.015321 -0.000003 0.000001 0.000000
# 2 -0.001908 0.007212 0.000797 -0.000001 0.000000 0.000000
# 3 0.015321 0.000797 0.106157 -0.000022 0.000008 0.000002
# 4 -0.000003 -0.000001 -0.000022 0.749478 0.000058 0.000013
# 5 0.000001 0.000000 0.000008 0.000058 -0.145351 0.000005
# 6 0.000000 0.000000 0.000002 0.000013 0.000005 0.798564
#
#
# Mechanical properties :
#
#
# Convention : Reuss Voigt Hill
#
# Bulk Modulus (GPa) = 6.20735 24.88274 15.54505
# Shear Modulus (GPa) = 3.20380 13.15208 8.17794
#
# Velocity S-wave (km/s) = 1.22847 2.48902 1.96269
# Velocity P-wave (km/s) = 2.22173 4.47003 3.52968
#
# Compressibility (1/GPa) = 0.16109936
#
# Stress axis : x y z
#
# Youngs Moduli (GPa) = 51.79092 138.64953 9.42001
#
# Poissons Ratio (x) = 0.26452 -0.14433
# Poissons Ratio (y) = 0.09881 -0.00751
# Poissons Ratio (z) = -0.79351 -0.11053
#
# Static dielectric constant tensor:
#      x y z
#    x 1.787850 0.000000 0.000000 
#    y 0.000000 1.821440 0.000000 
#    z 0.000000 0.000000 1.769470 
# 
# From -- ./inp_files/44973.got.cif
#   From: 2010.05.17/outbox.cif.g08.bks.cpg/sg71_23_cif.got.tgz:44973.got - 2010.06.03 16:22:01.
