data_PCOD9520083
_publ_section_title
;
Structure prediction by ZEFSAII (Michael W. Deem and Ramdas Pophale) SiO2 
 PCOD9520083
Probable space group: I M M M
;
_chemical_formula_sum "Si O2"
_cell_formula_units_Z 120
_cell_length_a 24.220999
_cell_length_b 22.767232
_cell_length_c 11.856429
_cell_angle_alpha 90.000000
_cell_angle_beta 90.000000
_cell_angle_gamma 90.000000
_cell_volume 6538.169717
_symmetry_space_group_name_H-M "I M M M"
_symmetry_group_IT_number 71
_symmetry_cell_setting 'orthorhombic'
loop_
_space_group_symop_operation_xyz
x,y,z
-x,-y,z
x,-y,-z
-x,y,-z
-x,-y,-z
x,y,-z
-x,y,z
x,-y,z
1/2+x,1/2+y,1/2+z
1/2-x,1/2-y,1/2+z
1/2+x,1/2-y,1/2-z
1/2-x,1/2+y,1/2-z
1/2-x,1/2-y,1/2-z
1/2+x,1/2+y,1/2-z
1/2-x,1/2+y,1/2+z
1/2+x,1/2-y,1/2+z
loop_
_atom_site_type_symbol
_atom_site_label
_atom_site_fract_x
_atom_site_fract_y
_atom_site_fract_z
Si Si1 0.253076 0.715955 0.628137
Si Si2 0.876233 0.236491 0.129344
Si Si3 0.842251 0.648931 0.265748
Si Si4 0.937122 0.432288 0.635804
Si Si5 0.561200 0.624800 0.365062
Si Si6 0.563520 0.571906 0.000000
Si Si7 0.359475 0.569623 0.795946
Si Si8 0.260057 0.931242 0.365507
O O1 0.244643 0.743399 0.500000
O O2 0.250000 0.750000 0.750000
O O3 0.318040 0.700746 0.626683
O O4 0.204799 0.668392 0.644294
O O5 0.866519 0.292880 0.206514
O O6 0.922716 0.191211 0.168863
O O7 0.887660 0.254552 0.000000
O O8 0.891431 0.611160 0.317167
O O9 0.809545 0.609386 0.175271
O O10 0.935789 0.430483 0.500000
O O11 0.926063 0.500000 0.669625
O O12 0.000000 0.417609 0.671051
O O13 0.561222 0.623515 0.500000
O O14 0.500000 0.607870 0.324668
O O15 0.609018 0.583705 0.318069
O O16 0.598787 0.591852 0.892382
O O17 0.562483 0.500000 0.000000
O O18 0.500000 0.591320 0.000000
O O19 0.354665 0.500000 0.812450
O O20 0.297270 0.591602 0.811298
O O21 0.253229 0.928911 0.500000
O O22 0.268999 0.000000 0.334384
#
# Coordination Sequence:
#
# PCOD9520083 Si02
#       8
#    16  16  16  16  16   8  16  16
#     4   9  18  32  51  77 107 138 177 226 275 327
#     4   9  19  35  51  72 105 143 180 223 275 328
#     4  11  19  31  57  84 103 139 187 228 269 331
#     4   9  19  36  56  79 109 142 176 221 278 336
#     4  10  21  36  53  73 103 143 186 233 281 326
#     4   9  16  28  50  76 100 134 179 219 254 308
#     4  10  19  34  54  78 107 142 180 222 272 328
#     4  10  20  34  52  80 117 147 175 221 281 339
#
# _framework density 18.353760000000001
#
# number of rings (size 3 to 8) (size 9 to 14) (size 15 to 20)
#    0.000    2.333    0.667    2.800    0.000    2.133 
#    0.000    1.333    2.933    2.800    0.000    4.667 
#    0.000    0.000    0.000    0.000    0.000    0.000 
#
# Total GULP energy -334079.792417 kJ/mol
# GULP energy per Si atom -5567.996540 kJ/mol
# Density = 1.831199 g / cm^3
# Si number density = 18.353760 Si / 1000 Ang^3
#
#
#
# Elastic Constant Matrix: (Units=GPa)
#
#
# Indices 1 2 3 4 5 6 
#
# 1 84.4980 17.7696 14.2817 0.0000 0.0000 0.0000
# 2 17.7696 14.7258 6.9592 0.0000 0.0000 0.0000
# 3 14.2817 6.9592 49.8577 0.0000 0.0000 0.0000
# 4 0.0000 0.0000 0.0000 20.8596 0.0000 0.0000
# 5 0.0000 0.0000 0.0000 0.0000 28.7749 0.0000
# 6 0.0000 0.0000 0.0000 0.0000 0.0000 29.5481
#
#
#
# Elastic Compliance Matrix: (Units=1/GPa)
#
#
# Indices 1 2 3 4 5 6 
#
# 1 0.016048 -0.018407 -0.002028 0.000000 0.000000 0.000000
# 2 -0.018407 0.093817 -0.007822 0.000000 0.000000 0.000000
# 3 -0.002028 -0.007822 0.021730 0.000000 0.000000 0.000000
# 4 0.000000 0.000000 0.000000 0.047940 0.000000 0.000000
# 5 0.000000 0.000000 0.000000 0.000000 0.034752 0.000000
# 6 0.000000 0.000000 0.000000 0.000000 0.000000 0.033843
#
#
# Mechanical properties :
#
#
# Convention : Reuss Voigt Hill
#
# Bulk Modulus (GPa) = 13.31910 25.23363 19.27636
# Shear Modulus (GPa) = 15.16663 23.17458 19.17061
#
# Velocity S-wave (km/s) = 2.87775 3.55725 3.23539
# Velocity P-wave (km/s) = 4.27955 5.53628 4.94797
#
# Compressibility (1/GPa) = 0.07508013
#
# Stress axis : x y z
#
# Youngs Moduli (GPa) = 62.31190 10.65910 46.01979
#
# Poissons Ratio (x) = 0.19620 0.09331
# Poissons Ratio (y) = 1.14699 0.35998
# Poissons Ratio (z) = 0.12635 0.08338
#
# Static dielectric constant tensor:
#      x y z
#    x 1.629820 0.000000 0.000000 
#    y 0.000000 1.644050 0.000000 
#    z 0.000000 0.000000 1.654120 
# 
# From -- ./inp_files/26302.got.cif
#   From: 2010.05.17/outbox.cif.g08.bks.cpg/sg71_14_cif.got.tgz:26302.got - 2010.06.03 16:22:01.
