data_PCOD9520470
_publ_section_title
;
Structure prediction by ZEFSAII (Michael W. Deem and Ramdas Pophale) SiO2 
 PCOD9520470
Probable space group: I M M M
;
_chemical_formula_sum "Si O2"
_cell_formula_units_Z 88
_cell_length_a 28.804188
_cell_length_b 17.887239
_cell_length_c 9.264463
_cell_angle_alpha 90.000000
_cell_angle_beta 90.000000
_cell_angle_gamma 90.000000
_cell_volume 4773.305137
_symmetry_space_group_name_H-M "I M M M"
_symmetry_group_IT_number 71
_symmetry_cell_setting 'orthorhombic'
loop_
_space_group_symop_operation_xyz
x,y,z
-x,-y,z
x,-y,-z
-x,y,-z
-x,-y,-z
x,y,-z
-x,y,z
x,-y,z
1/2+x,1/2+y,1/2+z
1/2-x,1/2-y,1/2+z
1/2+x,1/2-y,1/2-z
1/2-x,1/2+y,1/2-z
1/2-x,1/2-y,1/2-z
1/2+x,1/2+y,1/2-z
1/2-x,1/2+y,1/2+z
1/2+x,1/2-y,1/2+z
loop_
_atom_site_type_symbol
_atom_site_label
_atom_site_fract_x
_atom_site_fract_y
_atom_site_fract_z
Si Si1 0.075430 0.692166 0.173329
Si Si2 0.175926 0.742864 0.837169
Si Si3 0.614295 0.500000 0.324048
Si Si4 0.221778 0.000000 0.170955
Si Si5 0.768734 0.856425 0.662424
Si Si6 0.551887 0.362845 0.675162
Si Si7 0.000000 0.410744 0.673751
O O1 0.130919 0.693655 0.200028
O O2 0.060731 0.776790 0.215729
O O3 0.044667 0.631618 0.257255
O O4 0.067738 0.683166 0.000000
O O5 0.188636 0.809767 0.729979
O O6 0.222758 0.694579 0.841562
O O7 0.167186 0.773390 0.000000
O O8 0.612672 0.500000 0.500000
O O9 0.667798 0.500000 0.283497
O O10 0.588264 0.575130 0.274582
O O11 0.242775 0.074259 0.236996
O O12 0.224818 0.000000 0.000000
O O13 0.779483 0.880279 0.500000
O O14 0.553475 0.363308 0.500000
O O15 0.500000 0.384832 0.719114
O O16 0.000000 0.500000 0.705855
O O17 0.000000 0.402128 0.500000
#
# Coordination Sequence:
#
# PCOD9520470 Si02
#       7
#    16  16   8   8  16  16   8
#     4  10  19  36  61  86 109 141 187 232 275 334
#     4   9  19  36  59  85 111 142 183 231 278 336
#     4   9  17  27  44  75 113 147 178 219 262 301
#     4  11  21  34  51  74 108 151 193 233 274 323
#     4  10  20  35  55  81 115 149 184 230 284 337
#     4   9  15  25  46  78 110 136 171 218 264 306
#     4  11  25  43  59  80 113 144 178 233 297 355
#
# _framework density 18.435862
#
# number of rings (size 3 to 8) (size 9 to 14) (size 15 to 20)
#    0.000    2.273    0.909    2.455    0.000    6.182 
#    1.636    0.000    0.000    0.000    0.000    0.636 
#    0.000    0.000    0.000    0.000    0.000    0.000 
#
# Total GULP energy -245350.132691 kJ/mol
# GULP energy per Si atom -5576.139379 kJ/mol
# Density = 1.839390 g / cm^3
# Si number density = 18.435862 Si / 1000 Ang^3
#
#
#
# Elastic Constant Matrix: (Units=GPa)
#
#
# Indices 1 2 3 4 5 6 
#
# 1 65.5680 6.9506 24.0370 0.0000 0.0000 0.0000
# 2 6.9506 82.2706 36.4148 0.0000 0.0000 0.0000
# 3 24.0370 36.4148 71.2930 0.0000 0.0000 0.0000
# 4 0.0000 0.0000 0.0000 26.0284 0.0000 0.0000
# 5 0.0000 0.0000 0.0000 0.0000 17.8174 0.0000
# 6 0.0000 0.0000 0.0000 0.0000 0.0000 16.8324
#
#
#
# Elastic Compliance Matrix: (Units=1/GPa)
#
#
# Indices 1 2 3 4 5 6 
#
# 1 0.017538 0.001467 -0.006663 0.000000 0.000000 0.000000
# 2 0.001467 0.015829 -0.008580 0.000000 0.000000 0.000000
# 3 -0.006663 -0.008580 0.020655 0.000000 0.000000 0.000000
# 4 0.000000 0.000000 0.000000 0.038420 0.000000 0.000000
# 5 0.000000 0.000000 0.000000 0.000000 0.056125 0.000000
# 6 0.000000 0.000000 0.000000 0.000000 0.000000 0.059409
#
#
# Mechanical properties :
#
#
# Convention : Reuss Voigt Hill
#
# Bulk Modulus (GPa) = 37.77534 39.32625 38.55080
# Shear Modulus (GPa) = 20.46249 22.25093 21.35671
#
# Velocity S-wave (km/s) = 3.33517 3.47787 3.40727
# Velocity P-wave (km/s) = 5.94692 6.12414 6.03618
#
# Compressibility (1/GPa) = 0.02647229
#
# Stress axis : x y z
#
# Youngs Moduli (GPa) = 57.01803 63.17697 48.41393
#
# Poissons Ratio (x) = -0.09270 0.32256
# Poissons Ratio (y) = -0.08366 0.41537
# Poissons Ratio (z) = 0.37989 0.54203
#
# Static dielectric constant tensor:
#      x y z
#    x 1.654380 0.000000 0.000000 
#    y 0.000000 1.632940 0.000000 
#    z 0.000000 0.000000 1.623670 
# 
# From -- ./inp_files/16760.got.cif
#   From: 2010.05.17/outbox.cif.g08.bks.cpg/sg71_9_cif.got.tgz:16760.got - 2010.06.03 16:22:01.
