data_PCOD9520838
_publ_section_title
;
Structure prediction by ZEFSAII (Michael W. Deem and Ramdas Pophale) SiO2 
 PCOD9520838
Probable space group: I M M M
;
_chemical_formula_sum "Si O2"
_cell_formula_units_Z 104
_cell_length_a 17.486924
_cell_length_b 9.854434
_cell_length_c 35.353094
_cell_angle_alpha 90.000000
_cell_angle_beta 90.000000
_cell_angle_gamma 90.000000
_cell_volume 6092.177323
_symmetry_space_group_name_H-M "I M M M"
_symmetry_group_IT_number 71
_symmetry_cell_setting 'orthorhombic'
loop_
_space_group_symop_operation_xyz
x,y,z
-x,-y,z
x,-y,-z
-x,y,-z
-x,-y,-z
x,y,-z
-x,y,z
x,-y,z
1/2+x,1/2+y,1/2+z
1/2-x,1/2-y,1/2+z
1/2+x,1/2-y,1/2-z
1/2-x,1/2+y,1/2-z
1/2-x,1/2-y,1/2-z
1/2+x,1/2+y,1/2-z
1/2-x,1/2+y,1/2+z
1/2+x,1/2-y,1/2+z
loop_
_atom_site_type_symbol
_atom_site_label
_atom_site_fract_x
_atom_site_fract_y
_atom_site_fract_z
Si Si1 0.000000 0.164594 0.043606
Si Si2 0.911422 0.843645 0.545224
Si Si3 0.909684 0.346546 0.172340
Si Si4 0.673894 0.161723 0.751530
Si Si5 0.187178 0.337655 0.401128
Si Si6 0.632819 0.337461 0.398041
Si Si7 0.912337 0.664480 0.671668
O O1 0.924500 0.203453 0.067831
O O2 0.000000 0.000000 0.042051
O O3 0.000000 0.213118 0.000000
O O4 0.904809 0.832314 0.500000
O O5 0.857072 0.740439 0.566234
O O6 0.000000 0.816797 0.555228
O O7 0.894261 0.000000 0.555492
O O8 0.887661 0.500000 0.160313
O O9 0.869263 0.317784 0.212001
O O10 0.890651 0.240513 0.139785
O O11 0.000000 0.345258 0.178844
O O12 0.750000 0.250000 0.750000
O O13 0.621865 0.202050 0.787477
O O14 0.690377 0.000000 0.755363
O O15 0.177721 0.500000 0.404628
O O16 0.277422 0.308891 0.403846
O O17 0.146470 0.295495 0.361604
O O18 0.624399 0.500000 0.393169
O O19 0.915330 0.500000 0.670995
O O20 0.000000 0.712719 0.666097
#
# Coordination Sequence:
#
# PCOD9520838 Si02
#       7
#     8  16  16  16  16  16  16
#     4   9  18  34  55  77 105 143 181 219 269 331
#     4   9  19  36  55  75 103 140 177 211 257 320
#     4  10  20  34  54  78 104 137 179 223 266 315
#     4  10  20  34  52  75 103 137 176 218 264 314
#     4  10  20  32  52  81 107 134 175 225 271 314
#     4  10  20  35  55  80 107 139 178 221 272 328
#     4   9  17  31  50  72 102 138 174 212 260 318
#
# _framework density 17.071071
#
# number of rings (size 3 to 8) (size 9 to 14) (size 15 to 20)
#    0.000    2.385    0.769    2.308    0.000    6.154 
#    0.000    3.077    0.000    3.231    0.000    0.000 
#    0.000    0.000    0.000    0.000    0.000    0.000 
#
# Total GULP energy -289904.307850 kJ/mol
# GULP energy per Si atom -5575.082843 kJ/mol
# Density = 1.703222 g / cm^3
# Si number density = 17.071071 Si / 1000 Ang^3
#
#
#
# Elastic Constant Matrix: (Units=GPa)
#
#
# Indices 1 2 3 4 5 6 
#
# 1 145.0777 53.5350 84.3991 0.0000 0.0000 0.0000
# 2 53.5350 28.3315 44.0741 0.0000 0.0000 0.0000
# 3 84.3991 44.0741 99.9826 0.0000 0.0000 0.0000
# 4 0.0000 0.0000 0.0000 -188.6359 0.0000 0.0000
# 5 0.0000 0.0000 0.0000 0.0000 14.3073 0.0000
# 6 0.0000 0.0000 0.0000 0.0000 0.0000 23.5752
#
#
#
# Elastic Compliance Matrix: (Units=1/GPa)
#
#
# Indices 1 2 3 4 5 6 
#
# 1 0.022790 -0.041804 -0.000810 0.000000 0.000000 0.000000
# 2 -0.041804 0.189004 -0.048028 0.000000 0.000000 0.000000
# 3 -0.000810 -0.048028 0.031857 0.000000 0.000000 0.000000
# 4 0.000000 0.000000 0.000000 -0.005301 0.000000 0.000000
# 5 0.000000 0.000000 0.000000 0.000000 0.069894 0.000000
# 6 0.000000 0.000000 0.000000 0.000000 0.000000 0.042418
#
#
# Mechanical properties :
#
#
# Convention : Reuss Voigt Hill
#
# Bulk Modulus (GPa) = 16.03408 70.82313 43.42861
# Shear Modulus (GPa) = 9.04592 -24.05846 -7.50627
#
# Velocity S-wave (km/s) = 2.30445 -3.75815 -2.09919
# Velocity P-wave (km/s) = 4.06123 4.76924 4.42940
#
# Compressibility (1/GPa) = 0.06236716
#
# Stress axis : x y z
#
# Youngs Moduli (GPa) = 43.87869 5.29090 31.38988
#
# Poissons Ratio (x) = 0.22118 0.02543
# Poissons Ratio (y) = 1.83429 1.50760
# Poissons Ratio (z) = 0.03555 0.25411
#
# Static dielectric constant tensor:
#      x y z
#    x 1.531120 0.000000 0.000000 
#    y 0.000000 1.562370 0.000000 
#    z 0.000000 0.000000 1.562720 
# 
# From -- ./inp_files/69945.got.cif
#   From: 2010.05.17/outbox.cif.g08.bks.cpg/sg71_35_cif.got.tgz:69945.got - 2010.06.03 16:22:01.
