data_PCOD9520797
_publ_section_title
;
Structure prediction by ZEFSAII (Michael W. Deem and Ramdas Pophale) SiO2 
 PCOD9520797
Probable space group: I M M M
;
_chemical_formula_sum "Si O2"
_cell_formula_units_Z 64
_cell_length_a 7.644915
_cell_length_b 41.897603
_cell_length_c 9.936957
_cell_angle_alpha 90.000000
_cell_angle_beta 90.000000
_cell_angle_gamma 90.000000
_cell_volume 3182.843236
_symmetry_space_group_name_H-M "I M M M"
_symmetry_group_IT_number 71
_symmetry_cell_setting 'orthorhombic'
loop_
_space_group_symop_operation_xyz
x,y,z
-x,-y,z
x,-y,-z
-x,y,-z
-x,-y,-z
x,y,-z
-x,y,z
x,-y,z
1/2+x,1/2+y,1/2+z
1/2-x,1/2-y,1/2+z
1/2+x,1/2-y,1/2-z
1/2-x,1/2+y,1/2-z
1/2-x,1/2-y,1/2-z
1/2+x,1/2+y,1/2-z
1/2-x,1/2+y,1/2+z
1/2+x,1/2-y,1/2+z
loop_
_atom_site_type_symbol
_atom_site_label
_atom_site_fract_x
_atom_site_fract_y
_atom_site_fract_z
Si Si1 0.709591 0.778750 0.348750
Si Si2 0.289070 0.463552 0.151174
Si Si3 0.286190 0.149671 0.655178
Si Si4 0.791621 0.593601 0.652141
O O1 0.775550 0.772392 0.500000
O O2 0.500000 0.780836 0.355847
O O3 0.750000 0.750000 0.250000
O O4 0.769889 0.814293 0.307958
O O5 0.500000 0.463943 0.148686
O O6 0.230436 0.500000 0.175956
O O7 0.235070 0.438755 0.264366
O O8 0.229584 0.454097 0.000000
O O9 0.234030 0.143434 0.500000
O O10 0.500000 0.148975 0.656341
O O11 0.222080 0.122884 0.757877
O O12 0.721378 0.592263 0.500000
O O13 0.000000 0.598394 0.642020
#
# Coordination Sequence:
#
# PCOD9520797 Si02
#       4
#    16  16  16  16
#     4   9  18  32  50  73  99 127 162 202 242 287
#     4   9  19  36  55  73  95 127 166 202 237 283
#     4   8  15  30  50  69  93 128 166 201 238 282
#     4  10  20  32  49  76 104 127 157 199 244 289
#
# _framework density 20.107809
#
# number of rings (size 3 to 8) (size 9 to 14) (size 15 to 20)
#    0.000    3.000    0.000    3.000    0.000    4.500 
#    0.000    7.500    0.000    1.500    0.000    0.000 
#    0.000    0.000    0.000    0.000    0.000    0.000 
#
# Total GULP energy -178489.420122 kJ/mol
# GULP energy per Si atom -5577.794379 kJ/mol
# Density = 2.006204 g / cm^3
# Si number density = 20.107809 Si / 1000 Ang^3
#
#
#
# Elastic Constant Matrix: (Units=GPa)
#
#
# Indices 1 2 3 4 5 6 
#
# 1 35.0601 2.2358 6.2219 0.0000 0.0000 0.0000
# 2 2.2358 170.5740 145.3418 -0.0002 0.0000 0.0000
# 3 6.2219 145.3418 183.5432 -0.0011 0.0002 -0.0004
# 4 0.0000 -0.0002 -0.0011 33.0948 -0.0002 0.0000
# 5 0.0000 0.0000 0.0002 -0.0002 17.0859 0.0000
# 6 0.0000 0.0000 -0.0004 0.0000 0.0000 20.6754
#
#
#
# Elastic Compliance Matrix: (Units=1/GPa)
#
#
# Indices 1 2 3 4 5 6 
#
# 1 0.028803 0.001397 -0.002083 0.000000 0.000000 0.000000
# 2 0.001397 0.018091 -0.014373 0.000000 0.000000 0.000000
# 3 -0.002083 -0.014373 0.016901 0.000000 0.000000 0.000000
# 4 0.000000 0.000000 0.000000 0.030216 0.000000 0.000000
# 5 0.000000 0.000000 0.000000 0.000000 0.058528 0.000000
# 6 0.000000 0.000000 0.000000 0.000000 0.000000 0.048367
#
#
# Mechanical properties :
#
#
# Convention : Reuss Voigt Hill
#
# Bulk Modulus (GPa) = 29.69374 77.41959 53.55666
# Shear Modulus (GPa) = 20.63988 29.86307 25.25148
#
# Velocity S-wave (km/s) = 3.20732 3.85794 3.54758
# Velocity P-wave (km/s) = 5.33996 7.64400 6.59341
#
# Compressibility (1/GPa) = 0.03367714
#
# Stress axis : x y z
#
# Youngs Moduli (GPa) = 34.71865 55.27474 59.16908
#
# Poissons Ratio (x) = -0.07722 0.12323
# Poissons Ratio (y) = -0.04850 0.85046
# Poissons Ratio (z) = 0.07231 0.79448
#
# Static dielectric constant tensor:
#      x y z
#    x 1.732420 0.000000 0.000000 
#    y 0.000000 1.697460 0.000000 
#    z 0.000000 0.000000 1.704940 
# 
# From -- ./inp_files/3694.got.cif
#   From: 2010.05.17/outbox.cif.g08.bks.cpg/sg71_2_cif.got.tgz:3694.got - 2010.06.03 16:22:01.
