data_PCOD9520375
_publ_section_title
;
Structure prediction by ZEFSAII (Michael W. Deem and Ramdas Pophale) SiO2 
 PCOD9520375
Probable space group: I M M M
;
_chemical_formula_sum "Si O2"
_cell_formula_units_Z 104
_cell_length_a 28.548262
_cell_length_b 22.712355
_cell_length_c 7.628696
_cell_angle_alpha 90.000000
_cell_angle_beta 90.000000
_cell_angle_gamma 90.000000
_cell_volume 4946.433221
_symmetry_space_group_name_H-M "I M M M"
_symmetry_group_IT_number 71
_symmetry_cell_setting 'orthorhombic'
loop_
_space_group_symop_operation_xyz
x,y,z
-x,-y,z
x,-y,-z
-x,y,-z
-x,-y,-z
x,y,-z
-x,y,z
x,-y,z
1/2+x,1/2+y,1/2+z
1/2-x,1/2-y,1/2+z
1/2+x,1/2-y,1/2-z
1/2-x,1/2+y,1/2-z
1/2-x,1/2-y,1/2-z
1/2+x,1/2+y,1/2-z
1/2-x,1/2+y,1/2+z
1/2+x,1/2-y,1/2+z
loop_
_atom_site_type_symbol
_atom_site_label
_atom_site_fract_x
_atom_site_fract_y
_atom_site_fract_z
Si Si1 0.000000 0.568494 0.714752
Si Si2 0.947187 0.201361 0.285230
Si Si3 0.816125 0.000000 0.792354
Si Si4 0.640810 0.373504 0.789898
Si Si5 0.765244 0.184545 0.289895
Si Si6 0.173264 0.375258 0.795778
Si Si7 0.292904 0.000000 0.211037
Si Si8 0.427257 0.833954 0.797429
O O1 0.044014 0.609509 0.772260
O O2 0.000000 0.500000 0.774457
O O3 0.000000 0.564933 0.500000
O O4 0.945595 0.202171 0.500000
O O5 0.907652 0.155065 0.224940
O O6 0.937306 0.268698 0.224090
O O7 0.000000 0.185077 0.234358
O O8 0.844690 0.941097 0.743514
O O9 0.761822 0.000000 0.723863
O O10 0.811558 0.000000 0.000000
O O11 0.684429 0.334776 0.721130
O O12 0.639030 0.367482 0.000000
O O13 0.767292 0.176213 0.500000
O O14 0.750000 0.250000 0.250000
O O15 0.722602 0.146186 0.218754
O O16 0.178000 0.444405 0.775938
O O17 0.127575 0.347731 0.711272
O O18 0.171068 0.358621 0.000000
O O19 0.291900 0.000000 0.000000
O O20 0.441837 0.829912 0.000000
#
# Coordination Sequence:
#
# PCOD9520375 Si02
#       8
#     8  16   8  16  16  16   8  16
#     4   9  18  32  53  83 115 150 194 243 283 328
#     4   9  17  33  59  89 114 146 199 253 292 332
#     4  11  23  39  60  86 114 147 192 240 295 361
#     4  10  20  36  59  83 113 153 193 238 297 355
#     4  10  21  35  53  80 113 149 185 224 276 336
#     4  11  23  37  54  81 117 149 180 226 281 338
#     4  11  23  39  59  81 107 149 196 236 278 339
#     4  10  19  35  59  84 115 153 197 243 285 334
#
# _framework density 21.025251999999998
#
# number of rings (size 3 to 8) (size 9 to 14) (size 15 to 20)
#    0.000    1.923    2.308    1.846    1.077    3.692 
#    0.000    1.538    0.000    4.154    0.000    0.000 
#    0.000    0.000    0.000    0.000    0.000    0.000 
#
# Total GULP energy -290171.776904 kJ/mol
# GULP energy per Si atom -5580.226479 kJ/mol
# Density = 2.097740 g / cm^3
# Si number density = 21.025252 Si / 1000 Ang^3
#
#
#
# Elastic Constant Matrix: (Units=GPa)
#
#
# Indices 1 2 3 4 5 6 
#
# 1 173.1867 59.7723 10.8538 0.0000 0.0000 0.0000
# 2 59.7723 103.7573 -6.6591 0.0000 0.0000 0.0000
# 3 10.8538 -6.6591 42.6589 0.0000 0.0000 0.0000
# 4 0.0000 0.0000 0.0000 14.2219 0.0000 0.0000
# 5 0.0000 0.0000 0.0000 0.0000 16.2085 0.0000
# 6 0.0000 0.0000 0.0000 0.0000 0.0000 39.1206
#
#
#
# Elastic Compliance Matrix: (Units=1/GPa)
#
#
# Indices 1 2 3 4 5 6 
#
# 1 0.007483 -0.004478 -0.002603 0.000000 0.000000 0.000000
# 2 -0.004478 0.012415 0.003077 0.000000 0.000000 0.000000
# 3 -0.002603 0.003077 0.024584 0.000000 0.000000 0.000000
# 4 0.000000 0.000000 0.000000 0.070314 0.000000 0.000000
# 5 0.000000 0.000000 0.000000 0.000000 0.061696 0.000000
# 6 0.000000 0.000000 0.000000 0.000000 0.000000 0.025562
#
#
# Mechanical properties :
#
#
# Convention : Reuss Voigt Hill
#
# Bulk Modulus (GPa) = 27.41573 49.72634 38.57104
# Shear Modulus (GPa) = 22.50039 30.95261 26.72650
#
# Velocity S-wave (km/s) = 3.27488 3.84104 3.56920
# Velocity P-wave (km/s) = 5.23140 6.58586 5.94731
#
# Compressibility (1/GPa) = 0.03647540
#
# Stress axis : x y z
#
# Youngs Moduli (GPa) = 133.64337 80.54894 40.67630
#
# Poissons Ratio (x) = 0.36067 0.10587
# Poissons Ratio (y) = 0.59840 -0.12517
# Poissons Ratio (z) = 0.34784 -0.24787
#
# Static dielectric constant tensor:
#      x y z
#    x 1.750150 0.000000 0.000000 
#    y 0.000000 2.076840 0.000000 
#    z 0.000000 0.000000 1.797450 
# 
# From -- ./inp_files/17069.got.cif
#   From: 2010.05.17/outbox.cif.g08.bks.cpg/sg71_9_cif.got.tgz:17069.got - 2010.06.03 16:22:01.
