data_PCOD9520423
_publ_section_title
;
Structure prediction by ZEFSAII (Michael W. Deem and Ramdas Pophale) SiO2 
 PCOD9520423
Probable space group: I M M M
;
_chemical_formula_sum "Si O2"
_cell_formula_units_Z 84
_cell_length_a 20.129140
_cell_length_b 15.555456
_cell_length_c 15.316335
_cell_angle_alpha 90.000000
_cell_angle_beta 90.000000
_cell_angle_gamma 90.000000
_cell_volume 4795.819441
_symmetry_space_group_name_H-M "I M M M"
_symmetry_group_IT_number 71
_symmetry_cell_setting 'orthorhombic'
loop_
_space_group_symop_operation_xyz
x,y,z
-x,-y,z
x,-y,-z
-x,y,-z
-x,-y,-z
x,y,-z
-x,y,z
x,-y,z
1/2+x,1/2+y,1/2+z
1/2-x,1/2-y,1/2+z
1/2+x,1/2-y,1/2-z
1/2-x,1/2+y,1/2-z
1/2-x,1/2-y,1/2-z
1/2+x,1/2+y,1/2-z
1/2-x,1/2+y,1/2+z
1/2+x,1/2-y,1/2+z
loop_
_atom_site_type_symbol
_atom_site_label
_atom_site_fract_x
_atom_site_fract_y
_atom_site_fract_z
Si Si1 0.701923 0.367897 0.098948
Si Si2 0.679280 0.904353 0.730455
Si Si3 0.000000 0.748226 0.000000
Si Si4 0.742189 0.827846 0.098291
Si Si5 0.074213 0.095557 0.294828
Si Si6 0.111810 0.237042 0.847002
O O1 0.758800 0.400739 0.163540
O O2 0.705595 0.264385 0.102361
O O3 0.630777 0.396564 0.132996
O O4 0.715145 0.394626 0.000000
O O5 0.710442 0.884459 0.825387
O O6 0.631193 0.827376 0.699341
O O7 0.649624 0.000000 0.728159
O O8 0.941355 0.749847 0.076671
O O9 0.818970 0.803973 0.117870
O O10 0.736314 0.862839 0.000000
O O11 0.085305 0.169232 0.223701
O O12 0.000000 0.103277 0.331276
O O13 0.080108 0.000000 0.254071
#
# Coordination Sequence:
#
# PCOD9520423 Si02
#       6
#    16  16   4  16  16  16
#     4  10  20  36  57  83 116 153 193 245 301 355
#     4  11  22  37  60  88 120 158 201 254 305 354
#     4  12  24  40  70  84 126 174 206 250 308 364
#     4  10  19  35  62  89 115 150 201 253 305 360
#     4  11  22  36  57  82 115 155 194 239 298 362
#     4  11  21  40  57  86 121 161 201 244 299 369
#
# _framework density 17.515255
#
# number of rings (size 3 to 8) (size 9 to 14) (size 15 to 20)
#    0.000    1.333    5.714    1.714    1.333    2.286 
#    0.000    2.857    0.000    0.000    0.000    0.000 
#    0.000    4.571    0.000    0.000    0.000    0.000 
#
# Total GULP energy -233824.369076 kJ/mol
# GULP energy per Si atom -5567.246883 kJ/mol
# Density = 1.747539 g / cm^3
# Si number density = 17.515255 Si / 1000 Ang^3
#
#
#
# Elastic Constant Matrix: (Units=GPa)
#
#
# Indices 1 2 3 4 5 6 
#
# 1 84.5108 24.9330 17.2744 0.0000 0.0000 0.0000
# 2 24.9330 76.6168 29.6720 0.0000 0.0000 0.0000
# 3 17.2744 29.6720 106.2481 0.0000 0.0000 0.0000
# 4 0.0000 0.0000 0.0000 -3.8728 0.0000 0.0000
# 5 0.0000 0.0000 0.0000 0.0000 34.8864 0.0000
# 6 0.0000 0.0000 0.0000 0.0000 0.0000 14.2208
#
#
#
# Elastic Compliance Matrix: (Units=1/GPa)
#
#
# Indices 1 2 3 4 5 6 
#
# 1 0.013195 -0.003883 -0.001061 0.000000 0.000000 0.000000
# 2 -0.003883 0.015778 -0.003775 0.000000 0.000000 0.000000
# 3 -0.001061 -0.003775 0.010639 0.000000 0.000000 0.000000
# 4 0.000000 0.000000 0.000000 -0.258212 0.000000 0.000000
# 5 0.000000 0.000000 0.000000 0.000000 0.028664 0.000000
# 6 0.000000 0.000000 0.000000 0.000000 0.000000 0.070320
#
#
# Mechanical properties :
#
#
# Convention : Reuss Voigt Hill
#
# Bulk Modulus (GPa) = 45.09873 45.68160 45.39016
# Shear Modulus (GPa) = -52.74987 22.07997 -15.33495
#
# Velocity S-wave (km/s) = -5.49381 3.55436 -2.96213
# Velocity P-wave (km/s) = 3.79979 6.55609 3.77783
#
# Compressibility (1/GPa) = 0.02217357
#
# Stress axis : x y z
#
# Youngs Moduli (GPa) = 75.78444 63.38112 93.99709
#
# Poissons Ratio (x) = 0.24612 0.09972
# Poissons Ratio (y) = 0.29429 0.35483
# Poissons Ratio (z) = 0.08040 0.23925
#
# Static dielectric constant tensor:
#      x y z
#    x 1.577550 0.000000 0.000000 
#    y 0.000000 1.612390 0.000000 
#    z 0.000000 0.000000 1.589960 
# 
# From -- ./inp_files/34363.got.cif
#   From: 2010.05.17/outbox.cif.g08.bks.cpg/sg71_18_cif.got.tgz:34363.got - 2010.06.03 16:22:01.
