data_PCOD9520844
_publ_section_title
;
Structure prediction by ZEFSAII (Michael W. Deem and Ramdas Pophale) SiO2 
 PCOD9520844
Probable space group: I M M M
;
_chemical_formula_sum "Si O2"
_cell_formula_units_Z 96
_cell_length_a 13.355204
_cell_length_b 12.649272
_cell_length_c 27.784336
_cell_angle_alpha 90.000000
_cell_angle_beta 90.000000
_cell_angle_gamma 90.000000
_cell_volume 4693.708127
_symmetry_space_group_name_H-M "I M M M"
_symmetry_group_IT_number 71
_symmetry_cell_setting 'orthorhombic'
loop_
_space_group_symop_operation_xyz
x,y,z
-x,-y,z
x,-y,-z
-x,y,-z
-x,-y,-z
x,y,-z
-x,y,z
x,-y,z
1/2+x,1/2+y,1/2+z
1/2-x,1/2-y,1/2+z
1/2+x,1/2-y,1/2-z
1/2-x,1/2+y,1/2-z
1/2-x,1/2-y,1/2-z
1/2+x,1/2+y,1/2-z
1/2-x,1/2+y,1/2+z
1/2+x,1/2-y,1/2+z
loop_
_atom_site_type_symbol
_atom_site_label
_atom_site_fract_x
_atom_site_fract_y
_atom_site_fract_z
Si Si1 0.674527 0.232931 0.444285
Si Si2 0.000000 0.880518 0.058987
Si Si3 0.380956 0.734579 0.301063
Si Si4 0.881623 0.382642 0.710743
Si Si5 0.620500 0.500000 0.739272
Si Si6 0.688894 0.000000 0.443607
Si Si7 0.189695 0.226099 0.636201
Si Si8 0.166278 0.000000 0.348041
O O1 0.686030 0.256743 0.500000
O O2 0.597012 0.317548 0.424069
O O3 0.634204 0.112530 0.440568
O O4 0.781481 0.237148 0.418972
O O5 0.000000 0.000000 0.075878
O O6 0.000000 0.879871 0.000000
O O7 0.500000 0.749055 0.312291
O O8 0.356193 0.800395 0.252743
O O9 0.364048 0.609880 0.289826
O O10 0.300921 0.780661 0.338998
O O11 0.838113 0.500000 0.715620
O O12 0.856601 0.327788 0.660588
O O13 0.000000 0.392497 0.714108
O O14 0.500000 0.500000 0.752135
O O15 0.680799 0.500000 0.789964
O O16 0.731863 0.000000 0.500000
O O17 0.757031 0.000000 0.394618
O O18 0.126527 0.119911 0.645655
#
# Coordination Sequence:
#
# PCOD9520844 Si02
#       8
#    16   8  16  16   8   8  16   8
#     4   9  19  35  54  78 106 139 177 220 269 317
#     4   9  18  33  51  71 101 140 179 217 259 313
#     4  10  22  36  52  79 112 143 179 220 263 316
#     4  10  22  38  56  79 108 142 178 217 266 320
#     4  10  20  36  54  77 107 138 176 224 268 321
#     4   8  16  33  52  77 106 132 175 225 267 312
#     4  11  22  34  57  80 107 143 179 222 267 315
#     4  10  20  32  54  81 100 141 184 215 263 320
#
# _framework density 20.452912000000001
#
# number of rings (size 3 to 8) (size 9 to 14) (size 15 to 20)
#    0.000    2.250    1.667    0.500    3.500    1.000 
#    0.000    1.667    0.000    0.750    0.000    5.833 
#    0.000    0.000    0.000    0.000    0.000    0.000 
#
# Total GULP energy -267235.177046 kJ/mol
# GULP energy per Si atom -5567.399522 kJ/mol
# Density = 2.040636 g / cm^3
# Si number density = 20.452912 Si / 1000 Ang^3
#
#
#
# Elastic Constant Matrix: (Units=GPa)
#
#
# Indices 1 2 3 4 5 6 
#
# 1 41.9874 22.7116 11.1547 0.0000 0.0000 0.0000
# 2 22.7116 143.5175 26.0007 0.0000 0.0000 0.0000
# 3 11.1547 26.0007 46.6739 0.0000 0.0000 0.0000
# 4 0.0000 0.0000 0.0000 20.9174 0.0000 0.0000
# 5 0.0000 0.0000 0.0000 0.0000 18.3326 0.0000
# 6 0.0000 0.0000 0.0000 0.0000 0.0000 21.1302
#
#
#
# Elastic Compliance Matrix: (Units=1/GPa)
#
#
# Indices 1 2 3 4 5 6 
#
# 1 0.026873 -0.003436 -0.004508 0.000000 0.000000 0.000000
# 2 -0.003436 0.008189 -0.003741 0.000000 0.000000 0.000000
# 3 -0.004508 -0.003741 0.024587 0.000000 0.000000 0.000000
# 4 0.000000 0.000000 0.000000 0.047807 0.000000 0.000000
# 5 0.000000 0.000000 0.000000 0.000000 0.054548 0.000000
# 6 0.000000 0.000000 0.000000 0.000000 0.000000 0.047326
#
#
# Mechanical properties :
#
#
# Convention : Reuss Voigt Hill
#
# Bulk Modulus (GPa) = 27.56447 39.10143 33.33295
# Shear Modulus (GPa) = 20.42550 23.56350 21.99450
#
# Velocity S-wave (km/s) = 3.16359 3.39792 3.28284
# Velocity P-wave (km/s) = 5.18176 5.87825 5.54096
#
# Compressibility (1/GPa) = 0.03627858
#
# Stress axis : x y z
#
# Youngs Moduli (GPa) = 37.21223 122.11159 40.67252
#
# Poissons Ratio (x) = 0.41956 0.18337
# Poissons Ratio (y) = 0.12786 0.15215
# Poissons Ratio (z) = 0.16777 0.45680
#
# Static dielectric constant tensor:
#      x y z
#    x 1.786940 0.000000 0.000000 
#    y 0.000000 1.757350 0.000000 
#    z 0.000000 0.000000 1.755260 
# 
# From -- ./inp_files/69935.got.cif
#   From: 2010.05.17/outbox.cif.g08.bks.cpg/sg71_35_cif.got.tgz:69935.got - 2010.06.03 16:22:01.
