data_PCOD9520114
_publ_section_title
;
Structure prediction by ZEFSAII (Michael W. Deem and Ramdas Pophale) SiO2 
 PCOD9520114
Probable space group: I M M M
;
_chemical_formula_sum "Si O2"
_cell_formula_units_Z 96
_cell_length_a 17.328163
_cell_length_b 24.972253
_cell_length_c 12.343847
_cell_angle_alpha 90.000000
_cell_angle_beta 90.000000
_cell_angle_gamma 90.000000
_cell_volume 5341.469844
_symmetry_space_group_name_H-M "I M M M"
_symmetry_group_IT_number 71
_symmetry_cell_setting 'orthorhombic'
loop_
_space_group_symop_operation_xyz
x,y,z
-x,-y,z
x,-y,-z
-x,y,-z
-x,-y,-z
x,y,-z
-x,y,z
x,-y,z
1/2+x,1/2+y,1/2+z
1/2-x,1/2-y,1/2+z
1/2+x,1/2-y,1/2-z
1/2-x,1/2+y,1/2-z
1/2-x,1/2-y,1/2-z
1/2+x,1/2+y,1/2-z
1/2-x,1/2+y,1/2+z
1/2+x,1/2-y,1/2+z
loop_
_atom_site_type_symbol
_atom_site_label
_atom_site_fract_x
_atom_site_fract_y
_atom_site_fract_z
Si Si1 0.806853 0.342342 0.874533
Si Si2 0.122261 0.825353 0.625243
Si Si3 0.211804 0.440105 0.264604
Si Si4 0.590879 0.349385 0.500000
Si Si5 0.870815 0.057976 0.370837
Si Si6 0.912438 0.241099 0.825514
Si Si7 0.778387 0.937295 0.000000
O O1 0.715439 0.329704 0.861796
O O2 0.829364 0.391055 0.795372
O O3 0.854986 0.289275 0.849296
O O4 0.818386 0.357801 0.000000
O O5 0.104964 0.814864 0.500000
O O6 0.090792 0.884969 0.653943
O O7 0.092502 0.779674 0.703333
O O8 0.177009 0.500000 0.256740
O O9 0.293556 0.443154 0.200597
O O10 0.230275 0.428032 0.389967
O O11 0.500000 0.363644 0.500000
O O12 0.606997 0.310974 0.397704
O O13 0.646973 0.399705 0.500000
O O14 0.851962 0.060897 0.500000
O O15 0.909859 0.000000 0.353919
O O16 0.000000 0.256817 0.853485
O O17 0.800761 0.000000 0.000000
#
# Coordination Sequence:
#
# PCOD9520114 Si02
#       7
#    16  16  16   8  16  16   8
#     4  10  19  34  55  78 102 130 172 219 265 309
#     4   9  18  31  50  76 101 132 173 217 262 307
#     4   9  17  30  50  77 105 131 160 205 264 314
#     4  10  20  33  50  70  97 145 189 213 252 302
#     4   8  13  24  45  72 100 127 161 209 260 303
#     4  11  22  36  51  70 104 143 176 216 261 311
#     4  10  20  33  50  76 111 139 167 215 262 310
#
# _framework density 17.972581999999999
#
# number of rings (size 3 to 8) (size 9 to 14) (size 15 to 20)
#    0.000    2.500    0.833    4.000    0.000    1.500 
#    1.500    0.000    0.000    2.000    0.000    3.500 
#    0.000    2.000    0.000    3.667    0.000    0.000 
#
# Total GULP energy -267517.263669 kJ/mol
# GULP energy per Si atom -5573.276326 kJ/mol
# Density = 1.793168 g / cm^3
# Si number density = 17.972582 Si / 1000 Ang^3
#
#
#
# Elastic Constant Matrix: (Units=GPa)
#
#
# Indices 1 2 3 4 5 6 
#
# 1 42.7463 46.3479 19.9593 0.0000 0.0000 0.0000
# 2 46.3479 114.4246 54.1436 0.0000 0.0000 0.0000
# 3 19.9593 54.1436 79.5066 0.0000 0.0000 0.0000
# 4 0.0000 0.0000 0.0000 31.4139 0.0000 0.0000
# 5 0.0000 0.0000 0.0000 0.0000 -3.4529 0.0000
# 6 0.0000 0.0000 0.0000 0.0000 0.0000 -70.8099
#
#
#
# Elastic Compliance Matrix: (Units=1/GPa)
#
#
# Indices 1 2 3 4 5 6 
#
# 1 0.041840 -0.017672 0.001531 0.000000 0.000000 0.000000
# 2 -0.017672 0.020358 -0.009428 0.000000 0.000000 0.000000
# 3 0.001531 -0.009428 0.018613 0.000000 0.000000 0.000000
# 4 0.000000 0.000000 0.000000 0.031833 0.000000 0.000000
# 5 0.000000 0.000000 0.000000 0.000000 -0.289608 0.000000
# 6 0.000000 0.000000 0.000000 0.000000 0.000000 -0.014122
#
#
# Mechanical properties :
#
#
# Convention : Reuss Voigt Hill
#
# Bulk Modulus (GPa) = 33.69885 53.06434 43.38159
# Shear Modulus (GPa) = -38.44427 -0.82135 -19.63281
#
# Velocity S-wave (km/s) = -4.63001 -0.67675 -3.30870
# Velocity P-wave (km/s) = 3.12918 5.38318 3.09733
#
# Compressibility (1/GPa) = 0.02967460
#
# Stress axis : x y z
#
# Youngs Moduli (GPa) = 23.90085 49.12019 53.72475
#
# Poissons Ratio (x) = 0.86803 -0.08225
# Poissons Ratio (y) = 0.42236 0.50650
# Poissons Ratio (z) = -0.03659 0.46309
#
# Static dielectric constant tensor:
#      x y z
#    x 1.611170 0.000000 0.000000 
#    y 0.000000 1.640640 0.000000 
#    z 0.000000 0.000000 1.644990 
# 
# From -- ./inp_files/26170.got.cif
#   From: 2010.05.17/outbox.cif.g08.bks.cpg/sg71_14_cif.got.tgz:26170.got - 2010.06.03 16:22:01.
