data_PCOD9520456
_publ_section_title
;
Structure prediction by ZEFSAII (Michael W. Deem and Ramdas Pophale) SiO2 
 PCOD9520456
Probable space group: I M M M
;
_chemical_formula_sum "Si O2"
_cell_formula_units_Z 96
_cell_length_a 23.636755
_cell_length_b 22.488273
_cell_length_c 10.289326
_cell_angle_alpha 90.000000
_cell_angle_beta 90.000000
_cell_angle_gamma 90.000000
_cell_volume 5469.289170
_symmetry_space_group_name_H-M "I M M M"
_symmetry_group_IT_number 71
_symmetry_cell_setting 'orthorhombic'
loop_
_space_group_symop_operation_xyz
x,y,z
-x,-y,z
x,-y,-z
-x,y,-z
-x,-y,-z
x,y,-z
-x,y,z
x,-y,z
1/2+x,1/2+y,1/2+z
1/2-x,1/2-y,1/2+z
1/2+x,1/2-y,1/2-z
1/2-x,1/2+y,1/2-z
1/2-x,1/2-y,1/2-z
1/2+x,1/2+y,1/2-z
1/2-x,1/2+y,1/2+z
1/2+x,1/2-y,1/2+z
loop_
_atom_site_type_symbol
_atom_site_label
_atom_site_fract_x
_atom_site_fract_y
_atom_site_fract_z
Si Si1 0.565923 0.326207 0.857505
Si Si2 0.881187 0.399444 0.154087
Si Si3 0.866593 0.070769 0.258517
Si Si4 0.245704 0.570549 0.849305
Si Si5 0.431997 0.231367 0.646905
Si Si6 0.068262 0.500000 0.343967
Si Si7 0.064015 0.071534 0.000000
O O1 0.500000 0.340460 0.830113
O O2 0.601371 0.386426 0.856628
O O3 0.587097 0.279932 0.750576
O O4 0.568627 0.298133 0.000000
O O5 0.813681 0.398180 0.176688
O O6 0.906774 0.333910 0.168041
O O7 0.908589 0.443972 0.259449
O O8 0.889537 0.417897 0.000000
O O9 0.799907 0.084602 0.261699
O O10 0.899085 0.085454 0.125571
O O11 0.872232 0.000000 0.285403
O O12 0.234198 0.500000 0.836853
O O13 0.261886 0.581412 0.000000
O O14 0.418133 0.250486 0.500000
O O15 0.500000 0.226730 0.657215
O O16 0.084212 0.500000 0.500000
O O17 0.000000 0.500000 0.339883
O O18 0.000000 0.097032 0.000000
O O19 0.058133 0.000000 0.000000
#
# Coordination Sequence:
#
# PCOD9520456 Si02
#       7
#    16  16  16  16  16   8   8
#     4  10  21  35  53  78 108 143 181 225 281 337
#     4  10  19  36  59  83 108 146 195 235 273 331
#     4  10  20  34  53  80 110 143 181 226 276 336
#     4   9  17  32  54  79 109 143 181 228 279 326
#     4   9  19  35  56  79 105 141 184 232 282 332
#     4  11  23  35  51  85 123 151 179 230 295 338
#     4   9  18  32  50  76 108 142 178 223 275 325
#
# _framework density 17.552555000000002
#
# number of rings (size 3 to 8) (size 9 to 14) (size 15 to 20)
#    0.000    2.333    0.833    1.750    1.167    4.000 
#    1.500    3.333    0.000    0.000    0.000    0.000 
#    0.000    0.000    0.000    0.000    0.000    0.000 
#
# Total GULP energy -267447.239873 kJ/mol
# GULP energy per Si atom -5571.817497 kJ/mol
# Density = 1.751261 g / cm^3
# Si number density = 17.552555 Si / 1000 Ang^3
#
#
#
# Elastic Constant Matrix: (Units=GPa)
#
#
# Indices 1 2 3 4 5 6 
#
# 1 85.2382 35.8017 54.9262 0.0000 0.0000 0.0000
# 2 35.8017 72.1356 56.3696 0.0000 0.0000 0.0000
# 3 54.9262 56.3696 116.0297 0.0000 0.0000 0.0000
# 4 0.0000 0.0000 0.0000 15.8935 0.0000 0.0000
# 5 0.0000 0.0000 0.0000 0.0000 15.9824 0.0000
# 6 0.0000 0.0000 0.0000 0.0000 0.0000 13.5840
#
#
#
# Elastic Compliance Matrix: (Units=1/GPa)
#
#
# Indices 1 2 3 4 5 6 
#
# 1 0.017428 -0.003551 -0.006525 0.000000 0.000000 0.000000
# 2 -0.003551 0.023070 -0.009527 0.000000 0.000000 0.000000
# 3 -0.006525 -0.009527 0.016336 0.000000 0.000000 0.000000
# 4 0.000000 0.000000 0.000000 0.062919 0.000000 0.000000
# 5 0.000000 0.000000 0.000000 0.000000 0.062569 0.000000
# 6 0.000000 0.000000 0.000000 0.000000 0.000000 0.073616
#
#
# Mechanical properties :
#
#
# Convention : Reuss Voigt Hill
#
# Bulk Modulus (GPa) = 56.72804 63.06649 59.89727
# Shear Modulus (GPa) = 16.61030 17.51238 17.06134
#
# Velocity S-wave (km/s) = 3.07957 3.16208 3.12110
# Velocity P-wave (km/s) = 6.71074 7.02423 6.86927
#
# Compressibility (1/GPa) = 0.01762797
#
# Stress axis : x y z
#
# Youngs Moduli (GPa) = 57.37958 43.34679 61.21591
#
# Poissons Ratio (x) = 0.15391 0.39943
# Poissons Ratio (y) = 0.20374 0.58320
# Poissons Ratio (z) = 0.37440 0.41296
#
# Static dielectric constant tensor:
#      x y z
#    x 1.591440 0.000000 0.000000 
#    y 0.000000 1.585540 0.000000 
#    z 0.000000 0.000000 1.652600 
# 
# From -- ./inp_files/12921.got.cif
#   From: 2010.05.17/outbox.cif.g08.bks.cpg/sg71_7_cif.got.tgz:12921.got - 2010.06.03 16:22:01.
