data_PCOD9520260
_publ_section_title
;
Structure prediction by ZEFSAII (Michael W. Deem and Ramdas Pophale) SiO2 
 PCOD9520260
Probable space group: I M M M
;
_chemical_formula_sum "Si O2"
_cell_formula_units_Z 104
_cell_length_a 20.601467
_cell_length_b 18.639192
_cell_length_c 14.327020
_cell_angle_alpha 90.000000
_cell_angle_beta 90.000000
_cell_angle_gamma 90.000000
_cell_volume 5501.499731
_symmetry_space_group_name_H-M "I M M M"
_symmetry_group_IT_number 71
_symmetry_cell_setting 'orthorhombic'
loop_
_space_group_symop_operation_xyz
x,y,z
-x,-y,z
x,-y,-z
-x,y,-z
-x,-y,-z
x,y,-z
-x,y,z
x,-y,z
1/2+x,1/2+y,1/2+z
1/2-x,1/2-y,1/2+z
1/2+x,1/2-y,1/2-z
1/2-x,1/2+y,1/2-z
1/2-x,1/2-y,1/2-z
1/2+x,1/2+y,1/2-z
1/2-x,1/2+y,1/2+z
1/2+x,1/2-y,1/2+z
loop_
_atom_site_type_symbol
_atom_site_label
_atom_site_fract_x
_atom_site_fract_y
_atom_site_fract_z
Si Si1 0.750751 0.673476 0.389431
Si Si2 0.313138 0.582323 0.111598
Si Si3 0.611487 0.827638 0.786105
Si Si4 0.815372 0.673434 0.110068
Si Si5 0.427398 0.337756 0.218807
Si Si6 0.000000 0.414104 0.610563
Si Si7 0.126961 0.915752 0.889948
O O1 0.765212 0.675022 0.500000
O O2 0.817688 0.671030 0.334411
O O3 0.710670 0.746210 0.368093
O O4 0.701320 0.608376 0.370541
O O5 0.311393 0.500000 0.142506
O O6 0.245251 0.621567 0.130443
O O7 0.371993 0.623370 0.159489
O O8 0.322120 0.584389 0.000000
O O9 0.625637 0.845025 0.677915
O O10 0.583797 0.747054 0.789060
O O11 0.562669 0.879996 0.839173
O O12 0.830510 0.670094 0.000000
O O13 0.500000 0.355611 0.187118
O O14 0.417015 0.367036 0.323719
O O15 0.000000 0.500000 0.619000
O O16 0.000000 0.396009 0.500000
O O17 0.117406 0.000000 0.871409
O O18 0.115385 0.902577 0.000000
#
# Coordination Sequence:
#
# PCOD9520260 Si02
#       7
#    16  16  16  16  16   8  16
#     4  10  19  34  61  92 120 154 203 263 318 371
#     4  10  22  39  58  86 122 155 193 249 311 362
#     4  12  22  39  65  92 121 161 209 249 305 367
#     4  10  20  36  63  94 123 155 198 257 313 366
#     4  12  24  38  57  86 118 160 212 251 289 356
#     4  11  28  50  67  91 128 163 201 253 307 362
#     4  10  22  39  59  88 125 160 200 257 318 368
#
# _framework density 18.903935000000001
#
# number of rings (size 3 to 8) (size 9 to 14) (size 15 to 20)
#    0.000    1.308    3.846    2.308    0.000    3.692 
#    0.000    3.462    0.000    0.462    0.000    0.000 
#    0.000    0.000    0.000    0.000    0.000    0.000 
#
# Total GULP energy -290631.449964 kJ/mol
# GULP energy per Si atom -5589.066345 kJ/mol
# Density = 1.886091 g / cm^3
# Si number density = 18.903935 Si / 1000 Ang^3
#
#
#
# Elastic Constant Matrix: (Units=GPa)
#
#
# Indices 1 2 3 4 5 6 
#
# 1 66.5841 32.7372 43.2376 0.0000 0.0000 0.0000
# 2 32.7372 105.5618 37.4797 0.0000 0.0000 0.0000
# 3 43.2376 37.4797 70.6998 0.0000 0.0000 0.0000
# 4 0.0000 0.0000 0.0000 27.7846 0.0000 0.0000
# 5 0.0000 0.0000 0.0000 0.0000 21.9035 0.0000
# 6 0.0000 0.0000 0.0000 0.0000 0.0000 24.7634
#
#
#
# Elastic Compliance Matrix: (Units=1/GPa)
#
#
# Indices 1 2 3 4 5 6 
#
# 1 0.025630 -0.002936 -0.014118 0.000000 0.000000 0.000000
# 2 -0.002936 0.012006 -0.004569 0.000000 0.000000 0.000000
# 3 -0.014118 -0.004569 0.025201 0.000000 0.000000 0.000000
# 4 0.000000 0.000000 0.000000 0.035991 0.000000 0.000000
# 5 0.000000 0.000000 0.000000 0.000000 0.045655 0.000000
# 6 0.000000 0.000000 0.000000 0.000000 0.000000 0.040382
#
#
# Mechanical properties :
#
#
# Convention : Reuss Voigt Hill
#
# Bulk Modulus (GPa) = 51.04547 52.19500 51.62023
# Shear Modulus (GPa) = 21.30919 23.51638 22.41279
#
# Velocity S-wave (km/s) = 3.36108 3.53086 3.44701
# Velocity P-wave (km/s) = 6.49027 6.65531 6.57331
#
# Compressibility (1/GPa) = 0.01959038
#
# Stress axis : x y z
#
# Youngs Moduli (GPa) = 39.01698 83.29257 39.68156
#
# Poissons Ratio (x) = 0.24453 0.56022
# Poissons Ratio (y) = 0.11455 0.18131
# Poissons Ratio (z) = 0.55084 0.38058
#
# Static dielectric constant tensor:
#      x y z
#    x 1.630600 0.000000 0.000000 
#    y 0.000000 1.648160 0.000000 
#    z 0.000000 0.000000 1.691540 
# 
# From -- ./inp_files/38105.got.cif
#   From: 2010.05.17/outbox.cif.g08.bks.cpg/sg71_20_cif.got.tgz:38105.got - 2010.06.03 16:22:01.
