data_PCOD9520669
_publ_section_title
;
Structure prediction by ZEFSAII (Michael W. Deem and Ramdas Pophale) SiO2 
 PCOD9520669
Probable space group: I M M M
;
_chemical_formula_sum "Si O2"
_cell_formula_units_Z 104
_cell_length_a 8.872586
_cell_length_b 29.025829
_cell_length_c 24.937411
_cell_angle_alpha 90.000000
_cell_angle_beta 90.000000
_cell_angle_gamma 90.000000
_cell_volume 6422.235295
_symmetry_space_group_name_H-M "I M M M"
_symmetry_group_IT_number 71
_symmetry_cell_setting 'orthorhombic'
loop_
_space_group_symop_operation_xyz
x,y,z
-x,-y,z
x,-y,-z
-x,y,-z
-x,-y,-z
x,y,-z
-x,y,z
x,-y,z
1/2+x,1/2+y,1/2+z
1/2-x,1/2-y,1/2+z
1/2+x,1/2-y,1/2-z
1/2-x,1/2+y,1/2-z
1/2-x,1/2-y,1/2-z
1/2+x,1/2+y,1/2-z
1/2-x,1/2+y,1/2+z
1/2+x,1/2-y,1/2+z
loop_
_atom_site_type_symbol
_atom_site_label
_atom_site_fract_x
_atom_site_fract_y
_atom_site_fract_z
Si Si1 0.819067 0.088194 0.877208
Si Si2 0.819679 0.054091 0.237920
Si Si3 0.826456 0.270135 0.065062
Si Si4 0.680181 0.000000 0.063486
Si Si5 0.320855 0.174572 0.063382
Si Si6 0.818130 0.553067 0.851761
Si Si7 0.184116 0.627890 0.938266
O O1 0.774999 0.082271 0.814813
O O2 0.761055 0.135255 0.902994
O O3 0.000000 0.085564 0.880299
O O4 0.749748 0.045290 0.909494
O O5 0.741272 0.067396 0.293372
O O6 0.000000 0.057615 0.244419
O O7 0.784457 0.000000 0.227730
O O8 0.730762 0.225682 0.080480
O O9 0.769864 0.320916 0.080937
O O10 0.000000 0.264233 0.082677
O O11 0.828000 0.271661 0.000000
O O12 0.500000 0.000000 0.070814
O O13 0.711730 0.000000 0.000000
O O14 0.500000 0.169750 0.068516
O O15 0.282507 0.169247 0.000000
O O16 0.769844 0.500000 0.861212
O O17 0.767083 0.587751 0.898238
O O18 0.000000 0.553561 0.851066
O O19 0.000000 0.628577 0.938917
O O20 0.232309 0.620585 0.000000
#
# Coordination Sequence:
#
# PCOD9520669 Si02
#       7
#    16  16  16   8  16  16  16
#     4  11  21  34  51  69  90 124 167 202 234 284
#     4   9  18  34  50  65  89 122 162 202 237 273
#     4   8  14  27  47  67  89 124 164 194 226 276
#     4  11  23  35  47  69 101 129 152 191 248 293
#     4  10  20  32  46  69  99 124 150 194 249 292
#     4   9  17  28  46  74 101 127 160 194 233 282
#     4   8  14  26  46  73 103 130 157 192 232 277
#
# _framework density 16.193738
#
# number of rings (size 3 to 8) (size 9 to 14) (size 15 to 20)
#    0.000    2.692    0.769    2.538    0.000    4.923 
#    0.000    2.308    0.000    2.308    0.000    2.154 
#    0.000    0.000    0.000    0.000    0.000    0.000 
#
# Total GULP energy -289797.369447 kJ/mol
# GULP energy per Si atom -5573.026336 kJ/mol
# Density = 1.615688 g / cm^3
# Si number density = 16.193738 Si / 1000 Ang^3
#
#
#
# Elastic Constant Matrix: (Units=GPa)
#
#
# Indices 1 2 3 4 5 6 
#
# 1 23.4892 34.6618 35.0467 0.0000 0.0000 0.0000
# 2 34.6618 130.6309 84.0982 0.0000 0.0000 0.0000
# 3 35.0467 84.0982 106.5988 0.0000 0.0000 0.0000
# 4 0.0000 0.0000 0.0000 2.6221 0.0000 0.0000
# 5 0.0000 0.0000 0.0000 0.0000 18.0876 0.0000
# 6 0.0000 0.0000 0.0000 0.0000 0.0000 11.9631
#
#
#
# Elastic Compliance Matrix: (Units=1/GPa)
#
#
# Indices 1 2 3 4 5 6 
#
# 1 0.089272 -0.009739 -0.021667 0.000000 0.000000 0.000000
# 2 -0.009739 0.016618 -0.009909 0.000000 0.000000 0.000000
# 3 -0.021667 -0.009909 0.024322 0.000000 0.000000 0.000000
# 4 0.000000 0.000000 0.000000 0.381379 0.000000 0.000000
# 5 0.000000 0.000000 0.000000 0.000000 0.055287 0.000000
# 6 0.000000 0.000000 0.000000 0.000000 0.000000 0.083590
#
#
# Mechanical properties :
#
#
# Convention : Reuss Voigt Hill
#
# Bulk Modulus (GPa) = 21.01594 63.14805 42.08200
# Shear Modulus (GPa) = 6.67594 13.66202 10.16898
#
# Velocity S-wave (km/s) = 2.03261 2.90773 2.50863
# Velocity P-wave (km/s) = 4.30287 7.09600 5.86804
#
# Compressibility (1/GPa) = 0.04758293
#
# Stress axis : x y z
#
# Youngs Moduli (GPa) = 11.20175 60.17436 41.11534
#
# Poissons Ratio (x) = 0.58601 0.89085
# Poissons Ratio (y) = 0.10909 0.40741
# Poissons Ratio (z) = 0.24271 0.59626
#
# Static dielectric constant tensor:
#      x y z
#    x 1.543080 0.000000 0.000000 
#    y 0.000000 1.543540 0.000000 
#    z 0.000000 0.000000 1.525680 
# 
# From -- ./inp_files/58019.got.cif
#   From: 2010.05.17/outbox.cif.g08.bks.cpg/sg71_30_cif.got.tgz:58019.got - 2010.06.03 16:22:01.
