data_PCOD9520810
_publ_section_title
;
Structure prediction by ZEFSAII (Michael W. Deem and Ramdas Pophale) SiO2 
 PCOD9520810
Probable space group: I M M M
;
_chemical_formula_sum "Si O2"
_cell_formula_units_Z 72
_cell_length_a 29.479456
_cell_length_b 9.045880
_cell_length_c 15.717383
_cell_angle_alpha 90.000000
_cell_angle_beta 90.000000
_cell_angle_gamma 90.000000
_cell_volume 4191.317140
_symmetry_space_group_name_H-M "I M M M"
_symmetry_group_IT_number 71
_symmetry_cell_setting 'orthorhombic'
loop_
_space_group_symop_operation_xyz
x,y,z
-x,-y,z
x,-y,-z
-x,y,-z
-x,-y,-z
x,y,-z
-x,y,z
x,-y,z
1/2+x,1/2+y,1/2+z
1/2-x,1/2-y,1/2+z
1/2+x,1/2-y,1/2-z
1/2-x,1/2+y,1/2-z
1/2-x,1/2-y,1/2-z
1/2+x,1/2+y,1/2-z
1/2-x,1/2+y,1/2+z
1/2+x,1/2-y,1/2+z
loop_
_atom_site_type_symbol
_atom_site_label
_atom_site_fract_x
_atom_site_fract_y
_atom_site_fract_z
Si Si1 0.699346 0.177852 0.096717
Si Si2 0.445084 0.833010 0.000000
Si Si3 0.946908 0.176160 0.323291
Si Si4 0.796611 0.676999 0.902132
Si Si5 0.135109 0.321958 0.246897
O O1 0.748706 0.245186 0.115606
O O2 0.664081 0.221401 0.169447
O O3 0.702673 0.000000 0.098437
O O4 0.686380 0.222039 0.000000
O O5 0.433385 0.748027 0.086053
O O6 0.500000 0.842167 0.000000
O O7 0.426262 0.000000 0.000000
O O8 0.913310 0.244449 0.254182
O O9 0.000000 0.211388 0.308231
O O10 0.942505 0.000000 0.327996
O O11 0.790119 0.500000 0.894873
O O12 0.835227 0.719419 0.835206
O O13 0.809057 0.710413 0.000000
O O14 0.129450 0.500000 0.247753
#
# Coordination Sequence:
#
# PCOD9520810 Si02
#       5
#    16   8  16  16  16
#     4   9  18  31  47  71 102 131 162 202 246 297
#     4   9  17  31  51  71  95 131 167 197 237 291
#     4  10  21  35  50  72 102 132 166 209 252 295
#     4   9  18  33  51  72  99 130 167 211 255 299
#     4  10  20  32  50  74  99 132 171 208 250 302
#
# _framework density 17.178370999999999
#
# number of rings (size 3 to 8) (size 9 to 14) (size 15 to 20)
#    0.000    2.556    0.000    1.667    1.556    4.444 
#    0.000    0.000    0.000    0.667    0.000    4.667 
#    0.000    0.000    0.000    0.000    0.000    0.000 
#
# Total GULP energy -200866.975866 kJ/mol
# GULP energy per Si atom -5579.638219 kJ/mol
# Density = 1.713927 g / cm^3
# Si number density = 17.178371 Si / 1000 Ang^3
#
#
#
# Elastic Constant Matrix: (Units=GPa)
#
#
# Indices 1 2 3 4 5 6 
#
# 1 104.4418 40.2730 67.8104 0.0000 0.0000 0.0000
# 2 40.2730 28.8632 31.5659 0.0000 0.0000 0.0000
# 3 67.8104 31.5659 71.6545 0.0000 0.0000 0.0000
# 4 0.0000 0.0000 0.0000 17.6677 0.0000 0.0000
# 5 0.0000 0.0000 0.0000 0.0000 27.1388 0.0000
# 6 0.0000 0.0000 0.0000 0.0000 0.0000 28.8819
#
#
#
# Elastic Compliance Matrix: (Units=1/GPa)
#
#
# Indices 1 2 3 4 5 6 
#
# 1 0.030269 -0.021047 -0.019373 0.000000 0.000000 0.000000
# 2 -0.021047 0.081491 -0.015981 0.000000 0.000000 0.000000
# 3 -0.019373 -0.015981 0.039330 0.000000 0.000000 0.000000
# 4 0.000000 0.000000 0.000000 0.056601 0.000000 0.000000
# 5 0.000000 0.000000 0.000000 0.000000 0.036848 0.000000
# 6 0.000000 0.000000 0.000000 0.000000 0.000000 0.034624
#
#
# Mechanical properties :
#
#
# Convention : Reuss Voigt Hill
#
# Bulk Modulus (GPa) = 26.11872 53.80646 39.96259
# Shear Modulus (GPa) = 12.35404 19.09169 15.72286
#
# Velocity S-wave (km/s) = 2.68463 3.33735 3.02863
# Velocity P-wave (km/s) = 4.98468 6.80006 5.96187
#
# Compressibility (1/GPa) = 0.03828672
#
# Stress axis : x y z
#
# Youngs Moduli (GPa) = 33.03752 12.27133 25.42599
#
# Poissons Ratio (x) = 0.25827 0.49258
# Poissons Ratio (y) = 0.69533 0.40634
# Poissons Ratio (z) = 0.64004 0.19611
#
# Static dielectric constant tensor:
#      x y z
#    x 1.576530 0.000000 0.000000 
#    y 0.000000 1.572150 0.000000 
#    z 0.000000 0.000000 1.583290 
# 
# From -- ./inp_files/6021.got.cif
#   From: 2010.05.17/outbox.cif.g08.bks.cpg/sg71_4_cif.got.tgz:6021.got - 2010.06.03 16:22:01.
