data_PCOD9520128
_publ_section_title
;
Structure prediction by ZEFSAII (Michael W. Deem and Ramdas Pophale) SiO2 
 PCOD9520128
Probable space group: I M M M
;
_chemical_formula_sum "Si O2"
_cell_formula_units_Z 104
_cell_length_a 17.068027
_cell_length_b 19.373084
_cell_length_c 17.693071
_cell_angle_alpha 90.000000
_cell_angle_beta 90.000000
_cell_angle_gamma 90.000000
_cell_volume 5850.396533
_symmetry_space_group_name_H-M "I M M M"
_symmetry_group_IT_number 71
_symmetry_cell_setting 'orthorhombic'
loop_
_space_group_symop_operation_xyz
x,y,z
-x,-y,z
x,-y,-z
-x,y,-z
-x,-y,-z
x,y,-z
-x,y,z
x,-y,z
1/2+x,1/2+y,1/2+z
1/2-x,1/2-y,1/2+z
1/2+x,1/2-y,1/2-z
1/2-x,1/2+y,1/2-z
1/2-x,1/2-y,1/2-z
1/2+x,1/2+y,1/2-z
1/2-x,1/2+y,1/2+z
1/2+x,1/2-y,1/2+z
loop_
_atom_site_type_symbol
_atom_site_label
_atom_site_fract_x
_atom_site_fract_y
_atom_site_fract_z
Si Si1 0.000000 0.918453 0.914234
Si Si2 0.677960 0.781748 0.413633
Si Si3 0.217520 0.580849 0.712424
Si Si4 0.093492 0.313685 0.235764
Si Si5 0.668073 0.383201 0.586342
Si Si6 0.324980 0.318842 0.186192
Si Si7 0.906927 0.076059 0.414985
O O1 0.917010 0.899851 0.877424
O O2 0.000000 0.000000 0.921006
O O3 0.000000 0.887047 0.000000
O O4 0.670832 0.807198 0.500000
O O5 0.616298 0.812667 0.353366
O O6 0.670349 0.699279 0.415090
O O7 0.762516 0.794999 0.376592
O O8 0.214323 0.500000 0.733995
O O9 0.134967 0.620162 0.724797
O O10 0.257619 0.586983 0.630209
O O11 0.277021 0.628984 0.760386
O O12 0.136901 0.245818 0.270598
O O13 0.000000 0.311141 0.246170
O O14 0.666847 0.409464 0.500000
O O15 0.387343 0.364765 0.142986
O O16 0.876872 0.090342 0.500000
O O17 0.000000 0.071492 0.419881
O O18 0.876710 0.000000 0.391828
#
# Coordination Sequence:
#
# PCOD9520128 Si02
#       7
#     8  16  16  16  16  16  16
#     4   9  18  30  46  74 112 146 178 220 274 337
#     4  10  20  35  58  83 109 142 184 233 288 344
#     4  11  22  38  58  81 112 153 196 237 290 346
#     4  11  23  39  58  83 117 152 194 244 290 344
#     4  10  19  34  55  82 114 149 187 228 280 343
#     4  11  19  37  55  83 108 144 184 238 286 344
#     4   9  18  32  51  77 108 141 177 221 278 340
#
# _framework density 17.776572999999999
#
# number of rings (size 3 to 8) (size 9 to 14) (size 15 to 20)
#    0.000    1.769    3.077    3.231    1.077    1.538 
#    1.385    0.000    0.000    5.538    0.000    5.385 
#    0.000    0.000    0.000    0.000    0.000    0.000 
#
# Total GULP energy -289782.530226 kJ/mol
# GULP energy per Si atom -5572.740966 kJ/mol
# Density = 1.773611 g / cm^3
# Si number density = 17.776573 Si / 1000 Ang^3
#
#
#
# Elastic Constant Matrix: (Units=GPa)
#
#
# Indices 1 2 3 4 5 6 
#
# 1 109.9201 46.3808 43.1715 0.0000 0.0000 0.0000
# 2 46.3808 92.9790 35.8501 0.0000 0.0000 0.0000
# 3 43.1715 35.8501 83.5553 0.0000 0.0000 0.0000
# 4 0.0000 0.0000 0.0000 2.6976 0.0000 0.0000
# 5 0.0000 0.0000 0.0000 0.0000 26.8017 0.0000
# 6 0.0000 0.0000 0.0000 0.0000 0.0000 16.2743
#
#
#
# Elastic Compliance Matrix: (Units=1/GPa)
#
#
# Indices 1 2 3 4 5 6 
#
# 1 0.012884 -0.004626 -0.004673 0.000000 0.000000 0.000000
# 2 -0.004626 0.014548 -0.003852 0.000000 0.000000 0.000000
# 3 -0.004673 -0.003852 0.016035 0.000000 0.000000 0.000000
# 4 0.000000 0.000000 0.000000 0.370693 0.000000 0.000000
# 5 0.000000 0.000000 0.000000 0.000000 0.037311 0.000000
# 6 0.000000 0.000000 0.000000 0.000000 0.000000 0.061447
#
#
# Mechanical properties :
#
#
# Convention : Reuss Voigt Hill
#
# Bulk Modulus (GPa) = 58.25051 59.69545 58.97298
# Shear Modulus (GPa) = 9.17532 19.89152 14.53342
#
# Velocity S-wave (km/s) = 2.27435 3.34874 2.86240
# Velocity P-wave (km/s) = 6.30366 6.97179 6.64613
#
# Compressibility (1/GPa) = 0.01716723
#
# Stress axis : x y z
#
# Youngs Moduli (GPa) = 77.61316 68.73966 62.36357
#
# Poissons Ratio (x) = 0.31796 0.29139
# Poissons Ratio (y) = 0.35900 0.24021
# Poissons Ratio (z) = 0.36265 0.26477
#
# Static dielectric constant tensor:
#      x y z
#    x 1.634560 0.000000 0.000000 
#    y 0.000000 1.620140 0.000000 
#    z 0.000000 0.000000 1.666610 
# 
# From -- ./inp_files/46144.got.cif
#   From: 2010.05.17/outbox.cif.g08.bks.cpg/sg71_24_cif.got.tgz:46144.got - 2010.06.03 16:22:01.
