data_PCOD9520639
_publ_section_title
;
Structure prediction by ZEFSAII (Michael W. Deem and Ramdas Pophale) SiO2 
 PCOD9520639
Probable space group: I M M M
;
_chemical_formula_sum "Si O2"
_cell_formula_units_Z 120
_cell_length_a 22.414232
_cell_length_b 23.748096
_cell_length_c 14.134765
_cell_angle_alpha 90.000000
_cell_angle_beta 90.000000
_cell_angle_gamma 90.000000
_cell_volume 7523.869447
_symmetry_space_group_name_H-M "I M M M"
_symmetry_group_IT_number 71
_symmetry_cell_setting 'orthorhombic'
loop_
_space_group_symop_operation_xyz
x,y,z
-x,-y,z
x,-y,-z
-x,y,-z
-x,-y,-z
x,y,-z
-x,y,z
x,-y,z
1/2+x,1/2+y,1/2+z
1/2-x,1/2-y,1/2+z
1/2+x,1/2-y,1/2-z
1/2-x,1/2+y,1/2-z
1/2-x,1/2-y,1/2-z
1/2+x,1/2+y,1/2-z
1/2-x,1/2+y,1/2+z
1/2+x,1/2-y,1/2+z
loop_
_atom_site_type_symbol
_atom_site_label
_atom_site_fract_x
_atom_site_fract_y
_atom_site_fract_z
Si Si1 0.360282 0.436682 0.385367
Si Si2 0.737929 0.120460 0.889398
Si Si3 0.430028 0.932587 0.606943
Si Si4 0.243470 0.756383 0.610692
Si Si5 0.852373 0.256988 0.760319
Si Si6 0.000000 0.434257 0.613362
Si Si7 0.429175 0.325950 0.611101
Si Si8 0.613947 0.877755 0.789487
O O1 0.357853 0.439085 0.500000
O O2 0.371376 0.500000 0.350866
O O3 0.296095 0.412445 0.353959
O O4 0.409510 0.389576 0.363974
O O5 0.748770 0.187866 0.883888
O O6 0.677116 0.107090 0.835835
O O7 0.729853 0.106815 0.000000
O O8 0.415330 0.915753 0.500000
O O9 0.500000 0.919057 0.623541
O O10 0.391316 0.902528 0.684883
O O11 0.424539 0.000000 0.614026
O O12 0.240150 0.771648 0.500000
O O13 0.185300 0.770386 0.673855
O O14 0.301380 0.778628 0.666161
O O15 0.894193 0.215615 0.819416
O O16 0.887617 0.310192 0.718673
O O17 0.058898 0.403756 0.652725
O O18 0.000000 0.500000 0.644305
O O19 0.000000 0.432764 0.500000
O O20 0.411817 0.316109 0.500000
O O21 0.500000 0.318863 0.618107
#
# Coordination Sequence:
#
# PCOD9520639 Si02
#       8
#    16  16  16  16  16   8  16  16
#     4   9  17  30  49  73 101 134 169 203 249 311
#     4   9  17  31  50  73 101 131 164 208 259 313
#     4   9  18  33  49  62  85 126 171 214 256 293
#     4   9  17  33  54  74 101 137 169 204 259 312
#     4  10  20  31  52  78 104 134 171 209 258 311
#     4  11  24  40  55  73 105 147 183 216 256 304
#     4  10  20  33  51  74 107 142 170 213 262 309
#     4  11  21  32  51  76 100 131 178 219 259 301
#
# _framework density 15.94924
#
# number of rings (size 3 to 8) (size 9 to 14) (size 15 to 20)
#    0.000    2.333    2.000    1.600    0.933    2.933 
#    0.000    4.000    0.000    0.000    0.000    0.000 
#    0.000    0.533    0.000    1.200    0.000    0.133 
#
# Total GULP energy -334468.230411 kJ/mol
# GULP energy per Si atom -5574.470507 kJ/mol
# Density = 1.591294 g / cm^3
# Si number density = 15.949240 Si / 1000 Ang^3
#
#
#
# Elastic Constant Matrix: (Units=GPa)
#
#
# Indices 1 2 3 4 5 6 
#
# 1 71.4891 37.7082 30.9325 0.0000 0.0000 0.0000
# 2 37.7082 62.3729 21.2790 0.0000 0.0000 0.0000
# 3 30.9325 21.2790 71.4246 0.0000 0.0000 0.0000
# 4 0.0000 0.0000 0.0000 17.8399 0.0000 0.0000
# 5 0.0000 0.0000 0.0000 0.0000 25.5109 0.0000
# 6 0.0000 0.0000 0.0000 0.0000 0.0000 20.1488
#
#
#
# Elastic Compliance Matrix: (Units=1/GPa)
#
#
# Indices 1 2 3 4 5 6 
#
# 1 0.022933 -0.011662 -0.006458 0.000000 0.000000 0.000000
# 2 -0.011662 0.023776 -0.002033 0.000000 0.000000 0.000000
# 3 -0.006458 -0.002033 0.017403 0.000000 0.000000 0.000000
# 4 0.000000 0.000000 0.000000 0.056054 0.000000 0.000000
# 5 0.000000 0.000000 0.000000 0.000000 0.039199 0.000000
# 6 0.000000 0.000000 0.000000 0.000000 0.000000 0.049631
#
#
# Mechanical properties :
#
#
# Convention : Reuss Voigt Hill
#
# Bulk Modulus (GPa) = 42.00251 42.79180 42.39716
# Shear Modulus (GPa) = 19.43728 20.39104 19.91416
#
# Velocity S-wave (km/s) = 3.49477 3.57949 3.53738
# Velocity P-wave (km/s) = 6.53275 6.63113 6.58212
#
# Compressibility (1/GPa) = 0.02380810
#
# Stress axis : x y z
#
# Youngs Moduli (GPa) = 43.60444 42.05860 57.46062
#
# Poissons Ratio (x) = 0.49047 0.37107
# Poissons Ratio (y) = 0.50850 0.11683
# Poissons Ratio (z) = 0.28159 0.08551
#
# Static dielectric constant tensor:
#      x y z
#    x 1.532730 0.000000 0.000000 
#    y 0.000000 1.547800 0.000000 
#    z 0.000000 0.000000 1.536870 
# 
# From -- ./inp_files/39678.got.cif
#   From: 2010.05.17/outbox.cif.g08.bks.cpg/sg71_20_cif.got.tgz:39678.got - 2010.06.03 16:22:01.
