data_PCOD9520275
_publ_section_title
;
Structure prediction by ZEFSAII (Michael W. Deem and Ramdas Pophale) SiO2 
 PCOD9520275
Probable space group: I M M M
;
_chemical_formula_sum "Si O2"
_cell_formula_units_Z 92
_cell_length_a 7.771681
_cell_length_b 28.927352
_cell_length_c 24.185902
_cell_angle_alpha 90.000000
_cell_angle_beta 90.000000
_cell_angle_gamma 90.000000
_cell_volume 5437.333047
_symmetry_space_group_name_H-M "I M M M"
_symmetry_group_IT_number 71
_symmetry_cell_setting 'orthorhombic'
loop_
_space_group_symop_operation_xyz
x,y,z
-x,-y,z
x,-y,-z
-x,y,-z
-x,-y,-z
x,y,-z
-x,y,z
x,-y,z
1/2+x,1/2+y,1/2+z
1/2-x,1/2-y,1/2+z
1/2+x,1/2-y,1/2-z
1/2-x,1/2+y,1/2-z
1/2-x,1/2-y,1/2-z
1/2+x,1/2+y,1/2-z
1/2-x,1/2+y,1/2+z
1/2+x,1/2-y,1/2+z
loop_
_atom_site_type_symbol
_atom_site_label
_atom_site_fract_x
_atom_site_fract_y
_atom_site_fract_z
Si Si1 0.705095 0.266154 0.667989
Si Si2 0.000000 0.500000 0.771291
Si Si3 0.701679 0.825209 0.728474
Si Si4 0.206785 0.000000 0.064555
Si Si5 0.298523 0.091318 0.129256
Si Si6 0.809226 0.073936 0.747102
Si Si7 0.707167 0.181136 0.062875
O O1 0.500000 0.267017 0.675588
O O2 0.768599 0.216466 0.689801
O O3 0.778589 0.305320 0.709103
O O4 0.747023 0.277982 0.604993
O O5 0.846888 0.540332 0.768790
O O6 0.500000 0.831457 0.717626
O O7 0.788341 0.874648 0.722158
O O8 0.281146 0.045297 0.093270
O O9 0.000000 0.000000 0.071042
O O10 0.248076 0.000000 0.000000
O O11 0.500000 0.099531 0.142263
O O12 0.205132 0.082333 0.186825
O O13 0.231460 0.134306 0.093269
O O14 0.000000 0.056012 0.734082
O O15 0.500000 0.178113 0.060136
O O16 0.771311 0.185389 0.000000
#
# Coordination Sequence:
#
# PCOD9520275 Si02
#       7
#    16   4  16   8  16  16  16
#     4  10  20  32  53  79 104 137 176 222 273 326
#     4  12  24  40  52  78 111 144 175 232 278 324
#     4  10  19  35  54  78 107 135 175 225 271 325
#     4  11  24  37  47  63  86 120 173 230 275 319
#     4  11  21  36  52  68  93 129 179 228 275 322
#     4  12  23  37  57  79 105 139 180 222 276 331
#     4  10  21  35  51  71 100 139 178 222 276 327
#
# _framework density 16.920058999999998
#
# number of rings (size 3 to 8) (size 9 to 14) (size 15 to 20)
#    0.000    1.304    3.478    3.130    0.000    4.522 
#    0.000    0.000    0.000    0.000    0.000    0.000 
#    0.000    0.000    0.000    1.565    0.000    6.609 
#
# Total GULP energy -256404.271087 kJ/mol
# GULP energy per Si atom -5574.005893 kJ/mol
# Density = 1.688155 g / cm^3
# Si number density = 16.920059 Si / 1000 Ang^3
#
#
#
# Elastic Constant Matrix: (Units=GPa)
#
#
# Indices 1 2 3 4 5 6 
#
# 1 89.7172 29.2840 -2.6580 0.0000 0.0000 0.0000
# 2 29.2840 116.6022 28.2791 0.0000 0.0000 0.0000
# 3 -2.6580 28.2791 37.7583 0.0000 0.0000 0.0000
# 4 0.0000 0.0000 0.0000 11.7766 0.0000 0.0000
# 5 0.0000 0.0000 0.0000 0.0000 17.1643 0.0000
# 6 0.0000 0.0000 0.0000 0.0000 0.0000 20.6275
#
#
#
# Elastic Compliance Matrix: (Units=1/GPa)
#
#
# Indices 1 2 3 4 5 6 
#
# 1 0.012614 -0.004134 0.003984 0.000000 0.000000 0.000000
# 2 -0.004134 0.011835 -0.009155 0.000000 0.000000 0.000000
# 3 0.003984 -0.009155 0.033621 0.000000 0.000000 0.000000
# 4 0.000000 0.000000 0.000000 0.084914 0.000000 0.000000
# 5 0.000000 0.000000 0.000000 0.000000 0.058260 0.000000
# 6 0.000000 0.000000 0.000000 0.000000 0.000000 0.048479
#
#
# Mechanical properties :
#
#
# Convention : Reuss Voigt Hill
#
# Bulk Modulus (GPa) = 25.34198 39.32086 32.33142
# Shear Modulus (GPa) = 17.76292 22.52519 20.14405
#
# Velocity S-wave (km/s) = 3.24360 3.65262 3.45417
# Velocity P-wave (km/s) = 5.38868 6.40925 5.92100
#
# Compressibility (1/GPa) = 0.03946022
#
# Stress axis : x y z
#
# Youngs Moduli (GPa) = 79.27986 84.49767 29.74329
#
# Poissons Ratio (x) = 0.34932 -0.11850
# Poissons Ratio (y) = 0.32775 0.27229
# Poissons Ratio (z) = -0.31586 0.77354
#
# Static dielectric constant tensor:
#      x y z
#    x 1.619400 0.000000 0.000000 
#    y 0.000000 1.586930 0.000000 
#    z 0.000000 0.000000 1.557740 
# 
# From -- ./inp_files/57931.got.cif
#   From: 2010.05.17/outbox.cif.g08.bks.cpg/sg71_29_cif.got.tgz:57931.got - 2010.06.03 16:22:01.
