data_PCOD9520227
_publ_section_title
;
Structure prediction by ZEFSAII (Michael W. Deem and Ramdas Pophale) SiO2 
 PCOD9520227
Probable space group: I M M M
;
_chemical_formula_sum "Si O2"
_cell_formula_units_Z 112
_cell_length_a 15.026676
_cell_length_b 17.572292
_cell_length_c 22.379256
_cell_angle_alpha 90.000000
_cell_angle_beta 90.000000
_cell_angle_gamma 90.000000
_cell_volume 5909.312783
_symmetry_space_group_name_H-M "I M M M"
_symmetry_group_IT_number 71
_symmetry_cell_setting 'orthorhombic'
loop_
_space_group_symop_operation_xyz
x,y,z
-x,-y,z
x,-y,-z
-x,y,-z
-x,-y,-z
x,y,-z
-x,y,z
x,-y,z
1/2+x,1/2+y,1/2+z
1/2-x,1/2-y,1/2+z
1/2+x,1/2-y,1/2-z
1/2-x,1/2+y,1/2-z
1/2-x,1/2-y,1/2-z
1/2+x,1/2+y,1/2-z
1/2-x,1/2+y,1/2+z
1/2+x,1/2-y,1/2+z
loop_
_atom_site_type_symbol
_atom_site_label
_atom_site_fract_x
_atom_site_fract_y
_atom_site_fract_z
Si Si1 0.100629 0.131567 0.776442
Si Si2 0.605649 0.588831 0.860244
Si Si3 0.749854 0.813458 0.570460
Si Si4 0.604666 0.910570 0.630228
Si Si5 0.742232 0.162902 0.851945
Si Si6 0.601158 0.189431 0.252120
Si Si7 0.096440 0.409127 0.432386
O O1 0.125558 0.102974 0.710076
O O2 0.174397 0.116371 0.826131
O O3 0.099727 0.223575 0.773930
O O4 0.000000 0.104853 0.789165
O O5 0.500000 0.603813 0.867678
O O6 0.622543 0.500000 0.874152
O O7 0.664537 0.644097 0.900863
O O8 0.761084 0.798447 0.500000
O O9 0.667327 0.869818 0.582508
O O10 0.733288 0.737477 0.609505
O O11 0.500000 0.902244 0.615988
O O12 0.619659 0.867902 0.693415
O O13 0.625034 0.000000 0.635391
O O14 0.678757 0.184664 0.796314
O O15 0.678651 0.114504 0.893667
O O16 0.500000 0.172887 0.230031
O O17 0.105911 0.380496 0.500000
O O18 0.092858 0.500000 0.434354
O O19 0.000000 0.381629 0.409504
#
# Coordination Sequence:
#
# PCOD9520227 Si02
#       7
#    16  16  16  16  16  16  16
#     4  10  20  36  59  83 113 148 183 230 292 350
#     4  10  22  40  59  81 111 147 188 236 289 341
#     4  12  25  38  55  82 114 153 201 240 274 329
#     4  10  22  40  60  84 115 150 190 240 296 350
#     4  12  21  34  59  89 115 150 190 233 285 344
#     4  10  19  34  58  85 112 142 178 231 298 355
#     4   9  20  39  59  82 117 155 188 230 285 341
#
# _framework density 18.953133999999999
#
# number of rings (size 3 to 8) (size 9 to 14) (size 15 to 20)
#    0.000    1.571    2.857    3.000    0.000    3.429 
#    0.000    2.857    0.000    1.286    0.000    1.000 
#    0.000    0.000    0.000    0.000    0.000    0.000 
#
# Total GULP energy -312656.339910 kJ/mol
# GULP energy per Si atom -5583.148927 kJ/mol
# Density = 1.891000 g / cm^3
# Si number density = 18.953134 Si / 1000 Ang^3
#
#
#
# Elastic Constant Matrix: (Units=GPa)
#
#
# Indices 1 2 3 4 5 6 
#
# 1 81.3127 7.3862 55.5383 0.0000 0.0000 0.0000
# 2 7.3862 26.5145 7.8865 0.0000 0.0000 0.0000
# 3 55.5383 7.8865 89.1780 0.0000 0.0000 0.0000
# 4 0.0000 0.0000 0.0000 23.4113 0.0000 0.0000
# 5 0.0000 0.0000 0.0000 0.0000 32.0080 0.0000
# 6 0.0000 0.0000 0.0000 0.0000 0.0000 28.1496
#
#
#
# Elastic Compliance Matrix: (Units=1/GPa)
#
#
# Indices 1 2 3 4 5 6 
#
# 1 0.021511 -0.002062 -0.013214 0.000000 0.000000 0.000000
# 2 -0.002062 0.038932 -0.002159 0.000000 0.000000 0.000000
# 3 -0.013214 -0.002159 0.019634 0.000000 0.000000 0.000000
# 4 0.000000 0.000000 0.000000 0.042714 0.000000 0.000000
# 5 0.000000 0.000000 0.000000 0.000000 0.031242 0.000000
# 6 0.000000 0.000000 0.000000 0.000000 0.000000 0.035524
#
#
# Mechanical properties :
#
#
# Convention : Reuss Voigt Hill
#
# Bulk Modulus (GPa) = 22.12059 37.62524 29.87292
# Shear Modulus (GPa) = 20.87704 25.12672 23.00188
#
# Velocity S-wave (km/s) = 3.32250 3.64501 3.48748
# Velocity P-wave (km/s) = 5.13957 6.13267 5.65795
#
# Compressibility (1/GPa) = 0.04520674
#
# Stress axis : x y z
#
# Youngs Moduli (GPa) = 46.48730 25.68601 50.93165
#
# Poissons Ratio (x) = 0.05296 0.67303
# Poissons Ratio (y) = 0.09585 0.10995
# Poissons Ratio (z) = 0.61430 0.05545
#
# Static dielectric constant tensor:
#      x y z
#    x 1.697540 0.000000 0.000000 
#    y 0.000000 1.650100 0.000000 
#    z 0.000000 0.000000 1.640810 
# 
# From -- ./inp_files/59947.got.cif
#   From: 2010.05.17/outbox.cif.g08.bks.cpg/sg71_30_cif.got.tgz:59947.got - 2010.06.03 16:22:01.
