data_PCOD9520574
_publ_section_title
;
Structure prediction by ZEFSAII (Michael W. Deem and Ramdas Pophale) SiO2 
 PCOD9520574
Probable space group: I M M M
;
_chemical_formula_sum "Si O2"
_cell_formula_units_Z 96
_cell_length_a 18.429612
_cell_length_b 16.056943
_cell_length_c 14.252640
_cell_angle_alpha 90.000000
_cell_angle_beta 90.000000
_cell_angle_gamma 90.000000
_cell_volume 4217.687256
_symmetry_space_group_name_H-M "I M M M"
_symmetry_group_IT_number 71
_symmetry_cell_setting 'orthorhombic'
loop_
_space_group_symop_operation_xyz
x,y,z
-x,-y,z
x,-y,-z
-x,y,-z
-x,-y,-z
x,y,-z
-x,y,z
x,-y,z
1/2+x,1/2+y,1/2+z
1/2-x,1/2-y,1/2+z
1/2+x,1/2-y,1/2-z
1/2-x,1/2+y,1/2-z
1/2-x,1/2-y,1/2-z
1/2+x,1/2+y,1/2-z
1/2-x,1/2+y,1/2+z
1/2+x,1/2-y,1/2+z
loop_
_atom_site_type_symbol
_atom_site_label
_atom_site_fract_x
_atom_site_fract_y
_atom_site_fract_z
Si Si1 0.112642 0.596766 0.399154
Si Si2 0.887358 0.096766 0.399154
Si Si3 0.578756 0.150583 0.310360
Si Si4 0.421244 0.349416 0.689640
Si Si5 0.767831 0.654340 0.860447
Si Si6 0.767831 0.845660 0.139553
O O1 0.086870 0.631071 0.500000
O O2 0.092377 0.500000 0.394224
O O3 0.087098 0.637470 0.302064
O O4 0.200141 0.604792 0.400204
O O5 0.913130 0.131071 0.500000
O O6 0.912902 0.137470 0.302064
O O7 0.799859 0.104792 0.400204
O O8 0.907624 0.000000 0.394224
O O9 0.500000 0.117498 0.339320
O O10 0.579797 0.250000 0.325722
O O11 0.650702 0.118487 0.363250
O O12 0.500000 0.382502 0.660680
O O13 0.349298 0.381513 0.636750
O O14 0.766321 0.750000 0.895100
O O15 0.750000 0.658733 0.750000
#
# Coordination Sequence:
#
# PCOD9520574 Si02
#       6
#    16  16  16  16  16  16
#     4  10  20  31  44  66  95 123 151 184 220 261
#     4  10  20  31  44  66  95 123 151 184 220 261
#     4   9  18  32  49  69  92 117 147 185 227 269
#     4   9  18  32  49  69  92 117 147 185 227 269
#     4   8  15  29  48  67  86 113 151 189 222 261
#     4   8  15  29  48  67  86 113 151 189 222 261
#
# _framework density 22.761289999999999
#
# number of rings (size 3 to 8) (size 9 to 14) (size 15 to 20)
#    0.000    3.000    0.000    3.000    0.000   10.000 
#    0.000    3.333    0.000    1.000    0.000    7.000 
#    0.000    0.000    0.000    0.000    0.000    0.000 
#
# Total GULP energy -267515.510759 kJ/mol
# GULP energy per Si atom -5573.239807 kJ/mol
# Density = 2.270948 g / cm^3
# Si number density = 22.761290 Si / 1000 Ang^3
#
#
#
# Elastic Constant Matrix: (Units=GPa)
#
#
# Indices 1 2 3 4 5 6 
#
# 1 178.6621 3.9848 -9.6121 0.0000 0.0000 0.0000
# 2 3.9848 20.0660 -5.9605 0.0000 0.0000 0.0000
# 3 -9.6121 -5.9605 41.0526 0.0000 0.0000 0.0000
# 4 0.0000 0.0000 0.0000 10.6370 0.0000 0.0000
# 5 0.0000 0.0000 0.0000 0.0000 -6.9653 0.0000
# 6 0.0000 0.0000 0.0000 0.0000 0.0000 -33.0577
#
#
#
# Elastic Compliance Matrix: (Units=1/GPa)
#
#
# Indices 1 2 3 4 5 6 
#
# 1 0.005680 -0.000766 0.001219 0.000000 0.000000 0.000000
# 2 -0.000766 0.052185 0.007398 0.000000 0.000000 0.000000
# 3 0.001219 0.007398 0.025718 0.000000 0.000000 0.000000
# 4 0.000000 0.000000 0.000000 0.094012 0.000000 0.000000
# 5 0.000000 0.000000 0.000000 0.000000 -0.143569 0.000000
# 6 0.000000 0.000000 0.000000 0.000000 0.000000 -0.030250
#
#
# Mechanical properties :
#
#
# Convention : Reuss Voigt Hill
#
# Bulk Modulus (GPa) = 10.07212 24.06723 17.06968
# Shear Modulus (GPa) = 236.18517 10.88070 123.53293
#
# Velocity S-wave (km/s) = 10.19762 2.18877 7.37503
# Velocity P-wave (km/s) = 11.96202 4.12121 8.94635
#
# Compressibility (1/GPa) = 0.09928392
#
# Stress axis : x y z
#
# Youngs Moduli (GPa) = 176.06239 19.16254 38.88264
#
# Poissons Ratio (x) = 0.01468 -0.04739
# Poissons Ratio (y) = 0.13485 -0.28764
# Poissons Ratio (z) = -0.21456 -0.14176
#
# Static dielectric constant tensor:
#      x y z
#    x 1.938230 0.000000 0.000000 
#    y 0.000000 1.787770 0.000000 
#    z 0.000000 0.000000 1.861860 
# 
# From -- ./inp_files/46031.got.cif
#   From: 2010.05.17/outbox.cif.g08.bks.cpg/sg71_24_cif.got.tgz:46031.got - 2010.06.03 16:22:01.
