data_PCOD9520469
_publ_section_title
;
Structure prediction by ZEFSAII (Michael W. Deem and Ramdas Pophale) SiO2 
 PCOD9520469
Probable space group: I M M M
;
_chemical_formula_sum "Si O2"
_cell_formula_units_Z 100
_cell_length_a 29.998689
_cell_length_b 7.682331
_cell_length_c 21.193990
_cell_angle_alpha 90.000000
_cell_angle_beta 90.000000
_cell_angle_gamma 90.000000
_cell_volume 4884.363936
_symmetry_space_group_name_H-M "I M M M"
_symmetry_group_IT_number 71
_symmetry_cell_setting 'orthorhombic'
loop_
_space_group_symop_operation_xyz
x,y,z
-x,-y,z
x,-y,-z
-x,y,-z
-x,-y,-z
x,y,-z
-x,y,z
x,-y,z
1/2+x,1/2+y,1/2+z
1/2-x,1/2-y,1/2+z
1/2+x,1/2-y,1/2-z
1/2-x,1/2+y,1/2-z
1/2-x,1/2-y,1/2-z
1/2+x,1/2+y,1/2-z
1/2-x,1/2+y,1/2+z
1/2+x,1/2-y,1/2+z
loop_
_atom_site_type_symbol
_atom_site_label
_atom_site_fract_x
_atom_site_fract_y
_atom_site_fract_z
Si Si1 0.361574 0.706034 0.930506
Si Si2 0.613433 0.691816 0.396985
Si Si3 0.897119 0.500000 0.000000
Si Si4 0.698604 0.796121 0.325425
Si Si5 0.698999 0.711537 0.183706
Si Si6 0.052260 0.709966 0.219352
Si Si7 0.550693 0.210436 0.138041
O O1 0.352091 0.500000 0.933059
O O2 0.331823 0.775693 0.873090
O O3 0.412880 0.728864 0.911350
O O4 0.352600 0.779523 0.000000
O O5 0.605778 0.500000 0.423767
O O6 0.603750 0.846781 0.445011
O O7 0.664155 0.706371 0.371890
O O8 0.582776 0.713677 0.334917
O O9 0.684109 0.775080 0.252495
O O10 0.749717 0.733033 0.327390
O O11 0.698435 0.000000 0.341415
O O12 0.698427 0.500000 0.186053
O O13 0.056777 0.500000 0.217436
O O14 0.063401 0.767500 0.290771
O O15 0.000000 0.750412 0.208948
O O16 0.500000 0.267509 0.125318
O O17 0.550596 0.000000 0.138262
#
# Coordination Sequence:
#
# PCOD9520469 Si02
#       7
#    16  16   4  16  16  16  16
#     4  10  21  36  51  76 114 156 200 242 294 357
#     4  12  24  41  65  91 122 163 208 252 300 370
#     4  12  26  48  61  88 128 166 208 242 307 364
#     4  10  19  36  60  89 119 152 195 254 315 357
#     4   9  19  35  57  87 115 153 201 251 304 369
#     4   9  18  37  64  92 121 152 193 249 310 361
#     4   9  19  35  57  84 113 151 197 244 297 357
#
# _framework density 20.473493999999999
#
# number of rings (size 3 to 8) (size 9 to 14) (size 15 to 20)
#    0.000    2.080    1.600    2.640    0.000    5.760 
#    1.440    4.000    0.000    0.960    0.000    0.000 
#    0.000    0.000    0.000    0.000    0.000    0.000 
#
# Total GULP energy -278781.045962 kJ/mol
# GULP energy per Si atom -5575.620919 kJ/mol
# Density = 2.042690 g / cm^3
# Si number density = 20.473494 Si / 1000 Ang^3
#
#
#
# Elastic Constant Matrix: (Units=GPa)
#
#
# Indices 1 2 3 4 5 6 
#
# 1 41.6865 -0.1448 27.1843 0.0000 0.0000 0.0000
# 2 -0.1448 83.4103 7.1430 0.0000 0.0000 0.0000
# 3 27.1843 7.1430 80.7008 0.0000 0.0000 0.0000
# 4 0.0000 0.0000 0.0000 23.2292 0.0000 0.0000
# 5 0.0000 0.0000 0.0000 0.0000 -0.1807 0.0000
# 6 0.0000 0.0000 0.0000 0.0000 0.0000 8.6091
#
#
#
# Elastic Compliance Matrix: (Units=1/GPa)
#
#
# Indices 1 2 3 4 5 6 
#
# 1 0.030816 0.000950 -0.010464 0.000000 0.000000 0.000000
# 2 0.000950 0.012110 -0.001392 0.000000 0.000000 0.000000
# 3 -0.010464 -0.001392 0.016040 0.000000 0.000000 0.000000
# 4 0.000000 0.000000 0.000000 0.043049 0.000000 0.000000
# 5 0.000000 0.000000 0.000000 0.000000 -5.533501 0.000000
# 6 0.000000 0.000000 0.000000 0.000000 0.000000 0.116157
#
#
# Mechanical properties :
#
#
# Convention : Reuss Voigt Hill
#
# Bulk Modulus (GPa) = 26.91638 30.46252 28.68945
# Shear Modulus (GPa) = -0.94677 17.77250 8.41287
#
# Velocity S-wave (km/s) = -0.68076 2.94951 2.02930
# Velocity P-wave (km/s) = 3.54367 5.14886 4.41975
#
# Compressibility (1/GPa) = 0.03715210
#
# Stress axis : x y z
#
# Youngs Moduli (GPa) = 32.45080 82.57803 62.34562
#
# Poissons Ratio (x) = -0.07842 0.65241
# Poissons Ratio (y) = -0.03082 0.08677
# Poissons Ratio (z) = 0.33958 0.11493
#
# Static dielectric constant tensor:
#      x y z
#    x 1.726750 0.000000 0.000000 
#    y 0.000000 1.762160 0.000000 
#    z 0.000000 0.000000 1.704100 
# 
# From -- ./inp_files/14986.got.cif
#   From: 2010.05.17/outbox.cif.g08.bks.cpg/sg71_8_cif.got.tgz:14986.got - 2010.06.03 16:22:01.
