data_PCOD9520548
_publ_section_title
;
Structure prediction by ZEFSAII (Michael W. Deem and Ramdas Pophale) SiO2 
 PCOD9520548
Probable space group: I M M M
;
_chemical_formula_sum "Si O2"
_cell_formula_units_Z 80
_cell_length_a 24.795474
_cell_length_b 27.304873
_cell_length_c 7.528302
_cell_angle_alpha 90.000000
_cell_angle_beta 90.000000
_cell_angle_gamma 90.000000
_cell_volume 5096.941023
_symmetry_space_group_name_H-M "I M M M"
_symmetry_group_IT_number 71
_symmetry_cell_setting 'orthorhombic'
loop_
_space_group_symop_operation_xyz
x,y,z
-x,-y,z
x,-y,-z
-x,y,-z
-x,-y,-z
x,y,-z
-x,y,z
x,-y,z
1/2+x,1/2+y,1/2+z
1/2-x,1/2-y,1/2+z
1/2+x,1/2-y,1/2-z
1/2-x,1/2+y,1/2-z
1/2-x,1/2-y,1/2-z
1/2+x,1/2+y,1/2-z
1/2-x,1/2+y,1/2+z
1/2+x,1/2-y,1/2+z
loop_
_atom_site_type_symbol
_atom_site_label
_atom_site_fract_x
_atom_site_fract_y
_atom_site_fract_z
Si Si1 0.216334 0.799484 0.287286
Si Si2 0.500000 0.898136 0.212191
Si Si3 0.885006 0.554783 0.210645
Si Si4 0.000000 0.284830 0.281772
Si Si5 0.317127 0.854212 0.285128
Si Si6 0.383980 0.244735 0.211797
O O1 0.211968 0.805382 0.500000
O O2 0.250000 0.750000 0.250000
O O3 0.256411 0.841949 0.221280
O O4 0.156703 0.786568 0.217589
O O5 0.445912 0.925827 0.268416
O O6 0.500000 0.841782 0.275294
O O7 0.500000 0.896579 0.000000
O O8 0.879454 0.500000 0.284491
O O9 0.844695 0.596305 0.282690
O O10 0.874681 0.551964 0.000000
O O11 0.944833 0.259390 0.220820
O O12 0.000000 0.285048 0.500000
O O13 0.315448 0.856214 0.500000
O O14 0.355124 0.807858 0.240066
O O15 0.387414 0.251852 0.000000
#
# Coordination Sequence:
#
# PCOD9520548 Si02
#       6
#    16   8  16   8  16  16
#     4   8  14  23  37  53  67  84 107 138 171 205
#     4  11  20  30  41  52  68  92 124 157 182 205
#     4  10  20  31  40  50  68  94 121 151 186 214
#     4   9  16  24  36  53  72  92 113 138 171 205
#     4   9  16  26  38  52  67  85 114 146 174 205
#     4   9  15  25  38  52  70  90 111 136 171 209
#
# _framework density 15.695689
#
# number of rings (size 3 to 8) (size 9 to 14) (size 15 to 20)
#    0.000    2.800    2.000    0.600    0.000    1.600 
#    0.000    0.500    0.000    0.000    0.000    0.000 
#    0.000    0.000    0.000    0.900    0.000   28.800 
#
# Total GULP energy -222761.213217 kJ/mol
# GULP energy per Si atom -5569.030330 kJ/mol
# Density = 1.565996 g / cm^3
# Si number density = 15.695689 Si / 1000 Ang^3
#
#
#
# Elastic Constant Matrix: (Units=GPa)
#
#
# Indices 1 2 3 4 5 6 
#
# 1 154.3160 80.8452 1.3319 0.0000 0.0000 0.0000
# 2 80.8452 81.7853 -0.1418 0.0000 0.0000 0.0000
# 3 1.3319 -0.1418 40.8412 0.0000 0.0000 0.0000
# 4 0.0000 0.0000 0.0000 6.0360 0.0000 0.0000
# 5 0.0000 0.0000 0.0000 0.0000 -1.9322 0.0000
# 6 0.0000 0.0000 0.0000 0.0000 0.0000 12.6089
#
#
#
# Elastic Compliance Matrix: (Units=1/GPa)
#
#
# Indices 1 2 3 4 5 6 
#
# 1 0.013450 -0.013297 -0.000485 0.000000 0.000000 0.000000
# 2 -0.013297 0.025372 0.000522 0.000000 0.000000 0.000000
# 3 -0.000485 0.000522 0.024503 0.000000 0.000000 0.000000
# 4 0.000000 0.000000 0.000000 0.165673 0.000000 0.000000
# 5 0.000000 0.000000 0.000000 0.000000 -0.517547 0.000000
# 6 0.000000 0.000000 0.000000 0.000000 0.000000 0.079309
#
#
# Mechanical properties :
#
#
# Convention : Reuss Voigt Hill
#
# Bulk Modulus (GPa) = 27.16986 49.00146 38.08566
# Shear Modulus (GPa) = -29.33368 16.33635 -6.49866
#
# Velocity S-wave (km/s) = -4.32777 3.22967 -2.03701
# Velocity P-wave (km/s) = 2.76130 6.72274 4.33419
#
# Compressibility (1/GPa) = 0.03680548
#
# Stress axis : x y z
#
# Youngs Moduli (GPa) = 74.34701 39.41374 40.81183
#
# Poissons Ratio (x) = 0.52407 0.01979
# Poissons Ratio (y) = 0.98857 -0.02129
# Poissons Ratio (z) = 0.03604 -0.02056
#
# Static dielectric constant tensor:
#      x y z
#    x 1.569110 0.000000 0.000000 
#    y 0.000000 1.519200 0.000000 
#    z 0.000000 0.000000 1.592840 
# 
# From -- ./inp_files/13052.got.cif
#   From: 2010.05.17/outbox.cif.g08.bks.cpg/sg71_7_cif.got.tgz:13052.got - 2010.06.03 16:22:01.
