data_PCOD9520020
_publ_section_title
;
Structure prediction by ZEFSAII (Michael W. Deem and Ramdas Pophale) SiO2 
 PCOD9520020
Probable space group: I M M M
;
_chemical_formula_sum "Si O2"
_cell_formula_units_Z 96
_cell_length_a 17.971092
_cell_length_b 10.077219
_cell_length_c 29.307598
_cell_angle_alpha 90.000000
_cell_angle_beta 90.000000
_cell_angle_gamma 90.000000
_cell_volume 5307.565839
_symmetry_space_group_name_H-M "I M M M"
_symmetry_group_IT_number 71
_symmetry_cell_setting 'orthorhombic'
loop_
_space_group_symop_operation_xyz
x,y,z
-x,-y,z
x,-y,-z
-x,y,-z
-x,-y,-z
x,y,-z
-x,y,z
x,-y,z
1/2+x,1/2+y,1/2+z
1/2-x,1/2-y,1/2+z
1/2+x,1/2-y,1/2-z
1/2-x,1/2+y,1/2-z
1/2-x,1/2-y,1/2-z
1/2+x,1/2+y,1/2-z
1/2-x,1/2+y,1/2+z
1/2+x,1/2-y,1/2+z
loop_
_atom_site_type_symbol
_atom_site_label
_atom_site_fract_x
_atom_site_fract_y
_atom_site_fract_z
Si Si1 0.584521 0.846849 0.719747
Si Si2 0.156332 0.155918 0.849269
Si Si3 0.822122 0.651942 0.690000
Si Si4 0.882059 0.350391 0.447267
Si Si5 0.416242 0.347470 0.871099
Si Si6 0.202767 0.157082 0.949491
O O1 0.500000 0.827971 0.737976
O O2 0.600100 0.746142 0.678896
O O3 0.647222 0.829662 0.758819
O O4 0.589848 0.000000 0.704307
O O5 0.235155 0.162743 0.822042
O O6 0.168435 0.204597 0.901580
O O7 0.135248 0.000000 0.850208
O O8 0.843647 0.500000 0.677009
O O9 0.862916 0.762939 0.660757
O O10 0.903640 0.343281 0.500000
O O11 0.900341 0.500000 0.430754
O O12 0.915869 0.233122 0.418181
O O13 0.792336 0.335095 0.444987
O O14 0.500000 0.346432 0.852366
O O15 0.392794 0.500000 0.876561
O O16 0.185678 0.000000 0.951012
O O17 0.182405 0.212549 0.000000
#
# Coordination Sequence:
#
# PCOD9520020 Si02
#       6
#    16  16  16  16  16  16
#     4  10  22  38  55  78 111 148 180 217 269 324
#     4  10  19  33  58  87 109 135 176 224 270 317
#     4  10  20  37  58  79 103 138 185 226 264 316
#     4   9  17  32  53  72  95 134 182 226 267 318
#     4  11  23  34  46  70 106 144 179 223 276 320
#     4   8  14  28  52  81 109 133 165 216 270 314
#
# _framework density 18.087388000000001
#
# number of rings (size 3 to 8) (size 9 to 14) (size 15 to 20)
#    0.000    2.333    1.667    2.500    0.000    4.333 
#    0.000    1.667    0.000    1.000    0.000    3.500 
#    0.000    0.000    0.000    0.000    0.000    0.000 
#
# Total GULP energy -267419.405140 kJ/mol
# GULP energy per Si atom -5571.237607 kJ/mol
# Density = 1.804622 g / cm^3
# Si number density = 18.087388 Si / 1000 Ang^3
#
#
#
# Elastic Constant Matrix: (Units=GPa)
#
#
# Indices 1 2 3 4 5 6 
#
# 1 16.1528 19.3375 20.4564 0.0000 0.0000 0.0000
# 2 19.3375 101.1389 42.9620 0.0000 0.0000 0.0000
# 3 20.4564 42.9620 88.4227 0.0000 0.0000 0.0000
# 4 0.0000 0.0000 0.0000 23.4782 0.0000 0.0000
# 5 0.0000 0.0000 0.0000 0.0000 -36.7236 0.0000
# 6 0.0000 0.0000 0.0000 0.0000 0.0000 23.1639
#
#
#
# Elastic Compliance Matrix: (Units=1/GPa)
#
#
# Indices 1 2 3 4 5 6 
#
# 1 0.096901 -0.011346 -0.016905 0.000000 0.000000 0.000000
# 2 -0.011346 0.013787 -0.004074 0.000000 0.000000 0.000000
# 3 -0.016905 -0.004074 0.017200 0.000000 0.000000 0.000000
# 4 0.000000 0.000000 0.000000 0.042593 0.000000 0.000000
# 5 0.000000 0.000000 0.000000 0.000000 -0.027230 0.000000
# 6 0.000000 0.000000 0.000000 0.000000 0.000000 0.043171
#
#
# Mechanical properties :
#
#
# Convention : Reuss Voigt Hill
#
# Bulk Modulus (GPa) = 15.81336 41.24736 28.53036
# Shear Modulus (GPa) = 18.37215 10.18093 14.27654
#
# Velocity S-wave (km/s) = 3.19053 2.37507 2.81251
# Velocity P-wave (km/s) = 4.72593 5.51138 5.13370
#
# Compressibility (1/GPa) = 0.06323767
#
# Stress axis : x y z
#
# Youngs Moduli (GPa) = 10.31977 72.53051 58.14069
#
# Poissons Ratio (x) = 0.82296 0.98287
# Poissons Ratio (y) = 0.11709 0.23686
# Poissons Ratio (z) = 0.17446 0.29548
#
# Static dielectric constant tensor:
#      x y z
#    x 1.623020 0.000000 0.000000 
#    y 0.000000 1.596120 0.000000 
#    z 0.000000 0.000000 1.660830 
# 
# From -- ./inp_files/14824.got.cif
#   From: 2010.05.17/outbox.cif.g08.bks.cpg/sg71_8_cif.got.tgz:14824.got - 2010.06.03 16:22:01.
