data_PCOD9520436
_publ_section_title
;
Structure prediction by ZEFSAII (Michael W. Deem and Ramdas Pophale) SiO2 
 PCOD9520436
Probable space group: I M M M
;
_chemical_formula_sum "Si O2"
_cell_formula_units_Z 120
_cell_length_a 25.635213
_cell_length_b 18.574252
_cell_length_c 12.804728
_cell_angle_alpha 90.000000
_cell_angle_beta 90.000000
_cell_angle_gamma 90.000000
_cell_volume 6097.034061
_symmetry_space_group_name_H-M "I M M M"
_symmetry_group_IT_number 71
_symmetry_cell_setting 'orthorhombic'
loop_
_space_group_symop_operation_xyz
x,y,z
-x,-y,z
x,-y,-z
-x,y,-z
-x,-y,-z
x,y,-z
-x,y,z
x,-y,z
1/2+x,1/2+y,1/2+z
1/2-x,1/2-y,1/2+z
1/2+x,1/2-y,1/2-z
1/2-x,1/2+y,1/2-z
1/2-x,1/2-y,1/2-z
1/2+x,1/2+y,1/2-z
1/2-x,1/2+y,1/2+z
1/2+x,1/2-y,1/2+z
loop_
_atom_site_type_symbol
_atom_site_label
_atom_site_fract_x
_atom_site_fract_y
_atom_site_fract_z
Si Si1 0.000000 0.415975 0.115398
Si Si2 0.410202 0.840033 0.730149
Si Si3 0.816887 0.280105 0.881609
Si Si4 0.941275 0.914471 0.124228
Si Si5 0.557495 0.718519 0.882072
Si Si6 0.648932 0.652820 0.237506
Si Si7 0.747344 0.917647 0.697548
Si Si8 0.328122 0.915831 0.881709
O O1 0.949856 0.394763 0.181094
O O2 0.000000 0.500000 0.102887
O O3 0.000000 0.381209 0.000000
O O4 0.375480 0.808932 0.636271
O O5 0.440506 0.778903 0.793117
O O6 0.370496 0.873990 0.813701
O O7 0.817353 0.217574 0.792395
O O8 0.780005 0.349971 0.861077
O O9 0.808330 0.253864 0.000000
O O10 0.893225 0.875565 0.179032
O O11 0.000000 0.890029 0.155272
O O12 0.938292 0.000000 0.146008
O O13 0.937456 0.904908 0.000000
O O14 0.500000 0.682014 0.876523
O O15 0.610594 0.675818 0.856649
O O16 0.561169 0.747940 0.000000
O O17 0.691155 0.595354 0.200506
O O18 0.725009 0.911792 0.815649
O O19 0.734549 0.000000 0.661435
O O20 0.342875 0.000000 0.885016
O O21 0.323421 0.888978 0.000000
#
# Coordination Sequence:
#
# PCOD9520436 Si02
#       8
#     8  16  16  16  16  16  16  16
#     4  11  22  34  53  83 117 151 189 236 286 339
#     4  10  19  36  56  78 110 147 189 232 281 339
#     4  10  22  38  57  82 113 150 191 238 294 355
#     4   9  18  33  55  86 123 159 192 232 293 361
#     4  10  21  37  57  80 110 150 192 234 286 341
#     4  11  21  36  59  87 116 148 194 249 298 347
#     4  10  22  39  58  83 114 151 196 242 295 357
#     4   9  18  33  53  78 109 146 187 234 287 340
#
# _framework density 19.681698999999998
#
# number of rings (size 3 to 8) (size 9 to 14) (size 15 to 20)
#    0.000    2.067    0.667    3.200    0.000    2.400 
#    0.000    1.333    0.000    2.800    0.000    4.667 
#    0.000    0.000    0.000    0.000    0.000    0.000 
#
# Total GULP energy -334259.777824 kJ/mol
# GULP energy per Si atom -5570.996297 kJ/mol
# Density = 1.963690 g / cm^3
# Si number density = 19.681699 Si / 1000 Ang^3
#
#
#
# Elastic Constant Matrix: (Units=GPa)
#
#
# Indices 1 2 3 4 5 6 
#
# 1 96.0134 21.9455 18.8890 0.0000 0.0000 0.0000
# 2 21.9455 43.8256 6.8418 0.0000 0.0000 0.0000
# 3 18.8890 6.8418 72.0009 0.0000 0.0000 0.0000
# 4 0.0000 0.0000 0.0000 17.1353 0.0000 0.0000
# 5 0.0000 0.0000 0.0000 0.0000 5.7889 0.0000
# 6 0.0000 0.0000 0.0000 0.0000 0.0000 35.5877
#
#
#
# Elastic Compliance Matrix: (Units=1/GPa)
#
#
# Indices 1 2 3 4 5 6 
#
# 1 0.012247 -0.005716 -0.002670 0.000000 0.000000 0.000000
# 2 -0.005716 0.025829 -0.000955 0.000000 0.000000 0.000000
# 3 -0.002670 -0.000955 0.014680 0.000000 0.000000 0.000000
# 4 0.000000 0.000000 0.000000 0.058359 0.000000 0.000000
# 5 0.000000 0.000000 0.000000 0.000000 0.172743 0.000000
# 6 0.000000 0.000000 0.000000 0.000000 0.000000 0.028100
#
#
# Mechanical properties :
#
#
# Convention : Reuss Voigt Hill
#
# Bulk Modulus (GPa) = 29.34717 34.13249 31.73983
# Shear Modulus (GPa) = 14.62002 22.64662 18.63332
#
# Velocity S-wave (km/s) = 2.72843 3.39579 3.08024
# Velocity P-wave (km/s) = 4.98689 5.72321 5.36769
#
# Compressibility (1/GPa) = 0.03407484
#
# Stress axis : x y z
#
# Youngs Moduli (GPa) = 81.65345 38.71626 68.12058
#
# Poissons Ratio (x) = 0.22129 0.18187
# Poissons Ratio (y) = 0.46671 0.06505
# Poissons Ratio (z) = 0.21799 0.03697
#
# Static dielectric constant tensor:
#      x y z
#    x 1.694420 0.000000 0.000000 
#    y 0.000000 1.719660 0.000000 
#    z 0.000000 0.000000 1.682190 
# 
# From -- ./inp_files/27715.got.cif
#   From: 2010.05.17/outbox.cif.g08.bks.cpg/sg71_14_cif.got.tgz:27715.got - 2010.06.03 16:22:01.
