data_PCOD9520207
_publ_section_title
;
Structure prediction by ZEFSAII (Michael W. Deem and Ramdas Pophale) SiO2 
 PCOD9520207
Probable space group: I M M M
;
_chemical_formula_sum "Si O2"
_cell_formula_units_Z 88
_cell_length_a 14.843627
_cell_length_b 17.685443
_cell_length_c 17.965687
_cell_angle_alpha 90.000000
_cell_angle_beta 90.000000
_cell_angle_gamma 90.000000
_cell_volume 4716.282430
_symmetry_space_group_name_H-M "I M M M"
_symmetry_group_IT_number 71
_symmetry_cell_setting 'orthorhombic'
loop_
_space_group_symop_operation_xyz
x,y,z
-x,-y,z
x,-y,-z
-x,y,-z
-x,-y,-z
x,y,-z
-x,y,z
x,-y,z
1/2+x,1/2+y,1/2+z
1/2-x,1/2-y,1/2+z
1/2+x,1/2-y,1/2-z
1/2-x,1/2+y,1/2-z
1/2-x,1/2-y,1/2-z
1/2+x,1/2+y,1/2-z
1/2-x,1/2+y,1/2+z
1/2+x,1/2-y,1/2+z
loop_
_atom_site_type_symbol
_atom_site_label
_atom_site_fract_x
_atom_site_fract_y
_atom_site_fract_z
Si Si1 0.106973 0.500000 0.589577
Si Si2 0.679797 0.583784 0.082736
Si Si3 0.402401 0.208980 0.732534
Si Si4 0.267832 0.873573 0.836833
Si Si5 0.600784 0.613302 0.759312
Si Si6 0.687068 0.772831 0.584221
O O1 0.109902 0.500000 0.500000
O O2 0.164040 0.429025 0.620966
O O3 0.000000 0.500000 0.610913
O O4 0.723846 0.500000 0.084923
O O5 0.619048 0.587807 0.156305
O O6 0.747558 0.654317 0.087476
O O7 0.635803 0.589424 0.000000
O O8 0.500000 0.178407 0.753902
O O9 0.322877 0.161649 0.768098
O O10 0.395196 0.295174 0.760208
O O11 0.390124 0.212880 0.644290
O O12 0.178603 0.909596 0.799071
O O13 0.237745 0.803257 0.888518
O O14 0.500000 0.591544 0.735918
O O15 0.655867 0.763398 0.500000
#
# Coordination Sequence:
#
# PCOD9520207 Si02
#       6
#     8  16  16  16  16  16
#     4  11  26  44  63  89 116 145 187 237 287 338
#     4  10  20  34  53  81 115 148 187 235 282 333
#     4  10  19  34  57  85 113 146 194 242 282 336
#     4  11  20  39  60  84 114 150 191 239 287 337
#     4  10  20  35  57  85 115 150 193 236 283 340
#     4  10  19  35  58  81 112 153 188 227 289 346
#
# _framework density 18.658764999999999
#
# number of rings (size 3 to 8) (size 9 to 14) (size 15 to 20)
#    0.000    1.727    3.636    2.182    1.273    1.091 
#    0.000    0.909    0.000    2.182    0.000    2.545 
#    0.000    0.000    0.000    0.000    0.000    0.000 
#
# Total GULP energy -245257.255187 kJ/mol
# GULP energy per Si atom -5574.028527 kJ/mol
# Density = 1.861630 g / cm^3
# Si number density = 18.658765 Si / 1000 Ang^3
#
#
#
# Elastic Constant Matrix: (Units=GPa)
#
#
# Indices 1 2 3 4 5 6 
#
# 1 108.7148 37.6982 36.2375 0.0000 0.0000 0.0000
# 2 37.6982 88.8035 36.4519 0.0000 0.0000 0.0000
# 3 36.2375 36.4519 121.7565 0.0000 0.0000 0.0000
# 4 0.0000 0.0000 0.0000 12.8651 0.0000 0.0000
# 5 0.0000 0.0000 0.0000 0.0000 21.5955 0.0000
# 6 0.0000 0.0000 0.0000 0.0000 0.0000 -0.2930
#
#
#
# Elastic Compliance Matrix: (Units=1/GPa)
#
#
# Indices 1 2 3 4 5 6 
#
# 1 0.011277 -0.003887 -0.002193 0.000000 0.000000 0.000000
# 2 -0.003887 0.014179 -0.003088 0.000000 0.000000 0.000000
# 3 -0.002193 -0.003088 0.009790 0.000000 0.000000 0.000000
# 4 0.000000 0.000000 0.000000 0.077730 0.000000 0.000000
# 5 0.000000 0.000000 0.000000 0.000000 0.046306 0.000000
# 6 0.000000 0.000000 0.000000 0.000000 0.000000 -3.413509
#
#
# Mechanical properties :
#
#
# Convention : Reuss Voigt Hill
#
# Bulk Modulus (GPa) = 59.13527 60.00556 59.57042
# Shear Modulus (GPa) = -1.54787 20.75934 9.60574
#
# Velocity S-wave (km/s) = -0.91179 3.33915 2.27141
# Velocity P-wave (km/s) = 5.53655 6.86264 6.23495
#
# Compressibility (1/GPa) = 0.01691038
#
# Stress axis : x y z
#
# Youngs Moduli (GPa) = 88.67456 70.52914 102.14373
#
# Poissons Ratio (x) = 0.27417 0.22396
# Poissons Ratio (y) = 0.34471 0.31541
# Poissons Ratio (z) = 0.19442 0.21778
#
# Static dielectric constant tensor:
#      x y z
#    x 1.636320 0.000000 0.000000 
#    y 0.000000 1.651700 0.000000 
#    z 0.000000 0.000000 1.638220 
# 
# From -- ./inp_files/36346.got.cif
#   From: 2010.05.17/outbox.cif.g08.bks.cpg/sg71_19_cif.got.tgz:36346.got - 2010.06.03 16:22:01.
