data_PCOD9520129
_publ_section_title
;
Structure prediction by ZEFSAII (Michael W. Deem and Ramdas Pophale) SiO2 
 PCOD9520129
Probable space group: I M M M
;
_chemical_formula_sum "Si O2"
_cell_formula_units_Z 66
_cell_length_a 24.341110
_cell_length_b 16.647430
_cell_length_c 7.316381
_cell_angle_alpha 90.000000
_cell_angle_beta 90.000000
_cell_angle_gamma 90.000000
_cell_volume 2964.721410
_symmetry_space_group_name_H-M "I M M M"
_symmetry_group_IT_number 71
_symmetry_cell_setting 'orthorhombic'
loop_
_space_group_symop_operation_xyz
x,y,z
-x,-y,z
x,-y,-z
-x,y,-z
-x,-y,-z
x,y,-z
-x,y,z
x,-y,z
1/2+x,1/2+y,1/2+z
1/2-x,1/2-y,1/2+z
1/2+x,1/2-y,1/2-z
1/2-x,1/2+y,1/2-z
1/2-x,1/2-y,1/2-z
1/2+x,1/2+y,1/2-z
1/2-x,1/2+y,1/2+z
1/2+x,1/2-y,1/2+z
loop_
_atom_site_type_symbol
_atom_site_label
_atom_site_fract_x
_atom_site_fract_y
_atom_site_fract_z
Si Si1 0.609659 0.319765 0.289510
Si Si2 0.719822 0.408545 0.779072
Si Si3 0.101446 0.500000 0.781581
Si Si4 0.500000 0.000000 0.000000
Si Si5 0.831098 0.338153 0.779099
Si Si6 0.500000 0.406849 0.275885
O O1 0.596001 0.300875 0.500000
O O2 0.660058 0.381738 0.284042
O O3 0.634918 0.238027 0.208438
O O4 0.554698 0.360107 0.213843
O O5 0.731894 0.500000 0.724143
O O6 0.768485 0.349816 0.714986
O O7 0.719427 0.406793 0.000000
O O8 0.136940 0.579535 0.741899
O O9 0.047889 0.500000 0.659261
O O10 0.089683 0.500000 0.000000
O O11 0.827965 0.329652 0.000000
O O12 0.500000 0.500000 0.218900
O O13 0.500000 0.408322 0.500000
#
# Coordination Sequence:
#
# PCOD9520129 Si02
#       6
#    16  16   8   2  16   8
#     4  10  20  34  56  86 109 145 202 249 297 364
#     4  10  19  34  55  82 116 153 192 238 306 383
#     4  10  21  43  65  86 127 174 203 262 318 362
#     4  12  26  40  60 102 120 156 236 250 292 382
#     4   9  18  36  61  83 112 156 200 240 309 371
#     4   9  18  33  51  73 111 145 179 234 293 361
#
# _framework density 22.261787999999999
#
# number of rings (size 3 to 8) (size 9 to 14) (size 15 to 20)
#    0.000    2.303    1.212    1.636    0.000    2.424 
#    4.364    4.242    0.000    2.182    0.000    0.000 
#    0.000    0.000    0.000    0.000    0.000    0.000 
#
# Total GULP energy -184143.349714 kJ/mol
# GULP energy per Si atom -5580.101506 kJ/mol
# Density = 2.221112 g / cm^3
# Si number density = 22.261788 Si / 1000 Ang^3
#
#
#
# Elastic Constant Matrix: (Units=GPa)
#
#
# Indices 1 2 3 4 5 6 
#
# 1 225.1671 85.1703 13.4510 0.0000 0.0000 0.0000
# 2 85.1703 149.8923 0.8606 0.0000 0.0000 0.0000
# 3 13.4510 0.8606 88.6506 0.0000 0.0000 0.0000
# 4 0.0000 0.0000 0.0000 -0.8950 0.0000 0.0000
# 5 0.0000 0.0000 0.0000 0.0000 57.7288 0.0000
# 6 0.0000 0.0000 0.0000 0.0000 0.0000 93.1686
#
#
#
# Elastic Compliance Matrix: (Units=1/GPa)
#
#
# Indices 1 2 3 4 5 6 
#
# 1 0.005718 -0.003244 -0.000836 0.000000 0.000000 0.000000
# 2 -0.003244 0.008513 0.000410 0.000000 0.000000 0.000000
# 3 -0.000836 0.000410 0.011403 0.000000 0.000000 0.000000
# 4 0.000000 0.000000 0.000000 -1.117354 0.000000 0.000000
# 5 0.000000 0.000000 0.000000 0.000000 0.017322 0.000000
# 6 0.000000 0.000000 0.000000 0.000000 0.000000 0.010733
#
#
# Mechanical properties :
#
#
# Convention : Reuss Voigt Hill
#
# Bulk Modulus (GPa) = 54.66802 73.63042 64.14922
# Shear Modulus (GPa) = -4.76089 54.28234 24.76073
#
# Velocity S-wave (km/s) = -1.46398 4.94334 3.33866
# Velocity P-wave (km/s) = 4.66396 8.10732 6.61367
#
# Compressibility (1/GPa) = 0.01829223
#
# Stress axis : x y z
#
# Youngs Moduli (GPa) = 174.87708 117.47286 87.69516
#
# Poissons Ratio (x) = 0.38113 0.07333
# Poissons Ratio (y) = 0.56737 -0.03592
# Poissons Ratio (z) = 0.14622 -0.04812
#
# Static dielectric constant tensor:
#      x y z
#    x 1.765750 0.000000 0.000000 
#    y 0.000000 1.799890 0.000000 
#    z 0.000000 0.000000 1.858430 
# 
# From -- ./inp_files/9668.got.cif
#   From: 2010.05.17/outbox.cif.g08.bks.cpg/sg71_5_cif.got.tgz:9668.got - 2010.06.03 16:22:01.
