data_PCOD9520920
_publ_section_title
;
Structure prediction by ZEFSAII (Michael W. Deem and Ramdas Pophale) SiO2 
 PCOD9520920
Probable space group: I M M M
;
_chemical_formula_sum "Si O2"
_cell_formula_units_Z 56
_cell_length_a 8.783601
_cell_length_b 12.501860
_cell_length_c 31.101319
_cell_angle_alpha 90.000000
_cell_angle_beta 90.000000
_cell_angle_gamma 90.000000
_cell_volume 3415.277826
_symmetry_space_group_name_H-M "I M M M"
_symmetry_group_IT_number 71
_symmetry_cell_setting 'orthorhombic'
loop_
_space_group_symop_operation_xyz
x,y,z
-x,-y,z
x,-y,-z
-x,y,-z
-x,-y,-z
x,y,-z
-x,y,z
x,-y,z
1/2+x,1/2+y,1/2+z
1/2-x,1/2-y,1/2+z
1/2+x,1/2-y,1/2-z
1/2-x,1/2+y,1/2-z
1/2-x,1/2-y,1/2-z
1/2+x,1/2+y,1/2-z
1/2-x,1/2+y,1/2+z
1/2+x,1/2-y,1/2+z
loop_
_atom_site_type_symbol
_atom_site_label
_atom_site_fract_x
_atom_site_fract_y
_atom_site_fract_z
Si Si1 0.320514 0.619353 0.856365
Si Si2 0.181436 0.834985 0.884159
Si Si3 0.682435 0.000000 0.949599
Si Si4 0.817709 0.500000 0.217812
Si Si5 0.683075 0.000000 0.181894
O O1 0.500000 0.642216 0.853743
O O2 0.301329 0.500000 0.876169
O O3 0.235573 0.713221 0.880706
O O4 0.251751 0.600321 0.808566
O O5 0.248950 0.898090 0.842988
O O6 0.000000 0.843236 0.884225
O O7 0.248964 0.897485 0.925096
O O8 0.500000 0.000000 0.944181
O O9 0.718073 0.000000 0.000000
O O10 0.778245 0.500000 0.267797
O O11 0.000000 0.500000 0.213388
O O12 0.500000 0.000000 0.177519
#
# Coordination Sequence:
#
# PCOD9520920 Si02
#       5
#    16  16   8   8   8
#     4   9  19  34  52  72 100 140 178 214 255 303
#     4  11  21  33  54  78 105 136 169 214 258 305
#     4  10  21  38  60  83 107 133 163 202 253 312
#     4   9  18  32  49  73 100 135 180 223 258 293
#     4  10  20  33  49  71 104 139 177 219 260 308
#
# _framework density 16.396909999999998
#
# number of rings (size 3 to 8) (size 9 to 14) (size 15 to 20)
#    0.857    1.286    0.000    6.000    0.000    4.571 
#    0.000    0.000    0.000    0.857    0.000    6.000 
#    0.000    0.000    0.000    0.000    0.000    0.000 
#
# Total GULP energy -156005.753393 kJ/mol
# GULP energy per Si atom -5571.634050 kJ/mol
# Density = 1.635959 g / cm^3
# Si number density = 16.396910 Si / 1000 Ang^3
#
#
#
# Elastic Constant Matrix: (Units=GPa)
#
#
# Indices 1 2 3 4 5 6 
#
# 1 118.3627 61.2344 64.2057 0.0000 0.0000 0.0000
# 2 61.2344 103.0548 63.0058 0.0000 0.0000 0.0000
# 3 64.2057 63.0058 117.8990 0.0000 0.0000 0.0000
# 4 0.0000 0.0000 0.0000 -14.2533 0.0000 0.0000
# 5 0.0000 0.0000 0.0000 0.0000 24.1236 0.0000
# 6 0.0000 0.0000 0.0000 0.0000 0.0000 20.7053
#
#
#
# Elastic Compliance Matrix: (Units=1/GPa)
#
#
# Indices 1 2 3 4 5 6 
#
# 1 0.013708 -0.005319 -0.004623 0.000000 0.000000 0.000000
# 2 -0.005319 0.016476 -0.005908 0.000000 0.000000 0.000000
# 3 -0.004623 -0.005908 0.014157 0.000000 0.000000 0.000000
# 4 0.000000 0.000000 0.000000 -0.070159 0.000000 0.000000
# 5 0.000000 0.000000 0.000000 0.000000 0.041453 0.000000
# 6 0.000000 0.000000 0.000000 0.000000 0.000000 0.048297
#
#
# Mechanical properties :
#
#
# Convention : Reuss Voigt Hill
#
# Bulk Modulus (GPa) = 79.10775 79.57869 79.34322
# Shear Modulus (GPa) = 50.07745 16.17316 33.12530
#
# Velocity S-wave (km/s) = 5.53237 3.14403 4.49956
# Velocity P-wave (km/s) = 9.44244 7.86244 8.68843
#
# Compressibility (1/GPa) = 0.01264099
#
# Stress axis : x y z
#
# Youngs Moduli (GPa) = 72.95088 60.69304 70.63786
#
# Poissons Ratio (x) = 0.32282 0.32653
# Poissons Ratio (y) = 0.38802 0.41736
# Poissons Ratio (z) = 0.33722 0.35860
#
# Static dielectric constant tensor:
#      x y z
#    x 1.545110 0.000000 0.000000 
#    y 0.000000 1.563650 0.000000 
#    z 0.000000 0.000000 1.525310 
# 
# From -- ./inp_files/67669.got.cif
#   From: 2010.05.17/outbox.cif.g08.bks.cpg/sg71_34_cif.got.tgz:67669.got - 2010.06.03 16:22:01.
