data_PCOD9520624
_publ_section_title
;
Structure prediction by ZEFSAII (Michael W. Deem and Ramdas Pophale) SiO2 
 PCOD9520624
Probable space group: I M M M
;
_chemical_formula_sum "Si O2"
_cell_formula_units_Z 88
_cell_length_a 8.038458
_cell_length_b 18.515966
_cell_length_c 31.539326
_cell_angle_alpha 90.000000
_cell_angle_beta 90.000000
_cell_angle_gamma 90.000000
_cell_volume 4694.307448
_symmetry_space_group_name_H-M "I M M M"
_symmetry_group_IT_number 71
_symmetry_cell_setting 'orthorhombic'
loop_
_space_group_symop_operation_xyz
x,y,z
-x,-y,z
x,-y,-z
-x,y,-z
-x,-y,-z
x,y,-z
-x,y,z
x,-y,z
1/2+x,1/2+y,1/2+z
1/2-x,1/2-y,1/2+z
1/2+x,1/2-y,1/2-z
1/2-x,1/2+y,1/2-z
1/2-x,1/2-y,1/2-z
1/2+x,1/2+y,1/2-z
1/2-x,1/2+y,1/2+z
1/2+x,1/2-y,1/2+z
loop_
_atom_site_type_symbol
_atom_site_label
_atom_site_fract_x
_atom_site_fract_y
_atom_site_fract_z
Si Si1 0.195661 0.078166 0.172535
Si Si2 0.796887 0.916266 0.548225
Si Si3 0.800640 0.916436 0.000000
Si Si4 0.300060 0.699818 0.117255
Si Si5 0.196731 0.358138 0.410682
Si Si6 0.301283 0.733677 0.297732
O O1 0.214811 0.088562 0.122151
O O2 0.266682 0.153312 0.190722
O O3 0.000000 0.076911 0.183246
O O4 0.267230 0.000000 0.185240
O O5 0.746706 0.894233 0.500000
O O6 0.738908 0.864467 0.586524
O O7 0.000000 0.914761 0.548426
O O8 0.747519 0.000000 0.554406
O O9 0.731615 0.879357 0.041720
O O10 0.000000 0.912319 0.000000
O O11 0.750620 0.000000 0.000000
O O12 0.500000 0.696954 0.115319
O O13 0.243912 0.776651 0.098107
O O14 0.254720 0.707948 0.166906
O O15 0.000000 0.361356 0.401967
O O16 0.500000 0.730878 0.300567
O O17 0.250000 0.750000 0.250000
#
# Coordination Sequence:
#
# PCOD9520624 Si02
#       6
#    16  16   8  16  16  16
#     4   9  18  34  54  73  95 126 163 201 243 294
#     4   8  14  26  48  77 105 135 173 214 252 295
#     4  11  23  35  45  61  92 133 170 202 237 279
#     4   9  18  32  52  76 103 132 165 206 254 301
#     4  10  20  31  47  72  99 127 161 203 247 289
#     4  10  20  35  55  76 101 130 166 208 255 306
#
# _framework density 18.746109000000001
#
# number of rings (size 3 to 8) (size 9 to 14) (size 15 to 20)
#    0.000    2.636    0.000    2.455    1.273    4.727 
#    0.000    0.909    0.000    6.000    0.000    1.273 
#    0.000    0.000    0.000    0.000    0.000    0.000 
#
# Total GULP energy -245179.020788 kJ/mol
# GULP energy per Si atom -5572.250472 kJ/mol
# Density = 1.870344 g / cm^3
# Si number density = 18.746109 Si / 1000 Ang^3
#
#
#
# Elastic Constant Matrix: (Units=GPa)
#
#
# Indices 1 2 3 4 5 6 
#
# 1 12.4977 9.4377 -1.1881 0.0000 0.0000 0.0000
# 2 9.4377 106.0984 72.9885 0.0000 0.0000 0.0000
# 3 -1.1881 72.9885 145.0271 0.0000 0.0000 0.0000
# 4 0.0000 0.0000 0.0000 20.0854 0.0000 0.0000
# 5 0.0000 0.0000 0.0000 0.0000 21.2745 0.0000
# 6 0.0000 0.0000 0.0000 0.0000 0.0000 13.9210
#
#
#
# Elastic Compliance Matrix: (Units=1/GPa)
#
#
# Indices 1 2 3 4 5 6 
#
# 1 0.090612 -0.013110 0.007340 0.000000 0.000000 0.000000
# 2 -0.013110 0.016313 -0.008317 0.000000 0.000000 0.000000
# 3 0.007340 -0.008317 0.011141 0.000000 0.000000 0.000000
# 4 0.000000 0.000000 0.000000 0.049787 0.000000 0.000000
# 5 0.000000 0.000000 0.000000 0.000000 0.047005 0.000000
# 6 0.000000 0.000000 0.000000 0.000000 0.000000 0.071834
#
#
# Mechanical properties :
#
#
# Convention : Reuss Voigt Hill
#
# Bulk Modulus (GPa) = 11.12434 47.34437 29.23436
# Shear Modulus (GPa) = 14.49985 23.21518 18.85751
#
# Velocity S-wave (km/s) = 2.78418 3.52291 3.17510
# Velocity P-wave (km/s) = 4.03517 6.46979 5.39170
#
# Compressibility (1/GPa) = 0.08989296
#
# Stress axis : x y z
#
# Youngs Moduli (GPa) = 11.03602 61.30030 89.75596
#
# Poissons Ratio (x) = 0.80362 -0.65882
# Poissons Ratio (y) = 0.14468 0.74653
# Poissons Ratio (z) = -0.08101 0.50986
#
# Static dielectric constant tensor:
#      x y z
#    x 1.678030 0.000000 0.000000 
#    y 0.000000 1.672940 0.000000 
#    z 0.000000 0.000000 1.649730 
# 
# From -- ./inp_files/8783.got.cif
#   From: 2010.05.17/outbox.cif.g08.bks.cpg/sg71_5_cif.got.tgz:8783.got - 2010.06.03 16:22:01.
