data_PCOD9520530
_publ_section_title
;
Structure prediction by ZEFSAII (Michael W. Deem and Ramdas Pophale) SiO2 
 PCOD9520530
Probable space group: I M M M
;
_chemical_formula_sum "Si O2"
_cell_formula_units_Z 104
_cell_length_a 7.583939
_cell_length_b 28.350719
_cell_length_c 24.880356
_cell_angle_alpha 90.000000
_cell_angle_beta 90.000000
_cell_angle_gamma 90.000000
_cell_volume 5349.528416
_symmetry_space_group_name_H-M "I M M M"
_symmetry_group_IT_number 71
_symmetry_cell_setting 'orthorhombic'
loop_
_space_group_symop_operation_xyz
x,y,z
-x,-y,z
x,-y,-z
-x,y,-z
-x,-y,-z
x,y,-z
-x,y,z
x,-y,z
1/2+x,1/2+y,1/2+z
1/2-x,1/2-y,1/2+z
1/2+x,1/2-y,1/2-z
1/2-x,1/2+y,1/2-z
1/2-x,1/2-y,1/2-z
1/2+x,1/2+y,1/2-z
1/2-x,1/2+y,1/2+z
1/2+x,1/2-y,1/2+z
loop_
_atom_site_type_symbol
_atom_site_label
_atom_site_fract_x
_atom_site_fract_y
_atom_site_fract_z
Si Si1 0.284693 0.946664 0.937304
Si Si2 0.704765 0.104890 0.440192
Si Si3 0.788068 0.303832 0.264024
Si Si4 0.786743 0.625895 0.828065
Si Si5 0.798873 0.625193 0.650865
Si Si6 0.302593 0.500000 0.935269
Si Si7 0.208618 0.946626 0.242606
O O1 0.500000 0.946598 0.934492
O O2 0.219985 0.904338 0.899003
O O3 0.229212 0.000000 0.920469
O O4 0.237076 0.940497 0.000000
O O5 0.783559 0.110532 0.500000
O O6 0.500000 0.118230 0.444379
O O7 0.782418 0.130933 0.388549
O O8 0.711822 0.049581 0.424103
O O9 0.750000 0.250000 0.250000
O O10 0.722525 0.335149 0.214024
O O11 0.721237 0.328244 0.319563
O O12 0.000000 0.309111 0.266366
O O13 0.738381 0.576341 0.800716
O O14 0.000000 0.628406 0.830133
O O15 0.799327 0.586956 0.699123
O O16 0.000000 0.636889 0.635156
O O17 0.500000 0.500000 0.912268
O O18 0.315319 0.500000 0.000000
O O19 0.000000 0.945830 0.231204
O O20 0.272438 0.000000 0.239786
#
# Coordination Sequence:
#
# PCOD9520530 Si02
#       7
#    16  16  16  16  16   8  16
#     4   8  13  22  41  71 101 126 153 184 217 257
#     4   9  17  30  47  65  86 115 152 190 223 258
#     4   9  18  32  49  68  87 111 148 191 238 285
#     4   9  19  33  48  67  88 114 151 189 227 275
#     4   9  17  30  48  69  92 120 155 190 225 271
#     4   9  17  27  39  59  89 123 153 179 210 251
#     4  10  20  30  41  63  94 124 153 186 224 268
#
# _framework density 19.440966
#
# number of rings (size 3 to 8) (size 9 to 14) (size 15 to 20)
#    0.000    3.000    0.000    2.538    1.077    5.846 
#    0.000    0.000    0.000    1.385    0.000    2.154 
#    0.000    0.000    0.000    0.000    0.000    0.615 
#
# Total GULP energy -289550.000987 kJ/mol
# GULP energy per Si atom -5568.269250 kJ/mol
# Density = 1.939672 g / cm^3
# Si number density = 19.440966 Si / 1000 Ang^3
#
#
#
# Elastic Constant Matrix: (Units=GPa)
#
#
# Indices 1 2 3 4 5 6 
#
# 1 48.4075 -3.9067 -1.1786 0.0000 0.0000 0.0000
# 2 -3.9067 105.7110 41.3739 0.0000 0.0000 0.0000
# 3 -1.1786 41.3739 105.1420 0.0000 0.0000 0.0000
# 4 0.0000 0.0000 0.0000 21.9270 0.0000 0.0000
# 5 0.0000 0.0000 0.0000 0.0000 -6.6029 0.0000
# 6 0.0000 0.0000 0.0000 0.0000 0.0000 15.3529
#
#
#
# Elastic Compliance Matrix: (Units=1/GPa)
#
#
# Indices 1 2 3 4 5 6 
#
# 1 0.020720 0.000798 -0.000082 0.000000 0.000000 0.000000
# 2 0.000798 0.011213 -0.004403 0.000000 0.000000 0.000000
# 3 -0.000082 -0.004403 0.011243 0.000000 0.000000 0.000000
# 4 0.000000 0.000000 0.000000 0.045606 0.000000 0.000000
# 5 0.000000 0.000000 0.000000 0.000000 -0.151448 0.000000
# 6 0.000000 0.000000 0.000000 0.000000 0.000000 0.065134
#
#
# Mechanical properties :
#
#
# Convention : Reuss Voigt Hill
#
# Bulk Modulus (GPa) = 27.93192 36.87082 32.40137
# Shear Modulus (GPa) = 229.60622 21.00018 125.30320
#
# Velocity S-wave (km/s) = 10.87937 3.29021 8.03698
# Velocity P-wave (km/s) = 13.12300 5.78279 10.14036
#
# Compressibility (1/GPa) = 0.03580133
#
# Stress axis : x y z
#
# Youngs Moduli (GPa) = 48.26170 89.18522 88.94627
#
# Poissons Ratio (x) = -0.07114 0.00726
# Poissons Ratio (y) = -0.03850 0.39165
# Poissons Ratio (z) = 0.00394 0.39271
#
# Static dielectric constant tensor:
#      x y z
#    x 1.738020 0.000000 0.000000 
#    y 0.000000 1.679610 0.000000 
#    z 0.000000 0.000000 1.724650 
# 
# From -- ./inp_files/58214.got.cif
#   From: 2010.05.17/outbox.cif.g08.bks.cpg/sg71_30_cif.got.tgz:58214.got - 2010.06.03 16:22:01.
