data_PCOD9520190
_publ_section_title
;
Structure prediction by ZEFSAII (Michael W. Deem and Ramdas Pophale) SiO2 
 PCOD9520190
Probable space group: I M M M
;
_chemical_formula_sum "Si O2"
_cell_formula_units_Z 96
_cell_length_a 14.431158
_cell_length_b 22.804344
_cell_length_c 14.580701
_cell_angle_alpha 90.000000
_cell_angle_beta 90.000000
_cell_angle_gamma 90.000000
_cell_volume 4798.407966
_symmetry_space_group_name_H-M "I M M M"
_symmetry_group_IT_number 71
_symmetry_cell_setting 'orthorhombic'
loop_
_space_group_symop_operation_xyz
x,y,z
-x,-y,z
x,-y,-z
-x,y,-z
-x,-y,-z
x,y,-z
-x,y,z
x,-y,z
1/2+x,1/2+y,1/2+z
1/2-x,1/2-y,1/2+z
1/2+x,1/2-y,1/2-z
1/2-x,1/2+y,1/2-z
1/2-x,1/2-y,1/2-z
1/2+x,1/2+y,1/2-z
1/2-x,1/2+y,1/2+z
1/2+x,1/2-y,1/2+z
loop_
_atom_site_type_symbol
_atom_site_label
_atom_site_fract_x
_atom_site_fract_y
_atom_site_fract_z
Si Si1 0.609322 0.716512 0.105073
Si Si2 0.283518 0.930364 0.109214
Si Si3 0.600674 0.432941 0.294210
Si Si4 0.308061 0.588399 0.103606
Si Si5 0.607368 0.828814 0.208092
Si Si6 0.604023 0.886126 0.394928
O O1 0.500000 0.701879 0.124662
O O2 0.670472 0.657997 0.109452
O O3 0.645926 0.767778 0.170409
O O4 0.611959 0.738115 0.000000
O O5 0.182863 0.908717 0.143925
O O6 0.351934 0.887056 0.161869
O O7 0.295050 0.000000 0.132820
O O8 0.292706 0.925315 0.000000
O O9 0.500000 0.404176 0.301318
O O10 0.592300 0.500000 0.325448
O O11 0.634028 0.434989 0.188830
O O12 0.198245 0.576303 0.116020
O O13 0.334754 0.570113 0.000000
O O14 0.500000 0.826540 0.181498
O O15 0.612795 0.837050 0.317100
O O16 0.607833 0.864769 0.500000
O O17 0.500000 0.912972 0.382632
#
# Coordination Sequence:
#
# PCOD9520190 Si02
#       6
#    16  16  16  16  16  16
#     4   9  18  31  50  80 112 141 175 216 266 318
#     4  10  21  37  56  79 107 139 177 220 267 318
#     4  10  21  37  56  79 107 139 177 220 267 318
#     4  10  19  34  57  81 108 143 180 220 265 313
#     4  10  19  34  57  81 108 143 180 220 265 313
#     4   9  18  33  53  78 108 142 179 217 262 316
#
# _framework density 20.006634999999999
#
# number of rings (size 3 to 8) (size 9 to 14) (size 15 to 20)
#    0.000    2.333    1.667    1.000    0.000    3.667 
#    0.000    3.333    0.000    1.000    0.000    4.667 
#    0.000    0.000    0.000    0.000    0.000    0.000 
#
# Total GULP energy -267325.251845 kJ/mol
# GULP energy per Si atom -5569.276080 kJ/mol
# Density = 1.996110 g / cm^3
# Si number density = 20.006635 Si / 1000 Ang^3
#
#
#
# Elastic Constant Matrix: (Units=GPa)
#
#
# Indices 1 2 3 4 5 6 
#
# 1 72.0114 15.6266 6.2798 0.0000 0.0000 0.0000
# 2 15.6266 60.1903 23.7751 0.0000 0.0000 0.0000
# 3 6.2798 23.7751 53.2418 0.0000 0.0000 0.0000
# 4 0.0000 0.0000 0.0000 20.0448 0.0000 0.0000
# 5 0.0000 0.0000 0.0000 0.0000 21.3201 0.0000
# 6 0.0000 0.0000 0.0000 0.0000 0.0000 10.6608
#
#
#
# Elastic Compliance Matrix: (Units=1/GPa)
#
#
# Indices 1 2 3 4 5 6 
#
# 1 0.014716 -0.003806 -0.000036 0.000000 0.000000 0.000000
# 2 -0.003806 0.021157 -0.008999 0.000000 0.000000 0.000000
# 3 -0.000036 -0.008999 0.022805 0.000000 0.000000 0.000000
# 4 0.000000 0.000000 0.000000 0.049888 0.000000 0.000000
# 5 0.000000 0.000000 0.000000 0.000000 0.046904 0.000000
# 6 0.000000 0.000000 0.000000 0.000000 0.000000 0.093802
#
#
# Mechanical properties :
#
#
# Convention : Reuss Voigt Hill
#
# Bulk Modulus (GPa) = 30.30716 30.75629 30.53173
# Shear Modulus (GPa) = 17.48550 19.72261 18.60406
#
# Velocity S-wave (km/s) = 2.95953 3.14316 3.05273
# Velocity P-wave (km/s) = 5.18265 5.34593 5.26493
#
# Compressibility (1/GPa) = 0.03299550
#
# Stress axis : x y z
#
# Youngs Moduli (GPa) = 67.95418 47.26666 43.85050
#
# Poissons Ratio (x) = 0.17991 0.00158
# Poissons Ratio (y) = 0.25865 0.39459
# Poissons Ratio (z) = 0.00245 0.42533
#
# Static dielectric constant tensor:
#      x y z
#    x 1.785010 0.000000 0.000000 
#    y 0.000000 1.697360 0.000000 
#    z 0.000000 0.000000 1.700680 
# 
# From -- ./inp_files/34490.got.cif
#   From: 2010.05.17/outbox.cif.g08.bks.cpg/sg71_18_cif.got.tgz:34490.got - 2010.06.03 16:22:01.
