data_PCOD9520911
_publ_section_title
;
Structure prediction by ZEFSAII (Michael W. Deem and Ramdas Pophale) SiO2 
 PCOD9520911
Probable space group: I M M M
;
_chemical_formula_sum "Si O2"
_cell_formula_units_Z 66
_cell_length_a 25.385747
_cell_length_b 7.287692
_cell_length_c 15.662863
_cell_angle_alpha 90.000000
_cell_angle_beta 90.000000
_cell_angle_gamma 90.000000
_cell_volume 2897.684558
_symmetry_space_group_name_H-M "I M M M"
_symmetry_group_IT_number 71
_symmetry_cell_setting 'orthorhombic'
loop_
_space_group_symop_operation_xyz
x,y,z
-x,-y,z
x,-y,-z
-x,y,-z
-x,-y,-z
x,y,-z
-x,y,z
x,-y,z
1/2+x,1/2+y,1/2+z
1/2-x,1/2-y,1/2+z
1/2+x,1/2-y,1/2-z
1/2-x,1/2+y,1/2-z
1/2-x,1/2-y,1/2-z
1/2+x,1/2+y,1/2-z
1/2-x,1/2+y,1/2+z
1/2+x,1/2-y,1/2+z
loop_
_atom_site_type_symbol
_atom_site_label
_atom_site_fract_x
_atom_site_fract_y
_atom_site_fract_z
Si Si1 0.500000 0.284895 0.844139
Si Si2 0.939239 0.223338 0.000000
Si Si3 0.648239 0.276431 0.364240
Si Si4 0.266140 0.278113 0.500000
Si Si5 0.855603 0.792058 0.500000
Si Si6 0.884550 0.219685 0.314531
Si Si7 0.000000 0.500000 0.500000
O O1 0.500000 0.500000 0.868412
O O2 0.554024 0.251265 0.794491
O O3 0.500000 0.158889 0.926142
O O4 0.903720 0.277799 0.918137
O O5 0.000000 0.284462 0.000000
O O6 0.940387 0.000000 0.000000
O O7 0.647672 0.500000 0.363384
O O8 0.699441 0.222092 0.418074
O O9 0.647587 0.212290 0.266738
O O10 0.262759 0.500000 0.500000
O O11 0.207355 0.205869 0.500000
O O12 0.873413 0.707440 0.590186
O O13 0.877143 0.000000 0.500000
O O14 0.875007 0.000000 0.319765
#
# Coordination Sequence:
#
# PCOD9520911 Si02
#       7
#     8   8  16   8   8  16   2
#     4  10  21  37  59  83 113 153 187 221 288 344
#     4   8  13  20  38  73 106 129 162 211 268 323
#     4   8  15  28  48  74 105 135 169 220 273 322
#     4   9  18  34  52  75 104 136 175 225 280 326
#     4  10  20  33  49  70  99 135 184 227 267 321
#     4   9  18  33  53  78 106 142 182 221 266 332
#     4  12  22  36  56  78 116 158 186 240 264 310
#
# _framework density 22.776805
#
# number of rings (size 3 to 8) (size 9 to 14) (size 15 to 20)
#    0.000    3.030    0.000    2.364    1.697    2.909 
#    4.364    0.000    2.667    0.000    0.000    0.000 
#    0.000    3.879    0.000    0.242    0.000    0.000 
#
# Total GULP energy -183967.623341 kJ/mol
# GULP energy per Si atom -5574.776465 kJ/mol
# Density = 2.272496 g / cm^3
# Si number density = 22.776805 Si / 1000 Ang^3
#
#
#
# Elastic Constant Matrix: (Units=GPa)
#
#
# Indices 1 2 3 4 5 6 
#
# 1 105.0952 -4.0008 40.1241 0.0000 0.0000 0.0000
# 2 -4.0008 89.1628 0.2518 0.0000 0.0000 0.0000
# 3 40.1241 0.2518 172.4069 0.0000 0.0000 0.0000
# 4 0.0000 0.0000 0.0000 -18.0559 0.0000 0.0000
# 5 0.0000 0.0000 0.0000 0.0000 11.1486 0.0000
# 6 0.0000 0.0000 0.0000 0.0000 0.0000 3.7728
#
#
#
# Elastic Compliance Matrix: (Units=1/GPa)
#
#
# Indices 1 2 3 4 5 6 
#
# 1 0.010463 0.000476 -0.002436 0.000000 0.000000 0.000000
# 2 0.000476 0.011237 -0.000127 0.000000 0.000000 0.000000
# 3 -0.002436 -0.000127 0.006367 0.000000 0.000000 0.000000
# 4 0.000000 0.000000 0.000000 -0.055384 0.000000 0.000000
# 5 0.000000 0.000000 0.000000 0.000000 0.089697 0.000000
# 6 0.000000 0.000000 0.000000 0.000000 0.000000 0.265055
#
#
# Mechanical properties :
#
#
# Convention : Reuss Voigt Hill
#
# Bulk Modulus (GPa) = 41.85091 48.82390 45.33741
# Shear Modulus (GPa) = 14.72433 21.39243 18.05838
#
# Velocity S-wave (km/s) = 2.54532 3.06799 2.81880
# Velocity P-wave (km/s) = 5.20120 5.83373 5.52652
#
# Compressibility (1/GPa) = 0.02389434
#
# Stress axis : x y z
#
# Youngs Moduli (GPa) = 95.57230 88.99031 157.05238
#
# Poissons Ratio (x) = -0.04239 0.38255
# Poissons Ratio (y) = -0.04553 0.01999
# Poissons Ratio (z) = 0.23280 0.01133
#
# Static dielectric constant tensor:
#      x y z
#    x 1.815790 0.000000 0.000000 
#    y 0.000000 1.880500 0.000000 
#    z 0.000000 0.000000 1.832830 
# 
# From -- ./inp_files/39945.got.cif
#   From: 2010.05.17/outbox.cif.g08.bks.cpg/sg71_20_cif.got.tgz:39945.got - 2010.06.03 16:22:01.
