data_PCOD9520394
_publ_section_title
;
Structure prediction by ZEFSAII (Michael W. Deem and Ramdas Pophale) SiO2 
 PCOD9520394
Probable space group: I M M M
;
_chemical_formula_sum "Si O2"
_cell_formula_units_Z 88
_cell_length_a 17.704689
_cell_length_b 21.681559
_cell_length_c 13.746164
_cell_angle_alpha 90.000000
_cell_angle_beta 90.000000
_cell_angle_gamma 90.000000
_cell_volume 5276.674806
_symmetry_space_group_name_H-M "I M M M"
_symmetry_group_IT_number 71
_symmetry_cell_setting 'orthorhombic'
loop_
_space_group_symop_operation_xyz
x,y,z
-x,-y,z
x,-y,-z
-x,y,-z
-x,-y,-z
x,y,-z
-x,y,z
x,-y,z
1/2+x,1/2+y,1/2+z
1/2-x,1/2-y,1/2+z
1/2+x,1/2-y,1/2-z
1/2-x,1/2+y,1/2-z
1/2-x,1/2-y,1/2-z
1/2+x,1/2+y,1/2-z
1/2-x,1/2+y,1/2+z
1/2+x,1/2-y,1/2+z
loop_
_atom_site_type_symbol
_atom_site_label
_atom_site_fract_x
_atom_site_fract_y
_atom_site_fract_z
Si Si1 0.645759 0.862953 0.304777
Si Si2 0.664638 0.205469 0.111016
Si Si3 0.296895 0.426840 0.883410
Si Si4 0.410248 0.671653 0.196869
Si Si5 0.844838 0.773681 0.888760
Si Si6 0.000000 0.426593 0.111750
O O1 0.643738 0.844947 0.191417
O O2 0.722399 0.897599 0.334526
O O3 0.642191 0.797651 0.361301
O O4 0.574369 0.902315 0.335990
O O5 0.623179 0.269296 0.138730
O O6 0.754741 0.216000 0.120412
O O7 0.647541 0.188676 0.000000
O O8 0.301750 0.500000 0.864492
O O9 0.367826 0.388666 0.842593
O O10 0.291597 0.417935 0.000000
O O11 0.500000 0.668305 0.186151
O O12 0.387210 0.685270 0.308775
O O13 0.867220 0.785784 0.000000
O O14 0.000000 0.500000 0.110852
O O15 0.000000 0.404439 0.000000
#
# Coordination Sequence:
#
# PCOD9520394 Si02
#       6
#    16  16  16  16  16   8
#     4  11  20  37  57  84 113 143 183 230 277 327
#     4  10  20  36  59  84 110 143 182 227 278 331
#     4  11  22  37  58  79 105 147 190 227 272 328
#     4  11  22  36  53  83 119 146 180 226 277 328
#     4  10  19  35  60  85 110 140 181 231 279 330
#     4  11  24  38  55  83 117 151 185 228 278 324
#
# _framework density 16.67717
#
# number of rings (size 3 to 8) (size 9 to 14) (size 15 to 20)
#    0.000    1.364    3.636    3.818    5.091    3.636 
#    0.000    0.909    0.000    4.364    0.000    1.273 
#    0.000    0.000    0.000    0.000    0.000    0.000 
#
# Total GULP energy -245771.691639 kJ/mol
# GULP energy per Si atom -5585.720265 kJ/mol
# Density = 1.663921 g / cm^3
# Si number density = 16.677170 Si / 1000 Ang^3
#
#
#
# Elastic Constant Matrix: (Units=GPa)
#
#
# Indices 1 2 3 4 5 6 
#
# 1 92.9430 40.0453 33.4451 0.0000 0.0000 0.0000
# 2 40.0453 95.3754 57.1114 0.0000 0.0000 0.0000
# 3 33.4451 57.1114 129.4164 0.0000 0.0000 0.0000
# 4 0.0000 0.0000 0.0000 23.5000 0.0000 0.0000
# 5 0.0000 0.0000 0.0000 0.0000 14.6538 0.0000
# 6 0.0000 0.0000 0.0000 0.0000 0.0000 -157.9244
#
#
#
# Elastic Compliance Matrix: (Units=1/GPa)
#
#
# Indices 1 2 3 4 5 6 
#
# 1 0.013300 -0.004793 -0.001322 0.000000 0.000000 0.000000
# 2 -0.004793 0.015978 -0.005812 0.000000 0.000000 0.000000
# 3 -0.001322 -0.005812 0.010634 0.000000 0.000000 0.000000
# 4 0.000000 0.000000 0.000000 0.042553 0.000000 0.000000
# 5 0.000000 0.000000 0.000000 0.000000 0.068242 0.000000
# 6 0.000000 0.000000 0.000000 0.000000 0.000000 -0.006332
#
#
# Mechanical properties :
#
#
# Convention : Reuss Voigt Hill
#
# Bulk Modulus (GPa) = 62.27774 64.32648 63.30211
# Shear Modulus (GPa) = 28.80510 -11.47857 8.66327
#
# Velocity S-wave (km/s) = 4.16049 -2.62636 2.28166
# Velocity P-wave (km/s) = 7.77842 5.42755 6.70679
#
# Compressibility (1/GPa) = 0.01605710
#
# Stress axis : x y z
#
# Youngs Moduli (GPa) = 75.18815 62.58753 94.04081
#
# Poissons Ratio (x) = 0.29995 0.12434
# Poissons Ratio (y) = 0.36034 0.54660
# Poissons Ratio (z) = 0.09941 0.36378
#
# Static dielectric constant tensor:
#      x y z
#    x 1.546550 0.000000 0.000000 
#    y 0.000000 1.532550 0.000000 
#    z 0.000000 0.000000 1.572960 
# 
# From -- ./inp_files/34429.got.cif
#   From: 2010.05.17/outbox.cif.g08.bks.cpg/sg71_18_cif.got.tgz:34429.got - 2010.06.03 16:22:01.
