data_PCOD9520400
_publ_section_title
;
Structure prediction by ZEFSAII (Michael W. Deem and Ramdas Pophale) SiO2 
 PCOD9520400
Probable space group: I M M M
;
_chemical_formula_sum "Si O2"
_cell_formula_units_Z 100
_cell_length_a 21.518438
_cell_length_b 27.594891
_cell_length_c 7.489820
_cell_angle_alpha 90.000000
_cell_angle_beta 90.000000
_cell_angle_gamma 90.000000
_cell_volume 4447.447260
_symmetry_space_group_name_H-M "I M M M"
_symmetry_group_IT_number 71
_symmetry_cell_setting 'orthorhombic'
loop_
_space_group_symop_operation_xyz
x,y,z
-x,-y,z
x,-y,-z
-x,y,-z
-x,-y,-z
x,y,-z
-x,y,z
x,-y,z
1/2+x,1/2+y,1/2+z
1/2-x,1/2-y,1/2+z
1/2+x,1/2-y,1/2-z
1/2-x,1/2+y,1/2-z
1/2-x,1/2-y,1/2-z
1/2+x,1/2+y,1/2-z
1/2-x,1/2+y,1/2+z
1/2+x,1/2-y,1/2+z
loop_
_atom_site_type_symbol
_atom_site_label
_atom_site_fract_x
_atom_site_fract_y
_atom_site_fract_z
Si Si1 0.000000 0.587185 0.216655
Si Si2 0.500000 0.198529 0.717709
Si Si3 0.663476 0.360954 0.797061
Si Si4 0.930535 0.054104 0.212268
Si Si5 0.185080 0.500000 0.500000
Si Si6 0.622620 0.743614 0.716669
Si Si7 0.637695 0.927096 0.713003
Si Si8 0.294929 0.828422 0.285535
O O1 0.934299 0.563661 0.266737
O O2 0.000000 0.642991 0.278335
O O3 0.000000 0.587681 0.000000
O O4 0.500000 0.196501 0.500000
O O5 0.439186 0.228026 0.771272
O O6 0.621344 0.405417 0.737907
O O7 0.625892 0.310873 0.784127
O O8 0.729885 0.347960 0.710315
O O9 0.678603 0.373015 0.000000
O O10 0.000000 0.067244 0.280346
O O11 0.914580 0.000000 0.280574
O O12 0.935904 0.050034 0.000000
O O13 0.180391 0.458218 0.341916
O O14 0.623393 0.741502 0.500000
O O15 0.679982 0.776941 0.780575
O O16 0.645079 0.937304 0.500000
O O17 0.653842 0.870430 0.737958
O O18 0.288178 0.822293 0.500000
#
# Coordination Sequence:
#
# PCOD9520400 Si02
#       8
#     8   8  16  16   4  16  16  16
#     4   9  16  33  64  87 108 163 211 252 318 375
#     4   9  16  30  58  89 111 146 214 252 292 362
#     4  11  23  37  56  90 127 160 193 238 303 369
#     4   9  20  42  67  88 112 150 200 251 299 352
#     4  12  26  41  58  98 120 162 215 266 318 378
#     4  10  19  35  60  88 116 159 204 250 293 353
#     4  10  21  41  63  86 122 162 209 266 317 368
#     4   9  19  39  61  81 118 166 205 243 302 365
#
# _framework density 22.48481
#
# number of rings (size 3 to 8) (size 9 to 14) (size 15 to 20)
#    0.000    2.240    1.600    1.680    1.120    1.600 
#    5.760    2.000    1.760    0.000    0.000    0.000 
#    0.000    0.000    0.000    0.000    0.000    0.000 
#
# Total GULP energy -278646.995892 kJ/mol
# GULP energy per Si atom -5572.939918 kJ/mol
# Density = 2.243363 g / cm^3
# Si number density = 22.484810 Si / 1000 Ang^3
#
#
#
# Elastic Constant Matrix: (Units=GPa)
#
#
# Indices 1 2 3 4 5 6 
#
# 1 99.4402 48.9678 2.4568 0.0000 0.0000 0.0000
# 2 48.9678 123.0018 8.0276 0.0000 0.0000 0.0000
# 3 2.4568 8.0276 74.0149 0.0000 0.0000 0.0000
# 4 0.0000 0.0000 0.0000 14.7634 0.0000 0.0000
# 5 0.0000 0.0000 0.0000 0.0000 17.7403 0.0000
# 6 0.0000 0.0000 0.0000 0.0000 0.0000 18.0743
#
#
#
# Elastic Compliance Matrix: (Units=1/GPa)
#
#
# Indices 1 2 3 4 5 6 
#
# 1 0.012510 -0.004988 0.000126 0.000000 0.000000 0.000000
# 2 -0.004988 0.010177 -0.000938 0.000000 0.000000 0.000000
# 3 0.000126 -0.000938 0.013608 0.000000 0.000000 0.000000
# 4 0.000000 0.000000 0.000000 0.067735 0.000000 0.000000
# 5 0.000000 0.000000 0.000000 0.000000 0.056369 0.000000
# 6 0.000000 0.000000 0.000000 0.000000 0.000000 0.055327
#
#
# Mechanical properties :
#
#
# Convention : Reuss Voigt Hill
#
# Bulk Modulus (GPa) = 40.49646 46.15125 43.32385
# Shear Modulus (GPa) = 21.22613 25.91593 23.57103
#
# Velocity S-wave (km/s) = 3.07583 3.39868 3.24127
# Velocity P-wave (km/s) = 5.53750 5.99762 5.77215
#
# Compressibility (1/GPa) = 0.02469352
#
# Stress axis : x y z
#
# Youngs Moduli (GPa) = 79.93840 98.25979 73.48417
#
# Poissons Ratio (x) = 0.49016 -0.00924
# Poissons Ratio (y) = 0.39876 0.06894
# Poissons Ratio (z) = -0.01006 0.09219
#
# Static dielectric constant tensor:
#      x y z
#    x 1.886860 0.000000 0.000000 
#    y 0.000000 1.814340 0.000000 
#    z 0.000000 0.000000 1.829050 
# 
# From -- ./inp_files/11198.got.cif
#   From: 2010.05.17/outbox.cif.g08.bks.cpg/sg71_6_cif.got.tgz:11198.got - 2010.06.03 16:22:01.
