data_PCOD9520258
_publ_section_title
;
Structure prediction by ZEFSAII (Michael W. Deem and Ramdas Pophale) SiO2 
 PCOD9520258
Probable space group: I M M M
;
_chemical_formula_sum "Si O2"
_cell_formula_units_Z 60
_cell_length_a 21.960228
_cell_length_b 13.184688
_cell_length_c 10.112230
_cell_angle_alpha 90.000000
_cell_angle_beta 90.000000
_cell_angle_gamma 90.000000
_cell_volume 2927.882480
_symmetry_space_group_name_H-M "I M M M"
_symmetry_group_IT_number 71
_symmetry_cell_setting 'orthorhombic'
loop_
_space_group_symop_operation_xyz
x,y,z
-x,-y,z
x,-y,-z
-x,y,-z
-x,-y,-z
x,y,-z
-x,y,z
x,-y,z
1/2+x,1/2+y,1/2+z
1/2-x,1/2-y,1/2+z
1/2+x,1/2-y,1/2-z
1/2-x,1/2+y,1/2-z
1/2-x,1/2-y,1/2-z
1/2+x,1/2+y,1/2-z
1/2-x,1/2+y,1/2+z
1/2+x,1/2-y,1/2+z
loop_
_atom_site_type_symbol
_atom_site_label
_atom_site_fract_x
_atom_site_fract_y
_atom_site_fract_z
Si Si1 0.316936 0.500000 0.000000
Si Si2 0.792791 0.344903 0.000000
Si Si3 0.932012 0.787417 0.654106
Si Si4 0.734082 0.612419 0.500000
Si Si5 0.427883 0.500000 0.799901
Si Si6 0.339871 0.110069 0.213077
O O1 0.273854 0.600078 0.000000
O O2 0.363819 0.500000 0.121033
O O3 0.796570 0.222431 0.000000
O O4 0.824086 0.382150 0.133467
O O5 0.927788 0.824487 0.500000
O O6 0.925198 0.884366 0.750835
O O7 0.882469 0.702385 0.674131
O O8 0.000000 0.745725 0.670612
O O9 0.702976 0.500000 0.500000
O O10 0.778094 0.614949 0.628033
O O11 0.500000 0.500000 0.851150
O O12 0.368006 0.000000 0.183330
#
# Coordination Sequence:
#
# PCOD9520258 Si02
#       6
#     4   8  16   8   8  16
#     4  12  19  32  60  84 111 172 198 236 298 352
#     4  12  24  41  57  83 124 169 210 234 287 377
#     4  10  19  35  61  91 120 155 198 255 313 358
#     4  10  22  38  58  83 117 154 193 255 305 343
#     4  10  19  34  60  95 125 146 202 261 304 360
#     4  11  22  41  58  85 123 158 201 258 291 352
#
# _framework density 20.492625
#
# number of rings (size 3 to 8) (size 9 to 14) (size 15 to 20)
#    0.000    1.333    4.000    2.600    0.000    0.533 
#    2.400    2.000    0.000    1.600    0.000    2.800 
#    0.000    0.000    0.000    0.800    0.000    0.000 
#
# Total GULP energy -167002.919898 kJ/mol
# GULP energy per Si atom -5566.763997 kJ/mol
# Density = 2.044598 g / cm^3
# Si number density = 20.492625 Si / 1000 Ang^3
#
#
#
# Elastic Constant Matrix: (Units=GPa)
#
#
# Indices 1 2 3 4 5 6 
#
# 1 35.7251 17.8918 -19.6303 0.0000 0.0000 0.0000
# 2 17.8918 160.0418 -8.9280 0.0000 0.0000 0.0000
# 3 -19.6303 -8.9280 59.8777 0.0000 0.0000 0.0000
# 4 0.0000 0.0000 0.0000 41.7884 0.0000 0.0000
# 5 0.0000 0.0000 0.0000 0.0000 -35.6384 0.0000
# 6 0.0000 0.0000 0.0000 0.0000 0.0000 30.8917
#
#
#
# Elastic Compliance Matrix: (Units=1/GPa)
#
#
# Indices 1 2 3 4 5 6 
#
# 1 0.035870 -0.003382 0.011255 0.000000 0.000000 0.000000
# 2 -0.003382 0.006620 -0.000122 0.000000 0.000000 0.000000
# 3 0.011255 -0.000122 0.020372 0.000000 0.000000 0.000000
# 4 0.000000 0.000000 0.000000 0.023930 0.000000 0.000000
# 5 0.000000 0.000000 0.000000 0.000000 -0.028060 0.000000
# 6 0.000000 0.000000 0.000000 0.000000 0.000000 0.032371
#
#
# Mechanical properties :
#
#
# Convention : Reuss Voigt Hill
#
# Bulk Modulus (GPa) = 12.76083 26.03463 19.39773
# Shear Modulus (GPa) = 49.15320 25.16240 37.15780
#
# Velocity S-wave (km/s) = 4.90284 3.50791 4.26282
# Velocity P-wave (km/s) = 6.18798 5.39807 5.80647
#
# Compressibility (1/GPa) = 0.07836483
#
# Stress axis : x y z
#
# Youngs Moduli (GPa) = 27.87845 151.06463 49.08578
#
# Poissons Ratio (x) = 0.51093 -0.55248
# Poissons Ratio (y) = 0.09429 0.00598
# Poissons Ratio (z) = -0.31378 0.01840
#
# Static dielectric constant tensor:
#      x y z
#    x 1.709940 0.000000 0.000000 
#    y 0.000000 1.783540 0.000000 
#    z 0.000000 0.000000 1.889000 
# 
# From -- ./inp_files/26894.got.cif
#   From: 2010.05.17/outbox.cif.g08.bks.cpg/sg71_14_cif.got.tgz:26894.got - 2010.06.03 16:22:01.
