data_PCOD9520908
_publ_section_title
;
Structure prediction by ZEFSAII (Michael W. Deem and Ramdas Pophale) SiO2 
 PCOD9520908
Probable space group: I M M M
;
_chemical_formula_sum "Si O2"
_cell_formula_units_Z 88
_cell_length_a 13.125890
_cell_length_b 28.622919
_cell_length_c 15.090900
_cell_angle_alpha 90.000000
_cell_angle_beta 90.000000
_cell_angle_gamma 90.000000
_cell_volume 5669.670541
_symmetry_space_group_name_H-M "I M M M"
_symmetry_group_IT_number 71
_symmetry_cell_setting 'orthorhombic'
loop_
_space_group_symop_operation_xyz
x,y,z
-x,-y,z
x,-y,-z
-x,y,-z
-x,-y,-z
x,y,-z
-x,y,z
x,-y,z
1/2+x,1/2+y,1/2+z
1/2-x,1/2-y,1/2+z
1/2+x,1/2-y,1/2-z
1/2-x,1/2+y,1/2-z
1/2-x,1/2-y,1/2-z
1/2+x,1/2+y,1/2-z
1/2-x,1/2+y,1/2+z
1/2+x,1/2-y,1/2+z
loop_
_atom_site_type_symbol
_atom_site_label
_atom_site_fract_x
_atom_site_fract_y
_atom_site_fract_z
Si Si1 0.619889 0.725175 0.895851
Si Si2 0.878829 0.144429 0.255956
Si Si3 0.879005 0.500000 0.895142
Si Si4 0.236537 0.680142 0.397137
Si Si5 0.753350 0.050751 0.263196
Si Si6 0.880116 0.584606 0.398259
O O1 0.500000 0.736660 0.883978
O O2 0.643086 0.680788 0.835084
O O3 0.687035 0.770319 0.872757
O O4 0.635208 0.714892 0.000000
O O5 0.826834 0.165408 0.167902
O O6 0.827217 0.094395 0.273785
O O7 0.000000 0.139987 0.246397
O O8 0.824953 0.456535 0.845080
O O9 0.000000 0.500000 0.880194
O O10 0.859929 0.500000 0.000000
O O11 0.269030 0.682136 0.500000
O O12 0.151835 0.639123 0.391187
O O13 0.686826 0.058426 0.174631
O O14 0.806660 0.000000 0.257006
O O15 0.858461 0.570076 0.500000
O O16 0.000000 0.578441 0.382179
#
# Coordination Sequence:
#
# PCOD9520908 Si02
#       6
#    16  16   8  16  16  16
#     4   9  17  30  50  74  98 123 155 200 250 294
#     4  10  20  33  49  70  97 131 169 205 239 277
#     4   9  18  34  54  72  92 121 156 196 246 296
#     4   9  17  30  48  72 100 129 159 191 235 293
#     4   9  20  33  47  69  96 127 165 204 241 286
#     4   9  16  27  47  74 101 124 149 190 243 296
#
# _framework density 15.521183000000001
#
# number of rings (size 3 to 8) (size 9 to 14) (size 15 to 20)
#    0.545    2.273    0.000    1.636    0.000    4.000 
#    0.000    0.909    0.000    1.636    0.000    5.091 
#    0.000    0.000    0.000    0.000    0.000    0.000 
#
# Total GULP energy -244935.709760 kJ/mol
# GULP energy per Si atom -5566.720676 kJ/mol
# Density = 1.548586 g / cm^3
# Si number density = 15.521183 Si / 1000 Ang^3
#
#
#
# Elastic Constant Matrix: (Units=GPa)
#
#
# Indices 1 2 3 4 5 6 
#
# 1 67.3709 56.8689 46.1120 0.0000 0.0000 0.0000
# 2 56.8689 126.6658 60.5899 0.0000 0.0000 0.0000
# 3 46.1120 60.5899 77.0083 0.0000 -0.0001 0.0000
# 4 0.0000 0.0000 0.0000 24.7852 0.0000 0.0000
# 5 0.0000 0.0000 -0.0001 0.0000 22.5055 0.0000
# 6 0.0000 0.0000 0.0000 0.0000 0.0000 17.6021
#
#
#
# Elastic Compliance Matrix: (Units=1/GPa)
#
#
# Indices 1 2 3 4 5 6 
#
# 1 0.029075 -0.007578 -0.011448 0.000000 0.000000 0.000000
# 2 -0.007578 0.014634 -0.006977 0.000000 0.000000 0.000000
# 3 -0.011448 -0.006977 0.025330 0.000000 0.000000 0.000000
# 4 0.000000 0.000000 0.000000 0.040347 0.000000 0.000000
# 5 0.000000 0.000000 0.000000 0.000000 0.044434 0.000000
# 6 0.000000 0.000000 0.000000 0.000000 0.000000 0.056811
#
#
# Mechanical properties :
#
#
# Convention : Reuss Voigt Hill
#
# Bulk Modulus (GPa) = 58.70411 66.46519 62.58465
# Shear Modulus (GPa) = 18.63492 20.14350 19.38921
#
# Velocity S-wave (km/s) = 3.46874 3.60642 3.53825
# Velocity P-wave (km/s) = 7.34486 7.76253 7.55658
#
# Compressibility (1/GPa) = 0.01703458
#
# Stress axis : x y z
#
# Youngs Moduli (GPa) = 34.39347 68.33298 39.47950
#
# Poissons Ratio (x) = 0.51782 0.45195
# Poissons Ratio (y) = 0.26063 0.27543
# Poissons Ratio (z) = 0.39373 0.47673
#
# Static dielectric constant tensor:
#      x y z
#    x 1.486600 0.000000 0.000000 
#    y 0.000000 1.514710 0.000000 
#    z 0.000000 0.000000 1.510500 
# 
# From -- ./inp_files/33128.got.cif
#   From: 2010.05.17/outbox.cif.g08.bks.cpg/sg71_17_cif.got.tgz:33128.got - 2010.06.03 16:22:01.
