data_PCOD9520444
_publ_section_title
;
Structure prediction by ZEFSAII (Michael W. Deem and Ramdas Pophale) SiO2 
 PCOD9520444
Probable space group: I M M M
;
_chemical_formula_sum "Si O2"
_cell_formula_units_Z 104
_cell_length_a 19.006308
_cell_length_b 18.373073
_cell_length_c 17.712451
_cell_angle_alpha 90.000000
_cell_angle_beta 90.000000
_cell_angle_gamma 90.000000
_cell_volume 6185.263775
_symmetry_space_group_name_H-M "I M M M"
_symmetry_group_IT_number 71
_symmetry_cell_setting 'orthorhombic'
loop_
_space_group_symop_operation_xyz
x,y,z
-x,-y,z
x,-y,-z
-x,y,-z
-x,-y,-z
x,y,-z
-x,y,z
x,-y,z
1/2+x,1/2+y,1/2+z
1/2-x,1/2-y,1/2+z
1/2+x,1/2-y,1/2-z
1/2-x,1/2+y,1/2-z
1/2-x,1/2-y,1/2-z
1/2+x,1/2+y,1/2-z
1/2-x,1/2+y,1/2+z
1/2+x,1/2-y,1/2+z
loop_
_atom_site_type_symbol
_atom_site_label
_atom_site_fract_x
_atom_site_fract_y
_atom_site_fract_z
Si Si1 0.312490 0.585916 0.201455
Si Si2 0.417610 0.187425 0.827848
Si Si3 0.179881 0.417134 0.590052
Si Si4 0.172714 0.152862 0.135843
Si Si5 0.083759 0.913274 0.000000
Si Si6 0.695683 0.798305 0.700378
Si Si7 0.083203 0.158136 0.589228
O O1 0.301251 0.500000 0.210703
O O2 0.341397 0.620507 0.280318
O O3 0.240578 0.629941 0.182039
O O4 0.368413 0.603068 0.135842
O O5 0.500000 0.182459 0.812696
O O6 0.388808 0.122087 0.878709
O O7 0.371127 0.185965 0.752484
O O8 0.404188 0.262601 0.873210
O O9 0.179419 0.417017 0.500000
O O10 0.185324 0.500000 0.617174
O O11 0.248452 0.373629 0.616959
O O12 0.120375 0.120652 0.073859
O O13 0.172822 0.240661 0.136859
O O14 0.000000 0.901479 0.000000
O O15 0.097318 0.000000 0.000000
O O16 0.750000 0.750000 0.750000
O O17 0.099360 0.159765 0.500000
O O18 0.000000 0.141805 0.597490
#
# Coordination Sequence:
#
# PCOD9520444 Si02
#       7
#    16  16  16  16   8  16  16
#     4  11  21  36  59  83 110 145 189 232 278 329
#     4  11  21  36  56  81 113 147 186 233 278 327
#     4  11  21  33  54  82 114 151 190 229 280 338
#     4  11  20  37  60  81 112 152 189 228 278 335
#     4  11  24  38  56  90 124 148 184 233 284 338
#     4  10  19  36  57  84 107 144 190 232 270 329
#     4  10  21  37  56  80 112 147 182 223 278 337
#
# _framework density 16.814157000000002
#
# number of rings (size 3 to 8) (size 9 to 14) (size 15 to 20)
#    0.000    1.308    6.923    1.846    0.000    3.077 
#    1.385    1.538    0.000    0.000    0.000    0.000 
#    0.000    0.615    0.000    0.000    0.000    0.000 
#
# Total GULP energy -290149.611846 kJ/mol
# GULP energy per Si atom -5579.800228 kJ/mol
# Density = 1.677589 g / cm^3
# Si number density = 16.814157 Si / 1000 Ang^3
#
#
#
# Elastic Constant Matrix: (Units=GPa)
#
#
# Indices 1 2 3 4 5 6 
#
# 1 75.3274 28.7318 49.8905 0.0000 0.0000 0.0000
# 2 28.7318 91.7410 51.8011 0.0000 0.0000 0.0000
# 3 49.8905 51.8011 72.7198 0.0000 0.0000 0.0000
# 4 0.0000 0.0000 0.0000 25.4128 0.0000 0.0000
# 5 0.0000 0.0000 0.0000 0.0000 25.9015 0.0000
# 6 0.0000 0.0000 0.0000 0.0000 0.0000 16.7204
#
#
#
# Elastic Compliance Matrix: (Units=1/GPa)
#
#
# Indices 1 2 3 4 5 6 
#
# 1 0.024842 0.003083 -0.019240 0.000000 0.000000 0.000000
# 2 0.003083 0.018617 -0.015377 0.000000 0.000000 0.000000
# 3 -0.019240 -0.015377 0.037905 0.000000 0.000000 0.000000
# 4 0.000000 0.000000 0.000000 0.039350 0.000000 0.000000
# 5 0.000000 0.000000 0.000000 0.000000 0.038608 0.000000
# 6 0.000000 0.000000 0.000000 0.000000 0.000000 0.059807
#
#
# Mechanical properties :
#
#
# Convention : Reuss Voigt Hill
#
# Bulk Modulus (GPa) = 54.65314 55.62611 55.13963
# Shear Modulus (GPa) = 17.34333 20.89792 19.12062
#
# Velocity S-wave (km/s) = 3.21514 3.52927 3.37586
# Velocity P-wave (km/s) = 6.80864 7.05425 6.93253
#
# Compressibility (1/GPa) = 0.01829721
#
# Stress axis : x y z
#
# Youngs Moduli (GPa) = 40.25442 53.71370 26.38185
#
# Poissons Ratio (x) = -0.16562 0.50758
# Poissons Ratio (y) = -0.12412 0.40568
# Poissons Ratio (z) = 0.77448 0.82597
#
# Static dielectric constant tensor:
#      x y z
#    x 1.554080 0.000000 0.000000 
#    y 0.000000 1.591280 0.000000 
#    z 0.000000 0.000000 1.579660 
# 
# From -- ./inp_files/46159.got.cif
#   From: 2010.05.17/outbox.cif.g08.bks.cpg/sg71_24_cif.got.tgz:46159.got - 2010.06.03 16:22:01.
