data_PCOD9520107
_publ_section_title
;
Structure prediction by ZEFSAII (Michael W. Deem and Ramdas Pophale) SiO2 
 PCOD9520107
Probable space group: I M M M
;
_chemical_formula_sum "Si O2"
_cell_formula_units_Z 96
_cell_length_a 24.480502
_cell_length_b 20.192184
_cell_length_c 12.138364
_cell_angle_alpha 90.000000
_cell_angle_beta 90.000000
_cell_angle_gamma 90.000000
_cell_volume 6000.172983
_symmetry_space_group_name_H-M "I M M M"
_symmetry_group_IT_number 71
_symmetry_cell_setting 'orthorhombic'
loop_
_space_group_symop_operation_xyz
x,y,z
-x,-y,z
x,-y,-z
-x,y,-z
-x,-y,-z
x,y,-z
-x,y,z
x,-y,z
1/2+x,1/2+y,1/2+z
1/2-x,1/2-y,1/2+z
1/2+x,1/2-y,1/2-z
1/2-x,1/2+y,1/2-z
1/2-x,1/2-y,1/2-z
1/2+x,1/2+y,1/2-z
1/2-x,1/2+y,1/2+z
1/2+x,1/2-y,1/2+z
loop_
_atom_site_type_symbol
_atom_site_label
_atom_site_fract_x
_atom_site_fract_y
_atom_site_fract_z
Si Si1 0.565540 0.319739 0.260779
Si Si2 0.860847 0.078795 0.368525
Si Si3 0.565851 0.883390 0.500000
Si Si4 0.875989 0.422665 0.225207
Si Si5 0.933926 0.772760 0.000000
Si Si6 0.565046 0.184229 0.871403
Si Si7 0.736788 0.080365 0.374283
O O1 0.500000 0.330709 0.258615
O O2 0.597056 0.378949 0.201862
O O3 0.583459 0.307547 0.386929
O O4 0.576514 0.252011 0.193911
O O5 0.868517 0.089500 0.500000
O O6 0.798232 0.099028 0.341632
O O7 0.866459 0.000000 0.349211
O O8 0.500000 0.890010 0.500000
O O9 0.591461 0.914614 0.390199
O O10 0.580153 0.805076 0.500000
O O11 0.876507 0.500000 0.256371
O O12 0.903752 0.375947 0.314490
O O13 0.813748 0.400230 0.201419
O O14 0.000000 0.774087 0.000000
O O15 0.500000 0.172317 0.861533
O O16 0.578453 0.191318 0.000000
O O17 0.726967 0.103082 0.500000
O O18 0.736207 0.000000 0.377559
#
# Coordination Sequence:
#
# PCOD9520107 Si02
#       7
#    16  16   8  16   8  16  16
#     4  10  19  34  55  77 102 133 165 202 251 303
#     4   9  18  33  55  80 104 130 164 206 248 296
#     4  11  19  30  49  77 104 128 166 215 254 289
#     4  11  20  31  51  75 101 133 171 215 252 291
#     4   9  18  33  53  73 101 137 163 194 251 311
#     4  10  21  35  50  70 102 141 172 201 247 306
#     4   8  15  30  50  73 100 132 165 201 254 301
#
# _framework density 15.999539
#
# number of rings (size 3 to 8) (size 9 to 14) (size 15 to 20)
#    0.000    2.333    2.500    2.250    0.000    3.333 
#    0.000    2.917    1.833    1.500    0.000    0.000 
#    0.000    0.000    0.000    0.000    0.000    0.000 
#
# Total GULP energy -267599.268241 kJ/mol
# GULP energy per Si atom -5574.984755 kJ/mol
# Density = 1.596312 g / cm^3
# Si number density = 15.999539 Si / 1000 Ang^3
#
#
#
# Elastic Constant Matrix: (Units=GPa)
#
#
# Indices 1 2 3 4 5 6 
#
# 1 67.0216 48.3465 56.2670 0.0000 0.0000 0.0000
# 2 48.3465 75.2042 57.7995 0.0000 0.0000 0.0000
# 3 56.2670 57.7995 117.2940 0.0000 0.0000 0.0000
# 4 0.0000 0.0000 0.0000 27.4965 0.0000 0.0000
# 5 0.0000 0.0000 0.0000 0.0000 26.6030 0.0000
# 6 0.0000 0.0000 0.0000 0.0000 0.0000 -41.2483
#
#
#
# Elastic Compliance Matrix: (Units=1/GPa)
#
#
# Indices 1 2 3 4 5 6 
#
# 1 0.032331 -0.014268 -0.008478 0.000000 0.000000 0.000000
# 2 -0.014268 0.027700 -0.006805 0.000000 0.000000 0.000000
# 3 -0.008478 -0.006805 0.015946 0.000000 0.000000 0.000000
# 4 0.000000 0.000000 0.000000 0.036368 0.000000 0.000000
# 5 0.000000 0.000000 0.000000 0.000000 0.037590 0.000000
# 6 0.000000 0.000000 0.000000 0.000000 0.000000 -0.024243
#
#
# Mechanical properties :
#
#
# Convention : Reuss Voigt Hill
#
# Bulk Modulus (GPa) = 59.26520 64.92729 62.09624
# Shear Modulus (GPa) = 26.25766 9.04403 17.65084
#
# Velocity S-wave (km/s) = 4.05551 2.38012 3.32506
# Velocity P-wave (km/s) = 7.68451 6.94421 7.32372
#
# Compressibility (1/GPa) = 0.01687331
#
# Stress axis : x y z
#
# Youngs Moduli (GPa) = 30.92991 36.10090 62.71097
#
# Poissons Ratio (x) = 0.51511 0.53169
# Poissons Ratio (y) = 0.44132 0.42676
# Poissons Ratio (z) = 0.26224 0.24567
#
# Static dielectric constant tensor:
#      x y z
#    x 1.542350 0.000000 0.000000 
#    y 0.000000 1.514020 0.000000 
#    z 0.000000 0.000000 1.526300 
# 
# From -- ./inp_files/24283.got.cif
#   From: 2010.05.17/outbox.cif.g08.bks.cpg/sg71_13_cif.got.tgz:24283.got - 2010.06.03 16:22:01.
