data_PCOD9520642
_publ_section_title
;
Structure prediction by ZEFSAII (Michael W. Deem and Ramdas Pophale) SiO2 
 PCOD9520642
Probable space group: I M M M
;
_chemical_formula_sum "Si O2"
_cell_formula_units_Z 88
_cell_length_a 25.792165
_cell_length_b 7.630839
_cell_length_c 25.833049
_cell_angle_alpha 90.000000
_cell_angle_beta 90.000000
_cell_angle_gamma 90.000000
_cell_volume 5084.353719
_symmetry_space_group_name_H-M "I M M M"
_symmetry_group_IT_number 71
_symmetry_cell_setting 'orthorhombic'
loop_
_space_group_symop_operation_xyz
x,y,z
-x,-y,z
x,-y,-z
-x,y,-z
-x,-y,-z
x,y,-z
-x,y,z
x,-y,z
1/2+x,1/2+y,1/2+z
1/2-x,1/2-y,1/2+z
1/2+x,1/2-y,1/2-z
1/2-x,1/2+y,1/2-z
1/2-x,1/2-y,1/2-z
1/2+x,1/2+y,1/2-z
1/2-x,1/2+y,1/2+z
1/2+x,1/2-y,1/2+z
loop_
_atom_site_type_symbol
_atom_site_label
_atom_site_fract_x
_atom_site_fract_y
_atom_site_fract_z
Si Si1 0.293199 0.703652 0.441539
Si Si2 0.602483 0.800922 0.388269
Si Si3 0.059441 0.285371 0.777874
Si Si4 0.755248 0.788543 0.166132
Si Si5 0.500000 0.301534 0.439303
Si Si6 0.666747 0.210364 0.757519
O O1 0.289869 0.778864 0.500000
O O2 0.278170 0.500000 0.445808
O O3 0.351904 0.709101 0.419675
O O4 0.261574 0.779458 0.392409
O O5 0.581639 0.728612 0.333750
O O6 0.551125 0.796615 0.422121
O O7 0.620299 0.000000 0.379153
O O8 0.057546 0.500000 0.778452
O O9 0.106921 0.230873 0.740694
O O10 0.000000 0.227036 0.769220
O O11 0.705361 0.722212 0.197943
O O12 0.804991 0.750095 0.202673
O O13 0.752162 0.000000 0.163321
O O14 0.500000 0.500000 0.417304
O O15 0.500000 0.315725 0.500000
O O16 0.665970 0.000000 0.761632
#
# Coordination Sequence:
#
# PCOD9520642 Si02
#       6
#    16  16  16  16   8  16
#     4  10  20  32  43  58  85 115 141 173 212 252
#     4  11  20  31  45  61  80 106 145 183 212 246
#     4   9  16  27  43  62  83 105 131 169 213 249
#     4   9  17  28  44  64  82 105 139 173 209 254
#     4  11  23  35  43  53  75 109 147 185 222 251
#     4   9  16  28  46  64  82 104 134 174 214 253
#
# _framework density 17.308001999999998
#
# number of rings (size 3 to 8) (size 9 to 14) (size 15 to 20)
#    0.000    2.273    2.727    1.364    0.000    3.273 
#    0.000    0.000    0.000    0.000    0.000    0.000 
#    0.000    0.727    0.000   10.182    0.000    0.000 
#
# Total GULP energy -245092.331507 kJ/mol
# GULP energy per Si atom -5570.280262 kJ/mol
# Density = 1.726861 g / cm^3
# Si number density = 17.308002 Si / 1000 Ang^3
#
#
#
# Elastic Constant Matrix: (Units=GPa)
#
#
# Indices 1 2 3 4 5 6 
#
# 1 129.9396 1.8159 74.4458 0.0000 0.0000 0.0000
# 2 1.8159 39.7777 4.1978 0.0000 0.0000 0.0000
# 3 74.4458 4.1978 109.0648 0.0000 0.0000 0.0000
# 4 0.0000 0.0000 0.0000 8.8532 0.0000 0.0000
# 5 0.0000 0.0000 0.0000 0.0000 47.3398 0.0000
# 6 0.0000 0.0000 0.0000 0.0000 0.0000 17.9697
#
#
#
# Elastic Compliance Matrix: (Units=1/GPa)
#
#
# Indices 1 2 3 4 5 6 
#
# 1 0.012643 0.000335 -0.008643 0.000000 0.000000 0.000000
# 2 0.000335 0.025251 -0.001200 0.000000 0.000000 0.000000
# 3 -0.008643 -0.001200 0.015114 0.000000 0.000000 0.000000
# 4 0.000000 0.000000 0.000000 0.112954 0.000000 0.000000
# 5 0.000000 0.000000 0.000000 0.000000 0.021124 0.000000
# 6 0.000000 0.000000 0.000000 0.000000 0.000000 0.055649
#
#
# Mechanical properties :
#
#
# Convention : Reuss Voigt Hill
#
# Bulk Modulus (GPa) = 29.41884 48.85567 39.13726
# Shear Modulus (GPa) = 18.30949 28.05404 23.18176
#
# Velocity S-wave (km/s) = 3.25601 4.03037 3.66371
# Velocity P-wave (km/s) = 5.58297 7.06732 6.36854
#
# Compressibility (1/GPa) = 0.03399182
#
# Stress axis : x y z
#
# Youngs Moduli (GPa) = 79.09640 39.60225 66.16207
#
# Poissons Ratio (x) = -0.01326 0.57182
# Poissons Ratio (y) = -0.02649 0.07943
# Poissons Ratio (z) = 0.68360 0.04754
#
# Static dielectric constant tensor:
#      x y z
#    x 1.589750 0.000000 0.000000 
#    y 0.000000 1.712240 0.000000 
#    z 0.000000 0.000000 1.619450 
# 
# From -- ./inp_files/62245.got.cif
#   From: 2010.05.17/outbox.cif.g08.bks.cpg/sg71_32_cif.got.tgz:62245.got - 2010.06.03 16:22:01.
