data_PCOD9520909
_publ_section_title
;
Structure prediction by ZEFSAII (Michael W. Deem and Ramdas Pophale) SiO2 
 PCOD9520909
Probable space group: I M M M
;
_chemical_formula_sum "Si O2"
_cell_formula_units_Z 80
_cell_length_a 26.739052
_cell_length_b 9.677666
_cell_length_c 15.012983
_cell_angle_alpha 90.000000
_cell_angle_beta 90.000000
_cell_angle_gamma 90.000000
_cell_volume 3884.933848
_symmetry_space_group_name_H-M "I M M M"
_symmetry_group_IT_number 71
_symmetry_cell_setting 'orthorhombic'
loop_
_space_group_symop_operation_xyz
x,y,z
-x,-y,z
x,-y,-z
-x,y,-z
-x,-y,-z
x,y,-z
-x,y,z
x,-y,z
1/2+x,1/2+y,1/2+z
1/2-x,1/2-y,1/2+z
1/2+x,1/2-y,1/2-z
1/2-x,1/2+y,1/2-z
1/2-x,1/2-y,1/2-z
1/2+x,1/2+y,1/2-z
1/2-x,1/2+y,1/2+z
1/2+x,1/2-y,1/2+z
loop_
_atom_site_type_symbol
_atom_site_label
_atom_site_fract_x
_atom_site_fract_y
_atom_site_fract_z
Si Si1 0.000000 0.168121 0.602819
Si Si2 0.794491 0.343144 0.141943
Si Si3 0.295918 0.843668 0.855148
Si Si4 0.108508 0.842203 0.392431
Si Si5 0.500000 0.342555 0.609195
Si Si6 0.907526 0.342958 0.106602
O O1 0.946038 0.206515 0.641850
O O2 0.000000 0.216899 0.500000
O O3 0.000000 0.000000 0.600913
O O4 0.789384 0.500000 0.106576
O O5 0.751275 0.242226 0.108467
O O6 0.789255 0.351674 0.248521
O O7 0.850971 0.294841 0.123752
O O8 0.346571 0.759173 0.870538
O O9 0.298558 0.000000 0.889510
O O10 0.104666 0.848701 0.500000
O O11 0.118367 0.000000 0.361275
O O12 0.500000 0.500000 0.641437
O O13 0.500000 0.346572 0.500000
O O14 0.549324 0.259513 0.637984
O O15 0.912627 0.500000 0.142559
O O16 0.913450 0.351853 0.000000
#
# Coordination Sequence:
#
# PCOD9520909 Si02
#       6
#     8  16  16  16   8  16
#     4   7  12  26  48  71  92 118 154 193 232 274
#     4   9  19  35  51  68  94 129 165 199 239 287
#     4  10  20  33  49  70  98 129 159 197 245 291
#     4   9  17  31  52  74  96 125 162 201 237 279
#     4   9  17  29  46  71 102 128 150 187 242 291
#     4   9  17  31  52  73  92 121 163 202 233 276
#
# _framework density 20.592371
#
# number of rings (size 3 to 8) (size 9 to 14) (size 15 to 20)
#    0.000    3.000    0.000    2.100    0.000    4.000 
#    0.000    3.500    0.000    5.400    0.000    0.000 
#    0.000    0.000    0.000    0.000    0.000    0.000 
#
# Total GULP energy -223082.929848 kJ/mol
# GULP energy per Si atom -5577.073246 kJ/mol
# Density = 2.054550 g / cm^3
# Si number density = 20.592371 Si / 1000 Ang^3
#
#
#
# Elastic Constant Matrix: (Units=GPa)
#
#
# Indices 1 2 3 4 5 6 
#
# 1 239.1810 140.4755 -1.6319 0.0000 0.0000 0.0000
# 2 140.4755 133.6785 5.2387 0.0000 0.0000 0.0000
# 3 -1.6319 5.2387 40.1794 0.0000 0.0000 0.0000
# 4 0.0000 0.0000 0.0000 7.0898 0.0000 0.0000
# 5 0.0000 0.0000 0.0000 0.0000 26.7182 0.0000
# 6 0.0000 0.0000 0.0000 0.0000 0.0000 -5.7628
#
#
#
# Elastic Compliance Matrix: (Units=1/GPa)
#
#
# Indices 1 2 3 4 5 6 
#
# 1 0.011076 -0.011716 0.001977 0.000000 0.000000 0.000000
# 2 -0.011716 0.019913 -0.003072 0.000000 0.000000 0.000000
# 3 0.001977 -0.003072 0.025369 0.000000 0.000000 0.000000
# 4 0.000000 0.000000 0.000000 0.141048 0.000000 0.000000
# 5 0.000000 0.000000 0.000000 0.000000 0.037428 0.000000
# 6 0.000000 0.000000 0.000000 0.000000 0.000000 -0.173527
#
#
# Mechanical properties :
#
#
# Convention : Reuss Voigt Hill
#
# Bulk Modulus (GPa) = 32.53527 77.91149 55.22338
# Shear Modulus (GPa) = 51.45396 23.53947 37.49671
#
# Velocity S-wave (km/s) = 5.00411 3.38467 4.27183
# Velocity P-wave (km/s) = 7.01585 7.29328 7.15591
#
# Compressibility (1/GPa) = 0.03073587
#
# Stress axis : x y z
#
# Youngs Moduli (GPa) = 90.28863 50.21849 39.41782
#
# Poissons Ratio (x) = 0.58837 -0.07795
# Poissons Ratio (y) = 1.05784 0.12110
# Poissons Ratio (z) = -0.17854 0.15428
#
# Static dielectric constant tensor:
#      x y z
#    x 1.733480 0.000000 0.000000 
#    y 0.000000 1.719910 0.000000 
#    z 0.000000 0.000000 1.773450 
# 
# From -- ./inp_files/48610.got.cif
#   From: 2010.05.17/outbox.cif.g08.bks.cpg/sg71_25_cif.got.tgz:48610.got - 2010.06.03 16:22:01.
