data_PCOD9520100
_publ_section_title
;
Structure prediction by ZEFSAII (Michael W. Deem and Ramdas Pophale) SiO2 
 PCOD9520100
Probable space group: I M M M
;
_chemical_formula_sum "Si O2"
_cell_formula_units_Z 104
_cell_length_a 22.615477
_cell_length_b 28.719212
_cell_length_c 7.529079
_cell_angle_alpha 90.000000
_cell_angle_beta 90.000000
_cell_angle_gamma 90.000000
_cell_volume 4890.126860
_symmetry_space_group_name_H-M "I M M M"
_symmetry_group_IT_number 71
_symmetry_cell_setting 'orthorhombic'
loop_
_space_group_symop_operation_xyz
x,y,z
-x,-y,z
x,-y,-z
-x,y,-z
-x,-y,-z
x,y,-z
-x,y,z
x,-y,z
1/2+x,1/2+y,1/2+z
1/2-x,1/2-y,1/2+z
1/2+x,1/2-y,1/2-z
1/2-x,1/2+y,1/2-z
1/2-x,1/2-y,1/2-z
1/2+x,1/2+y,1/2-z
1/2-x,1/2+y,1/2+z
1/2+x,1/2-y,1/2+z
loop_
_atom_site_type_symbol
_atom_site_label
_atom_site_fract_x
_atom_site_fract_y
_atom_site_fract_z
Si Si1 0.703584 0.363487 0.291746
Si Si2 0.568001 0.102201 0.217597
Si Si3 0.671049 0.828097 0.782288
Si Si4 0.370583 0.271188 0.785865
Si Si5 0.120996 0.948286 0.710019
Si Si6 0.500000 0.706318 0.783295
Si Si7 0.928206 0.500000 0.704050
Si Si8 0.500000 0.401882 0.782210
O O1 0.711491 0.369515 0.500000
O O2 0.767945 0.350611 0.217461
O O3 0.660847 0.319334 0.262529
O O4 0.672398 0.410454 0.229333
O O5 0.500000 0.110922 0.271808
O O6 0.614419 0.141360 0.270835
O O7 0.587423 0.050482 0.280408
O O8 0.567460 0.100657 0.000000
O O9 0.663616 0.774709 0.723771
O O10 0.671992 0.827783 0.000000
O O11 0.438623 0.271063 0.724139
O O12 0.371739 0.269736 0.000000
O O13 0.111467 0.952761 0.500000
O O14 0.059476 0.927156 0.780831
O O15 0.133675 0.000000 0.781002
O O16 0.500000 0.652148 0.730444
O O17 0.500000 0.707735 0.000000
O O18 0.906830 0.500000 0.500000
O O19 0.000000 0.500000 0.700021
O O20 0.500000 0.402008 0.000000
#
# Coordination Sequence:
#
# PCOD9520100 Si02
#       8
#    16  16  16  16  16   8   8   8
#     4  11  22  36  50  72 109 145 174 205 251 313
#     4   8  13  23  40  64  92 123 162 207 254 302
#     4   9  19  31  46  71 101 134 172 212 258 307
#     4  10  19  34  55  76 100 132 174 219 261 306
#     4  10  20  36  59  82 104 135 177 222 263 306
#     4   9  16  27  52  82 101 124 169 226 272 301
#     4   7  10  18  34  56  86 120 149 182 235 302
#     4   9  15  30  55  84 106 124 165 224 271 301
#
# _framework density 21.267343
#
# number of rings (size 3 to 8) (size 9 to 14) (size 15 to 20)
#    0.000    2.692    1.538    2.077    1.077    1.231 
#    1.385    2.308    0.000    0.923    0.000    0.000 
#    0.000    0.000    0.000    1.692    0.000    1.231 
#
# Total GULP energy -290207.638485 kJ/mol
# GULP energy per Si atom -5580.916125 kJ/mol
# Density = 2.121894 g / cm^3
# Si number density = 21.267343 Si / 1000 Ang^3
#
#
#
# Elastic Constant Matrix: (Units=GPa)
#
#
# Indices 1 2 3 4 5 6 
#
# 1 122.9694 54.1891 -4.9436 0.0000 0.0000 0.0000
# 2 54.1891 124.8804 -3.9420 0.0000 0.0000 0.0000
# 3 -4.9436 -3.9420 49.6534 0.0000 0.0000 0.0000
# 4 0.0000 0.0000 0.0000 -1.2362 0.0000 0.0000
# 5 0.0000 0.0000 0.0000 0.0000 59.0607 0.0000
# 6 0.0000 0.0000 0.0000 0.0000 0.0000 0.1507
#
#
#
# Elastic Compliance Matrix: (Units=1/GPa)
#
#
# Indices 1 2 3 4 5 6 
#
# 1 0.010076 -0.004352 0.000658 0.000000 0.000000 0.000000
# 2 -0.004352 0.009907 0.000353 0.000000 0.000000 0.000000
# 3 0.000658 0.000353 0.020233 0.000000 0.000000 0.000000
# 4 0.000000 0.000000 0.000000 -0.808955 0.000000 0.000000
# 5 0.000000 0.000000 0.000000 0.000000 0.016932 0.000000
# 6 0.000000 0.000000 0.000000 0.000000 0.000000 6.636904
#
#
# Mechanical properties :
#
#
# Convention : Reuss Voigt Hill
#
# Bulk Modulus (GPa) = 29.81938 43.12336 36.47137
# Shear Modulus (GPa) = 0.84703 28.40835 14.62769
#
# Velocity S-wave (km/s) = 0.63178 3.65879 2.62544
# Velocity P-wave (km/s) = 3.81888 6.17817 5.13584
#
# Compressibility (1/GPa) = 0.03353524
#
# Stress axis : x y z
#
# Youngs Moduli (GPa) = 99.24422 100.93796 49.42391
#
# Poissons Ratio (x) = 0.43924 -0.03251
# Poissons Ratio (y) = 0.43187 -0.01746
# Poissons Ratio (z) = -0.06528 -0.03566
#
# Static dielectric constant tensor:
#      x y z
#    x 1.751090 0.000000 0.000000 
#    y 0.000000 1.821590 0.000000 
#    z 0.000000 0.000000 1.827970 
# 
# From -- ./inp_files/13392.got.cif
#   From: 2010.05.17/outbox.cif.g08.bks.cpg/sg71_7_cif.got.tgz:13392.got - 2010.06.03 16:22:01.
