data_PCOD9520499
_publ_section_title
;
Structure prediction by ZEFSAII (Michael W. Deem and Ramdas Pophale) SiO2 
 PCOD9520499
Probable space group: I M M M
;
_chemical_formula_sum "Si O2"
_cell_formula_units_Z 68
_cell_length_a 10.506390
_cell_length_b 18.165951
_cell_length_c 18.461600
_cell_angle_alpha 90.000000
_cell_angle_beta 90.000000
_cell_angle_gamma 90.000000
_cell_volume 3523.554501
_symmetry_space_group_name_H-M "I M M M"
_symmetry_group_IT_number 71
_symmetry_cell_setting 'orthorhombic'
loop_
_space_group_symop_operation_xyz
x,y,z
-x,-y,z
x,-y,-z
-x,y,-z
-x,-y,-z
x,y,-z
-x,y,z
x,-y,z
1/2+x,1/2+y,1/2+z
1/2-x,1/2-y,1/2+z
1/2+x,1/2-y,1/2-z
1/2-x,1/2+y,1/2-z
1/2-x,1/2-y,1/2-z
1/2+x,1/2+y,1/2-z
1/2-x,1/2+y,1/2+z
1/2+x,1/2-y,1/2+z
loop_
_atom_site_type_symbol
_atom_site_label
_atom_site_fract_x
_atom_site_fract_y
_atom_site_fract_z
Si Si1 0.787253 0.916182 0.000000
Si Si2 0.500000 0.415908 0.623334
Si Si3 0.280484 0.000000 0.580366
Si Si4 0.727559 0.343275 0.873161
Si Si5 0.000000 0.658352 0.204036
Si Si6 0.000000 0.183829 0.735397
Si Si7 0.650797 0.235815 0.000000
Si Si8 0.500000 0.000000 0.299452
O O1 0.878701 0.908490 0.070277
O O2 0.689991 0.849286 0.000000
O O3 0.736277 0.000000 0.000000
O O4 0.500000 0.500000 0.652542
O O5 0.500000 0.357087 0.687376
O O6 0.207819 0.923085 0.589786
O O7 0.380991 0.000000 0.645808
O O8 0.339434 0.000000 0.500000
O O9 0.871975 0.338170 0.843991
O O10 0.626277 0.337332 0.808678
O O11 0.704490 0.278462 0.930132
O O12 0.000000 0.728368 0.255174
O O13 0.000000 0.577637 0.241320
O O14 0.500000 0.243943 0.000000
#
# Coordination Sequence:
#
# PCOD9520499 Si02
#       8
#     8   8   8  16   8   8   8   4
#     4   9  20  41  68  92 118 154 209 268 310 357
#     4   9  20  40  67  97 120 153 208 262 310 366
#     4  10  19  37  60  89 123 157 197 244 301 360
#     4  11  24  39  63  91 124 166 204 249 304 370
#     4  10  22  41  62  86 120 157 212 254 301 357
#     4  12  23  39  62  91 129 165 195 249 308 364
#     4  12  23  41  60  89 129 162 209 254 309 367
#     4   8  19  36  60  90 114 151 200 254 302 355
#
# _framework density 19.298693
#
# number of rings (size 3 to 8) (size 9 to 14) (size 15 to 20)
#    0.000    1.647    2.353    3.000    1.647    1.647 
#    0.000    1.176    2.588    0.000    0.000    0.000 
#    0.000    0.000    0.000    0.000    0.000    0.000 
#
# Total GULP energy -189767.015256 kJ/mol
# GULP energy per Si atom -5581.382802 kJ/mol
# Density = 1.925477 g / cm^3
# Si number density = 19.298693 Si / 1000 Ang^3
#
#
#
# Elastic Constant Matrix: (Units=GPa)
#
#
# Indices 1 2 3 4 5 6 
#
# 1 107.9518 41.5161 24.1521 0.0000 0.0000 0.0000
# 2 41.5161 155.7649 38.4661 0.0000 0.0000 0.0000
# 3 24.1521 38.4661 68.5056 0.0000 0.0000 0.0000
# 4 0.0000 0.0000 0.0000 11.3503 0.0000 0.0000
# 5 0.0000 0.0000 0.0000 0.0000 26.0684 0.0000
# 6 0.0000 0.0000 0.0000 0.0000 0.0000 39.4775
#
#
#
# Elastic Compliance Matrix: (Units=1/GPa)
#
#
# Indices 1 2 3 4 5 6 
#
# 1 0.010682 -0.002226 -0.002516 0.000000 0.000000 0.000000
# 2 -0.002226 0.007917 -0.003661 0.000000 0.000000 0.000000
# 3 -0.002516 -0.003661 0.017540 0.000000 0.000000 0.000000
# 4 0.000000 0.000000 0.000000 0.088104 0.000000 0.000000
# 5 0.000000 0.000000 0.000000 0.000000 0.038361 0.000000
# 6 0.000000 0.000000 0.000000 0.000000 0.000000 0.025331
#
#
# Mechanical properties :
#
#
# Convention : Reuss Voigt Hill
#
# Bulk Modulus (GPa) = 51.72304 60.05452 55.88878
# Shear Modulus (GPa) = 23.67590 30.58511 27.13051
#
# Velocity S-wave (km/s) = 3.50639 3.98531 3.75350
# Velocity P-wave (km/s) = 6.57667 7.23622 6.91431
#
# Compressibility (1/GPa) = 0.01933374
#
# Stress axis : x y z
#
# Youngs Moduli (GPa) = 93.61228 126.30714 57.01229
#
# Poissons Ratio (x) = 0.28113 0.14346
# Poissons Ratio (y) = 0.20836 0.20871
# Poissons Ratio (z) = 0.23556 0.46239
#
# Static dielectric constant tensor:
#      x y z
#    x 1.665900 0.000000 0.000000 
#    y 0.000000 1.701690 0.000000 
#    z 0.000000 0.000000 1.648330 
# 
# From -- ./inp_files/45743.got.cif
#   From: 2010.05.17/outbox.cif.g08.bks.cpg/sg71_23_cif.got.tgz:45743.got - 2010.06.03 16:22:01.
