data_PCOD9520948
_publ_section_title
;
Structure prediction by ZEFSAII (Michael W. Deem and Ramdas Pophale) SiO2 
 PCOD9520948
Probable space group: I M M M
;
_chemical_formula_sum "Si O2"
_cell_formula_units_Z 128
_cell_length_a 18.375714
_cell_length_b 19.244204
_cell_length_c 21.943113
_cell_angle_alpha 90.000000
_cell_angle_beta 90.000000
_cell_angle_gamma 90.000000
_cell_volume 7759.655033
_symmetry_space_group_name_H-M "I M M M"
_symmetry_group_IT_number 71
_symmetry_cell_setting 'orthorhombic'
loop_
_space_group_symop_operation_xyz
x,y,z
-x,-y,z
x,-y,-z
-x,y,-z
-x,-y,-z
x,y,-z
-x,y,z
x,-y,z
1/2+x,1/2+y,1/2+z
1/2-x,1/2-y,1/2+z
1/2+x,1/2-y,1/2-z
1/2-x,1/2+y,1/2-z
1/2-x,1/2-y,1/2-z
1/2+x,1/2+y,1/2-z
1/2-x,1/2+y,1/2+z
1/2+x,1/2-y,1/2+z
loop_
_atom_site_type_symbol
_atom_site_label
_atom_site_fract_x
_atom_site_fract_y
_atom_site_fract_z
Si Si1 0.791656 0.918202 0.569265
Si Si2 0.138861 0.580203 0.877158
Si Si3 0.157773 0.287205 0.305806
Si Si4 0.584706 0.781269 0.570337
Si Si5 0.414290 0.418121 0.732934
Si Si6 0.328318 0.292389 0.677827
Si Si7 0.915430 0.843874 0.636621
Si Si8 0.913296 0.578374 0.737862
O O1 0.767558 0.904552 0.500000
O O2 0.724148 0.902876 0.613643
O O3 0.862176 0.875078 0.586463
O O4 0.808223 0.000000 0.574507
O O5 0.127850 0.500000 0.897045
O O6 0.095232 0.637056 0.915145
O O7 0.116608 0.585011 0.806763
O O8 0.241177 0.293093 0.326842
O O9 0.155802 0.255868 0.236984
O O10 0.112610 0.232411 0.345409
O O11 0.122018 0.362465 0.302760
O O12 0.604043 0.767681 0.500000
O O13 0.500000 0.763186 0.579645
O O14 0.633946 0.740285 0.618680
O O15 0.500000 0.408524 0.716787
O O16 0.396971 0.500000 0.728226
O O17 0.363322 0.367387 0.693470
O O18 0.406767 0.391867 0.802764
O O19 0.000000 0.843732 0.619843
O O20 0.897095 0.500000 0.717064
O O21 0.000000 0.587368 0.740405
#
# Coordination Sequence:
#
# PCOD9520948 Si02
#       8
#    16  16  16  16  16  16  16  16
#     4  10  21  35  50  70 102 141 177 216 255 294
#     4  10  20  33  50  71 100 138 175 212 250 292
#     4  10  20  33  52  75 100 133 167 210 266 307
#     4  11  22  34  51  73 102 142 181 218 255 296
#     4   9  18  31  49  73  99 128 162 209 262 309
#     4  10  20  33  50  73 101 131 171 214 257 309
#     4  10  20  33  51  73  99 132 169 212 257 308
#     4  10  20  33  52  78 107 137 166 204 255 309
#
# _framework density 16.495577999999998
#
# number of rings (size 3 to 8) (size 9 to 14) (size 15 to 20)
#    0.000    2.000    1.250    2.625    3.500    4.000 
#    0.000    1.250    0.000    0.375    0.000    1.750 
#    0.000    1.500    0.000    6.875    0.000    0.000 
#
# Total GULP energy -357187.237931 kJ/mol
# GULP energy per Si atom -5581.050593 kJ/mol
# Density = 1.645803 g / cm^3
# Si number density = 16.495578 Si / 1000 Ang^3
#
#
#
# Elastic Constant Matrix: (Units=GPa)
#
#
# Indices 1 2 3 4 5 6 
#
# 1 74.7935 52.6825 25.0030 0.0000 0.0000 0.0000
# 2 52.6825 101.8348 25.0396 0.0000 0.0000 0.0000
# 3 25.0030 25.0396 34.8769 0.0000 0.0000 0.0000
# 4 0.0000 0.0000 0.0000 21.3357 0.0000 0.0000
# 5 0.0000 0.0000 0.0000 0.0000 20.3697 0.0000
# 6 0.0000 0.0000 0.0000 0.0000 0.0000 30.6385
#
#
#
# Elastic Compliance Matrix: (Units=1/GPa)
#
#
# Indices 1 2 3 4 5 6 
#
# 1 0.023538 -0.009749 -0.009875 0.000000 0.000000 0.000000
# 2 -0.009749 0.015963 -0.004471 0.000000 0.000000 0.000000
# 3 -0.009875 -0.004471 0.038962 0.000000 0.000000 0.000000
# 4 0.000000 0.000000 0.000000 0.046870 0.000000 0.000000
# 5 0.000000 0.000000 0.000000 0.000000 0.049092 0.000000
# 6 0.000000 0.000000 0.000000 0.000000 0.000000 0.032639
#
#
# Mechanical properties :
#
#
# Convention : Reuss Voigt Hill
#
# Bulk Modulus (GPa) = 33.03403 46.32839 39.68121
# Shear Modulus (GPa) = 18.84335 21.72080 20.28207
#
# Velocity S-wave (km/s) = 3.38350 3.63266 3.51029
# Velocity P-wave (km/s) = 5.94420 6.76323 6.36690
#
# Compressibility (1/GPa) = 0.03027182
#
# Stress axis : x y z
#
# Youngs Moduli (GPa) = 42.48392 62.64590 25.66610
#
# Poissons Ratio (x) = 0.61073 0.25346
# Poissons Ratio (y) = 0.41418 0.11476
# Poissons Ratio (z) = 0.41954 0.28011
#
# Static dielectric constant tensor:
#      x y z
#    x 1.556440 0.000000 0.000000 
#    y 0.000000 1.557190 0.000000 
#    z 0.000000 0.000000 1.531120 
# 
# From -- ./inp_files/46680.got.cif
#   From: 2010.05.17/outbox.cif.g08.bks.cpg/sg71_24_cif.got.tgz:46680.got - 2010.06.03 16:22:01.
