data_PCOD9520588
_publ_section_title
;
Structure prediction by ZEFSAII (Michael W. Deem and Ramdas Pophale) SiO2 
 PCOD9520588
Probable space group: I M M M
;
_chemical_formula_sum "Si O2"
_cell_formula_units_Z 72
_cell_length_a 28.113471
_cell_length_b 19.378450
_cell_length_c 8.918587
_cell_angle_alpha 90.000000
_cell_angle_beta 90.000000
_cell_angle_gamma 90.000000
_cell_volume 4858.805994
_symmetry_space_group_name_H-M "I M M M"
_symmetry_group_IT_number 71
_symmetry_cell_setting 'orthorhombic'
loop_
_space_group_symop_operation_xyz
x,y,z
-x,-y,z
x,-y,-z
-x,y,-z
-x,-y,-z
x,y,-z
-x,y,z
x,-y,z
1/2+x,1/2+y,1/2+z
1/2-x,1/2-y,1/2+z
1/2+x,1/2-y,1/2-z
1/2-x,1/2+y,1/2-z
1/2-x,1/2-y,1/2-z
1/2+x,1/2+y,1/2-z
1/2-x,1/2+y,1/2+z
1/2+x,1/2-y,1/2+z
loop_
_atom_site_type_symbol
_atom_site_label
_atom_site_fract_x
_atom_site_fract_y
_atom_site_fract_z
Si Si1 0.268952 0.856693 0.821557
Si Si2 0.903538 0.865035 0.823196
Si Si3 0.237226 0.500000 0.177043
Si Si4 0.661818 0.500000 0.326986
Si Si5 0.177552 0.783268 0.321432
Si Si6 0.500000 0.418546 0.179990
O O1 0.219210 0.829910 0.751680
O O2 0.306722 0.795643 0.793117
O O3 0.282149 0.929662 0.749725
O O4 0.262766 0.863875 0.000000
O O5 0.870826 0.933238 0.805821
O O6 0.872584 0.804531 0.748995
O O7 0.953217 0.881877 0.744620
O O8 0.910415 0.853034 0.000000
O O9 0.293372 0.500000 0.218304
O O10 0.230473 0.500000 0.000000
O O11 0.679401 0.500000 0.500000
O O12 0.177272 0.794947 0.500000
O O13 0.500000 0.500000 0.224544
O O14 0.500000 0.415786 0.000000
#
# Coordination Sequence:
#
# PCOD9520588 Si02
#       6
#    16  16   8   8  16   8
#     4  10  20  33  48  67  95 127 159 197 241 287
#     4  11  21  34  51  67  93 128 163 202 244 289
#     4  12  22  30  47  71  96 125 164 205 237 283
#     4  10  20  31  45  66  93 128 163 198 241 285
#     4  10  20  33  49  69  93 124 162 200 239 285
#     4  11  23  35  49  69  95 124 163 210 243 277
#
# _framework density 14.818455999999999
#
# number of rings (size 3 to 8) (size 9 to 14) (size 15 to 20)
#    0.000    1.444    3.333    3.333    0.000    4.000 
#    0.000    0.000    0.000    0.000    0.000    0.000 
#    0.000    0.889    0.000    9.333    0.000    4.444 
#
# Total GULP energy -201046.000407 kJ/mol
# GULP energy per Si atom -5584.611122 kJ/mol
# Density = 1.478473 g / cm^3
# Si number density = 14.818456 Si / 1000 Ang^3
#
#
#
# Elastic Constant Matrix: (Units=GPa)
#
#
# Indices 1 2 3 4 5 6 
#
# 1 95.1152 49.4233 52.2081 0.0000 0.0000 0.0000
# 2 49.4233 113.6945 64.1366 0.0000 0.0000 0.0000
# 3 52.2081 64.1366 98.8883 0.0000 0.0000 0.0000
# 4 0.0000 0.0000 0.0000 23.7976 0.0000 0.0000
# 5 0.0000 0.0000 0.0000 0.0000 25.7300 0.0000
# 6 0.0000 0.0000 0.0000 0.0000 0.0000 21.3357
#
#
#
# Elastic Compliance Matrix: (Units=1/GPa)
#
#
# Indices 1 2 3 4 5 6 
#
# 1 0.015578 -0.003363 -0.006044 0.000000 0.000000 0.000000
# 2 -0.003363 0.014596 -0.007691 0.000000 0.000000 0.000000
# 3 -0.006044 -0.007691 0.018292 0.000000 0.000000 0.000000
# 4 0.000000 0.000000 0.000000 0.042021 0.000000 0.000000
# 5 0.000000 0.000000 0.000000 0.000000 0.038865 0.000000
# 6 0.000000 0.000000 0.000000 0.000000 0.000000 0.046870
#
#
# Mechanical properties :
#
#
# Convention : Reuss Voigt Hill
#
# Bulk Modulus (GPa) = 70.07387 71.02600 70.54993
# Shear Modulus (GPa) = 23.23705 23.63465 23.43585
#
# Velocity S-wave (km/s) = 3.96424 3.99801 3.98116
# Velocity P-wave (km/s) = 8.26707 8.32748 8.29733
#
# Compressibility (1/GPa) = 0.01427066
#
# Stress axis : x y z
#
# Youngs Moduli (GPa) = 64.19265 68.51184 54.67003
#
# Poissons Ratio (x) = 0.23038 0.33040
# Poissons Ratio (y) = 0.21585 0.42049
# Poissons Ratio (z) = 0.38795 0.52695
#
# Static dielectric constant tensor:
#      x y z
#    x 1.463150 0.000000 0.000000 
#    y 0.000000 1.503780 0.000000 
#    z 0.000000 0.000000 1.495160 
# 
# From -- ./inp_files/10158.got.cif
#   From: 2010.05.17/outbox.cif.g08.bks.cpg/sg71_6_cif.got.tgz:10158.got - 2010.06.03 16:22:01.
