data_PCOD9520961
_publ_section_title
;
Structure prediction by ZEFSAII (Michael W. Deem and Ramdas Pophale) SiO2 
 PCOD9520961
Probable space group: I M M M
;
_chemical_formula_sum "Si O2"
_cell_formula_units_Z 80
_cell_length_a 26.658467
_cell_length_b 9.213047
_cell_length_c 19.233753
_cell_angle_alpha 90.000000
_cell_angle_beta 90.000000
_cell_angle_gamma 90.000000
_cell_volume 4723.919550
_symmetry_space_group_name_H-M "I M M M"
_symmetry_group_IT_number 71
_symmetry_cell_setting 'orthorhombic'
loop_
_space_group_symop_operation_xyz
x,y,z
-x,-y,z
x,-y,-z
-x,y,-z
-x,-y,-z
x,y,-z
-x,y,z
x,-y,z
1/2+x,1/2+y,1/2+z
1/2-x,1/2-y,1/2+z
1/2+x,1/2-y,1/2-z
1/2-x,1/2+y,1/2-z
1/2-x,1/2-y,1/2-z
1/2+x,1/2+y,1/2-z
1/2-x,1/2+y,1/2+z
1/2+x,1/2-y,1/2+z
loop_
_atom_site_type_symbol
_atom_site_label
_atom_site_fract_x
_atom_site_fract_y
_atom_site_fract_z
Si Si1 0.150917 0.173740 0.417471
Si Si2 0.752729 0.167125 0.915388
Si Si3 0.555850 0.676131 0.828488
Si Si4 0.145671 0.671065 0.083390
Si Si5 0.057694 0.826024 0.165680
O O1 0.144127 0.198739 0.500000
O O2 0.201571 0.253473 0.393945
O O3 0.101922 0.224845 0.375811
O O4 0.156836 0.000000 0.407803
O O5 0.802844 0.251230 0.893544
O O6 0.753899 0.000000 0.892861
O O7 0.752659 0.169088 0.000000
O O8 0.500000 0.726864 0.849504
O O9 0.555003 0.500000 0.832834
O O10 0.563556 0.711137 0.747339
O O11 0.148293 0.500000 0.097771
O O12 0.098303 0.743099 0.120444
O O13 0.141295 0.689894 0.000000
O O14 0.000000 0.792676 0.146072
O O15 0.064404 0.000000 0.158746
#
# Coordination Sequence:
#
# PCOD9520961 Si02
#       5
#    16  16  16  16  16
#     4   9  16  27  47  74 100 125 156 195 235 274
#     4   9  17  30  48  69  95 126 157 190 232 282
#     4   8  15  29  48  70  97 128 160 194 232 273
#     4  10  20  33  50  72  96 120 151 195 241 282
#     4   9  18  33  51  69  93 127 162 193 228 275
#
# _framework density 16.935089000000001
#
# number of rings (size 3 to 8) (size 9 to 14) (size 15 to 20)
#    0.000    3.000    0.000    2.400    0.000    4.800 
#    0.000    6.000    0.000    1.800    0.000    2.800 
#    0.000    0.000    0.000    0.000    0.000    0.000 
#
# Total GULP energy -222883.369795 kJ/mol
# GULP energy per Si atom -5572.084245 kJ/mol
# Density = 1.689654 g / cm^3
# Si number density = 16.935089 Si / 1000 Ang^3
#
#
#
# Elastic Constant Matrix: (Units=GPa)
#
#
# Indices 1 2 3 4 5 6 
#
# 1 209.1701 92.2340 73.5803 0.0000 0.0000 0.0000
# 2 92.2340 70.0032 43.5481 0.0000 0.0000 0.0000
# 3 73.5803 43.5481 33.6113 0.0000 0.0000 0.0000
# 4 0.0000 0.0000 0.0000 13.8320 0.0000 0.0000
# 5 0.0000 0.0000 0.0000 0.0000 -55.4157 0.0000
# 6 0.0000 0.0000 0.0000 0.0000 0.0000 28.5721
#
#
#
# Elastic Compliance Matrix: (Units=1/GPa)
#
#
# Indices 1 2 3 4 5 6 
#
# 1 0.021104 0.004817 -0.052441 0.000000 0.000000 0.000000
# 2 0.004817 0.074734 -0.107373 0.000000 0.000000 0.000000
# 3 -0.052441 -0.107373 0.283671 0.000000 0.000000 0.000000
# 4 0.000000 0.000000 0.000000 0.072296 0.000000 0.000000
# 5 0.000000 0.000000 0.000000 0.000000 -0.018045 0.000000
# 6 0.000000 0.000000 0.000000 0.000000 0.000000 0.034999
#
#
# Mechanical properties :
#
#
# Convention : Reuss Voigt Hill
#
# Bulk Modulus (GPa) = 14.38559 81.27880 47.83219
# Shear Modulus (GPa) = 6.23499 4.29251 5.26375
#
# Velocity S-wave (km/s) = 1.92086 1.59380 1.76492
# Velocity P-wave (km/s) = 3.66505 7.17533 5.69728
#
# Compressibility (1/GPa) = 0.06951401
#
# Stress axis : x y z
#
# Youngs Moduli (GPa) = 47.38391 13.38076 3.52521
#
# Poissons Ratio (x) = -0.06445 0.18487
# Poissons Ratio (y) = -0.22824 0.37851
# Poissons Ratio (z) = 2.48487 1.43674
#
# Static dielectric constant tensor:
#      x y z
#    x 1.564760 0.000000 0.000000 
#    y 0.000000 1.566020 0.000000 
#    z 0.000000 0.000000 1.557610 
# 
# From -- ./inp_files/8319.got.cif
#   From: 2010.05.17/outbox.cif.g08.bks.cpg/sg71_5_cif.got.tgz:8319.got - 2010.06.03 16:22:01.
