data_PCOD9520914
_publ_section_title
;
Structure prediction by ZEFSAII (Michael W. Deem and Ramdas Pophale) SiO2 
 PCOD9520914
Probable space group: I M M M
;
_chemical_formula_sum "Si O2"
_cell_formula_units_Z 72
_cell_length_a 14.678086
_cell_length_b 8.667800
_cell_length_c 32.231815
_cell_angle_alpha 90.000000
_cell_angle_beta 90.000000
_cell_angle_gamma 90.000000
_cell_volume 4100.747903
_symmetry_space_group_name_H-M "I M M M"
_symmetry_group_IT_number 71
_symmetry_cell_setting 'orthorhombic'
loop_
_space_group_symop_operation_xyz
x,y,z
-x,-y,z
x,-y,-z
-x,y,-z
-x,-y,-z
x,y,-z
-x,y,z
x,-y,z
1/2+x,1/2+y,1/2+z
1/2-x,1/2-y,1/2+z
1/2+x,1/2-y,1/2-z
1/2-x,1/2+y,1/2-z
1/2-x,1/2-y,1/2-z
1/2+x,1/2+y,1/2-z
1/2-x,1/2+y,1/2+z
1/2+x,1/2-y,1/2+z
loop_
_atom_site_type_symbol
_atom_site_label
_atom_site_fract_x
_atom_site_fract_y
_atom_site_fract_z
Si Si1 0.500000 0.315843 0.758279
Si Si2 0.000000 0.827741 0.951209
Si Si3 0.000000 0.684833 0.164520
Si Si4 0.311353 0.814781 0.787210
Si Si5 0.304535 0.183306 0.452736
Si Si6 0.693018 0.684177 0.367816
O O1 0.500000 0.500000 0.753814
O O2 0.500000 0.242517 0.712128
O O3 0.589778 0.259276 0.781979
O O4 0.090302 0.729694 0.945071
O O5 0.000000 0.000000 0.931456
O O6 0.000000 0.853667 0.000000
O O7 0.093186 0.746360 0.143371
O O8 0.000000 0.500000 0.162953
O O9 0.250000 0.750000 0.750000
O O10 0.260248 0.776711 0.829990
O O11 0.317971 0.000000 0.783829
O O12 0.280281 0.236099 0.500000
O O13 0.263750 0.258543 0.411355
O O14 0.293408 0.000000 0.451782
O O15 0.682589 0.500000 0.369816
#
# Coordination Sequence:
#
# PCOD9520914 Si02
#       6
#     8   8   8  16  16  16
#     4  12  24  39  59  83 114 149 187 228 276 334
#     4   9  16  27  44  65  94 134 177 220 265 314
#     4  12  23  35  55  79 111 150 190 232 276 327
#     4  11  23  39  60  84 113 147 186 231 279 330
#     4  10  20  33  49  71 102 140 182 226 273 326
#     4  11  23  37  55  80 111 146 188 232 277 331
#
# _framework density 17.557773000000001
#
# number of rings (size 3 to 8) (size 9 to 14) (size 15 to 20)
#    0.000    1.222    2.222    5.000    0.000    5.333 
#    0.000    0.000    0.000    0.000    0.000    0.778 
#    0.000    6.222    0.000    0.000    0.000    0.000 
#
# Total GULP energy -200857.352558 kJ/mol
# GULP energy per Si atom -5579.370904 kJ/mol
# Density = 1.751781 g / cm^3
# Si number density = 17.557773 Si / 1000 Ang^3
#
#
#
# Elastic Constant Matrix: (Units=GPa)
#
#
# Indices 1 2 3 4 5 6 
#
# 1 93.3924 37.0702 57.3412 0.0000 0.0000 0.0000
# 2 37.0702 87.6000 61.8418 0.0000 0.0000 0.0000
# 3 57.3412 61.8418 185.5755 0.0000 0.0000 0.0000
# 4 0.0000 0.0000 0.0000 31.3236 0.0000 0.0000
# 5 0.0000 0.0000 0.0000 0.0000 57.2565 0.0000
# 6 0.0000 0.0000 0.0000 0.0000 0.0000 23.1149
#
#
#
# Elastic Compliance Matrix: (Units=1/GPa)
#
#
# Indices 1 2 3 4 5 6 
#
# 1 0.014113 -0.003784 -0.003100 0.000000 0.000000 0.000000
# 2 -0.003784 0.015942 -0.004143 0.000000 0.000000 0.000000
# 3 -0.003100 -0.004143 0.007727 0.000000 0.000000 0.000000
# 4 0.000000 0.000000 0.000000 0.031925 0.000000 0.000000
# 5 0.000000 0.000000 0.000000 0.000000 0.017465 0.000000
# 6 0.000000 0.000000 0.000000 0.000000 0.000000 0.043262
#
#
# Mechanical properties :
#
#
# Convention : Reuss Voigt Hill
#
# Bulk Modulus (GPa) = 63.58186 75.45271 69.51729
# Shear Modulus (GPa) = 31.69972 36.35997 34.02984
#
# Velocity S-wave (km/s) = 4.25367 4.55562 4.40723
# Velocity P-wave (km/s) = 7.77281 8.41064 8.09801
#
# Compressibility (1/GPa) = 0.01572776
#
# Stress axis : x y z
#
# Youngs Moduli (GPa) = 70.85862 62.72836 129.41362
#
# Poissons Ratio (x) = 0.23735 0.40115
# Poissons Ratio (y) = 0.26812 0.53620
# Poissons Ratio (z) = 0.21964 0.25990
#
# Static dielectric constant tensor:
#      x y z
#    x 1.702350 0.000000 0.000000 
#    y 0.000000 1.600970 0.000000 
#    z 0.000000 0.000000 1.668360 
# 
# From -- ./inp_files/69727.got.cif
#   From: 2010.05.17/outbox.cif.g08.bks.cpg/sg71_35_cif.got.tgz:69727.got - 2010.06.03 16:22:01.
