data_PCOD9520403
_publ_section_title
;
Structure prediction by ZEFSAII (Michael W. Deem and Ramdas Pophale) SiO2 
 PCOD9520403
Probable space group: I M M M
;
_chemical_formula_sum "Si O2"
_cell_formula_units_Z 96
_cell_length_a 15.485160
_cell_length_b 14.662908
_cell_length_c 20.984856
_cell_angle_alpha 90.000000
_cell_angle_beta 90.000000
_cell_angle_gamma 90.000000
_cell_volume 4764.768447
_symmetry_space_group_name_H-M "I M M M"
_symmetry_group_IT_number 71
_symmetry_cell_setting 'orthorhombic'
loop_
_space_group_symop_operation_xyz
x,y,z
-x,-y,z
x,-y,-z
-x,y,-z
-x,-y,-z
x,y,-z
-x,y,z
x,-y,z
1/2+x,1/2+y,1/2+z
1/2-x,1/2-y,1/2+z
1/2+x,1/2-y,1/2-z
1/2-x,1/2+y,1/2-z
1/2-x,1/2-y,1/2-z
1/2+x,1/2+y,1/2-z
1/2-x,1/2+y,1/2+z
1/2+x,1/2-y,1/2+z
loop_
_atom_site_type_symbol
_atom_site_label
_atom_site_fract_x
_atom_site_fract_y
_atom_site_fract_z
Si Si1 0.400048 0.891882 0.367323
Si Si2 0.156115 0.395678 0.279484
Si Si3 0.093721 0.785099 0.666302
Si Si4 0.660940 0.606780 0.570680
Si Si5 0.243911 0.210646 0.428731
Si Si6 0.363674 0.394450 0.290500
O O1 0.500000 0.865136 0.374450
O O2 0.370503 0.879835 0.293987
O O3 0.334550 0.835621 0.410528
O O4 0.393067 0.000000 0.381360
O O5 0.135001 0.500000 0.295447
O O6 0.107695 0.321954 0.321612
O O7 0.259365 0.383481 0.286788
O O8 0.172288 0.816806 0.622328
O O9 0.099416 0.831593 0.735602
O O10 0.000000 0.803804 0.638091
O O11 0.619716 0.617071 0.500000
O O12 0.687807 0.500000 0.575707
O O13 0.737663 0.680547 0.572346
O O14 0.609868 0.625233 0.636385
O O15 0.218197 0.184961 0.500000
O O16 0.384110 0.500000 0.276884
#
# Coordination Sequence:
#
# PCOD9520403 Si02
#       6
#    16  16  16  16  16  16
#     4  10  21  38  62  92 121 147 184 241 308 368
#     4  10  19  35  60  89 119 150 187 240 300 353
#     4  12  24  37  58  87 120 159 203 246 287 341
#     4   9  18  34  59  88 116 151 191 233 288 352
#     4  11  23  39  59  83 117 160 202 245 294 347
#     4  10  19  35  61  85 113 154 197 242 291 347
#
# _framework density 20.147883
#
# number of rings (size 3 to 8) (size 9 to 14) (size 15 to 20)
#    0.000    1.667    3.333    2.000    0.000    2.333 
#    0.000    0.833    0.000    3.000    0.000   12.833 
#    0.000    0.000    0.000    0.000    0.000    0.000 
#
# Total GULP energy -267979.227222 kJ/mol
# GULP energy per Si atom -5582.900567 kJ/mol
# Density = 2.010203 g / cm^3
# Si number density = 20.147883 Si / 1000 Ang^3
#
#
#
# Elastic Constant Matrix: (Units=GPa)
#
#
# Indices 1 2 3 4 5 6 
#
# 1 94.0603 31.9096 48.9105 0.0000 0.0000 0.0000
# 2 31.9096 40.9699 36.7867 0.0000 0.0000 0.0000
# 3 48.9105 36.7867 128.4566 0.0000 0.0000 0.0000
# 4 0.0000 0.0000 0.0000 23.4604 0.0000 0.0000
# 5 0.0000 0.0000 0.0000 0.0000 -5.8587 0.0000
# 6 0.0000 0.0000 0.0000 0.0000 0.0000 4.9479
#
#
#
# Elastic Compliance Matrix: (Units=1/GPa)
#
#
# Indices 1 2 3 4 5 6 
#
# 1 0.015407 -0.009063 -0.003271 0.000000 0.000000 0.000000
# 2 -0.009063 0.038188 -0.007485 0.000000 0.000000 0.000000
# 3 -0.003271 -0.007485 0.011174 0.000000 0.000000 0.000000
# 4 0.000000 0.000000 0.000000 0.042625 0.000000 0.000000
# 5 0.000000 0.000000 0.000000 0.000000 -0.170686 0.000000
# 6 0.000000 0.000000 0.000000 0.000000 0.000000 0.202107
#
#
# Mechanical properties :
#
#
# Convention : Reuss Voigt Hill
#
# Bulk Modulus (GPa) = 39.79243 55.41116 47.60179
# Shear Modulus (GPa) = 26.76246 14.23526 20.49886
#
# Velocity S-wave (km/s) = 3.64854 2.66096 3.19316
# Velocity P-wave (km/s) = 6.12717 6.08300 6.10512
#
# Compressibility (1/GPa) = 0.02513041
#
# Stress axis : x y z
#
# Youngs Moduli (GPa) = 64.90637 26.18640 89.49554
#
# Poissons Ratio (x) = 0.23732 0.29273
# Poissons Ratio (y) = 0.58823 0.66990
# Poissons Ratio (z) = 0.21230 0.19601
#
# Static dielectric constant tensor:
#      x y z
#    x 1.691510 0.000000 0.000000 
#    y 0.000000 1.729240 0.000000 
#    z 0.000000 0.000000 1.720290 
# 
# From -- ./inp_files/34496.got.cif
#   From: 2010.05.17/outbox.cif.g08.bks.cpg/sg71_18_cif.got.tgz:34496.got - 2010.06.03 16:22:01.
