data_PCOD9520673
_publ_section_title
;
Structure prediction by ZEFSAII (Michael W. Deem and Ramdas Pophale) SiO2 
 PCOD9520673
Probable space group: I M M M
;
_chemical_formula_sum "Si O2"
_cell_formula_units_Z 112
_cell_length_a 28.141621
_cell_length_b 26.637546
_cell_length_c 7.428230
_cell_angle_alpha 90.000000
_cell_angle_beta 90.000000
_cell_angle_gamma 90.000000
_cell_volume 5568.377435
_symmetry_space_group_name_H-M "I M M M"
_symmetry_group_IT_number 71
_symmetry_cell_setting 'orthorhombic'
loop_
_space_group_symop_operation_xyz
x,y,z
-x,-y,z
x,-y,-z
-x,y,-z
-x,-y,-z
x,y,-z
-x,y,z
x,-y,z
1/2+x,1/2+y,1/2+z
1/2-x,1/2-y,1/2+z
1/2+x,1/2-y,1/2-z
1/2-x,1/2+y,1/2-z
1/2-x,1/2-y,1/2-z
1/2+x,1/2+y,1/2-z
1/2-x,1/2+y,1/2+z
1/2+x,1/2-y,1/2+z
loop_
_atom_site_type_symbol
_atom_site_label
_atom_site_fract_x
_atom_site_fract_y
_atom_site_fract_z
Si Si1 0.369984 0.339567 0.720011
Si Si2 0.667130 0.555414 0.719304
Si Si3 0.625779 0.944824 0.784635
Si Si4 0.772012 0.591402 0.280423
Si Si5 0.945960 0.645982 0.784810
Si Si6 0.445038 0.257917 0.719360
Si Si7 0.766723 0.194388 0.785899
O O1 0.371435 0.339662 0.500000
O O2 0.365567 0.397773 0.776046
O O3 0.412237 0.303611 0.781757
O O4 0.320042 0.315330 0.779056
O O5 0.667134 0.555794 0.500000
O O6 0.652588 0.500000 0.778738
O O7 0.722068 0.565935 0.772727
O O8 0.678943 0.932559 0.716699
O O9 0.589632 0.899430 0.751187
O O10 0.610195 0.000000 0.718954
O O11 0.629398 0.947831 0.000000
O O12 0.772995 0.589121 0.500000
O O13 0.767253 0.649506 0.222060
O O14 0.929915 0.701624 0.722018
O O15 0.000000 0.636824 0.718285
O O16 0.949027 0.649722 0.000000
O O17 0.443276 0.258394 0.500000
O O18 0.500000 0.264234 0.770868
O O19 0.750000 0.250000 0.750000
O O20 0.768879 0.188076 0.000000
#
# Coordination Sequence:
#
# PCOD9520673 Si02
#       7
#    16  16  16  16  16  16  16
#     4   8  14  23  37  59  82 106 139 175 208 245
#     4   8  12  20  36  56  81 113 144 172 202 242
#     4  10  20  32  47  66  86 111 143 178 218 261
#     4   8  15  27  40  58  85 113 140 171 208 250
#     4   9  19  34  49  64  82 109 145 181 219 262
#     4   8  14  26  43  60  79 106 141 178 214 253
#     4   9  17  27  40  61  88 114 139 170 210 252
#
# _framework density 20.113578
#
# number of rings (size 3 to 8) (size 9 to 14) (size 15 to 20)
#    0.000    3.429    0.000    3.000    2.000    2.571 
#    0.000    1.429    0.000    0.429    0.000    3.000 
#    0.000    5.143    0.000    0.000    0.000    0.000 
#
# Total GULP energy -312130.082881 kJ/mol
# GULP energy per Si atom -5573.751480 kJ/mol
# Density = 2.006780 g / cm^3
# Si number density = 20.113578 Si / 1000 Ang^3
#
#
#
# Elastic Constant Matrix: (Units=GPa)
#
#
# Indices 1 2 3 4 5 6 
#
# 1 97.3115 105.8870 4.2489 0.0000 0.0000 0.0000
# 2 105.8870 231.4244 4.2311 0.0000 0.0000 0.0000
# 3 4.2489 4.2311 60.1024 0.0000 0.0000 0.0000
# 4 0.0000 0.0000 0.0000 3.6446 0.0000 0.0000
# 5 0.0000 0.0000 0.0000 0.0000 -2.0330 0.0000
# 6 0.0000 0.0000 0.0000 0.0000 0.0000 26.1211
#
#
#
# Elastic Compliance Matrix: (Units=1/GPa)
#
#
# Indices 1 2 3 4 5 6 
#
# 1 0.020503 -0.009366 -0.000790 0.000000 0.000000 0.000000
# 2 -0.009366 0.008606 0.000056 0.000000 0.000000 0.000000
# 3 -0.000790 0.000056 0.016690 0.000000 0.000000 0.000000
# 4 0.000000 0.000000 0.000000 0.274377 0.000000 0.000000
# 5 0.000000 0.000000 0.000000 0.000000 -0.491889 0.000000
# 6 0.000000 0.000000 0.000000 0.000000 0.000000 0.038283
#
#
# Mechanical properties :
#
#
# Convention : Reuss Voigt Hill
#
# Bulk Modulus (GPa) = 39.06535 68.61912 53.84224
# Shear Modulus (GPa) = -47.75643 23.84463 -11.95590
#
# Velocity S-wave (km/s) = -4.87800 3.44684 -2.44072
# Velocity P-wave (km/s) = 3.50172 7.07325 4.34562
#
# Compressibility (1/GPa) = 0.02559813
#
# Stress axis : x y z
#
# Youngs Moduli (GPa) = 48.77435 116.20361 59.91553
#
# Poissons Ratio (x) = 1.08841 0.04733
# Poissons Ratio (y) = 0.45684 -0.00337
# Poissons Ratio (z) = 0.03853 -0.00655
#
# Static dielectric constant tensor:
#      x y z
#    x 1.681750 0.000000 0.000000 
#    y 0.000000 1.746230 0.000000 
#    z 0.000000 0.000000 1.857740 
# 
# From -- ./inp_files/29225.got.cif
#   From: 2010.05.17/outbox.cif.g08.bks.cpg/sg71_15_cif.got.tgz:29225.got - 2010.06.03 16:22:01.
