data_PCOD9520735
_publ_section_title
;
Structure prediction by ZEFSAII (Michael W. Deem and Ramdas Pophale) SiO2 
 PCOD9520735
Probable space group: I M M M
;
_chemical_formula_sum "Si O2"
_cell_formula_units_Z 104
_cell_length_a 10.101485
_cell_length_b 24.973980
_cell_length_c 24.519907
_cell_angle_alpha 90.000000
_cell_angle_beta 90.000000
_cell_angle_gamma 90.000000
_cell_volume 6185.741991
_symmetry_space_group_name_H-M "I M M M"
_symmetry_group_IT_number 71
_symmetry_cell_setting 'orthorhombic'
loop_
_space_group_symop_operation_xyz
x,y,z
-x,-y,z
x,-y,-z
-x,y,-z
-x,-y,-z
x,y,-z
-x,y,z
x,-y,z
1/2+x,1/2+y,1/2+z
1/2-x,1/2-y,1/2+z
1/2+x,1/2-y,1/2-z
1/2-x,1/2+y,1/2-z
1/2-x,1/2-y,1/2-z
1/2+x,1/2+y,1/2-z
1/2-x,1/2+y,1/2+z
1/2+x,1/2-y,1/2+z
loop_
_atom_site_type_symbol
_atom_site_label
_atom_site_fract_x
_atom_site_fract_y
_atom_site_fract_z
Si Si1 0.846185 0.150703 0.564382
Si Si2 0.846059 0.936658 0.655615
Si Si3 0.000000 0.936041 0.938206
Si Si4 0.729864 0.936469 0.124658
Si Si5 0.856655 0.336873 0.435204
Si Si6 0.151878 0.435328 0.252367
Si Si7 0.847400 0.251881 0.933699
O O1 0.828828 0.139149 0.500000
O O2 0.827011 0.098680 0.601740
O O3 0.740725 0.196236 0.580285
O O4 0.000000 0.168397 0.571376
O O5 0.746066 0.918138 0.702945
O O6 0.000000 0.930694 0.673066
O O7 0.824731 0.000000 0.645217
O O8 0.871968 0.924671 0.902221
O O9 0.000000 0.000000 0.945179
O O10 0.000000 0.912243 0.000000
O O11 0.641326 0.894511 0.092550
O O12 0.715454 0.924247 0.188623
O O13 0.699972 0.000000 0.117057
O O14 0.840804 0.344185 0.500000
O O15 0.736322 0.299872 0.415355
O O16 0.000000 0.310052 0.426322
O O17 0.145892 0.500000 0.248873
O O18 0.000000 0.415521 0.249609
O O19 0.000000 0.253243 0.915057
O O20 0.850021 0.250023 0.000000
#
# Coordination Sequence:
#
# PCOD9520735 Si02
#       7
#    16  16   8  16  16  16  16
#     4   9  17  31  52  77 105 135 165 200 246 300
#     4   9  18  31  50  77 107 136 166 203 246 295
#     4   9  18  30  44  68 100 130 161 203 254 302
#     4  10  20  32  49  71  98 134 171 209 253 305
#     4  10  20  32  48  71  99 130 164 208 258 303
#     4   9  18  32  49  69  97 134 175 214 250 292
#     4   9  18  32  50  71  96 129 169 209 247 295
#
# _framework density 16.812857000000001
#
# number of rings (size 3 to 8) (size 9 to 14) (size 15 to 20)
#    0.000    2.692    0.000    1.385    2.154    4.615 
#    0.000    2.308    0.000    0.923    0.000    4.308 
#    0.000    0.000    0.000    0.000    0.000    0.000 
#
# Total GULP energy -289489.193654 kJ/mol
# GULP energy per Si atom -5567.099878 kJ/mol
# Density = 1.677459 g / cm^3
# Si number density = 16.812857 Si / 1000 Ang^3
#
#
#
# Elastic Constant Matrix: (Units=GPa)
#
#
# Indices 1 2 3 4 5 6 
#
# 1 133.0040 59.2716 70.4525 0.0000 0.0000 0.0000
# 2 59.2716 71.0195 42.8132 0.0000 0.0000 0.0000
# 3 70.4525 42.8132 77.8898 0.0000 0.0000 0.0000
# 4 0.0000 0.0000 0.0000 4.3240 0.0000 0.0000
# 5 0.0000 0.0000 0.0000 0.0000 102.9675 0.0000
# 6 0.0000 0.0000 0.0000 0.0000 0.0000 17.1989
#
#
#
# Elastic Compliance Matrix: (Units=1/GPa)
#
#
# Indices 1 2 3 4 5 6 
#
# 1 0.016559 -0.007165 -0.011040 0.000000 0.000000 0.000000
# 2 -0.007165 0.024159 -0.006798 0.000000 0.000000 0.000000
# 3 -0.011040 -0.006798 0.026561 0.000000 0.000000 0.000000
# 4 0.000000 0.000000 0.000000 0.231267 0.000000 0.000000
# 5 0.000000 0.000000 0.000000 0.000000 0.009712 0.000000
# 6 0.000000 0.000000 0.000000 0.000000 0.000000 0.058143
#
#
# Mechanical properties :
#
#
# Convention : Reuss Voigt Hill
#
# Bulk Modulus (GPa) = 57.89417 69.66529 63.77973
# Shear Modulus (GPa) = 11.84369 32.18981 22.01675
#
# Velocity S-wave (km/s) = 2.65701 4.38035 3.62265
# Velocity P-wave (km/s) = 6.62738 8.19201 7.45088
#
# Compressibility (1/GPa) = 0.01727290
#
# Stress axis : x y z
#
# Youngs Moduli (GPa) = 60.38865 41.39305 37.64879
#
# Poissons Ratio (x) = 0.29658 0.41564
# Poissons Ratio (y) = 0.43268 0.25595
# Poissons Ratio (z) = 0.66669 0.28141
#
# Static dielectric constant tensor:
#      x y z
#    x 1.641410 0.000000 0.000000 
#    y 0.000000 1.558910 0.000000 
#    z 0.000000 0.000000 1.541220 
# 
# From -- ./inp_files/63566.got.cif
#   From: 2010.05.17/outbox.cif.g08.bks.cpg/sg71_32_cif.got.tgz:63566.got - 2010.06.03 16:22:01.
