data_PCOD9520452
_publ_section_title
;
Structure prediction by ZEFSAII (Michael W. Deem and Ramdas Pophale) SiO2 
 PCOD9520452
Probable space group: I M M M
;
_chemical_formula_sum "Si O2"
_cell_formula_units_Z 88
_cell_length_a 11.541184
_cell_length_b 16.881287
_cell_length_c 21.309375
_cell_angle_alpha 90.000000
_cell_angle_beta 90.000000
_cell_angle_gamma 90.000000
_cell_volume 4151.706371
_symmetry_space_group_name_H-M "I M M M"
_symmetry_group_IT_number 71
_symmetry_cell_setting 'orthorhombic'
loop_
_space_group_symop_operation_xyz
x,y,z
-x,-y,z
x,-y,-z
-x,y,-z
-x,-y,-z
x,y,-z
-x,y,z
x,-y,z
1/2+x,1/2+y,1/2+z
1/2-x,1/2-y,1/2+z
1/2+x,1/2-y,1/2-z
1/2-x,1/2+y,1/2-z
1/2-x,1/2-y,1/2-z
1/2+x,1/2+y,1/2-z
1/2-x,1/2+y,1/2+z
1/2+x,1/2-y,1/2+z
loop_
_atom_site_type_symbol
_atom_site_label
_atom_site_fract_x
_atom_site_fract_y
_atom_site_fract_z
Si Si1 0.870681 0.831579 0.313186
Si Si2 0.861703 0.283019 0.500000
Si Si3 0.000000 0.095809 0.071339
Si Si4 0.867904 0.329465 0.000000
Si Si5 0.871629 0.653152 0.637231
Si Si6 0.655907 0.590211 0.683983
Si Si7 0.869901 0.594380 0.863742
O O1 0.859974 0.739758 0.331008
O O2 0.876319 0.851605 0.239685
O O3 0.750131 0.871563 0.335257
O O4 0.000000 0.857007 0.338953
O O5 0.750637 0.223385 0.500000
O O6 0.849646 0.333237 0.436553
O O7 0.000000 0.253026 0.500000
O O8 0.105401 0.118042 0.116881
O O9 0.000000 0.000000 0.068220
O O10 0.000000 0.123273 0.000000
O O11 0.864574 0.380971 0.063171
O O12 0.000000 0.292578 0.000000
O O13 0.790442 0.593972 0.673096
O O14 0.000000 0.624587 0.643962
O O15 0.620465 0.500000 0.697680
O O16 0.866828 0.500000 0.856565
O O17 0.000000 0.621727 0.840871
#
# Coordination Sequence:
#
# PCOD9520452 Si02
#       7
#    16   8   8   8  16  16  16
#     4  11  22  41  65  90 127 169 209 258 314 381
#     4  10  20  41  64  89 129 166 208 264 317 373
#     4   9  20  40  62  88 122 157 198 256 321 377
#     4  10  19  36  58  87 123 164 219 267 312 371
#     4  10  23  41  63  91 125 165 206 255 314 379
#     4  11  23  41  65  93 124 159 207 264 321 380
#     4  10  21  36  57  88 128 171 214 264 317 372
#
# _framework density 21.196103999999998
#
# number of rings (size 3 to 8) (size 9 to 14) (size 15 to 20)
#    0.000    1.727    2.727    1.364    1.273    3.273 
#    3.273    0.000    0.000    3.273    0.000    0.000 
#    0.000    0.000    0.000    0.000    0.000    0.000 
#
# Total GULP energy -245130.344165 kJ/mol
# GULP energy per Si atom -5571.144186 kJ/mol
# Density = 2.114786 g / cm^3
# Si number density = 21.196104 Si / 1000 Ang^3
#
#
#
# Elastic Constant Matrix: (Units=GPa)
#
#
# Indices 1 2 3 4 5 6 
#
# 1 181.1152 33.7206 31.1722 0.0000 0.0000 0.0000
# 2 33.7206 25.0520 17.8882 0.0000 0.0000 0.0000
# 3 31.1722 17.8882 119.5978 0.0000 0.0000 0.0000
# 4 0.0000 0.0000 0.0000 22.8490 0.0000 0.0000
# 5 0.0000 0.0000 0.0000 0.0000 10.7927 0.0000
# 6 0.0000 0.0000 0.0000 0.0000 0.0000 16.8137
#
#
#
# Elastic Compliance Matrix: (Units=1/GPa)
#
#
# Indices 1 2 3 4 5 6 
#
# 1 0.007393 -0.009601 -0.000491 0.000000 0.000000 0.000000
# 2 -0.009601 0.057158 -0.006047 0.000000 0.000000 0.000000
# 3 -0.000491 -0.006047 0.009394 0.000000 0.000000 0.000000
# 4 0.000000 0.000000 0.000000 0.043766 0.000000 0.000000
# 5 0.000000 0.000000 0.000000 0.000000 0.092655 0.000000
# 6 0.000000 0.000000 0.000000 0.000000 0.000000 0.059475
#
#
# Mechanical properties :
#
#
# Convention : Reuss Voigt Hill
#
# Bulk Modulus (GPa) = 23.99953 54.59190 39.29571
# Shear Modulus (GPa) = 15.82241 26.29004 21.05622
#
# Velocity S-wave (km/s) = 2.73514 3.52564 3.15525
# Velocity P-wave (km/s) = 4.61756 6.51038 5.64389
#
# Compressibility (1/GPa) = 0.04166748
#
# Stress axis : x y z
#
# Youngs Moduli (GPa) = 135.25534 17.49540 106.45400
#
# Poissons Ratio (x) = 0.16798 0.05227
# Poissons Ratio (y) = 1.29861 0.64369
# Poissons Ratio (z) = 0.06641 0.10579
#
# Static dielectric constant tensor:
#      x y z
#    x 1.890490 0.000000 0.000000 
#    y 0.000000 1.717220 0.000000 
#    z 0.000000 0.000000 1.757890 
# 
# From -- ./inp_files/51829.got.cif
#   From: 2010.05.17/outbox.cif.g08.bks.cpg/sg71_26_cif.got.tgz:51829.got - 2010.06.03 16:22:01.
