data_PCOD9520638
_publ_section_title
;
Structure prediction by ZEFSAII (Michael W. Deem and Ramdas Pophale) SiO2 
 PCOD9520638
Probable space group: I M M M
;
_chemical_formula_sum "Si O2"
_cell_formula_units_Z 64
_cell_length_a 25.124811
_cell_length_b 15.879703
_cell_length_c 7.389572
_cell_angle_alpha 90.000000
_cell_angle_beta 90.000000
_cell_angle_gamma 90.000000
_cell_volume 2948.251064
_symmetry_space_group_name_H-M "I M M M"
_symmetry_group_IT_number 71
_symmetry_cell_setting 'orthorhombic'
loop_
_space_group_symop_operation_xyz
x,y,z
-x,-y,z
x,-y,-z
-x,y,-z
-x,-y,-z
x,y,-z
-x,y,z
x,-y,z
1/2+x,1/2+y,1/2+z
1/2-x,1/2-y,1/2+z
1/2+x,1/2-y,1/2-z
1/2-x,1/2+y,1/2-z
1/2-x,1/2-y,1/2-z
1/2+x,1/2+y,1/2-z
1/2-x,1/2+y,1/2+z
1/2+x,1/2-y,1/2+z
loop_
_atom_site_type_symbol
_atom_site_label
_atom_site_fract_x
_atom_site_fract_y
_atom_site_fract_z
Si Si1 0.500000 0.364171 0.718687
Si Si2 0.000000 0.668353 0.290469
Si Si3 0.775898 0.340114 0.715917
Si Si4 0.888346 0.402042 0.279287
Si Si5 0.207597 0.000000 0.778291
Si Si6 0.585652 0.500000 0.279707
O O1 0.500000 0.361973 0.500000
O O2 0.500000 0.269111 0.783497
O O3 0.551589 0.418203 0.775665
O O4 0.944729 0.633451 0.212953
O O5 0.000000 0.640798 0.500000
O O6 0.778573 0.350400 0.500000
O O7 0.750000 0.250000 0.750000
O O8 0.836332 0.351184 0.783127
O O9 0.739014 0.416723 0.781723
O O10 0.889080 0.397568 0.500000
O O11 0.882149 0.500000 0.231493
O O12 0.146331 0.000000 0.719172
O O13 0.207073 0.000000 0.000000
O O14 0.585786 0.500000 0.500000
#
# Coordination Sequence:
#
# PCOD9520638 Si02
#       6
#     8   8  16  16   8   8
#     4   9  18  33  51  72  98 128 165 208 245 288
#     4  10  20  31  51  77 100 126 164 209 250 290
#     4  10  20  34  54  78 104 133 169 211 253 301
#     4   9  17  33  53  73  98 132 171 205 240 293
#     4   9  17  32  54  75  98 135 174 204 245 306
#     4   8  16  31  50  70  95 130 170 202 235 289
#
# _framework density 21.707785999999999
#
# number of rings (size 3 to 8) (size 9 to 14) (size 15 to 20)
#    0.000    2.750    1.250    1.125    3.500    1.500 
#    0.000    1.875    0.000    4.500    0.000    0.000 
#    0.000    0.000    0.000    0.000    0.000    0.000 
#
# Total GULP energy -178740.140005 kJ/mol
# GULP energy per Si atom -5585.629375 kJ/mol
# Density = 2.165838 g / cm^3
# Si number density = 21.707786 Si / 1000 Ang^3
#
#
#
# Elastic Constant Matrix: (Units=GPa)
#
#
# Indices 1 2 3 4 5 6 
#
# 1 265.8443 122.6918 10.7678 0.0000 0.0000 0.0000
# 2 122.6918 163.5552 -7.3762 0.0000 0.0000 0.0000
# 3 10.7678 -7.3762 73.0522 0.0000 0.0000 0.0000
# 4 0.0000 0.0000 0.0000 16.7849 0.0000 0.0000
# 5 0.0000 0.0000 0.0000 0.0000 -8.9394 0.0000
# 6 0.0000 0.0000 0.0000 0.0000 0.0000 8.5657
#
#
#
# Elastic Compliance Matrix: (Units=1/GPa)
#
#
# Indices 1 2 3 4 5 6 
#
# 1 0.005877 -0.004468 -0.001317 0.000000 0.000000 0.000000
# 2 -0.004468 0.009539 0.001622 0.000000 0.000000 0.000000
# 3 -0.001317 0.001622 0.014047 0.000000 0.000000 0.000000
# 4 0.000000 0.000000 0.000000 0.059577 0.000000 0.000000
# 5 0.000000 0.000000 0.000000 0.000000 -0.111864 0.000000
# 6 0.000000 0.000000 0.000000 0.000000 0.000000 0.116745
#
#
# Mechanical properties :
#
#
# Convention : Reuss Voigt Hill
#
# Bulk Modulus (GPa) = 47.31407 83.84649 65.58028
# Shear Modulus (GPa) = 45.74847 28.37347 37.06097
#
# Velocity S-wave (km/s) = 4.59570 3.61926 4.13639
# Velocity P-wave (km/s) = 7.07134 7.49495 7.28622
#
# Compressibility (1/GPa) = 0.02113536
#
# Stress axis : x y z
#
# Youngs Moduli (GPa) = 170.15234 104.83184 71.19070
#
# Poissons Ratio (x) = 0.46840 0.09379
# Poissons Ratio (y) = 0.76026 -0.11546
# Poissons Ratio (z) = 0.22416 -0.17001
#
# Static dielectric constant tensor:
#      x y z
#    x 1.780560 0.000000 0.000000 
#    y 0.000000 1.723430 0.000000 
#    z 0.000000 0.000000 1.846810 
# 
# From -- ./inp_files/5948.got.cif
#   From: 2010.05.17/outbox.cif.g08.bks.cpg/sg71_3_cif.got.tgz:5948.got - 2010.06.03 16:22:01.
