data_PCOD9520897
_publ_section_title
;
Structure prediction by ZEFSAII (Michael W. Deem and Ramdas Pophale) SiO2 
 PCOD9520897
Probable space group: I M M M
;
_chemical_formula_sum "Si O2"
_cell_formula_units_Z 96
_cell_length_a 19.133473
_cell_length_b 7.969074
_cell_length_c 34.013833
_cell_angle_alpha 90.000000
_cell_angle_beta 90.000000
_cell_angle_gamma 90.000000
_cell_volume 5186.295317
_symmetry_space_group_name_H-M "I M M M"
_symmetry_group_IT_number 71
_symmetry_cell_setting 'orthorhombic'
loop_
_space_group_symop_operation_xyz
x,y,z
-x,-y,z
x,-y,-z
-x,y,-z
-x,-y,-z
x,y,-z
-x,y,z
x,-y,z
1/2+x,1/2+y,1/2+z
1/2-x,1/2-y,1/2+z
1/2+x,1/2-y,1/2-z
1/2-x,1/2+y,1/2-z
1/2-x,1/2-y,1/2-z
1/2+x,1/2+y,1/2-z
1/2-x,1/2+y,1/2+z
1/2+x,1/2-y,1/2+z
loop_
_atom_site_type_symbol
_atom_site_label
_atom_site_fract_x
_atom_site_fract_y
_atom_site_fract_z
Si Si1 0.657496 0.303912 0.339834
Si Si2 0.202868 0.802597 0.620640
Si Si3 0.920204 0.203155 0.674304
Si Si4 0.577419 0.201620 0.584156
Si Si5 0.419764 0.200317 0.737173
Si Si6 0.719671 0.794121 0.455791
O O1 0.668435 0.500000 0.346179
O O2 0.770045 0.284993 0.149009
O O3 0.599934 0.241877 0.371245
O O4 0.630196 0.272035 0.296190
O O5 0.135008 0.731763 0.642374
O O6 0.227841 0.734549 0.578376
O O7 0.189614 0.000000 0.614657
O O8 0.899142 0.254014 0.718438
O O9 0.000000 0.260940 0.667837
O O10 0.920279 0.000000 0.673035
O O11 0.500000 0.267534 0.575268
O O12 0.641542 0.260176 0.556989
O O13 0.575235 0.000000 0.580343
O O14 0.500000 0.261102 0.731496
O O15 0.419879 0.000000 0.733227
O O16 0.736318 0.741651 0.500000
O O17 0.719751 0.000000 0.454930
#
# Coordination Sequence:
#
# PCOD9520897 Si02
#       6
#    16  16  16  16  16  16
#     4  11  21  31  46  68  95 128 164 198 231 270
#     4   9  18  33  51  70  94 123 154 191 235 280
#     4   9  18  33  52  72  93 119 153 192 235 282
#     4   9  17  29  45  66  94 128 164 200 236 271
#     4  10  20  33  49  69  95 127 161 196 233 272
#     4   8  14  26  46  71  95 121 156 193 228 272
#
# _framework density 18.510321999999999
#
# number of rings (size 3 to 8) (size 9 to 14) (size 15 to 20)
#    0.000    2.667    0.000    3.500    0.000    5.000 
#    0.000    1.667    0.000    8.500    0.000    8.167 
#    0.000    0.000    0.000   10.167    0.000   11.000 
#
# Total GULP energy -267670.181381 kJ/mol
# GULP energy per Si atom -5576.462112 kJ/mol
# Density = 1.846819 g / cm^3
# Si number density = 18.510322 Si / 1000 Ang^3
#
#
#
# Elastic Constant Matrix: (Units=GPa)
#
#
# Indices 1 2 3 4 5 6 
#
# 1 63.3618 -8.8421 79.3302 0.0000 0.0000 0.0000
# 2 -8.8421 13.8145 -6.4657 0.0000 0.0000 0.0000
# 3 79.3302 -6.4657 146.3028 0.0000 0.0000 0.0000
# 4 0.0000 0.0000 0.0000 13.2214 0.0000 0.0000
# 5 0.0000 0.0000 0.0000 0.0000 62.2948 0.0000
# 6 0.0000 0.0000 0.0000 0.0000 0.0000 3.3475
#
#
#
# Elastic Compliance Matrix: (Units=1/GPa)
#
#
# Indices 1 2 3 4 5 6 
#
# 1 0.054820 0.021623 -0.028769 0.000000 0.000000 0.000000
# 2 0.021623 0.082445 -0.008081 0.000000 0.000000 0.000000
# 3 -0.028769 -0.008081 0.022078 0.000000 0.000000 0.000000
# 4 0.000000 0.000000 0.000000 0.075635 0.000000 0.000000
# 5 0.000000 0.000000 0.000000 0.000000 0.016053 0.000000
# 6 0.000000 0.000000 0.000000 0.000000 0.000000 0.298733
#
#
# Mechanical properties :
#
#
# Convention : Reuss Voigt Hill
#
# Bulk Modulus (GPa) = 7.75873 39.05820 23.40847
# Shear Modulus (GPa) = 8.02335 26.40318 17.21327
#
# Velocity S-wave (km/s) = 2.08421 3.78087 3.05278
# Velocity P-wave (km/s) = 3.16110 6.34087 5.00995
#
# Compressibility (1/GPa) = 0.12888711
#
# Stress axis : x y z
#
# Youngs Moduli (GPa) = 18.24160 12.12928 45.29439
#
# Poissons Ratio (x) = -0.26227 1.30310
# Poissons Ratio (y) = -0.39443 0.36602
# Poissons Ratio (z) = 0.52480 0.09802
#
# Static dielectric constant tensor:
#      x y z
#    x 1.636670 0.000000 0.000000 
#    y 0.000000 1.667710 0.000000 
#    z 0.000000 0.000000 1.625640 
# 
# From -- ./inp_files/66330.got.cif
#   From: 2010.05.17/outbox.cif.g08.bks.cpg/sg71_34_cif.got.tgz:66330.got - 2010.06.03 16:22:01.
