data_PCOD9520356
_publ_section_title
;
Structure prediction by ZEFSAII (Michael W. Deem and Ramdas Pophale) SiO2 
 PCOD9520356
Probable space group: I M M M
;
_chemical_formula_sum "Si O2"
_cell_formula_units_Z 104
_cell_length_a 28.591578
_cell_length_b 20.397704
_cell_length_c 7.873026
_cell_angle_alpha 90.000000
_cell_angle_beta 90.000000
_cell_angle_gamma 90.000000
_cell_volume 4591.568800
_symmetry_space_group_name_H-M "I M M M"
_symmetry_group_IT_number 71
_symmetry_cell_setting 'orthorhombic'
loop_
_space_group_symop_operation_xyz
x,y,z
-x,-y,z
x,-y,-z
-x,y,-z
-x,-y,-z
x,y,-z
-x,y,z
x,-y,z
1/2+x,1/2+y,1/2+z
1/2-x,1/2-y,1/2+z
1/2+x,1/2-y,1/2-z
1/2-x,1/2+y,1/2-z
1/2-x,1/2-y,1/2-z
1/2+x,1/2+y,1/2-z
1/2-x,1/2+y,1/2+z
1/2+x,1/2-y,1/2+z
loop_
_atom_site_type_symbol
_atom_site_label
_atom_site_fract_x
_atom_site_fract_y
_atom_site_fract_z
Si Si1 0.218651 0.137818 0.204165
Si Si2 0.931397 0.000000 0.200836
Si Si3 0.500000 0.925878 0.799031
Si Si4 0.679510 0.500000 0.702867
Si Si5 0.307616 0.072093 0.704373
Si Si6 0.949211 0.145575 0.698985
Si Si7 0.401475 0.864773 0.704792
Si Si8 0.862149 0.772128 0.801643
O O1 0.273424 0.131149 0.242520
O O2 0.185574 0.196113 0.270650
O O3 0.199060 0.068257 0.272859
O O4 0.213202 0.138101 0.000000
O O5 0.949047 0.932616 0.279223
O O6 0.875765 0.000000 0.223697
O O7 0.941994 0.000000 0.000000
O O8 0.452954 0.887290 0.752838
O O9 0.500000 0.000000 0.724506
O O10 0.500000 0.932011 0.000000
O O11 0.689130 0.500000 0.500000
O O12 0.306486 0.070396 0.500000
O O13 0.360695 0.085248 0.758366
O O14 0.292360 0.000000 0.768782
O O15 0.945362 0.161641 0.500000
O O16 0.903772 0.174617 0.789773
O O17 0.000000 0.170451 0.762009
O O18 0.401206 0.862248 0.500000
O O19 0.384107 0.794219 0.771922
O O20 0.852500 0.758439 0.000000
#
# Coordination Sequence:
#
# PCOD9520356 Si02
#       8
#    16   8   8   8  16  16  16  16
#     4  10  19  35  58  85 118 157 202 251 299 355
#     4  11  20  36  59  82 110 152 207 261 305 362
#     4  11  25  45  71 101 129 158 201 256 315 377
#     4   9  16  30  52  79 110 147 195 248 297 342
#     4  10  21  37  59  90 124 158 202 256 311 369
#     4  11  24  38  53  79 117 156 197 255 320 372
#     4  10  23  43  66  93 126 165 207 253 308 374
#     4  10  22  40  61  86 117 161 212 253 299 370
#
# _framework density 22.650210999999999
#
# number of rings (size 3 to 8) (size 9 to 14) (size 15 to 20)
#    0.000    1.769    2.308    1.615    1.077    5.846 
#    0.000    0.000    0.000    0.000    0.000    0.000 
#    0.000    0.000    0.000    0.000    0.000    0.000 
#
# Total GULP energy -290423.349226 kJ/mol
# GULP energy per Si atom -5585.064408 kJ/mol
# Density = 2.259866 g / cm^3
# Si number density = 22.650211 Si / 1000 Ang^3
#
#
#
# Elastic Constant Matrix: (Units=GPa)
#
#
# Indices 1 2 3 4 5 6 
#
# 1 170.3739 64.2773 9.6282 0.0000 0.0000 0.0000
# 2 64.2773 118.3996 3.8109 0.0000 0.0000 0.0000
# 3 9.6282 3.8109 29.5452 0.0000 0.0000 0.0000
# 4 0.0000 0.0000 0.0000 11.7406 0.0000 0.0000
# 5 0.0000 0.0000 0.0000 0.0000 22.0828 0.0000
# 6 0.0000 0.0000 0.0000 0.0000 0.0000 18.8641
#
#
#
# Elastic Compliance Matrix: (Units=1/GPa)
#
#
# Indices 1 2 3 4 5 6 
#
# 1 0.007489 -0.004004 -0.001924 0.000000 0.000000 0.000000
# 2 -0.004004 0.010622 -0.000065 0.000000 0.000000 0.000000
# 3 -0.001924 -0.000065 0.034482 0.000000 0.000000 0.000000
# 4 0.000000 0.000000 0.000000 0.085174 0.000000 0.000000
# 5 0.000000 0.000000 0.000000 0.000000 0.045284 0.000000
# 6 0.000000 0.000000 0.000000 0.000000 0.000000 0.053011
#
#
# Mechanical properties :
#
#
# Convention : Reuss Voigt Hill
#
# Bulk Modulus (GPa) = 24.62675 52.63905 38.63290
# Shear Modulus (GPa) = 19.11446 26.57767 22.84607
#
# Velocity S-wave (km/s) = 2.90814 3.42920 3.17937
# Velocity P-wave (km/s) = 4.70878 6.24257 5.52912
#
# Compressibility (1/GPa) = 0.04060625
#
# Stress axis : x y z
#
# Youngs Moduli (GPa) = 133.53656 94.14844 29.00077
#
# Poissons Ratio (x) = 0.37692 0.05580
# Poissons Ratio (y) = 0.53462 0.00190
# Poissons Ratio (z) = 0.25692 0.00615
#
# Static dielectric constant tensor:
#      x y z
#    x 1.855200 0.000000 0.000000 
#    y 0.000000 1.868560 0.000000 
#    z 0.000000 0.000000 1.815070 
# 
# From -- ./inp_files/15085.got.cif
#   From: 2010.05.17/outbox.cif.g08.bks.cpg/sg71_8_cif.got.tgz:15085.got - 2010.06.03 16:22:01.
