data_PCOD9520936
_publ_section_title
;
Structure prediction by ZEFSAII (Michael W. Deem and Ramdas Pophale) SiO2 
 PCOD9520936
Probable space group: I M M M
;
_chemical_formula_sum "Si O2"
_cell_formula_units_Z 120
_cell_length_a 17.690201
_cell_length_b 18.898951
_cell_length_c 19.839369
_cell_angle_alpha 90.000000
_cell_angle_beta 90.000000
_cell_angle_gamma 90.000000
_cell_volume 6632.821679
_symmetry_space_group_name_H-M "I M M M"
_symmetry_group_IT_number 71
_symmetry_cell_setting 'orthorhombic'
loop_
_space_group_symop_operation_xyz
x,y,z
-x,-y,z
x,-y,-z
-x,y,-z
-x,-y,-z
x,y,-z
-x,y,z
x,-y,z
1/2+x,1/2+y,1/2+z
1/2-x,1/2-y,1/2+z
1/2+x,1/2-y,1/2-z
1/2-x,1/2+y,1/2-z
1/2-x,1/2-y,1/2-z
1/2+x,1/2+y,1/2-z
1/2-x,1/2+y,1/2+z
1/2+x,1/2-y,1/2+z
loop_
_atom_site_type_symbol
_atom_site_label
_atom_site_fract_x
_atom_site_fract_y
_atom_site_fract_z
Si Si1 0.820673 0.313540 0.606833
Si Si2 0.693966 0.923301 0.224870
Si Si3 0.583706 0.716822 0.804660
Si Si4 0.091992 0.586733 0.500000
Si Si5 0.660120 0.246901 0.427071
Si Si6 0.587220 0.162101 0.310538
Si Si7 0.366399 0.576373 0.728590
Si Si8 0.411617 0.605364 0.576352
O O1 0.803266 0.361622 0.670874
O O2 0.862416 0.244010 0.635784
O O3 0.871288 0.366754 0.561149
O O4 0.740983 0.286507 0.577903
O O5 0.629181 0.904658 0.277900
O O6 0.779207 0.924424 0.251732
O O7 0.678774 0.000000 0.193467
O O8 0.500000 0.714280 0.833469
O O9 0.586193 0.777307 0.747136
O O10 0.599145 0.643964 0.765415
O O11 0.109553 0.500000 0.500000
O O12 0.000000 0.591486 0.500000
O O13 0.655053 0.212411 0.500000
O O14 0.640098 0.192749 0.368938
O O15 0.599211 0.310208 0.422649
O O16 0.500000 0.149653 0.330521
O O17 0.400796 0.500000 0.746268
O O18 0.372078 0.581417 0.646230
O O19 0.385024 0.583104 0.500000
O O20 0.500000 0.586538 0.581230
#
# Coordination Sequence:
#
# PCOD9520936 Si02
#       8
#    16  16  16   8  16  16  16  16
#     4  11  20  37  58  82 111 151 189 234 281 338
#     4  10  21  36  55  82 111 144 188 235 286 344
#     4  10  20  34  53  78 107 143 187 233 282 339
#     4  11  24  40  58  84 118 154 192 235 284 340
#     4  11  20  33  56  83 109 145 190 232 277 334
#     4  10  20  35  57  81 111 148 187 238 292 342
#     4  11  21  34  53  78 110 149 189 237 290 340
#     4  10  20  33  49  73 109 151 191 232 280 338
#
# _framework density 18.091847999999999
#
# number of rings (size 3 to 8) (size 9 to 14) (size 15 to 20)
#    0.000    1.533    3.333    2.400    0.000    5.067 
#    0.000    0.667    0.000    0.400    0.000    1.400 
#    0.000    1.600    0.000    0.000    0.000    0.000 
#
# Total GULP energy -334047.541286 kJ/mol
# GULP energy per Si atom -5567.459021 kJ/mol
# Density = 1.805067 g / cm^3
# Si number density = 18.091848 Si / 1000 Ang^3
#
#
#
# Elastic Constant Matrix: (Units=GPa)
#
#
# Indices 1 2 3 4 5 6 
#
# 1 90.8170 21.5189 22.7795 0.0000 0.0000 0.0000
# 2 21.5189 58.5036 13.0558 0.0000 0.0000 0.0000
# 3 22.7795 13.0558 44.5048 0.0000 0.0000 0.0000
# 4 0.0000 0.0000 0.0000 2.0618 0.0000 0.0000
# 5 0.0000 0.0000 0.0000 0.0000 20.1822 0.0000
# 6 0.0000 0.0000 0.0000 0.0000 0.0000 -1.6363
#
#
#
# Elastic Compliance Matrix: (Units=1/GPa)
#
#
# Indices 1 2 3 4 5 6 
#
# 1 0.013310 -0.003612 -0.005753 0.000000 0.000000 0.000000
# 2 -0.003612 0.019270 -0.003804 0.000000 0.000000 0.000000
# 3 -0.005753 -0.003804 0.026530 0.000000 0.000000 0.000000
# 4 0.000000 0.000000 0.000000 0.485004 0.000000 0.000001
# 5 0.000000 0.000000 0.000000 0.000000 0.049549 0.000000
# 6 0.000000 0.000000 0.000000 0.000001 0.000000 -0.611137
#
#
# Mechanical properties :
#
#
# Convention : Reuss Voigt Hill
#
# Bulk Modulus (GPa) = 30.51389 34.28156 32.39772
# Shear Modulus (GPa) = 252.66731 13.21962 132.94347
#
# Velocity S-wave (km/s) = 11.83052 2.70607 8.58149
# Velocity P-wave (km/s) = 14.26597 5.36223 10.77662
#
# Compressibility (1/GPa) = 0.03277197
#
# Stress axis : x y z
#
# Youngs Moduli (GPa) = 75.13141 51.89281 37.69286
#
# Poissons Ratio (x) = 0.18743 0.21685
# Poissons Ratio (y) = 0.27136 0.14340
# Poissons Ratio (z) = 0.43224 0.19742
#
# Static dielectric constant tensor:
#      x y z
#    x 1.648700 0.000000 0.000000 
#    y 0.000000 1.620740 0.000000 
#    z 0.000000 0.000000 1.647950 
# 
# From -- ./inp_files/54340.got.cif
#   From: 2010.05.17/outbox.cif.g08.bks.cpg/sg71_28_cif.got.tgz:54340.got - 2010.06.03 16:22:01.
