data_PCOD9520464
_publ_section_title
;
Structure prediction by ZEFSAII (Michael W. Deem and Ramdas Pophale) SiO2 
 PCOD9520464
Probable space group: I M M M
;
_chemical_formula_sum "Si O2"
_cell_formula_units_Z 96
_cell_length_a 14.410086
_cell_length_b 17.900719
_cell_length_c 20.532593
_cell_angle_alpha 90.000000
_cell_angle_beta 90.000000
_cell_angle_gamma 90.000000
_cell_volume 5296.400849
_symmetry_space_group_name_H-M "I M M M"
_symmetry_group_IT_number 71
_symmetry_cell_setting 'orthorhombic'
loop_
_space_group_symop_operation_xyz
x,y,z
-x,-y,z
x,-y,-z
-x,y,-z
-x,-y,-z
x,y,-z
-x,y,z
x,-y,z
1/2+x,1/2+y,1/2+z
1/2-x,1/2-y,1/2+z
1/2+x,1/2-y,1/2-z
1/2-x,1/2+y,1/2-z
1/2-x,1/2-y,1/2-z
1/2+x,1/2+y,1/2-z
1/2-x,1/2+y,1/2+z
1/2+x,1/2-y,1/2+z
loop_
_atom_site_type_symbol
_atom_site_label
_atom_site_fract_x
_atom_site_fract_y
_atom_site_fract_z
Si Si1 0.209927 0.912469 0.314387
Si Si2 0.796480 0.086391 0.075371
Si Si3 0.391279 0.679435 0.924309
Si Si4 0.393005 0.841480 0.272874
Si Si5 0.605793 0.851541 0.116254
Si Si6 0.110716 0.831176 0.193943
O O1 0.170871 0.869026 0.376625
O O2 0.318560 0.895527 0.304995
O O3 0.158991 0.877890 0.251282
O O4 0.191897 0.000000 0.318803
O O5 0.686675 0.097823 0.087461
O O6 0.848753 0.140051 0.125754
O O7 0.821020 0.000000 0.088649
O O8 0.817577 0.102991 0.000000
O O9 0.500000 0.662616 0.911565
O O10 0.379465 0.767321 0.909468
O O11 0.371769 0.665543 0.000000
O O12 0.500000 0.856346 0.290589
O O13 0.385702 0.848519 0.194600
O O14 0.369963 0.756282 0.293048
O O15 0.500000 0.874050 0.099970
O O16 0.000000 0.841290 0.196465
#
# Coordination Sequence:
#
# PCOD9520464 Si02
#       6
#    16  16  16  16  16  16
#     4  12  23  36  59  87 116 150 186 228 283 340
#     4  11  24  38  53  81 119 154 189 232 282 334
#     4  10  21  37  58  86 117 149 188 232 279 335
#     4  10  21  38  62  87 113 144 187 241 283 323
#     4  10  19  36  60  84 112 149 191 235 282 332
#     4  11  22  39  61  82 108 148 195 237 276 326
#
# _framework density 18.125516999999999
#
# number of rings (size 3 to 8) (size 9 to 14) (size 15 to 20)
#    0.000    1.333    3.333    3.000    0.000    4.667 
#    0.000    4.167    0.000    1.500    0.000    1.167 
#    0.000    0.000    0.000    0.000    0.000    0.000 
#
# Total GULP energy -268307.373518 kJ/mol
# GULP energy per Si atom -5589.736948 kJ/mol
# Density = 1.808426 g / cm^3
# Si number density = 18.125517 Si / 1000 Ang^3
#
#
#
# Elastic Constant Matrix: (Units=GPa)
#
#
# Indices 1 2 3 4 5 6 
#
# 1 42.7406 0.8157 14.3572 0.0000 0.0000 0.0000
# 2 0.8157 5.8961 -2.0537 0.0000 0.0000 0.0000
# 3 14.3572 -2.0537 67.8046 0.0000 0.0000 0.0000
# 4 0.0000 0.0000 0.0000 16.1628 0.0000 0.0000
# 5 0.0000 0.0000 0.0000 0.0000 26.5435 0.0000
# 6 0.0000 0.0000 0.0000 0.0000 0.0000 -33.3665
#
#
#
# Elastic Compliance Matrix: (Units=1/GPa)
#
#
# Indices 1 2 3 4 5 6 
#
# 1 0.025360 -0.005436 -0.005534 0.000000 0.000000 0.000000
# 2 -0.005436 0.172577 0.006378 0.000000 0.000000 0.000000
# 3 -0.005534 0.006378 0.016113 0.000000 0.000000 0.000000
# 4 0.000000 0.000000 0.000000 0.061870 0.000000 0.000000
# 5 0.000000 0.000000 0.000000 0.000000 0.037674 0.000000
# 6 0.000000 0.000000 0.000000 0.000000 0.000000 -0.029970
#
#
# Mechanical properties :
#
#
# Convention : Reuss Voigt Hill
#
# Bulk Modulus (GPa) = 4.88127 15.85331 10.36729
# Shear Modulus (GPa) = 13.84669 8.75611 11.30140
#
# Velocity S-wave (km/s) = 2.76693 2.20030 2.49972
# Velocity P-wave (km/s) = 3.59260 3.90134 3.75015
#
# Compressibility (1/GPa) = 0.20486477
#
# Stress axis : x y z
#
# Youngs Moduli (GPa) = 39.43249 5.79452 62.06048
#
# Poissons Ratio (x) = 0.03150 0.34347
# Poissons Ratio (y) = 0.21436 -0.39583
# Poissons Ratio (z) = 0.21824 -0.03696
#
# Static dielectric constant tensor:
#      x y z
#    x 1.631910 0.000000 0.000000 
#    y 0.000000 1.599830 0.000000 
#    z 0.000000 0.000000 1.622220 
# 
# From -- ./inp_files/34501.got.cif
#   From: 2010.05.17/outbox.cif.g08.bks.cpg/sg71_18_cif.got.tgz:34501.got - 2010.06.03 16:22:01.
