data_PCOD9520119
_publ_section_title
;
Structure prediction by ZEFSAII (Michael W. Deem and Ramdas Pophale) SiO2 
 PCOD9520119
Probable space group: I M M M
;
_chemical_formula_sum "Si O2"
_cell_formula_units_Z 96
_cell_length_a 21.075500
_cell_length_b 8.031144
_cell_length_c 29.781557
_cell_angle_alpha 90.000000
_cell_angle_beta 90.000000
_cell_angle_gamma 90.000000
_cell_volume 5040.837517
_symmetry_space_group_name_H-M "I M M M"
_symmetry_group_IT_number 71
_symmetry_cell_setting 'orthorhombic'
loop_
_space_group_symop_operation_xyz
x,y,z
-x,-y,z
x,-y,-z
-x,y,-z
-x,-y,-z
x,y,-z
-x,y,z
x,-y,z
1/2+x,1/2+y,1/2+z
1/2-x,1/2-y,1/2+z
1/2+x,1/2-y,1/2-z
1/2-x,1/2+y,1/2-z
1/2-x,1/2-y,1/2-z
1/2+x,1/2+y,1/2-z
1/2-x,1/2+y,1/2+z
1/2+x,1/2-y,1/2+z
loop_
_atom_site_type_symbol
_atom_site_label
_atom_site_fract_x
_atom_site_fract_y
_atom_site_fract_z
Si Si1 0.067335 0.301445 0.553433
Si Si2 0.572238 0.802243 0.370214
Si Si3 0.300268 0.799250 0.803827
Si Si4 0.802773 0.703761 0.406916
Si Si5 0.843269 0.197209 0.213435
Si Si6 0.668747 0.700501 0.448529
O O1 0.066155 0.287642 0.500000
O O2 0.067882 0.500000 0.564065
O O3 0.134163 0.232626 0.569194
O O4 0.000000 0.233354 0.571068
O O5 0.500000 0.734878 0.370632
O O6 0.607563 0.764715 0.323026
O O7 0.614442 0.741076 0.412211
O O8 0.568830 0.000000 0.374371
O O9 0.311851 0.753094 0.854993
O O10 0.228147 0.736847 0.795594
O O11 0.349192 0.734681 0.766399
O O12 0.299968 0.000000 0.800328
O O13 0.800610 0.500000 0.409771
O O14 0.736488 0.761031 0.428627
O O15 0.842383 0.000000 0.206612
O O16 0.658342 0.760109 0.500000
O O17 0.672190 0.500000 0.450674
#
# Coordination Sequence:
#
# PCOD9520119 Si02
#       6
#    16  16  16  16  16  16
#     4   8  13  21  36  62  97 136 172 203 243 297
#     4  11  24  40  57  77 106 143 181 226 282 339
#     4   9  17  30  51  78 108 136 169 213 261 313
#     4   9  15  27  46  72 105 141 176 216 261 306
#     4  10  19  34  55  79 104 134 174 215 260 317
#     4  10  20  35  56  81 107 139 185 234 276 323
#
# _framework density 19.044454000000002
#
# number of rings (size 3 to 8) (size 9 to 14) (size 15 to 20)
#    0.000    2.500    1.667    2.000    0.000    4.667 
#    0.000    2.500    0.000    3.000    0.000    0.000 
#    0.000    0.667    0.000    9.167    0.000    8.333 
#
# Total GULP energy -267337.308249 kJ/mol
# GULP energy per Si atom -5569.527255 kJ/mol
# Density = 1.900111 g / cm^3
# Si number density = 19.044454 Si / 1000 Ang^3
#
#
#
# Elastic Constant Matrix: (Units=GPa)
#
#
# Indices 1 2 3 4 5 6 
#
# 1 166.8976 10.3229 91.3671 0.0000 0.0000 0.0000
# 2 10.3229 16.8365 16.4057 0.0000 0.0000 0.0000
# 3 91.3671 16.4057 112.1128 0.0000 0.0000 0.0000
# 4 0.0000 0.0000 0.0000 21.4143 0.0000 0.0000
# 5 0.0000 0.0000 0.0000 0.0000 26.9371 0.0000
# 6 0.0000 0.0000 0.0000 0.0000 0.0000 6.3811
#
#
#
# Elastic Compliance Matrix: (Units=1/GPa)
#
#
# Indices 1 2 3 4 5 6 
#
# 1 0.010894 0.002299 -0.009215 0.000000 0.000000 0.000000
# 2 0.002299 0.069758 -0.012082 0.000000 0.000000 0.000000
# 3 -0.009215 -0.012082 0.018197 0.000000 0.000000 0.000000
# 4 0.000000 0.000000 0.000000 0.046698 0.000000 0.000000
# 5 0.000000 0.000000 0.000000 0.000000 0.037123 0.000000
# 6 0.000000 0.000000 0.000000 0.000000 0.000000 0.156712
#
#
# Mechanical properties :
#
#
# Convention : Reuss Voigt Hill
#
# Bulk Modulus (GPa) = 16.43254 59.11536 37.77395
# Shear Modulus (GPa) = 12.57355 22.79661 17.68508
#
# Velocity S-wave (km/s) = 2.57226 3.46355 3.05063
# Velocity P-wave (km/s) = 4.17963 6.86317 5.68209
#
# Compressibility (1/GPa) = 0.06085486
#
# Stress axis : x y z
#
# Youngs Moduli (GPa) = 91.79430 14.33536 54.95416
#
# Poissons Ratio (x) = -0.03296 0.50638
# Poissons Ratio (y) = -0.21108 0.66394
# Poissons Ratio (z) = 0.84584 0.17320
#
# Static dielectric constant tensor:
#      x y z
#    x 1.681750 0.000000 0.000000 
#    y 0.000000 1.689400 0.000000 
#    z 0.000000 0.000000 1.689250 
# 
# From -- ./inp_files/66337.got.cif
#   From: 2010.05.17/outbox.cif.g08.bks.cpg/sg71_34_cif.got.tgz:66337.got - 2010.06.03 16:22:01.
