data_PCOD9520439
_publ_section_title
;
Structure prediction by ZEFSAII (Michael W. Deem and Ramdas Pophale) SiO2 
 PCOD9520439
Probable space group: I M M M
;
_chemical_formula_sum "Si O2"
_cell_formula_units_Z 88
_cell_length_a 12.147772
_cell_length_b 27.547263
_cell_length_c 15.113555
_cell_angle_alpha 90.000000
_cell_angle_beta 90.000000
_cell_angle_gamma 90.000000
_cell_volume 5057.567856
_symmetry_space_group_name_H-M "I M M M"
_symmetry_group_IT_number 71
_symmetry_cell_setting 'orthorhombic'
loop_
_space_group_symop_operation_xyz
x,y,z
-x,-y,z
x,-y,-z
-x,y,-z
-x,-y,-z
x,y,-z
-x,y,z
x,-y,z
1/2+x,1/2+y,1/2+z
1/2-x,1/2-y,1/2+z
1/2+x,1/2-y,1/2-z
1/2-x,1/2+y,1/2-z
1/2-x,1/2-y,1/2-z
1/2+x,1/2+y,1/2-z
1/2-x,1/2+y,1/2+z
1/2+x,1/2-y,1/2+z
loop_
_atom_site_type_symbol
_atom_site_label
_atom_site_fract_x
_atom_site_fract_y
_atom_site_fract_z
Si Si1 0.130695 0.135673 0.243798
Si Si2 0.877043 0.058476 0.500000
Si Si3 0.266121 0.942403 0.672414
Si Si4 0.186924 0.783909 0.894976
Si Si5 0.000000 0.291071 0.893136
Si Si6 0.500000 0.096287 0.392022
Si Si7 0.869565 0.788630 0.600445
O O1 0.209533 0.089279 0.251206
O O2 0.157144 0.168519 0.159022
O O3 0.156335 0.170530 0.327776
O O4 0.000000 0.123556 0.246522
O O5 0.808923 0.070313 0.586957
O O6 0.000000 0.080074 0.500000
O O7 0.887050 0.000000 0.500000
O O8 0.390083 0.927754 0.647293
O O9 0.259896 0.000000 0.687951
O O10 0.105098 0.740467 0.865792
O O11 0.306983 0.761367 0.879232
O O12 0.172219 0.791708 0.000000
O O13 0.000000 0.346839 0.866116
O O14 0.000000 0.292274 0.000000
O O15 0.500000 0.091777 0.500000
O O16 0.835631 0.803204 0.500000
O O17 0.000000 0.781578 0.601586
#
# Coordination Sequence:
#
# PCOD9520439 Si02
#       7
#    16   8  16  16   8   8  16
#     4  11  22  35  55  81 110 149 190 233 283 330
#     4   9  18  33  53  75 103 142 185 227 269 321
#     4  11  23  37  54  78 110 149 189 233 279 325
#     4  10  19  36  57  79 111 146 188 234 283 336
#     4   9  18  31  54  81 106 141 178 227 281 334
#     4  11  21  36  57  84 115 151 190 226 275 339
#     4   9  19  33  50  76 112 148 181 223 272 334
#
# _framework density 17.399667999999998
#
# number of rings (size 3 to 8) (size 9 to 14) (size 15 to 20)
#    0.000    1.909    1.818    2.455    1.273    2.909 
#    1.636    0.000    0.000    0.545    0.000    1.273 
#    0.000    1.455    0.000    0.000    0.000    0.000 
#
# Total GULP energy -245658.939250 kJ/mol
# GULP energy per Si atom -5583.157710 kJ/mol
# Density = 1.736007 g / cm^3
# Si number density = 17.399668 Si / 1000 Ang^3
#
#
#
# Elastic Constant Matrix: (Units=GPa)
#
#
# Indices 1 2 3 4 5 6 
#
# 1 94.9388 61.3073 35.9401 0.0000 0.0000 0.0000
# 2 61.3073 118.7991 45.5962 0.0000 0.0000 0.0000
# 3 35.9401 45.5962 48.4035 0.0000 0.0000 0.0000
# 4 0.0000 0.0000 0.0000 24.3433 0.0000 0.0000
# 5 0.0000 0.0000 0.0000 0.0000 16.7253 0.0000
# 6 0.0000 0.0000 0.0000 0.0000 0.0000 20.8074
#
#
#
# Elastic Compliance Matrix: (Units=1/GPa)
#
#
# Indices 1 2 3 4 5 6 
#
# 1 0.017148 -0.006206 -0.006886 0.000000 0.000000 0.000000
# 2 -0.006206 0.015431 -0.009927 0.000000 0.000000 0.000000
# 3 -0.006886 -0.009927 0.035124 0.000000 0.000000 0.000000
# 4 0.000000 0.000000 0.000000 0.041079 0.000000 0.000000
# 5 0.000000 0.000000 0.000000 0.000000 0.059790 0.000000
# 6 0.000000 0.000000 0.000000 0.000000 0.000000 0.048060
#
#
# Mechanical properties :
#
#
# Convention : Reuss Voigt Hill
#
# Bulk Modulus (GPa) = 46.16147 60.86985 53.51566
# Shear Modulus (GPa) = 18.52599 20.32839 19.42719
#
# Velocity S-wave (km/s) = 3.26656 3.42178 3.34507
# Velocity P-wave (km/s) = 6.38866 7.11834 6.76334
#
# Compressibility (1/GPa) = 0.02166309
#
# Stress axis : x y z
#
# Youngs Moduli (GPa) = 58.31717 64.80628 28.47043
#
# Poissons Ratio (x) = 0.40221 0.19605
# Poissons Ratio (y) = 0.36193 0.28264
# Poissons Ratio (z) = 0.40157 0.64336
#
# Static dielectric constant tensor:
#      x y z
#    x 1.623940 0.000000 0.000000 
#    y 0.000000 1.584920 0.000000 
#    z 0.000000 0.000000 1.603420 
# 
# From -- ./inp_files/33003.got.cif
#   From: 2010.05.17/outbox.cif.g08.bks.cpg/sg71_17_cif.got.tgz:33003.got - 2010.06.03 16:22:01.
