data_PCOD9520676
_publ_section_title
;
Structure prediction by ZEFSAII (Michael W. Deem and Ramdas Pophale) SiO2 
 PCOD9520676
Probable space group: I M M M
;
_chemical_formula_sum "Si O2"
_cell_formula_units_Z 112
_cell_length_a 7.284408
_cell_length_b 26.232213
_cell_length_c 23.812544
_cell_angle_alpha 90.000000
_cell_angle_beta 90.000000
_cell_angle_gamma 90.000000
_cell_volume 4550.247170
_symmetry_space_group_name_H-M "I M M M"
_symmetry_group_IT_number 71
_symmetry_cell_setting 'orthorhombic'
loop_
_space_group_symop_operation_xyz
x,y,z
-x,-y,z
x,-y,-z
-x,y,-z
-x,-y,-z
x,y,-z
-x,y,z
x,-y,z
1/2+x,1/2+y,1/2+z
1/2-x,1/2-y,1/2+z
1/2+x,1/2-y,1/2-z
1/2-x,1/2+y,1/2-z
1/2-x,1/2-y,1/2-z
1/2+x,1/2+y,1/2-z
1/2-x,1/2+y,1/2+z
1/2+x,1/2-y,1/2+z
loop_
_atom_site_type_symbol
_atom_site_label
_atom_site_fract_x
_atom_site_fract_y
_atom_site_fract_z
Si Si1 0.282876 0.139290 0.267042
Si Si2 0.722794 0.419259 0.439439
Si Si3 0.223687 0.442969 0.142358
Si Si4 0.279512 0.223636 0.344461
Si Si5 0.219868 0.945442 0.818220
Si Si6 0.277177 0.299681 0.562814
Si Si7 0.278341 0.860570 0.561448
O O1 0.500000 0.143118 0.276308
O O2 0.212547 0.095594 0.309493
O O3 0.213712 0.195381 0.286722
O O4 0.261357 0.109760 0.208736
O O5 0.785389 0.438691 0.500000
O O6 0.500000 0.423267 0.439377
O O7 0.785502 0.444315 0.382228
O O8 0.766958 0.359247 0.436329
O O9 0.289527 0.500000 0.148716
O O10 0.275082 0.415896 0.084249
O O11 0.000000 0.443953 0.144961
O O12 0.500000 0.230737 0.338673
O O13 0.212729 0.273052 0.379157
O O14 0.235902 0.180542 0.391209
O O15 0.000000 0.947457 0.817436
O O16 0.284217 0.000000 0.791765
O O17 0.219934 0.279925 0.500000
O O18 0.500000 0.294520 0.562763
O O19 0.207932 0.848959 0.500000
O O20 0.500000 0.859760 0.558921
#
# Coordination Sequence:
#
# PCOD9520676 Si02
#       7
#    16  16  16  16  16  16  16
#     4   9  17  29  44  62  87 118 149 179 212 257
#     4   8  15  28  45  66  90 114 142 178 223 274
#     4   8  13  20  30  45  67  99 136 168 200 241
#     4   8  13  21  35  57  84 114 146 177 211 254
#     4  10  20  32  47  67  89 114 147 188 229 266
#     4   8  12  20  38  63  91 121 148 177 219 270
#     4   8  12  16  23  40  69 101 130 163 204 247
#
# _framework density 24.614049000000001
#
# number of rings (size 3 to 8) (size 9 to 14) (size 15 to 20)
#    0.000    3.571    0.000    3.429    0.000    3.143 
#    0.000    3.571    0.000    0.429    0.000    1.000 
#    0.000   15.429    0.000   45.857    0.000   37.143 
#
# Total GULP energy -311975.941050 kJ/mol
# GULP energy per Si atom -5570.998947 kJ/mol
# Density = 2.455803 g / cm^3
# Si number density = 24.614049 Si / 1000 Ang^3
#
#
#
# Elastic Constant Matrix: (Units=GPa)
#
#
# Indices 1 2 3 4 5 6 
#
# 1 101.3575 1.0959 -7.4671 0.0000 0.0000 0.0000
# 2 1.0959 103.4573 34.3737 0.0000 0.0000 0.0000
# 3 -7.4671 34.3737 90.8924 0.0000 0.0000 0.0000
# 4 0.0000 0.0000 0.0000 31.7216 0.0000 0.0000
# 5 0.0000 0.0000 0.0000 0.0000 -3.8474 0.0000
# 6 0.0000 0.0000 0.0000 0.0000 0.0000 -9.3524
#
#
#
# Elastic Compliance Matrix: (Units=1/GPa)
#
#
# Indices 1 2 3 4 5 6 
#
# 1 0.009943 -0.000431 0.000980 0.000000 0.000000 0.000000
# 2 -0.000431 0.011074 -0.004223 0.000000 0.000000 0.000000
# 3 0.000980 -0.004223 0.012680 0.000000 0.000000 0.000000
# 4 0.000000 0.000000 0.000000 0.031524 0.000000 0.000000
# 5 0.000000 0.000000 0.000000 0.000000 -0.259915 0.000000
# 6 0.000000 0.000000 0.000000 0.000000 0.000000 -0.106924
#
#
# Mechanical properties :
#
#
# Convention : Reuss Voigt Hill
#
# Bulk Modulus (GPa) = 37.95418 39.07913 38.51665
# Shear Modulus (GPa) = -17.51387 21.55134 2.01873
#
# Velocity S-wave (km/s) = -2.67036 2.96221 0.90661
# Velocity P-wave (km/s) = 2.43832 5.25460 4.09611
#
# Compressibility (1/GPa) = 0.02634756
#
# Stress axis : x y z
#
# Youngs Moduli (GPa) = 100.57420 90.30538 78.86662
#
# Poissons Ratio (x) = 0.03891 -0.07727
# Poissons Ratio (y) = 0.04333 0.33307
# Poissons Ratio (z) = -0.09854 0.38138
#
# Static dielectric constant tensor:
#      x y z
#    x 2.038380 0.000000 0.000000 
#    y 0.000000 1.968730 0.000000 
#    z 0.000000 0.000000 2.009840 
# 
# From -- ./inp_files/59265.got.cif
#   From: 2010.05.17/outbox.cif.g08.bks.cpg/sg71_30_cif.got.tgz:59265.got - 2010.06.03 16:22:01.
