data_PCOD9520958
_publ_section_title
;
Structure prediction by ZEFSAII (Michael W. Deem and Ramdas Pophale) SiO2 
 PCOD9520958
Probable space group: I M M M
;
_chemical_formula_sum "Si O2"
_cell_formula_units_Z 80
_cell_length_a 14.805776
_cell_length_b 33.394399
_cell_length_c 9.173413
_cell_angle_alpha 90.000000
_cell_angle_beta 90.000000
_cell_angle_gamma 90.000000
_cell_volume 4535.610509
_symmetry_space_group_name_H-M "I M M M"
_symmetry_group_IT_number 71
_symmetry_cell_setting 'orthorhombic'
loop_
_space_group_symop_operation_xyz
x,y,z
-x,-y,z
x,-y,-z
-x,y,-z
-x,-y,-z
x,y,-z
-x,y,z
x,-y,z
1/2+x,1/2+y,1/2+z
1/2-x,1/2-y,1/2+z
1/2+x,1/2-y,1/2-z
1/2-x,1/2+y,1/2-z
1/2-x,1/2-y,1/2-z
1/2+x,1/2+y,1/2-z
1/2-x,1/2+y,1/2+z
1/2+x,1/2-y,1/2+z
loop_
_atom_site_type_symbol
_atom_site_label
_atom_site_fract_x
_atom_site_fract_y
_atom_site_fract_z
Si Si1 0.783357 0.884142 0.675099
Si Si2 0.131811 0.721666 0.165013
Si Si3 0.399873 0.140675 0.826513
Si Si4 0.393297 0.546569 0.673326
Si Si5 0.154270 0.797782 0.665057
O O1 0.775700 0.884178 0.500000
O O2 0.683923 0.879819 0.744871
O O3 0.833880 0.922804 0.735354
O O4 0.840447 0.843896 0.714352
O O5 0.099797 0.686491 0.270675
O O6 0.110783 0.765335 0.228702
O O7 0.240290 0.715385 0.158146
O O8 0.099492 0.716434 0.000000
O O9 0.500000 0.123695 0.795200
O O10 0.385177 0.139611 0.000000
O O11 0.378595 0.552727 0.500000
O O12 0.500000 0.552754 0.701561
O O13 0.372818 0.500000 0.705630
O O14 0.117936 0.795520 0.500000
#
# Coordination Sequence:
#
# PCOD9520958 Si02
#       5
#    16  16  16  16  16
#     4  10  20  33  53  80 107 137 172 215 264 308
#     4   9  16  26  43  66  92 127 171 217 260 297
#     4  10  20  33  50  72 101 141 184 221 259 306
#     4   9  19  37  60  84 109 136 165 200 248 310
#     4   8  15  27  42  64  95 130 167 206 252 303
#
# _framework density 17.638199
#
# number of rings (size 3 to 8) (size 9 to 14) (size 15 to 20)
#    0.000    2.800    0.000    3.600    0.000    8.000 
#    0.000    2.000    0.000    1.800    0.000    4.200 
#    0.000    0.000    0.000    0.000    0.000    0.000 
#
# Total GULP energy -222988.328751 kJ/mol
# GULP energy per Si atom -5574.708219 kJ/mol
# Density = 1.759805 g / cm^3
# Si number density = 17.638199 Si / 1000 Ang^3
#
#
#
# Elastic Constant Matrix: (Units=GPa)
#
#
# Indices 1 2 3 4 5 6 
#
# 1 71.1664 55.1930 41.4390 0.0000 0.0013 -0.0004
# 2 55.1930 112.8436 59.3057 0.0004 0.0008 0.0001
# 3 41.4390 59.3057 70.2763 -0.0008 0.0098 -0.0026
# 4 0.0000 0.0004 -0.0008 29.5991 -0.0009 -0.0009
# 5 0.0013 0.0008 0.0098 -0.0009 -5.4971 0.0025
# 6 -0.0004 0.0001 -0.0026 -0.0009 0.0025 -7.3215
#
#
#
# Elastic Compliance Matrix: (Units=1/GPa)
#
#
# Indices 1 2 3 4 5 6 
#
# 1 0.024864 -0.008007 -0.007904 0.000000 -0.000009 0.000001
# 2 -0.008007 0.018503 -0.010893 -0.000001 -0.000019 0.000005
# 3 -0.007904 -0.010893 0.028083 0.000001 0.000047 -0.000010
# 4 0.000000 -0.000001 0.000001 0.033785 -0.000005 -0.000004
# 5 -0.000009 -0.000019 0.000047 -0.000005 -0.181912 -0.000061
# 6 0.000001 0.000005 -0.000010 -0.000004 -0.000061 -0.136585
#
#
# Mechanical properties :
#
#
# Convention : Reuss Voigt Hill
#
# Bulk Modulus (GPa) = 56.05001 62.90684 59.47843
# Shear Modulus (GPa) = -32.52954 9.91267 -11.30843
#
# Velocity S-wave (km/s) = -4.29915 2.37323 -2.53481
# Velocity P-wave (km/s) = 2.68384 6.57664 5.02271
#
# Compressibility (1/GPa) = 0.01784121
#
# Stress axis : x y z
#
# Youngs Moduli (GPa) = 40.21899 54.04455 35.60886
#
# Poissons Ratio (x) = 0.43275 0.28145
# Poissons Ratio (y) = 0.32204 0.38790
# Poissons Ratio (z) = 0.31789 0.58872
#
# Static dielectric constant tensor:
#      x y z
#    x 1.639660 0.000000 0.000000 
#    y 0.000000 1.581810 0.000000 
#    z 0.000000 0.000000 1.591430 
# 
# From -- ./inp_files/8619.got.cif
#   From: 2010.05.17/outbox.cif.g08.bks.cpg/sg71_5_cif.got.tgz:8619.got - 2010.06.03 16:22:01.
