data_PCOD9520430
_publ_section_title
;
Structure prediction by ZEFSAII (Michael W. Deem and Ramdas Pophale) SiO2 
 PCOD9520430
Probable space group: I M M M
;
_chemical_formula_sum "Si O2"
_cell_formula_units_Z 104
_cell_length_a 17.242211
_cell_length_b 17.838662
_cell_length_c 18.966592
_cell_angle_alpha 90.000000
_cell_angle_beta 90.000000
_cell_angle_gamma 90.000000
_cell_volume 5833.705944
_symmetry_space_group_name_H-M "I M M M"
_symmetry_group_IT_number 71
_symmetry_cell_setting 'orthorhombic'
loop_
_space_group_symop_operation_xyz
x,y,z
-x,-y,z
x,-y,-z
-x,y,-z
-x,-y,-z
x,y,-z
-x,y,z
x,-y,z
1/2+x,1/2+y,1/2+z
1/2-x,1/2-y,1/2+z
1/2+x,1/2-y,1/2-z
1/2-x,1/2+y,1/2-z
1/2-x,1/2-y,1/2-z
1/2+x,1/2+y,1/2-z
1/2-x,1/2+y,1/2+z
1/2+x,1/2-y,1/2+z
loop_
_atom_site_type_symbol
_atom_site_label
_atom_site_fract_x
_atom_site_fract_y
_atom_site_fract_z
Si Si1 0.500000 0.278037 0.785178
Si Si2 0.278886 0.200646 0.650927
Si Si3 0.670063 0.419358 0.916012
Si Si4 0.849014 0.316096 0.709607
Si Si5 0.500000 0.408973 0.327255
Si Si6 0.687763 0.910536 0.079696
Si Si7 0.500000 0.635953 0.915811
Si Si8 0.359113 0.660496 0.417357
O O1 0.424643 0.229953 0.769389
O O2 0.500000 0.357349 0.743629
O O3 0.500000 0.290013 0.869333
O O4 0.230632 0.144198 0.603408
O O5 0.213661 0.256484 0.681365
O O6 0.314989 0.155216 0.716458
O O7 0.339541 0.255954 0.612030
O O8 0.693501 0.500000 0.886398
O O9 0.580710 0.403629 0.895425
O O10 0.668096 0.423039 0.000000
O O11 0.857768 0.373528 0.645031
O O12 0.500000 0.500000 0.317332
O O13 0.575431 0.381436 0.371677
O O14 0.777543 0.884516 0.087371
O O15 0.683114 0.000000 0.083028
O O16 0.663274 0.886407 0.000000
O O17 0.500000 0.646742 0.000000
O O18 0.381014 0.663725 0.500000
#
# Coordination Sequence:
#
# PCOD9520430 Si02
#       8
#     8  16  16  16   8  16   8  16
#     4  12  22  41  53  80 116 150 188 227 280 335
#     4  10  19  36  54  81 109 147 195 228 273 335
#     4  10  20  34  54  82 115 147 184 233 281 331
#     4  10  21  35  57  76 108 149 188 231 273 333
#     4  12  25  38  56  86 120 153 186 224 281 343
#     4   9  19  36  58  85 113 143 185 237 287 332
#     4  10  21  35  54  80 113 148 184 227 279 335
#     4  10  20  36  59  84 116 151 184 229 281 339
#
# _framework density 17.827432000000002
#
# number of rings (size 3 to 8) (size 9 to 14) (size 15 to 20)
#    0.000    1.846    3.077    1.385    0.000    4.615 
#    0.000    0.385    0.000    0.923    0.000    0.538 
#    0.000    3.692    0.000    0.000    0.000    0.000 
#
# Total GULP energy -289636.392716 kJ/mol
# GULP energy per Si atom -5569.930629 kJ/mol
# Density = 1.778686 g / cm^3
# Si number density = 17.827432 Si / 1000 Ang^3
#
#
#
# Elastic Constant Matrix: (Units=GPa)
#
#
# Indices 1 2 3 4 5 6 
#
# 1 54.8286 39.0025 34.7983 0.0000 0.0000 0.0000
# 2 39.0025 81.6384 41.1239 0.0000 0.0000 0.0000
# 3 34.7983 41.1239 81.2307 0.0000 0.0000 0.0000
# 4 0.0000 0.0000 0.0000 28.5835 0.0000 0.0000
# 5 0.0000 0.0000 0.0000 0.0000 35.5108 0.0000
# 6 0.0000 0.0000 0.0000 0.0000 0.0000 31.3275
#
#
#
# Elastic Compliance Matrix: (Units=1/GPa)
#
#
# Indices 1 2 3 4 5 6 
#
# 1 0.030862 -0.010852 -0.007727 0.000000 0.000000 0.000000
# 2 -0.010852 0.020258 -0.005607 0.000000 0.000000 0.000000
# 3 -0.007727 -0.005607 0.018459 0.000000 0.000000 0.000000
# 4 0.000000 0.000000 0.000000 0.034985 0.000000 0.000000
# 5 0.000000 0.000000 0.000000 0.000000 0.028160 0.000000
# 6 0.000000 0.000000 0.000000 0.000000 0.000000 0.031921
#
#
# Mechanical properties :
#
#
# Convention : Reuss Voigt Hill
#
# Bulk Modulus (GPa) = 47.15283 49.72747 48.44015
# Shear Modulus (GPa) = 22.71816 25.93588 24.32702
#
# Velocity S-wave (km/s) = 3.57366 3.81836 3.69803
# Velocity P-wave (km/s) = 6.59811 6.88434 6.74275
#
# Compressibility (1/GPa) = 0.02120763
#
# Stress axis : x y z
#
# Youngs Moduli (GPa) = 32.40179 49.36308 54.17275
#
# Poissons Ratio (x) = 0.53569 0.41860
# Poissons Ratio (y) = 0.35162 0.30375
# Poissons Ratio (z) = 0.25038 0.27678
#
# Static dielectric constant tensor:
#      x y z
#    x 1.689760 0.000000 0.000000 
#    y 0.000000 1.601990 0.000000 
#    z 0.000000 0.000000 1.645230 
# 
# From -- ./inp_files/46193.got.cif
#   From: 2010.05.17/outbox.cif.g08.bks.cpg/sg71_24_cif.got.tgz:46193.got - 2010.06.03 16:22:01.
