data_PCOD9520965
_publ_section_title
;
Structure prediction by ZEFSAII (Michael W. Deem and Ramdas Pophale) SiO2 
 PCOD9520965
Probable space group: I M M M
;
_chemical_formula_sum "Si O2"
_cell_formula_units_Z 80
_cell_length_a 28.648017
_cell_length_b 18.720575
_cell_length_c 7.980094
_cell_angle_alpha 90.000000
_cell_angle_beta 90.000000
_cell_angle_gamma 90.000000
_cell_volume 4279.783073
_symmetry_space_group_name_H-M "I M M M"
_symmetry_group_IT_number 71
_symmetry_cell_setting 'orthorhombic'
loop_
_space_group_symop_operation_xyz
x,y,z
-x,-y,z
x,-y,-z
-x,y,-z
-x,-y,-z
x,y,-z
-x,y,z
x,-y,z
1/2+x,1/2+y,1/2+z
1/2-x,1/2-y,1/2+z
1/2+x,1/2-y,1/2-z
1/2-x,1/2+y,1/2-z
1/2-x,1/2-y,1/2-z
1/2+x,1/2+y,1/2-z
1/2-x,1/2+y,1/2+z
1/2+x,1/2-y,1/2+z
loop_
_atom_site_type_symbol
_atom_site_label
_atom_site_fract_x
_atom_site_fract_y
_atom_site_fract_z
Si Si1 0.051948 0.226256 0.297470
Si Si2 0.096058 0.078752 0.701766
Si Si3 0.853093 0.704523 0.800783
Si Si4 0.308211 0.648756 0.702693
Si Si5 0.288140 0.919186 0.200676
O O1 0.051669 0.224616 0.500000
O O2 0.066022 0.146393 0.237588
O O3 0.093584 0.278397 0.244882
O O4 0.000000 0.245231 0.239605
O O5 0.091984 0.077727 0.500000
O O6 0.149522 0.096836 0.746540
O O7 0.083000 0.000000 0.764749
O O8 0.822483 0.772131 0.735463
O O9 0.832030 0.630962 0.736619
O O10 0.849127 0.704510 0.000000
O O11 0.306893 0.651204 0.500000
O O12 0.258717 0.619916 0.765346
O O13 0.292054 0.000000 0.265772
O O14 0.283125 0.923557 0.000000
#
# Coordination Sequence:
#
# PCOD9520965 Si02
#       5
#    16  16  16  16  16
#     4   9  18  33  52  71  93 126 165 202 242 289
#     4   9  17  28  44  70 102 132 163 200 238 276
#     4  10  20  33  51  74  99 127 160 201 243 283
#     4   9  18  32  49  70  98 134 169 195 228 278
#     4  10  20  33  50  72  99 131 164 197 235 283
#
# _framework density 18.692537000000002
#
# number of rings (size 3 to 8) (size 9 to 14) (size 15 to 20)
#    0.000    2.600    0.000    1.800    0.000    4.000 
#    0.000    2.000    0.000    0.600    0.000    9.800 
#    0.000    0.000    0.000    0.000    0.000    0.000 
#
# Total GULP energy -223150.557044 kJ/mol
# GULP energy per Si atom -5578.763926 kJ/mol
# Density = 1.864999 g / cm^3
# Si number density = 18.692537 Si / 1000 Ang^3
#
#
#
# Elastic Constant Matrix: (Units=GPa)
#
#
# Indices 1 2 3 4 5 6 
#
# 1 132.0490 80.2783 4.9595 0.0000 0.0000 0.0000
# 2 80.2783 107.4489 7.1735 0.0000 0.0000 0.0000
# 3 4.9595 7.1735 11.6901 0.0000 0.0000 0.0000
# 4 0.0000 0.0000 0.0000 13.9175 0.0000 0.0000
# 5 0.0000 0.0000 0.0000 0.0000 20.2566 0.0000
# 6 0.0000 0.0000 0.0000 0.0000 0.0000 4.2548
#
#
#
# Elastic Compliance Matrix: (Units=1/GPa)
#
#
# Indices 1 2 3 4 5 6 
#
# 1 0.013878 -0.010402 0.000495 0.000000 0.000000 0.000000
# 2 -0.010402 0.017501 -0.006326 0.000000 0.000000 0.000000
# 3 0.000495 -0.006326 0.089214 0.000000 0.000000 0.000000
# 4 0.000000 0.000000 0.000000 0.071852 0.000000 0.000000
# 5 0.000000 0.000000 0.000000 0.000000 0.049367 0.000000
# 6 0.000000 0.000000 0.000000 0.000000 0.000000 0.235027
#
#
# Mechanical properties :
#
#
# Convention : Reuss Voigt Hill
#
# Bulk Modulus (GPa) = 11.34720 48.44562 29.89641
# Shear Modulus (GPa) = 9.28196 18.27091 13.77643
#
# Velocity S-wave (km/s) = 2.23078 3.12980 2.71772
# Velocity P-wave (km/s) = 3.56634 6.24774 5.08690
#
# Compressibility (1/GPa) = 0.08812750
#
# Stress axis : x y z
#
# Youngs Moduli (GPa) = 72.05648 57.14108 11.20897
#
# Poissons Ratio (x) = 0.59437 -0.00555
# Poissons Ratio (y) = 0.74951 0.07091
# Poissons Ratio (z) = -0.03569 0.36148
#
# Static dielectric constant tensor:
#      x y z
#    x 1.632410 0.000000 0.000000 
#    y 0.000000 1.656960 0.000000 
#    z 0.000000 0.000000 1.663820 
# 
# From -- ./inp_files/8270.got.cif
#   From: 2010.05.17/outbox.cif.g08.bks.cpg/sg71_5_cif.got.tgz:8270.got - 2010.06.03 16:22:01.
