data_PCOD9520811
_publ_section_title
;
Structure prediction by ZEFSAII (Michael W. Deem and Ramdas Pophale) SiO2 
 PCOD9520811
Probable space group: I M M M
;
_chemical_formula_sum "Si O2"
_cell_formula_units_Z 104
_cell_length_a 20.258570
_cell_length_b 26.594591
_cell_length_c 8.395221
_cell_angle_alpha 90.000000
_cell_angle_beta 90.000000
_cell_angle_gamma 90.000000
_cell_volume 4523.079646
_symmetry_space_group_name_H-M "I M M M"
_symmetry_group_IT_number 71
_symmetry_cell_setting 'orthorhombic'
loop_
_space_group_symop_operation_xyz
x,y,z
-x,-y,z
x,-y,-z
-x,y,-z
-x,-y,-z
x,y,-z
-x,y,z
x,-y,z
1/2+x,1/2+y,1/2+z
1/2-x,1/2-y,1/2+z
1/2+x,1/2-y,1/2-z
1/2-x,1/2+y,1/2-z
1/2-x,1/2-y,1/2-z
1/2+x,1/2+y,1/2-z
1/2-x,1/2+y,1/2+z
1/2+x,1/2-y,1/2+z
loop_
_atom_site_type_symbol
_atom_site_label
_atom_site_fract_x
_atom_site_fract_y
_atom_site_fract_z
Si Si1 0.923697 0.940538 0.000000
Si Si2 0.281539 0.944739 0.193081
Si Si3 0.075695 0.901971 0.326489
Si Si4 0.746236 0.663279 0.809039
Si Si5 0.394807 0.185876 0.312248
Si Si6 0.887237 0.788829 0.314329
Si Si7 0.570690 0.920270 0.188753
O O1 0.892899 0.922943 0.834373
O O2 0.000000 0.921149 0.000000
O O3 0.925194 0.000000 0.000000
O O4 0.246802 0.894947 0.258430
O O5 0.358825 0.940759 0.247521
O O6 0.255917 0.000000 0.239462
O O7 0.280439 0.941931 0.000000
O O8 0.105977 0.913782 0.500000
O O9 0.075032 0.841723 0.311076
O O10 0.000000 0.920873 0.331029
O O11 0.817373 0.685007 0.763756
O O12 0.684747 0.695338 0.746444
O O13 0.741045 0.664842 0.000000
O O14 0.400359 0.175288 0.500000
O O15 0.418305 0.241850 0.274951
O O16 0.426466 0.139619 0.219446
O O17 0.881416 0.774013 0.500000
O O18 0.500000 0.938686 0.254101
O O19 0.570434 0.930332 0.000000
#
# Coordination Sequence:
#
# PCOD9520811 Si02
#       7
#     8  16  16  16  16  16  16
#     4   9  18  34  56  78 102 134 170 210 256 310
#     4   9  18  33  53  77 104 135 174 221 270 314
#     4   9  19  35  54  78 107 137 173 218 266 320
#     4   9  19  35  52  73 102 135 174 216 259 314
#     4  10  20  32  50  76 103 135 173 215 262 310
#     4  10  20  34  53  75 102 137 174 212 261 318
#     4   9  18  33  52  74 104 141 178 217 260 312
#
# _framework density 22.993182000000001
#
# number of rings (size 3 to 8) (size 9 to 14) (size 15 to 20)
#    0.000    2.692    0.000    0.923    1.077    3.077 
#    0.000    5.385    0.000    2.769    0.000    4.308 
#    0.000    0.000    0.000    0.000    0.000    0.000 
#
# Total GULP energy -290238.273888 kJ/mol
# GULP energy per Si atom -5581.505267 kJ/mol
# Density = 2.294085 g / cm^3
# Si number density = 22.993182 Si / 1000 Ang^3
#
#
#
# Elastic Constant Matrix: (Units=GPa)
#
#
# Indices 1 2 3 4 5 6 
#
# 1 71.3374 -8.7506 2.3068 0.0000 0.0000 0.0000
# 2 -8.7506 100.9600 20.9052 0.0000 0.0000 0.0000
# 3 2.3068 20.9052 65.6536 0.0000 0.0000 0.0000
# 4 0.0000 0.0000 0.0000 -18.9589 0.0000 0.0000
# 5 0.0000 0.0000 0.0000 0.0000 -14.8256 0.0000
# 6 0.0000 0.0000 0.0000 0.0000 0.0000 14.1486
#
#
#
# Elastic Compliance Matrix: (Units=1/GPa)
#
#
# Indices 1 2 3 4 5 6 
#
# 1 0.014224 0.001431 -0.000955 0.000000 0.000000 0.000000
# 2 0.001431 0.010748 -0.003473 0.000000 0.000000 0.000000
# 3 -0.000955 -0.003473 0.016371 0.000000 0.000000 0.000000
# 4 0.000000 0.000000 0.000000 -0.052746 0.000000 0.000000
# 5 0.000000 0.000000 0.000000 0.000000 -0.067451 0.000000
# 6 0.000000 0.000000 0.000000 0.000000 0.000000 0.070679
#
#
# Mechanical properties :
#
#
# Convention : Reuss Voigt Hill
#
# Bulk Modulus (GPa) = 28.28973 29.65264 28.97118
# Shear Modulus (GPa) = 520.70692 10.97212 265.83952
#
# Velocity S-wave (km/s) = 15.06496 2.18684 10.76418
# Velocity P-wave (km/s) = 17.74639 4.39325 12.92739
#
# Compressibility (1/GPa) = 0.03534852
#
# Stress axis : x y z
#
# Youngs Moduli (GPa) = 70.30232 93.04085 61.08451
#
# Poissons Ratio (x) = -0.13311 0.05836
# Poissons Ratio (y) = -0.10058 0.21212
# Poissons Ratio (z) = 0.06716 0.32309
#
# Static dielectric constant tensor:
#      x y z
#    x 1.943220 0.000000 0.000000 
#    y 0.000000 1.821130 0.000000 
#    z 0.000000 0.000000 1.846130 
# 
# From -- ./inp_files/13295.got.cif
#   From: 2010.05.17/outbox.cif.g08.bks.cpg/sg71_7_cif.got.tgz:13295.got - 2010.06.03 16:22:01.
