data_PCOD9520349
_publ_section_title
;
Structure prediction by ZEFSAII (Michael W. Deem and Ramdas Pophale) SiO2 
 PCOD9520349
Probable space group: I M M M
;
_chemical_formula_sum "Si O2"
_cell_formula_units_Z 88
_cell_length_a 20.450538
_cell_length_b 25.629590
_cell_length_c 7.900791
_cell_angle_alpha 90.000000
_cell_angle_beta 90.000000
_cell_angle_gamma 90.000000
_cell_volume 4141.111937
_symmetry_space_group_name_H-M "I M M M"
_symmetry_group_IT_number 71
_symmetry_cell_setting 'orthorhombic'
loop_
_space_group_symop_operation_xyz
x,y,z
-x,-y,z
x,-y,-z
-x,y,-z
-x,-y,-z
x,y,-z
-x,y,z
x,-y,z
1/2+x,1/2+y,1/2+z
1/2-x,1/2-y,1/2+z
1/2+x,1/2-y,1/2-z
1/2-x,1/2+y,1/2-z
1/2-x,1/2-y,1/2-z
1/2+x,1/2+y,1/2-z
1/2-x,1/2+y,1/2+z
1/2+x,1/2-y,1/2+z
loop_
_atom_site_type_symbol
_atom_site_label
_atom_site_fract_x
_atom_site_fract_y
_atom_site_fract_z
Si Si1 0.794775 0.298784 0.812281
Si Si2 0.427627 0.640543 0.703034
Si Si3 0.072697 0.258379 0.695165
Si Si4 0.816055 0.583220 0.700131
Si Si5 0.923478 0.500000 0.707337
Si Si6 0.174321 0.944035 0.207061
O O1 0.750000 0.250000 0.750000
O O2 0.868660 0.278094 0.807569
O O3 0.803496 0.354664 0.721451
O O4 0.771071 0.310598 0.000000
O O5 0.420260 0.649632 0.500000
O O6 0.500000 0.617378 0.728118
O O7 0.425814 0.696017 0.792726
O O8 0.370407 0.603323 0.763657
O O9 0.083400 0.274473 0.500000
O O10 0.000000 0.275653 0.747228
O O11 0.817442 0.573527 0.500000
O O12 0.880447 0.551393 0.761845
O O13 0.748594 0.559427 0.768326
O O14 0.926200 0.500000 0.500000
O O15 0.000000 0.500000 0.763373
O O16 0.145815 0.000000 0.253582
O O17 0.175637 0.941379 0.000000
#
# Coordination Sequence:
#
# PCOD9520349 Si02
#       6
#    16  16  16  16   8  16
#     4  12  25  40  60  88 121 157 200 252 307 370
#     4   9  17  29  48  76 109 144 183 228 276 327
#     4  10  21  38  59  82 112 150 191 235 288 352
#     4  10  19  35  58  83 113 151 196 247 298 355
#     4   9  18  34  59  89 118 154 204 257 305 360
#     4   9  16  28  49  75 103 139 181 226 274 325
#
# _framework density 21.250330999999999
#
# number of rings (size 3 to 8) (size 9 to 14) (size 15 to 20)
#    0.000    2.091    0.909    3.273    0.000    3.636 
#    0.000    4.091    0.000    2.182    0.000    2.545 
#    0.000    0.000    0.000    0.000    0.000    0.000 
#
# Total GULP energy -245171.490532 kJ/mol
# GULP energy per Si atom -5572.079330 kJ/mol
# Density = 2.120196 g / cm^3
# Si number density = 21.250331 Si / 1000 Ang^3
#
#
#
# Elastic Constant Matrix: (Units=GPa)
#
#
# Indices 1 2 3 4 5 6 
#
# 1 90.4092 37.4469 12.8830 0.0000 0.0000 0.0000
# 2 37.4469 82.2462 -7.2017 0.0000 0.0000 0.0000
# 3 12.8830 -7.2017 24.3095 0.0000 0.0000 0.0000
# 4 0.0000 0.0000 0.0000 14.9123 0.0000 0.0000
# 5 0.0000 0.0000 0.0000 0.0000 9.5785 0.0000
# 6 0.0000 0.0000 0.0000 0.0000 0.0000 39.2659
#
#
#
# Elastic Compliance Matrix: (Units=1/GPa)
#
#
# Indices 1 2 3 4 5 6 
#
# 1 0.016044 -0.008264 -0.010951 0.000000 0.000000 0.000000
# 2 -0.008264 0.016739 0.009338 0.000000 0.000000 0.000000
# 3 -0.010951 0.009338 0.049706 0.000000 0.000000 0.000000
# 4 0.000000 0.000000 0.000000 0.067059 0.000000 0.000000
# 5 0.000000 0.000000 0.000000 0.000000 0.104400 0.000000
# 6 0.000000 0.000000 0.000000 0.000000 0.000000 0.025467
#
#
# Mechanical properties :
#
#
# Convention : Reuss Voigt Hill
#
# Bulk Modulus (GPa) = 15.93967 31.46905 23.70436
# Shear Modulus (GPa) = 15.62107 23.00712 19.31409
#
# Velocity S-wave (km/s) = 2.71421 3.29397 3.01804
# Velocity P-wave (km/s) = 4.16410 5.41367 4.82947
#
# Compressibility (1/GPa) = 0.06273656
#
# Stress axis : x y z
#
# Youngs Moduli (GPa) = 62.32815 59.74125 20.11819
#
# Poissons Ratio (x) = 0.49369 0.22031
# Poissons Ratio (y) = 0.51507 -0.18787
# Poissons Ratio (z) = 0.68255 -0.55789
#
# Static dielectric constant tensor:
#      x y z
#    x 1.781010 0.000000 0.000000 
#    y 0.000000 1.825030 0.000000 
#    z 0.000000 0.000000 1.811880 
# 
# From -- ./inp_files/10380.got.cif
#   From: 2010.05.17/outbox.cif.g08.bks.cpg/sg71_6_cif.got.tgz:10380.got - 2010.06.03 16:22:01.
