data_PCOD9520765
_publ_section_title
;
Structure prediction by ZEFSAII (Michael W. Deem and Ramdas Pophale) SiO2 
 PCOD9520765
Probable space group: I M M M
;
_chemical_formula_sum "Si O2"
_cell_formula_units_Z 104
_cell_length_a 8.976000
_cell_length_b 30.826727
_cell_length_c 22.957587
_cell_angle_alpha 90.000000
_cell_angle_beta 90.000000
_cell_angle_gamma 90.000000
_cell_volume 6352.380429
_symmetry_space_group_name_H-M "I M M M"
_symmetry_group_IT_number 71
_symmetry_cell_setting 'orthorhombic'
loop_
_space_group_symop_operation_xyz
x,y,z
-x,-y,z
x,-y,-z
-x,y,-z
-x,-y,-z
x,y,-z
-x,y,z
x,-y,z
1/2+x,1/2+y,1/2+z
1/2-x,1/2-y,1/2+z
1/2+x,1/2-y,1/2-z
1/2-x,1/2+y,1/2-z
1/2-x,1/2-y,1/2-z
1/2+x,1/2+y,1/2-z
1/2-x,1/2+y,1/2+z
1/2+x,1/2-y,1/2+z
loop_
_atom_site_type_symbol
_atom_site_label
_atom_site_fract_x
_atom_site_fract_y
_atom_site_fract_z
Si Si1 0.178035 0.050837 0.284922
Si Si2 0.679258 0.450134 0.350473
Si Si3 0.678440 0.448482 0.000000
Si Si4 0.827723 0.211422 0.070794
Si Si5 0.681197 0.193771 0.432617
Si Si6 0.321079 0.899423 0.609926
Si Si7 0.322305 0.878115 0.931944
O O1 0.216146 0.058784 0.217277
O O2 0.265196 0.080485 0.329898
O O3 0.000000 0.057103 0.291749
O O4 0.208491 0.000000 0.297205
O O5 0.500000 0.447678 0.355585
O O6 0.722982 0.500000 0.363386
O O7 0.753162 0.415847 0.393073
O O8 0.748687 0.426224 0.056909
O O9 0.708893 0.500000 0.000000
O O10 0.500000 0.442562 0.000000
O O11 0.769835 0.258863 0.089632
O O12 0.735826 0.169152 0.087740
O O13 0.000000 0.206060 0.088899
O O14 0.826734 0.213490 0.000000
O O15 0.728988 0.188000 0.500000
O O16 0.500000 0.195798 0.433445
O O17 0.723760 0.151032 0.397448
O O18 0.500000 0.902042 0.605269
O O19 0.500000 0.879308 0.928768
O O20 0.278223 0.883542 0.000000
#
# Coordination Sequence:
#
# PCOD9520765 Si02
#       7
#    16  16   8  16  16  16  16
#     4   9  19  36  53  69  94 128 166 207 248 291
#     4   9  19  36  56  74  94 128 172 207 233 279
#     4  11  23  35  45  63  97 137 171 207 254 301
#     4   8  14  27  49  70  92 129 168 195 229 286
#     4   8  14  27  46  69  97 126 159 203 248 288
#     4  11  20  31  50  74  99 126 163 211 256 301
#     4  10  20  32  48  76 111 134 151 190 248 295
#
# _framework density 16.371815000000002
#
# number of rings (size 3 to 8) (size 9 to 14) (size 15 to 20)
#    0.000    2.692    0.769    3.462    0.000    4.923 
#    0.000    4.615    0.000    0.923    0.000    0.000 
#    0.000    0.000    0.000    0.000    0.000    0.000 
#
# Total GULP energy -289826.697949 kJ/mol
# GULP energy per Si atom -5573.590345 kJ/mol
# Density = 1.633455 g / cm^3
# Si number density = 16.371815 Si / 1000 Ang^3
#
#
#
# Elastic Constant Matrix: (Units=GPa)
#
#
# Indices 1 2 3 4 5 6 
#
# 1 38.4076 60.0643 39.3858 0.0000 0.0000 0.0000
# 2 60.0643 175.0801 88.6825 0.0000 0.0000 0.0000
# 3 39.3858 88.6825 71.6832 0.0000 0.0000 0.0000
# 4 0.0000 0.0000 0.0000 9.0569 0.0000 0.0000
# 5 0.0000 0.0000 0.0000 0.0000 25.2699 0.0000
# 6 0.0000 0.0000 0.0000 0.0000 0.0000 18.0097
#
#
#
# Elastic Compliance Matrix: (Units=1/GPa)
#
#
# Indices 1 2 3 4 5 6 
#
# 1 0.067564 -0.011720 -0.022624 0.000000 0.000000 0.000000
# 2 -0.011720 0.017331 -0.015002 0.000000 0.000000 0.000000
# 3 -0.022624 -0.015002 0.044940 0.000000 0.000000 0.000000
# 4 0.000000 0.000000 0.000000 0.110413 0.000000 0.000000
# 5 0.000000 0.000000 0.000000 0.000000 0.039573 0.000000
# 6 0.000000 0.000000 0.000000 0.000000 0.000000 0.055526
#
#
# Mechanical properties :
#
#
# Convention : Reuss Voigt Hill
#
# Bulk Modulus (GPa) = 32.10783 73.49291 52.80037
# Shear Modulus (GPa) = 11.25063 16.93653 14.09358
#
# Velocity S-wave (km/s) = 2.62429 3.21984 2.93720
# Velocity P-wave (km/s) = 5.36998 7.66880 6.61994
#
# Compressibility (1/GPa) = 0.03114505
#
# Stress axis : x y z
#
# Youngs Moduli (GPa) = 14.80069 57.69993 22.25181
#
# Poissons Ratio (x) = 0.67622 0.50342
# Poissons Ratio (y) = 0.17346 0.33382
# Poissons Ratio (z) = 0.33485 0.86560
#
# Static dielectric constant tensor:
#      x y z
#    x 1.544690 0.000000 0.000000 
#    y 0.000000 1.561280 0.000000 
#    z 0.000000 0.000000 1.525400 
# 
# From -- ./inp_files/58206.got.cif
#   From: 2010.05.17/outbox.cif.g08.bks.cpg/sg71_30_cif.got.tgz:58206.got - 2010.06.03 16:22:01.
