data_PCOD9520396
_publ_section_title
;
Structure prediction by ZEFSAII (Michael W. Deem and Ramdas Pophale) SiO2 
 PCOD9520396
Probable space group: I M M M
;
_chemical_formula_sum "Si O2"
_cell_formula_units_Z 72
_cell_length_a 14.994817
_cell_length_b 23.622670
_cell_length_c 11.508148
_cell_angle_alpha 90.000000
_cell_angle_beta 90.000000
_cell_angle_gamma 90.000000
_cell_volume 4076.388723
_symmetry_space_group_name_H-M "I M M M"
_symmetry_group_IT_number 71
_symmetry_cell_setting 'orthorhombic'
loop_
_space_group_symop_operation_xyz
x,y,z
-x,-y,z
x,-y,-z
-x,y,-z
-x,-y,-z
x,y,-z
-x,y,z
x,-y,z
1/2+x,1/2+y,1/2+z
1/2-x,1/2-y,1/2+z
1/2+x,1/2-y,1/2-z
1/2-x,1/2+y,1/2-z
1/2-x,1/2-y,1/2-z
1/2+x,1/2+y,1/2-z
1/2-x,1/2+y,1/2+z
1/2+x,1/2-y,1/2+z
loop_
_atom_site_type_symbol
_atom_site_label
_atom_site_fract_x
_atom_site_fract_y
_atom_site_fract_z
Si Si1 0.600460 0.365348 0.863836
Si Si2 0.315953 0.243350 0.861937
Si Si3 0.897571 0.568914 0.000000
Si Si4 0.731714 0.066112 0.291349
Si Si5 0.098279 0.378807 0.363092
O O1 0.500000 0.376785 0.823402
O O2 0.621835 0.298715 0.858181
O O3 0.677627 0.398897 0.797886
O O4 0.606656 0.382004 0.000000
O O5 0.250000 0.250000 0.750000
O O6 0.369382 0.185319 0.840705
O O7 0.281951 0.241158 0.000000
O O8 0.837646 0.586390 0.890736
O O9 0.901295 0.500000 0.000000
O O10 0.000000 0.589003 0.000000
O O11 0.674435 0.078797 0.178241
O O12 0.749913 0.000000 0.308437
O O13 0.090625 0.384018 0.500000
O O14 0.000000 0.389912 0.310907
#
# Coordination Sequence:
#
# PCOD9520396 Si02
#       5
#    16  16   8  16  16
#     4  10  20  35  57  83 112 147 189 234 279 334
#     4  10  19  35  60  86 113 146 187 235 289 344
#     4   9  18  32  49  73 107 143 178 224 280 329
#     4  11  21  34  53  79 111 148 188 229 276 330
#     4  10  21  37  58  82 109 145 187 230 279 339
#
# _framework density 17.662692
#
# number of rings (size 3 to 8) (size 9 to 14) (size 15 to 20)
#    0.000    1.889    3.333    1.333    0.000    4.889 
#    0.000    2.222    0.000    4.000    0.000    1.556 
#    0.000    0.000    0.000    0.000    0.000    0.000 
#
# Total GULP energy -200495.140662 kJ/mol
# GULP energy per Si atom -5569.309463 kJ/mol
# Density = 1.762249 g / cm^3
# Si number density = 17.662692 Si / 1000 Ang^3
#
#
#
# Elastic Constant Matrix: (Units=GPa)
#
#
# Indices 1 2 3 4 5 6 
#
# 1 123.0277 4.4910 28.0429 -0.0001 0.0000 0.0000
# 2 4.4910 19.6752 -8.0892 -0.0001 0.0000 0.0000
# 3 28.0429 -8.0892 42.4287 -0.0008 0.0001 -0.0001
# 4 -0.0001 -0.0001 -0.0008 21.6365 0.0001 0.0000
# 5 0.0000 0.0000 0.0001 0.0001 23.1520 0.0000
# 6 0.0000 0.0000 -0.0001 0.0000 0.0000 14.3876
#
#
#
# Elastic Compliance Matrix: (Units=1/GPa)
#
#
# Indices 1 2 3 4 5 6 
#
# 1 0.010085 -0.005471 -0.007709 0.000000 0.000000 0.000000
# 2 -0.005471 0.058117 0.014696 0.000001 0.000000 0.000000
# 3 -0.007709 0.014696 0.031466 0.000001 0.000000 0.000000
# 4 0.000000 0.000001 0.000001 0.046218 0.000000 0.000000
# 5 0.000000 0.000000 0.000000 0.000000 0.043193 0.000000
# 6 0.000000 0.000000 0.000000 0.000000 0.000000 0.069504
#
#
# Mechanical properties :
#
#
# Convention : Reuss Voigt Hill
#
# Bulk Modulus (GPa) = 9.73707 26.00234 17.86970
# Shear Modulus (GPa) = 17.25423 22.54768 19.90096
#
# Velocity S-wave (km/s) = 3.12889 3.57679 3.36031
# Velocity P-wave (km/s) = 4.31022 5.64017 5.01944
#
# Compressibility (1/GPa) = 0.10270031
#
# Stress axis : x y z
#
# Youngs Moduli (GPa) = 99.15585 17.20676 31.78032
#
# Poissons Ratio (x) = 0.09415 0.24499
# Poissons Ratio (y) = 0.54252 -0.46706
# Poissons Ratio (z) = 0.76438 -0.25288
#
# Static dielectric constant tensor:
#      x y z
#    x 1.607100 0.000000 0.000000 
#    y 0.000000 1.587740 0.000000 
#    z 0.000000 0.000000 1.668790 
# 
# From -- ./inp_files/19872.got.cif
#   From: 2010.05.17/outbox.cif.g08.bks.cpg/sg71_10_cif.got.tgz:19872.got - 2010.06.03 16:22:01.
