data_PCOD9520779
_publ_section_title
;
Structure prediction by ZEFSAII (Michael W. Deem and Ramdas Pophale) SiO2 
 PCOD9520779
Probable space group: I M M M
;
_chemical_formula_sum "Si O2"
_cell_formula_units_Z 104
_cell_length_a 8.980215
_cell_length_b 24.477006
_cell_length_c 28.111216
_cell_angle_alpha 90.000000
_cell_angle_beta 90.000000
_cell_angle_gamma 90.000000
_cell_volume 6179.091993
_symmetry_space_group_name_H-M "I M M M"
_symmetry_group_IT_number 71
_symmetry_cell_setting 'orthorhombic'
loop_
_space_group_symop_operation_xyz
x,y,z
-x,-y,z
x,-y,-z
-x,y,-z
-x,-y,-z
x,y,-z
-x,y,z
x,-y,z
1/2+x,1/2+y,1/2+z
1/2-x,1/2-y,1/2+z
1/2+x,1/2-y,1/2-z
1/2-x,1/2+y,1/2-z
1/2-x,1/2-y,1/2-z
1/2+x,1/2+y,1/2-z
1/2-x,1/2+y,1/2+z
1/2+x,1/2-y,1/2+z
loop_
_atom_site_type_symbol
_atom_site_label
_atom_site_fract_x
_atom_site_fract_y
_atom_site_fract_z
Si Si1 0.665291 0.065851 0.500000
Si Si2 0.822400 0.762257 0.800784
Si Si3 0.827486 0.733650 0.056140
Si Si4 0.824314 0.157088 0.882835
Si Si5 0.674852 0.327426 0.864765
Si Si6 0.821550 0.938230 0.598544
Si Si7 0.179553 0.563791 0.445231
O O1 0.500000 0.090100 0.500000
O O2 0.750180 0.078250 0.451659
O O3 0.653848 0.000000 0.500000
O O4 0.750000 0.750000 0.750000
O O5 0.773473 0.815410 0.832461
O O6 0.775750 0.710130 0.832002
O O7 0.000000 0.766095 0.796169
O O8 0.808278 0.793491 0.079203
O O9 0.712452 0.694416 0.082561
O O10 0.000000 0.717190 0.066061
O O11 0.806169 0.734748 0.000000
O O12 0.744354 0.104867 0.905842
O O13 0.000000 0.145086 0.878115
O O14 0.500000 0.320068 0.854008
O O15 0.713735 0.391340 0.863688
O O16 0.000000 0.938421 0.592823
O O17 0.773884 0.000000 0.610550
O O18 0.225821 0.577917 0.500000
O O19 0.220532 0.500000 0.437158
O O20 0.000000 0.567015 0.443996
#
# Coordination Sequence:
#
# PCOD9520779 Si02
#       7
#     8  16  16  16  16  16  16
#     4   9  17  27  41  63  89 123 167 205 236 273
#     4  10  21  38  58  78 100 124 156 203 258 309
#     4   9  18  31  45  65  98 135 165 203 252 294
#     4   9  18  32  50  73  99 128 165 205 247 297
#     4  10  20  32  49  73  97 125 166 205 244 299
#     4   9  18  32  47  64  93 131 166 202 241 282
#     4   9  18  31  47  72 108 146 179 209 242 284
#
# _framework density 16.830950999999999
#
# number of rings (size 3 to 8) (size 9 to 14) (size 15 to 20)
#    0.000    2.692    0.000    3.000    1.077    6.769 
#    0.000    0.769    0.000    0.923    0.000    2.154 
#    0.000    0.000    0.000    0.000    0.000    0.000 
#
# Total GULP energy -289598.769451 kJ/mol
# GULP energy per Si atom -5569.207105 kJ/mol
# Density = 1.679264 g / cm^3
# Si number density = 16.830951 Si / 1000 Ang^3
#
#
#
# Elastic Constant Matrix: (Units=GPa)
#
#
# Indices 1 2 3 4 5 6 
#
# 1 27.4851 33.8085 28.1762 0.0000 0.0000 0.0000
# 2 33.8085 100.4697 47.3309 0.0000 0.0000 0.0000
# 3 28.1762 47.3309 97.9662 0.0000 0.0000 0.0000
# 4 0.0000 0.0000 0.0000 18.2748 0.0000 0.0000
# 5 0.0000 0.0000 0.0000 0.0000 27.6943 0.0000
# 6 0.0000 0.0000 0.0000 0.0000 0.0000 17.1040
#
#
#
# Elastic Compliance Matrix: (Units=1/GPa)
#
#
# Indices 1 2 3 4 5 6 
#
# 1 0.070794 -0.018424 -0.011460 0.000000 0.000000 0.000000
# 2 -0.018424 0.017681 -0.003243 0.000000 0.000000 0.000000
# 3 -0.011460 -0.003243 0.015071 0.000000 0.000000 0.000000
# 4 0.000000 0.000000 0.000000 0.054720 0.000000 0.000000
# 5 0.000000 0.000000 0.000000 0.000000 0.036109 0.000000
# 6 0.000000 0.000000 0.000000 0.000000 0.000000 0.058466
#
#
# Mechanical properties :
#
#
# Convention : Reuss Voigt Hill
#
# Bulk Modulus (GPa) = 26.81602 49.39468 38.10535
# Shear Modulus (GPa) = 15.08189 20.38833 17.73511
#
# Velocity S-wave (km/s) = 2.99671 3.48423 3.24963
# Velocity P-wave (km/s) = 5.28591 6.75261 6.06377
#
# Compressibility (1/GPa) = 0.03729115
#
# Stress axis : x y z
#
# Youngs Moduli (GPa) = 14.12558 56.55850 66.35437
#
# Poissons Ratio (x) = 1.04201 0.76042
# Poissons Ratio (y) = 0.26024 0.21521
# Poissons Ratio (z) = 0.16188 0.18344
#
# Static dielectric constant tensor:
#      x y z
#    x 1.575780 0.000000 0.000000 
#    y 0.000000 1.594100 0.000000 
#    z 0.000000 0.000000 1.580580 
# 
# From -- ./inp_files/58212.got.cif
#   From: 2010.05.17/outbox.cif.g08.bks.cpg/sg71_30_cif.got.tgz:58212.got - 2010.06.03 16:22:01.
