data_PCOD9520412
_publ_section_title
;
Structure prediction by ZEFSAII (Michael W. Deem and Ramdas Pophale) SiO2 
 PCOD9520412
Probable space group: I M M M
;
_chemical_formula_sum "Si O2"
_cell_formula_units_Z 96
_cell_length_a 15.346131
_cell_length_b 12.791439
_cell_length_c 22.584832
_cell_angle_alpha 90.000000
_cell_angle_beta 90.000000
_cell_angle_gamma 90.000000
_cell_volume 4433.382163
_symmetry_space_group_name_H-M "I M M M"
_symmetry_group_IT_number 71
_symmetry_cell_setting 'orthorhombic'
loop_
_space_group_symop_operation_xyz
x,y,z
-x,-y,z
x,-y,-z
-x,y,-z
-x,-y,-z
x,y,-z
-x,y,z
x,-y,z
1/2+x,1/2+y,1/2+z
1/2-x,1/2-y,1/2+z
1/2+x,1/2-y,1/2-z
1/2-x,1/2+y,1/2-z
1/2-x,1/2-y,1/2-z
1/2+x,1/2+y,1/2-z
1/2-x,1/2+y,1/2+z
1/2+x,1/2-y,1/2+z
loop_
_atom_site_type_symbol
_atom_site_label
_atom_site_fract_x
_atom_site_fract_y
_atom_site_fract_z
Si Si1 0.836278 0.841845 0.935574
Si Si2 0.107149 0.000000 0.297521
Si Si3 0.604841 0.117894 0.596955
Si Si4 0.894082 0.385965 0.763268
Si Si5 0.897870 0.000000 0.161560
Si Si6 0.101784 0.223003 0.328989
Si Si7 0.631260 0.882032 0.067340
O O1 0.848616 0.717394 0.930993
O O2 0.735681 0.874297 0.934801
O O3 0.875774 0.899811 0.878850
O O4 0.873221 0.874407 0.000000
O O5 0.137142 0.000000 0.228732
O O6 0.138652 0.106224 0.328937
O O7 0.000000 0.000000 0.299663
O O8 0.500000 0.128595 0.588177
O O9 0.622471 0.124735 0.667291
O O10 0.628642 0.000000 0.577232
O O11 0.862946 0.500000 0.742868
O O12 0.858011 0.293912 0.722885
O O13 0.000000 0.386560 0.757596
O O14 0.000000 0.000000 0.170239
O O15 0.104352 0.291211 0.388198
O O16 0.000000 0.210366 0.313715
O O17 0.606580 0.000000 0.086831
O O18 0.600062 0.867550 0.000000
#
# Coordination Sequence:
#
# PCOD9520412 Si02
#       7
#    16   8  16  16   8  16  16
#     4  11  22  37  55  77 112 155 192 233 284 333
#     4   9  20  37  57  87 123 147 175 230 288 332
#     4   9  18  33  53  79 113 148 187 236 280 326
#     4   8  14  27  50  80 110 140 176 223 280 328
#     4  11  21  36  61  87 113 151 195 235 277 331
#     4  10  19  35  61  87 112 145 184 226 277 343
#     4  10  22  41  60  79 112 149 182 235 293 330
#
# _framework density 21.653897000000001
#
# number of rings (size 3 to 8) (size 9 to 14) (size 15 to 20)
#    0.000    2.333    0.833    3.250    0.000    6.000 
#    1.500    5.417    0.000    1.500    0.000    0.000 
#    0.000    0.000    0.000    0.000    0.000    0.000 
#
# Total GULP energy -267938.411630 kJ/mol
# GULP energy per Si atom -5582.050242 kJ/mol
# Density = 2.160461 g / cm^3
# Si number density = 21.653897 Si / 1000 Ang^3
#
#
#
# Elastic Constant Matrix: (Units=GPa)
#
#
# Indices 1 2 3 4 5 6 
#
# 1 32.7881 14.1027 -0.2221 0.0000 0.0000 0.0000
# 2 14.1027 218.4811 79.6123 0.0000 0.0000 0.0000
# 3 -0.2221 79.6123 81.0410 0.0000 0.0000 0.0000
# 4 0.0000 0.0000 0.0000 45.2371 0.0000 0.0000
# 5 0.0000 0.0000 0.0000 0.0000 15.8551 0.0000
# 6 0.0000 0.0000 0.0000 0.0000 0.0000 18.4132
#
#
#
# Elastic Compliance Matrix: (Units=1/GPa)
#
#
# Indices 1 2 3 4 5 6 
#
# 1 0.031923 -0.003259 0.003289 0.000000 0.000000 0.000000
# 2 -0.003259 0.007462 -0.007339 0.000000 0.000000 0.000000
# 3 0.003289 -0.007339 0.019558 0.000000 0.000000 0.000000
# 4 0.000000 0.000000 0.000000 0.022106 0.000000 0.000000
# 5 0.000000 0.000000 0.000000 0.000000 0.063071 0.000000
# 6 0.000000 0.000000 0.000000 0.000000 0.000000 0.054309
#
#
# Mechanical properties :
#
#
# Convention : Reuss Voigt Hill
#
# Bulk Modulus (GPa) = 22.56078 57.69955 40.13017
# Shear Modulus (GPa) = 21.94700 31.82225 26.88463
#
# Velocity S-wave (km/s) = 3.18706 3.83768 3.52740
# Velocity P-wave (km/s) = 4.89741 6.80743 5.92983
#
# Compressibility (1/GPa) = 0.04432470
#
# Stress axis : x y z
#
# Youngs Moduli (GPa) = 31.32543 134.01724 51.12948
#
# Poissons Ratio (x) = 0.43678 -0.16817
# Poissons Ratio (y) = 0.10209 0.37525
# Poissons Ratio (z) = -0.10303 0.98357
#
# Static dielectric constant tensor:
#      x y z
#    x 1.794990 0.000000 0.000000 
#    y 0.000000 1.826950 0.000000 
#    z 0.000000 0.000000 1.782510 
# 
# From -- ./inp_files/60549.got.cif
#   From: 2010.05.17/outbox.cif.g08.bks.cpg/sg71_31_cif.got.tgz:60549.got - 2010.06.03 16:22:01.
