data_PCOD9520270
_publ_section_title
;
Structure prediction by ZEFSAII (Michael W. Deem and Ramdas Pophale) SiO2 
 PCOD9520270
Probable space group: I M M M
;
_chemical_formula_sum "Si O2"
_cell_formula_units_Z 120
_cell_length_a 14.264765
_cell_length_b 32.164192
_cell_length_c 15.318675
_cell_angle_alpha 90.000000
_cell_angle_beta 90.000000
_cell_angle_gamma 90.000000
_cell_volume 7028.432360
_symmetry_space_group_name_H-M "I M M M"
_symmetry_group_IT_number 71
_symmetry_cell_setting 'orthorhombic'
loop_
_space_group_symop_operation_xyz
x,y,z
-x,-y,z
x,-y,-z
-x,y,-z
-x,-y,-z
x,y,-z
-x,y,z
x,-y,z
1/2+x,1/2+y,1/2+z
1/2-x,1/2-y,1/2+z
1/2+x,1/2-y,1/2-z
1/2-x,1/2+y,1/2-z
1/2-x,1/2-y,1/2-z
1/2+x,1/2+y,1/2-z
1/2-x,1/2+y,1/2+z
1/2+x,1/2-y,1/2+z
loop_
_atom_site_type_symbol
_atom_site_label
_atom_site_fract_x
_atom_site_fract_y
_atom_site_fract_z
Si Si1 0.105816 0.949663 0.000000
Si Si2 0.888502 0.258346 0.650907
Si Si3 0.112227 0.830015 0.904826
Si Si4 0.387563 0.852806 0.899022
Si Si5 0.733494 0.678946 0.095955
Si Si6 0.887684 0.049562 0.194484
Si Si7 0.889494 0.262801 0.142682
Si Si8 0.731023 0.378321 0.264876
O O1 0.144168 0.939550 0.094757
O O2 0.000000 0.932796 0.000000
O O3 0.099663 0.000000 0.000000
O O4 0.865739 0.303252 0.609377
O O5 0.834960 0.218226 0.615074
O O6 0.867513 0.262166 0.754082
O O7 0.000000 0.251967 0.640476
O O8 0.138203 0.781673 0.896179
O O9 0.157047 0.853940 0.825548
O O10 0.000000 0.832545 0.899641
O O11 0.141900 0.845995 0.000000
O O12 0.500000 0.857398 0.883784
O O13 0.325737 0.875453 0.824110
O O14 0.368555 0.865591 0.000000
O O15 0.834849 0.700326 0.098354
O O16 0.734722 0.646164 0.174134
O O17 0.712182 0.661827 0.000000
O O18 0.816374 0.076812 0.250352
O O19 0.000000 0.059275 0.203074
O O20 0.879529 0.000000 0.206807
O O21 0.000000 0.267302 0.132590
#
# Coordination Sequence:
#
# PCOD9520270 Si02
#       8
#     8  16  16  16  16  16  16  16
#     4   7  12  26  48  76 105 127 149 179 224 296
#     4  10  19  35  53  68  98 145 183 213 253 301
#     4  10  20  31  47  75 106 134 166 206 254 308
#     4  10  21  35  51  73 102 140 182 214 243 292
#     4  12  24  35  50  74 103 137 181 228 267 301
#     4   9  19  35  55  80 109 136 162 198 251 319
#     4  10  19  35  53  69  99 140 177 215 261 306
#     4  12  22  34  53  76 101 134 171 216 263 306
#
# _framework density 17.073508
#
# number of rings (size 3 to 8) (size 9 to 14) (size 15 to 20)
#    0.000    1.800    2.667    3.600    1.867    2.133 
#    0.000    0.000    0.000    0.800    0.000    1.867 
#    0.000    0.000    0.000    2.400    0.000    0.000 
#
# Total GULP energy -334759.921612 kJ/mol
# GULP energy per Si atom -5579.332027 kJ/mol
# Density = 1.703465 g / cm^3
# Si number density = 17.073508 Si / 1000 Ang^3
#
#
#
# Elastic Constant Matrix: (Units=GPa)
#
#
# Indices 1 2 3 4 5 6 
#
# 1 70.9173 33.5048 30.0809 -0.0001 0.0001 0.0000
# 2 33.5048 69.6302 33.5685 0.0000 0.0001 0.0000
# 3 30.0809 33.5685 100.7315 -0.0004 0.0001 0.0001
# 4 -0.0001 0.0000 -0.0004 14.8688 0.0002 0.0001
# 5 0.0001 0.0001 0.0001 0.0002 -4.1078 0.0000
# 6 0.0000 0.0000 0.0001 0.0001 0.0000 19.6418
#
#
#
# Elastic Compliance Matrix: (Units=1/GPa)
#
#
# Indices 1 2 3 4 5 6 
#
# 1 0.019047 -0.007652 -0.003138 0.000000 0.000000 0.000000
# 2 -0.007652 0.020185 -0.004441 0.000000 0.000000 0.000000
# 3 -0.003138 -0.004441 0.012344 0.000000 0.000000 0.000000
# 4 0.000000 0.000000 0.000000 0.067255 0.000004 0.000000
# 5 0.000000 0.000000 0.000000 0.000004 -0.243440 0.000000
# 6 0.000000 0.000000 0.000000 0.000000 0.000000 0.050912
#
#
# Mechanical properties :
#
#
# Convention : Reuss Voigt Hill
#
# Bulk Modulus (GPa) = 47.36325 48.39861 47.88093
# Shear Modulus (GPa) = -138.14000 15.68888 -61.22556
#
# Velocity S-wave (km/s) = -9.00470 3.03463 -5.99482
# Velocity P-wave (km/s) = 8.96169 6.37866 4.45109
#
# Compressibility (1/GPa) = 0.02111342
#
# Stress axis : x y z
#
# Youngs Moduli (GPa) = 52.50091 49.54174 81.00780
#
# Poissons Ratio (x) = 0.37912 0.25419
# Poissons Ratio (y) = 0.40176 0.35979
# Poissons Ratio (z) = 0.16474 0.22003
#
# Static dielectric constant tensor:
#      x y z
#    x 1.614140 0.000000 0.000000 
#    y 0.000000 1.587210 0.000000 
#    z 0.000000 0.000000 1.593080 
# 
# From -- ./inp_files/35456.got.cif
#   From: 2010.05.17/outbox.cif.g08.bks.cpg/sg71_18_cif.got.tgz:35456.got - 2010.06.03 16:22:01.
