data_PCOD9520732
_publ_section_title
;
Structure prediction by ZEFSAII (Michael W. Deem and Ramdas Pophale) SiO2 
 PCOD9520732
Probable space group: I M M M
;
_chemical_formula_sum "Si O2"
_cell_formula_units_Z 104
_cell_length_a 7.915416
_cell_length_b 26.268051
_cell_length_c 29.534405
_cell_angle_alpha 90.000000
_cell_angle_beta 90.000000
_cell_angle_gamma 90.000000
_cell_volume 6140.868835
_symmetry_space_group_name_H-M "I M M M"
_symmetry_group_IT_number 71
_symmetry_cell_setting 'orthorhombic'
loop_
_space_group_symop_operation_xyz
x,y,z
-x,-y,z
x,-y,-z
-x,y,-z
-x,-y,-z
x,y,-z
-x,y,z
x,-y,z
1/2+x,1/2+y,1/2+z
1/2-x,1/2-y,1/2+z
1/2+x,1/2-y,1/2-z
1/2-x,1/2+y,1/2-z
1/2-x,1/2-y,1/2-z
1/2+x,1/2+y,1/2-z
1/2-x,1/2+y,1/2+z
1/2+x,1/2-y,1/2+z
loop_
_atom_site_type_symbol
_atom_site_label
_atom_site_fract_x
_atom_site_fract_y
_atom_site_fract_z
Si Si1 0.302857 0.383402 0.359853
Si Si2 0.500000 0.898941 0.707130
Si Si3 0.689567 0.561956 0.052188
Si Si4 0.302073 0.720136 0.316777
Si Si5 0.189062 0.824076 0.284553
Si Si6 0.295577 0.940926 0.947795
Si Si7 0.000000 0.559881 0.109732
Si Si8 0.000000 0.439899 0.308169
O O1 0.500000 0.389520 0.345411
O O2 0.258871 0.323835 0.352527
O O3 0.283187 0.403847 0.410784
O O4 0.167321 0.414984 0.330410
O O5 0.665331 0.863586 0.704685
O O6 0.500000 0.933471 0.663019
O O7 0.500000 0.928018 0.754817
O O8 0.500000 0.579562 0.063002
O O9 0.685667 0.500000 0.054084
O O10 0.832127 0.581251 0.086026
O O11 0.729128 0.574956 0.000000
O O12 0.500000 0.732824 0.321476
O O13 0.204159 0.773081 0.314758
O O14 0.281007 0.694204 0.267310
O O15 0.000000 0.845186 0.287676
O O16 0.500000 0.937742 0.944374
O O17 0.249510 0.000000 0.938189
O O18 0.249539 0.930088 0.000000
O O19 0.000000 0.500000 0.099257
O O20 0.000000 0.500000 0.317034
#
# Coordination Sequence:
#
# PCOD9520732 Si02
#       8
#    16   8  16  16  16  16   8   8
#     4  11  22  35  55  81 104 135 180 224 271 326
#     4  12  23  37  50  73 111 150 182 217 260 314
#     4   8  14  27  49  76 101 127 169 225 270 297
#     4   9  18  33  54  80 102 124 163 223 279 318
#     4  10  20  33  54  77 101 130 169 221 275 314
#     4   9  18  33  52  75 105 140 176 217 268 324
#     4  10  20  32  48  71 105 150 186 209 244 310
#     4  12  25  38  52  72 108 154 190 220 254 306
#
# _framework density 16.935714999999998
#
# number of rings (size 3 to 8) (size 9 to 14) (size 15 to 20)
#    0.000    2.154    3.077    1.846    2.154    3.077 
#    0.000    0.769    0.000    2.769    0.000    2.154 
#    0.000    4.923    0.000    0.000    0.000    0.000 
#
# Total GULP energy -289907.251075 kJ/mol
# GULP energy per Si atom -5575.139444 kJ/mol
# Density = 1.689717 g / cm^3
# Si number density = 16.935715 Si / 1000 Ang^3
#
#
#
# Elastic Constant Matrix: (Units=GPa)
#
#
# Indices 1 2 3 4 5 6 
#
# 1 72.6316 8.5238 25.4857 0.0000 0.0000 0.0000
# 2 8.5238 26.2297 6.9562 0.0000 0.0000 0.0000
# 3 25.4857 6.9562 79.4694 0.0000 0.0000 0.0000
# 4 0.0000 0.0000 0.0000 18.6735 0.0000 0.0000
# 5 0.0000 0.0000 0.0000 0.0000 -15.3043 0.0000
# 6 0.0000 0.0000 0.0000 0.0000 0.0000 18.0961
#
#
#
# Elastic Compliance Matrix: (Units=1/GPa)
#
#
# Indices 1 2 3 4 5 6 
#
# 1 0.015895 -0.003904 -0.004756 0.000000 0.000000 0.000000
# 2 -0.003904 0.039990 -0.002248 0.000000 0.000000 0.000000
# 3 -0.004756 -0.002248 0.014305 0.000000 0.000000 0.000000
# 4 0.000000 0.000000 0.000000 0.053552 0.000000 0.000000
# 5 0.000000 0.000000 0.000000 0.000000 -0.065341 0.000000
# 6 0.000000 0.000000 0.000000 0.000000 0.000000 0.055261
#
#
# Mechanical properties :
#
#
# Convention : Reuss Voigt Hill
#
# Bulk Modulus (GPa) = 20.67240 28.91799 24.79520
# Shear Modulus (GPa) = 32.98103 13.45074 23.21589
#
# Velocity S-wave (km/s) = 4.41775 2.82125 3.70648
# Velocity P-wave (km/s) = 6.18506 5.26544 5.74368
#
# Compressibility (1/GPa) = 0.04837367
#
# Stress axis : x y z
#
# Youngs Moduli (GPa) = 62.91278 25.00644 69.90355
#
# Poissons Ratio (x) = 0.09763 0.33244
# Poissons Ratio (y) = 0.24562 0.15717
# Poissons Ratio (z) = 0.29920 0.05622
#
# Static dielectric constant tensor:
#      x y z
#    x 1.653860 0.000000 0.000000 
#    y 0.000000 1.559100 0.000000 
#    z 0.000000 0.000000 1.567720 
# 
# From -- ./inp_files/63729.got.cif
#   From: 2010.05.17/outbox.cif.g08.bks.cpg/sg71_32_cif.got.tgz:63729.got - 2010.06.03 16:22:01.
