data_PCOD9520634
_publ_section_title
;
Structure prediction by ZEFSAII (Michael W. Deem and Ramdas Pophale) SiO2 
 PCOD9520634
Probable space group: I M M M
;
_chemical_formula_sum "Si O2"
_cell_formula_units_Z 80
_cell_length_a 14.488098
_cell_length_b 13.097585
_cell_length_c 24.268166
_cell_angle_alpha 90.000000
_cell_angle_beta 90.000000
_cell_angle_gamma 90.000000
_cell_volume 4605.105219
_symmetry_space_group_name_H-M "I M M M"
_symmetry_group_IT_number 71
_symmetry_cell_setting 'orthorhombic'
loop_
_space_group_symop_operation_xyz
x,y,z
-x,-y,z
x,-y,-z
-x,y,-z
-x,-y,-z
x,y,-z
-x,y,z
x,-y,z
1/2+x,1/2+y,1/2+z
1/2-x,1/2-y,1/2+z
1/2+x,1/2-y,1/2-z
1/2-x,1/2+y,1/2-z
1/2-x,1/2-y,1/2-z
1/2+x,1/2+y,1/2-z
1/2-x,1/2+y,1/2+z
1/2+x,1/2-y,1/2+z
loop_
_atom_site_type_symbol
_atom_site_label
_atom_site_fract_x
_atom_site_fract_y
_atom_site_fract_z
Si Si1 0.789499 0.500000 0.061379
Si Si2 0.610255 0.223388 0.686743
Si Si3 0.393756 0.885237 0.066383
Si Si4 0.109214 0.500000 0.820802
Si Si5 0.110417 0.119091 0.716240
Si Si6 0.723785 0.299987 0.111530
O O1 0.852915 0.500000 0.116491
O O2 0.733084 0.394950 0.069617
O O3 0.831634 0.500000 0.000000
O O4 0.500000 0.228217 0.675133
O O5 0.633763 0.107587 0.707074
O O6 0.631901 0.308193 0.732084
O O7 0.675204 0.233445 0.633541
O O8 0.500000 0.867731 0.083928
O O9 0.328818 0.796861 0.087983
O O10 0.367149 0.000000 0.084300
O O11 0.392596 0.884191 0.000000
O O12 0.000000 0.500000 0.824516
O O13 0.166782 0.157328 0.663671
O O14 0.000000 0.127326 0.706075
O O15 0.131455 0.000000 0.726731
#
# Coordination Sequence:
#
# PCOD9520634 Si02
#       6
#     8  16  16   8  16  16
#     4  10  20  31  49  76 104 133 171 213 257 308
#     4   9  19  34  52  74 102 138 171 210 260 307
#     4   9  19  36  55  75 101 133 169 211 260 309
#     4   8  16  33  52  71 101 134 171 215 258 303
#     4  10  20  34  50  71 103 136 169 212 263 315
#     4  11  19  34  53  76 103 134 175 215 256 308
#
# _framework density 17.372024
#
# number of rings (size 3 to 8) (size 9 to 14) (size 15 to 20)
#    0.000    2.400    1.000    2.400    0.000    1.000 
#    1.800    0.000    0.000    4.200    0.000    1.400 
#    0.000    0.000    0.000    0.000    0.000    0.000 
#
# Total GULP energy -222853.406513 kJ/mol
# GULP energy per Si atom -5571.335163 kJ/mol
# Density = 1.733248 g / cm^3
# Si number density = 17.372024 Si / 1000 Ang^3
#
#
#
# Elastic Constant Matrix: (Units=GPa)
#
#
# Indices 1 2 3 4 5 6 
#
# 1 36.4179 31.2628 11.0989 0.0000 0.0000 0.0000
# 2 31.2628 111.1790 32.3865 0.0000 0.0000 0.0000
# 3 11.0989 32.3865 48.5139 0.0000 0.0000 0.0000
# 4 0.0000 0.0000 0.0000 14.3586 0.0000 0.0000
# 5 0.0000 0.0000 0.0000 0.0000 16.6408 0.0000
# 6 0.0000 0.0000 0.0000 0.0000 0.0000 29.1420
#
#
#
# Elastic Compliance Matrix: (Units=1/GPa)
#
#
# Indices 1 2 3 4 5 6 
#
# 1 0.036330 -0.009676 -0.001852 0.000000 0.000000 0.000000
# 2 -0.009676 0.013743 -0.006961 0.000000 0.000000 0.000000
# 3 -0.001852 -0.006961 0.025683 0.000000 0.000000 0.000000
# 4 0.000000 0.000000 0.000000 0.069645 0.000000 0.000000
# 5 0.000000 0.000000 0.000000 0.000000 0.060093 0.000000
# 6 0.000000 0.000000 0.000000 0.000000 0.000000 0.034315
#
#
# Mechanical properties :
#
#
# Convention : Reuss Voigt Hill
#
# Bulk Modulus (GPa) = 25.78759 38.40080 32.09419
# Shear Modulus (GPa) = 17.25847 20.11912 18.68879
#
# Velocity S-wave (km/s) = 3.15534 3.40683 3.28349
# Velocity P-wave (km/s) = 5.30580 6.13419 5.73497
#
# Compressibility (1/GPa) = 0.03877834
#
# Stress axis : x y z
#
# Youngs Moduli (GPa) = 27.52545 72.76378 38.93606
#
# Poissons Ratio (x) = 0.70408 0.07210
# Poissons Ratio (y) = 0.26634 0.27103
# Poissons Ratio (z) = 0.05097 0.50649
#
# Static dielectric constant tensor:
#      x y z
#    x 1.609380 0.000000 0.000000 
#    y 0.000000 1.610350 0.000000 
#    z 0.000000 0.000000 1.565150 
# 
# From -- ./inp_files/28523.got.cif
#   From: 2010.05.17/outbox.cif.g08.bks.cpg/sg71_15_cif.got.tgz:28523.got - 2010.06.03 16:22:01.
