data_PCOD9520833
_publ_section_title
;
Structure prediction by ZEFSAII (Michael W. Deem and Ramdas Pophale) SiO2 
 PCOD9520833
Probable space group: I M M M
;
_chemical_formula_sum "Si O2"
_cell_formula_units_Z 64
_cell_length_a 13.455984
_cell_length_b 15.445709
_cell_length_c 14.530359
_cell_angle_alpha 90.000000
_cell_angle_beta 90.000000
_cell_angle_gamma 90.000000
_cell_volume 3019.949321
_symmetry_space_group_name_H-M "I M M M"
_symmetry_group_IT_number 71
_symmetry_cell_setting 'orthorhombic'
loop_
_space_group_symop_operation_xyz
x,y,z
-x,-y,z
x,-y,-z
-x,y,-z
-x,-y,-z
x,y,-z
-x,y,z
x,-y,z
1/2+x,1/2+y,1/2+z
1/2-x,1/2-y,1/2+z
1/2+x,1/2-y,1/2-z
1/2-x,1/2+y,1/2-z
1/2-x,1/2-y,1/2-z
1/2+x,1/2+y,1/2-z
1/2-x,1/2+y,1/2+z
1/2+x,1/2-y,1/2+z
loop_
_atom_site_type_symbol
_atom_site_label
_atom_site_fract_x
_atom_site_fract_y
_atom_site_fract_z
Si Si1 0.500000 0.660256 0.894125
Si Si2 0.000000 0.366576 0.394552
Si Si3 0.891558 0.605245 0.108139
Si Si4 0.720285 0.101497 0.103384
Si Si5 0.304251 0.605002 0.786092
O O1 0.500000 0.763680 0.896747
O O2 0.402267 0.631432 0.839851
O O3 0.500000 0.627999 0.000000
O O4 0.107186 0.394356 0.357539
O O5 0.000000 0.400280 0.500000
O O6 0.891744 0.500000 0.113670
O O7 0.794078 0.635898 0.160430
O O8 0.000000 0.635149 0.143210
O O9 0.884646 0.626940 0.000000
O O10 0.793552 0.137297 0.180969
O O11 0.743064 0.000000 0.093944
O O12 0.722810 0.140361 0.000000
O O13 0.302065 0.500000 0.784071
#
# Coordination Sequence:
#
# PCOD9520833 Si02
#       5
#     8   8  16  16  16
#     4  11  23  37  52  75 111 153 187 213 253 318
#     4   9  19  35  55  80 109 142 176 218 272 326
#     4   8  14  25  42  67  99 131 166 215 267 305
#     4   9  18  34  57  83 107 132 173 231 283 318
#     4  10  20  32  52  79 106 140 183 221 262 316
#
# _framework density 21.192408
#
# number of rings (size 3 to 8) (size 9 to 14) (size 15 to 20)
#    0.000    2.750    0.000    2.250    1.750    4.500 
#    0.000    0.625    0.000    3.000    0.000    1.750 
#    0.000    0.000    0.000    0.000    0.000    0.000 
#
# Total GULP energy -178517.342677 kJ/mol
# GULP energy per Si atom -5578.666959 kJ/mol
# Density = 2.114417 g / cm^3
# Si number density = 21.192408 Si / 1000 Ang^3
#
#
#
# Elastic Constant Matrix: (Units=GPa)
#
#
# Indices 1 2 3 4 5 6 
#
# 1 166.7853 7.5053 107.0126 0.0000 0.0000 0.0000
# 2 7.5053 32.2600 15.7927 0.0000 0.0000 0.0000
# 3 107.0126 15.7927 144.2808 0.0000 0.0000 0.0000
# 4 0.0000 0.0000 0.0000 6.2887 0.0000 0.0000
# 5 0.0000 0.0000 0.0000 0.0000 34.9491 0.0000
# 6 0.0000 0.0000 0.0000 0.0000 0.0000 -83.6686
#
#
#
# Elastic Compliance Matrix: (Units=1/GPa)
#
#
# Indices 1 2 3 4 5 6 
#
# 1 0.011516 0.001587 -0.008715 0.000000 0.000000 0.000000
# 2 0.001587 0.032972 -0.004786 0.000000 0.000000 0.000000
# 3 -0.008715 -0.004786 0.013919 0.000000 0.000000 0.000000
# 4 0.000000 0.000000 0.000000 0.159016 0.000000 0.000000
# 5 0.000000 0.000000 0.000000 0.000000 0.028613 0.000000
# 6 0.000000 0.000000 0.000000 0.000000 0.000000 -0.011952
#
#
# Mechanical properties :
#
#
# Convention : Reuss Voigt Hill
#
# Bulk Modulus (GPa) = 28.91978 67.10525 48.01251
# Shear Modulus (GPa) = 18.55710 5.71487 12.13598
#
# Velocity S-wave (km/s) = 2.96235 1.64393 2.39562
# Velocity P-wave (km/s) = 5.03752 5.94448 5.50969
#
# Compressibility (1/GPa) = 0.03457841
#
# Stress axis : x y z
#
# Youngs Moduli (GPa) = 86.83438 30.32884 71.84475
#
# Poissons Ratio (x) = -0.04814 0.62614
# Poissons Ratio (y) = -0.13783 0.34387
# Poissons Ratio (z) = 0.75678 0.14516
#
# Static dielectric constant tensor:
#      x y z
#    x 1.757880 0.000000 0.000000 
#    y 0.000000 1.741790 0.000000 
#    z 0.000000 0.000000 1.829410 
# 
# From -- ./inp_files/32281.got.cif
#   From: 2010.05.17/outbox.cif.g08.bks.cpg/sg71_17_cif.got.tgz:32281.got - 2010.06.03 16:22:01.
