data_PCOD9520226
_publ_section_title
;
Structure prediction by ZEFSAII (Michael W. Deem and Ramdas Pophale) SiO2 
 PCOD9520226
Probable space group: I M M M
;
_chemical_formula_sum "Si O2"
_cell_formula_units_Z 96
_cell_length_a 25.146334
_cell_length_b 8.802347
_cell_length_c 22.869248
_cell_angle_alpha 90.000000
_cell_angle_beta 90.000000
_cell_angle_gamma 90.000000
_cell_volume 5062.033895
_symmetry_space_group_name_H-M "I M M M"
_symmetry_group_IT_number 71
_symmetry_cell_setting 'orthorhombic'
loop_
_space_group_symop_operation_xyz
x,y,z
-x,-y,z
x,-y,-z
-x,y,-z
-x,-y,-z
x,y,-z
-x,y,z
x,-y,z
1/2+x,1/2+y,1/2+z
1/2-x,1/2-y,1/2+z
1/2+x,1/2-y,1/2-z
1/2-x,1/2+y,1/2-z
1/2-x,1/2-y,1/2-z
1/2+x,1/2+y,1/2-z
1/2-x,1/2+y,1/2+z
1/2+x,1/2-y,1/2+z
loop_
_atom_site_type_symbol
_atom_site_label
_atom_site_fract_x
_atom_site_fract_y
_atom_site_fract_z
Si Si1 0.000000 0.684330 0.657862
Si Si2 0.700455 0.177685 0.099383
Si Si3 0.384834 0.318080 0.669344
Si Si4 0.500000 0.316605 0.711853
Si Si5 0.186354 0.318388 0.932651
Si Si6 0.306976 0.823266 0.762518
Si Si7 0.086207 0.685128 0.563731
O O1 0.000000 0.750876 0.722579
O O2 0.050685 0.732479 0.618653
O O3 0.000000 0.500000 0.662001
O O4 0.754484 0.264600 0.085315
O O5 0.686409 0.184742 0.167994
O O6 0.647322 0.234978 0.068137
O O7 0.709036 0.000000 0.084153
O O8 0.382173 0.500000 0.666444
O O9 0.446011 0.270814 0.678604
O O10 0.355774 0.251348 0.612502
O O11 0.351602 0.261772 0.725529
O O12 0.500000 0.500000 0.715975
O O13 0.183951 0.500000 0.928903
O O14 0.176647 0.272577 0.000000
O O15 0.250000 0.750000 0.750000
O O16 0.306896 0.000000 0.744918
O O17 0.064484 0.728783 0.500000
O O18 0.086690 0.500000 0.565712
#
# Coordination Sequence:
#
# PCOD9520226 Si02
#       7
#     8  16  16   8  16  16  16
#     4  10  19  34  58  85 111 148 195 241 289 340
#     4  10  20  34  55  83 116 156 197 235 285 346
#     4  11  23  41  63  87 116 154 195 239 291 350
#     4  10  24  43  62  86 116 149 189 238 295 350
#     4  11  24  40  59  85 116 149 188 238 295 354
#     4  11  21  34  56  89 123 155 193 240 291 344
#     4   9  17  30  51  81 115 151 195 243 282 325
#
# _framework density 18.964708999999999
#
# number of rings (size 3 to 8) (size 9 to 14) (size 15 to 20)
#    0.000    1.667    1.667    3.250    0.000    6.333 
#    0.000    1.250    0.000    4.500    0.000    0.000 
#    0.000    0.000    0.000    0.000    0.000    0.000 
#
# Total GULP energy -268116.913418 kJ/mol
# GULP energy per Si atom -5585.769030 kJ/mol
# Density = 1.892154 g / cm^3
# Si number density = 18.964709 Si / 1000 Ang^3
#
#
#
# Elastic Constant Matrix: (Units=GPa)
#
#
# Indices 1 2 3 4 5 6 
#
# 1 173.5357 40.8545 78.0768 0.0000 0.0000 0.0000
# 2 40.8545 41.5708 37.3849 0.0000 0.0000 0.0000
# 3 78.0768 37.3849 118.3472 0.0000 0.0000 0.0000
# 4 0.0000 0.0000 0.0000 22.5631 0.0000 0.0000
# 5 0.0000 0.0000 0.0000 0.0000 15.4397 0.0000
# 6 0.0000 0.0000 0.0000 0.0000 0.0000 16.7276
#
#
#
# Elastic Compliance Matrix: (Units=1/GPa)
#
#
# Indices 1 2 3 4 5 6 
#
# 1 0.008833 -0.004805 -0.004309 0.000000 0.000000 0.000000
# 2 -0.004805 0.036215 -0.008270 0.000000 0.000000 0.000000
# 3 -0.004309 -0.008270 0.013905 0.000000 0.000000 0.000000
# 4 0.000000 0.000000 0.000000 0.044320 0.000000 0.000000
# 5 0.000000 0.000000 0.000000 0.000000 0.064768 0.000000
# 6 0.000000 0.000000 0.000000 0.000000 0.000000 0.059782
#
#
# Mechanical properties :
#
#
# Convention : Reuss Voigt Hill
#
# Bulk Modulus (GPa) = 41.34961 71.78734 56.56848
# Shear Modulus (GPa) = 18.47391 22.75523 20.61457
#
# Velocity S-wave (km/s) = 3.12448 3.46768 3.30054
# Velocity P-wave (km/s) = 5.90485 7.34631 6.66467
#
# Compressibility (1/GPa) = 0.02418402
#
# Stress axis : x y z
#
# Youngs Moduli (GPa) = 113.21823 27.61295 71.91658
#
# Poissons Ratio (x) = 0.13268 0.30990
# Poissons Ratio (y) = 0.54402 0.59475
# Poissons Ratio (z) = 0.48788 0.22836
#
# Static dielectric constant tensor:
#      x y z
#    x 1.655580 0.000000 0.000000 
#    y 0.000000 1.646690 0.000000 
#    z 0.000000 0.000000 1.700700 
# 
# From -- ./inp_files/61556.got.cif
#   From: 2010.05.17/outbox.cif.g08.bks.cpg/sg71_31_cif.got.tgz:61556.got - 2010.06.03 16:22:01.
