data_PCOD9520311
_publ_section_title
;
Structure prediction by ZEFSAII (Michael W. Deem and Ramdas Pophale) SiO2 
 PCOD9520311
Probable space group: I M M M
;
_chemical_formula_sum "Si O2"
_cell_formula_units_Z 120
_cell_length_a 9.233741
_cell_length_b 25.737853
_cell_length_c 28.102204
_cell_angle_alpha 90.000000
_cell_angle_beta 90.000000
_cell_angle_gamma 90.000000
_cell_volume 6678.676180
_symmetry_space_group_name_H-M "I M M M"
_symmetry_group_IT_number 71
_symmetry_cell_setting 'orthorhombic'
loop_
_space_group_symop_operation_xyz
x,y,z
-x,-y,z
x,-y,-z
-x,y,-z
-x,-y,-z
x,y,-z
-x,y,z
x,-y,z
1/2+x,1/2+y,1/2+z
1/2-x,1/2-y,1/2+z
1/2+x,1/2-y,1/2-z
1/2-x,1/2+y,1/2-z
1/2-x,1/2-y,1/2-z
1/2+x,1/2+y,1/2-z
1/2-x,1/2+y,1/2+z
1/2+x,1/2-y,1/2+z
loop_
_atom_site_type_symbol
_atom_site_label
_atom_site_fract_x
_atom_site_fract_y
_atom_site_fract_z
Si Si1 0.672239 0.561945 0.000000
Si Si2 0.672509 0.128109 0.580245
Si Si3 0.669855 0.563263 0.552071
Si Si4 0.672196 0.750704 0.446778
Si Si5 0.325943 0.142866 0.224850
Si Si6 0.669270 0.347435 0.175081
Si Si7 0.172369 0.439997 0.353937
Si Si8 0.331702 0.226268 0.853067
O O1 0.747457 0.588549 0.954612
O O2 0.693064 0.500000 0.000000
O O3 0.500000 0.572654 0.000000
O O4 0.500000 0.119157 0.581103
O O5 0.695357 0.187206 0.561018
O O6 0.741833 0.125809 0.632575
O O7 0.722712 0.581224 0.500000
O O8 0.500000 0.575820 0.555641
O O9 0.681644 0.500000 0.551921
O O10 0.752726 0.581895 0.598635
O O11 0.723076 0.736735 0.500000
O O12 0.500000 0.741843 0.444564
O O13 0.747263 0.722317 0.402661
O O14 0.500000 0.146672 0.233268
O O15 0.241766 0.142837 0.274127
O O16 0.295472 0.092223 0.193167
O O17 0.280823 0.190137 0.190143
O O18 0.500000 0.362240 0.174347
O O19 0.677503 0.285801 0.164022
O O20 0.216040 0.500000 0.348147
O O21 0.000000 0.438117 0.361375
O O22 0.500000 0.213117 0.861579
#
# Coordination Sequence:
#
# PCOD9520311 Si02
#       8
#     8  16  16  16  16  16  16  16
#     4  11  23  37  55  83 119 151 181 225 272 311
#     4  10  19  35  57  80 106 140 181 218 260 315
#     4   8  14  26  45  68  92 118 152 196 243 289
#     4   9  17  31  51  77 106 136 173 215 258 313
#     4  10  20  35  52  72 102 136 171 215 263 314
#     4  10  20  34  54  80 104 130 171 217 265 320
#     4   9  18  32  50  71  94 125 167 209 248 296
#     4   9  19  33  50  75 103 133 170 212 263 318
#
# _framework density 17.967631999999998
#
# number of rings (size 3 to 8) (size 9 to 14) (size 15 to 20)
#    0.000    2.600    0.667    1.800    0.000    3.200 
#    0.000    2.667    0.000    6.400    0.000    0.000 
#    0.000    0.000    0.000    0.000    0.000    0.000 
#
# Total GULP energy -334673.052839 kJ/mol
# GULP energy per Si atom -5577.884214 kJ/mol
# Density = 1.792674 g / cm^3
# Si number density = 17.967632 Si / 1000 Ang^3
#
#
#
# Elastic Constant Matrix: (Units=GPa)
#
#
# Indices 1 2 3 4 5 6 
#
# 1 71.0433 38.7519 83.0187 0.0000 0.0000 0.0000
# 2 38.7519 43.0601 43.7016 0.0000 0.0000 0.0000
# 3 83.0187 43.7016 197.9170 0.0000 0.0000 0.0000
# 4 0.0000 0.0000 0.0000 2.0917 0.0000 0.0000
# 5 0.0000 0.0000 0.0000 0.0000 40.7129 0.0000
# 6 0.0000 0.0000 0.0000 0.0000 0.0000 14.9353
#
#
#
# Elastic Compliance Matrix: (Units=1/GPa)
#
#
# Indices 1 2 3 4 5 6 
#
# 1 0.042125 -0.025747 -0.011985 0.000000 0.000000 0.000000
# 2 -0.025747 0.045668 0.000716 0.000000 0.000000 0.000000
# 3 -0.011985 0.000716 0.009922 0.000000 0.000000 0.000000
# 4 0.000000 0.000000 0.000000 0.478091 0.000000 0.000000
# 5 0.000000 0.000000 0.000000 0.000000 0.024562 0.000000
# 6 0.000000 0.000000 0.000000 0.000000 0.000000 0.066955
#
#
# Mechanical properties :
#
#
# Convention : Reuss Voigt Hill
#
# Bulk Modulus (GPa) = 42.22442 71.44052 56.83247
# Shear Modulus (GPa) = 6.67335 21.31786 13.99561
#
# Velocity S-wave (km/s) = 1.92929 3.44824 2.79397
# Velocity P-wave (km/s) = 5.33987 7.46330 6.48903
#
# Compressibility (1/GPa) = 0.02368298
#
# Stress axis : x y z
#
# Youngs Moduli (GPa) = 23.73875 21.89727 100.79011
#
# Poissons Ratio (x) = 0.56380 1.20794
# Poissons Ratio (y) = 0.61121 -0.07219
# Poissons Ratio (z) = 0.28450 -0.01568
#
# Static dielectric constant tensor:
#      x y z
#    x 1.599570 0.000000 0.000000 
#    y 0.000000 1.629730 0.000000 
#    z 0.000000 0.000000 1.598550 
# 
# From -- ./inp_files/63830.got.cif
#   From: 2010.05.17/outbox.cif.g08.bks.cpg/sg71_32_cif.got.tgz:63830.got - 2010.06.03 16:22:01.
