data_PCOD9520206
_publ_section_title
;
Structure prediction by ZEFSAII (Michael W. Deem and Ramdas Pophale) SiO2 
 PCOD9520206
Probable space group: I M M M
;
_chemical_formula_sum "Si O2"
_cell_formula_units_Z 104
_cell_length_a 23.783370
_cell_length_b 8.852404
_cell_length_c 26.995196
_cell_angle_alpha 90.000000
_cell_angle_beta 90.000000
_cell_angle_gamma 90.000000
_cell_volume 5683.568558
_symmetry_space_group_name_H-M "I M M M"
_symmetry_group_IT_number 71
_symmetry_cell_setting 'orthorhombic'
loop_
_space_group_symop_operation_xyz
x,y,z
-x,-y,z
x,-y,-z
-x,y,-z
-x,-y,-z
x,y,-z
-x,y,z
x,-y,z
1/2+x,1/2+y,1/2+z
1/2-x,1/2-y,1/2+z
1/2+x,1/2-y,1/2-z
1/2-x,1/2+y,1/2-z
1/2-x,1/2-y,1/2-z
1/2+x,1/2+y,1/2-z
1/2-x,1/2+y,1/2+z
1/2+x,1/2-y,1/2+z
loop_
_atom_site_type_symbol
_atom_site_label
_atom_site_fract_x
_atom_site_fract_y
_atom_site_fract_z
Si Si1 0.862289 0.317822 0.406618
Si Si2 0.237245 0.817587 0.942058
Si Si3 0.935979 0.818300 0.206791
Si Si4 0.566996 0.333564 0.443450
Si Si5 0.563378 0.681782 0.822905
Si Si6 0.063731 0.684142 0.500000
Si Si7 0.858511 0.673412 0.126315
O O1 0.863432 0.500000 0.403578
O O2 0.799222 0.274719 0.422348
O O3 0.888228 0.251520 0.356608
O O4 0.903113 0.268670 0.451171
O O5 0.192403 0.753425 0.902934
O O6 0.233507 0.000000 0.942253
O O7 0.229685 0.769260 0.000000
O O8 0.930631 0.779332 0.264844
O O9 0.885377 0.748854 0.175106
O O10 0.000000 0.772875 0.190614
O O11 0.934049 0.000000 0.202478
O O12 0.586772 0.326709 0.500000
O O13 0.500000 0.332044 0.443475
O O14 0.584511 0.500000 0.423284
O O15 0.591008 0.197653 0.412586
O O16 0.500000 0.730421 0.838697
O O17 0.565335 0.500000 0.826490
O O18 0.063437 0.500000 0.500000
O O19 0.000000 0.737620 0.500000
O O20 0.844978 0.500000 0.135428
#
# Coordination Sequence:
#
# PCOD9520206 Si02
#       7
#    16  16  16  16  16   8  16
#     4  10  19  34  57  85 112 144 186 228 270 317
#     4  10  21  39  59  77 105 149 197 233 265 320
#     4   9  19  38  61  81 106 145 188 226 270 330
#     4   9  18  33  52  73  99 135 177 218 267 332
#     4   9  19  36  58  85 116 147 178 217 272 335
#     4   9  16  28  51  85 119 143 170 215 268 321
#     4  12  24  34  50  79 109 138 180 232 285 331
#
# _framework density 18.298362999999998
#
# number of rings (size 3 to 8) (size 9 to 14) (size 15 to 20)
#    0.000    2.231    0.769    4.154    0.000    7.077 
#    0.000    3.462    0.000    1.385    0.000    0.000 
#    0.000    0.000    0.000    0.000    0.000    0.000 
#
# Total GULP energy -289954.391661 kJ/mol
# GULP energy per Si atom -5576.045993 kJ/mol
# Density = 1.825672 g / cm^3
# Si number density = 18.298363 Si / 1000 Ang^3
#
#
#
# Elastic Constant Matrix: (Units=GPa)
#
#
# Indices 1 2 3 4 5 6 
#
# 1 134.4386 34.1034 72.5313 0.0000 0.0000 0.0000
# 2 34.1034 29.5927 29.4204 0.0000 0.0000 0.0000
# 3 72.5313 29.4204 108.8496 0.0000 0.0000 0.0000
# 4 0.0000 0.0000 0.0000 19.9357 0.0000 0.0000
# 5 0.0000 0.0000 0.0000 0.0000 34.0117 0.0000
# 6 0.0000 0.0000 0.0000 0.0000 0.0000 19.2520
#
#
#
# Elastic Compliance Matrix: (Units=1/GPa)
#
#
# Indices 1 2 3 4 5 6 
#
# 1 0.013090 -0.008770 -0.006352 0.000000 0.000000 0.000000
# 2 -0.008770 0.052085 -0.008234 0.000000 0.000000 0.000000
# 3 -0.006352 -0.008234 0.015645 0.000000 0.000000 0.000000
# 4 0.000000 0.000000 0.000000 0.050161 0.000000 0.000000
# 5 0.000000 0.000000 0.000000 0.000000 0.029402 0.000000
# 6 0.000000 0.000000 0.000000 0.000000 0.000000 0.051943
#
#
# Mechanical properties :
#
#
# Convention : Reuss Voigt Hill
#
# Bulk Modulus (GPa) = 29.31856 60.55456 44.93656
# Shear Modulus (GPa) = 18.49060 23.76161 21.12610
#
# Velocity S-wave (km/s) = 3.18229 3.60747 3.40153
# Velocity P-wave (km/s) = 5.43691 7.10750 6.32758
#
# Compressibility (1/GPa) = 0.03410809
#
# Stress axis : x y z
#
# Youngs Moduli (GPa) = 76.39332 19.19932 63.91779
#
# Poissons Ratio (x) = 0.16839 0.40601
# Poissons Ratio (y) = 0.67000 0.52628
# Poissons Ratio (z) = 0.48525 0.15808
#
# Static dielectric constant tensor:
#      x y z
#    x 1.641170 0.000000 0.000000 
#    y 0.000000 1.635080 0.000000 
#    z 0.000000 0.000000 1.634950 
# 
# From -- ./inp_files/66790.got.cif
#   From: 2010.05.17/outbox.cif.g08.bks.cpg/sg71_34_cif.got.tgz:66790.got - 2010.06.03 16:22:01.
