data_PCOD9520789
_publ_section_title
;
Structure prediction by ZEFSAII (Michael W. Deem and Ramdas Pophale) SiO2 
 PCOD9520789
Probable space group: I M M M
;
_chemical_formula_sum "Si O2"
_cell_formula_units_Z 104
_cell_length_a 9.808461
_cell_length_b 16.239232
_cell_length_c 33.831948
_cell_angle_alpha 90.000000
_cell_angle_beta 90.000000
_cell_angle_gamma 90.000000
_cell_volume 5388.816070
_symmetry_space_group_name_H-M "I M M M"
_symmetry_group_IT_number 71
_symmetry_cell_setting 'orthorhombic'
loop_
_space_group_symop_operation_xyz
x,y,z
-x,-y,z
x,-y,-z
-x,y,-z
-x,-y,-z
x,y,-z
-x,y,z
x,-y,z
1/2+x,1/2+y,1/2+z
1/2-x,1/2-y,1/2+z
1/2+x,1/2-y,1/2-z
1/2-x,1/2+y,1/2-z
1/2-x,1/2-y,1/2-z
1/2+x,1/2+y,1/2-z
1/2-x,1/2+y,1/2+z
1/2+x,1/2-y,1/2+z
loop_
_atom_site_type_symbol
_atom_site_label
_atom_site_fract_x
_atom_site_fract_y
_atom_site_fract_z
Si Si1 0.343069 0.405183 0.767189
Si Si2 0.843940 0.646404 0.838015
Si Si3 0.844439 0.100562 0.045024
Si Si4 0.342228 0.099738 0.426410
Si Si5 0.842445 0.899277 0.500000
Si Si6 0.656925 0.337970 0.684051
Si Si7 0.154340 0.401342 0.384424
O O1 0.500000 0.384863 0.777105
O O2 0.337758 0.500000 0.753859
O O3 0.250938 0.394885 0.805497
O O4 0.301301 0.350788 0.729555
O O5 0.800852 0.631179 0.883128
O O6 0.842902 0.742845 0.828012
O O7 0.000000 0.615820 0.834805
O O8 0.738604 0.130471 0.077681
O O9 0.000000 0.125602 0.054593
O O10 0.843234 0.000000 0.045455
O O11 0.813000 0.125599 0.000000
O O12 0.500000 0.124700 0.434039
O O13 0.241566 0.126919 0.461185
O O14 0.340293 0.000000 0.425337
O O15 0.000000 0.872741 0.500000
O O16 0.842478 0.000000 0.500000
O O17 0.500000 0.368939 0.680319
O O18 0.759085 0.382588 0.654520
O O19 0.146579 0.500000 0.388602
O O20 0.000000 0.369017 0.382406
#
# Coordination Sequence:
#
# PCOD9520789 Si02
#       7
#    16  16  16  16   8  16  16
#     4  10  21  36  55  80 108 140 178 221 271 322
#     4  10  21  36  56  81 108 141 181 222 266 318
#     4   8  14  26  46  71  97 127 165 210 261 315
#     4   9  17  31  52  78 108 140 174 216 265 312
#     4   9  17  29  49  79 109 137 174 217 260 309
#     4  10  21  37  55  75 105 143 182 219 262 319
#     4  10  20  32  49  75 103 133 173 221 271 319
#
# _framework density 19.299229
#
# number of rings (size 3 to 8) (size 9 to 14) (size 15 to 20)
#    0.000    2.538    0.000    2.538    0.000    5.538 
#    0.000    3.077    1.692    0.000    0.000    0.000 
#    0.000    0.000    0.000    0.000    0.000    0.000 
#
# Total GULP energy -290173.519360 kJ/mol
# GULP energy per Si atom -5580.259988 kJ/mol
# Density = 1.925530 g / cm^3
# Si number density = 19.299229 Si / 1000 Ang^3
#
#
#
# Elastic Constant Matrix: (Units=GPa)
#
#
# Indices 1 2 3 4 5 6 
#
# 1 109.6881 16.2735 104.9945 0.0000 0.0000 0.0000
# 2 16.2735 15.6397 22.3748 0.0000 0.0000 0.0000
# 3 104.9945 22.3748 179.2762 0.0000 0.0000 0.0000
# 4 0.0000 0.0000 0.0000 -52.7203 0.0000 0.0000
# 5 0.0000 0.0000 0.0000 0.0000 27.9562 0.0000
# 6 0.0000 0.0000 0.0000 0.0000 0.0000 15.5395
#
#
#
# Elastic Compliance Matrix: (Units=1/GPa)
#
#
# Indices 1 2 3 4 5 6 
#
# 1 0.021090 -0.005203 -0.011702 0.000000 0.000000 0.000000
# 2 -0.005203 0.079122 -0.006828 0.000000 0.000000 0.000000
# 3 -0.011702 -0.006828 0.013284 0.000000 0.000000 0.000000
# 4 0.000000 0.000000 0.000000 -0.018968 0.000000 0.000000
# 5 0.000000 0.000000 0.000000 0.000000 0.035770 0.000000
# 6 0.000000 0.000000 0.000000 0.000000 0.000000 0.064352
#
#
# Mechanical properties :
#
#
# Convention : Reuss Voigt Hill
#
# Bulk Modulus (GPa) = 15.14470 65.76552 40.45511
# Shear Modulus (GPa) = 18.93033 8.88582 13.90808
#
# Velocity S-wave (km/s) = 3.13531 2.14808 2.68741
# Velocity P-wave (km/s) = 4.57943 6.34847 5.53508
#
# Compressibility (1/GPa) = 0.06602968
#
# Stress axis : x y z
#
# Youngs Moduli (GPa) = 47.41525 12.63871 75.28046
#
# Poissons Ratio (x) = 0.06576 0.88095
# Poissons Ratio (y) = 0.24671 0.51399
# Poissons Ratio (z) = 0.55487 0.08629
#
# Static dielectric constant tensor:
#      x y z
#    x 1.670110 0.000000 0.000000 
#    y 0.000000 1.690720 0.000000 
#    z 0.000000 0.000000 1.647950 
# 
# From -- ./inp_files/63338.got.cif
#   From: 2010.05.17/outbox.cif.g08.bks.cpg/sg71_32_cif.got.tgz:63338.got - 2010.06.03 16:22:01.
