data_PCOD9520654
_publ_section_title
;
Structure prediction by ZEFSAII (Michael W. Deem and Ramdas Pophale) SiO2 
 PCOD9520654
Probable space group: I M M M
;
_chemical_formula_sum "Si O2"
_cell_formula_units_Z 112
_cell_length_a 15.288079
_cell_length_b 13.589829
_cell_length_c 33.468670
_cell_angle_alpha 90.000000
_cell_angle_beta 90.000000
_cell_angle_gamma 90.000000
_cell_volume 6953.530513
_symmetry_space_group_name_H-M "I M M M"
_symmetry_group_IT_number 71
_symmetry_cell_setting 'orthorhombic'
loop_
_space_group_symop_operation_xyz
x,y,z
-x,-y,z
x,-y,-z
-x,y,-z
-x,-y,-z
x,y,-z
-x,y,z
x,-y,z
1/2+x,1/2+y,1/2+z
1/2-x,1/2-y,1/2+z
1/2+x,1/2-y,1/2-z
1/2-x,1/2+y,1/2-z
1/2-x,1/2-y,1/2-z
1/2+x,1/2+y,1/2-z
1/2-x,1/2+y,1/2+z
1/2+x,1/2-y,1/2+z
loop_
_atom_site_type_symbol
_atom_site_label
_atom_site_fract_x
_atom_site_fract_y
_atom_site_fract_z
Si Si1 0.106297 0.387120 0.264848
Si Si2 0.396710 0.770701 0.842900
Si Si3 0.400529 0.119485 0.675451
Si Si4 0.602394 0.885615 0.924733
Si Si5 0.752604 0.242067 0.546049
Si Si6 0.099689 0.888654 0.048542
Si Si7 0.763899 0.116871 0.622238
O O1 0.136981 0.500000 0.270038
O O2 0.133711 0.318598 0.301350
O O3 0.128148 0.350839 0.220274
O O4 0.000000 0.390605 0.265941
O O5 0.500000 0.746873 0.840010
O O6 0.387825 0.850487 0.878694
O O7 0.340024 0.677120 0.855557
O O8 0.500000 0.153947 0.667503
O O9 0.328119 0.145582 0.643001
O O10 0.404303 0.000000 0.676690
O O11 0.500000 0.874465 0.935192
O O12 0.664152 0.814245 0.949891
O O13 0.626122 0.000000 0.929437
O O14 0.740464 0.213033 0.500000
O O15 0.670165 0.307879 0.560242
O O16 0.763670 0.152637 0.576482
O O17 0.000000 0.866960 0.060957
O O18 0.122085 0.000000 0.061678
O O19 0.100473 0.890093 0.000000
O O20 0.775081 0.000000 0.625533
#
# Coordination Sequence:
#
# PCOD9520654 Si02
#       7
#    16  16  16  16  16  16  16
#     4   8  13  24  46  74  99 119 139 169 214 269
#     4   9  17  29  46  69  95 121 149 179 213 262
#     4   8  15  29  48  69  92 116 143 179 223 268
#     4   9  17  29  46  69  96 120 139 170 224 282
#     4  10  20  32  46  64  86 115 155 198 233 269
#     4   8  14  26  45  68  91 111 132 166 218 279
#     4  10  21  34  46  62  86 120 161 199 233 262
#
# _framework density 16.106926000000001
#
# number of rings (size 3 to 8) (size 9 to 14) (size 15 to 20)
#    0.000    3.143    0.000    2.143    0.000    4.571 
#    0.000    0.714    0.000    0.000    0.000    9.000 
#    0.000    2.286    0.000    0.000    0.000    0.000 
#
# Total GULP energy -311787.082467 kJ/mol
# GULP energy per Si atom -5567.626473 kJ/mol
# Density = 1.607027 g / cm^3
# Si number density = 16.106926 Si / 1000 Ang^3
#
#
#
# Elastic Constant Matrix: (Units=GPa)
#
#
# Indices 1 2 3 4 5 6 
#
# 1 49.8115 27.3363 29.8115 0.0000 0.0000 0.0000
# 2 27.3363 64.4132 36.1088 0.0000 0.0000 0.0000
# 3 29.8115 36.1088 83.8568 0.0000 0.0000 0.0000
# 4 0.0000 0.0000 0.0000 12.1778 0.0000 0.0000
# 5 0.0000 0.0000 0.0000 0.0000 19.4818 0.0000
# 6 0.0000 0.0000 0.0000 0.0000 0.0000 19.7980
#
#
#
# Elastic Compliance Matrix: (Units=1/GPa)
#
#
# Indices 1 2 3 4 5 6 
#
# 1 0.028644 -0.008500 -0.006523 0.000000 0.000000 0.000000
# 2 -0.008500 0.022987 -0.006876 0.000000 0.000000 0.000000
# 3 -0.006523 -0.006876 0.017205 0.000000 0.000000 0.000000
# 4 0.000000 0.000000 0.000000 0.082117 0.000000 0.000000
# 5 0.000000 0.000000 0.000000 0.000000 0.051330 0.000000
# 6 0.000000 0.000000 0.000000 0.000000 0.000000 0.050510
#
#
# Mechanical properties :
#
#
# Convention : Reuss Voigt Hill
#
# Bulk Modulus (GPa) = 39.93994 42.73275 41.33635
# Shear Modulus (GPa) = 16.39682 17.27986 16.83834
#
# Velocity S-wave (km/s) = 3.19407 3.27895 3.23679
# Velocity P-wave (km/s) = 6.20108 6.39716 6.29988
#
# Compressibility (1/GPa) = 0.02503759
#
# Stress axis : x y z
#
# Youngs Moduli (GPa) = 34.91099 43.50343 58.12204
#
# Poissons Ratio (x) = 0.36976 0.37915
# Poissons Ratio (y) = 0.29673 0.39967
# Poissons Ratio (z) = 0.22773 0.29915
#
# Static dielectric constant tensor:
#      x y z
#    x 1.546580 0.000000 0.000000 
#    y 0.000000 1.517410 0.000000 
#    z 0.000000 0.000000 1.548360 
# 
# From -- ./inp_files/65504.got.cif
#   From: 2010.05.17/outbox.cif.g08.bks.cpg/sg71_33_cif.got.tgz:65504.got - 2010.06.03 16:22:01.
