data_PCOD9520266
_publ_section_title
;
Structure prediction by ZEFSAII (Michael W. Deem and Ramdas Pophale) SiO2 
 PCOD9520266
Probable space group: I M M M
;
_chemical_formula_sum "Si O2"
_cell_formula_units_Z 96
_cell_length_a 17.966313
_cell_length_b 11.771019
_cell_length_c 27.845842
_cell_angle_alpha 90.000000
_cell_angle_beta 90.000000
_cell_angle_gamma 90.000000
_cell_volume 5888.889114
_symmetry_space_group_name_H-M "I M M M"
_symmetry_group_IT_number 71
_symmetry_cell_setting 'orthorhombic'
loop_
_space_group_symop_operation_xyz
x,y,z
-x,-y,z
x,-y,-z
-x,y,-z
-x,-y,-z
x,y,-z
-x,y,z
x,-y,z
1/2+x,1/2+y,1/2+z
1/2-x,1/2-y,1/2+z
1/2+x,1/2-y,1/2-z
1/2-x,1/2+y,1/2-z
1/2-x,1/2-y,1/2-z
1/2+x,1/2+y,1/2-z
1/2-x,1/2+y,1/2+z
1/2+x,1/2-y,1/2+z
loop_
_atom_site_type_symbol
_atom_site_label
_atom_site_fract_x
_atom_site_fract_y
_atom_site_fract_z
Si Si1 0.849946 0.260778 0.202232
Si Si2 0.586009 0.000000 0.694325
Si Si3 0.809057 0.289814 0.945440
Si Si4 0.414442 0.365457 0.610300
Si Si5 0.587083 0.000000 0.578171
Si Si6 0.217383 0.862761 0.355318
Si Si7 0.085351 0.864375 0.708194
O O1 0.879364 0.385728 0.213881
O O2 0.896914 0.204955 0.158657
O O3 0.768704 0.287701 0.180652
O O4 0.865597 0.184228 0.248138
O O5 0.500000 0.000000 0.705187
O O6 0.594285 0.000000 0.636212
O O7 0.853827 0.179039 0.927535
O O8 0.870282 0.390070 0.940911
O O9 0.744626 0.324412 0.907873
O O10 0.783522 0.280274 0.000000
O O11 0.500000 0.342268 0.595473
O O12 0.407405 0.500000 0.618986
O O13 0.500000 0.000000 0.566190
O O14 0.132260 0.842306 0.340255
O O15 0.231515 0.000000 0.350025
O O16 0.000000 0.821572 0.708880
O O17 0.082004 0.000000 0.714125
#
# Coordination Sequence:
#
# PCOD9520266 Si02
#       7
#    16   8  16  16   8  16  16
#     4  11  18  32  50  75 102 132 165 197 236 291
#     4  11  18  27  48  73 104 135 158 195 244 285
#     4  11  21  33  50  71  95 127 166 207 249 294
#     4  10  20  32  47  69 102 139 170 199 231 278
#     4  11  19  30  47  72 102 130 160 197 242 291
#     4  10  19  35  51  72 101 129 163 202 247 292
#     4  10  21  34  52  74  98 131 167 202 241 290
#
# _framework density 16.301886
#
# number of rings (size 3 to 8) (size 9 to 14) (size 15 to 20)
#    0.000    1.500    5.000    3.250    0.000    3.333 
#    0.000    0.833    1.833    0.500    0.000    2.333 
#    0.000    0.000    0.000    6.000    0.000    0.000 
#
# Total GULP energy -267618.255196 kJ/mol
# GULP energy per Si atom -5575.380317 kJ/mol
# Density = 1.626478 g / cm^3
# Si number density = 16.301886 Si / 1000 Ang^3
#
#
#
# Elastic Constant Matrix: (Units=GPa)
#
#
# Indices 1 2 3 4 5 6 
#
# 1 58.3532 14.5915 44.1216 0.0000 0.0000 0.0000
# 2 14.5915 56.1784 9.3806 0.0000 0.0000 0.0000
# 3 44.1216 9.3806 89.0849 0.0000 0.0000 0.0000
# 4 0.0000 0.0000 0.0000 7.4234 0.0000 0.0000
# 5 0.0000 0.0000 0.0000 0.0000 5.8208 0.0000
# 6 0.0000 0.0000 0.0000 0.0000 0.0000 14.5141
#
#
#
# Elastic Compliance Matrix: (Units=1/GPa)
#
#
# Indices 1 2 3 4 5 6 
#
# 1 0.028811 -0.005192 -0.013723 0.000000 0.000000 0.000000
# 2 -0.005192 0.019055 0.000565 0.000000 0.000000 0.000000
# 3 -0.013723 0.000565 0.017962 0.000000 0.000000 0.000000
# 4 0.000000 0.000000 0.000000 0.134710 0.000000 0.000000
# 5 0.000000 0.000000 0.000000 0.000000 0.171797 0.000000
# 6 0.000000 0.000000 0.000000 0.000000 0.000000 0.068898
#
#
# Mechanical properties :
#
#
# Convention : Reuss Voigt Hill
#
# Bulk Modulus (GPa) = 34.33034 37.75600 36.04317
# Shear Modulus (GPa) = 10.25341 14.58652 12.41996
#
# Velocity S-wave (km/s) = 2.51065 2.99452 2.76320
# Velocity P-wave (km/s) = 5.43225 5.93018 5.68667
#
# Compressibility (1/GPa) = 0.02912876
#
# Stress axis : x y z
#
# Youngs Moduli (GPa) = 34.70861 52.48067 55.67200
#
# Poissons Ratio (x) = 0.27247 0.76398
# Poissons Ratio (y) = 0.18020 -0.03145
# Poissons Ratio (z) = 0.47630 -0.02965
#
# Static dielectric constant tensor:
#      x y z
#    x 1.562160 0.000000 0.000000 
#    y 0.000000 1.552820 0.000000 
#    z 0.000000 0.000000 1.555290 
# 
# From -- ./inp_files/69899.got.cif
#   From: 2010.05.17/outbox.cif.g08.bks.cpg/sg71_35_cif.got.tgz:69899.got - 2010.06.03 16:22:01.
