data_PCOD9520304
_publ_section_title
;
Structure prediction by ZEFSAII (Michael W. Deem and Ramdas Pophale) SiO2 
 PCOD9520304
Probable space group: I M M M
;
_chemical_formula_sum "Si O2"
_cell_formula_units_Z 104
_cell_length_a 14.201416
_cell_length_b 17.390635
_cell_length_c 23.479744
_cell_angle_alpha 90.000000
_cell_angle_beta 90.000000
_cell_angle_gamma 90.000000
_cell_volume 5798.830933
_symmetry_space_group_name_H-M "I M M M"
_symmetry_group_IT_number 71
_symmetry_cell_setting 'orthorhombic'
loop_
_space_group_symop_operation_xyz
x,y,z
-x,-y,z
x,-y,-z
-x,y,-z
-x,-y,-z
x,y,-z
-x,y,z
x,-y,z
1/2+x,1/2+y,1/2+z
1/2-x,1/2-y,1/2+z
1/2+x,1/2-y,1/2-z
1/2-x,1/2+y,1/2-z
1/2-x,1/2-y,1/2-z
1/2+x,1/2+y,1/2-z
1/2-x,1/2+y,1/2+z
1/2+x,1/2-y,1/2+z
loop_
_atom_site_type_symbol
_atom_site_label
_atom_site_fract_x
_atom_site_fract_y
_atom_site_fract_z
Si Si1 0.793359 0.164185 0.435312
Si Si2 0.887911 0.087483 0.128550
Si Si3 0.103847 0.301167 0.770294
Si Si4 0.608889 0.754284 0.597358
Si Si5 0.890607 0.000000 0.567845
Si Si6 0.606309 0.672953 0.172880
Si Si7 0.273521 0.585610 0.253834
O O1 0.824635 0.181472 0.500000
O O2 0.683856 0.188011 0.430743
O O3 0.828305 0.076933 0.421900
O O4 0.841453 0.207125 0.382094
O O5 0.867105 0.163177 0.090585
O O6 0.829629 0.094777 0.187040
O O7 0.000000 0.092679 0.141514
O O8 0.871289 0.000000 0.105990
O O9 0.113619 0.270467 0.834613
O O10 0.107058 0.232676 0.724961
O O11 0.189006 0.355890 0.754698
O O12 0.000000 0.337809 0.766133
O O13 0.500000 0.766179 0.579481
O O14 0.902278 0.000000 0.500000
O O15 0.000000 0.000000 0.590408
O O16 0.500000 0.656213 0.156470
O O17 0.656375 0.600112 0.201307
O O18 0.235454 0.500000 0.252089
#
# Coordination Sequence:
#
# PCOD9520304 Si02
#       7
#    16  16  16  16   8  16  16
#     4  11  23  37  54  76 105 143 185 224 265 313
#     4   9  17  30  51  82 114 139 168 212 271 331
#     4  10  20  35  52  73 103 140 176 214 264 316
#     4  10  19  35  57  77 105 142 180 224 267 318
#     4   9  20  40  59  75 105 143 180 228 274 305
#     4  11  21  33  53  77 104 136 172 214 263 317
#     4  11  20  30  49  77 109 140 173 213 259 317
#
# _framework density 17.934649
#
# number of rings (size 3 to 8) (size 9 to 14) (size 15 to 20)
#    0.000    1.769    3.077    2.308    1.077    2.462 
#    0.000    0.385    0.000    1.846    0.000    2.154 
#    0.000    0.000    0.000   20.769    0.000    0.000 
#
# Total GULP energy -289649.706266 kJ/mol
# GULP energy per Si atom -5570.186659 kJ/mol
# Density = 1.789383 g / cm^3
# Si number density = 17.934649 Si / 1000 Ang^3
#
#
#
# Elastic Constant Matrix: (Units=GPa)
#
#
# Indices 1 2 3 4 5 6 
#
# 1 86.9490 46.6573 5.9474 0.0000 0.0000 0.0000
# 2 46.6573 82.0190 -3.2446 0.0000 0.0000 0.0000
# 3 5.9474 -3.2446 46.8028 0.0000 0.0000 0.0000
# 4 0.0000 0.0000 0.0000 16.2341 0.0000 0.0000
# 5 0.0000 0.0000 0.0000 0.0000 19.5842 0.0000
# 6 0.0000 0.0000 0.0000 0.0000 0.0000 12.0383
#
#
#
# Elastic Compliance Matrix: (Units=1/GPa)
#
#
# Indices 1 2 3 4 5 6 
#
# 1 0.016919 -0.009736 -0.002825 0.000000 0.000000 0.000000
# 2 -0.009736 0.017829 0.002473 0.000000 0.000000 0.000000
# 3 -0.002825 0.002473 0.021897 0.000000 0.000000 0.000000
# 4 0.000000 0.000000 0.000000 0.061599 0.000000 0.000000
# 5 0.000000 0.000000 0.000000 0.000000 0.051062 0.000000
# 6 0.000000 0.000000 0.000000 0.000000 0.000000 0.083069
#
#
# Mechanical properties :
#
#
# Convention : Reuss Voigt Hill
#
# Bulk Modulus (GPa) = 27.42101 34.94343 31.18222
# Shear Modulus (GPa) = 17.56206 20.66535 19.11371
#
# Velocity S-wave (km/s) = 3.13265 3.39818 3.26811
# Velocity P-wave (km/s) = 5.32985 5.90956 5.62717
#
# Compressibility (1/GPa) = 0.03646838
#
# Stress axis : x y z
#
# Youngs Moduli (GPa) = 59.10635 56.08967 45.66901
#
# Poissons Ratio (x) = 0.54609 0.12901
# Poissons Ratio (y) = 0.57546 -0.11295
# Poissons Ratio (z) = 0.16697 -0.13872
#
# Static dielectric constant tensor:
#      x y z
#    x 1.637570 0.000000 0.000000 
#    y 0.000000 1.653700 0.000000 
#    z 0.000000 0.000000 1.634600 
# 
# From -- ./inp_files/60074.got.cif
#   From: 2010.05.17/outbox.cif.g08.bks.cpg/sg71_31_cif.got.tgz:60074.got - 2010.06.03 16:22:01.
