data_PCOD9520203
_publ_section_title
;
Structure prediction by ZEFSAII (Michael W. Deem and Ramdas Pophale) SiO2 
 PCOD9520203
Probable space group: I M M M
;
_chemical_formula_sum "Si O2"
_cell_formula_units_Z 88
_cell_length_a 8.422907
_cell_length_b 18.230949
_cell_length_c 28.168028
_cell_angle_alpha 90.000000
_cell_angle_beta 90.000000
_cell_angle_gamma 90.000000
_cell_volume 4325.414437
_symmetry_space_group_name_H-M "I M M M"
_symmetry_group_IT_number 71
_symmetry_cell_setting 'orthorhombic'
loop_
_space_group_symop_operation_xyz
x,y,z
-x,-y,z
x,-y,-z
-x,y,-z
-x,-y,-z
x,y,-z
-x,y,z
x,-y,z
1/2+x,1/2+y,1/2+z
1/2-x,1/2-y,1/2+z
1/2+x,1/2-y,1/2-z
1/2-x,1/2+y,1/2-z
1/2-x,1/2-y,1/2-z
1/2+x,1/2+y,1/2-z
1/2-x,1/2+y,1/2+z
1/2+x,1/2-y,1/2+z
loop_
_atom_site_type_symbol
_atom_site_label
_atom_site_fract_x
_atom_site_fract_y
_atom_site_fract_z
Si Si1 0.192209 0.820737 0.409934
Si Si2 0.188869 0.328263 0.268285
Si Si3 0.691548 0.917641 0.142310
Si Si4 0.806632 0.082999 0.500000
Si Si5 0.310422 0.335410 0.445442
Si Si6 0.807998 0.915727 0.319801
O O1 0.240893 0.873553 0.453119
O O2 0.258604 0.741177 0.421650
O O3 0.241825 0.859145 0.361014
O O4 0.000000 0.815626 0.409293
O O5 0.250000 0.250000 0.250000
O O6 0.249161 0.357632 0.319221
O O7 0.235667 0.388709 0.229377
O O8 0.000000 0.322166 0.271673
O O9 0.500000 0.916021 0.143307
O O10 0.746284 0.897466 0.089629
O O11 0.742926 0.000000 0.155560
O O12 0.000000 0.081053 0.500000
O O13 0.748964 0.000000 0.500000
O O14 0.251540 0.338892 0.500000
O O15 0.500000 0.339044 0.446630
O O16 0.000000 0.912504 0.316781
O O17 0.765090 0.000000 0.330954
#
# Coordination Sequence:
#
# PCOD9520203 Si02
#       6
#    16  16  16   8  16  16
#     4  10  19  34  57  84 114 154 201 243 284 338
#     4  11  23  40  62  89 120 155 196 240 290 348
#     4  10  23  43  65  88 115 150 196 246 291 343
#     4   9  16  28  51  81 110 145 194 247 289 326
#     4  11  24  40  59  86 120 154 190 238 297 357
#     4  10  21  36  56  86 122 156 194 242 292 344
#
# _framework density 20.344871000000001
#
# number of rings (size 3 to 8) (size 9 to 14) (size 15 to 20)
#    0.000    1.727    0.909    3.273    0.000   11.636 
#    0.000    1.818    0.000    2.182    0.000    0.000 
#    0.000    0.000    0.000    0.000    0.000    0.000 
#
# Total GULP energy -245852.265456 kJ/mol
# GULP energy per Si atom -5587.551488 kJ/mol
# Density = 2.029856 g / cm^3
# Si number density = 20.344871 Si / 1000 Ang^3
#
#
#
# Elastic Constant Matrix: (Units=GPa)
#
#
# Indices 1 2 3 4 5 6 
#
# 1 13.9192 21.3367 16.9800 0.0000 0.0000 0.0000
# 2 21.3367 105.2045 44.7383 0.0000 0.0000 0.0000
# 3 16.9800 44.7383 131.5466 0.0000 0.0000 0.0000
# 4 0.0000 0.0000 0.0000 40.6767 0.0000 0.0000
# 5 0.0000 0.0000 0.0000 0.0000 25.5189 0.0000
# 6 0.0000 0.0000 0.0000 0.0000 0.0000 19.2333
#
#
#
# Elastic Compliance Matrix: (Units=1/GPa)
#
#
# Indices 1 2 3 4 5 6 
#
# 1 0.110665 -0.019137 -0.007776 0.000000 0.000000 0.000000
# 2 -0.019137 0.014422 -0.002435 0.000000 0.000000 0.000000
# 3 -0.007776 -0.002435 0.009434 0.000000 0.000000 0.000000
# 4 0.000000 0.000000 0.000000 0.024584 0.000000 0.000000
# 5 0.000000 0.000000 0.000000 0.000000 0.039187 0.000000
# 6 0.000000 0.000000 0.000000 0.000000 0.000000 0.051993
#
#
# Mechanical properties :
#
#
# Convention : Reuss Voigt Hill
#
# Bulk Modulus (GPa) = 13.18840 46.30892 29.74866
# Shear Modulus (GPa) = 14.95867 28.26014 21.60941
#
# Velocity S-wave (km/s) = 2.71450 3.73105 3.26261
# Velocity P-wave (km/s) = 4.03995 6.43213 5.37092
#
# Compressibility (1/GPa) = 0.07582422
#
# Stress axis : x y z
#
# Youngs Moduli (GPa) = 9.03632 69.33921 106.00436
#
# Poissons Ratio (x) = 1.32696 0.82429
# Poissons Ratio (y) = 0.17293 0.25808
# Poissons Ratio (z) = 0.07027 0.16881
#
# Static dielectric constant tensor:
#      x y z
#    x 1.708650 0.000000 0.000000 
#    y 0.000000 1.713060 0.000000 
#    z 0.000000 0.000000 1.745170 
# 
# From -- ./inp_files/67997.got.cif
#   From: 2010.05.17/outbox.cif.g08.bks.cpg/sg71_34_cif.got.tgz:67997.got - 2010.06.03 16:22:01.
