data_PCOD9520395
_publ_section_title
;
Structure prediction by ZEFSAII (Michael W. Deem and Ramdas Pophale) SiO2 
 PCOD9520395
Probable space group: I M M M
;
_chemical_formula_sum "Si O2"
_cell_formula_units_Z 72
_cell_length_a 27.370963
_cell_length_b 18.245464
_cell_length_c 7.663007
_cell_angle_alpha 90.000000
_cell_angle_beta 90.000000
_cell_angle_gamma 90.000000
_cell_volume 3826.874431
_symmetry_space_group_name_H-M "I M M M"
_symmetry_group_IT_number 71
_symmetry_cell_setting 'orthorhombic'
loop_
_space_group_symop_operation_xyz
x,y,z
-x,-y,z
x,-y,-z
-x,y,-z
-x,-y,-z
x,y,-z
-x,y,z
x,-y,z
1/2+x,1/2+y,1/2+z
1/2-x,1/2-y,1/2+z
1/2+x,1/2-y,1/2-z
1/2-x,1/2+y,1/2-z
1/2-x,1/2-y,1/2-z
1/2+x,1/2+y,1/2-z
1/2-x,1/2+y,1/2+z
1/2+x,1/2-y,1/2+z
loop_
_atom_site_type_symbol
_atom_site_label
_atom_site_fract_x
_atom_site_fract_y
_atom_site_fract_z
Si Si1 0.805760 0.732883 0.708923
Si Si2 0.402744 0.690502 0.701437
Si Si3 0.153979 0.579652 0.704883
Si Si4 0.058618 0.913306 0.500000
Si Si5 0.054781 0.650362 0.210714
O O1 0.812900 0.733603 0.500000
O O2 0.750000 0.750000 0.750000
O O3 0.845337 0.789561 0.784297
O O4 0.819602 0.651714 0.777904
O O5 0.415155 0.674892 0.500000
O O6 0.418815 0.626925 0.831350
O O7 0.429842 0.766295 0.756002
O O8 0.166380 0.577059 0.500000
O O9 0.165401 0.500000 0.781663
O O10 0.096447 0.596743 0.720817
O O11 0.000000 0.903209 0.500000
O O12 0.068809 0.000000 0.500000
O O13 0.000000 0.634620 0.270616
O O14 0.055863 0.646200 0.000000
#
# Coordination Sequence:
#
# PCOD9520395 Si02
#       5
#    16  16  16   8  16
#     4  10  19  35  60  86 112 149 197 244 294 354
#     4  10  20  38  60  85 118 154 194 247 298 352
#     4   9  19  34  50  73 107 143 179 224 276 330
#     4  11  24  40  60  88 121 159 203 251 309 370
#     4   9  18  31  50  77 106 143 187 223 266 328
#
# _framework density 18.814309999999999
#
# number of rings (size 3 to 8) (size 9 to 14) (size 15 to 20)
#    0.000    2.333    1.111    1.333    1.556    4.000 
#    0.000    4.444    0.000    2.667    0.000    0.000 
#    0.000    0.000    0.000    0.000    0.000    0.000 
#
# Total GULP energy -200910.934698 kJ/mol
# GULP energy per Si atom -5580.859297 kJ/mol
# Density = 1.877149 g / cm^3
# Si number density = 18.814310 Si / 1000 Ang^3
#
#
#
# Elastic Constant Matrix: (Units=GPa)
#
#
# Indices 1 2 3 4 5 6 
#
# 1 109.6895 50.2238 2.0799 0.0000 0.0000 0.0000
# 2 50.2238 129.7402 39.0677 0.0000 0.0000 0.0000
# 3 2.0799 39.0677 74.1735 0.0000 0.0000 0.0000
# 4 0.0000 0.0000 0.0000 9.0404 0.0000 0.0000
# 5 0.0000 0.0000 0.0000 0.0000 26.0507 0.0000
# 6 0.0000 0.0000 0.0000 0.0000 0.0000 10.4478
#
#
#
# Elastic Compliance Matrix: (Units=1/GPa)
#
#
# Indices 1 2 3 4 5 6 
#
# 1 0.011426 -0.005142 0.002388 0.000000 0.000000 0.000000
# 2 -0.005142 0.011475 -0.005900 0.000000 0.000000 0.000000
# 3 0.002388 -0.005900 0.016522 0.000000 0.000000 0.000000
# 4 0.000000 0.000000 0.000000 0.110614 0.000000 0.000000
# 5 0.000000 0.000000 0.000000 0.000000 0.038387 0.000000
# 6 0.000000 0.000000 0.000000 0.000000 0.000000 0.095714
#
#
# Mechanical properties :
#
#
# Convention : Reuss Voigt Hill
#
# Bulk Modulus (GPa) = 45.21743 55.14955 50.18349
# Shear Modulus (GPa) = 16.19081 23.92323 20.05702
#
# Velocity S-wave (km/s) = 2.93671 3.56974 3.26859
# Velocity P-wave (km/s) = 5.96529 6.80933 6.40124
#
# Compressibility (1/GPa) = 0.02211537
#
# Stress axis : x y z
#
# Youngs Moduli (GPa) = 87.52119 87.14749 60.52411
#
# Poissons Ratio (x) = 0.44812 -0.14453
# Poissons Ratio (y) = 0.45005 0.35707
# Poissons Ratio (z) = -0.20900 0.51414
#
# Static dielectric constant tensor:
#      x y z
#    x 1.635060 0.000000 0.000000 
#    y 0.000000 1.649920 0.000000 
#    z 0.000000 0.000000 1.693410 
# 
# From -- ./inp_files/6094.got.cif
#   From: 2010.05.17/outbox.cif.g08.bks.cpg/sg71_4_cif.got.tgz:6094.got - 2010.06.03 16:22:01.
