data_PCOD9520822
_publ_section_title
;
Structure prediction by ZEFSAII (Michael W. Deem and Ramdas Pophale) SiO2 
 PCOD9520822
Probable space group: I M M M
;
_chemical_formula_sum "Si O2"
_cell_formula_units_Z 112
_cell_length_a 7.484005
_cell_length_b 18.498455
_cell_length_c 35.989291
_cell_angle_alpha 90.000000
_cell_angle_beta 90.000000
_cell_angle_gamma 90.000000
_cell_volume 4982.448489
_symmetry_space_group_name_H-M "I M M M"
_symmetry_group_IT_number 71
_symmetry_cell_setting 'orthorhombic'
loop_
_space_group_symop_operation_xyz
x,y,z
-x,-y,z
x,-y,-z
-x,y,-z
-x,-y,-z
x,y,-z
-x,y,z
x,-y,z
1/2+x,1/2+y,1/2+z
1/2-x,1/2-y,1/2+z
1/2+x,1/2-y,1/2-z
1/2-x,1/2+y,1/2-z
1/2-x,1/2-y,1/2-z
1/2+x,1/2+y,1/2-z
1/2-x,1/2+y,1/2+z
1/2+x,1/2-y,1/2+z
loop_
_atom_site_type_symbol
_atom_site_label
_atom_site_fract_x
_atom_site_fract_y
_atom_site_fract_z
Si Si1 0.714511 0.143741 0.816919
Si Si2 0.717772 0.695847 0.542039
Si Si3 0.784164 0.637917 0.041455
Si Si4 0.216610 0.581120 0.761169
Si Si5 0.290320 0.577955 0.119447
Si Si6 0.713713 0.419171 0.602242
Si Si7 0.208878 0.194195 0.674696
O O1 0.500000 0.146538 0.813014
O O2 0.777950 0.101933 0.780307
O O3 0.753752 0.104390 0.855492
O O4 0.784959 0.226083 0.818786
O O5 0.769524 0.674849 0.500000
O O6 0.500000 0.696448 0.542898
O O7 0.773586 0.778909 0.548124
O O8 0.782242 0.640929 0.573425
O O9 0.723455 0.589891 0.075579
O O10 0.000000 0.636941 0.041445
O O11 0.725523 0.616349 0.000000
O O12 0.276365 0.500000 0.771255
O O13 0.276725 0.642792 0.789565
O O14 0.000000 0.580944 0.761901
O O15 0.500000 0.575794 0.129248
O O16 0.212187 0.500000 0.129949
O O17 0.212129 0.646652 0.141097
O O18 0.500000 0.421537 0.597045
O O19 0.783563 0.500000 0.595604
O O20 0.000000 0.206604 0.666146
#
# Coordination Sequence:
#
# PCOD9520822 Si02
#       7
#    16  16  16  16  16  16  16
#     4  10  21  37  56  77 104 139 174 209 255 307
#     4   8  15  30  51  74 102 134 167 209 259 302
#     4   9  18  33  53  75  98 129 171 213 251 297
#     4  10  21  36  54  78 107 137 169 206 254 311
#     4  10  21  35  50  72 103 134 164 204 256 307
#     4  10  20  32  50  79 108 135 173 215 253 300
#     4  10  21  37  57  79 102 133 175 217 255 299
#
# _framework density 22.478908000000001
#
# number of rings (size 3 to 8) (size 9 to 14) (size 15 to 20)
#    0.000    2.429    0.000    3.000    0.000    4.571 
#    0.000    2.857    0.000    1.286    0.000    1.000 
#    0.000    0.000    0.000    0.000    0.000    0.000 
#
# Total GULP energy -312894.588453 kJ/mol
# GULP energy per Si atom -5587.403365 kJ/mol
# Density = 2.242775 g / cm^3
# Si number density = 22.478908 Si / 1000 Ang^3
#
#
#
# Elastic Constant Matrix: (Units=GPa)
#
#
# Indices 1 2 3 4 5 6 
#
# 1 61.2620 -0.0441 -15.0407 0.0000 0.0000 0.0000
# 2 -0.0441 67.4036 0.8659 0.0000 0.0000 0.0000
# 3 -15.0407 0.8659 73.8813 0.0000 0.0000 0.0000
# 4 0.0000 0.0000 0.0000 62.4705 0.0000 0.0000
# 5 0.0000 0.0000 0.0000 0.0000 9.8661 0.0000
# 6 0.0000 0.0000 0.0000 0.0000 0.0000 -14.1805
#
#
#
# Elastic Compliance Matrix: (Units=1/GPa)
#
#
# Indices 1 2 3 4 5 6 
#
# 1 0.017182 -0.000034 0.003498 0.000000 0.000000 0.000000
# 2 -0.000034 0.014838 -0.000181 0.000000 0.000000 0.000000
# 3 0.003498 -0.000181 0.014250 0.000000 0.000000 0.000000
# 4 0.000000 0.000000 0.000000 0.016008 0.000000 0.000000
# 5 0.000000 0.000000 0.000000 0.000000 0.101357 0.000000
# 6 0.000000 0.000000 0.000000 0.000000 0.000000 -0.070520
#
#
# Mechanical properties :
#
#
# Convention : Reuss Voigt Hill
#
# Bulk Modulus (GPa) = 18.92583 19.34543 19.13563
# Shear Modulus (GPa) = 48.00320 26.08229 37.04274
#
# Velocity S-wave (km/s) = 4.62614 3.41001 4.06382
# Velocity P-wave (km/s) = 6.08050 4.91213 5.52727
#
# Compressibility (1/GPa) = 0.05283785
#
# Stress axis : x y z
#
# Youngs Moduli (GPa) = 58.19971 67.39311 70.17770
#
# Poissons Ratio (x) = 0.00227 -0.24551
# Poissons Ratio (y) = 0.00196 0.01269
# Poissons Ratio (z) = -0.20360 0.01218
#
# Static dielectric constant tensor:
#      x y z
#    x 1.878350 0.000000 0.000000 
#    y 0.000000 1.827070 0.000000 
#    z 0.000000 0.000000 1.796170 
# 
# From -- ./inp_files/69329.got.cif
#   From: 2010.05.17/outbox.cif.g08.bks.cpg/sg71_35_cif.got.tgz:69329.got - 2010.06.03 16:22:01.
