data_PCOD9520249
_publ_section_title
;
Structure prediction by ZEFSAII (Michael W. Deem and Ramdas Pophale) SiO2 
 PCOD9520249
Probable space group: I M M M
;
_chemical_formula_sum "Si O2"
_cell_formula_units_Z 104
_cell_length_a 17.191388
_cell_length_b 18.493536
_cell_length_c 17.457059
_cell_angle_alpha 90.000000
_cell_angle_beta 90.000000
_cell_angle_gamma 90.000000
_cell_volume 5550.114962
_symmetry_space_group_name_H-M "I M M M"
_symmetry_group_IT_number 71
_symmetry_cell_setting 'orthorhombic'
loop_
_space_group_symop_operation_xyz
x,y,z
-x,-y,z
x,-y,-z
-x,y,-z
-x,-y,-z
x,y,-z
-x,y,z
x,-y,z
1/2+x,1/2+y,1/2+z
1/2-x,1/2-y,1/2+z
1/2+x,1/2-y,1/2-z
1/2-x,1/2+y,1/2-z
1/2-x,1/2-y,1/2-z
1/2+x,1/2+y,1/2-z
1/2-x,1/2+y,1/2+z
1/2+x,1/2-y,1/2+z
loop_
_atom_site_type_symbol
_atom_site_label
_atom_site_fract_x
_atom_site_fract_y
_atom_site_fract_z
Si Si1 0.636850 0.849879 0.410601
Si Si2 0.146306 0.820310 0.091356
Si Si3 0.000000 0.916839 0.906666
Si Si4 0.293056 0.196521 0.189619
Si Si5 0.696320 0.580705 0.908042
Si Si6 0.586886 0.084663 0.737840
Si Si7 0.090177 0.205518 0.407499
O O1 0.620995 0.863926 0.500000
O O2 0.625647 0.764481 0.396234
O O3 0.726621 0.871869 0.394680
O O4 0.588112 0.897598 0.352518
O O5 0.224437 0.835507 0.137614
O O6 0.076335 0.872079 0.116283
O O7 0.158663 0.828439 0.000000
O O8 0.000000 0.000000 0.880991
O O9 0.000000 0.917198 0.000000
O O10 0.250000 0.250000 0.250000
O O11 0.345861 0.135252 0.228392
O O12 0.352214 0.240930 0.135937
O O13 0.703069 0.500000 0.875486
O O14 0.620846 0.625792 0.884617
O O15 0.692009 0.574120 0.000000
O O16 0.500000 0.101963 0.767843
O O17 0.601703 0.000000 0.750649
O O18 0.098940 0.212851 0.500000
O O19 0.000000 0.216264 0.388487
#
# Coordination Sequence:
#
# PCOD9520249 Si02
#       7
#    16  16   8  16  16  16  16
#     4  10  19  34  59  88 114 148 200 247 289 351
#     4  10  20  36  63  92 119 150 192 241 293 353
#     4   9  20  38  60  92 125 147 176 234 304 353
#     4  12  22  38  60  88 112 156 201 245 292 347
#     4   9  16  28  49  79 114 148 186 237 293 345
#     4  11  25  41  56  81 122 164 199 242 298 353
#     4  10  20  35  56  83 114 151 199 252 297 346
#
# _framework density 18.738351000000002
#
# number of rings (size 3 to 8) (size 9 to 14) (size 15 to 20)
#    0.000    1.769    3.077    1.385    1.077    2.154 
#    1.385    2.308    0.000    1.385    0.000    5.385 
#    0.000    0.000    0.000    0.000    0.000    0.000 
#
# Total GULP energy -290160.989364 kJ/mol
# GULP energy per Si atom -5580.019026 kJ/mol
# Density = 1.869570 g / cm^3
# Si number density = 18.738351 Si / 1000 Ang^3
#
#
#
# Elastic Constant Matrix: (Units=GPa)
#
#
# Indices 1 2 3 4 5 6 
#
# 1 159.8799 90.0323 44.1745 0.0000 0.0000 0.0000
# 2 90.0323 132.6501 40.2522 0.0000 0.0000 0.0000
# 3 44.1745 40.2522 35.7015 0.0000 0.0000 0.0000
# 4 0.0000 0.0000 0.0000 14.6698 0.0000 0.0000
# 5 0.0000 0.0000 0.0000 0.0000 23.8691 0.0000
# 6 0.0000 0.0000 0.0000 0.0000 0.0000 31.0971
#
#
#
# Elastic Compliance Matrix: (Units=1/GPa)
#
#
# Indices 1 2 3 4 5 6 
#
# 1 0.011537 -0.005318 -0.008279 0.000000 0.000000 0.000000
# 2 -0.005318 0.013911 -0.009103 0.000000 0.000000 0.000000
# 3 -0.008279 -0.009103 0.048518 0.000000 0.000000 0.000000
# 4 0.000000 0.000000 0.000000 0.068167 0.000000 0.000000
# 5 0.000000 0.000000 0.000000 0.000000 0.041895 0.000000
# 6 0.000000 0.000000 0.000000 0.000000 0.000000 0.032157
#
#
# Mechanical properties :
#
#
# Convention : Reuss Voigt Hill
#
# Bulk Modulus (GPa) = 35.00900 75.23882 55.12391
# Shear Modulus (GPa) = 18.44290 24.17870 21.31080
#
# Velocity S-wave (km/s) = 3.14065 3.59602 3.37602
# Velocity P-wave (km/s) = 5.64581 7.58164 6.68418
#
# Compressibility (1/GPa) = 0.02856409
#
# Stress axis : x y z
#
# Youngs Moduli (GPa) = 86.67829 71.88797 20.61109
#
# Poissons Ratio (x) = 0.38231 0.17064
# Poissons Ratio (y) = 0.46096 0.18763
# Poissons Ratio (z) = 0.71761 0.65442
#
# Static dielectric constant tensor:
#      x y z
#    x 1.650700 0.000000 0.000000 
#    y 0.000000 1.652040 0.000000 
#    z 0.000000 0.000000 1.661850 
# 
# From -- ./inp_files/46132.got.cif
#   From: 2010.05.17/outbox.cif.g08.bks.cpg/sg71_24_cif.got.tgz:46132.got - 2010.06.03 16:22:01.
