data_PCOD9520701
_publ_section_title
;
Structure prediction by ZEFSAII (Michael W. Deem and Ramdas Pophale) SiO2 
 PCOD9520701
Probable space group: I M M M
;
_chemical_formula_sum "Si O2"
_cell_formula_units_Z 120
_cell_length_a 7.847157
_cell_length_b 27.656803
_cell_length_c 28.745645
_cell_angle_alpha 90.000000
_cell_angle_beta 90.000000
_cell_angle_gamma 90.000000
_cell_volume 6238.589010
_symmetry_space_group_name_H-M "I M M M"
_symmetry_group_IT_number 71
_symmetry_cell_setting 'orthorhombic'
loop_
_space_group_symop_operation_xyz
x,y,z
-x,-y,z
x,-y,-z
-x,y,-z
-x,-y,-z
x,y,-z
-x,y,z
x,-y,z
1/2+x,1/2+y,1/2+z
1/2-x,1/2-y,1/2+z
1/2+x,1/2-y,1/2-z
1/2-x,1/2+y,1/2-z
1/2-x,1/2-y,1/2-z
1/2+x,1/2+y,1/2-z
1/2-x,1/2+y,1/2+z
1/2+x,1/2-y,1/2+z
loop_
_atom_site_type_symbol
_atom_site_label
_atom_site_fract_x
_atom_site_fract_y
_atom_site_fract_z
Si Si1 0.300332 0.403443 0.104832
Si Si2 0.202138 0.201381 0.948134
Si Si3 0.291541 0.500000 0.054296
Si Si4 0.708915 0.647442 0.358542
Si Si5 0.205108 0.054741 0.805292
Si Si6 0.298160 0.703034 0.105794
Si Si7 0.796563 0.555936 0.799531
Si Si8 0.796799 0.242362 0.803497
O O1 0.500000 0.401590 0.092288
O O2 0.228617 0.450938 0.079185
O O3 0.227289 0.350329 0.095024
O O4 0.284435 0.412922 0.159809
O O5 0.269195 0.164054 0.909417
O O6 0.224206 0.254480 0.926008
O O7 0.000000 0.192651 0.951267
O O8 0.274961 0.198158 0.000000
O O9 0.500000 0.500000 0.058132
O O10 0.248535 0.500000 0.000000
O O11 0.500000 0.646981 0.358872
O O12 0.767320 0.595418 0.340752
O O13 0.760982 0.690059 0.322959
O O14 0.248863 0.070189 0.752705
O O15 0.000000 0.052810 0.808689
O O16 0.270804 0.000000 0.812242
O O17 0.500000 0.702479 0.097791
O O18 0.269656 0.718151 0.159606
O O19 0.740326 0.500000 0.805495
O O20 0.000000 0.557786 0.804499
O O21 0.750000 0.250000 0.750000
O O22 0.000000 0.243585 0.807260
#
# Coordination Sequence:
#
# PCOD9520701 Si02
#       8
#    16  16   8  16  16  16  16  16
#     4  10  20  34  53  72  96 131 169 210 255 310
#     4   9  18  35  57  76  98 133 172 209 257 313
#     4   9  18  34  55  75  93 121 167 217 260 305
#     4   8  16  31  50  73 100 131 168 208 246 296
#     4   9  17  30  50  74 101 135 171 205 244 297
#     4  10  21  34  50  76 103 131 170 217 263 305
#     4  10  20  32  47  70 100 133 168 208 250 294
#     4  10  20  34  50  71 103 140 174 211 255 308
#
# _framework density 19.235119000000001
#
# number of rings (size 3 to 8) (size 9 to 14) (size 15 to 20)
#    0.000    2.600    0.667    2.000    1.867    2.400 
#    0.000    4.000    0.000    1.200    0.000    2.800 
#    0.000    0.000    0.000    8.133    0.000    8.800 
#
# Total GULP energy -334668.682528 kJ/mol
# GULP energy per Si atom -5577.811375 kJ/mol
# Density = 1.919134 g / cm^3
# Si number density = 19.235119 Si / 1000 Ang^3
#
#
#
# Elastic Constant Matrix: (Units=GPa)
#
#
# Indices 1 2 3 4 5 6 
#
# 1 22.8048 -1.9283 -7.1045 0.0000 0.0000 0.0000
# 2 -1.9283 120.9556 70.7080 0.0000 0.0000 0.0000
# 3 -7.1045 70.7080 136.2115 0.0000 0.0000 0.0000
# 4 0.0000 0.0000 0.0000 10.4263 0.0000 0.0000
# 5 0.0000 0.0000 0.0000 0.0000 9.3296 0.0000
# 6 0.0000 0.0000 0.0000 0.0000 0.0000 13.5716
#
#
#
# Elastic Compliance Matrix: (Units=1/GPa)
#
#
# Indices 1 2 3 4 5 6 
#
# 1 0.044648 -0.000933 0.002813 0.000000 0.000000 0.000000
# 2 -0.000933 0.011889 -0.006220 0.000000 0.000000 0.000000
# 3 0.002813 -0.006220 0.010717 0.000000 0.000000 0.000000
# 4 0.000000 0.000000 0.000000 0.095912 0.000000 0.000000
# 5 0.000000 0.000000 0.000000 0.000000 0.107186 0.000000
# 6 0.000000 0.000000 0.000000 0.000000 0.000000 0.073683
#
#
# Mechanical properties :
#
#
# Convention : Reuss Voigt Hill
#
# Bulk Modulus (GPa) = 17.07240 44.81358 30.94299
# Shear Modulus (GPa) = 13.43223 21.21861 17.32542
#
# Velocity S-wave (km/s) = 2.64544 3.32493 3.00445
# Velocity P-wave (km/s) = 4.26920 6.17159 5.30634
#
# Compressibility (1/GPa) = 0.05857408
#
# Stress axis : x y z
#
# Youngs Moduli (GPa) = 22.39748 84.11278 93.30844
#
# Poissons Ratio (x) = 0.07844 -0.26246
# Poissons Ratio (y) = 0.02089 0.58039
# Poissons Ratio (z) = -0.06300 0.52320
#
# Static dielectric constant tensor:
#      x y z
#    x 1.716810 0.000000 0.000000 
#    y 0.000000 1.674030 0.000000 
#    z 0.000000 0.000000 1.596950 
# 
# From -- ./inp_files/63789.got.cif
#   From: 2010.05.17/outbox.cif.g08.bks.cpg/sg71_32_cif.got.tgz:63789.got - 2010.06.03 16:22:01.
