data_PCOD9520244
_publ_section_title
;
Structure prediction by ZEFSAII (Michael W. Deem and Ramdas Pophale) SiO2 
 PCOD9520244
Probable space group: I M M M
;
_chemical_formula_sum "Si O2"
_cell_formula_units_Z 88
_cell_length_a 22.743388
_cell_length_b 12.241446
_cell_length_c 18.485266
_cell_angle_alpha 90.000000
_cell_angle_beta 90.000000
_cell_angle_gamma 90.000000
_cell_volume 5146.519065
_symmetry_space_group_name_H-M "I M M M"
_symmetry_group_IT_number 71
_symmetry_cell_setting 'orthorhombic'
loop_
_space_group_symop_operation_xyz
x,y,z
-x,-y,z
x,-y,-z
-x,y,-z
-x,-y,-z
x,y,-z
-x,y,z
x,-y,z
1/2+x,1/2+y,1/2+z
1/2-x,1/2-y,1/2+z
1/2+x,1/2-y,1/2-z
1/2-x,1/2+y,1/2-z
1/2-x,1/2-y,1/2-z
1/2+x,1/2+y,1/2-z
1/2-x,1/2+y,1/2+z
1/2+x,1/2-y,1/2+z
loop_
_atom_site_type_symbol
_atom_site_label
_atom_site_fract_x
_atom_site_fract_y
_atom_site_fract_z
Si Si1 0.323841 0.130736 0.082641
Si Si2 0.232690 0.273367 0.833557
Si Si3 0.766021 0.500000 0.914510
Si Si4 0.408446 0.000000 0.417938
Si Si5 0.092029 0.722173 0.162655
Si Si6 0.000000 0.130211 0.085016
Si Si7 0.566536 0.129075 0.816605
O O1 0.268267 0.185667 0.120031
O O2 0.383162 0.157365 0.126305
O O3 0.317577 0.000000 0.084415
O O4 0.328531 0.166676 0.000000
O O5 0.250000 0.250000 0.750000
O O6 0.249841 0.391866 0.867840
O O7 0.162313 0.263717 0.841469
O O8 0.837137 0.500000 0.918255
O O9 0.746140 0.500000 0.000000
O O10 0.425915 0.889885 0.377619
O O11 0.429203 0.000000 0.500000
O O12 0.074986 0.702103 0.245742
O O13 0.056488 0.818398 0.124682
O O14 0.000000 0.000000 0.090466
O O15 0.000000 0.160212 0.000000
O O16 0.500000 0.140481 0.844387
O O17 0.574642 0.000000 0.796868
#
# Coordination Sequence:
#
# PCOD9520244 Si02
#       7
#    16  16   8   8  16   8  16
#     4  10  22  38  58  86 120 153 190 235 289 351
#     4  11  22  35  61  88 116 152 194 240 291 349
#     4   9  20  36  53  80 120 153 183 235 299 349
#     4   9  18  31  54  85 108 133 180 239 290 337
#     4  11  20  36  58  83 111 148 191 236 286 338
#     4  11  26  43  55  75 116 162 198 232 275 334
#     4  10  19  34  59  86 114 143 182 237 295 341
#
# _framework density 17.098935999999998
#
# number of rings (size 3 to 8) (size 9 to 14) (size 15 to 20)
#    0.000    1.727    3.636    1.091    1.273    3.636 
#    0.000    4.545    0.000    0.000    0.000    0.000 
#    0.000    2.909    0.000    0.000    0.000    0.000 
#
# Total GULP energy -245484.084906 kJ/mol
# GULP energy per Si atom -5579.183748 kJ/mol
# Density = 1.706002 g / cm^3
# Si number density = 17.098936 Si / 1000 Ang^3
#
#
#
# Elastic Constant Matrix: (Units=GPa)
#
#
# Indices 1 2 3 4 5 6 
#
# 1 113.6155 35.8820 50.6754 0.0000 0.0000 0.0000
# 2 35.8820 57.8801 56.3944 0.0000 0.0000 0.0000
# 3 50.6754 56.3944 148.2189 0.0000 0.0000 0.0000
# 4 0.0000 0.0000 0.0000 28.1171 0.0000 0.0000
# 5 0.0000 0.0000 0.0000 0.0000 19.4377 0.0000
# 6 0.0000 0.0000 0.0000 0.0000 0.0000 27.9058
#
#
#
# Elastic Compliance Matrix: (Units=1/GPa)
#
#
# Indices 1 2 3 4 5 6 
#
# 1 0.011271 -0.005137 -0.001899 0.000000 0.000000 0.000000
# 2 -0.005137 0.029796 -0.009581 0.000000 0.000000 0.000000
# 3 -0.001899 -0.009581 0.011041 0.000000 0.000000 0.000000
# 4 0.000000 0.000000 0.000000 0.035565 0.000000 0.000000
# 5 0.000000 0.000000 0.000000 0.000000 0.051446 0.000000
# 6 0.000000 0.000000 0.000000 0.000000 0.000000 0.035835
#
#
# Mechanical properties :
#
#
# Convention : Reuss Voigt Hill
#
# Bulk Modulus (GPa) = 52.97904 67.29093 60.13498
# Shear Modulus (GPa) = 23.31214 26.87631 25.09423
#
# Velocity S-wave (km/s) = 3.69639 3.96891 3.83507
# Velocity P-wave (km/s) = 7.01917 7.77446 7.40645
#
# Compressibility (1/GPa) = 0.01887539
#
# Stress axis : x y z
#
# Youngs Moduli (GPa) = 88.72340 33.56099 90.56933
#
# Poissons Ratio (x) = 0.17241 0.17199
# Poissons Ratio (y) = 0.45578 0.86771
# Poissons Ratio (z) = 0.16848 0.32154
#
# Static dielectric constant tensor:
#      x y z
#    x 1.588510 0.000000 0.000000 
#    y 0.000000 1.567600 0.000000 
#    z 0.000000 0.000000 1.576230 
# 
# From -- ./inp_files/23994.got.cif
#   From: 2010.05.17/outbox.cif.g08.bks.cpg/sg71_12_cif.got.tgz:23994.got - 2010.06.03 16:22:01.
