data_PCOD9520493
_publ_section_title
;
Structure prediction by ZEFSAII (Michael W. Deem and Ramdas Pophale) SiO2 
 PCOD9520493
Probable space group: I M M M
;
_chemical_formula_sum "Si O2"
_cell_formula_units_Z 64
_cell_length_a 11.103939
_cell_length_b 36.428989
_cell_length_c 7.643747
_cell_angle_alpha 90.000000
_cell_angle_beta 90.000000
_cell_angle_gamma 90.000000
_cell_volume 3091.935957
_symmetry_space_group_name_H-M "I M M M"
_symmetry_group_IT_number 71
_symmetry_cell_setting 'orthorhombic'
loop_
_space_group_symop_operation_xyz
x,y,z
-x,-y,z
x,-y,-z
-x,y,-z
-x,-y,-z
x,y,-z
-x,y,z
x,-y,z
1/2+x,1/2+y,1/2+z
1/2-x,1/2-y,1/2+z
1/2+x,1/2-y,1/2-z
1/2-x,1/2+y,1/2-z
1/2-x,1/2-y,1/2-z
1/2+x,1/2+y,1/2-z
1/2-x,1/2+y,1/2+z
1/2+x,1/2-y,1/2+z
loop_
_atom_site_type_symbol
_atom_site_label
_atom_site_fract_x
_atom_site_fract_y
_atom_site_fract_z
Si Si1 0.259312 0.414574 0.800423
Si Si2 0.359331 0.040552 0.000000
Si Si3 0.000000 0.701867 0.208139
Si Si4 0.242551 0.170706 0.287125
Si Si5 0.500000 0.712108 0.788410
Si Si6 0.500000 0.543135 0.711871
O O1 0.176009 0.436637 0.669401
O O2 0.271298 0.372207 0.745004
O O3 0.385311 0.435644 0.785653
O O4 0.215612 0.415097 0.000000
O O5 0.500000 0.036051 0.000000
O O6 0.299423 0.000000 0.000000
O O7 0.872843 0.685456 0.275796
O O8 0.000000 0.745346 0.238404
O O9 0.000000 0.694611 0.000000
O O10 0.242973 0.173720 0.500000
O O11 0.124060 0.192866 0.226324
O O12 0.500000 0.709504 0.000000
O O13 0.500000 0.500000 0.757135
O O14 0.500000 0.546015 0.500000
#
# Coordination Sequence:
#
# PCOD9520493 Si02
#       6
#    16   8   8  16   8   8
#     4  11  23  42  68  94 125 172 219 260 326 392
#     4  11  26  45  63  93 135 168 213 279 325 377
#     4  10  20  37  57  84 119 157 202 255 314 377
#     4   9  20  37  59  83 120 161 204 261 312 373
#     4  10  19  37  57  84 121 156 199 257 317 375
#     4  11  22  39  63  94 131 162 199 265 332 382
#
# _framework density 20.699006000000001
#
# number of rings (size 3 to 8) (size 9 to 14) (size 15 to 20)
#    0.000    1.750    1.250    2.625    1.750    5.000 
#    4.500    1.250    0.000    0.000    0.000    0.000 
#    0.000    0.000    0.000    0.000    0.000    0.000 
#
# Total GULP energy -178808.682983 kJ/mol
# GULP energy per Si atom -5587.771343 kJ/mol
# Density = 2.065189 g / cm^3
# Si number density = 20.699006 Si / 1000 Ang^3
#
#
#
# Elastic Constant Matrix: (Units=GPa)
#
#
# Indices 1 2 3 4 5 6 
#
# 1 170.7548 94.8440 19.4665 -0.0018 0.0003 -0.0003
# 2 94.8440 196.1983 25.5886 0.0004 -0.0022 -0.0004
# 3 19.4665 25.5886 62.3911 0.0012 0.0003 0.0003
# 4 -0.0018 0.0004 0.0012 35.2987 -0.0020 0.0000
# 5 0.0003 -0.0022 0.0003 -0.0020 42.3115 -0.0008
# 6 -0.0003 -0.0004 0.0003 0.0000 -0.0008 47.2179
#
#
#
# Elastic Compliance Matrix: (Units=1/GPa)
#
#
# Indices 1 2 3 4 5 6 
#
# 1 0.008061 -0.003770 -0.000969 0.000000 0.000000 0.000000
# 2 -0.003770 0.007148 -0.001755 0.000000 0.000000 0.000000
# 3 -0.000969 -0.001755 0.017050 -0.000001 0.000000 0.000000
# 4 0.000000 0.000000 -0.000001 0.028330 0.000001 0.000000
# 5 0.000000 0.000000 0.000000 0.000001 0.023634 0.000000
# 6 0.000000 0.000000 0.000000 0.000000 0.000000 0.021178
#
#
# Mechanical properties :
#
#
# Convention : Reuss Voigt Hill
#
# Bulk Modulus (GPa) = 51.89283 78.79361 65.34322
# Shear Modulus (GPa) = 40.05940 44.26195 42.16067
#
# Velocity S-wave (km/s) = 4.40401 4.62926 4.51804
# Velocity P-wave (km/s) = 7.14038 8.16838 7.67162
#
# Compressibility (1/GPa) = 0.01927049
#
# Stress axis : x y z
#
# Youngs Moduli (GPa) = 124.05347 139.88962 58.65059
#
# Poissons Ratio (x) = 0.52744 0.05682
# Poissons Ratio (y) = 0.46774 0.10296
# Poissons Ratio (z) = 0.12017 0.24557
#
# Static dielectric constant tensor:
#      x y z
#    x 1.808460 0.000000 0.000000 
#    y 0.000000 1.692260 0.000000 
#    z 0.000000 0.000000 1.758440 
# 
# From -- ./inp_files/3824.got.cif
#   From: 2010.05.17/outbox.cif.g08.bks.cpg/sg71_2_cif.got.tgz:3824.got - 2010.06.03 16:22:01.
