data_PCOD9520719
_publ_section_title
;
Structure prediction by ZEFSAII (Michael W. Deem and Ramdas Pophale) SiO2 
 PCOD9520719
Probable space group: I M M M
;
_chemical_formula_sum "Si O2"
_cell_formula_units_Z 80
_cell_length_a 18.446776
_cell_length_b 11.696451
_cell_length_c 23.177636
_cell_angle_alpha 90.000000
_cell_angle_beta 90.000000
_cell_angle_gamma 90.000000
_cell_volume 5000.848732
_symmetry_space_group_name_H-M "I M M M"
_symmetry_group_IT_number 71
_symmetry_cell_setting 'orthorhombic'
loop_
_space_group_symop_operation_xyz
x,y,z
-x,-y,z
x,-y,-z
-x,y,-z
-x,-y,-z
x,y,-z
-x,y,z
x,-y,z
1/2+x,1/2+y,1/2+z
1/2-x,1/2-y,1/2+z
1/2+x,1/2-y,1/2-z
1/2-x,1/2+y,1/2-z
1/2-x,1/2-y,1/2-z
1/2+x,1/2+y,1/2-z
1/2-x,1/2+y,1/2+z
1/2+x,1/2-y,1/2+z
loop_
_atom_site_type_symbol
_atom_site_label
_atom_site_fract_x
_atom_site_fract_y
_atom_site_fract_z
Si Si1 0.000000 0.627521 0.068502
Si Si2 0.222084 0.636772 0.568956
Si Si3 0.864847 0.764839 0.881861
Si Si4 0.585503 0.500000 0.566776
Si Si5 0.918946 0.638141 0.359666
Si Si6 0.413359 0.864524 0.274054
O O1 0.925068 0.686838 0.086649
O O2 0.000000 0.500000 0.092829
O O3 0.000000 0.624910 0.000000
O O4 0.219678 0.644698 0.500000
O O5 0.236241 0.500000 0.582782
O O6 0.283980 0.721254 0.593340
O O7 0.145538 0.669437 0.597588
O O8 0.869277 0.716759 0.817084
O O9 0.893776 0.890817 0.896006
O O10 0.500000 0.500000 0.559587
O O11 0.616131 0.500000 0.500000
O O12 0.922799 0.500000 0.361263
O O13 0.901948 0.666334 0.292998
O O14 0.000000 0.681016 0.374060
O O15 0.500000 0.850850 0.285573
O O16 0.396371 0.000000 0.281755
#
# Coordination Sequence:
#
# PCOD9520719 Si02
#       6
#     8  16  16   8  16  16
#     4  11  22  33  47  69  97 134 178 214 241 280
#     4  10  20  32  47  72 105 136 168 207 253 304
#     4  12  20  30  48  69 102 138 169 203 246 294
#     4  11  20  30  44  64  95 141 182 202 235 294
#     4   8  16  32  53  74  97 129 168 211 258 304
#     4   9  17  32  52  73  99 131 171 211 249 292
#
# _framework density 15.997284000000001
#
# number of rings (size 3 to 8) (size 9 to 14) (size 15 to 20)
#    0.000    2.000    3.000    3.600    0.000    1.200 
#    0.000    2.000    0.000    0.000    0.000    0.000 
#    0.000    0.000    0.000    9.800    0.000    0.800 
#
# Total GULP energy -222669.074102 kJ/mol
# GULP energy per Si atom -5566.726853 kJ/mol
# Density = 1.596087 g / cm^3
# Si number density = 15.997284 Si / 1000 Ang^3
#
#
#
# Elastic Constant Matrix: (Units=GPa)
#
#
# Indices 1 2 3 4 5 6 
#
# 1 132.1462 40.2371 76.2698 0.0000 0.0000 0.0000
# 2 40.2371 71.1107 28.1313 0.0000 0.0000 0.0000
# 3 76.2698 28.1313 77.6682 0.0000 0.0000 0.0000
# 4 0.0000 0.0000 0.0000 17.3099 0.0000 0.0000
# 5 0.0000 0.0000 0.0000 0.0000 17.6787 0.0000
# 6 0.0000 0.0000 0.0000 0.0000 0.0000 3.3569
#
#
#
# Elastic Compliance Matrix: (Units=1/GPa)
#
#
# Indices 1 2 3 4 5 6 
#
# 1 0.018302 -0.003789 -0.016600 0.000000 0.000000 0.000000
# 2 -0.003789 0.017199 -0.002509 0.000000 0.000000 0.000000
# 3 -0.016600 -0.002509 0.030085 0.000000 0.000000 0.000000
# 4 0.000000 0.000000 0.000000 0.057771 0.000000 0.000000
# 5 0.000000 0.000000 0.000000 0.000000 0.056565 0.000000
# 6 0.000000 0.000000 0.000000 0.000000 0.000000 0.297892
#
#
# Mechanical properties :
#
#
# Convention : Reuss Voigt Hill
#
# Bulk Modulus (GPa) = 50.52909 63.35571 56.94240
# Shear Modulus (GPa) = 9.43028 16.75489 13.09258
#
# Velocity S-wave (km/s) = 2.43058 3.23980 2.86392
# Velocity P-wave (km/s) = 6.28741 7.32701 6.82703
#
# Compressibility (1/GPa) = 0.01979058
#
# Stress axis : x y z
#
# Youngs Moduli (GPa) = 54.63849 58.14311 33.23885
#
# Poissons Ratio (x) = 0.22030 0.55177
# Poissons Ratio (y) = 0.20702 0.08338
# Poissons Ratio (z) = 0.90701 0.14586
#
# Static dielectric constant tensor:
#      x y z
#    x 1.571720 0.000000 0.000000 
#    y 0.000000 1.523300 0.000000 
#    z 0.000000 0.000000 1.556160 
# 
# From -- ./inp_files/60495.got.cif
#   From: 2010.05.17/outbox.cif.g08.bks.cpg/sg71_31_cif.got.tgz:60495.got - 2010.06.03 16:22:01.
