data_PCOD9520561
_publ_section_title
;
Structure prediction by ZEFSAII (Michael W. Deem and Ramdas Pophale) SiO2 
 PCOD9520561
Probable space group: I M M M
;
_chemical_formula_sum "Si O2"
_cell_formula_units_Z 88
_cell_length_a 28.457086
_cell_length_b 20.143125
_cell_length_c 7.382573
_cell_angle_alpha 90.000000
_cell_angle_beta 90.000000
_cell_angle_gamma 90.000000
_cell_volume 4231.798928
_symmetry_space_group_name_H-M "I M M M"
_symmetry_group_IT_number 71
_symmetry_cell_setting 'orthorhombic'
loop_
_space_group_symop_operation_xyz
x,y,z
-x,-y,z
x,-y,-z
-x,y,-z
-x,-y,-z
x,y,-z
-x,y,z
x,-y,z
1/2+x,1/2+y,1/2+z
1/2-x,1/2-y,1/2+z
1/2+x,1/2-y,1/2-z
1/2-x,1/2+y,1/2-z
1/2-x,1/2-y,1/2-z
1/2+x,1/2+y,1/2-z
1/2-x,1/2+y,1/2+z
1/2+x,1/2-y,1/2+z
loop_
_atom_site_type_symbol
_atom_site_label
_atom_site_fract_x
_atom_site_fract_y
_atom_site_fract_z
Si Si1 0.444302 0.000000 0.708651
Si Si2 0.844457 0.176856 0.221774
Si Si3 0.808929 0.317829 0.783451
Si Si4 0.413325 0.140542 0.279387
Si Si5 0.271520 0.425561 0.286224
Si Si6 0.448454 0.718111 0.279300
O O1 0.428697 0.930609 0.790304
O O2 0.500000 0.000000 0.702284
O O3 0.426256 0.000000 0.500000
O O4 0.812973 0.241076 0.279775
O O5 0.818443 0.110547 0.284621
O O6 0.898954 0.184931 0.277766
O O7 0.844704 0.178063 0.000000
O O8 0.859457 0.347127 0.731461
O O9 0.769297 0.370318 0.731118
O O10 0.806671 0.314037 0.000000
O O11 0.416859 0.139797 0.500000
O O12 0.442945 0.204718 0.224071
O O13 0.278396 0.432957 0.500000
O O14 0.261618 0.500000 0.214062
O O15 0.448185 0.715794 0.500000
O O16 0.500000 0.692986 0.221124
#
# Coordination Sequence:
#
# PCOD9520561 Si02
#       6
#     8  16  16  16  16  16
#     4   9  14  18  26  44  77 113 131 149 196 253
#     4   8  15  28  43  61  85 113 142 173 214 256
#     4   9  17  29  46  64  83 110 143 180 215 248
#     4   8  14  21  31  52  80 106 131 164 206 247
#     4  10  20  31  43  60  86 118 147 175 211 256
#     4   8  12  20  36  56  78 105 136 167 204 253
#
# _framework density 20.794937999999998
#
# number of rings (size 3 to 8) (size 9 to 14) (size 15 to 20)
#    0.000    3.364    0.000    3.273    1.273    2.545 
#    0.000    0.000    0.000    0.545    0.000    3.818 
#    0.000   25.455    0.000    1.636    0.000    1.818 
#
# Total GULP energy -245126.017920 kJ/mol
# GULP energy per Si atom -5571.045862 kJ/mol
# Density = 2.074761 g / cm^3
# Si number density = 20.794938 Si / 1000 Ang^3
#
#
#
# Elastic Constant Matrix: (Units=GPa)
#
#
# Indices 1 2 3 4 5 6 
#
# 1 125.8851 63.1141 3.2179 0.0000 0.0000 0.0000
# 2 63.1141 91.5937 9.3908 0.0000 0.0000 0.0000
# 3 3.2179 9.3908 69.6952 0.0000 0.0000 0.0000
# 4 0.0000 0.0000 0.0000 0.2870 0.0000 0.0000
# 5 0.0000 0.0000 0.0000 0.0000 -2.2977 0.0000
# 6 0.0000 0.0000 0.0000 0.0000 0.0000 12.4891
#
#
#
# Elastic Compliance Matrix: (Units=1/GPa)
#
#
# Indices 1 2 3 4 5 6 
#
# 1 0.012159 -0.008438 0.000575 0.000000 0.000000 0.000000
# 2 -0.008438 0.016926 -0.001891 0.000000 0.000000 0.000000
# 3 0.000575 -0.001891 0.014576 0.000000 0.000000 0.000000
# 4 0.000000 0.000000 0.000000 3.484928 0.000000 0.000000
# 5 0.000000 0.000000 0.000000 0.000000 -0.435223 0.000000
# 6 0.000000 0.000000 0.000000 0.000000 0.000000 0.080070
#
#
# Mechanical properties :
#
#
# Convention : Reuss Voigt Hill
#
# Bulk Modulus (GPa) = 41.39891 48.73550 45.06721
# Shear Modulus (GPa) = 1.56201 16.19242 8.87722
#
# Velocity S-wave (km/s) = 0.86763 2.79350 2.06838
# Velocity P-wave (km/s) = 4.57767 5.82168 5.23675
#
# Compressibility (1/GPa) = 0.02415523
#
# Stress axis : x y z
#
# Youngs Moduli (GPa) = 82.24135 59.08170 68.60395
#
# Poissons Ratio (x) = 0.49851 -0.03948
# Poissons Ratio (y) = 0.69392 0.12973
# Poissons Ratio (z) = -0.04733 0.11172
#
# Static dielectric constant tensor:
#      x y z
#    x 1.743340 0.000000 0.000000 
#    y 0.000000 1.759810 0.000000 
#    z 0.000000 0.000000 1.833920 
# 
# From -- ./inp_files/16848.got.cif
#   From: 2010.05.17/outbox.cif.g08.bks.cpg/sg71_9_cif.got.tgz:16848.got - 2010.06.03 16:22:01.
