data_PCOD9520399
_publ_section_title
;
Structure prediction by ZEFSAII (Michael W. Deem and Ramdas Pophale) SiO2 
 PCOD9520399
Probable space group: I M M M
;
_chemical_formula_sum "Si O2"
_cell_formula_units_Z 74
_cell_length_a 9.751103
_cell_length_b 20.160711
_cell_length_c 22.689936
_cell_angle_alpha 90.000000
_cell_angle_beta 90.000000
_cell_angle_gamma 90.000000
_cell_volume 4460.595675
_symmetry_space_group_name_H-M "I M M M"
_symmetry_group_IT_number 71
_symmetry_cell_setting 'orthorhombic'
loop_
_space_group_symop_operation_xyz
x,y,z
-x,-y,z
x,-y,-z
-x,y,-z
-x,-y,-z
x,y,-z
-x,y,z
x,-y,z
1/2+x,1/2+y,1/2+z
1/2-x,1/2-y,1/2+z
1/2+x,1/2-y,1/2-z
1/2-x,1/2+y,1/2-z
1/2-x,1/2-y,1/2-z
1/2+x,1/2+y,1/2-z
1/2-x,1/2+y,1/2+z
1/2+x,1/2-y,1/2+z
loop_
_atom_site_type_symbol
_atom_site_label
_atom_site_fract_x
_atom_site_fract_y
_atom_site_fract_z
Si Si1 0.661659 0.314824 0.263715
Si Si2 0.150724 0.363656 0.500000
Si Si3 0.840757 0.192887 0.899914
Si Si4 0.663973 0.422829 0.835064
Si Si5 0.161689 0.652805 0.069750
Si Si6 0.000000 0.500000 0.500000
O O1 0.500000 0.299985 0.254995
O O2 0.750000 0.250000 0.250000
O O3 0.680115 0.329563 0.332792
O O4 0.697882 0.375400 0.220467
O O5 0.237344 0.342612 0.556483
O O6 0.000000 0.329701 0.500000
O O7 0.116690 0.441065 0.500000
O O8 0.818955 0.272094 0.906619
O O9 0.000000 0.180737 0.916363
O O10 0.500000 0.417513 0.845047
O O11 0.695659 0.500000 0.823751
O O12 0.746131 0.395587 0.891276
O O13 0.000000 0.636868 0.076459
O O14 0.193878 0.651191 0.000000
#
# Coordination Sequence:
#
# PCOD9520399 Si02
#       6
#    16   8  16  16  16   2
#     4  10  20  35  58  85 114 147 190 239 285 336
#     4  10  21  39  59  79 118 151 185 235 292 340
#     4  10  19  35  60  88 113 146 194 242 285 341
#     4  10  22  39  55  79 118 155 189 229 282 345
#     4  10  20  35  57  85 115 143 187 240 283 331
#     4   8  24  44  54  80 128 152 180 244 294 352
#
# _framework density 16.589713
#
# number of rings (size 3 to 8) (size 9 to 14) (size 15 to 20)
#    0.324    1.730    3.243    0.324    0.000    3.027 
#    1.946    3.243    0.000    0.000    0.000    0.000 
#    0.000    0.000    0.000    0.000    0.000    0.000 
#
# Total GULP energy -206033.604579 kJ/mol
# GULP energy per Si atom -5568.475799 kJ/mol
# Density = 1.655195 g / cm^3
# Si number density = 16.589713 Si / 1000 Ang^3
#
#
#
# Elastic Constant Matrix: (Units=GPa)
#
#
# Indices 1 2 3 4 5 6 
#
# 1 63.4729 61.3472 59.7534 0.0000 0.0000 0.0000
# 2 61.3472 119.3216 67.4940 0.0000 0.0000 0.0000
# 3 59.7534 67.4940 125.6567 0.0000 0.0000 0.0000
# 4 0.0000 0.0000 0.0000 11.1501 0.0000 0.0000
# 5 0.0000 0.0000 0.0000 0.0000 27.6970 0.0000
# 6 0.0000 0.0000 0.0000 0.0000 0.0000 25.4657
#
#
#
# Elastic Compliance Matrix: (Units=1/GPa)
#
#
# Indices 1 2 3 4 5 6 
#
# 1 0.040392 -0.014224 -0.011567 0.000000 0.000000 0.000000
# 2 -0.014224 0.017047 -0.002393 0.000000 0.000000 0.000000
# 3 -0.011567 -0.002393 0.014744 0.000000 0.000000 0.000000
# 4 0.000000 0.000000 0.000000 0.089686 0.000000 0.000000
# 5 0.000000 0.000000 0.000000 0.000000 0.036105 0.000000
# 6 0.000000 0.000000 0.000000 0.000000 0.000000 0.039269
#
#
# Mechanical properties :
#
#
# Convention : Reuss Voigt Hill
#
# Bulk Modulus (GPa) = 63.23065 76.18226 69.70646
# Shear Modulus (GPa) = 16.72908 20.85300 18.79104
#
# Velocity S-wave (km/s) = 3.17898 3.54924 3.36920
# Velocity P-wave (km/s) = 7.18830 7.92573 7.56601
#
# Compressibility (1/GPa) = 0.01581512
#
# Stress axis : x y z
#
# Youngs Moduli (GPa) = 24.75765 58.66161 67.82391
#
# Poissons Ratio (x) = 0.83437 0.78455
# Poissons Ratio (y) = 0.35214 0.16228
# Poissons Ratio (z) = 0.28638 0.14036
#
# Static dielectric constant tensor:
#      x y z
#    x 1.555600 0.000000 0.000000 
#    y 0.000000 1.531450 0.000000 
#    z 0.000000 0.000000 1.562460 
# 
# From -- ./inp_files/57411.got.cif
#   From: 2010.05.17/outbox.cif.g08.bks.cpg/sg71_29_cif.got.tgz:57411.got - 2010.06.03 16:22:01.
