data_PCOD9520429
_publ_section_title
;
Structure prediction by ZEFSAII (Michael W. Deem and Ramdas Pophale) SiO2 
 PCOD9520429
Probable space group: I M M M
;
_chemical_formula_sum "Si O2"
_cell_formula_units_Z 120
_cell_length_a 14.640749
_cell_length_b 15.104649
_cell_length_c 29.454106
_cell_angle_alpha 90.000000
_cell_angle_beta 90.000000
_cell_angle_gamma 90.000000
_cell_volume 6513.580401
_symmetry_space_group_name_H-M "I M M M"
_symmetry_group_IT_number 71
_symmetry_cell_setting 'orthorhombic'
loop_
_space_group_symop_operation_xyz
x,y,z
-x,-y,z
x,-y,-z
-x,y,-z
-x,-y,-z
x,y,-z
-x,y,z
x,-y,z
1/2+x,1/2+y,1/2+z
1/2-x,1/2-y,1/2+z
1/2+x,1/2-y,1/2-z
1/2-x,1/2+y,1/2-z
1/2-x,1/2-y,1/2-z
1/2+x,1/2+y,1/2-z
1/2-x,1/2+y,1/2+z
1/2+x,1/2-y,1/2+z
loop_
_atom_site_type_symbol
_atom_site_label
_atom_site_fract_x
_atom_site_fract_y
_atom_site_fract_z
Si Si1 0.220743 0.594298 0.693642
Si Si2 0.110321 0.500000 0.051811
Si Si3 0.105520 0.602363 0.445563
Si Si4 0.104264 0.144384 0.240990
Si Si5 0.285587 0.766128 0.116147
Si Si6 0.609424 0.837239 0.617377
Si Si7 0.104587 0.354588 0.221674
Si Si8 0.890374 0.102413 0.653857
O O1 0.198099 0.500000 0.671984
O O2 0.326493 0.599364 0.706853
O O3 0.198716 0.676234 0.661583
O O4 0.168302 0.602013 0.741201
O O5 0.132993 0.412926 0.080961
O O6 0.000000 0.500000 0.049217
O O7 0.145623 0.500000 0.000000
O O8 0.108202 0.609948 0.500000
O O9 0.128712 0.500000 0.434488
O O10 0.171026 0.674022 0.422953
O O11 0.000000 0.617523 0.430920
O O12 0.110324 0.249215 0.231093
O O13 0.129442 0.123765 0.293135
O O14 0.000000 0.116225 0.234628
O O15 0.178474 0.744111 0.110252
O O16 0.336929 0.672916 0.123407
O O17 0.500000 0.817369 0.614992
O O18 0.627304 0.870407 0.668994
O O19 0.000000 0.382428 0.228902
O O20 0.000000 0.112964 0.648106
O O21 0.866834 0.000000 0.644712
#
# Coordination Sequence:
#
# PCOD9520429 Si02
#       8
#    16   8  16  16  16  16  16  16
#     4  12  24  34  50  82 117 152 195 243 287 336
#     4   9  20  40  62  84 109 141 191 251 301 353
#     4   9  20  41  67  91 114 144 186 237 295 359
#     4  10  19  36  54  70 104 154 199 236 273 328
#     4  12  22  36  59  85 117 151 194 239 296 352
#     4  10  22  37  57  83 116 155 196 243 296 351
#     4  10  20  36  54  76 111 154 197 238 288 342
#     4  10  21  35  53  79 111 150 196 240 288 345
#
# _framework density 18.423047
#
# number of rings (size 3 to 8) (size 9 to 14) (size 15 to 20)
#    0.000    1.667    2.667    2.800    1.867    2.133 
#    0.000    0.000    0.000    1.200    0.000    2.800 
#    0.000    0.000    0.000    0.000    0.000    0.000 
#
# Total GULP energy -335015.090358 kJ/mol
# GULP energy per Si atom -5583.584839 kJ/mol
# Density = 1.838111 g / cm^3
# Si number density = 18.423047 Si / 1000 Ang^3
#
#
#
# Elastic Constant Matrix: (Units=GPa)
#
#
# Indices 1 2 3 4 5 6 
#
# 1 58.5376 42.2604 41.5599 0.0000 0.0000 0.0000
# 2 42.2604 111.3706 47.8627 0.0000 0.0000 0.0000
# 3 41.5599 47.8627 82.6318 0.0000 0.0000 0.0000
# 4 0.0000 0.0000 0.0000 22.2131 0.0000 0.0000
# 5 0.0000 0.0000 0.0000 0.0000 18.3333 0.0000
# 6 0.0000 0.0000 0.0000 0.0000 0.0000 -16.5819
#
#
#
# Elastic Compliance Matrix: (Units=1/GPa)
#
#
# Indices 1 2 3 4 5 6 
#
# 1 0.029691 -0.006456 -0.011194 0.000000 0.000000 0.000000
# 2 -0.006456 0.013359 -0.004491 0.000000 0.000000 0.000000
# 3 -0.011194 -0.004491 0.020333 0.000000 0.000000 0.000000
# 4 0.000000 0.000000 0.000000 0.045018 0.000000 0.000000
# 5 0.000000 0.000000 0.000000 0.000000 0.054546 0.000000
# 6 0.000000 0.000000 0.000000 0.000000 0.000000 -0.060307
#
#
# Mechanical properties :
#
#
# Convention : Reuss Voigt Hill
#
# Bulk Modulus (GPa) = 52.35068 57.32290 54.83679
# Shear Modulus (GPa) = 32.61834 12.85003 22.73418
#
# Velocity S-wave (km/s) = 4.21232 2.64388 3.51666
# Velocity P-wave (km/s) = 7.22051 6.36416 6.80581
#
# Compressibility (1/GPa) = 0.01910195
#
# Stress axis : x y z
#
# Youngs Moduli (GPa) = 33.68031 74.85761 49.18119
#
# Poissons Ratio (x) = 0.48327 0.55052
# Poissons Ratio (y) = 0.21743 0.22086
# Poissons Ratio (z) = 0.37701 0.33617
#
# Static dielectric constant tensor:
#      x y z
#    x 1.661180 0.000000 0.000000 
#    y 0.000000 1.667340 0.000000 
#    z 0.000000 0.000000 1.611330 
# 
# From -- ./inp_files/70143.got.cif
#   From: 2010.05.17/outbox.cif.g08.bks.cpg/sg71_36_cif.got.tgz:70143.got - 2010.06.03 16:22:01.
