data_PCOD9520418
_publ_section_title
;
Structure prediction by ZEFSAII (Michael W. Deem and Ramdas Pophale) SiO2 
 PCOD9520418
Probable space group: I M M M
;
_chemical_formula_sum "Si O2"
_cell_formula_units_Z 64
_cell_length_a 19.452525
_cell_length_b 15.620828
_cell_length_c 10.622547
_cell_angle_alpha 90.000000
_cell_angle_beta 90.000000
_cell_angle_gamma 90.000000
_cell_volume 3227.815434
_symmetry_space_group_name_H-M "I M M M"
_symmetry_group_IT_number 71
_symmetry_cell_setting 'orthorhombic'
loop_
_space_group_symop_operation_xyz
x,y,z
-x,-y,z
x,-y,-z
-x,y,-z
-x,-y,-z
x,y,-z
-x,y,z
x,-y,z
1/2+x,1/2+y,1/2+z
1/2-x,1/2-y,1/2+z
1/2+x,1/2-y,1/2-z
1/2-x,1/2+y,1/2-z
1/2-x,1/2-y,1/2-z
1/2+x,1/2+y,1/2-z
1/2-x,1/2+y,1/2+z
1/2+x,1/2-y,1/2+z
loop_
_atom_site_type_symbol
_atom_site_label
_atom_site_fract_x
_atom_site_fract_y
_atom_site_fract_z
Si Si1 0.000000 0.100838 0.142484
Si Si2 0.081784 0.326546 0.230992
Si Si3 0.744198 0.500000 0.345474
Si Si4 0.917764 0.599007 0.500000
Si Si5 0.644832 0.656867 0.348641
Si Si6 0.863734 0.500000 0.860644
O O1 0.928472 0.124473 0.204242
O O2 0.000000 0.000000 0.128342
O O3 0.000000 0.139346 0.000000
O O4 0.100409 0.350513 0.374499
O O5 0.137550 0.256499 0.186283
O O6 0.091189 0.414648 0.155690
O O7 0.000000 0.300755 0.222026
O O8 0.752154 0.500000 0.500000
O O9 0.702284 0.587509 0.312565
O O10 0.809687 0.500000 0.254317
O O11 0.895052 0.500000 0.500000
O O12 0.000000 0.594514 0.500000
O O13 0.644163 0.651614 0.500000
O O14 0.831730 0.500000 0.000000
#
# Coordination Sequence:
#
# PCOD9520418 Si02
#       6
#     8  16   8   8  16   8
#     4   9  14  26  56  90 121 150 190 258 314 355
#     4  11  22  38  65  95 125 156 200 263 322 370
#     4  10  24  44  65  87 123 176 218 244 291 374
#     4   9  18  36  58  87 123 161 203 240 295 380
#     4  10  19  35  61  95 124 155 203 254 310 369
#     4  12  27  42  60  90 127 165 210 260 311 363
#
# _framework density 19.827652
#
# number of rings (size 3 to 8) (size 9 to 14) (size 15 to 20)
#    0.000    1.750    3.750    1.125    1.750    3.000 
#    2.250    0.000    0.000    0.000    0.000    4.375 
#    0.000    0.000    0.000    0.000    0.000    0.000 
#
# Total GULP energy -178161.624128 kJ/mol
# GULP energy per Si atom -5567.550754 kJ/mol
# Density = 1.978252 g / cm^3
# Si number density = 19.827652 Si / 1000 Ang^3
#
#
#
# Elastic Constant Matrix: (Units=GPa)
#
#
# Indices 1 2 3 4 5 6 
#
# 1 72.1853 32.2091 27.5271 0.0000 0.0000 0.0000
# 2 32.2091 107.9618 9.4982 0.0000 0.0000 0.0000
# 3 27.5271 9.4982 64.0231 0.0000 0.0000 0.0000
# 4 0.0000 0.0000 0.0000 2.8597 0.0000 0.0000
# 5 0.0000 0.0000 0.0000 0.0000 19.3966 0.0000
# 6 0.0000 0.0000 0.0000 0.0000 0.0000 20.4085
#
#
#
# Elastic Compliance Matrix: (Units=1/GPa)
#
#
# Indices 1 2 3 4 5 6 
#
# 1 0.018894 -0.004987 -0.007384 0.000000 0.000000 0.000000
# 2 -0.004987 0.010701 0.000557 0.000000 0.000000 0.000000
# 3 -0.007384 0.000557 0.018711 0.000000 0.000000 0.000000
# 4 0.000000 0.000000 0.000000 0.349682 0.000000 0.000000
# 5 0.000000 0.000000 0.000000 0.000000 0.051555 0.000000
# 6 0.000000 0.000000 0.000000 0.000000 0.000000 0.048999
#
#
# Mechanical properties :
#
#
# Convention : Reuss Voigt Hill
#
# Bulk Modulus (GPa) = 40.52124 42.51545 41.51834
# Shear Modulus (GPa) = 9.42688 20.19537 14.81112
#
# Velocity S-wave (km/s) = 2.18283 3.19493 2.73608
# Velocity P-wave (km/s) = 5.18016 5.92445 5.56476
#
# Compressibility (1/GPa) = 0.02467842
#
# Stress axis : x y z
#
# Youngs Moduli (GPa) = 52.92602 93.44522 53.44313
#
# Poissons Ratio (x) = 0.46604 0.39461
# Poissons Ratio (y) = 0.26396 -0.02975
# Poissons Ratio (z) = 0.39080 -0.05202
#
# Static dielectric constant tensor:
#      x y z
#    x 1.741870 0.000000 0.000000 
#    y 0.000000 1.765400 0.000000 
#    z 0.000000 0.000000 1.710900 
# 
# From -- ./inp_files/23250.got.cif
#   From: 2010.05.17/outbox.cif.g08.bks.cpg/sg71_12_cif.got.tgz:23250.got - 2010.06.03 16:22:01.
