data_PCOD9520246
_publ_section_title
;
Structure prediction by ZEFSAII (Michael W. Deem and Ramdas Pophale) SiO2 
 PCOD9520246
Probable space group: I M M M
;
_chemical_formula_sum "Si O2"
_cell_formula_units_Z 88
_cell_length_a 18.121373
_cell_length_b 18.662557
_cell_length_c 14.540230
_cell_angle_alpha 90.000000
_cell_angle_beta 90.000000
_cell_angle_gamma 90.000000
_cell_volume 4917.377200
_symmetry_space_group_name_H-M "I M M M"
_symmetry_group_IT_number 71
_symmetry_cell_setting 'orthorhombic'
loop_
_space_group_symop_operation_xyz
x,y,z
-x,-y,z
x,-y,-z
-x,y,-z
-x,-y,-z
x,y,-z
-x,y,z
x,-y,z
1/2+x,1/2+y,1/2+z
1/2-x,1/2-y,1/2+z
1/2+x,1/2-y,1/2-z
1/2-x,1/2+y,1/2-z
1/2-x,1/2-y,1/2-z
1/2+x,1/2+y,1/2-z
1/2-x,1/2+y,1/2+z
1/2+x,1/2-y,1/2+z
loop_
_atom_site_type_symbol
_atom_site_label
_atom_site_fract_x
_atom_site_fract_y
_atom_site_fract_z
Si Si1 0.631319 0.154232 0.716628
Si Si2 0.222017 0.193481 0.606982
Si Si3 0.082902 0.185699 0.269234
Si Si4 0.207484 0.366018 0.396633
Si Si5 0.500000 0.914709 0.395371
Si Si6 0.126231 0.916701 0.105371
O O1 0.707721 0.164076 0.661560
O O2 0.598859 0.233226 0.736474
O O3 0.651727 0.118278 0.814210
O O4 0.572054 0.112062 0.657744
O O5 0.223789 0.173379 0.500000
O O6 0.146980 0.169497 0.657166
O O7 0.224431 0.280556 0.611742
O O8 0.090945 0.133705 0.181810
O O9 0.000000 0.180879 0.306761
O O10 0.179032 0.378954 0.500000
O O11 0.285191 0.406299 0.386570
O O12 0.500000 0.886694 0.500000
O O13 0.500000 0.000000 0.398059
O O14 0.107365 0.000000 0.118610
O O15 0.106619 0.896386 0.000000
#
# Coordination Sequence:
#
# PCOD9520246 Si02
#       6
#    16  16  16  16   8  16
#     4  11  19  38  61  84 111 147 194 230 276 338
#     4  10  19  34  59  87 111 144 192 238 276 326
#     4  11  21  36  56  83 115 147 189 231 278 332
#     4   9  17  32  57  86 115 144 182 231 274 327
#     4  11  26  42  57  85 118 146 185 242 295 335
#     4  10  20  34  53  81 115 147 181 224 278 335
#
# _framework density 17.895719
#
# number of rings (size 3 to 8) (size 9 to 14) (size 15 to 20)
#    0.000    1.727    4.545    1.636    0.000    2.545 
#    0.000    1.364    0.000    1.091    0.000    1.273 
#    0.000    0.000    0.000    0.000    0.000    0.000 
#
# Total GULP energy -245635.476332 kJ/mol
# GULP energy per Si atom -5582.624462 kJ/mol
# Density = 1.785499 g / cm^3
# Si number density = 17.895719 Si / 1000 Ang^3
#
#
#
# Elastic Constant Matrix: (Units=GPa)
#
#
# Indices 1 2 3 4 5 6 
#
# 1 127.4705 10.3563 58.4413 0.0000 0.0000 0.0000
# 2 10.3563 19.6900 14.4921 0.0000 0.0000 0.0000
# 3 58.4413 14.4921 116.9473 0.0000 0.0000 0.0000
# 4 0.0000 0.0000 0.0000 19.3077 0.0000 0.0000
# 5 0.0000 0.0000 0.0000 0.0000 16.0040 0.0000
# 6 0.0000 0.0000 0.0000 0.0000 0.0000 7.0258
#
#
#
# Elastic Compliance Matrix: (Units=1/GPa)
#
#
# Indices 1 2 3 4 5 6 
#
# 1 0.010233 -0.001781 -0.004893 0.000000 0.000000 0.000000
# 2 -0.001781 0.056194 -0.006074 0.000000 0.000000 0.000000
# 3 -0.004893 -0.006074 0.011749 0.000000 0.000000 0.000000
# 4 0.000000 0.000000 0.000000 0.051793 0.000000 0.000000
# 5 0.000000 0.000000 0.000000 0.000000 0.062484 0.000000
# 6 0.000000 0.000000 0.000000 0.000000 0.000000 0.142332
#
#
# Mechanical properties :
#
#
# Convention : Reuss Voigt Hill
#
# Bulk Modulus (GPa) = 18.98225 47.85414 33.41819
# Shear Modulus (GPa) = 13.23310 20.52205 16.87757
#
# Velocity S-wave (km/s) = 2.72224 3.39005 3.07434
# Velocity P-wave (km/s) = 4.52891 6.49014 5.59611
#
# Compressibility (1/GPa) = 0.05268078
#
# Stress axis : x y z
#
# Youngs Moduli (GPa) = 97.72409 17.79544 85.11647
#
# Poissons Ratio (x) = 0.03169 0.41647
# Poissons Ratio (y) = 0.17404 0.51697
# Poissons Ratio (z) = 0.47816 0.10808
#
# Static dielectric constant tensor:
#      x y z
#    x 1.605250 0.000000 0.000000 
#    y 0.000000 1.591720 0.000000 
#    z 0.000000 0.000000 1.617610 
# 
# From -- ./inp_files/36380.got.cif
#   From: 2010.05.17/outbox.cif.g08.bks.cpg/sg71_19_cif.got.tgz:36380.got - 2010.06.03 16:22:01.
