data_PCOD9520629
_publ_section_title
;
Structure prediction by ZEFSAII (Michael W. Deem and Ramdas Pophale) SiO2 
 PCOD9520629
Probable space group: I M M M
;
_chemical_formula_sum "Si O2"
_cell_formula_units_Z 88
_cell_length_a 13.518740
_cell_length_b 13.293054
_cell_length_c 29.217929
_cell_angle_alpha 90.000000
_cell_angle_beta 90.000000
_cell_angle_gamma 90.000000
_cell_volume 5250.617889
_symmetry_space_group_name_H-M "I M M M"
_symmetry_group_IT_number 71
_symmetry_cell_setting 'orthorhombic'
loop_
_space_group_symop_operation_xyz
x,y,z
-x,-y,z
x,-y,-z
-x,y,-z
-x,-y,-z
x,y,-z
-x,y,z
x,-y,z
1/2+x,1/2+y,1/2+z
1/2-x,1/2-y,1/2+z
1/2+x,1/2-y,1/2-z
1/2-x,1/2+y,1/2-z
1/2-x,1/2-y,1/2-z
1/2+x,1/2+y,1/2-z
1/2-x,1/2+y,1/2+z
1/2+x,1/2-y,1/2+z
loop_
_atom_site_type_symbol
_atom_site_label
_atom_site_fract_x
_atom_site_fract_y
_atom_site_fract_z
Si Si1 0.500000 0.881440 0.054706
Si Si2 0.117299 0.882789 0.658647
Si Si3 0.886293 0.119032 0.055120
Si Si4 0.742834 0.114570 0.801178
Si Si5 0.694283 0.201307 0.896008
Si Si6 0.613839 0.257254 0.747475
O O1 0.599402 0.830861 0.074345
O O2 0.500000 0.000000 0.066839
O O3 0.500000 0.873468 0.000000
O O4 0.177387 0.813930 0.623164
O O5 0.127355 0.832367 0.708899
O O6 0.000000 0.875710 0.647400
O O7 0.144974 0.000000 0.659325
O O8 0.797713 0.180652 0.078429
O O9 0.000000 0.145678 0.068185
O O10 0.872391 0.000000 0.066071
O O11 0.879343 0.128439 0.000000
O O12 0.695118 0.132345 0.850441
O O13 0.668393 0.155809 0.762576
O O14 0.835730 0.188502 0.795190
O O15 0.770688 0.000000 0.794494
O O16 0.500000 0.239730 0.740146
#
# Coordination Sequence:
#
# PCOD9520629 Si02
#       6
#     8  16  16  16  16  16
#     4  11  22  34  51  77 109 139 164 202 263 327
#     4   9  17  32  53  73  99 136 173 209 253 305
#     4   9  18  33  52  73 100 135 169 200 244 306
#     4  10  20  31  48  75 104 132 166 211 256 297
#     4  11  20  33  51  79 104 130 169 212 257 306
#     4   9  19  34  49  70  99 136 176 206 245 301
#
# _framework density 16.759931999999999
#
# number of rings (size 3 to 8) (size 9 to 14) (size 15 to 20)
#    0.000    2.273    0.909    3.273    1.273    3.636 
#    0.000    0.000    0.000    3.273    0.000    1.273 
#    0.000    0.000    0.000    0.000    0.000    0.000 
#
# Total GULP energy -245310.254761 kJ/mol
# GULP energy per Si atom -5575.233063 kJ/mol
# Density = 1.672179 g / cm^3
# Si number density = 16.759932 Si / 1000 Ang^3
#
#
#
# Elastic Constant Matrix: (Units=GPa)
#
#
# Indices 1 2 3 4 5 6 
#
# 1 -420.7470 -810.0073 -332.3016 0.0000 0.0000 0.0000
# 2 -810.0073-1247.7579 -537.5332 0.0000 0.0000 0.0000
# 3 -332.3016 -537.5332 -200.1641 0.0000 0.0000 0.0000
# 4 0.0000 0.0000 0.0000 17.1452 0.0000 0.0000
# 5 0.0000 0.0000 0.0000 0.0000 28.9394 0.0000
# 6 0.0000 0.0000 0.0000 0.0000 0.0000 17.9525
#
#
#
# Elastic Compliance Matrix: (Units=1/GPa)
#
#
# Indices 1 2 3 4 5 6 
#
# 1 0.010389 -0.004371 -0.005507 0.000000 0.000000 0.000000
# 2 -0.004371 0.006948 -0.011400 0.000000 0.000000 0.000000
# 3 -0.005507 -0.011400 0.034762 0.000000 0.000000 0.000000
# 4 0.000000 0.000000 0.000000 0.058325 0.000000 0.000000
# 5 0.000000 0.000000 0.000000 0.000000 0.034555 0.000000
# 6 0.000000 0.000000 0.000000 0.000000 0.000000 0.055702
#
#
# Mechanical properties :
#
#
# Convention : Reuss Voigt Hill
#
# Bulk Modulus (GPa) = 104.82051 -580.92813 -238.05381
# Shear Modulus (GPa) = 20.29068 0.21899 10.25484
#
# Velocity S-wave (km/s) = 3.48324 0.36186 2.47628
# Velocity P-wave (km/s) = 8.88005 18.63317 11.58317
#
# Compressibility (1/GPa) = 0.00954012
#
# Stress axis : x y z
#
# Youngs Moduli (GPa) = 96.25940 143.93647 28.76713
#
# Poissons Ratio (x) = 0.62920 0.15843
# Poissons Ratio (y) = 0.42079 0.32795
# Poissons Ratio (z) = 0.53014 1.64090
#
# Static dielectric constant tensor:
#      x y z
#    x 1.578380 0.000000 0.000000 
#    y 0.000000 1.548700 0.000000 
#    z 0.000000 0.000000 1.568780 
# 
# From -- ./inp_files/28619.got.cif
#   From: 2010.05.17/outbox.cif.g08.bks.cpg/sg71_15_cif.got.tgz:28619.got - 2010.06.03 16:22:01.
