data_PCOD9520668
_publ_section_title
;
Structure prediction by ZEFSAII (Michael W. Deem and Ramdas Pophale) SiO2 
 PCOD9520668
Probable space group: I M M M
;
_chemical_formula_sum "Si O2"
_cell_formula_units_Z 104
_cell_length_a 21.961647
_cell_length_b 9.268259
_cell_length_c 30.537106
_cell_angle_alpha 90.000000
_cell_angle_beta 90.000000
_cell_angle_gamma 90.000000
_cell_volume 6215.712877
_symmetry_space_group_name_H-M "I M M M"
_symmetry_group_IT_number 71
_symmetry_cell_setting 'orthorhombic'
loop_
_space_group_symop_operation_xyz
x,y,z
-x,-y,z
x,-y,-z
-x,y,-z
-x,-y,-z
x,y,-z
-x,y,z
x,-y,z
1/2+x,1/2+y,1/2+z
1/2-x,1/2-y,1/2+z
1/2+x,1/2-y,1/2-z
1/2-x,1/2+y,1/2-z
1/2-x,1/2-y,1/2-z
1/2+x,1/2+y,1/2-z
1/2-x,1/2+y,1/2+z
1/2+x,1/2-y,1/2+z
loop_
_atom_site_type_symbol
_atom_site_label
_atom_site_fract_x
_atom_site_fract_y
_atom_site_fract_z
Si Si1 0.207405 0.330841 0.387276
Si Si2 0.186715 0.166263 0.700029
Si Si3 0.121378 0.833724 0.447396
Si Si4 0.647711 0.329926 0.625706
Si Si5 0.500000 0.834080 0.053378
Si Si6 0.072730 0.328493 0.050396
Si Si7 0.333754 0.833433 0.286056
O O1 0.193029 0.500000 0.388574
O O2 0.179112 0.257203 0.344093
O O3 0.179097 0.248302 0.428141
O O4 0.280357 0.315639 0.385156
O O5 0.260080 0.165050 0.707850
O O6 0.156460 0.244156 0.741579
O O7 0.167405 0.000000 0.695645
O O8 0.122656 0.831482 0.500000
O O9 0.060539 0.750239 0.432864
O O10 0.120255 0.000000 0.433128
O O11 0.634553 0.500000 0.630803
O O12 0.608942 0.260624 0.586624
O O13 0.638881 0.245572 0.671486
O O14 0.500000 0.000000 0.067886
O O15 0.500000 0.834787 0.000000
O O16 0.084532 0.500000 0.055865
O O17 0.000000 0.306995 0.055049
O O18 0.089015 0.290185 0.000000
O O19 0.353447 0.000000 0.282855
#
# Coordination Sequence:
#
# PCOD9520668 Si02
#       7
#    16  16  16  16   8  16  16
#     4  10  20  32  46  69 102 135 166 201 246 299
#     4   9  16  27  44  67  96 127 160 198 239 284
#     4  10  20  33  49  70  96 127 165 206 245 286
#     4  10  20  32  48  73 102 130 163 204 249 296
#     4   9  17  31  51  71  91 119 157 199 239 279
#     4   9  19  36  55  73  95 127 168 211 255 306
#     4   9  16  27  45  68  95 127 160 195 237 286
#
# _framework density 16.731788999999999
#
# number of rings (size 3 to 8) (size 9 to 14) (size 15 to 20)
#    0.000    2.538    0.000    3.000    0.000    8.615 
#    0.000    3.846    0.000    0.000    2.000    0.000 
#    0.000    0.000    0.000    0.000    0.000    0.000 
#
# Total GULP energy -289902.719808 kJ/mol
# GULP energy per Si atom -5575.052304 kJ/mol
# Density = 1.669371 g / cm^3
# Si number density = 16.731789 Si / 1000 Ang^3
#
#
#
# Elastic Constant Matrix: (Units=GPa)
#
#
# Indices 1 2 3 4 5 6 
#
# 1 22.7857 42.4957 30.6895 0.0000 0.0000 0.0000
# 2 42.4957 156.4039 69.1070 0.0000 0.0000 0.0000
# 3 30.6895 69.1070 88.9480 0.0000 0.0000 0.0000
# 4 0.0000 0.0000 0.0000 33.0156 0.0000 0.0000
# 5 0.0000 0.0000 0.0000 0.0000 7.8843 0.0000
# 6 0.0000 0.0000 0.0000 0.0000 0.0000 23.8181
#
#
#
# Elastic Compliance Matrix: (Units=1/GPa)
#
#
# Indices 1 2 3 4 5 6 
#
# 1 0.113508 -0.020612 -0.023149 0.000000 0.000000 0.000000
# 2 -0.020612 0.013479 -0.003361 0.000000 0.000000 0.000000
# 3 -0.023149 -0.003361 0.021840 0.000000 0.000000 0.000000
# 4 0.000000 0.000000 0.000000 0.030289 0.000000 0.000000
# 5 0.000000 0.000000 0.000000 0.000000 0.126834 0.000000
# 6 0.000000 0.000000 0.000000 0.000000 0.000000 0.041985
#
#
# Mechanical properties :
#
#
# Convention : Reuss Voigt Hill
#
# Bulk Modulus (GPa) = 18.32033 61.41355 39.86694
# Shear Modulus (GPa) = 10.86075 21.33329 16.09702
#
# Velocity S-wave (km/s) = 2.55052 3.57461 3.10508
# Velocity P-wave (km/s) = 4.43247 7.33631 6.06087
#
# Compressibility (1/GPa) = 0.05458416
#
# Stress axis : x y z
#
# Youngs Moduli (GPa) = 8.80993 74.18923 45.78662
#
# Poissons Ratio (x) = 1.52922 1.05991
# Poissons Ratio (y) = 0.18159 0.15387
# Poissons Ratio (z) = 0.20394 0.24932
#
# Static dielectric constant tensor:
#      x y z
#    x 1.544230 0.000000 0.000000 
#    y 0.000000 1.559980 0.000000 
#    z 0.000000 0.000000 1.561680 
# 
# From -- ./inp_files/56705.got.cif
#   From: 2010.05.17/outbox.cif.g08.bks.cpg/sg71_29_cif.got.tgz:56705.got - 2010.06.03 16:22:01.
