data_PCOD9520773
_publ_section_title
;
Structure prediction by ZEFSAII (Michael W. Deem and Ramdas Pophale) SiO2 
 PCOD9520773
Probable space group: I M M M
;
_chemical_formula_sum "Si O2"
_cell_formula_units_Z 88
_cell_length_a 13.192384
_cell_length_b 24.566295
_cell_length_c 15.797239
_cell_angle_alpha 90.000000
_cell_angle_beta 90.000000
_cell_angle_gamma 90.000000
_cell_volume 5119.695547
_symmetry_space_group_name_H-M "I M M M"
_symmetry_group_IT_number 71
_symmetry_cell_setting 'orthorhombic'
loop_
_space_group_symop_operation_xyz
x,y,z
-x,-y,z
x,-y,-z
-x,y,-z
-x,-y,-z
x,y,-z
-x,y,z
x,-y,z
1/2+x,1/2+y,1/2+z
1/2-x,1/2-y,1/2+z
1/2+x,1/2-y,1/2-z
1/2-x,1/2+y,1/2-z
1/2-x,1/2-y,1/2-z
1/2+x,1/2+y,1/2-z
1/2-x,1/2+y,1/2+z
1/2+x,1/2-y,1/2+z
loop_
_atom_site_type_symbol
_atom_site_label
_atom_site_fract_x
_atom_site_fract_y
_atom_site_fract_z
Si Si1 0.307277 0.436395 0.182011
Si Si2 0.786660 0.340451 0.402383
Si Si3 0.883464 0.164954 0.765229
Si Si4 0.120302 0.776903 0.406223
Si Si5 0.883774 0.065982 0.500000
Si Si6 0.881583 0.436784 0.704924
O O1 0.333754 0.500000 0.189275
O O2 0.375364 0.398737 0.241462
O O3 0.327846 0.418609 0.086006
O O4 0.192038 0.429864 0.214053
O O5 0.759567 0.350434 0.500000
O O6 0.689338 0.326645 0.344724
O O7 0.857763 0.287300 0.399315
O O8 0.842190 0.392947 0.362774
O O9 0.842476 0.194836 0.680144
O O10 0.000000 0.180785 0.780290
O O11 0.159540 0.794299 0.500000
O O12 0.000000 0.786893 0.406891
O O13 0.000000 0.085982 0.500000
O O14 0.887830 0.000000 0.500000
O O15 0.869491 0.500000 0.676841
O O16 0.000000 0.428079 0.723351
#
# Coordination Sequence:
#
# PCOD9520773 Si02
#       6
#    16  16  16  16   8  16
#     4   9  18  31  47  71 101 131 162 199 245 291
#     4  10  20  34  51  71  98 130 163 203 249 294
#     4  10  20  32  49  72  99 132 166 201 240 288
#     4   9  18  32  51  75  98 121 156 202 250 295
#     4   9  16  26  43  67  95 129 166 198 230 276
#     4   9  18  33  52  73  97 125 160 203 250 298
#
# _framework density 17.188521999999999
#
# number of rings (size 3 to 8) (size 9 to 14) (size 15 to 20)
#    0.000    2.636    0.000    1.636    1.273    2.909 
#    0.000    1.364    0.000    2.727    0.000    5.091 
#    0.000    0.000    0.000    0.000    0.000    0.000 
#
# Total GULP energy -245101.871324 kJ/mol
# GULP energy per Si atom -5570.497076 kJ/mol
# Density = 1.714940 g / cm^3
# Si number density = 17.188522 Si / 1000 Ang^3
#
#
#
# Elastic Constant Matrix: (Units=GPa)
#
#
# Indices 1 2 3 4 5 6 
#
# 1 63.1281 21.1240 46.6684 0.0000 0.0000 0.0000
# 2 21.1240 60.1234 38.4990 0.0002 0.0000 0.0000
# 3 46.6684 38.4990 125.1477 0.0003 0.0000 0.0000
# 4 0.0000 0.0002 0.0003 27.3565 0.0000 0.0000
# 5 0.0000 0.0000 0.0000 0.0000 16.4984 0.0000
# 6 0.0000 0.0000 0.0000 0.0000 0.0000 15.1318
#
#
#
# Elastic Compliance Matrix: (Units=1/GPa)
#
#
# Indices 1 2 3 4 5 6 
#
# 1 0.022333 -0.003130 -0.007365 0.000000 0.000000 0.000000
# 2 -0.003130 0.021151 -0.005339 0.000000 0.000000 0.000000
# 3 -0.007365 -0.005339 0.012380 0.000000 0.000000 0.000000
# 4 0.000000 0.000000 0.000000 0.036554 0.000000 0.000000
# 5 0.000000 0.000000 0.000000 0.000000 0.060612 0.000000
# 6 0.000000 0.000000 0.000000 0.000000 0.000000 0.066086
#
#
# Mechanical properties :
#
#
# Convention : Reuss Voigt Hill
#
# Bulk Modulus (GPa) = 41.33242 51.22022 46.27632
# Shear Modulus (GPa) = 19.31614 21.27120 20.29367
#
# Velocity S-wave (km/s) = 3.35592 3.52166 3.43979
# Velocity P-wave (km/s) = 6.25420 6.81175 6.53892
#
# Compressibility (1/GPa) = 0.02419408
#
# Stress axis : x y z
#
# Youngs Moduli (GPa) = 44.77656 47.27841 80.77799
#
# Poissons Ratio (x) = 0.14800 0.59494
# Poissons Ratio (y) = 0.14017 0.43130
# Poissons Ratio (z) = 0.32979 0.25244
#
# Static dielectric constant tensor:
#      x y z
#    x 1.567900 0.000000 0.000000 
#    y 0.000000 1.615360 0.000000 
#    z 0.000000 0.000000 1.587620 
# 
# From -- ./inp_files/21994.got.cif
#   From: 2010.05.17/outbox.cif.g08.bks.cpg/sg71_11_cif.got.tgz:21994.got - 2010.06.03 16:22:01.
