data_PCOD9520197
_publ_section_title
;
Structure prediction by ZEFSAII (Michael W. Deem and Ramdas Pophale) SiO2 
 PCOD9520197
Probable space group: I M M M
;
_chemical_formula_sum "Si O2"
_cell_formula_units_Z 104
_cell_length_a 7.631191
_cell_length_b 19.034933
_cell_length_c 33.264327
_cell_angle_alpha 90.000000
_cell_angle_beta 90.000000
_cell_angle_gamma 90.000000
_cell_volume 4831.949841
_symmetry_space_group_name_H-M "I M M M"
_symmetry_group_IT_number 71
_symmetry_cell_setting 'orthorhombic'
loop_
_space_group_symop_operation_xyz
x,y,z
-x,-y,z
x,-y,-z
-x,y,-z
-x,-y,-z
x,y,-z
-x,y,z
x,-y,z
1/2+x,1/2+y,1/2+z
1/2-x,1/2-y,1/2+z
1/2+x,1/2-y,1/2-z
1/2-x,1/2+y,1/2-z
1/2-x,1/2-y,1/2-z
1/2+x,1/2+y,1/2-z
1/2-x,1/2+y,1/2+z
1/2+x,1/2-y,1/2+z
loop_
_atom_site_type_symbol
_atom_site_label
_atom_site_fract_x
_atom_site_fract_y
_atom_site_fract_z
Si Si1 0.711334 0.921540 0.255802
Si Si2 0.209905 0.661337 0.831520
Si Si3 0.285390 0.419229 0.000000
Si Si4 0.208569 0.921648 0.114595
Si Si5 0.288562 0.820593 0.954101
Si Si6 0.290447 0.318616 0.316773
Si Si7 0.710503 0.329289 0.076730
O O1 0.500000 0.925115 0.256252
O O2 0.774083 0.896063 0.299623
O O3 0.758181 0.861406 0.223901
O O4 0.776158 0.000000 0.245240
O O5 0.278295 0.739125 0.819582
O O6 0.246051 0.647555 0.878249
O O7 0.000000 0.662848 0.827118
O O8 0.227828 0.378722 0.959692
O O9 0.230015 0.500000 0.000000
O O10 0.500000 0.418250 0.000000
O O11 0.236549 0.888525 0.070980
O O12 0.281233 0.866795 0.147106
O O13 0.000000 0.925747 0.121475
O O14 0.280987 0.000000 0.118722
O O15 0.500000 0.817819 0.954895
O O16 0.225113 0.750095 0.931577
O O17 0.226842 0.820615 0.000000
O O18 0.500000 0.313066 0.321823
O O19 0.500000 0.327626 0.073948
#
# Coordination Sequence:
#
# PCOD9520197 Si02
#       7
#    16  16   8  16  16  16  16
#     4  10  22  38  55  79 112 146 177 216 271 326
#     4  10  21  37  57  81 110 143 180 223 271 323
#     4   9  18  34  57  85 116 147 182 228 277 319
#     4  10  21  36  54  79 110 142 179 223 271 321
#     4  10  20  35  55  78 107 142 180 223 269 317
#     4  10  20  36  58  81 106 141 184 226 267 316
#     4  10  19  34  57  83 109 141 182 225 268 318
#
# _framework density 21.523402999999998
#
# number of rings (size 3 to 8) (size 9 to 14) (size 15 to 20)
#    0.000    2.077    2.308    0.923    0.000    4.308 
#    0.000    1.923    0.000    0.462    0.000    0.000 
#    0.000    0.000    0.000    0.000    0.000    0.000 
#
# Total GULP energy -290475.008856 kJ/mol
# GULP energy per Si atom -5586.057863 kJ/mol
# Density = 2.147442 g / cm^3
# Si number density = 21.523403 Si / 1000 Ang^3
#
#
#
# Elastic Constant Matrix: (Units=GPa)
#
#
# Indices 1 2 3 4 5 6 
#
# 1 39.3852 2.6219 -13.7332 0.0000 0.0000 0.0000
# 2 2.6219 84.6782 15.8812 0.0000 0.0000 0.0000
# 3 -13.7332 15.8812 109.6180 0.0000 0.0000 0.0000
# 4 0.0000 0.0000 0.0000 -0.7489 0.0000 0.0000
# 5 0.0000 0.0000 0.0000 0.0000 26.6329 0.0000
# 6 0.0000 0.0000 0.0000 0.0000 0.0000 4.5998
#
#
#
# Elastic Compliance Matrix: (Units=1/GPa)
#
#
# Indices 1 2 3 4 5 6 
#
# 1 0.026733 -0.001497 0.003566 0.000000 0.000000 0.000000
# 2 -0.001497 0.012223 -0.001958 0.000000 0.000000 0.000000
# 3 0.003566 -0.001958 0.009853 0.000000 0.000000 0.000000
# 4 0.000000 0.000000 0.000000 -1.335265 0.000000 0.000000
# 5 0.000000 0.000000 0.000000 0.000000 0.037548 0.000000
# 6 0.000000 0.000000 0.000000 0.000000 0.000000 0.217399
#
#
# Mechanical properties :
#
#
# Convention : Reuss Voigt Hill
#
# Bulk Modulus (GPa) = 20.39497 27.02459 23.70978
# Shear Modulus (GPa) = -4.92423 21.35753 8.21665
#
# Velocity S-wave (km/s) = -1.51421 3.15349 1.95597
# Velocity P-wave (km/s) = 2.53756 5.08355 4.01757
#
# Compressibility (1/GPa) = 0.04903169
#
# Stress axis : x y z
#
# Youngs Moduli (GPa) = 37.40649 81.81278 101.49128
#
# Poissons Ratio (x) = 0.12244 -0.36192
# Poissons Ratio (y) = 0.05598 0.19875
# Poissons Ratio (z) = -0.13339 0.16022
#
# Static dielectric constant tensor:
#      x y z
#    x 1.829730 0.000000 0.000000 
#    y 0.000000 1.776120 0.000000 
#    z 0.000000 0.000000 1.758310 
# 
# From -- ./inp_files/63308.got.cif
#   From: 2010.05.17/outbox.cif.g08.bks.cpg/sg71_32_cif.got.tgz:63308.got - 2010.06.03 16:22:01.
