data_PCOD9520770
_publ_section_title
;
Structure prediction by ZEFSAII (Michael W. Deem and Ramdas Pophale) SiO2 
 PCOD9520770
Probable space group: I M M M
;
_chemical_formula_sum "Si O2"
_cell_formula_units_Z 120
_cell_length_a 17.360269
_cell_length_b 19.936108
_cell_length_c 21.205625
_cell_angle_alpha 90.000000
_cell_angle_beta 90.000000
_cell_angle_gamma 90.000000
_cell_volume 7339.186182
_symmetry_space_group_name_H-M "I M M M"
_symmetry_group_IT_number 71
_symmetry_cell_setting 'orthorhombic'
loop_
_space_group_symop_operation_xyz
x,y,z
-x,-y,z
x,-y,-z
-x,y,-z
-x,-y,-z
x,y,-z
-x,y,z
x,-y,z
1/2+x,1/2+y,1/2+z
1/2-x,1/2-y,1/2+z
1/2+x,1/2-y,1/2-z
1/2-x,1/2+y,1/2-z
1/2-x,1/2-y,1/2-z
1/2+x,1/2+y,1/2-z
1/2-x,1/2+y,1/2+z
1/2+x,1/2-y,1/2+z
loop_
_atom_site_type_symbol
_atom_site_label
_atom_site_fract_x
_atom_site_fract_y
_atom_site_fract_z
Si Si1 0.410171 0.675460 0.206232
Si Si2 0.711956 0.424337 0.249898
Si Si3 0.193413 0.621577 0.128549
Si Si4 0.412090 0.172689 0.071846
Si Si5 0.913194 0.310921 0.778285
Si Si6 0.368247 0.921511 0.816226
Si Si7 0.341371 0.684741 0.928715
Si Si8 0.090213 0.500000 0.075845
O O1 0.500000 0.663467 0.215806
O O2 0.356400 0.628329 0.248194
O O3 0.393119 0.751685 0.228991
O O4 0.389380 0.662099 0.132938
O O5 0.683172 0.500000 0.254271
O O6 0.757742 0.414686 0.183894
O O7 0.777056 0.413231 0.302655
O O8 0.145227 0.679455 0.164325
O O9 0.255812 0.655464 0.082286
O O10 0.136057 0.566201 0.099534
O O11 0.500000 0.197699 0.085654
O O12 0.392350 0.114222 0.119775
O O13 0.353202 0.234869 0.075740
O O14 0.411536 0.148609 0.000000
O O15 0.908936 0.380209 0.739513
O O16 0.000000 0.299102 0.800525
O O17 0.386496 0.000000 0.814334
O O18 0.367531 0.666177 0.000000
O O19 0.000000 0.500000 0.096441
O O20 0.091262 0.500000 0.000000
#
# Coordination Sequence:
#
# PCOD9520770 Si02
#       8
#    16  16  16  16  16  16  16   8
#     4  10  20  33  53  77 102 132 165 210 264 309
#     4   9  19  34  52  75  99 130 167 209 258 308
#     4  10  20  34  52  72  99 133 171 210 249 304
#     4  10  20  33  49  72 103 136 172 212 253 300
#     4  10  20  32  49  76 103 129 164 209 258 306
#     4  10  20  32  49  72 101 138 173 207 251 308
#     4  10  20  33  52  73  97 133 174 211 248 298
#     4  11  22  36  54  76 105 139 172 212 261 310
#
# _framework density 16.350586
#
# number of rings (size 3 to 8) (size 9 to 14) (size 15 to 20)
#    0.000    2.067    2.000    1.600    2.800    4.000 
#    0.000    0.667    0.000    0.000    0.000    1.867 
#    0.000    0.533    0.000    2.933    0.000    0.000 
#
# Total GULP energy -334272.029200 kJ/mol
# GULP energy per Si atom -5571.200487 kJ/mol
# Density = 1.631337 g / cm^3
# Si number density = 16.350586 Si / 1000 Ang^3
#
#
#
# Elastic Constant Matrix: (Units=GPa)
#
#
# Indices 1 2 3 4 5 6 
#
# 1 82.9129 52.1678 24.7739 0.0000 0.0000 0.0000
# 2 52.1678 69.0049 18.3886 0.0000 0.0000 0.0000
# 3 24.7739 18.3886 46.5218 0.0000 0.0000 0.0000
# 4 0.0000 0.0000 0.0000 17.0860 0.0000 0.0000
# 5 0.0000 0.0000 0.0000 0.0000 20.8308 0.0000
# 6 0.0000 0.0000 0.0000 0.0000 0.0000 -15.4890
#
#
#
# Elastic Compliance Matrix: (Units=1/GPa)
#
#
# Indices 1 2 3 4 5 6 
#
# 1 0.024610 -0.016892 -0.006428 0.000000 0.000000 0.000000
# 2 -0.016892 0.027793 -0.001990 0.000000 0.000000 0.000000
# 3 -0.006428 -0.001990 0.025705 0.000000 0.000000 0.000000
# 4 0.000000 0.000000 0.000000 0.058527 0.000000 0.000000
# 5 0.000000 0.000000 0.000000 0.000000 0.048006 0.000000
# 6 0.000000 0.000000 0.000000 0.000000 0.000000 -0.064562
#
#
# Mechanical properties :
#
#
# Convention : Reuss Voigt Hill
#
# Bulk Modulus (GPa) = 36.38160 43.23336 39.80748
# Shear Modulus (GPa) = 27.79907 11.35952 19.57929
#
# Velocity S-wave (km/s) = 4.12781 2.63866 3.46420
# Velocity P-wave (km/s) = 6.70952 5.98183 6.35610
#
# Compressibility (1/GPa) = 0.02748642
#
# Stress axis : x y z
#
# Youngs Moduli (GPa) = 40.63404 35.98092 38.90268
#
# Poissons Ratio (x) = 0.60779 0.25008
# Poissons Ratio (y) = 0.68639 0.07742
# Poissons Ratio (z) = 0.26121 0.07161
#
# Static dielectric constant tensor:
#      x y z
#    x 1.563480 0.000000 0.000000 
#    y 0.000000 1.541990 0.000000 
#    z 0.000000 0.000000 1.558580 
# 
# From -- ./inp_files/53436.got.cif
#   From: 2010.05.17/outbox.cif.g08.bks.cpg/sg71_27_cif.got.tgz:53436.got - 2010.06.03 16:22:01.
