data_PCOD9520641
_publ_section_title
;
Structure prediction by ZEFSAII (Michael W. Deem and Ramdas Pophale) SiO2 
 PCOD9520641
Probable space group: I M M M
;
_chemical_formula_sum "Si O2"
_cell_formula_units_Z 88
_cell_length_a 20.421402
_cell_length_b 12.064193
_cell_length_c 20.097285
_cell_angle_alpha 90.000000
_cell_angle_beta 90.000000
_cell_angle_gamma 90.000000
_cell_volume 4951.322586
_symmetry_space_group_name_H-M "I M M M"
_symmetry_group_IT_number 71
_symmetry_cell_setting 'orthorhombic'
loop_
_space_group_symop_operation_xyz
x,y,z
-x,-y,z
x,-y,-z
-x,y,-z
-x,-y,-z
x,y,-z
-x,y,z
x,-y,z
1/2+x,1/2+y,1/2+z
1/2-x,1/2-y,1/2+z
1/2+x,1/2-y,1/2-z
1/2-x,1/2+y,1/2-z
1/2-x,1/2-y,1/2-z
1/2+x,1/2+y,1/2-z
1/2-x,1/2+y,1/2+z
1/2+x,1/2-y,1/2+z
loop_
_atom_site_type_symbol
_atom_site_label
_atom_site_fract_x
_atom_site_fract_y
_atom_site_fract_z
Si Si1 0.321062 0.743068 0.782867
Si Si2 0.924989 0.631927 0.191388
Si Si3 0.644991 0.500000 0.072280
Si Si4 0.284702 0.264034 0.073815
Si Si5 0.129044 0.774407 0.077466
Si Si6 0.119505 0.000000 0.285362
Si Si7 0.924956 0.000000 0.860767
O O1 0.250000 0.750000 0.750000
O O2 0.374183 0.811113 0.741451
O O3 0.317003 0.783798 0.859369
O O4 0.340043 0.613609 0.780307
O O5 0.917526 0.500000 0.192129
O O6 0.908678 0.681227 0.119007
O O7 0.000000 0.660399 0.208756
O O8 0.691532 0.608043 0.074547
O O9 0.598020 0.500000 0.136856
O O10 0.611359 0.500000 0.000000
O O11 0.206655 0.250918 0.081379
O O12 0.302291 0.219441 0.000000
O O13 0.111506 0.891160 0.111973
O O14 0.110726 0.777883 0.000000
O O15 0.075145 0.000000 0.219748
O O16 0.000000 0.000000 0.884265
#
# Coordination Sequence:
#
# PCOD9520641 Si02
#       7
#    16  16   8  16  16   8   8
#     4  11  20  35  59  87 115 150 194 241 286 342
#     4  11  25  41  58  83 117 155 195 242 293 346
#     4   8  16  30  53  84 118 143 167 219 291 345
#     4   9  18  33  55  87 118 146 182 233 289 338
#     4  11  23  38  57  81 113 151 192 233 281 341
#     4  10  20  31  56  85 107 144 191 230 283 335
#     4  12  23  38  54  75 110 151 191 230 275 333
#
# _framework density 17.773029000000001
#
# number of rings (size 3 to 8) (size 9 to 14) (size 15 to 20)
#    0.000    1.636    3.636    0.818    2.545    2.182 
#    1.636    0.909    0.000    0.818    0.000    6.364 
#    0.000    0.000    0.000    0.000    0.000    0.000 
#
# Total GULP energy -245255.312303 kJ/mol
# GULP energy per Si atom -5573.984371 kJ/mol
# Density = 1.773258 g / cm^3
# Si number density = 17.773029 Si / 1000 Ang^3
#
#
#
# Elastic Constant Matrix: (Units=GPa)
#
#
# Indices 1 2 3 4 5 6 
#
# 1 72.6046 30.9510 61.3292 0.0000 0.0000 0.0000
# 2 30.9510 53.6978 44.0690 0.0000 0.0000 0.0000
# 3 61.3292 44.0690 176.1160 0.0000 0.0000 0.0000
# 4 0.0000 0.0000 0.0000 21.8135 0.0000 0.0000
# 5 0.0000 0.0000 0.0000 0.0000 21.3673 0.0000
# 6 0.0000 0.0000 0.0000 0.0000 0.0000 9.3192
#
#
#
# Elastic Compliance Matrix: (Units=1/GPa)
#
#
# Indices 1 2 3 4 5 6 
#
# 1 0.021958 -0.008030 -0.005637 0.000000 0.000000 0.000000
# 2 -0.008030 0.026372 -0.003803 0.000000 0.000000 0.000000
# 3 -0.005637 -0.003803 0.008593 0.000000 0.000000 0.000000
# 4 0.000000 0.000000 0.000000 0.045843 0.000000 0.000000
# 5 0.000000 0.000000 0.000000 0.000000 0.046801 0.000000
# 6 0.000000 0.000000 0.000000 0.000000 0.000000 0.107305
#
#
# Mechanical properties :
#
#
# Convention : Reuss Voigt Hill
#
# Bulk Modulus (GPa) = 45.48992 63.90185 54.69589
# Shear Modulus (GPa) = 16.71459 21.57126 19.14293
#
# Velocity S-wave (km/s) = 3.07000 3.48761 3.28545
# Velocity P-wave (km/s) = 6.18199 7.22844 6.72560
#
# Compressibility (1/GPa) = 0.02198289
#
# Stress axis : x y z
#
# Youngs Moduli (GPa) = 45.54108 37.91897 116.37864
#
# Poissons Ratio (x) = 0.30450 0.65605
# Poissons Ratio (y) = 0.36570 0.44254
# Poissons Ratio (z) = 0.25672 0.14419
#
# Static dielectric constant tensor:
#      x y z
#    x 1.581710 0.000000 0.000000 
#    y 0.000000 1.583830 0.000000 
#    z 0.000000 0.000000 1.665230 
# 
# From -- ./inp_files/53968.got.cif
#   From: 2010.05.17/outbox.cif.g08.bks.cpg/sg71_27_cif.got.tgz:53968.got - 2010.06.03 16:22:01.
