data_PCOD9520780
_publ_section_title
;
Structure prediction by ZEFSAII (Michael W. Deem and Ramdas Pophale) SiO2 
 PCOD9520780
Probable space group: I M M M
;
_chemical_formula_sum "Si O2"
_cell_formula_units_Z 104
_cell_length_a 21.032541
_cell_length_b 8.722931
_cell_length_c 32.710776
_cell_angle_alpha 90.000000
_cell_angle_beta 90.000000
_cell_angle_gamma 90.000000
_cell_volume 6001.295731
_symmetry_space_group_name_H-M "I M M M"
_symmetry_group_IT_number 71
_symmetry_cell_setting 'orthorhombic'
loop_
_space_group_symop_operation_xyz
x,y,z
-x,-y,z
x,-y,-z
-x,y,-z
-x,-y,-z
x,y,-z
-x,y,z
x,-y,z
1/2+x,1/2+y,1/2+z
1/2-x,1/2-y,1/2+z
1/2+x,1/2-y,1/2-z
1/2-x,1/2+y,1/2-z
1/2-x,1/2-y,1/2-z
1/2+x,1/2+y,1/2-z
1/2-x,1/2+y,1/2+z
1/2+x,1/2-y,1/2+z
loop_
_atom_site_type_symbol
_atom_site_label
_atom_site_fract_x
_atom_site_fract_y
_atom_site_fract_z
Si Si1 0.428214 0.186973 0.228042
Si Si2 0.632280 0.821400 0.926515
Si Si3 0.427637 0.815369 0.323382
Si Si4 0.261583 0.817254 0.545513
Si Si5 0.691533 0.684001 0.630143
Si Si6 0.677857 0.180886 0.833834
Si Si7 0.000000 0.824462 0.451054
O O1 0.500000 0.236147 0.215741
O O2 0.418617 0.226464 0.275596
O O3 0.370619 0.245410 0.199855
O O4 0.428537 0.000000 0.225501
O O5 0.687644 0.727803 0.948926
O O6 0.644904 0.807920 0.878097
O O7 0.563153 0.760160 0.936614
O O8 0.638512 0.000000 0.937664
O O9 0.500000 0.772798 0.334725
O O10 0.374181 0.740163 0.351083
O O11 0.422703 0.000000 0.326108
O O12 0.282530 0.767923 0.500000
O O13 0.296938 0.741979 0.584015
O O14 0.268160 0.000000 0.548259
O O15 0.694701 0.500000 0.629568
O O16 0.750919 0.742387 0.658274
O O17 0.685301 0.000000 0.824155
O O18 0.000000 0.825269 0.500000
O O19 0.000000 0.000000 0.436418
#
# Coordination Sequence:
#
# PCOD9520780 Si02
#       7
#    16  16  16  16  16  16   8
#     4   8  14  26  47  72  99 134 175 215 251 295
#     4  10  20  32  49  73  99 130 170 219 267 309
#     4   9  18  33  53  77 101 131 172 211 249 301
#     4  10  20  35  55  76 100 132 167 205 252 306
#     4  10  20  33  51  77 107 136 166 207 257 306
#     4   8  16  29  45  72 103 129 167 213 256 302
#     4  11  23  35  45  61  91 133 179 223 267 315
#
# _framework density 17.329592000000002
#
# number of rings (size 3 to 8) (size 9 to 14) (size 15 to 20)
#    0.000    2.692    0.000    3.923    1.077    4.615 
#    0.000    0.000    0.000    5.077    0.000    3.231 
#    0.000    0.000    0.000    0.000    0.000    0.000 
#
# Total GULP energy -289842.233316 kJ/mol
# GULP energy per Si atom -5573.889102 kJ/mol
# Density = 1.729015 g / cm^3
# Si number density = 17.329592 Si / 1000 Ang^3
#
#
#
# Elastic Constant Matrix: (Units=GPa)
#
#
# Indices 1 2 3 4 5 6 
#
# 1 139.0584 34.6615 83.0409 0.0000 0.0000 0.0000
# 2 34.6615 29.3402 27.9690 0.0000 0.0000 0.0000
# 3 83.0409 27.9690 84.7156 0.0000 0.0000 0.0000
# 4 0.0000 0.0000 0.0000 15.8182 0.0000 0.0000
# 5 0.0000 0.0000 0.0000 0.0000 18.1676 0.0000
# 6 0.0000 0.0000 0.0000 0.0000 0.0000 6.3579
#
#
#
# Elastic Compliance Matrix: (Units=1/GPa)
#
#
# Indices 1 2 3 4 5 6 
#
# 1 0.018166 -0.006546 -0.015646 0.000000 0.000000 0.000000
# 2 -0.006546 0.052095 -0.010782 0.000000 0.000000 0.000000
# 3 -0.015646 -0.010782 0.030700 0.000000 0.000000 0.000000
# 4 0.000000 0.000000 0.000000 0.063218 0.000000 0.000000
# 5 0.000000 0.000000 0.000000 0.000000 0.055043 0.000000
# 6 0.000000 0.000000 0.000000 0.000000 0.000000 0.157284
#
#
# Mechanical properties :
#
#
# Convention : Reuss Voigt Hill
#
# Bulk Modulus (GPa) = 28.56102 60.49521 44.52812
# Shear Modulus (GPa) = 11.01017 15.23160 13.12088
#
# Velocity S-wave (km/s) = 2.52333 2.96790 2.75460
# Velocity P-wave (km/s) = 5.00064 6.83586 5.98897
#
# Compressibility (1/GPa) = 0.03501275
#
# Stress axis : x y z
#
# Youngs Moduli (GPa) = 55.04827 19.19572 32.57303
#
# Poissons Ratio (x) = 0.12566 0.50962
# Poissons Ratio (y) = 0.36036 0.35122
# Poissons Ratio (z) = 0.86126 0.20698
#
# Static dielectric constant tensor:
#      x y z
#    x 1.574280 0.000000 0.000000 
#    y 0.000000 1.587710 0.000000 
#    z 0.000000 0.000000 1.584130 
# 
# From -- ./inp_files/70720.got.cif
#   From: 2010.05.17/outbox.cif.g08.bks.cpg/sg71_36_cif.got.tgz:70720.got - 2010.06.03 16:22:01.
