data_PCOD9520517
_publ_section_title
;
Structure prediction by ZEFSAII (Michael W. Deem and Ramdas Pophale) SiO2 
 PCOD9520517
Probable space group: I M M M
;
_chemical_formula_sum "Si O2"
_cell_formula_units_Z 52
_cell_length_a 11.692354
_cell_length_b 30.309080
_cell_length_c 7.728388
_cell_angle_alpha 90.000000
_cell_angle_beta 90.000000
_cell_angle_gamma 90.000000
_cell_volume 2738.820861
_symmetry_space_group_name_H-M "I M M M"
_symmetry_group_IT_number 71
_symmetry_cell_setting 'orthorhombic'
loop_
_space_group_symop_operation_xyz
x,y,z
-x,-y,z
x,-y,-z
-x,y,-z
-x,-y,-z
x,y,-z
-x,y,z
x,-y,z
1/2+x,1/2+y,1/2+z
1/2-x,1/2-y,1/2+z
1/2+x,1/2-y,1/2-z
1/2-x,1/2+y,1/2-z
1/2-x,1/2-y,1/2-z
1/2+x,1/2+y,1/2-z
1/2-x,1/2+y,1/2+z
1/2+x,1/2-y,1/2+z
loop_
_atom_site_type_symbol
_atom_site_label
_atom_site_fract_x
_atom_site_fract_y
_atom_site_fract_z
Si Si1 0.136655 0.112044 0.293384
Si Si2 0.754872 0.699431 0.804888
Si Si3 0.756162 0.051143 0.000000
Si Si4 0.500000 0.168302 0.196762
Si Si5 0.500000 0.918411 0.000000
O O1 0.166196 0.107013 0.500000
O O2 0.180218 0.159955 0.224627
O O3 0.194946 0.075996 0.169689
O O4 0.000000 0.109461 0.279560
O O5 0.750000 0.750000 0.750000
O O6 0.885455 0.683707 0.787775
O O7 0.713973 0.700084 0.000000
O O8 0.618370 0.055801 0.000000
O O9 0.789020 0.000000 0.000000
O O10 0.500000 0.187225 0.000000
O O11 0.500000 0.115817 0.162478
#
# Coordination Sequence:
#
# PCOD9520517 Si02
#       5
#    16  16   8   8   4
#     4  10  23  43  64  92 130 168 210 264 320 386
#     4  11  23  37  59  90 125 167 214 259 312 373
#     4  12  24  44  71  97 124 166 214 271 331 384
#     4  10  19  38  62  81 123 166 200 262 314 366
#     4  10  21  42  68  88 132 164 212 266 319 384
#
# _framework density 18.986274000000002
#
# number of rings (size 3 to 8) (size 9 to 14) (size 15 to 20)
#    0.462    0.923    3.077    2.077    4.308    1.846 
#    0.000    2.308    0.000    1.846    0.000    0.000 
#    0.000    0.000    0.000    0.000    0.000    0.000 
#
# Total GULP energy -144913.131805 kJ/mol
# GULP energy per Si atom -5573.581993 kJ/mol
# Density = 1.894306 g / cm^3
# Si number density = 18.986274 Si / 1000 Ang^3
#
#
#
# Elastic Constant Matrix: (Units=GPa)
#
#
# Indices 1 2 3 4 5 6 
#
# 1 102.0168 48.6904 23.9173 -0.0003 0.0003 0.0003
# 2 48.6904 176.7333 60.2934 0.0003 0.0004 0.0006
# 3 23.9173 60.2934 77.0573 0.0011 0.0038 0.0061
# 4 -0.0003 0.0003 0.0011 27.9187 -0.0002 0.0006
# 5 0.0003 0.0004 0.0038 -0.0002 19.7513 -0.0012
# 6 0.0003 0.0006 0.0061 0.0006 -0.0012 -36.5079
#
#
#
# Elastic Compliance Matrix: (Units=1/GPa)
#
#
# Indices 1 2 3 4 5 6 
#
# 1 0.011408 -0.002640 -0.001476 0.000000 0.000000 0.000000
# 2 -0.002640 0.008329 -0.005698 0.000000 0.000001 -0.000001
# 3 -0.001476 -0.005698 0.017894 -0.000001 -0.000003 0.000003
# 4 0.000000 0.000000 -0.000001 0.035818 0.000000 0.000001
# 5 0.000000 0.000001 -0.000003 0.000000 0.050630 -0.000002
# 6 0.000000 -0.000001 0.000003 0.000001 -0.000002 -0.027391
#
#
# Mechanical properties :
#
#
# Convention : Reuss Voigt Hill
#
# Bulk Modulus (GPa) = 55.54043 69.06772 62.30408
# Shear Modulus (GPa) = 40.87787 17.09284 28.98536
#
# Velocity S-wave (km/s) = 4.64510 3.00371 3.91147
# Velocity P-wave (km/s) = 7.62140 6.96322 7.29973
#
# Compressibility (1/GPa) = 0.01800490
#
# Stress axis : x y z
#
# Youngs Moduli (GPa) = 87.65743 120.05743 55.88540
#
# Poissons Ratio (x) = 0.31690 0.08246
# Poissons Ratio (y) = 0.23138 0.31844
# Poissons Ratio (z) = 0.12934 0.68409
#
# Static dielectric constant tensor:
#      x y z
#    x 1.655550 0.000000 0.000000 
#    y 0.000000 1.695420 0.000000 
#    z 0.000000 0.000000 1.669110 
# 
# From -- ./inp_files/3530.got.cif
#   From: 2010.05.17/outbox.cif.g08.bks.cpg/sg71_2_cif.got.tgz:3530.got - 2010.06.03 16:22:01.
