data_PCOD9520348
_publ_section_title
;
Structure prediction by ZEFSAII (Michael W. Deem and Ramdas Pophale) SiO2 
 PCOD9520348
Probable space group: I M M M
;
_chemical_formula_sum "Si O2"
_cell_formula_units_Z 100
_cell_length_a 30.440506
_cell_length_b 7.488214
_cell_length_c 21.425994
_cell_angle_alpha 90.000000
_cell_angle_beta 90.000000
_cell_angle_gamma 90.000000
_cell_volume 4883.948699
_symmetry_space_group_name_H-M "I M M M"
_symmetry_group_IT_number 71
_symmetry_cell_setting 'orthorhombic'
loop_
_space_group_symop_operation_xyz
x,y,z
-x,-y,z
x,-y,-z
-x,y,-z
-x,-y,-z
x,y,-z
-x,y,z
x,-y,z
1/2+x,1/2+y,1/2+z
1/2-x,1/2-y,1/2+z
1/2+x,1/2-y,1/2-z
1/2-x,1/2+y,1/2-z
1/2-x,1/2-y,1/2-z
1/2+x,1/2+y,1/2-z
1/2-x,1/2+y,1/2+z
1/2+x,1/2-y,1/2+z
loop_
_atom_site_type_symbol
_atom_site_label
_atom_site_fract_x
_atom_site_fract_y
_atom_site_fract_z
Si Si1 0.636836 0.781138 0.929705
Si Si2 0.895057 0.500000 0.000000
Si Si3 0.194647 0.709935 0.182907
Si Si4 0.950710 0.709345 0.632620
Si Si5 0.611182 0.295175 0.610045
Si Si6 0.296427 0.784377 0.823065
Si Si7 0.949818 0.785153 0.774403
O O1 0.588354 0.718202 0.909622
O O2 0.671804 0.722441 0.877940
O O3 0.636614 0.000000 0.928299
O O4 0.647713 0.727094 0.000000
O O5 0.894375 0.342950 0.054467
O O6 0.184559 0.500000 0.182975
O O7 0.161225 0.796009 0.134779
O O8 0.245800 0.733473 0.166574
O O9 0.189614 0.779346 0.253985
O O10 0.954082 0.500000 0.617482
O O11 0.937028 0.722417 0.705292
O O12 0.000000 0.786347 0.626669
O O13 0.598534 0.500000 0.593967
O O14 0.582116 0.234233 0.669679
O O15 0.298021 0.000000 0.821126
O O16 0.000000 0.724952 0.785749
O O17 0.949788 0.000000 0.772014
#
# Coordination Sequence:
#
# PCOD9520348 Si02
#       7
#    16   4  16  16  16  16  16
#     4   9  17  30  47  73 112 152 191 236 290 351
#     4  12  26  44  61  88 124 156 202 234 285 366
#     4  10  19  35  58  83 112 145 193 252 304 348
#     4   9  17  29  51  82 111 145 191 241 291 344
#     4  11  23  41  63  86 118 159 197 243 295 353
#     4   9  18  32  53  81 111 148 196 248 301 358
#     4   9  19  36  59  87 115 145 187 239 292 343
#
# _framework density 20.475235000000001
#
# number of rings (size 3 to 8) (size 9 to 14) (size 15 to 20)
#    0.000    2.400    0.800    1.680    1.120    2.240 
#    1.440    3.200    0.000    3.360    0.000    2.240 
#    0.000    0.000    0.000    0.000    0.000    0.000 
#
# Total GULP energy -278653.939569 kJ/mol
# GULP energy per Si atom -5573.078791 kJ/mol
# Density = 2.042863 g / cm^3
# Si number density = 20.475235 Si / 1000 Ang^3
#
#
#
# Elastic Constant Matrix: (Units=GPa)
#
#
# Indices 1 2 3 4 5 6 
#
# 1 62.4590 4.4243 55.4877 0.0000 0.0000 0.0000
# 2 4.4243 80.4850 11.7930 0.0000 0.0000 0.0000
# 3 55.4877 11.7930 95.0249 0.0000 0.0000 0.0000
# 4 0.0000 0.0000 0.0000 -13.9457 0.0000 0.0000
# 5 0.0000 0.0000 0.0000 0.0000 -7.1429 0.0000
# 6 0.0000 0.0000 0.0000 0.0000 0.0000 -7.9995
#
#
#
# Elastic Compliance Matrix: (Units=1/GPa)
#
#
# Indices 1 2 3 4 5 6 
#
# 1 0.033354 0.001039 -0.019605 0.000000 0.000000 0.000000
# 2 0.001039 0.012687 -0.002181 0.000000 0.000000 0.000000
# 3 -0.019605 -0.002181 0.022242 0.000000 0.000000 0.000000
# 4 0.000000 0.000000 0.000000 -0.071707 0.000000 0.000000
# 5 0.000000 0.000000 0.000000 0.000000 -0.139999 0.000000
# 6 0.000000 0.000000 0.000000 0.000000 0.000000 -0.125008
#
#
# Mechanical properties :
#
#
# Convention : Reuss Voigt Hill
#
# Bulk Modulus (GPa) = 37.32932 42.37541 39.85237
# Shear Modulus (GPa) = -22.93516 5.26664 -8.83426
#
# Velocity S-wave (km/s) = -3.35048 1.60555 -2.07942
# Velocity P-wave (km/s) = 1.81752 4.91710 3.70684
#
# Compressibility (1/GPa) = 0.02678859
#
# Stress axis : x y z
#
# Youngs Moduli (GPa) = 29.98150 78.81980 44.95935
#
# Poissons Ratio (x) = -0.08191 0.88144
# Poissons Ratio (y) = -0.03116 0.09807
# Poissons Ratio (z) = 0.58779 0.17193
#
# Static dielectric constant tensor:
#      x y z
#    x 1.732970 0.000000 0.000000 
#    y 0.000000 1.774360 0.000000 
#    z 0.000000 0.000000 1.689210 
# 
# From -- ./inp_files/16977.got.cif
#   From: 2010.05.17/outbox.cif.g08.bks.cpg/sg71_9_cif.got.tgz:16977.got - 2010.06.03 16:22:01.
