data_PCOD9520063
_publ_section_title
;
Structure prediction by ZEFSAII (Michael W. Deem and Ramdas Pophale) SiO2 
 PCOD9520063
Probable space group: I M M M
;
_chemical_formula_sum "Si O2"
_cell_formula_units_Z 116
_cell_length_a 7.697577
_cell_length_b 24.033050
_cell_length_c 29.719488
_cell_angle_alpha 90.000000
_cell_angle_beta 90.000000
_cell_angle_gamma 90.000000
_cell_volume 5497.993919
_symmetry_space_group_name_H-M "I M M M"
_symmetry_group_IT_number 71
_symmetry_cell_setting 'orthorhombic'
loop_
_space_group_symop_operation_xyz
x,y,z
-x,-y,z
x,-y,-z
-x,y,-z
-x,-y,-z
x,y,-z
-x,y,z
x,-y,z
1/2+x,1/2+y,1/2+z
1/2-x,1/2-y,1/2+z
1/2+x,1/2-y,1/2-z
1/2-x,1/2+y,1/2-z
1/2-x,1/2-y,1/2-z
1/2+x,1/2+y,1/2-z
1/2-x,1/2+y,1/2+z
1/2+x,1/2-y,1/2+z
loop_
_atom_site_type_symbol
_atom_site_label
_atom_site_fract_x
_atom_site_fract_y
_atom_site_fract_z
Si Si1 0.793123 0.262228 0.802150
Si Si2 0.000000 0.500000 0.062523
Si Si3 0.287496 0.063386 0.218853
Si Si4 0.800904 0.697466 0.946804
Si Si5 0.795966 0.324271 0.549810
Si Si6 0.706472 0.849077 0.854523
Si Si7 0.288630 0.888561 0.684392
Si Si8 0.192185 0.918644 0.588129
O O1 0.750000 0.250000 0.750000
O O2 0.727643 0.212047 0.832999
O O3 0.731170 0.323943 0.815529
O O4 0.000000 0.263034 0.806226
O O5 0.153169 0.548101 0.064652
O O6 0.500000 0.064635 0.218495
O O7 0.224325 0.105706 0.180637
O O8 0.236655 0.084917 0.268143
O O9 0.233280 0.000000 0.211478
O O10 0.718412 0.758015 0.942000
O O11 0.710606 0.646628 0.922613
O O12 0.000000 0.700885 0.930731
O O13 0.800642 0.685078 0.000000
O O14 0.719896 0.335518 0.500000
O O15 0.720294 0.351501 0.594878
O O16 0.000000 0.338303 0.547546
O O17 0.500000 0.858789 0.858134
O O18 0.500000 0.889761 0.681411
O O19 0.219230 0.922375 0.641866
O O20 0.000000 0.936883 0.575085
#
# Coordination Sequence:
#
# PCOD9520063 Si02
#       8
#    16   4  16  16  16  16  16  16
#     4  11  21  33  52  80 115 150 186 232 298 359
#     4  12  26  48  61  84 124 150 210 264 293 350
#     4   9  18  32  54  77 104 153 202 240 288 345
#     4  10  20  38  62  87 118 151 187 239 299 362
#     4   9  18  32  55  86 117 148 185 236 297 361
#     4  10  19  34  53  79 114 148 190 238 290 354
#     4  10  20  36  57  80 113 152 196 250 302 352
#     4  12  25  41  64  88 113 158 202 251 312 356
#
# _framework density 21.098604000000002
#
# number of rings (size 3 to 8) (size 9 to 14) (size 15 to 20)
#    0.000    1.793    2.759    1.862    0.966    4.690 
#    0.000    0.690    0.000    2.483    0.000    2.897 
#    0.000    0.000    0.000    4.690    0.000    4.966 
#
# Total GULP energy -323585.157451 kJ/mol
# GULP energy per Si atom -5579.054439 kJ/mol
# Density = 2.105058 g / cm^3
# Si number density = 21.098604 Si / 1000 Ang^3
#
#
#
# Elastic Constant Matrix: (Units=GPa)
#
#
# Indices 1 2 3 4 5 6 
#
# 1 81.7078 2.3444 5.5957 0.0000 0.0000 0.0000
# 2 2.3444 57.0829 22.2353 0.0000 0.0000 0.0000
# 3 5.5957 22.2353 92.1858 0.0000 0.0000 0.0000
# 4 0.0000 0.0000 0.0000 -40.1299 0.0000 0.0000
# 5 0.0000 0.0000 0.0000 0.0000 7.4406 0.0000
# 6 0.0000 0.0000 0.0000 0.0000 0.0000 14.4412
#
#
#
# Elastic Compliance Matrix: (Units=1/GPa)
#
#
# Indices 1 2 3 4 5 6 
#
# 1 0.012293 -0.000236 -0.000689 0.000000 0.000000 0.000000
# 2 -0.000236 0.019340 -0.004650 0.000000 0.000000 0.000000
# 3 -0.000689 -0.004650 0.012011 0.000000 0.000000 0.000000
# 4 0.000000 0.000000 0.000000 -0.024919 0.000000 0.000000
# 5 0.000000 0.000000 0.000000 0.000000 0.134397 0.000000
# 6 0.000000 0.000000 0.000000 0.000000 0.000000 0.069246
#
#
# Mechanical properties :
#
#
# Convention : Reuss Voigt Hill
#
# Bulk Modulus (GPa) = 30.77725 32.36971 31.57348
# Shear Modulus (GPa) = 20.46246 9.73714 15.09980
#
# Velocity S-wave (km/s) = 3.11762 2.15060 2.67812
# Velocity P-wave (km/s) = 5.25151 4.64136 4.95583
#
# Compressibility (1/GPa) = 0.03249154
#
# Stress axis : x y z
#
# Youngs Moduli (GPa) = 81.34906 51.70756 83.25597
#
# Poissons Ratio (x) = 0.01223 0.05737
# Poissons Ratio (y) = 0.01923 0.38717
# Poissons Ratio (z) = 0.05606 0.24046
#
# Static dielectric constant tensor:
#      x y z
#    x 1.806070 0.000000 0.000000 
#    y 0.000000 1.723420 0.000000 
#    z 0.000000 0.000000 1.791340 
# 
# From -- ./inp_files/68475.got.cif
#   From: 2010.05.17/outbox.cif.g08.bks.cpg/sg71_35_cif.got.tgz:68475.got - 2010.06.03 16:22:01.
