data_PCOD9520261
_publ_section_title
;
Structure prediction by ZEFSAII (Michael W. Deem and Ramdas Pophale) SiO2 
 PCOD9520261
Probable space group: I M M M
;
_chemical_formula_sum "Si O2"
_cell_formula_units_Z 88
_cell_length_a 13.764245
_cell_length_b 18.550450
_cell_length_c 15.746921
_cell_angle_alpha 90.000000
_cell_angle_beta 90.000000
_cell_angle_gamma 90.000000
_cell_volume 4020.707614
_symmetry_space_group_name_H-M "I M M M"
_symmetry_group_IT_number 71
_symmetry_cell_setting 'orthorhombic'
loop_
_space_group_symop_operation_xyz
x,y,z
-x,-y,z
x,-y,-z
-x,y,-z
-x,-y,-z
x,y,-z
-x,y,z
x,-y,z
1/2+x,1/2+y,1/2+z
1/2-x,1/2-y,1/2+z
1/2+x,1/2-y,1/2-z
1/2-x,1/2+y,1/2-z
1/2-x,1/2-y,1/2-z
1/2+x,1/2+y,1/2-z
1/2-x,1/2+y,1/2+z
1/2+x,1/2-y,1/2+z
loop_
_atom_site_type_symbol
_atom_site_label
_atom_site_fract_x
_atom_site_fract_y
_atom_site_fract_z
Si Si1 0.667495 0.083472 0.157600
Si Si2 0.500000 0.188069 0.861613
Si Si3 0.891326 0.582769 0.856633
Si Si4 0.803771 0.158743 0.597178
Si Si5 0.000000 0.148687 0.340307
Si Si6 0.500000 0.264062 0.316987
Si Si7 0.703565 0.702697 0.397441
O O1 0.590285 0.137423 0.113820
O O2 0.633271 0.082806 0.255789
O O3 0.767983 0.126005 0.143150
O O4 0.667679 0.000000 0.128903
O O5 0.500000 0.271993 0.889106
O O6 0.500000 0.205158 0.759395
O O7 0.892636 0.500000 0.883789
O O8 0.799580 0.620291 0.898040
O O9 0.000000 0.611764 0.875304
O O10 0.829009 0.169222 0.500000
O O11 0.894961 0.117674 0.637381
O O12 0.781035 0.237472 0.636545
O O13 0.000000 0.164157 0.240986
O O14 0.401509 0.267793 0.370043
O O15 0.708382 0.698645 0.500000
#
# Coordination Sequence:
#
# PCOD9520261 Si02
#       7
#    16   8  16  16   8   8  16
#     4  11  21  38  61  89 124 162 208 259 310 369
#     4  10  19  34  62  90 115 149 200 259 311 366
#     4  10  22  39  63  94 127 162 207 260 318 383
#     4  11  23  38  60  89 128 167 203 255 318 383
#     4  10  21  38  63  90 122 159 206 260 311 369
#     4  10  21  36  63  89 117 157 205 275 317 366
#     4  11  23  38  57  90 127 165 215 261 314 380
#
# _framework density 21.886693999999999
#
# number of rings (size 3 to 8) (size 9 to 14) (size 15 to 20)
#    0.545    0.909    2.727    3.000    1.273    3.273 
#    0.000    2.273    0.000    6.545    0.000    0.000 
#    0.000    0.000    0.000    0.000    0.000    0.000 
#
# Total GULP energy -245287.009967 kJ/mol
# GULP energy per Si atom -5574.704772 kJ/mol
# Density = 2.183688 g / cm^3
# Si number density = 21.886694 Si / 1000 Ang^3
#
#
#
# Elastic Constant Matrix: (Units=GPa)
#
#
# Indices 1 2 3 4 5 6 
#
# 1 161.9228 34.9357 21.3947 0.0000 0.0000 0.0000
# 2 34.9357 66.1880 0.6988 0.0000 0.0000 0.0000
# 3 21.3947 0.6988 36.9005 0.0000 0.0000 0.0000
# 4 0.0000 0.0000 0.0000 13.0478 0.0000 0.0000
# 5 0.0000 0.0000 0.0000 0.0000 9.8844 0.0000
# 6 0.0000 0.0000 0.0000 0.0000 0.0000 34.7521
#
#
#
# Elastic Compliance Matrix: (Units=1/GPa)
#
#
# Indices 1 2 3 4 5 6 
#
# 1 0.007605 -0.003968 -0.004334 0.000000 0.000000 0.000000
# 2 -0.003968 0.017182 0.001975 0.000000 0.000000 0.000000
# 3 -0.004334 0.001975 0.029575 0.000000 0.000000 0.000000
# 4 0.000000 0.000000 0.000000 0.076641 0.000000 0.000000
# 5 0.000000 0.000000 0.000000 0.000000 0.101169 0.000000
# 6 0.000000 0.000000 0.000000 0.000000 0.000000 0.028775
#
#
# Mechanical properties :
#
#
# Convention : Reuss Voigt Hill
#
# Bulk Modulus (GPa) = 23.97595 42.11884 33.04739
# Shear Modulus (GPa) = 17.39104 25.40234 21.39669
#
# Velocity S-wave (km/s) = 2.82191 3.41050 3.13007
# Velocity P-wave (km/s) = 4.64714 5.89868 5.30992
#
# Compressibility (1/GPa) = 0.04170846
#
# Stress axis : x y z
#
# Youngs Moduli (GPa) = 131.49998 58.20013 33.81200
#
# Poissons Ratio (x) = 0.23095 0.14654
# Poissons Ratio (y) = 0.52181 -0.06679
# Poissons Ratio (z) = 0.56991 -0.11496
#
# Static dielectric constant tensor:
#      x y z
#    x 1.877060 0.000000 0.000000 
#    y 0.000000 1.849490 0.000000 
#    z 0.000000 0.000000 1.796680 
# 
# From -- ./inp_files/43370.got.cif
#   From: 2010.05.17/outbox.cif.g08.bks.cpg/sg71_22_cif.got.tgz:43370.got - 2010.06.03 16:22:01.
