data_PCOD9520387
_publ_section_title
;
Structure prediction by ZEFSAII (Michael W. Deem and Ramdas Pophale) SiO2 
 PCOD9520387
Probable space group: I M M M
;
_chemical_formula_sum "Si O2"
_cell_formula_units_Z 92
_cell_length_a 28.370520
_cell_length_b 22.813500
_cell_length_c 7.643248
_cell_angle_alpha 90.000000
_cell_angle_beta 90.000000
_cell_angle_gamma 90.000000
_cell_volume 4946.945961
_symmetry_space_group_name_H-M "I M M M"
_symmetry_group_IT_number 71
_symmetry_cell_setting 'orthorhombic'
loop_
_space_group_symop_operation_xyz
x,y,z
-x,-y,z
x,-y,-z
-x,y,-z
-x,-y,-z
x,y,-z
-x,y,z
x,-y,z
1/2+x,1/2+y,1/2+z
1/2-x,1/2-y,1/2+z
1/2+x,1/2-y,1/2-z
1/2-x,1/2+y,1/2-z
1/2-x,1/2-y,1/2-z
1/2+x,1/2+y,1/2-z
1/2-x,1/2+y,1/2+z
1/2+x,1/2-y,1/2+z
loop_
_atom_site_type_symbol
_atom_site_label
_atom_site_fract_x
_atom_site_fract_y
_atom_site_fract_z
Si Si1 0.708338 0.500000 0.000000
Si Si2 0.602282 0.877896 0.293279
Si Si3 0.446442 0.000000 0.208667
Si Si4 0.197946 0.321987 0.298294
Si Si5 0.947655 0.260564 0.788868
Si Si6 0.349893 0.703884 0.207662
Si Si7 0.286305 0.602499 0.704554
O O1 0.708938 0.550875 0.156216
O O2 0.608907 0.870225 0.500000
O O3 0.580923 0.941456 0.262087
O O4 0.653011 0.865208 0.210593
O O5 0.567168 0.826337 0.231690
O O6 0.500000 0.000000 0.278988
O O7 0.448974 0.000000 0.000000
O O8 0.209009 0.309552 0.500000
O O9 0.179876 0.260193 0.221655
O O10 0.243430 0.355427 0.229958
O O11 0.904686 0.219103 0.735183
O O12 0.000000 0.245566 0.725194
O O13 0.948999 0.260708 0.000000
O O14 0.331916 0.644435 0.291995
O O15 0.342145 0.699719 0.000000
O O16 0.277267 0.584845 0.500000
#
# Coordination Sequence:
#
# PCOD9520387 Si02
#       7
#     4  16   8  16  16  16  16
#     4  12  26  42  60  86 121 160 203 246 284 360
#     4  10  20  33  52  75 104 145 193 242 294 346
#     4  11  23  36  49  65  95 144 197 245 291 344
#     4   9  20  36  57  84 116 151 192 245 299 347
#     4   9  18  33  53  81 115 147 184 238 298 354
#     4  10  19  35  59  89 120 151 194 245 295 356
#     4  11  23  41  62  87 120 160 200 245 296 353
#
# _framework density 18.597332999999999
#
# number of rings (size 3 to 8) (size 9 to 14) (size 15 to 20)
#    0.000    2.000    0.870    2.609    1.217    3.826 
#    0.000    0.870    0.000    0.000    0.000    1.217 
#    0.000    2.783    0.000    0.000    0.000    0.000 
#
# Total GULP energy -256158.152353 kJ/mol
# GULP energy per Si atom -5568.655486 kJ/mol
# Density = 1.855500 g / cm^3
# Si number density = 18.597333 Si / 1000 Ang^3
#
#
#
# Elastic Constant Matrix: (Units=GPa)
#
#
# Indices 1 2 3 4 5 6 
#
# 1 92.7982 59.9135 17.8434 0.0000 0.0000 0.0000
# 2 59.9135 94.1821 29.5213 0.0000 0.0000 0.0000
# 3 17.8434 29.5213 83.9424 0.0000 0.0000 0.0000
# 4 0.0000 0.0000 0.0000-1117.8402 0.0000 0.0000
# 5 0.0000 0.0000 0.0000 0.0000 16.0707 0.0000
# 6 0.0000 0.0000 0.0000 0.0000 0.0000 3.5634
#
#
#
# Elastic Compliance Matrix: (Units=1/GPa)
#
#
# Indices 1 2 3 4 5 6 
#
# 1 0.018291 -0.011707 0.000229 0.000000 0.000000 0.000000
# 2 -0.011707 0.019427 -0.004344 0.000000 0.000000 0.000000
# 3 0.000229 -0.004344 0.013392 0.000000 0.000000 0.000000
# 4 0.000000 0.000000 0.000000 -0.000895 0.000000 0.000000
# 5 0.000000 0.000000 0.000000 0.000000 0.062225 0.000000
# 6 0.000000 0.000000 0.000000 0.000000 0.000000 0.280630
#
#
# Mechanical properties :
#
#
# Convention : Reuss Voigt Hill
#
# Bulk Modulus (GPa) = 51.37155 53.94211 52.65683
# Shear Modulus (GPa) = 11.59551 -208.73158 -98.56803
#
# Velocity S-wave (km/s) = 2.49972 -10.60571 -7.28809
# Velocity P-wave (km/s) = 6.00121 10.99575 6.51506
#
# Compressibility (1/GPa) = 0.01946603
#
# Stress axis : x y z
#
# Youngs Moduli (GPa) = 54.67269 51.47520 74.67296
#
# Poissons Ratio (x) = 0.60264 -0.01712
# Poissons Ratio (y) = 0.64008 0.32434
# Poissons Ratio (z) = -0.01254 0.22358
#
# Static dielectric constant tensor:
#      x y z
#    x 1.656060 0.000000 0.000000 
#    y 0.000000 1.661530 0.000000 
#    z 0.000000 0.000000 1.693740 
# 
# From -- ./inp_files/14914.got.cif
#   From: 2010.05.17/outbox.cif.g08.bks.cpg/sg71_8_cif.got.tgz:14914.got - 2010.06.03 16:22:01.
