data_PCOD9520434
_publ_section_title
;
Structure prediction by ZEFSAII (Michael W. Deem and Ramdas Pophale) SiO2 
 PCOD9520434
Probable space group: I M M M
;
_chemical_formula_sum "Si O2"
_cell_formula_units_Z 120
_cell_length_a 29.801606
_cell_length_b 8.972869
_cell_length_c 27.506303
_cell_angle_alpha 90.000000
_cell_angle_beta 90.000000
_cell_angle_gamma 90.000000
_cell_volume 7355.347892
_symmetry_space_group_name_H-M "I M M M"
_symmetry_group_IT_number 71
_symmetry_cell_setting 'orthorhombic'
loop_
_space_group_symop_operation_xyz
x,y,z
-x,-y,z
x,-y,-z
-x,y,-z
-x,-y,-z
x,y,-z
-x,y,z
x,-y,z
1/2+x,1/2+y,1/2+z
1/2-x,1/2-y,1/2+z
1/2+x,1/2-y,1/2-z
1/2-x,1/2+y,1/2-z
1/2-x,1/2-y,1/2-z
1/2+x,1/2+y,1/2-z
1/2-x,1/2+y,1/2+z
1/2+x,1/2-y,1/2+z
loop_
_atom_site_type_symbol
_atom_site_label
_atom_site_fract_x
_atom_site_fract_y
_atom_site_fract_z
Si Si1 0.447244 0.179851 0.712018
Si Si2 0.228645 0.677922 0.445911
Si Si3 0.699818 0.679619 0.845889
Si Si4 0.792977 0.329170 0.804343
Si Si5 0.819017 0.328874 0.917934
Si Si6 0.000000 0.832635 0.942581
Si Si7 0.633706 0.322226 0.764142
Si Si8 0.584142 0.820237 0.603913
O O1 0.500000 0.224096 0.713968
O O2 0.413933 0.248637 0.751795
O O3 0.425174 0.222414 0.660004
O O4 0.446008 0.000000 0.715177
O O5 0.211951 0.720865 0.500000
O O6 0.226411 0.500000 0.441688
O O7 0.204530 0.750706 0.399223
O O8 0.280195 0.732057 0.441573
O O9 0.741994 0.728373 0.811537
O O10 0.654391 0.713890 0.817076
O O11 0.869825 0.000000 0.740112
O O12 0.792053 0.500000 0.785800
O O13 0.809770 0.334242 0.860049
O O14 0.828312 0.235779 0.773472
O O15 0.816466 0.500000 0.935932
O O16 0.869401 0.268983 0.920096
O O17 0.043046 0.743550 0.925392
O O18 0.000000 0.000000 0.921748
O O19 0.000000 0.842148 0.000000
O O20 0.704559 0.500000 0.850321
O O21 0.585158 0.000000 0.603017
#
# Coordination Sequence:
#
# PCOD9520434 Si02
#       8
#    16  16  16  16  16   8  16  16
#     4  10  20  36  55  73  97 131 168 206 250 303
#     4  10  21  35  51  73 100 129 164 207 250 289
#     4   9  20  35  49  70 101 136 170 201 237 291
#     4   9  16  30  48  68  99 133 165 197 233 287
#     4   9  18  32  51  72  94 124 164 204 242 291
#     4  11  25  39  49  67  93 117 151 211 276 315
#     4  11  21  31  48  76 105 130 162 204 248 294
#     4  10  19  36  56  70  89 122 167 209 246 303
#
# _framework density 16.31466
#
# number of rings (size 3 to 8) (size 9 to 14) (size 15 to 20)
#    0.000    2.200    2.000    2.200    0.000    6.667 
#    0.000    2.667    0.000    0.000    0.000    0.000 
#    0.000    0.533    0.000    5.867    0.000    4.267 
#
# Total GULP energy -334543.792692 kJ/mol
# GULP energy per Si atom -5575.729878 kJ/mol
# Density = 1.627753 g / cm^3
# Si number density = 16.314660 Si / 1000 Ang^3
#
#
#
# Elastic Constant Matrix: (Units=GPa)
#
#
# Indices 1 2 3 4 5 6 
#
# 1 52.6681 18.9138 34.8825 0.0000 0.0000 0.0000
# 2 18.9138 19.0923 27.0922 0.0000 0.0000 0.0000
# 3 34.8825 27.0922 81.8844 0.0000 0.0000 0.0000
# 4 0.0000 0.0000 0.0000 22.4774 0.0000 0.0000
# 5 0.0000 0.0000 0.0000 0.0000 16.5745 0.0000
# 6 0.0000 0.0000 0.0000 0.0000 0.0000 21.9537
#
#
#
# Elastic Compliance Matrix: (Units=1/GPa)
#
#
# Indices 1 2 3 4 5 6 
#
# 1 0.030824 -0.022437 -0.005708 0.000000 0.000000 0.000000
# 2 -0.022437 0.115062 -0.028511 0.000000 0.000000 0.000000
# 3 -0.005708 -0.028511 0.024077 0.000000 0.000000 0.000000
# 4 0.000000 0.000000 0.000000 0.044489 0.000000 0.000000
# 5 0.000000 0.000000 0.000000 0.000000 0.060334 0.000000
# 6 0.000000 0.000000 0.000000 0.000000 0.000000 0.045550
#
#
# Mechanical properties :
#
#
# Convention : Reuss Voigt Hill
#
# Bulk Modulus (GPa) = 17.65170 35.04686 26.34928
# Shear Modulus (GPa) = 11.04892 17.05152 14.05022
#
# Velocity S-wave (km/s) = 2.60520 3.23641 2.93781
# Velocity P-wave (km/s) = 4.46010 5.95771 5.26245
#
# Compressibility (1/GPa) = 0.05665175
#
# Stress axis : x y z
#
# Youngs Moduli (GPa) = 32.44180 8.69095 41.53335
#
# Poissons Ratio (x) = 0.19500 0.23706
# Poissons Ratio (y) = 0.72790 1.18417
# Poissons Ratio (z) = 0.18517 0.24779
#
# Static dielectric constant tensor:
#      x y z
#    x 1.561480 0.000000 0.000000 
#    y 0.000000 1.553660 0.000000 
#    z 0.000000 0.000000 1.560860 
# 
# From -- ./inp_files/67193.got.cif
#   From: 2010.05.17/outbox.cif.g08.bks.cpg/sg71_34_cif.got.tgz:67193.got - 2010.06.03 16:22:01.
