data_PCOD9520068
_publ_section_title
;
Structure prediction by ZEFSAII (Michael W. Deem and Ramdas Pophale) SiO2 
 PCOD9520068
Probable space group: I M M M
;
_chemical_formula_sum "Si O2"
_cell_formula_units_Z 80
_cell_length_a 19.901595
_cell_length_b 13.681906
_cell_length_c 17.537893
_cell_angle_alpha 90.000000
_cell_angle_beta 90.000000
_cell_angle_gamma 90.000000
_cell_volume 4775.423612
_symmetry_space_group_name_H-M "I M M M"
_symmetry_group_IT_number 71
_symmetry_cell_setting 'orthorhombic'
loop_
_space_group_symop_operation_xyz
x,y,z
-x,-y,z
x,-y,-z
-x,y,-z
-x,-y,-z
x,y,-z
-x,y,z
x,-y,z
1/2+x,1/2+y,1/2+z
1/2-x,1/2-y,1/2+z
1/2+x,1/2-y,1/2-z
1/2-x,1/2+y,1/2-z
1/2-x,1/2-y,1/2-z
1/2+x,1/2+y,1/2-z
1/2-x,1/2+y,1/2+z
1/2+x,1/2-y,1/2+z
loop_
_atom_site_type_symbol
_atom_site_label
_atom_site_fract_x
_atom_site_fract_y
_atom_site_fract_z
Si Si1 0.202492 0.303232 0.855487
Si Si2 0.576549 0.324609 0.000000
Si Si3 0.577659 0.887056 0.706694
Si Si4 0.305839 0.614371 0.737253
Si Si5 0.724426 0.612158 0.000000
Si Si6 0.923063 0.219421 0.672578
O O1 0.128159 0.347623 0.857095
O O2 0.239729 0.357953 0.785496
O O3 0.196158 0.189212 0.833786
O O4 0.246735 0.330388 0.927645
O O5 0.643407 0.389881 0.000000
O O6 0.582553 0.269362 0.081263
O O7 0.500000 0.367436 0.000000
O O8 0.500000 0.876867 0.683975
O O9 0.587699 0.819870 0.781461
O O10 0.591090 0.000000 0.723051
O O11 0.308210 0.500000 0.719344
O O12 0.368856 0.645360 0.791298
O O13 0.748436 0.500000 0.000000
O O14 0.000000 0.186801 0.687679
#
# Coordination Sequence:
#
# PCOD9520068 Si02
#       6
#    16   8  16  16   8  16
#     4  10  21  34  51  76 103 128 171 215 251 303
#     4  10  20  33  47  71 110 143 169 206 248 297
#     4   9  17  32  53  74  98 133 174 215 258 300
#     4  10  19  34  54  73  98 135 171 210 254 297
#     4  12  22  35  54  77 106 138 167 205 259 302
#     4   9  18  31  49  75 106 136 170 210 249 301
#
# _framework density 16.752441000000001
#
# number of rings (size 3 to 8) (size 9 to 14) (size 15 to 20)
#    0.000    2.200    2.000    1.800    0.000    0.600 
#    0.000    3.500    0.000    6.000    0.000    0.000 
#    0.000    6.400    0.000    0.000    0.000    0.000 
#
# Total GULP energy -222728.869374 kJ/mol
# GULP energy per Si atom -5568.221734 kJ/mol
# Density = 1.671431 g / cm^3
# Si number density = 16.752441 Si / 1000 Ang^3
#
#
#
# Elastic Constant Matrix: (Units=GPa)
#
#
# Indices 1 2 3 4 5 6 
#
# 1 93.3947 55.2593 36.9954 0.0000 0.0000 0.0000
# 2 55.2593 121.6217 26.9657 0.0000 0.0000 0.0000
# 3 36.9954 26.9657 57.1329 0.0000 0.0000 0.0000
# 4 0.0000 0.0000 0.0000 3.7891 0.0000 0.0000
# 5 0.0000 0.0000 0.0000 0.0000 25.0196 0.0000
# 6 0.0000 0.0000 0.0000 0.0000 0.0000 21.0592
#
#
#
# Elastic Compliance Matrix: (Units=1/GPa)
#
#
# Indices 1 2 3 4 5 6 
#
# 1 0.017756 -0.006163 -0.008589 0.000000 0.000000 0.000000
# 2 -0.006163 0.011323 -0.001353 0.000000 0.000000 0.000000
# 3 -0.008589 -0.001353 0.023703 0.000000 0.000000 0.000000
# 4 0.000000 0.000000 0.000000 0.263917 0.000000 0.000000
# 5 0.000000 0.000000 0.000000 0.000000 0.039969 0.000000
# 6 0.000000 0.000000 0.000000 0.000000 0.000000 0.047485
#
#
# Mechanical properties :
#
#
# Convention : Reuss Voigt Hill
#
# Bulk Modulus (GPa) = 48.61069 56.73225 52.67147
# Shear Modulus (GPa) = 11.28110 20.16884 15.72497
#
# Velocity S-wave (km/s) = 2.59781 3.47354 3.06709
# Velocity P-wave (km/s) = 6.17076 7.07290 6.63717
#
# Compressibility (1/GPa) = 0.02057161
#
# Stress axis : x y z
#
# Youngs Moduli (GPa) = 56.31897 88.31944 42.18854
#
# Poissons Ratio (x) = 0.54434 0.36234
# Poissons Ratio (y) = 0.34711 0.05709
# Poissons Ratio (z) = 0.48370 0.11951
#
# Static dielectric constant tensor:
#      x y z
#    x 1.609710 0.000000 0.000000 
#    y 0.000000 1.545820 0.000000 
#    z 0.000000 0.000000 1.551600 
# 
# From -- ./inp_files/44820.got.cif
#   From: 2010.05.17/outbox.cif.g08.bks.cpg/sg71_23_cif.got.tgz:44820.got - 2010.06.03 16:22:01.
