data_PCOD9520969
_publ_section_title
;
Structure prediction by ZEFSAII (Michael W. Deem and Ramdas Pophale) SiO2 
 PCOD9520969
Probable space group: I M M M
;
_chemical_formula_sum "Si O2"
_cell_formula_units_Z 88
_cell_length_a 15.021772
_cell_length_b 9.588756
_cell_length_c 28.345985
_cell_angle_alpha 90.000000
_cell_angle_beta 90.000000
_cell_angle_gamma 90.000000
_cell_volume 4082.958695
_symmetry_space_group_name_H-M "I M M M"
_symmetry_group_IT_number 71
_symmetry_cell_setting 'orthorhombic'
loop_
_space_group_symop_operation_xyz
x,y,z
-x,-y,z
x,-y,-z
-x,y,-z
-x,-y,-z
x,y,-z
-x,y,z
x,-y,z
1/2+x,1/2+y,1/2+z
1/2-x,1/2-y,1/2+z
1/2+x,1/2-y,1/2-z
1/2-x,1/2+y,1/2-z
1/2-x,1/2-y,1/2-z
1/2+x,1/2+y,1/2-z
1/2-x,1/2+y,1/2+z
1/2+x,1/2-y,1/2+z
loop_
_atom_site_type_symbol
_atom_site_label
_atom_site_fract_x
_atom_site_fract_y
_atom_site_fract_z
Si Si1 0.157233 0.840106 0.644829
Si Si2 0.662625 0.836377 0.766827
Si Si3 0.392192 0.837352 0.946165
Si Si4 0.109585 0.656162 0.000000
Si Si5 0.630654 0.848770 0.663140
Si Si6 0.602419 0.651562 0.582159
O O1 0.122772 0.743778 0.688194
O O2 0.142015 0.762655 0.595297
O O3 0.262876 0.848846 0.655255
O O4 0.123192 0.000000 0.645070
O O5 0.750000 0.750000 0.750000
O O6 0.607918 0.837951 0.718134
O O7 0.682757 0.000000 0.777945
O O8 0.500000 0.830554 0.945096
O O9 0.367852 0.000000 0.937573
O O10 0.364455 0.801126 0.000000
O O11 0.141889 0.739345 0.045671
O O12 0.142680 0.500000 0.000000
O O13 0.000000 0.648746 0.000000
O O14 0.599865 0.718515 0.633299
O O15 0.598901 0.000000 0.645023
O O16 0.500000 0.636688 0.566797
O O17 0.645256 0.500000 0.581086
#
# Coordination Sequence:
#
# PCOD9520969 Si02
#       6
#    16  16  16   8  16  16
#     4  10  20  34  54  81 108 136 174 217 261 314
#     4   9  17  31  52  76 104 138 175 215 260 313
#     4   9  19  37  59  81 107 141 179 218 265 324
#     4   9  17  31  51  69  89 125 166 201 244 299
#     4   9  19  34  51  75 104 137 174 212 259 311
#     4  10  20  33  50  73 100 131 171 216 258 302
#
# _framework density 21.552997999999999
#
# number of rings (size 3 to 8) (size 9 to 14) (size 15 to 20)
#    0.000    2.636    0.000    3.545    0.000    7.273 
#    1.636    1.818    0.000    1.091    0.000    0.000 
#    0.000    0.000    0.000    0.000    0.000    0.000 
#
# Total GULP energy -245330.377637 kJ/mol
# GULP energy per Si atom -5575.690401 kJ/mol
# Density = 2.150394 g / cm^3
# Si number density = 21.552998 Si / 1000 Ang^3
#
#
#
# Elastic Constant Matrix: (Units=GPa)
#
#
# Indices 1 2 3 4 5 6 
#
# 1 40.4034 9.0089 10.8598 0.0000 0.0000 0.0000
# 2 9.0089 217.7110 119.5008 0.0000 0.0000 0.0000
# 3 10.8598 119.5008 174.6111 0.0000 0.0000 0.0000
# 4 0.0000 0.0000 0.0000 36.0608 0.0000 0.0000
# 5 0.0000 0.0000 0.0000 0.0000 29.7376 0.0000
# 6 0.0000 0.0000 0.0000 0.0000 0.0000 10.9216
#
#
#
# Elastic Compliance Matrix: (Units=1/GPa)
#
#
# Indices 1 2 3 4 5 6 
#
# 1 0.025183 -0.000292 -0.001366 0.000000 0.000000 0.000000
# 2 -0.000292 0.007360 -0.005019 0.000000 0.000000 0.000000
# 3 -0.001366 -0.005019 0.009247 0.000000 0.000000 0.000000
# 4 0.000000 0.000000 0.000000 0.027731 0.000000 0.000000
# 5 0.000000 0.000000 0.000000 0.000000 0.033627 0.000000
# 6 0.000000 0.000000 0.000000 0.000000 0.000000 0.091561
#
#
# Mechanical properties :
#
#
# Convention : Reuss Voigt Hill
#
# Bulk Modulus (GPa) = 35.16789 79.05163 57.10976
# Shear Modulus (GPa) = 22.98394 34.90107 28.94251
#
# Velocity S-wave (km/s) = 3.26911 4.02844 3.66847
# Velocity P-wave (km/s) = 5.53189 7.64167 6.67072
#
# Compressibility (1/GPa) = 0.02843503
#
# Stress axis : x y z
#
# Youngs Moduli (GPa) = 39.70968 135.86416 108.14357
#
# Poissons Ratio (x) = 0.03969 0.14776
# Poissons Ratio (y) = 0.01160 0.54278
# Poissons Ratio (z) = 0.05426 0.68191
#
# Static dielectric constant tensor:
#      x y z
#    x 1.854820 0.000000 0.000000 
#    y 0.000000 1.812820 0.000000 
#    z 0.000000 0.000000 1.788260 
# 
# From -- ./inp_files/50794.got.cif
#   From: 2010.05.17/outbox.cif.g08.bks.cpg/sg71_26_cif.got.tgz:50794.got - 2010.06.03 16:22:01.
