data_PCOD9520401
_publ_section_title
;
Structure prediction by ZEFSAII (Michael W. Deem and Ramdas Pophale) SiO2 
 PCOD9520401
Probable space group: I M M M
;
_chemical_formula_sum "Si O2"
_cell_formula_units_Z 68
_cell_length_a 13.698549
_cell_length_b 23.807253
_cell_length_c 11.674659
_cell_angle_alpha 90.000000
_cell_angle_beta 90.000000
_cell_angle_gamma 90.000000
_cell_volume 3807.396086
_symmetry_space_group_name_H-M "I M M M"
_symmetry_group_IT_number 71
_symmetry_cell_setting 'orthorhombic'
loop_
_space_group_symop_operation_xyz
x,y,z
-x,-y,z
x,-y,-z
-x,y,-z
-x,-y,-z
x,y,-z
-x,y,z
x,-y,z
1/2+x,1/2+y,1/2+z
1/2-x,1/2-y,1/2+z
1/2+x,1/2-y,1/2-z
1/2-x,1/2+y,1/2-z
1/2-x,1/2-y,1/2-z
1/2+x,1/2+y,1/2-z
1/2-x,1/2+y,1/2+z
1/2+x,1/2-y,1/2+z
loop_
_atom_site_type_symbol
_atom_site_label
_atom_site_fract_x
_atom_site_fract_y
_atom_site_fract_z
Si Si1 0.882600 0.500000 0.740497
Si Si2 0.617373 0.770663 0.630983
Si Si3 0.293228 0.891040 0.636166
Si Si4 0.891429 0.094084 0.000000
Si Si5 0.887887 0.842083 0.759051
Si Si6 0.773511 0.500000 0.500000
O O1 0.840613 0.555472 0.802708
O O2 0.840298 0.500000 0.612182
O O3 0.000000 0.500000 0.743031
O O4 0.653507 0.760012 0.500000
O O5 0.500000 0.767643 0.626584
O O6 0.648439 0.833485 0.662462
O O7 0.646362 0.721995 0.719769
O O8 0.294827 0.899672 0.500000
O O9 0.184478 0.877648 0.680670
O O10 0.886872 0.131254 0.885922
O O11 0.800678 0.052400 0.000000
O O12 0.000000 0.066978 0.000000
O O13 0.000000 0.842633 0.717604
#
# Coordination Sequence:
#
# PCOD9520401 Si02
#       6
#     8  16  16   8  16   4
#     4  12  26  43  62  83 112 150 195 242 287 337
#     4   9  17  32  57  86 113 147 194 239 284 337
#     4  11  23  38  57  83 116 159 196 233 282 342
#     4  10  19  35  63  92 115 146 188 234 286 345
#     4  10  19  35  60  88 117 147 186 239 291 346
#     4  12  22  42  64  88 118 144 188 242 296 330
#
# _framework density 17.859974999999999
#
# number of rings (size 3 to 8) (size 9 to 14) (size 15 to 20)
#    0.000    1.647    3.529    2.118    0.000    2.353 
#    0.000    0.588    0.000    1.412    0.000    0.000 
#    0.000    0.000    0.000    0.000    0.000    0.000 
#
# Total GULP energy -189693.024588 kJ/mol
# GULP energy per Si atom -5579.206606 kJ/mol
# Density = 1.781933 g / cm^3
# Si number density = 17.859975 Si / 1000 Ang^3
#
#
#
# Elastic Constant Matrix: (Units=GPa)
#
#
# Indices 1 2 3 4 5 6 
#
# 1 118.7143 73.8301 50.3209 0.0000 0.0000 0.0000
# 2 73.8301 137.3285 60.3085 0.0002 0.0000 0.0000
# 3 50.3209 60.3085 91.4608 0.0001 0.0001 0.0000
# 4 0.0000 0.0002 0.0001 -3.0520 0.0001 0.0000
# 5 0.0000 0.0000 0.0001 0.0001 11.1401 0.0000
# 6 0.0000 0.0000 0.0000 0.0000 0.0000 28.4506
#
#
#
# Elastic Compliance Matrix: (Units=1/GPa)
#
#
# Indices 1 2 3 4 5 6 
#
# 1 0.013497 -0.005623 -0.003718 0.000000 0.000000 0.000000
# 2 -0.005623 0.012593 -0.005210 0.000000 0.000000 0.000000
# 3 -0.003718 -0.005210 0.016414 0.000000 0.000000 0.000000
# 4 0.000000 0.000000 0.000000 -0.327658 0.000002 0.000000
# 5 0.000000 0.000000 0.000000 0.000002 0.089766 0.000000
# 6 0.000000 0.000000 0.000000 0.000000 0.000000 0.035149
#
#
# Mechanical properties :
#
#
# Convention : Reuss Voigt Hill
#
# Bulk Modulus (GPa) = 74.61425 79.60251 77.10838
# Shear Modulus (GPa) = -39.47245 18.17735 -10.64755
#
# Velocity S-wave (km/s) = -4.70628 3.19371 -2.44430
# Velocity P-wave (km/s) = 3.51226 7.63327 5.94150
#
# Compressibility (1/GPa) = 0.01340227
#
# Stress axis : x y z
#
# Youngs Moduli (GPa) = 74.09189 79.40968 60.92219
#
# Poissons Ratio (x) = 0.44655 0.22649
# Poissons Ratio (y) = 0.41665 0.31739
# Poissons Ratio (z) = 0.27546 0.41370
#
# Static dielectric constant tensor:
#      x y z
#    x 1.609440 0.000000 0.000000 
#    y 0.000000 1.618330 0.000000 
#    z 0.000000 0.000000 1.587190 
# 
# From -- ./inp_files/21608.got.cif
#   From: 2010.05.17/outbox.cif.g08.bks.cpg/sg71_11_cif.got.tgz:21608.got - 2010.06.03 16:22:01.
