data_PCOD9520651
_publ_section_title
;
Structure prediction by ZEFSAII (Michael W. Deem and Ramdas Pophale) SiO2 
 PCOD9520651
Probable space group: I M M M
;
_chemical_formula_sum "Si O2"
_cell_formula_units_Z 80
_cell_length_a 19.962587
_cell_length_b 27.079799
_cell_length_c 7.700995
_cell_angle_alpha 90.000000
_cell_angle_beta 90.000000
_cell_angle_gamma 90.000000
_cell_volume 4163.025775
_symmetry_space_group_name_H-M "I M M M"
_symmetry_group_IT_number 71
_symmetry_cell_setting 'orthorhombic'
loop_
_space_group_symop_operation_xyz
x,y,z
-x,-y,z
x,-y,-z
-x,y,-z
-x,-y,-z
x,y,-z
-x,y,z
x,-y,z
1/2+x,1/2+y,1/2+z
1/2-x,1/2-y,1/2+z
1/2+x,1/2-y,1/2-z
1/2-x,1/2+y,1/2-z
1/2-x,1/2-y,1/2-z
1/2+x,1/2+y,1/2-z
1/2-x,1/2+y,1/2+z
1/2+x,1/2-y,1/2+z
loop_
_atom_site_type_symbol
_atom_site_label
_atom_site_fract_x
_atom_site_fract_y
_atom_site_fract_z
Si Si1 0.923455 0.892566 0.290637
Si Si2 0.081454 0.500000 0.298817
Si Si3 0.673542 0.302439 0.293373
Si Si4 0.581550 0.500000 0.201166
Si Si5 0.675002 0.807219 0.794212
Si Si6 0.922631 0.607579 0.713611
O O1 0.926377 0.896726 0.500000
O O2 0.875004 0.847519 0.248976
O O3 0.899550 0.946521 0.223266
O O4 0.000000 0.883833 0.229948
O O5 0.103321 0.500000 0.500000
O O6 0.100835 0.553233 0.224967
O O7 0.000000 0.500000 0.298504
O O8 0.678185 0.298787 0.500000
O O9 0.649923 0.248725 0.230162
O O10 0.749182 0.310152 0.222763
O O11 0.500000 0.500000 0.200990
O O12 0.603996 0.500000 0.000000
O O13 0.624942 0.848589 0.725056
O O14 0.679586 0.816194 0.000000
O O15 0.922497 0.606409 0.500000
O O16 0.000000 0.615108 0.764608
#
# Coordination Sequence:
#
# PCOD9520651 Si02
#       6
#    16   8  16   8  16  16
#     4   9  17  31  52  73  91 116 153 193 229 272
#     4   7  10  18  35  62  91 111 130 169 224 264
#     4  10  20  32  45  64  93 125 153 187 233 277
#     4   7  12  26  48  71  91 113 146 187 228 270
#     4   9  18  32  47  64  89 123 159 189 222 269
#     4   8  13  23  42  66  88 110 141 181 219 257
#
# _framework density 19.216792000000002
#
# number of rings (size 3 to 8) (size 9 to 14) (size 15 to 20)
#    0.000    3.400    0.000    3.000    0.000    2.000 
#    0.000    3.500    0.000    4.200    0.000    0.700 
#    0.000    2.400    0.000    0.000    0.000    0.000 
#
# Total GULP energy -222714.175776 kJ/mol
# GULP energy per Si atom -5567.854394 kJ/mol
# Density = 1.917305 g / cm^3
# Si number density = 19.216792 Si / 1000 Ang^3
#
#
#
# Elastic Constant Matrix: (Units=GPa)
#
#
# Indices 1 2 3 4 5 6 
#
# 1 65.4338 95.4153 0.7032 0.0000 0.0000 0.0000
# 2 95.4153 214.3800 -8.3320 0.0000 0.0000 0.0000
# 3 0.7032 -8.3320 26.8083 0.0000 0.0000 0.0000
# 4 0.0000 0.0000 0.0000 6.1116 0.0000 0.0000
# 5 0.0000 0.0000 0.0000 0.0000 10.3103 0.0000
# 6 0.0000 0.0000 0.0000 0.0000 0.0000 -43.6821
#
#
#
# Elastic Compliance Matrix: (Units=1/GPa)
#
#
# Indices 1 2 3 4 5 6 
#
# 1 0.044980 -0.020311 -0.007492 0.000000 0.000000 0.000000
# 2 -0.020311 0.013893 0.004851 0.000000 0.000000 0.000000
# 3 -0.007492 0.004851 0.039006 0.000000 0.000000 0.000000
# 4 0.000000 0.000000 0.000000 0.163623 0.000000 0.000000
# 5 0.000000 0.000000 0.000000 0.000000 0.096990 0.000000
# 6 0.000000 0.000000 0.000000 0.000000 0.000000 -0.022893
#
#
# Mechanical properties :
#
#
# Convention : Reuss Voigt Hill
#
# Bulk Modulus (GPa) = 19.24032 53.57724 36.40878
# Shear Modulus (GPa) = 12.53668 9.13700 10.83684
#
# Velocity S-wave (km/s) = 2.55695 2.18289 2.37729
# Velocity P-wave (km/s) = 4.33028 5.85613 5.15003
#
# Compressibility (1/GPa) = 0.05197417
#
# Stress axis : x y z
#
# Youngs Moduli (GPa) = 22.23195 71.97868 25.63706
#
# Poissons Ratio (x) = 1.46195 0.19208
# Poissons Ratio (y) = 0.45155 -0.12436
# Poissons Ratio (z) = 0.16657 -0.34915
#
# Static dielectric constant tensor:
#      x y z
#    x 1.654500 0.000000 0.000000 
#    y 0.000000 1.698790 0.000000 
#    z 0.000000 0.000000 1.724270 
# 
# From -- ./inp_files/10735.got.cif
#   From: 2010.05.17/outbox.cif.g08.bks.cpg/sg71_6_cif.got.tgz:10735.got - 2010.06.03 16:22:01.
