data_PCOD9520186
_publ_section_title
;
Structure prediction by ZEFSAII (Michael W. Deem and Ramdas Pophale) SiO2 
 PCOD9520186
Probable space group: I M M M
;
_chemical_formula_sum "Si O2"
_cell_formula_units_Z 72
_cell_length_a 24.028742
_cell_length_b 13.587333
_cell_length_c 8.553137
_cell_angle_alpha 90.000000
_cell_angle_beta 90.000000
_cell_angle_gamma 90.000000
_cell_volume 2792.483927
_symmetry_space_group_name_H-M "I M M M"
_symmetry_group_IT_number 71
_symmetry_cell_setting 'orthorhombic'
loop_
_space_group_symop_operation_xyz
x,y,z
-x,-y,z
x,-y,-z
-x,y,-z
-x,-y,-z
x,y,-z
-x,y,z
x,-y,z
1/2+x,1/2+y,1/2+z
1/2-x,1/2-y,1/2+z
1/2+x,1/2-y,1/2-z
1/2-x,1/2+y,1/2-z
1/2-x,1/2-y,1/2-z
1/2+x,1/2+y,1/2-z
1/2-x,1/2+y,1/2+z
1/2+x,1/2-y,1/2+z
loop_
_atom_site_type_symbol
_atom_site_label
_atom_site_fract_x
_atom_site_fract_y
_atom_site_fract_z
Si Si1 0.765150 0.616756 0.175338
Si Si2 0.708537 0.379652 0.500000
Si Si3 0.876109 0.678338 0.321353
Si Si4 0.579627 0.616540 0.500000
Si Si5 0.000000 0.613680 0.311174
Si Si6 0.089263 0.886790 0.669182
O O1 0.753450 0.500000 0.171882
O O2 0.736770 0.653052 0.337274
O O3 0.830649 0.632744 0.208840
O O4 0.751264 0.653346 0.000000
O O5 0.710198 0.500000 0.500000
O O6 0.643828 0.349618 0.500000
O O7 0.870094 0.638655 0.500000
O O8 0.868272 0.796352 0.333890
O O9 0.939807 0.658397 0.267712
O O10 0.579806 0.500000 0.500000
O O11 0.556965 0.636387 0.671720
O O12 0.000000 0.500000 0.262709
O O13 0.000000 0.619688 0.500000
O O14 0.060516 0.881368 0.500000
O O15 0.110930 0.000000 0.679804
#
# Coordination Sequence:
#
# PCOD9520186 Si02
#       6
#    16   8  16   8   8  16
#     4  10  20  33  53  79 109 147 184 225 278 333
#     4   9  18  34  54  79 110 143 186 233 278 331
#     4  10  19  34  57  80 113 148 186 227 278 330
#     4   9  18  34  58  81 105 145 189 233 281 327
#     4   9  18  32  56  90 117 147 187 224 268 331
#     4   9  19  35  56  81 108 143 189 233 277 327
#
# _framework density 25.783497000000001
#
# number of rings (size 3 to 8) (size 9 to 14) (size 15 to 20)
#    0.000    2.556    1.111    0.667    1.556    1.778 
#    0.000    6.667    0.000    5.333    0.000    2.333 
#    0.000    0.000    0.000    0.000    0.000    0.000 
#
# Total GULP energy -200812.044069 kJ/mol
# GULP energy per Si atom -5578.112335 kJ/mol
# Density = 2.572481 g / cm^3
# Si number density = 25.783497 Si / 1000 Ang^3
#
#
#
# Elastic Constant Matrix: (Units=GPa)
#
#
# Indices 1 2 3 4 5 6 
#
# 1 156.4935 23.1699 79.1168 0.0000 0.0000 0.0000
# 2 23.1699 98.3298 37.4661 0.0000 0.0000 0.0000
# 3 79.1168 37.4661 269.4130 0.0000 0.0000 0.0000
# 4 0.0000 0.0000 0.0000 36.6957 0.0000 0.0000
# 5 0.0000 0.0000 0.0000 0.0000 158.1817 0.0000
# 6 0.0000 0.0000 0.0000 0.0000 0.0000 -7.1677
#
#
#
# Elastic Compliance Matrix: (Units=1/GPa)
#
#
# Indices 1 2 3 4 5 6 
#
# 1 0.007595 -0.000992 -0.002092 0.000000 0.000000 0.000000
# 2 -0.000992 0.010869 -0.001220 0.000000 0.000000 0.000000
# 3 -0.002092 -0.001220 0.004496 0.000000 0.000000 0.000000
# 4 0.000000 0.000000 0.000000 0.027251 0.000000 0.000000
# 5 0.000000 0.000000 0.000000 0.000000 0.006322 0.000000
# 6 0.000000 0.000000 0.000000 0.000000 0.000000 -0.139514
#
#
# Mechanical properties :
#
#
# Convention : Reuss Voigt Hill
#
# Bulk Modulus (GPa) = 69.68737 89.30466 79.49601
# Shear Modulus (GPa) = -71.85024 63.17415 -4.33804
#
# Velocity S-wave (km/s) = -5.28462 4.95530 -1.29851
# Velocity P-wave (km/s) = 3.18587 8.21289 5.35265
#
# Compressibility (1/GPa) = 0.01434980
#
# Stress axis : x y z
#
# Youngs Moduli (GPa) = 131.66990 92.00856 222.42641
#
# Poissons Ratio (x) = 0.09131 0.46538
# Poissons Ratio (y) = 0.13066 0.27137
# Poissons Ratio (z) = 0.27549 0.11225
#
# Static dielectric constant tensor:
#      x y z
#    x 2.023120 0.000000 0.000000 
#    y 0.000000 2.022050 0.000000 
#    z 0.000000 0.000000 2.068530 
# 
# From -- ./inp_files/14373.got.cif
#   From: 2010.05.17/outbox.cif.g08.bks.cpg/sg71_8_cif.got.tgz:14373.got - 2010.06.03 16:22:01.
