data_PCOD9520567
_publ_section_title
;
Structure prediction by ZEFSAII (Michael W. Deem and Ramdas Pophale) SiO2 
 PCOD9520567
Probable space group: I M M M
;
_chemical_formula_sum "Si O2"
_cell_formula_units_Z 104
_cell_length_a 30.299588
_cell_length_b 20.862455
_cell_length_c 9.339709
_cell_angle_alpha 90.000000
_cell_angle_beta 90.000000
_cell_angle_gamma 90.000000
_cell_volume 5903.852261
_symmetry_space_group_name_H-M "I M M M"
_symmetry_group_IT_number 71
_symmetry_cell_setting 'orthorhombic'
loop_
_space_group_symop_operation_xyz
x,y,z
-x,-y,z
x,-y,-z
-x,y,-z
-x,-y,-z
x,y,-z
-x,y,z
x,-y,z
1/2+x,1/2+y,1/2+z
1/2-x,1/2-y,1/2+z
1/2+x,1/2-y,1/2-z
1/2-x,1/2+y,1/2-z
1/2-x,1/2-y,1/2-z
1/2+x,1/2+y,1/2-z
1/2-x,1/2+y,1/2+z
1/2+x,1/2-y,1/2+z
loop_
_atom_site_type_symbol
_atom_site_label
_atom_site_fract_x
_atom_site_fract_y
_atom_site_fract_z
Si Si1 0.950478 0.747246 0.828910
Si Si2 0.093339 0.500000 0.158892
Si Si3 0.788820 0.000000 0.662293
Si Si4 0.188789 0.500000 0.246086
Si Si5 0.135752 0.240024 0.329255
Si Si6 0.195639 0.644078 0.336132
Si Si7 0.449237 0.887805 0.835365
Si Si8 0.785990 0.859556 0.327885
O O1 0.907606 0.779664 0.758936
O O2 0.949637 0.678634 0.749635
O O3 0.000000 0.774627 0.802515
O O4 0.945467 0.740668 0.000000
O O5 0.145818 0.500000 0.150043
O O6 0.078653 0.561146 0.249178
O O7 0.073572 0.500000 0.000000
O O8 0.735399 0.000000 0.665077
O O9 0.800293 0.069309 0.726503
O O10 0.805799 0.000000 0.500000
O O11 0.187119 0.567759 0.329049
O O12 0.126213 0.238679 0.500000
O O13 0.154456 0.311193 0.291308
O O14 0.176315 0.192166 0.299893
O O15 0.205202 0.662361 0.500000
O O16 0.239076 0.657096 0.242158
O O17 0.500000 0.910819 0.839879
O O18 0.434192 0.879564 0.000000
O O19 0.780000 0.863926 0.500000
#
# Coordination Sequence:
#
# PCOD9520567 Si02
#       8
#    16   8   8   8  16  16  16  16
#     4  10  21  36  53  73  96 124 161 205 251 299
#     4  12  23  32  47  70  93 123 168 218 260 298
#     4   8  15  31  50  67  93 126 157 191 230 279
#     4  10  20  31  44  64  94 131 168 203 243 289
#     4  10  20  33  50  74 101 130 164 202 249 302
#     4  10  20  32  47  69  98 131 168 208 247 290
#     4  10  21  36  51  66  89 124 163 206 258 308
#     4   9  18  32  51  74 100 131 165 200 243 296
#
# _framework density 17.615617
#
# number of rings (size 3 to 8) (size 9 to 14) (size 15 to 20)
#    0.000    2.154    0.000    3.231    0.000    7.077 
#    0.000    0.000    0.000    0.000    0.000    0.538 
#    0.000    4.308    0.000    0.000    0.000    0.000 
#
# Total GULP energy -289876.099911 kJ/mol
# GULP energy per Si atom -5574.540383 kJ/mol
# Density = 1.757552 g / cm^3
# Si number density = 17.615617 Si / 1000 Ang^3
#
#
#
# Elastic Constant Matrix: (Units=GPa)
#
#
# Indices 1 2 3 4 5 6 
#
# 1 103.1802 30.5080 46.6860 0.0000 0.0000 0.0000
# 2 30.5080 54.9180 14.1893 0.0000 0.0000 0.0000
# 3 46.6860 14.1893 76.5941 0.0000 0.0000 0.0000
# 4 0.0000 0.0000 0.0000 12.5435 0.0000 0.0000
# 5 0.0000 0.0000 0.0000 0.0000 28.3132 0.0000
# 6 0.0000 0.0000 0.0000 0.0000 0.0000 19.9286
#
#
#
# Elastic Compliance Matrix: (Units=1/GPa)
#
#
# Indices 1 2 3 4 5 6 
#
# 1 0.015247 -0.006374 -0.008113 0.000000 0.000000 0.000000
# 2 -0.006374 0.021789 -0.000151 0.000000 0.000000 0.000000
# 3 -0.008113 -0.000151 0.018029 0.000000 0.000000 0.000000
# 4 0.000000 0.000000 0.000000 0.079723 0.000000 0.000000
# 5 0.000000 0.000000 0.000000 0.000000 0.035319 0.000000
# 6 0.000000 0.000000 0.000000 0.000000 0.000000 0.050179
#
#
# Mechanical properties :
#
#
# Convention : Reuss Voigt Hill
#
# Bulk Modulus (GPa) = 38.77663 46.38432 42.58047
# Shear Modulus (GPa) = 19.36796 21.71100 20.53948
#
# Velocity S-wave (km/s) = 3.31943 3.51449 3.41835
# Velocity P-wave (km/s) = 6.06234 6.54655 6.30909
#
# Compressibility (1/GPa) = 0.02578873
#
# Stress axis : x y z
#
# Youngs Moduli (GPa) = 65.58579 45.89487 55.46683
#
# Poissons Ratio (x) = 0.29253 0.44999
# Poissons Ratio (y) = 0.41804 0.00840
# Poissons Ratio (z) = 0.53208 0.00695
#
# Static dielectric constant tensor:
#      x y z
#    x 1.617990 0.000000 0.000000 
#    y 0.000000 1.635630 0.000000 
#    z 0.000000 0.000000 1.601320 
# 
# From -- ./inp_files/17071.got.cif
#   From: 2010.05.17/outbox.cif.g08.bks.cpg/sg71_9_cif.got.tgz:17071.got - 2010.06.03 16:22:01.
