data_PCOD9520142
_publ_section_title
;
Structure prediction by ZEFSAII (Michael W. Deem and Ramdas Pophale) SiO2 
 PCOD9520142
Probable space group: I M M M
;
_chemical_formula_sum "Si O2"
_cell_formula_units_Z 96
_cell_length_a 29.707360
_cell_length_b 8.768130
_cell_length_c 17.180850
_cell_angle_alpha 90.000000
_cell_angle_beta 90.000000
_cell_angle_gamma 90.000000
_cell_volume 4475.233351
_symmetry_space_group_name_H-M "I M M M"
_symmetry_group_IT_number 71
_symmetry_cell_setting 'orthorhombic'
loop_
_space_group_symop_operation_xyz
x,y,z
-x,-y,z
x,-y,-z
-x,y,-z
-x,-y,-z
x,y,-z
-x,y,z
x,-y,z
1/2+x,1/2+y,1/2+z
1/2-x,1/2-y,1/2+z
1/2+x,1/2-y,1/2-z
1/2-x,1/2+y,1/2-z
1/2-x,1/2-y,1/2-z
1/2+x,1/2+y,1/2-z
1/2-x,1/2+y,1/2+z
1/2+x,1/2-y,1/2+z
loop_
_atom_site_type_symbol
_atom_site_label
_atom_site_fract_x
_atom_site_fract_y
_atom_site_fract_z
Si Si1 0.949147 0.179229 0.366704
Si Si2 0.449181 0.169638 0.296670
Si Si3 0.354141 0.181716 0.137650
Si Si4 0.742487 0.814425 0.084844
Si Si5 0.613704 0.329296 0.410391
Si Si6 0.192125 0.174399 0.788522
O O1 0.946292 0.211875 0.274005
O O2 0.901794 0.252926 0.392552
O O3 0.000000 0.235441 0.390527
O O4 0.947999 0.000000 0.383333
O O5 0.500000 0.171854 0.325527
O O6 0.417016 0.210393 0.366249
O O7 0.439840 0.000000 0.264534
O O8 0.310426 0.222037 0.087039
O O9 0.337334 0.239996 0.223099
O O10 0.358037 0.000000 0.140101
O O11 0.763917 0.758019 0.166970
O O12 0.746870 0.000000 0.088026
O O13 0.760804 0.764820 0.000000
O O14 0.620312 0.294376 0.500000
O O15 0.593360 0.500000 0.404058
O O16 0.659925 0.334136 0.363951
O O17 0.200482 0.000000 0.761445
#
# Coordination Sequence:
#
# PCOD9520142 Si02
#       6
#    16  16  16  16  16  16
#     4  10  20  35  56  80 107 141 181 225 273 329
#     4  10  20  33  49  70  99 135 175 223 278 327
#     4  11  21  33  56  87 115 143 179 228 278 324
#     4   9  19  36  57  82 113 149 187 225 268 321
#     4  10  20  32  48  71 100 140 186 225 262 311
#     4  10  19  34  56  79 107 147 189 226 262 312
#
# _framework density 21.451395000000002
#
# number of rings (size 3 to 8) (size 9 to 14) (size 15 to 20)
#    0.000    2.000    1.667    2.500    0.000    4.667 
#    0.000    2.500    0.000    6.000    0.000    3.500 
#    0.000    0.000    0.000    0.000    0.000    0.000 
#
# Total GULP energy -267485.684439 kJ/mol
# GULP energy per Si atom -5572.618426 kJ/mol
# Density = 2.140257 g / cm^3
# Si number density = 21.451395 Si / 1000 Ang^3
#
#
#
# Elastic Constant Matrix: (Units=GPa)
#
#
# Indices 1 2 3 4 5 6 
#
# 1 113.8983 24.9049 0.4514 0.0000 0.0000 0.0000
# 2 24.9049 32.0809 -9.6852 0.0000 0.0000 0.0000
# 3 0.4514 -9.6852 51.1169 0.0000 0.0000 0.0000
# 4 0.0000 0.0000 0.0000 7.1448 0.0000 0.0000
# 5 0.0000 0.0000 0.0000 0.0000 16.7116 0.0000
# 6 0.0000 0.0000 0.0000 0.0000 0.0000 31.2575
#
#
#
# Elastic Compliance Matrix: (Units=1/GPa)
#
#
# Indices 1 2 3 4 5 6 
#
# 1 0.010724 -0.008861 -0.001774 0.000000 0.000000 0.000000
# 2 -0.008861 0.040384 0.007730 0.000000 0.000000 0.000000
# 3 -0.001774 0.007730 0.021043 0.000000 0.000000 0.000000
# 4 0.000000 0.000000 0.000000 0.139961 0.000000 0.000000
# 5 0.000000 0.000000 0.000000 0.000000 0.059839 0.000000
# 6 0.000000 0.000000 0.000000 0.000000 0.000000 0.031992
#
#
# Mechanical properties :
#
#
# Convention : Reuss Voigt Hill
#
# Bulk Modulus (GPa) = 15.07343 25.38204 20.22773
# Shear Modulus (GPa) = 15.06629 23.11778 19.09203
#
# Velocity S-wave (km/s) = 2.65306 3.28637 2.98655
# Velocity P-wave (km/s) = 4.05302 5.12429 4.61981
#
# Compressibility (1/GPa) = 0.06634190
#
# Stress axis : x y z
#
# Youngs Moduli (GPa) = 93.24606 24.76247 47.52116
#
# Poissons Ratio (x) = 0.21942 0.08428
# Poissons Ratio (y) = 0.82624 -0.36733
# Poissons Ratio (z) = 0.16538 -0.19141
#
# Static dielectric constant tensor:
#      x y z
#    x 1.881600 0.000000 0.000000 
#    y 0.000000 1.762080 0.000000 
#    z 0.000000 0.000000 1.779410 
# 
# From -- ./inp_files/56134.got.cif
#   From: 2010.05.17/outbox.cif.g08.bks.cpg/sg71_29_cif.got.tgz:56134.got - 2010.06.03 16:22:01.
