data_PCOD9520785
_publ_section_title
;
Structure prediction by ZEFSAII (Michael W. Deem and Ramdas Pophale) SiO2 
 PCOD9520785
Probable space group: I M M M
;
_chemical_formula_sum "Si O2"
_cell_formula_units_Z 88
_cell_length_a 26.496286
_cell_length_b 12.739509
_cell_length_c 16.206369
_cell_angle_alpha 90.000000
_cell_angle_beta 90.000000
_cell_angle_gamma 90.000000
_cell_volume 5470.454572
_symmetry_space_group_name_H-M "I M M M"
_symmetry_group_IT_number 71
_symmetry_cell_setting 'orthorhombic'
loop_
_space_group_symop_operation_xyz
x,y,z
-x,-y,z
x,-y,-z
-x,y,-z
-x,-y,-z
x,y,-z
-x,y,z
x,-y,z
1/2+x,1/2+y,1/2+z
1/2-x,1/2-y,1/2+z
1/2+x,1/2-y,1/2-z
1/2-x,1/2+y,1/2-z
1/2-x,1/2-y,1/2-z
1/2+x,1/2+y,1/2-z
1/2-x,1/2+y,1/2+z
1/2+x,1/2-y,1/2+z
loop_
_atom_site_type_symbol
_atom_site_label
_atom_site_fract_x
_atom_site_fract_y
_atom_site_fract_z
Si Si1 0.314795 0.125102 0.900018
Si Si2 0.091202 0.753758 0.337181
Si Si3 0.702321 0.372672 0.594994
Si Si4 0.595787 0.374488 0.331289
Si Si5 0.500000 0.744245 0.403620
Si Si6 0.060460 0.879446 0.500000
Si Si7 0.500000 0.124386 0.237650
O O1 0.356969 0.192149 0.854022
O O2 0.257942 0.157900 0.874137
O O3 0.320997 0.000000 0.884860
O O4 0.318687 0.138918 0.000000
O O5 0.091727 0.836411 0.262507
O O6 0.077611 0.816199 0.419718
O O7 0.048360 0.671191 0.309893
O O8 0.698879 0.339392 0.500000
O O9 0.702492 0.500000 0.596164
O O10 0.651277 0.338740 0.639140
O O11 0.592350 0.500000 0.337947
O O12 0.550310 0.323498 0.383551
O O13 0.500000 0.776255 0.500000
O O14 0.500000 0.833605 0.332393
O O15 0.000000 0.882683 0.500000
O O16 0.079120 0.000000 0.500000
O O17 0.500000 0.000000 0.236240
#
# Coordination Sequence:
#
# PCOD9520785 Si02
#       7
#    16  16  16  16   8   8   8
#     4   9  17  30  50  72  97 127 167 215 254 295
#     4  11  20  34  50  74 100 133 176 206 254 304
#     4   8  15  29  48  71  98 129 161 203 258 303
#     4  10  20  32  49  74 106 133 165 211 253 299
#     4  10  21  35  55  79 101 131 168 201 246 308
#     4  11  22  36  52  70 102 142 174 209 252 305
#     4  10  22  37  52  75 105 129 159 209 254 296
#
# _framework density 16.086414999999999
#
# number of rings (size 3 to 8) (size 9 to 14) (size 15 to 20)
#    0.000    2.273    1.818    3.000    0.000    2.364 
#    0.000    0.455    0.000    0.000    0.000    1.273 
#    0.000    0.000    0.000    0.000    0.000    0.000 
#
# Total GULP energy -245171.752162 kJ/mol
# GULP energy per Si atom -5572.085276 kJ/mol
# Density = 1.604980 g / cm^3
# Si number density = 16.086415 Si / 1000 Ang^3
#
#
#
# Elastic Constant Matrix: (Units=GPa)
#
#
# Indices 1 2 3 4 5 6 
#
# 1 134.0375 43.1543 50.3614 0.0000 0.0000 0.0000
# 2 43.1543 77.1260 37.6335 0.0000 0.0000 0.0000
# 3 50.3614 37.6335 101.8655 0.0000 0.0000 0.0000
# 4 0.0000 0.0000 0.0000 23.7506 0.0000 0.0000
# 5 0.0000 0.0000 0.0000 0.0000 -6.7090 0.0000
# 6 0.0000 0.0000 0.0000 0.0000 0.0000 51.6271
#
#
#
# Elastic Compliance Matrix: (Units=1/GPa)
#
#
# Indices 1 2 3 4 5 6 
#
# 1 0.010039 -0.003898 -0.003523 0.000000 0.000000 0.000000
# 2 -0.003898 0.017331 -0.004475 0.000000 0.000000 0.000000
# 3 -0.003523 -0.004475 0.013212 0.000000 0.000000 0.000000
# 4 0.000000 0.000000 0.000000 0.042104 0.000000 0.000000
# 5 0.000000 0.000000 0.000000 0.000000 -0.149054 0.000000
# 6 0.000000 0.000000 0.000000 0.000000 0.000000 0.019370
#
#
# Mechanical properties :
#
#
# Convention : Reuss Voigt Hill
#
# Bulk Modulus (GPa) = 59.56462 63.92524 61.74493
# Shear Modulus (GPa) = -283.95777 25.85908 -129.04935
#
# Velocity S-wave (km/s) = -13.30051 4.01373 -8.96642
# Velocity P-wave (km/s) = 14.09833 7.82975 8.29030
#
# Compressibility (1/GPa) = 0.01678849
#
# Stress axis : x y z
#
# Youngs Moduli (GPa) = 99.60730 57.70087 75.68781
#
# Poissons Ratio (x) = 0.22493 0.26667
# Poissons Ratio (y) = 0.38829 0.33874
# Poissons Ratio (z) = 0.35094 0.25824
#
# Static dielectric constant tensor:
#      x y z
#    x 1.554340 0.000000 0.000000 
#    y 0.000000 1.508310 0.000000 
#    z 0.000000 0.000000 1.528910 
# 
# From -- ./inp_files/40181.got.cif
#   From: 2010.05.17/outbox.cif.g08.bks.cpg/sg71_21_cif.got.tgz:40181.got - 2010.06.03 16:22:01.
