data_PCOD9520594
_publ_section_title
;
Structure prediction by ZEFSAII (Michael W. Deem and Ramdas Pophale) SiO2 
 PCOD9520594
Probable space group: I M M M
;
_chemical_formula_sum "Si O2"
_cell_formula_units_Z 120
_cell_length_a 29.574459
_cell_length_b 14.727152
_cell_length_c 16.574465
_cell_angle_alpha 90.000000
_cell_angle_beta 90.000000
_cell_angle_gamma 90.000000
_cell_volume 7218.967673
_symmetry_space_group_name_H-M "I M M M"
_symmetry_group_IT_number 71
_symmetry_cell_setting 'orthorhombic'
loop_
_space_group_symop_operation_xyz
x,y,z
-x,-y,z
x,-y,-z
-x,y,-z
-x,-y,-z
x,y,-z
-x,y,z
x,-y,z
1/2+x,1/2+y,1/2+z
1/2-x,1/2-y,1/2+z
1/2+x,1/2-y,1/2-z
1/2-x,1/2+y,1/2-z
1/2-x,1/2-y,1/2-z
1/2+x,1/2+y,1/2-z
1/2-x,1/2+y,1/2+z
1/2+x,1/2-y,1/2+z
loop_
_atom_site_type_symbol
_atom_site_label
_atom_site_fract_x
_atom_site_fract_y
_atom_site_fract_z
Si Si1 0.401997 0.110449 0.906406
Si Si2 0.500000 0.894857 0.901346
Si Si3 0.770343 0.208538 0.093281
Si Si4 0.309769 0.105523 0.178832
Si Si5 0.949902 0.790123 0.901269
Si Si6 0.690772 0.102260 0.371874
Si Si7 0.139287 0.104177 0.098165
Si Si8 0.084916 0.400433 0.905127
O O1 0.451264 0.144876 0.877802
O O2 0.358852 0.135215 0.853543
O O3 0.404567 0.000000 0.905407
O O4 0.394956 0.136798 0.000000
O O5 0.500000 0.000000 0.874714
O O6 0.500000 0.895814 0.000000
O O7 0.729061 0.169576 0.144079
O O8 0.778241 0.316290 0.097702
O O9 0.817234 0.162724 0.122654
O O10 0.763420 0.182025 0.000000
O O11 0.309375 0.106276 0.275130
O O12 0.302258 0.000000 0.152502
O O13 0.907934 0.851755 0.874955
O O14 0.940851 0.687034 0.872647
O O15 0.000000 0.820998 0.877638
O O16 0.948719 0.788944 0.000000
O O17 0.638801 0.115997 0.399529
O O18 0.703981 0.000000 0.396874
O O19 0.143654 0.000000 0.123898
O O20 0.138730 0.105623 0.000000
O O21 0.075490 0.500000 0.868445
O O22 0.073509 0.405519 0.000000
#
# Coordination Sequence:
#
# PCOD9520594 Si02
#       8
#    16   8  16  16  16  16  16  16
#     4   8  13  23  40  62  88 118 151 180 209 252
#     4   7  10  18  36  60  84 114 148 178 206 243
#     4  11  20  32  50  68  88 117 154 192 227 268
#     4  10  20  31  45  68  97 123 146 180 226 276
#     4   9  16  26  41  62  86 111 143 188 236 271
#     4  10  20  33  48  65  89 120 152 186 229 278
#     4   9  17  28  42  62  86 111 141 180 226 274
#     4   9  16  28  46  64  83 113 155 194 226 266
#
# _framework density 16.622875000000001
#
# number of rings (size 3 to 8) (size 9 to 14) (size 15 to 20)
#    0.000    2.733    1.333    2.400    0.000    2.667 
#    0.000    2.667    1.467    0.000    0.000    0.000 
#    0.000    0.000    0.000    0.600    0.000    6.933 
#
# Total GULP energy -334215.034080 kJ/mol
# GULP energy per Si atom -5570.250568 kJ/mol
# Density = 1.658504 g / cm^3
# Si number density = 16.622875 Si / 1000 Ang^3
#
#
#
# Elastic Constant Matrix: (Units=GPa)
#
#
# Indices 1 2 3 4 5 6 
#
# 1 106.7673 37.8372 15.1606 0.0000 0.0000 0.0000
# 2 37.8372 66.1892 4.7570 0.0000 0.0000 0.0000
# 3 15.1606 4.7570 23.5738 0.0000 0.0000 0.0000
# 4 0.0000 0.0000 0.0000 10.5913 0.0000 0.0000
# 5 0.0000 0.0000 0.0000 0.0000 -5.2850 0.0000
# 6 0.0000 0.0000 0.0000 0.0000 0.0000 22.1726
#
#
#
# Elastic Compliance Matrix: (Units=1/GPa)
#
#
# Indices 1 2 3 4 5 6 
#
# 1 0.012743 -0.006794 -0.006824 0.000000 0.000000 0.000000
# 2 -0.006794 0.018953 0.000545 0.000000 0.000000 0.000000
# 3 -0.006824 0.000545 0.046699 0.000000 0.000000 0.000000
# 4 0.000000 0.000000 0.000000 0.094417 0.000000 0.000000
# 5 0.000000 0.000000 0.000000 0.000000 -0.189216 0.000000
# 6 0.000000 0.000000 0.000000 0.000000 0.000000 0.045101
#
#
# Mechanical properties :
#
#
# Convention : Reuss Voigt Hill
#
# Bulk Modulus (GPa) = 19.13961 34.67110 26.90536
# Shear Modulus (GPa) = 69.19609 14.74749 41.97179
#
# Velocity S-wave (km/s) = 6.45890 2.98179 5.03033
# Velocity P-wave (km/s) = 8.19526 5.72342 7.06823
#
# Compressibility (1/GPa) = 0.05224767
#
# Stress axis : x y z
#
# Youngs Moduli (GPa) = 78.47507 52.76244 21.41389
#
# Poissons Ratio (x) = 0.35847 0.14613
# Poissons Ratio (y) = 0.53316 -0.01167
# Poissons Ratio (z) = 0.53552 -0.02874
#
# Static dielectric constant tensor:
#      x y z
#    x 1.571000 0.000000 0.000000 
#    y 0.000000 1.571070 0.000000 
#    z 0.000000 0.000000 1.581180 
# 
# From -- ./inp_files/56502.got.cif
#   From: 2010.05.17/outbox.cif.g08.bks.cpg/sg71_29_cif.got.tgz:56502.got - 2010.06.03 16:22:01.
