data_PCOD9520857
_publ_section_title
;
Structure prediction by ZEFSAII (Michael W. Deem and Ramdas Pophale) SiO2 
 PCOD9520857
Probable space group: I M M M
;
_chemical_formula_sum "Si O2"
_cell_formula_units_Z 80
_cell_length_a 7.622550
_cell_length_b 21.329934
_cell_length_c 26.294335
_cell_angle_alpha 90.000000
_cell_angle_beta 90.000000
_cell_angle_gamma 90.000000
_cell_volume 4275.156181
_symmetry_space_group_name_H-M "I M M M"
_symmetry_group_IT_number 71
_symmetry_cell_setting 'orthorhombic'
loop_
_space_group_symop_operation_xyz
x,y,z
-x,-y,z
x,-y,-z
-x,y,-z
-x,-y,-z
x,y,-z
-x,y,z
x,-y,z
1/2+x,1/2+y,1/2+z
1/2-x,1/2-y,1/2+z
1/2+x,1/2-y,1/2-z
1/2-x,1/2+y,1/2-z
1/2-x,1/2-y,1/2-z
1/2+x,1/2+y,1/2-z
1/2-x,1/2+y,1/2+z
1/2+x,1/2-y,1/2+z
loop_
_atom_site_type_symbol
_atom_site_label
_atom_site_fract_x
_atom_site_fract_y
_atom_site_fract_z
Si Si1 0.785328 0.386181 0.389412
Si Si2 0.790048 0.567785 0.280892
Si Si3 0.285052 0.739183 0.889837
Si Si4 0.206033 0.392292 0.500000
Si Si5 0.706596 0.260318 0.000000
Si Si6 0.292779 0.689639 0.215712
O O1 0.724244 0.419722 0.338282
O O2 0.739316 0.312653 0.383832
O O3 0.722652 0.410897 0.444525
O O4 0.000000 0.389041 0.390983
O O5 0.725868 0.500000 0.262411
O O6 0.756052 0.626191 0.244376
O O7 0.000000 0.564878 0.285236
O O8 0.500000 0.737449 0.890952
O O9 0.221310 0.718295 0.945617
O O10 0.220451 0.701086 0.841043
O O11 0.215420 0.315942 0.500000
O O12 0.000000 0.409900 0.500000
O O13 0.500000 0.276125 0.000000
O O14 0.500000 0.688526 0.210175
O O15 0.250000 0.750000 0.250000
#
# Coordination Sequence:
#
# PCOD9520857 Si02
#       6
#    16  16  16   8   8  16
#     4   8  12  22  38  60  89 118 150 187 229 270
#     4  10  20  33  47  65  94 129 160 193 233 275
#     4   8  13  22  40  65  91 115 143 183 231 275
#     4   7  10  16  33  58  85 115 145 185 229 265
#     4   7  10  18  34  61  91 113 135 175 232 279
#     4  11  20  31  49  72  96 122 156 194 231 275
#
# _framework density 18.712765999999998
#
# number of rings (size 3 to 8) (size 9 to 14) (size 15 to 20)
#    0.000    3.200    2.000    3.000    0.000    0.400 
#    0.000    0.500    0.000    3.000    0.000    5.600 
#    0.000    7.200    0.000    0.000    0.000    0.000 
#
# Total GULP energy -222773.318914 kJ/mol
# GULP energy per Si atom -5569.332973 kJ/mol
# Density = 1.867018 g / cm^3
# Si number density = 18.712766 Si / 1000 Ang^3
#
#
#
# Elastic Constant Matrix: (Units=GPa)
#
#
# Indices 1 2 3 4 5 6 
#
# 1 36.2924 5.0754 9.5760 0.0000 0.0000 0.0000
# 2 5.0754 101.0980 75.3546 0.0000 0.0000 0.0000
# 3 9.5760 75.3546 174.8482 0.0000 0.0000 0.0000
# 4 0.0000 0.0000 0.0000 8.0757 0.0000 0.0000
# 5 0.0000 0.0000 0.0000 0.0000 9.5415 0.0000
# 6 0.0000 0.0000 0.0000 0.0000 0.0000 8.8808
#
#
#
# Elastic Compliance Matrix: (Units=1/GPa)
#
#
# Indices 1 2 3 4 5 6 
#
# 1 0.027968 -0.000387 -0.001365 0.000000 0.000000 0.000000
# 2 -0.000387 0.014578 -0.006261 0.000000 0.000000 0.000000
# 3 -0.001365 -0.006261 0.008493 0.000000 0.000000 0.000000
# 4 0.000000 0.000000 0.000000 0.123828 0.000000 0.000000
# 5 0.000000 0.000000 0.000000 0.000000 0.104806 0.000000
# 6 0.000000 0.000000 0.000000 0.000000 0.000000 0.112602
#
#
# Mechanical properties :
#
#
# Convention : Reuss Voigt Hill
#
# Bulk Modulus (GPa) = 28.56142 54.69450 41.62796
# Shear Modulus (GPa) = 11.90556 20.11511 16.01033
#
# Velocity S-wave (km/s) = 2.52509 3.28218 2.92821
# Velocity P-wave (km/s) = 4.87828 6.60723 5.80746
#
# Compressibility (1/GPa) = 0.03501226
#
# Stress axis : x y z
#
# Youngs Moduli (GPa) = 35.75487 68.59714 117.75049
#
# Poissons Ratio (x) = 0.02652 0.16075
# Poissons Ratio (y) = 0.01382 0.73729
# Poissons Ratio (z) = 0.04881 0.42952
#
# Static dielectric constant tensor:
#      x y z
#    x 1.743270 0.000000 0.000000 
#    y 0.000000 1.613280 0.000000 
#    z 0.000000 0.000000 1.720540 
# 
# From -- ./inp_files/10753.got.cif
#   From: 2010.05.17/outbox.cif.g08.bks.cpg/sg71_6_cif.got.tgz:10753.got - 2010.06.03 16:22:01.
