data_PCOD9520112
_publ_section_title
;
Structure prediction by ZEFSAII (Michael W. Deem and Ramdas Pophale) SiO2 
 PCOD9520112
Probable space group: I M M M
;
_chemical_formula_sum "Si O2"
_cell_formula_units_Z 80
_cell_length_a 19.709350
_cell_length_b 24.634193
_cell_length_c 8.181058
_cell_angle_alpha 90.000000
_cell_angle_beta 90.000000
_cell_angle_gamma 90.000000
_cell_volume 3972.099446
_symmetry_space_group_name_H-M "I M M M"
_symmetry_group_IT_number 71
_symmetry_cell_setting 'orthorhombic'
loop_
_space_group_symop_operation_xyz
x,y,z
-x,-y,z
x,-y,-z
-x,y,-z
-x,-y,-z
x,y,-z
-x,y,z
x,-y,z
1/2+x,1/2+y,1/2+z
1/2-x,1/2-y,1/2+z
1/2+x,1/2-y,1/2-z
1/2-x,1/2+y,1/2-z
1/2-x,1/2-y,1/2-z
1/2+x,1/2+y,1/2-z
1/2-x,1/2+y,1/2+z
1/2+x,1/2-y,1/2+z
loop_
_atom_site_type_symbol
_atom_site_label
_atom_site_fract_x
_atom_site_fract_y
_atom_site_fract_z
Si Si1 0.711051 0.830060 0.302906
Si Si2 0.000000 0.565655 0.314250
Si Si3 0.420147 0.374954 0.678894
Si Si4 0.351792 0.938702 0.304882
Si Si5 0.145785 0.224148 0.694685
Si Si6 0.417020 0.437033 0.000000
O O1 0.709325 0.830277 0.500000
O O2 0.696027 0.890593 0.241880
O O3 0.784146 0.806339 0.254922
O O4 0.655822 0.786486 0.242347
O O5 0.070640 0.579487 0.228414
O O6 0.000000 0.500000 0.318013
O O7 0.000000 0.585986 0.500000
O O8 0.391470 0.388583 0.500000
O O9 0.500000 0.387536 0.674110
O O10 0.410566 0.311266 0.715669
O O11 0.391896 0.407122 0.836059
O O12 0.342624 0.941889 0.500000
O O13 0.341775 0.000000 0.238487
O O14 0.137113 0.219921 0.500000
O O15 0.397960 0.500000 0.000000
O O16 0.500000 0.434115 0.000000
#
# Coordination Sequence:
#
# PCOD9520112 Si02
#       6
#    16   8  16  16  16   8
#     4   9  19  34  53  77 105 140 185 225 273 329
#     4   9  17  29  47  71 101 135 169 209 261 314
#     4  10  20  35  57  83 113 148 184 230 281 327
#     4   9  17  32  53  75 102 137 177 218 265 324
#     4  10  19  34  55  77 108 144 184 229 277 328
#     4   9  18  34  56  82 112 146 183 222 272 334
#
# _framework density 20.140481000000001
#
# number of rings (size 3 to 8) (size 9 to 14) (size 15 to 20)
#    0.000    2.600    1.000    0.900    0.000    3.200 
#    1.800    3.000    0.000    0.000    0.000    0.000 
#    0.000    0.000    0.000    0.000    0.000    0.000 
#
# Total GULP energy -222948.971129 kJ/mol
# GULP energy per Si atom -5573.724278 kJ/mol
# Density = 2.009464 g / cm^3
# Si number density = 20.140481 Si / 1000 Ang^3
#
#
#
# Elastic Constant Matrix: (Units=GPa)
#
#
# Indices 1 2 3 4 5 6 
#
# 1 9.8931 16.2736 5.1849 0.0000 0.0000 0.0000
# 2 16.2736 115.9039 33.4801 0.0000 0.0000 0.0000
# 3 5.1849 33.4801 78.9785 0.0000 0.0000 0.0000
# 4 0.0000 0.0000 0.0000 21.6711 0.0000 0.0000
# 5 0.0000 0.0000 0.0000 0.0000 7.9441 0.0000
# 6 0.0000 0.0000 0.0000 0.0000 0.0000 22.8673
#
#
#
# Elastic Compliance Matrix: (Units=1/GPa)
#
#
# Indices 1 2 3 4 5 6 
#
# 1 0.131496 -0.018198 -0.000918 0.000000 0.000000 0.000000
# 2 -0.018198 0.012350 -0.004041 0.000000 0.000000 0.000000
# 3 -0.000918 -0.004041 0.014435 0.000000 0.000000 0.000000
# 4 0.000000 0.000000 0.000000 0.046144 0.000000 0.000000
# 5 0.000000 0.000000 0.000000 0.000000 0.125879 0.000000
# 6 0.000000 0.000000 0.000000 0.000000 0.000000 0.043731
#
#
# Mechanical properties :
#
#
# Convention : Reuss Voigt Hill
#
# Bulk Modulus (GPa) = 8.93114 34.96142 21.94628
# Shear Modulus (GPa) = 10.92487 20.48561 15.70524
#
# Velocity S-wave (km/s) = 2.33155 3.19272 2.79549
# Velocity P-wave (km/s) = 3.41939 5.56666 4.61952
#
# Compressibility (1/GPa) = 0.11196775
#
# Stress axis : x y z
#
# Youngs Moduli (GPa) = 7.60478 80.97095 69.27655
#
# Poissons Ratio (x) = 1.47348 0.06362
# Poissons Ratio (y) = 0.13839 0.27993
# Poissons Ratio (z) = 0.00698 0.32718
#
# Static dielectric constant tensor:
#      x y z
#    x 1.737640 0.000000 0.000000 
#    y 0.000000 1.733710 0.000000 
#    z 0.000000 0.000000 1.721720 
# 
# From -- ./inp_files/8398.got.cif
#   From: 2010.05.17/outbox.cif.g08.bks.cpg/sg71_5_cif.got.tgz:8398.got - 2010.06.03 16:22:01.
