data_PCOD9520324
_publ_section_title
;
Structure prediction by ZEFSAII (Michael W. Deem and Ramdas Pophale) SiO2 
 PCOD9520324
Probable space group: I M M M
;
_chemical_formula_sum "Si O2"
_cell_formula_units_Z 104
_cell_length_a 8.810355
_cell_length_b 21.811178
_cell_length_c 29.107672
_cell_angle_alpha 90.000000
_cell_angle_beta 90.000000
_cell_angle_gamma 90.000000
_cell_volume 5593.453119
_symmetry_space_group_name_H-M "I M M M"
_symmetry_group_IT_number 71
_symmetry_cell_setting 'orthorhombic'
loop_
_space_group_symop_operation_xyz
x,y,z
-x,-y,z
x,-y,-z
-x,y,-z
-x,-y,-z
x,y,-z
-x,y,z
x,-y,z
1/2+x,1/2+y,1/2+z
1/2-x,1/2-y,1/2+z
1/2+x,1/2-y,1/2-z
1/2-x,1/2+y,1/2-z
1/2-x,1/2-y,1/2-z
1/2+x,1/2+y,1/2-z
1/2-x,1/2+y,1/2+z
1/2+x,1/2-y,1/2+z
loop_
_atom_site_type_symbol
_atom_site_label
_atom_site_fract_x
_atom_site_fract_y
_atom_site_fract_z
Si Si1 0.182494 0.140531 0.400059
Si Si2 0.675114 0.275900 0.601046
Si Si3 0.170538 0.072597 0.221011
Si Si4 0.675307 0.925981 0.314598
Si Si5 0.817227 0.000000 0.054451
Si Si6 0.168190 0.750796 0.000000
Si Si7 0.320605 0.099060 0.876132
Si Si8 0.824228 0.126426 0.500000
O O1 0.258332 0.207513 0.394108
O O2 0.230183 0.099903 0.357093
O O3 0.236430 0.110976 0.449053
O O4 0.000000 0.147248 0.402549
O O5 0.500000 0.278005 0.616909
O O6 0.675706 0.288284 0.546283
O O7 0.775208 0.329620 0.621465
O O8 0.256882 0.096578 0.266025
O O9 0.259609 0.078994 0.173583
O O10 0.000000 0.098403 0.216969
O O11 0.156713 0.000000 0.228791
O O12 0.500000 0.907001 0.318884
O O13 0.679784 0.000000 0.315390
O O14 0.756608 0.941310 0.083464
O O15 0.000000 0.000000 0.056409
O O16 0.773272 0.000000 0.000000
O O17 0.299243 0.700114 0.000000
O O18 0.000000 0.719232 0.000000
O O19 0.500000 0.090411 0.879343
O O20 0.000000 0.108400 0.500000
#
# Coordination Sequence:
#
# PCOD9520324 Si02
#       8
#    16  16  16  16   8   8  16   8
#     4  10  19  35  57  84 116 150 190 235 284 336
#     4  10  20  35  55  80 112 151 192 233 281 338
#     4  10  20  37  61  84 108 144 189 234 283 341
#     4  10  21  37  59  86 115 146 186 234 284 339
#     4  11  25  43  61  83 117 159 201 246 293 340
#     4   8  16  30  50  74 100 140 188 228 265 319
#     4  12  24  38  58  85 117 151 191 238 291 343
#     4   8  16  30  51  77 109 146 182 223 268 323
#
# _framework density 18.593166
#
# number of rings (size 3 to 8) (size 9 to 14) (size 15 to 20)
#    0.000    1.923    0.769    3.462    1.077    3.385 
#    0.000    1.154    0.000    2.308    0.000    0.000 
#    0.000    0.000    0.000    0.000    0.000    0.000 
#
# Total GULP energy -289794.947100 kJ/mol
# GULP energy per Si atom -5572.979752 kJ/mol
# Density = 1.855085 g / cm^3
# Si number density = 18.593166 Si / 1000 Ang^3
#
#
#
# Elastic Constant Matrix: (Units=GPa)
#
#
# Indices 1 2 3 4 5 6 
#
# 1 100.6248 17.0822 45.5488 0.0000 0.0000 0.0000
# 2 17.0822 19.8068 21.1290 0.0000 0.0000 0.0000
# 3 45.5488 21.1290 140.7957 0.0000 0.0000 0.0000
# 4 0.0000 0.0000 0.0000 7.3437 0.0000 0.0000
# 5 0.0000 0.0000 0.0000 0.0000 22.3820 0.0000
# 6 0.0000 0.0000 0.0000 0.0000 0.0000 26.0907
#
#
#
# Elastic Compliance Matrix: (Units=1/GPa)
#
#
# Indices 1 2 3 4 5 6 
#
# 1 0.012566 -0.007740 -0.002904 0.000000 0.000000 0.000000
# 2 -0.007740 0.064878 -0.007232 0.000000 0.000000 0.000000
# 3 -0.002904 -0.007232 0.009127 0.000000 0.000000 0.000000
# 4 0.000000 0.000000 0.000000 0.136171 0.000000 0.000000
# 5 0.000000 0.000000 0.000000 0.000000 0.044679 0.000000
# 6 0.000000 0.000000 0.000000 0.000000 0.000000 0.038328
#
#
# Mechanical properties :
#
#
# Convention : Reuss Voigt Hill
#
# Bulk Modulus (GPa) = 19.67748 47.63859 33.65804
# Shear Modulus (GPa) = 13.94929 22.99444 18.47187
#
# Velocity S-wave (km/s) = 2.74202 3.52051 3.15537
# Velocity P-wave (km/s) = 4.54214 6.49635 5.60507
#
# Compressibility (1/GPa) = 0.05081952
#
# Stress axis : x y z
#
# Youngs Moduli (GPa) = 79.57790 15.41353 109.56250
#
# Poissons Ratio (x) = 0.11930 0.31814
# Poissons Ratio (y) = 0.61594 0.79238
# Poissons Ratio (z) = 0.23108 0.11147
#
# Static dielectric constant tensor:
#      x y z
#    x 1.659230 0.000000 0.000000 
#    y 0.000000 1.620620 0.000000 
#    z 0.000000 0.000000 1.655750 
# 
# From -- ./inp_files/63370.got.cif
#   From: 2010.05.17/outbox.cif.g08.bks.cpg/sg71_32_cif.got.tgz:63370.got - 2010.06.03 16:22:01.
