data_PCOD9520031
_publ_section_title
;
Structure prediction by ZEFSAII (Michael W. Deem and Ramdas Pophale) SiO2 
 PCOD9520031
Probable space group: I M M M
;
_chemical_formula_sum "Si O2"
_cell_formula_units_Z 112
_cell_length_a 14.370757
_cell_length_b 14.352743
_cell_length_c 30.265458
_cell_angle_alpha 90.000000
_cell_angle_beta 90.000000
_cell_angle_gamma 90.000000
_cell_volume 6242.546767
_symmetry_space_group_name_H-M "I M M M"
_symmetry_group_IT_number 71
_symmetry_cell_setting 'orthorhombic'
loop_
_space_group_symop_operation_xyz
x,y,z
-x,-y,z
x,-y,-z
-x,y,-z
-x,-y,-z
x,y,-z
-x,y,z
x,-y,z
1/2+x,1/2+y,1/2+z
1/2-x,1/2-y,1/2+z
1/2+x,1/2-y,1/2-z
1/2-x,1/2+y,1/2-z
1/2-x,1/2-y,1/2-z
1/2+x,1/2+y,1/2-z
1/2-x,1/2+y,1/2+z
1/2+x,1/2-y,1/2+z
loop_
_atom_site_type_symbol
_atom_site_label
_atom_site_fract_x
_atom_site_fract_y
_atom_site_fract_z
Si Si1 0.142421 0.605721 0.743505
Si Si2 0.392587 0.612339 0.627466
Si Si3 0.891094 0.607846 0.841976
Si Si4 0.637332 0.393489 0.270139
Si Si5 0.750551 0.729262 0.109575
Si Si6 0.901938 0.768213 0.314615
Si Si7 0.390220 0.607951 0.053116
O O1 0.108835 0.500000 0.743949
O O2 0.126872 0.645887 0.792527
O O3 0.251336 0.607427 0.733126
O O4 0.096619 0.666061 0.706050
O O5 0.500000 0.632206 0.612563
O O6 0.377525 0.500000 0.623291
O O7 0.389712 0.635236 0.680181
O O8 0.308497 0.672962 0.605620
O O9 0.862165 0.500000 0.840338
O O10 0.832991 0.658474 0.879004
O O11 0.000000 0.614101 0.850627
O O12 0.605926 0.500000 0.264513
O O13 0.606094 0.333450 0.228448
O O14 0.684590 0.728255 0.152842
O O15 0.681806 0.683632 0.073147
O O16 0.000000 0.789793 0.337387
O O17 0.500000 0.625961 0.063417
O O18 0.369894 0.500000 0.067773
O O19 0.382354 0.609467 0.000000
#
# Coordination Sequence:
#
# PCOD9520031 Si02
#       7
#    16  16  16  16  16  16  16
#     4  10  19  34  49  63  95 145 189 226 267 313
#     4  10  21  36  54  76 107 152 199 235 271 316
#     4  10  20  32  48  72 104 144 185 224 272 327
#     4  10  19  34  50  66  98 146 191 231 273 317
#     4  12  21  34  55  82 108 137 177 231 275 319
#     4  12  23  31  45  72 103 137 179 228 277 317
#     4   9  20  41  67  92 117 143 168 199 254 333
#
# _framework density 17.941395
#
# number of rings (size 3 to 8) (size 9 to 14) (size 15 to 20)
#    0.000    1.571    2.857    3.857    0.000    2.286 
#    0.000    0.000    0.000    3.429    0.000    7.000 
#    0.000    0.000    0.000    0.000    0.000    0.000 
#
# Total GULP energy -312171.345567 kJ/mol
# GULP energy per Si atom -5574.488314 kJ/mol
# Density = 1.790056 g / cm^3
# Si number density = 17.941395 Si / 1000 Ang^3
#
#
#
# Elastic Constant Matrix: (Units=GPa)
#
#
# Indices 1 2 3 4 5 6 
#
# 1 81.5075 33.9279 15.6897 0.0000 0.0000 0.0000
# 2 33.9279 79.3455 29.0355 0.0000 0.0000 0.0000
# 3 15.6897 29.0355 44.7658 0.0000 0.0000 0.0000
# 4 0.0000 0.0000 0.0000 21.1442 0.0000 0.0000
# 5 0.0000 0.0000 0.0000 0.0000 33.0978 0.0000
# 6 0.0000 0.0000 0.0000 0.0000 0.0000 83.8097
#
#
#
# Elastic Compliance Matrix: (Units=1/GPa)
#
#
# Indices 1 2 3 4 5 6 
#
# 1 0.014996 -0.005886 -0.001438 0.000000 0.000000 0.000000
# 2 -0.005886 0.018836 -0.010154 0.000000 0.000000 0.000000
# 3 -0.001438 -0.010154 0.029429 0.000000 0.000000 0.000000
# 4 0.000000 0.000000 0.000000 0.047294 0.000000 0.000000
# 5 0.000000 0.000000 0.000000 0.000000 0.030213 0.000000
# 6 0.000000 0.000000 0.000000 0.000000 0.000000 0.011932
#
#
# Mechanical properties :
#
#
# Convention : Reuss Voigt Hill
#
# Bulk Modulus (GPa) = 35.33103 40.32502 37.82802
# Shear Modulus (GPa) = 25.36913 36.07473 30.72193
#
# Velocity S-wave (km/s) = 3.76440 4.48895 4.14254
# Velocity P-wave (km/s) = 6.21526 7.02796 6.63407
#
# Compressibility (1/GPa) = 0.02830374
#
# Stress axis : x y z
#
# Youngs Moduli (GPa) = 66.68594 53.09090 33.98065
#
# Poissons Ratio (x) = 0.31248 0.04887
# Poissons Ratio (y) = 0.39250 0.34504
# Poissons Ratio (z) = 0.09590 0.53909
#
# Static dielectric constant tensor:
#      x y z
#    x 1.613870 0.000000 0.000000 
#    y 0.000000 1.670560 0.000000 
#    z 0.000000 0.000000 1.582570 
# 
# From -- ./inp_files/35406.got.cif
#   From: 2010.05.17/outbox.cif.g08.bks.cpg/sg71_18_cif.got.tgz:35406.got - 2010.06.03 16:22:01.
