data_PCOD9520821
_publ_section_title
;
Structure prediction by ZEFSAII (Michael W. Deem and Ramdas Pophale) SiO2 
 PCOD9520821
Probable space group: I M M M
;
_chemical_formula_sum "Si O2"
_cell_formula_units_Z 116
_cell_length_a 29.641953
_cell_length_b 7.913082
_cell_length_c 24.856096
_cell_angle_alpha 90.000000
_cell_angle_beta 90.000000
_cell_angle_gamma 90.000000
_cell_volume 5830.226110
_symmetry_space_group_name_H-M "I M M M"
_symmetry_group_IT_number 71
_symmetry_cell_setting 'orthorhombic'
loop_
_space_group_symop_operation_xyz
x,y,z
-x,-y,z
x,-y,-z
-x,y,-z
-x,-y,-z
x,y,-z
-x,y,z
x,-y,z
1/2+x,1/2+y,1/2+z
1/2-x,1/2-y,1/2+z
1/2+x,1/2-y,1/2-z
1/2-x,1/2+y,1/2-z
1/2-x,1/2-y,1/2-z
1/2+x,1/2+y,1/2-z
1/2-x,1/2+y,1/2+z
1/2+x,1/2-y,1/2+z
loop_
_atom_site_type_symbol
_atom_site_label
_atom_site_fract_x
_atom_site_fract_y
_atom_site_fract_z
Si Si1 0.707564 0.193819 0.194041
Si Si2 0.143341 0.197264 0.082623
Si Si3 0.050835 0.295797 0.437995
Si Si4 0.165295 0.500000 0.000000
Si Si5 0.550846 0.297029 0.633579
Si Si6 0.381277 0.690234 0.846565
Si Si7 0.804382 0.304795 0.185002
Si Si8 0.551435 0.199071 0.244427
O O1 0.663409 0.198999 0.157779
O O2 0.750964 0.291602 0.172596
O O3 0.692929 0.258390 0.253316
O O4 0.722315 0.000000 0.201546
O O5 0.163567 0.346786 0.046347
O O6 0.090447 0.241414 0.091940
O O7 0.167062 0.206629 0.141030
O O8 0.146807 0.000000 0.064031
O O9 0.058231 0.245716 0.500000
O O10 0.051711 0.500000 0.435844
O O11 0.087809 0.227915 0.397672
O O12 0.000000 0.242507 0.422317
O O13 0.500000 0.241719 0.618564
O O14 0.550318 0.500000 0.639285
O O15 0.561403 0.224171 0.692612
O O16 0.364709 0.500000 0.848096
O O17 0.412909 0.716119 0.794612
O O18 0.819293 0.500000 0.184591
O O19 0.500000 0.260970 0.235533
O O20 0.552402 0.000000 0.232051
#
# Coordination Sequence:
#
# PCOD9520821 Si02
#       8
#    16  16  16   4  16  16  16  16
#     4  10  21  36  60  91 122 155 190 234 294 365
#     4  11  23  41  66  90 121 162 204 255 308 353
#     4   9  19  37  59  78 101 142 194 243 290 344
#     4  12  26  44  65  92 120 160 216 260 291 356
#     4   9  19  36  58  86 120 156 194 241 300 361
#     4  12  23  33  50  79 117 152 188 238 292 345
#     4  10  20  38  63  92 124 154 191 242 300 363
#     4  10  20  32  50  78 114 155 197 238 288 358
#
# _framework density 19.896311000000001
#
# number of rings (size 3 to 8) (size 9 to 14) (size 15 to 20)
#    0.000    1.793    0.690    4.345    0.966    6.897 
#    0.000    1.379    1.517    1.655    0.000    0.000 
#    0.000    0.000    0.000    0.000    0.000    0.000 
#
# Total GULP energy -323337.583284 kJ/mol
# GULP energy per Si atom -5574.785919 kJ/mol
# Density = 1.985103 g / cm^3
# Si number density = 19.896311 Si / 1000 Ang^3
#
#
#
# Elastic Constant Matrix: (Units=GPa)
#
#
# Indices 1 2 3 4 5 6 
#
# 1 65.0794 5.8923 19.4979 0.0000 0.0000 0.0000
# 2 5.8923 69.5652 10.9248 0.0000 0.0000 0.0000
# 3 19.4979 10.9248 27.4882 0.0000 0.0000 0.0000
# 4 0.0000 0.0000 0.0000 -2.3199 0.0000 0.0000
# 5 0.0000 0.0000 0.0000 0.0000 8.2103 0.0000
# 6 0.0000 0.0000 0.0000 0.0000 0.0000 21.1033
#
#
#
# Elastic Compliance Matrix: (Units=1/GPa)
#
#
# Indices 1 2 3 4 5 6 
#
# 1 0.019533 0.000556 -0.014076 0.000000 0.000000 0.000000
# 2 0.000556 0.015348 -0.006494 0.000000 0.000000 0.000000
# 3 -0.014076 -0.006494 0.048944 0.000000 0.000000 0.000000
# 4 0.000000 0.000000 0.000000 -0.431056 0.000000 0.000000
# 5 0.000000 0.000000 0.000000 0.000000 0.121798 0.000000
# 6 0.000000 0.000000 0.000000 0.000000 0.000000 0.047386
#
#
# Mechanical properties :
#
#
# Convention : Reuss Voigt Hill
#
# Bulk Modulus (GPa) = 22.83263 26.08476 24.45869
# Shear Modulus (GPa) = -40.51190 13.78659 -13.36265
#
# Velocity S-wave (km/s) = -4.51727 2.63520 -2.59436
# Velocity P-wave (km/s) = 3.96319 4.73263 1.82906
#
# Compressibility (1/GPa) = 0.04379696
#
# Stress axis : x y z
#
# Youngs Moduli (GPa) = 51.19637 65.15597 20.43132
#
# Poissons Ratio (x) = -0.03623 0.28759
# Poissons Ratio (y) = -0.02847 0.13269
# Poissons Ratio (z) = 0.72063 0.42314
#
# Static dielectric constant tensor:
#      x y z
#    x 1.707920 0.000000 0.000000 
#    y 0.000000 1.710260 0.000000 
#    z 0.000000 0.000000 1.692640 
# 
# From -- ./inp_files/62398.got.cif
#   From: 2010.05.17/outbox.cif.g08.bks.cpg/sg71_32_cif.got.tgz:62398.got - 2010.06.03 16:22:01.
