data_PCOD9520532
_publ_section_title
;
Structure prediction by ZEFSAII (Michael W. Deem and Ramdas Pophale) SiO2 
 PCOD9520532
Probable space group: I M M M
;
_chemical_formula_sum "Si O2"
_cell_formula_units_Z 80
_cell_length_a 9.978265
_cell_length_b 30.348463
_cell_length_c 19.573848
_cell_angle_alpha 90.000000
_cell_angle_beta 90.000000
_cell_angle_gamma 90.000000
_cell_volume 5927.450641
_symmetry_space_group_name_H-M "I M M M"
_symmetry_group_IT_number 71
_symmetry_cell_setting 'orthorhombic'
loop_
_space_group_symop_operation_xyz
x,y,z
-x,-y,z
x,-y,-z
-x,y,-z
-x,-y,-z
x,y,-z
-x,y,z
x,-y,z
1/2+x,1/2+y,1/2+z
1/2-x,1/2-y,1/2+z
1/2+x,1/2-y,1/2-z
1/2-x,1/2+y,1/2-z
1/2-x,1/2-y,1/2-z
1/2+x,1/2+y,1/2-z
1/2-x,1/2+y,1/2+z
1/2+x,1/2-y,1/2+z
loop_
_atom_site_type_symbol
_atom_site_label
_atom_site_fract_x
_atom_site_fract_y
_atom_site_fract_z
Si Si1 0.159102 0.687042 0.708972
Si Si2 0.249638 0.391178 0.374657
Si Si3 0.000000 0.448970 0.417759
Si Si4 0.500000 0.552474 0.416529
Si Si5 0.659552 0.666577 0.500000
Si Si6 0.159688 0.265653 0.149061
Si Si7 0.657054 0.228199 0.500000
O O1 0.219528 0.639336 0.690569
O O2 0.168535 0.700058 0.788671
O O3 0.247521 0.724191 0.669897
O O4 0.000000 0.688525 0.689924
O O5 0.126148 0.422367 0.390969
O O6 0.375261 0.423485 0.381416
O O7 0.273372 0.355661 0.434771
O O8 0.000000 0.500000 0.396719
O O9 0.000000 0.448006 0.500000
O O10 0.500000 0.500000 0.406436
O O11 0.500000 0.559075 0.500000
O O12 0.500000 0.657662 0.500000
O O13 0.673618 0.718851 0.500000
O O14 0.000000 0.252491 0.143466
O O15 0.205624 0.284785 0.075650
O O16 0.500000 0.216621 0.500000
#
# Coordination Sequence:
#
# PCOD9520532 Si02
#       7
#    16  16   8   8   8  16   8
#     4  10  20  30  42  65  91 115 145 181 220 262
#     4  12  19  31  45  61  85 116 147 187 222 259
#     4  11  22  32  42  59  84 113 145 182 227 269
#     4  11  22  34  48  65  84 111 155 200 225 249
#     4  11  18  27  42  66  80 110 158 189 213 249
#     4   9  18  31  46  64  86 114 150 185 217 251
#     4   9  16  26  46  63  83 111 148 186 210 240
#
# _framework density 13.496527
#
# number of rings (size 3 to 8) (size 9 to 14) (size 15 to 20)
#    0.000    1.600    6.000    0.600    1.400    1.600 
#    0.000    1.500    0.000    0.000    0.000    0.000 
#    0.000    0.000    0.000    5.400    0.000    0.100 
#
# Total GULP energy -222684.435728 kJ/mol
# GULP energy per Si atom -5567.110893 kJ/mol
# Density = 1.346581 g / cm^3
# Si number density = 13.496527 Si / 1000 Ang^3
#
#
#
# Elastic Constant Matrix: (Units=GPa)
#
#
# Indices 1 2 3 4 5 6 
#
# 1 96.1526 40.8860 30.4870 0.0000 0.0000 0.0000
# 2 40.8860 78.8723 34.2365 0.0000 0.0000 0.0000
# 3 30.4870 34.2365 89.4850 0.0000 0.0000 0.0000
# 4 0.0000 0.0000 0.0000 26.0030 0.0000 0.0000
# 5 0.0000 0.0000 0.0000 0.0000 13.3803 0.0000
# 6 0.0000 0.0000 0.0000 0.0000 0.0000 29.1977
#
#
#
# Elastic Compliance Matrix: (Units=1/GPa)
#
#
# Indices 1 2 3 4 5 6 
#
# 1 0.013739 -0.006104 -0.002346 0.000000 0.000000 0.000000
# 2 -0.006104 0.017916 -0.004775 0.000000 0.000000 0.000000
# 3 -0.002346 -0.004775 0.013801 0.000000 0.000000 0.000000
# 4 0.000000 0.000000 0.000000 0.038457 0.000000 0.000000
# 5 0.000000 0.000000 0.000000 0.000000 0.074737 0.000000
# 6 0.000000 0.000000 0.000000 0.000000 0.000000 0.034249
#
#
# Mechanical properties :
#
#
# Convention : Reuss Voigt Hill
#
# Bulk Modulus (GPa) = 52.61184 52.85874 52.73529
# Shear Modulus (GPa) = 22.15488 24.30955 23.23222
#
# Velocity S-wave (km/s) = 4.05597 4.24862 4.15341
# Velocity P-wave (km/s) = 7.81031 7.95723 7.88411
#
# Compressibility (1/GPa) = 0.01900713
#
# Stress axis : x y z
#
# Youngs Moduli (GPa) = 72.78324 55.81722 72.45865
#
# Poissons Ratio (x) = 0.34072 0.16995
# Poissons Ratio (y) = 0.44428 0.34597
# Poissons Ratio (z) = 0.17071 0.26652
#
# Static dielectric constant tensor:
#      x y z
#    x 1.429180 0.000000 0.000000 
#    y 0.000000 1.422000 0.000000 
#    z 0.000000 0.000000 1.495340 
# 
# From -- ./inp_files/11315.got.cif
#   From: 2010.05.17/outbox.cif.g08.bks.cpg/sg71_6_cif.got.tgz:11315.got - 2010.06.03 16:22:01.
