data_PCOD9520801
_publ_section_title
;
Structure prediction by ZEFSAII (Michael W. Deem and Ramdas Pophale) SiO2 
 PCOD9520801
Probable space group: I M M M
;
_chemical_formula_sum "Si O2"
_cell_formula_units_Z 88
_cell_length_a 19.861437
_cell_length_b 14.317522
_cell_length_c 18.772135
_cell_angle_alpha 90.000000
_cell_angle_beta 90.000000
_cell_angle_gamma 90.000000
_cell_volume 5338.167476
_symmetry_space_group_name_H-M "I M M M"
_symmetry_group_IT_number 71
_symmetry_cell_setting 'orthorhombic'
loop_
_space_group_symop_operation_xyz
x,y,z
-x,-y,z
x,-y,-z
-x,y,-z
-x,-y,-z
x,y,-z
-x,y,z
x,-y,z
1/2+x,1/2+y,1/2+z
1/2-x,1/2-y,1/2+z
1/2+x,1/2-y,1/2-z
1/2-x,1/2+y,1/2-z
1/2-x,1/2-y,1/2-z
1/2+x,1/2+y,1/2-z
1/2-x,1/2+y,1/2+z
1/2+x,1/2-y,1/2+z
loop_
_atom_site_type_symbol
_atom_site_label
_atom_site_fract_x
_atom_site_fract_y
_atom_site_fract_z
Si Si1 0.361147 0.611741 0.660858
Si Si2 0.323420 0.737631 0.785563
Si Si3 0.622452 0.889587 0.577781
Si Si4 0.000000 0.886335 0.082239
Si Si5 0.242694 0.243499 0.081882
Si Si6 0.074907 0.610629 0.232977
O O1 0.356350 0.500000 0.661054
O O2 0.356624 0.653554 0.740675
O O3 0.431513 0.640417 0.623158
O O4 0.300115 0.658052 0.616026
O O5 0.250000 0.750000 0.750000
O O6 0.305943 0.730935 0.868597
O O7 0.368683 0.827684 0.769943
O O8 0.591673 0.868198 0.500000
O O9 0.690177 0.829601 0.584185
O O10 0.579512 0.870913 0.648047
O O11 0.637525 0.000000 0.578843
O O12 0.000000 0.000000 0.080658
O O13 0.000000 0.854295 0.000000
O O14 0.259696 0.224437 0.000000
O O15 0.086057 0.500000 0.243264
O O16 0.000000 0.634300 0.258108
#
# Coordination Sequence:
#
# PCOD9520801 Si02
#       6
#    16  16  16   8  16  16
#     4  10  20  32  49  76 106 139 170 203 255 312
#     4  10  20  34  51  77 100 136 175 222 259 309
#     4   9  17  30  49  74 106 137 169 210 255 310
#     4   9  18  32  48  70 102 136 168 197 236 304
#     4  10  20  35  51  74 101 133 178 220 264 307
#     4  10  20  34  53  76 105 139 175 216 262 314
#
# _framework density 16.485057999999999
#
# number of rings (size 3 to 8) (size 9 to 14) (size 15 to 20)
#    0.000    2.273    3.636    0.545    1.273    5.091 
#    0.000    1.818    0.000    0.545    0.000    1.273 
#    0.000    2.182    0.000    0.000    0.000    0.000 
#
# Total GULP energy -245196.544923 kJ/mol
# GULP energy per Si atom -5572.648748 kJ/mol
# Density = 1.644754 g / cm^3
# Si number density = 16.485058 Si / 1000 Ang^3
#
#
#
# Elastic Constant Matrix: (Units=GPa)
#
#
# Indices 1 2 3 4 5 6 
#
# 1 80.5781 33.7934 48.9209 0.0000 0.0000 0.0000
# 2 33.7934 62.2002 34.7688 0.0000 0.0000 0.0000
# 3 48.9209 34.7688 116.9072 0.0000 0.0000 0.0000
# 4 0.0000 0.0000 0.0000 21.4325 0.0000 0.0000
# 5 0.0000 0.0000 0.0000 0.0000 23.4447 0.0000
# 6 0.0000 0.0000 0.0000 0.0000 0.0000 9.3926
#
#
#
# Elastic Compliance Matrix: (Units=1/GPa)
#
#
# Indices 1 2 3 4 5 6 
#
# 1 0.018880 -0.007006 -0.005817 0.000000 0.000000 0.000000
# 2 -0.007006 0.021883 -0.003576 0.000000 0.000000 0.000000
# 3 -0.005817 -0.003576 0.012052 0.000000 0.000000 0.000000
# 4 0.000000 0.000000 0.000000 0.046658 0.000000 0.000000
# 5 0.000000 0.000000 0.000000 0.000000 0.042654 0.000000
# 6 0.000000 0.000000 0.000000 0.000000 0.000000 0.106467
#
#
# Mechanical properties :
#
#
# Convention : Reuss Voigt Hill
#
# Bulk Modulus (GPa) = 49.96053 54.96132 52.46093
# Shear Modulus (GPa) = 17.35731 20.33413 18.84572
#
# Velocity S-wave (km/s) = 3.24838 3.51592 3.38479
# Velocity P-wave (km/s) = 6.66646 7.06362 6.86791
#
# Compressibility (1/GPa) = 0.02001580
#
# Stress axis : x y z
#
# Youngs Moduli (GPa) = 52.96563 45.69850 82.97697
#
# Poissons Ratio (x) = 0.32017 0.48267
# Poissons Ratio (y) = 0.37108 0.29675
# Poissons Ratio (z) = 0.30810 0.16343
#
# Static dielectric constant tensor:
#      x y z
#    x 1.508690 0.000000 0.000000 
#    y 0.000000 1.569130 0.000000 
#    z 0.000000 0.000000 1.583710 
# 
# From -- ./inp_files/44730.got.cif
#   From: 2010.05.17/outbox.cif.g08.bks.cpg/sg71_23_cif.got.tgz:44730.got - 2010.06.03 16:22:01.
