data_PCOD9520143
_publ_section_title
;
Structure prediction by ZEFSAII (Michael W. Deem and Ramdas Pophale) SiO2 
 PCOD9520143
Probable space group: I M M M
;
_chemical_formula_sum "Si O2"
_cell_formula_units_Z 112
_cell_length_a 32.416802
_cell_length_b 11.048427
_cell_length_c 16.682470
_cell_angle_alpha 90.000000
_cell_angle_beta 90.000000
_cell_angle_gamma 90.000000
_cell_volume 5974.904545
_symmetry_space_group_name_H-M "I M M M"
_symmetry_group_IT_number 71
_symmetry_cell_setting 'orthorhombic'
loop_
_space_group_symop_operation_xyz
x,y,z
-x,-y,z
x,-y,-z
-x,y,-z
-x,-y,-z
x,y,-z
-x,y,z
x,-y,z
1/2+x,1/2+y,1/2+z
1/2-x,1/2-y,1/2+z
1/2+x,1/2-y,1/2-z
1/2-x,1/2+y,1/2-z
1/2-x,1/2-y,1/2-z
1/2+x,1/2+y,1/2-z
1/2-x,1/2+y,1/2+z
1/2+x,1/2-y,1/2+z
loop_
_atom_site_type_symbol
_atom_site_label
_atom_site_fract_x
_atom_site_fract_y
_atom_site_fract_z
Si Si1 0.722484 0.141597 0.912209
Si Si2 0.584332 0.133962 0.822537
Si Si3 0.906116 0.129691 0.093594
Si Si4 0.677058 0.859453 0.756081
Si Si5 0.951927 0.865124 0.403712
Si Si6 0.815385 0.220432 0.909651
Si Si7 0.452441 0.866031 0.345870
O O1 0.702383 0.195142 0.831614
O O2 0.771878 0.151610 0.907644
O O3 0.710672 0.000000 0.913538
O O4 0.709960 0.193143 0.000000
O O5 0.629152 0.146886 0.781474
O O6 0.574251 0.251327 0.874220
O O7 0.551788 0.132041 0.749993
O O8 0.583287 0.000000 0.862430
O O9 0.856632 0.141086 0.098303
O O10 0.926272 0.251049 0.127160
O O11 0.919117 0.000000 0.130022
O O12 0.917056 0.127424 0.000000
O O13 0.684085 0.803456 0.669000
O O14 0.688746 0.000000 0.749649
O O15 0.951083 0.866210 0.500000
O O16 0.000000 0.850038 0.379458
O O17 0.938362 0.000000 0.376036
O O18 0.817958 0.277121 0.000000
O O19 0.500000 0.853040 0.370260
O O20 0.437493 0.000000 0.373878
#
# Coordination Sequence:
#
# PCOD9520143 Si02
#       7
#    16  16  16  16  16  16  16
#     4   9  18  33  54  80 111 146 183 228 282 338
#     4  10  20  35  54  79 111 144 184 232 278 330
#     4  10  21  36  55  80 108 140 184 234 279 329
#     4  10  20  34  53  81 113 144 187 236 282 338
#     4   9  19  36  56  79 108 142 183 232 287 348
#     4  10  19  34  56  79 109 148 187 232 284 337
#     4  10  21  37  55  76 107 145 182 225 280 337
#
# _framework density 18.745069999999998
#
# number of rings (size 3 to 8) (size 9 to 14) (size 15 to 20)
#    0.000    2.286    1.429    1.714    0.000    5.143 
#    0.000    5.000    0.000    0.857    0.000    0.000 
#    0.000    0.000    0.000    0.000    0.000    0.000 
#
# Total GULP energy -311747.369091 kJ/mol
# GULP energy per Si atom -5566.917305 kJ/mol
# Density = 1.870240 g / cm^3
# Si number density = 18.745070 Si / 1000 Ang^3
#
#
#
# Elastic Constant Matrix: (Units=GPa)
#
#
# Indices 1 2 3 4 5 6 
#
# 1 50.1191 30.2600 24.3935 0.0000 0.0000 0.0000
# 2 30.2600 120.3901 60.1497 0.0000 0.0000 0.0000
# 3 24.3935 60.1497 95.5184 0.0000 0.0000 0.0000
# 4 0.0000 0.0000 0.0000 26.6194 0.0000 0.0000
# 5 0.0000 0.0000 0.0000 0.0000 20.8853 0.0000
# 6 0.0000 0.0000 0.0000 0.0000 0.0000 20.0277
#
#
#
# Elastic Compliance Matrix: (Units=1/GPa)
#
#
# Indices 1 2 3 4 5 6 
#
# 1 0.024272 -0.004383 -0.003439 0.000000 0.000000 0.000000
# 2 -0.004383 0.012911 -0.007011 0.000000 0.000000 0.000000
# 3 -0.003439 -0.007011 0.015762 0.000000 0.000000 0.000000
# 4 0.000000 0.000000 0.000000 0.037567 0.000000 0.000000
# 5 0.000000 0.000000 0.000000 0.000000 0.047881 0.000000
# 6 0.000000 0.000000 0.000000 0.000000 0.000000 0.049931
#
#
# Mechanical properties :
#
#
# Convention : Reuss Voigt Hill
#
# Bulk Modulus (GPa) = 42.95435 55.07043 49.01239
# Shear Modulus (GPa) = 22.14858 23.58812 22.86835
#
# Velocity S-wave (km/s) = 3.44112 3.55119 3.49659
# Velocity P-wave (km/s) = 6.22521 6.80125 6.51959
#
# Compressibility (1/GPa) = 0.02328053
#
# Stress axis : x y z
#
# Youngs Moduli (GPa) = 41.19923 77.45514 63.44277
#
# Poissons Ratio (x) = 0.33946 0.21817
# Poissons Ratio (y) = 0.18057 0.44479
# Poissons Ratio (z) = 0.14168 0.54303
#
# Static dielectric constant tensor:
#      x y z
#    x 1.649160 0.000000 0.000000 
#    y 0.000000 1.681310 0.000000 
#    z 0.000000 0.000000 1.680610 
# 
# From -- ./inp_files/40944.got.cif
#   From: 2010.05.17/outbox.cif.g08.bks.cpg/sg71_21_cif.got.tgz:40944.got - 2010.06.03 16:22:01.
