data_PCOD9520951
_publ_section_title
;
Structure prediction by ZEFSAII (Michael W. Deem and Ramdas Pophale) SiO2 
 PCOD9520951
Probable space group: I M M M
;
_chemical_formula_sum "Si O2"
_cell_formula_units_Z 120
_cell_length_a 9.482932
_cell_length_b 28.217186
_cell_length_c 27.476995
_cell_angle_alpha 90.000000
_cell_angle_beta 90.000000
_cell_angle_gamma 90.000000
_cell_volume 7352.339826
_symmetry_space_group_name_H-M "I M M M"
_symmetry_group_IT_number 71
_symmetry_cell_setting 'orthorhombic'
loop_
_space_group_symop_operation_xyz
x,y,z
-x,-y,z
x,-y,-z
-x,y,-z
-x,-y,-z
x,y,-z
-x,y,z
x,-y,z
1/2+x,1/2+y,1/2+z
1/2-x,1/2-y,1/2+z
1/2+x,1/2-y,1/2-z
1/2-x,1/2+y,1/2-z
1/2-x,1/2-y,1/2-z
1/2+x,1/2+y,1/2-z
1/2-x,1/2+y,1/2+z
1/2+x,1/2-y,1/2+z
loop_
_atom_site_type_symbol
_atom_site_label
_atom_site_fract_x
_atom_site_fract_y
_atom_site_fract_z
Si Si1 0.168833 0.917559 0.128813
Si Si2 0.845983 0.672735 0.384180
Si Si3 0.670296 0.500000 0.554549
Si Si4 0.166980 0.555811 0.727266
Si Si5 0.220075 0.215955 0.204530
Si Si6 0.161661 0.135653 0.278701
Si Si7 0.335506 0.268467 0.942993
Si Si8 0.841866 0.695078 0.856564
O O1 0.222460 0.865414 0.115166
O O2 0.206336 0.953685 0.085601
O O3 0.254440 0.934029 0.176296
O O4 0.000000 0.918966 0.137391
O O5 0.842674 0.696164 0.330223
O O6 0.826203 0.714518 0.423127
O O7 0.000000 0.650532 0.391813
O O8 0.500000 0.500000 0.551453
O O9 0.727915 0.500000 0.500000
O O10 0.179868 0.500000 0.738587
O O11 0.247136 0.589738 0.765090
O O12 0.000000 0.567447 0.724211
O O13 0.250000 0.250000 0.250000
O O14 0.157167 0.169734 0.230682
O O15 0.146711 0.252224 0.167309
O O16 0.242589 0.164652 0.320766
O O17 0.000000 0.124993 0.291847
O O18 0.500000 0.282421 0.936030
O O19 0.233966 0.298614 0.908299
O O20 0.301969 0.271236 0.000000
O O21 0.000000 0.675531 0.859617
#
# Coordination Sequence:
#
# PCOD9520951 Si02
#       8
#    16  16   8  16  16  16  16  16
#     4  11  21  34  53  73  95 126 167 214 264 319
#     4  10  20  33  50  71  98 132 169 212 261 307
#     4   9  20  38  55  71  93 123 163 217 274 319
#     4  11  23  37  54  75 102 135 171 212 262 315
#     4   9  19  30  46  71 102 136 171 205 248 301
#     4  11  21  33  52  76 104 137 173 208 252 309
#     4   9  19  36  54  72 100 138 176 214 258 304
#     4  10  20  33  50  75 107 137 172 213 255 304
#
# _framework density 16.321334
#
# number of rings (size 3 to 8) (size 9 to 14) (size 15 to 20)
#    0.000    1.933    2.000    2.000    0.000    9.067 
#    0.000    0.000    0.000    2.800    0.000    0.000 
#    0.000    0.533    0.000    5.600    0.000    2.400 
#
# Total GULP energy -334243.255106 kJ/mol
# GULP energy per Si atom -5570.720918 kJ/mol
# Density = 1.628419 g / cm^3
# Si number density = 16.321334 Si / 1000 Ang^3
#
#
#
# Elastic Constant Matrix: (Units=GPa)
#
#
# Indices 1 2 3 4 5 6 
#
# 1 134.0585 51.0060 58.3163 0.0000 0.0000 0.0000
# 2 51.0060 67.0403 33.8126 0.0000 0.0000 0.0000
# 3 58.3163 33.8126 112.1616 0.0000 0.0000 0.0000
# 4 0.0000 0.0000 0.0000 16.4731 0.0000 0.0000
# 5 0.0000 0.0000 0.0000 0.0000 17.5679 0.0000
# 6 0.0000 0.0000 0.0000 0.0000 0.0000 4.9832
#
#
#
# Elastic Compliance Matrix: (Units=1/GPa)
#
#
# Indices 1 2 3 4 5 6 
#
# 1 0.011893 -0.006993 -0.004075 0.000000 0.000000 0.000000
# 2 -0.006993 0.021703 -0.002907 0.000000 0.000000 0.000000
# 3 -0.004075 -0.002907 0.011911 0.000000 0.000000 0.000000
# 4 0.000000 0.000000 0.000000 0.060705 0.000000 0.000000
# 5 0.000000 0.000000 0.000000 0.000000 0.056922 0.000000
# 6 0.000000 0.000000 0.000000 0.000000 0.000000 0.200674
#
#
# Mechanical properties :
#
#
# Convention : Reuss Voigt Hill
#
# Bulk Modulus (GPa) = 56.95896 66.61444 61.78670
# Shear Modulus (GPa) = 12.57514 19.14655 15.86085
#
# Velocity S-wave (km/s) = 2.77875 3.42877 3.12073
# Velocity P-wave (km/s) = 6.72826 7.52185 7.13610
#
# Compressibility (1/GPa) = 0.01755650
#
# Stress axis : x y z
#
# Youngs Moduli (GPa) = 84.08385 46.07687 83.95670
#
# Poissons Ratio (x) = 0.32221 0.34215
# Poissons Ratio (y) = 0.58799 0.24404
# Poissons Ratio (z) = 0.34267 0.13393
#
# Static dielectric constant tensor:
#      x y z
#    x 1.726480 0.000000 0.000000 
#    y 0.000000 1.544100 0.000000 
#    z 0.000000 0.000000 1.537870 
# 
# From -- ./inp_files/63836.got.cif
#   From: 2010.05.17/outbox.cif.g08.bks.cpg/sg71_32_cif.got.tgz:63836.got - 2010.06.03 16:22:01.
