data_PCOD9520813
_publ_section_title
;
Structure prediction by ZEFSAII (Michael W. Deem and Ramdas Pophale) SiO2 
 PCOD9520813
Probable space group: I M M M
;
_chemical_formula_sum "Si O2"
_cell_formula_units_Z 80
_cell_length_a 15.845669
_cell_length_b 31.510408
_cell_length_c 7.472327
_cell_angle_alpha 90.000000
_cell_angle_beta 90.000000
_cell_angle_gamma 90.000000
_cell_volume 3730.958989
_symmetry_space_group_name_H-M "I M M M"
_symmetry_group_IT_number 71
_symmetry_cell_setting 'orthorhombic'
loop_
_space_group_symop_operation_xyz
x,y,z
-x,-y,z
x,-y,-z
-x,y,-z
-x,-y,-z
x,y,-z
-x,y,z
x,-y,z
1/2+x,1/2+y,1/2+z
1/2-x,1/2-y,1/2+z
1/2+x,1/2-y,1/2-z
1/2-x,1/2+y,1/2-z
1/2-x,1/2-y,1/2-z
1/2+x,1/2+y,1/2-z
1/2-x,1/2+y,1/2+z
1/2+x,1/2-y,1/2+z
loop_
_atom_site_type_symbol
_atom_site_label
_atom_site_fract_x
_atom_site_fract_y
_atom_site_fract_z
Si Si1 0.223080 0.045887 0.783146
Si Si2 0.173582 0.860046 0.290565
Si Si3 0.640903 0.159904 0.717240
Si Si4 0.000000 0.725398 0.783294
Si Si5 0.000000 0.175987 0.290999
Si Si6 0.409332 0.064923 0.790634
O O1 0.178276 0.088923 0.723408
O O2 0.320449 0.048375 0.717977
O O3 0.187359 0.000000 0.729964
O O4 0.224533 0.047485 0.000000
O O5 0.174486 0.848498 0.500000
O O6 0.262238 0.841767 0.217482
O O7 0.087097 0.842051 0.212017
O O8 0.641545 0.159288 0.500000
O O9 0.582909 0.199074 0.774122
O O10 0.598795 0.115799 0.776232
O O11 0.000000 0.773364 0.719384
O O12 0.000000 0.726089 0.000000
O O13 0.000000 0.162822 0.500000
O O14 0.500000 0.052006 0.713389
O O15 0.410413 0.053160 0.000000
#
# Coordination Sequence:
#
# PCOD9520813 Si02
#       6
#    16  16  16   8   8  16
#     4   9  18  32  50  74 102 130 163 204 247 293
#     4   9  19  36  55  72  97 132 167 204 248 292
#     4   9  17  31  50  72 100 134 165 196 239 289
#     4  10  20  32  50  77 104 129 162 200 240 296
#     4  10  22  38  53  73  98 126 165 214 256 289
#     4   9  16  26  44  71 102 135 167 196 234 285
#
# _framework density 21.442207
#
# number of rings (size 3 to 8) (size 9 to 14) (size 15 to 20)
#    0.000    2.800    1.000    0.000    0.000    3.200 
#    0.000    2.500    0.000    3.000    0.000    5.600 
#    0.000    0.000    0.000    0.000    0.000    0.000 
#
# Total GULP energy -223144.862815 kJ/mol
# GULP energy per Si atom -5578.621570 kJ/mol
# Density = 2.139340 g / cm^3
# Si number density = 21.442207 Si / 1000 Ang^3
#
#
#
# Elastic Constant Matrix: (Units=GPa)
#
#
# Indices 1 2 3 4 5 6 
#
# 1 156.4345 84.0866 7.2939 -0.0013 -0.0008 -0.0036
# 2 84.0866 121.4240 -14.9797 0.0002 0.0000 -0.0046
# 3 7.2939 -14.9797 63.7083 0.0143 -0.0102 0.0460
# 4 -0.0013 0.0002 0.0143 12.5800 -0.0017 0.0030
# 5 -0.0008 0.0000 -0.0102 -0.0017 -0.7775 -0.0227
# 6 -0.0036 -0.0046 0.0460 0.0030 -0.0227 96.2598
#
#
#
# Elastic Compliance Matrix: (Units=1/GPa)
#
#
# Indices 1 2 3 4 5 6 
#
# 1 0.010734 -0.007812 -0.003066 0.000005 0.000029 0.000002
# 2 -0.007812 0.014167 0.004225 -0.000006 -0.000047 -0.000002
# 3 -0.003066 0.004225 0.017041 -0.000020 -0.000220 -0.000008
# 4 0.000005 -0.000006 -0.000020 0.079491 -0.000171 -0.000003
# 5 0.000029 -0.000047 -0.000220 -0.000171 -1.286120 -0.000303
# 6 0.000002 -0.000002 -0.000008 -0.000003 -0.000303 0.010388
#
#
# Mechanical properties :
#
#
# Convention : Reuss Voigt Hill
#
# Bulk Modulus (GPa) = 34.91918 54.92981 44.92449
# Shear Modulus (GPa) = -4.41912 39.29018 17.43553
#
# Velocity S-wave (km/s) = -1.43716 4.28527 2.85466
# Velocity P-wave (km/s) = 3.68330 7.08223 5.64467
#
# Compressibility (1/GPa) = 0.02863756
#
# Stress axis : x y z
#
# Youngs Moduli (GPa) = 93.15840 70.58856 58.68190
#
# Poissons Ratio (x) = 0.55143 0.17990
# Poissons Ratio (y) = 0.72774 -0.24795
# Poissons Ratio (z) = 0.28560 -0.29826
#
# Static dielectric constant tensor:
#      x y z
#    x 1.803270 0.000000 0.000000 
#    y 0.000000 1.736400 -0.000010 
#    z 0.000000 -0.000010 1.806500 
# 
# From -- ./inp_files/8421.got.cif
#   From: 2010.05.17/outbox.cif.g08.bks.cpg/sg71_5_cif.got.tgz:8421.got - 2010.06.03 16:22:01.
