data_PCOD9520071
_publ_section_title
;
Structure prediction by ZEFSAII (Michael W. Deem and Ramdas Pophale) SiO2 
 PCOD9520071
Probable space group: I M M M
;
_chemical_formula_sum "Si O2"
_cell_formula_units_Z 88
_cell_length_a 30.900231
_cell_length_b 9.193985
_cell_length_c 17.829368
_cell_angle_alpha 90.000000
_cell_angle_beta 90.000000
_cell_angle_gamma 90.000000
_cell_volume 5065.256773
_symmetry_space_group_name_H-M "I M M M"
_symmetry_group_IT_number 71
_symmetry_cell_setting 'orthorhombic'
loop_
_space_group_symop_operation_xyz
x,y,z
-x,-y,z
x,-y,-z
-x,y,-z
-x,-y,-z
x,y,-z
-x,y,z
x,-y,z
1/2+x,1/2+y,1/2+z
1/2-x,1/2-y,1/2+z
1/2+x,1/2-y,1/2-z
1/2-x,1/2+y,1/2-z
1/2-x,1/2-y,1/2-z
1/2+x,1/2+y,1/2-z
1/2-x,1/2+y,1/2+z
1/2+x,1/2-y,1/2+z
loop_
_atom_site_type_symbol
_atom_site_label
_atom_site_fract_x
_atom_site_fract_y
_atom_site_fract_z
Si Si1 0.550356 0.340867 0.000000
Si Si2 0.294311 0.328868 0.769787
Si Si3 0.110510 0.175703 0.788019
Si Si4 0.550558 0.825536 0.589160
Si Si5 0.415043 0.164559 0.138084
Si Si6 0.184021 0.662240 0.587123
O O1 0.560415 0.251434 0.925583
O O2 0.572750 0.500000 0.000000
O O3 0.500000 0.361843 0.000000
O O4 0.289737 0.500000 0.760365
O O5 0.250000 0.250000 0.750000
O O6 0.338162 0.285395 0.723704
O O7 0.300824 0.284955 0.856344
O O8 0.085444 0.241481 0.859755
O O9 0.087791 0.246335 0.715093
O O10 0.107512 0.000000 0.787439
O O11 0.556626 0.797082 0.500000
O O12 0.500000 0.788371 0.607310
O O13 0.555246 0.000000 0.600444
O O14 0.366914 0.153456 0.103593
O O15 0.431115 0.000000 0.150654
O O16 0.191915 0.691856 0.500000
O O17 0.202094 0.500000 0.604966
#
# Coordination Sequence:
#
# PCOD9520071 Si02
#       6
#     8  16  16  16  16  16
#     4  11  23  35  47  69 105 143 177 221 271 309
#     4  10  21  36  54  79 110 145 183 226 276 329
#     4  10  21  36  56  84 112 143 182 226 281 336
#     4   9  19  37  60  85 112 144 186 234 283 339
#     4  10  19  34  54  75 100 136 180 219 262 318
#     4   9  17  32  54  78 101 129 170 218 265 315
#
# _framework density 17.373256000000001
#
# number of rings (size 3 to 8) (size 9 to 14) (size 15 to 20)
#    0.000    2.273    0.909    2.455    0.000    5.455 
#    0.000    1.818    0.000    1.091    0.000    0.000 
#    0.000    0.000    0.000    0.000    0.000    0.000 
#
# Total GULP energy -245060.821968 kJ/mol
# GULP energy per Si atom -5569.564136 kJ/mol
# Density = 1.733371 g / cm^3
# Si number density = 17.373256 Si / 1000 Ang^3
#
#
#
# Elastic Constant Matrix: (Units=GPa)
#
#
# Indices 1 2 3 4 5 6 
#
# 1 79.7570 60.5676 66.2752 0.0000 0.0000 0.0000
# 2 60.5676 94.8795 56.3736 0.0000 0.0000 0.0000
# 3 66.2752 56.3736 104.8223 0.0000 0.0000 0.0000
# 4 0.0000 0.0000 0.0000 26.7474 0.0000 0.0000
# 5 0.0000 0.0000 0.0000 0.0000 27.9888 0.0000
# 6 0.0000 0.0000 0.0000 0.0000 0.0000 28.0732
#
#
#
# Elastic Compliance Matrix: (Units=1/GPa)
#
#
# Indices 1 2 3 4 5 6 
#
# 1 0.035422 -0.013675 -0.015041 0.000000 0.000000 0.000000
# 2 -0.013675 0.020768 -0.002523 0.000000 0.000000 0.000000
# 3 -0.015041 -0.002523 0.020407 0.000000 0.000000 0.000000
# 4 0.000000 0.000000 0.000000 0.037387 0.000000 0.000000
# 5 0.000000 0.000000 0.000000 0.000000 0.035729 0.000000
# 6 0.000000 0.000000 0.000000 0.000000 0.000000 0.035621
#
#
# Mechanical properties :
#
#
# Convention : Reuss Voigt Hill
#
# Bulk Modulus (GPa) = 70.83068 71.76575 71.29821
# Shear Modulus (GPa) = 19.80051 22.97804 21.38927
#
# Velocity S-wave (km/s) = 3.37962 3.64072 3.51260
# Velocity P-wave (km/s) = 7.48917 7.68576 7.58810
#
# Compressibility (1/GPa) = 0.01411818
#
# Stress axis : x y z
#
# Youngs Moduli (GPa) = 28.23127 48.15006 49.00268
#
# Poissons Ratio (x) = 0.65845 0.73707
# Poissons Ratio (y) = 0.38606 0.12364
# Poissons Ratio (z) = 0.42464 0.12149
#
# Static dielectric constant tensor:
#      x y z
#    x 1.603590 0.000000 0.000000 
#    y 0.000000 1.637520 0.000000 
#    z 0.000000 0.000000 1.559410 
# 
# From -- ./inp_files/49195.got.cif
#   From: 2010.05.17/outbox.cif.g08.bks.cpg/sg71_25_cif.got.tgz:49195.got - 2010.06.03 16:22:01.
