data_PCOD9520632
_publ_section_title
;
Structure prediction by ZEFSAII (Michael W. Deem and Ramdas Pophale) SiO2 
 PCOD9520632
Probable space group: I M M M
;
_chemical_formula_sum "Si O2"
_cell_formula_units_Z 56
_cell_length_a 29.380711
_cell_length_b 14.947190
_cell_length_c 7.481117
_cell_angle_alpha 90.000000
_cell_angle_beta 90.000000
_cell_angle_gamma 90.000000
_cell_volume 3285.400382
_symmetry_space_group_name_H-M "I M M M"
_symmetry_group_IT_number 71
_symmetry_cell_setting 'orthorhombic'
loop_
_space_group_symop_operation_xyz
x,y,z
-x,-y,z
x,-y,-z
-x,y,-z
-x,-y,-z
x,y,-z
-x,y,z
x,-y,z
1/2+x,1/2+y,1/2+z
1/2-x,1/2-y,1/2+z
1/2+x,1/2-y,1/2-z
1/2-x,1/2+y,1/2-z
1/2-x,1/2-y,1/2-z
1/2+x,1/2+y,1/2-z
1/2-x,1/2+y,1/2+z
1/2+x,1/2-y,1/2+z
loop_
_atom_site_type_symbol
_atom_site_label
_atom_site_fract_x
_atom_site_fract_y
_atom_site_fract_z
Si Si1 0.945858 0.608132 0.500000
Si Si2 0.327025 0.000000 0.783511
Si Si3 0.879744 0.321994 0.795727
Si Si4 0.278864 0.500000 0.717188
Si Si5 0.702113 0.301714 0.285370
O O1 0.936250 0.500000 0.500000
O O2 0.922248 0.655493 0.330225
O O3 0.000000 0.618201 0.500000
O O4 0.350881 0.913125 0.707676
O O5 0.274293 0.000000 0.738415
O O6 0.330684 0.000000 0.000000
O O7 0.842996 0.250294 0.722991
O O8 0.892731 0.300099 0.000000
O O9 0.282837 0.500000 0.500000
O O10 0.297314 0.404174 0.779982
O O11 0.698886 0.303456 0.500000
O O12 0.750000 0.250000 0.250000
#
# Coordination Sequence:
#
# PCOD9520632 Si02
#       5
#     8   8  16   8  16
#     4  11  24  40  58  79 105 141 183 228 279 329
#     4  11  17  29  51  73 108 151 180 211 260 312
#     4  11  21  34  54  78 106 144 182 220 267 319
#     4   9  18  31  47  71 107 149 189 219 248 309
#     4  10  20  31  49  74 105 145 184 218 259 315
#
# _framework density 17.045107000000002
#
# number of rings (size 3 to 8) (size 9 to 14) (size 15 to 20)
#    0.000    1.571    5.714    0.429    2.000    0.571 
#    0.000    2.143    0.000    0.000    0.000    2.000 
#    0.000    5.714    0.000    0.000    0.000    0.000 
#
# Total GULP energy -156181.443540 kJ/mol
# GULP energy per Si atom -5577.908698 kJ/mol
# Density = 1.700631 g / cm^3
# Si number density = 17.045107 Si / 1000 Ang^3
#
#
#
# Elastic Constant Matrix: (Units=GPa)
#
#
# Indices 1 2 3 4 5 6 
#
# 1 134.8036 64.7251 41.5182 0.0000 0.0000 0.0000
# 2 64.7251 128.9082 13.4461 0.0000 0.0000 0.0000
# 3 41.5182 13.4461 83.3839 0.0000 0.0000 0.0000
# 4 0.0000 0.0000 0.0000 27.8346 0.0000 0.0000
# 5 0.0000 0.0000 0.0000 0.0000 3.8719 0.0000
# 6 0.0000 0.0000 0.0000 0.0000 0.0000 34.1919
#
#
#
# Elastic Compliance Matrix: (Units=1/GPa)
#
#
# Indices 1 2 3 4 5 6 
#
# 1 0.011421 -0.005229 -0.004843 0.000000 0.000000 0.000000
# 2 -0.005229 0.010284 0.000945 0.000000 0.000000 0.000000
# 3 -0.004843 0.000945 0.014252 0.000000 0.000000 0.000000
# 4 0.000000 0.000000 0.000000 0.035927 0.000000 0.000000
# 5 0.000000 0.000000 0.000000 0.000000 0.258272 0.000000
# 6 0.000000 0.000000 0.000000 0.000000 0.000000 0.029247
#
#
# Mechanical properties :
#
#
# Convention : Reuss Voigt Hill
#
# Bulk Modulus (GPa) = 56.48903 65.16384 60.82644
# Shear Modulus (GPa) = 13.03586 28.34009 20.68797
#
# Velocity S-wave (km/s) = 2.76848 4.08199 3.48763
# Velocity P-wave (km/s) = 6.59031 7.78011 7.20979
#
# Compressibility (1/GPa) = 0.01770255
#
# Stress axis : x y z
#
# Youngs Moduli (GPa) = 87.56095 97.23449 70.16636
#
# Poissons Ratio (x) = 0.50845 0.33984
# Poissons Ratio (y) = 0.45787 -0.06632
# Poissons Ratio (z) = 0.42408 -0.09191
#
# Static dielectric constant tensor:
#      x y z
#    x 1.544950 0.000000 0.000000 
#    y 0.000000 1.600830 0.000000 
#    z 0.000000 0.000000 1.685730 
# 
# From -- ./inp_files/16273.got.cif
#   From: 2010.05.17/outbox.cif.g08.bks.cpg/sg71_9_cif.got.tgz:16273.got - 2010.06.03 16:22:01.
