data_PCOD9520222
_publ_section_title
;
Structure prediction by ZEFSAII (Michael W. Deem and Ramdas Pophale) SiO2 
 PCOD9520222
Probable space group: I M M M
;
_chemical_formula_sum "Si O2"
_cell_formula_units_Z 96
_cell_length_a 14.092667
_cell_length_b 16.144878
_cell_length_c 21.688046
_cell_angle_alpha 90.000000
_cell_angle_beta 90.000000
_cell_angle_gamma 90.000000
_cell_volume 4934.559424
_symmetry_space_group_name_H-M "I M M M"
_symmetry_group_IT_number 71
_symmetry_cell_setting 'orthorhombic'
loop_
_space_group_symop_operation_xyz
x,y,z
-x,-y,z
x,-y,-z
-x,y,-z
-x,-y,-z
x,y,-z
-x,y,z
x,-y,z
1/2+x,1/2+y,1/2+z
1/2-x,1/2-y,1/2+z
1/2+x,1/2-y,1/2-z
1/2-x,1/2+y,1/2-z
1/2-x,1/2-y,1/2-z
1/2+x,1/2+y,1/2-z
1/2-x,1/2+y,1/2+z
1/2+x,1/2-y,1/2+z
loop_
_atom_site_type_symbol
_atom_site_label
_atom_site_fract_x
_atom_site_fract_y
_atom_site_fract_z
Si Si1 0.389151 0.644582 0.929264
Si Si2 0.788249 0.405253 0.144058
Si Si3 0.387135 0.758707 0.571748
Si Si4 0.196902 0.910499 0.071079
Si Si5 0.107950 0.596942 0.267416
Si Si6 0.892545 0.660869 0.401972
O O1 0.500000 0.624473 0.919602
O O2 0.319312 0.604737 0.879470
O O3 0.379586 0.744361 0.922975
O O4 0.364093 0.621316 0.000000
O O5 0.819062 0.500000 0.132611
O O6 0.845943 0.337977 0.105459
O O7 0.813814 0.387932 0.215298
O O8 0.356835 0.762716 0.500000
O O9 0.500000 0.758067 0.574250
O O10 0.348216 0.672240 0.599087
O O11 0.309478 0.895159 0.071296
O O12 0.174968 0.000000 0.099653
O O13 0.163594 0.913119 0.000000
O O14 0.114781 0.500000 0.286438
O O15 0.117177 0.652442 0.328017
O O16 0.000000 0.608407 0.242331
O O17 0.000000 0.635373 0.418039
#
# Coordination Sequence:
#
# PCOD9520222 Si02
#       6
#    16  16  16  16  16  16
#     4  10  21  37  57  84 119 153 188 235 289 346
#     4  11  22  37  59  83 111 150 193 237 287 338
#     4  10  21  37  55  78 110 145 186 239 291 339
#     4  10  20  34  54  81 113 149 188 231 286 348
#     4   9  19  35  55  83 116 148 187 236 287 340
#     4  10  19  34  58  84 113 149 187 231 285 341
#
# _framework density 19.454625
#
# number of rings (size 3 to 8) (size 9 to 14) (size 15 to 20)
#    0.000    2.000    1.667    2.000    0.000    5.667 
#    0.000    4.167    0.000    0.000    0.000    2.333 
#    0.000    0.000    0.000    0.000    0.000    0.000 
#
# Total GULP energy -267804.064688 kJ/mol
# GULP energy per Si atom -5579.251348 kJ/mol
# Density = 1.941035 g / cm^3
# Si number density = 19.454625 Si / 1000 Ang^3
#
#
#
# Elastic Constant Matrix: (Units=GPa)
#
#
# Indices 1 2 3 4 5 6 
#
# 1 58.9864 17.1091 28.5361 0.0000 0.0000 0.0000
# 2 17.1091 92.2021 17.9688 0.0000 0.0000 0.0000
# 3 28.5361 17.9688 66.2401 0.0000 0.0000 0.0000
# 4 0.0000 0.0000 0.0000 17.3475 0.0000 0.0000
# 5 0.0000 0.0000 0.0000 0.0000 27.1825 0.0000
# 6 0.0000 0.0000 0.0000 0.0000 0.0000 16.3103
#
#
#
# Elastic Compliance Matrix: (Units=1/GPa)
#
#
# Indices 1 2 3 4 5 6 
#
# 1 0.021888 -0.002348 -0.008792 0.000000 0.000000 0.000000
# 2 -0.002348 0.011703 -0.002163 0.000000 0.000000 0.000000
# 3 -0.008792 -0.002163 0.019471 0.000000 0.000000 0.000000
# 4 0.000000 0.000000 0.000000 0.057645 0.000000 0.000000
# 5 0.000000 0.000000 0.000000 0.000000 0.036788 0.000000
# 6 0.000000 0.000000 0.000000 0.000000 0.000000 0.061311
#
#
# Mechanical properties :
#
#
# Convention : Reuss Voigt Hill
#
# Bulk Modulus (GPa) = 37.80009 38.29516 38.04762
# Shear Modulus (GPa) = 20.47244 22.42238 21.44741
#
# Velocity S-wave (km/s) = 3.24746 3.39860 3.32389
# Velocity P-wave (km/s) = 5.79080 5.92687 5.85923
#
# Compressibility (1/GPa) = 0.02645497
#
# Stress axis : x y z
#
# Youngs Moduli (GPa) = 45.68817 85.44818 51.35842
#
# Poissons Ratio (x) = 0.20063 0.45155
# Poissons Ratio (y) = 0.10728 0.11109
# Poissons Ratio (z) = 0.40170 0.18484
#
# Static dielectric constant tensor:
#      x y z
#    x 1.695540 0.000000 0.000000 
#    y 0.000000 1.694290 0.000000 
#    z 0.000000 0.000000 1.676240 
# 
# From -- ./inp_files/34489.got.cif
#   From: 2010.05.17/outbox.cif.g08.bks.cpg/sg71_18_cif.got.tgz:34489.got - 2010.06.03 16:22:01.
