data_PCOD9520109
_publ_section_title
;
Structure prediction by ZEFSAII (Michael W. Deem and Ramdas Pophale) SiO2 
 PCOD9520109
Probable space group: I M M M
;
_chemical_formula_sum "Si O2"
_cell_formula_units_Z 120
_cell_length_a 15.704454
_cell_length_b 15.885726
_cell_length_c 28.142522
_cell_angle_alpha 90.000000
_cell_angle_beta 90.000000
_cell_angle_gamma 90.000000
_cell_volume 7020.902202
_symmetry_space_group_name_H-M "I M M M"
_symmetry_group_IT_number 71
_symmetry_cell_setting 'orthorhombic'
loop_
_space_group_symop_operation_xyz
x,y,z
-x,-y,z
x,-y,-z
-x,y,-z
-x,-y,-z
x,y,-z
-x,y,z
x,-y,z
1/2+x,1/2+y,1/2+z
1/2-x,1/2-y,1/2+z
1/2+x,1/2-y,1/2-z
1/2-x,1/2+y,1/2-z
1/2-x,1/2-y,1/2-z
1/2+x,1/2+y,1/2-z
1/2-x,1/2+y,1/2+z
1/2+x,1/2-y,1/2+z
loop_
_atom_site_type_symbol
_atom_site_label
_atom_site_fract_x
_atom_site_fract_y
_atom_site_fract_z
Si Si1 0.626956 0.094626 0.720279
Si Si2 0.403653 0.204612 0.364308
Si Si3 0.253187 0.671888 0.347571
Si Si4 0.396636 0.907761 0.554335
Si Si5 0.500000 0.595366 0.557405
Si Si6 0.689993 0.602413 0.444607
Si Si7 0.185205 0.906795 0.752850
Si Si8 0.403506 0.245792 0.792691
O O1 0.594461 0.122420 0.669113
O O2 0.729601 0.096879 0.720931
O O3 0.597380 0.166790 0.756434
O O4 0.601229 0.000000 0.733371
O O5 0.500000 0.238713 0.366164
O O6 0.333481 0.265855 0.343984
O O7 0.370963 0.170656 0.414512
O O8 0.252658 0.635377 0.401109
O O9 0.277272 0.605242 0.306234
O O10 0.167257 0.719721 0.331725
O O11 0.370643 0.898549 0.500000
O O12 0.500000 0.907934 0.555700
O O13 0.368013 0.000000 0.571306
O O14 0.500000 0.500000 0.576983
O O15 0.500000 0.590079 0.500000
O O16 0.407059 0.631824 0.568280
O O17 0.708299 0.626451 0.500000
O O18 0.689504 0.500000 0.444010
O O19 0.127194 0.829260 0.735700
O O20 0.146074 0.000000 0.748925
O O21 0.500000 0.257205 0.810339
#
# Coordination Sequence:
#
# PCOD9520109 Si02
#       8
#    16  16  16  16   8  16  16  16
#     4  10  19  34  55  77 104 135 170 216 270 327
#     4  11  20  29  46  72 104 136 171 210 255 314
#     4  11  21  35  52  80 109 140 180 230 270 322
#     4   8  15  28  43  62  93 131 167 200 239 296
#     4   7  12  26  46  70 102 140 181 217 251 307
#     4   9  18  33  53  76 107 147 185 222 268 326
#     4  10  20  37  57  76 103 141 179 225 278 323
#     4  11  22  39  56  76 107 141 184 234 276 322
#
# _framework density 17.091819999999998
#
# number of rings (size 3 to 8) (size 9 to 14) (size 15 to 20)
#    0.000    2.200    2.667    3.200    0.933    2.933 
#    0.000    0.000    0.000    0.400    0.000    0.933 
#    0.000    0.000    0.000    2.667    0.000    0.133 
#
# Total GULP energy -334181.557421 kJ/mol
# GULP energy per Si atom -5569.692624 kJ/mol
# Density = 1.705292 g / cm^3
# Si number density = 17.091820 Si / 1000 Ang^3
#
#
#
# Elastic Constant Matrix: (Units=GPa)
#
#
# Indices 1 2 3 4 5 6 
#
# 1 81.9586 34.9648 29.7459 0.0000 0.0000 0.0000
# 2 34.9648 95.5625 28.8136 0.0000 0.0000 0.0000
# 3 29.7459 28.8136 75.7605 0.0000 0.0000 0.0000
# 4 0.0000 0.0000 0.0000 24.3027 0.0000 0.0000
# 5 0.0000 0.0000 0.0000 0.0000 19.3224 0.0000
# 6 0.0000 0.0000 0.0000 0.0000 0.0000 9.6761
#
#
#
# Elastic Compliance Matrix: (Units=1/GPa)
#
#
# Indices 1 2 3 4 5 6 
#
# 1 0.015707 -0.004391 -0.004497 0.000000 0.000000 0.000000
# 2 -0.004391 0.013047 -0.003238 0.000000 0.000000 0.000000
# 3 -0.004497 -0.003238 0.016197 0.000000 0.000000 0.000000
# 4 0.000000 0.000000 0.000000 0.041148 0.000000 0.000000
# 5 0.000000 0.000000 0.000000 0.000000 0.051754 0.000000
# 6 0.000000 0.000000 0.000000 0.000000 0.000000 0.103348
#
#
# Mechanical properties :
#
#
# Convention : Reuss Voigt Hill
#
# Bulk Modulus (GPa) = 48.31262 48.92557 48.61909
# Shear Modulus (GPa) = 18.35867 21.31073 19.83470
#
# Velocity S-wave (km/s) = 3.28093 3.53489 3.41028
# Velocity P-wave (km/s) = 6.53304 6.73408 6.63432
#
# Compressibility (1/GPa) = 0.02069853
#
# Stress axis : x y z
#
# Youngs Moduli (GPa) = 63.66741 76.64432 61.74102
#
# Poissons Ratio (x) = 0.33654 0.27764
# Poissons Ratio (y) = 0.27956 0.19993
# Poissons Ratio (z) = 0.28631 0.24819
#
# Static dielectric constant tensor:
#      x y z
#    x 1.570720 0.000000 0.000000 
#    y 0.000000 1.649150 0.000000 
#    z 0.000000 0.000000 1.596910 
# 
# From -- ./inp_files/70149.got.cif
#   From: 2010.05.17/outbox.cif.g08.bks.cpg/sg71_36_cif.got.tgz:70149.got - 2010.06.03 16:22:01.
