data_PCOD9520834
_publ_section_title
;
Structure prediction by ZEFSAII (Michael W. Deem and Ramdas Pophale) SiO2 
 PCOD9520834
Probable space group: I M M M
;
_chemical_formula_sum "Si O2"
_cell_formula_units_Z 104
_cell_length_a 18.116184
_cell_length_b 7.407243
_cell_length_c 33.501354
_cell_angle_alpha 90.000000
_cell_angle_beta 90.000000
_cell_angle_gamma 90.000000
_cell_volume 4495.579428
_symmetry_space_group_name_H-M "I M M M"
_symmetry_group_IT_number 71
_symmetry_cell_setting 'orthorhombic'
loop_
_space_group_symop_operation_xyz
x,y,z
-x,-y,z
x,-y,-z
-x,y,-z
-x,-y,-z
x,y,-z
-x,y,z
x,-y,z
1/2+x,1/2+y,1/2+z
1/2-x,1/2-y,1/2+z
1/2+x,1/2-y,1/2-z
1/2-x,1/2+y,1/2-z
1/2-x,1/2-y,1/2-z
1/2+x,1/2+y,1/2-z
1/2-x,1/2+y,1/2+z
1/2+x,1/2-y,1/2+z
loop_
_atom_site_type_symbol
_atom_site_label
_atom_site_fract_x
_atom_site_fract_y
_atom_site_fract_z
Si Si1 0.914380 0.221502 0.000000
Si Si2 0.914816 0.781700 0.545153
Si Si3 0.917409 0.282078 0.160727
Si Si4 0.666386 0.215376 0.736840
Si Si5 0.191732 0.294444 0.383559
Si Si6 0.658869 0.291459 0.418617
Si Si7 0.916180 0.278796 0.684763
O O1 0.872725 0.283009 0.959892
O O2 0.000000 0.277090 0.000000
O O3 0.915047 0.000000 0.000000
O O4 0.894346 0.728896 0.500000
O O5 0.862073 0.704723 0.578495
O O6 0.000000 0.729678 0.551964
O O7 0.911329 0.000000 0.547177
O O8 0.914003 0.500000 0.158709
O O9 0.858072 0.216963 0.193371
O O10 0.900968 0.214365 0.116454
O O11 0.000000 0.232566 0.173757
O O12 0.750000 0.250000 0.750000
O O13 0.611320 0.278316 0.771624
O O14 0.657867 0.000000 0.735153
O O15 0.209411 0.500000 0.370973
O O16 0.267729 0.208333 0.398727
O O17 0.144082 0.214693 0.347426
O O18 0.677983 0.500000 0.427594
O O19 0.916485 0.500000 0.683454
O O20 0.000000 0.221596 0.676043
#
# Coordination Sequence:
#
# PCOD9520834 Si02
#       7
#     8  16  16  16  16  16  16
#     4   9  18  34  55  77 104 141 180 218 267 327
#     4   9  19  35  52  71 100 140 181 218 263 323
#     4  10  21  37  57  82 111 144 183 226 272 325
#     4  10  20  35  56  80 108 142 178 219 266 317
#     4  10  20  32  52  80 107 134 174 227 273 312
#     4  10  21  36  56  82 110 142 181 226 277 332
#     4   9  17  31  51  75 104 139 177 213 257 315
#
# _framework density 23.133837
#
# number of rings (size 3 to 8) (size 9 to 14) (size 15 to 20)
#    0.000    2.385    0.000    2.769    1.077    6.462 
#    0.000    1.923    0.000    3.692    0.000    0.000 
#    0.000    0.000    0.000    0.000    0.000    0.000 
#
# Total GULP energy -290602.437765 kJ/mol
# GULP energy per Si atom -5588.508419 kJ/mol
# Density = 2.308118 g / cm^3
# Si number density = 23.133837 Si / 1000 Ang^3
#
#
#
# Elastic Constant Matrix: (Units=GPa)
#
#
# Indices 1 2 3 4 5 6 
#
# 1 106.9822 3.3631 71.3070 0.0000 0.0000 0.0000
# 2 3.3631 77.0187 2.9189 0.0000 0.0000 0.0000
# 3 71.3070 2.9189 152.3485 0.0000 0.0000 0.0000
# 4 0.0000 0.0000 0.0000 110.5954 0.0000 0.0000
# 5 0.0000 0.0000 0.0000 0.0000 -266.8336 0.0000
# 6 0.0000 0.0000 0.0000 0.0000 0.0000 9.1313
#
#
#
# Elastic Compliance Matrix: (Units=1/GPa)
#
#
# Indices 1 2 3 4 5 6 
#
# 1 0.013595 -0.000353 -0.006357 0.000000 0.000000 0.000000
# 2 -0.000353 0.013002 -0.000084 0.000000 0.000000 0.000000
# 3 -0.006357 -0.000084 0.009541 0.000000 0.000000 0.000000
# 4 0.000000 0.000000 0.000000 0.009042 0.000000 0.000000
# 5 0.000000 0.000000 0.000000 0.000000 -0.003748 0.000000
# 6 0.000000 0.000000 0.000000 0.000000 0.000000 0.109513
#
#
# Mechanical properties :
#
#
# Convention : Reuss Voigt Hill
#
# Bulk Modulus (GPa) = 44.34232 54.61415 49.47823
# Shear Modulus (GPa) = 29.06139 -12.17068 8.44535
#
# Velocity S-wave (km/s) = 3.54818 -2.29617 1.91274
# Velocity P-wave (km/s) = 5.99962 4.07790 5.12956
#
# Compressibility (1/GPa) = 0.02255182
#
# Stress axis : x y z
#
# Youngs Moduli (GPa) = 73.55501 76.90857 104.81418
#
# Poissons Ratio (x) = 0.02713 0.66625
# Poissons Ratio (y) = 0.02595 0.00881
# Poissons Ratio (z) = 0.46755 0.00646
#
# Static dielectric constant tensor:
#      x y z
#    x 1.856290 0.000000 0.000000 
#    y 0.000000 1.899340 0.000000 
#    z 0.000000 0.000000 1.831060 
# 
# From -- ./inp_files/69944.got.cif
#   From: 2010.05.17/outbox.cif.g08.bks.cpg/sg71_35_cif.got.tgz:69944.got - 2010.06.03 16:22:01.
