data_PCOD9520310
_publ_section_title
;
Structure prediction by ZEFSAII (Michael W. Deem and Ramdas Pophale) SiO2 
 PCOD9520310
Probable space group: I M M M
;
_chemical_formula_sum "Si O2"
_cell_formula_units_Z 104
_cell_length_a 25.104563
_cell_length_b 12.548121
_cell_length_c 15.498390
_cell_angle_alpha 90.000000
_cell_angle_beta 90.000000
_cell_angle_gamma 90.000000
_cell_volume 4882.226785
_symmetry_space_group_name_H-M "I M M M"
_symmetry_group_IT_number 71
_symmetry_cell_setting 'orthorhombic'
loop_
_space_group_symop_operation_xyz
x,y,z
-x,-y,z
x,-y,-z
-x,y,-z
-x,-y,-z
x,y,-z
-x,y,z
x,-y,z
1/2+x,1/2+y,1/2+z
1/2-x,1/2-y,1/2+z
1/2+x,1/2-y,1/2-z
1/2-x,1/2+y,1/2-z
1/2-x,1/2-y,1/2-z
1/2+x,1/2+y,1/2-z
1/2-x,1/2+y,1/2+z
1/2+x,1/2-y,1/2+z
loop_
_atom_site_type_symbol
_atom_site_label
_atom_site_fract_x
_atom_site_fract_y
_atom_site_fract_z
Si Si1 0.742165 0.300848 0.343078
Si Si2 0.942876 0.629702 0.898401
Si Si3 0.329459 0.881304 0.399154
Si Si4 0.443416 0.500000 0.767123
Si Si5 0.822601 0.000000 0.208944
Si Si6 0.409642 0.331706 0.098459
Si Si7 0.358040 0.881952 0.896247
Si Si8 0.185022 0.000000 0.405971
O O1 0.750000 0.250000 0.250000
O O2 0.718290 0.201056 0.393693
O O3 0.699481 0.395616 0.338001
O O4 0.798014 0.347845 0.373833
O O5 0.941659 0.500000 0.895943
O O6 0.885433 0.662304 0.860372
O O7 0.000000 0.664145 0.859941
O O8 0.944642 0.660462 0.000000
O O9 0.340726 0.893556 0.500000
O O10 0.318026 0.000000 0.363912
O O11 0.500000 0.500000 0.718973
O O12 0.386724 0.500000 0.717860
O O13 0.441258 0.600944 0.831753
O O14 0.796787 0.000000 0.306235
O O15 0.397508 0.212703 0.129470
O O16 0.353401 0.396118 0.092289
O O17 0.431235 0.332643 0.000000
O O18 0.369528 0.000000 0.861509
O O19 0.361410 0.885460 0.000000
O O20 0.214718 0.000000 0.500000
#
# Coordination Sequence:
#
# PCOD9520310 Si02
#       8
#    16  16  16   8   8  16  16   8
#     4  12  23  36  54  74 111 149 190 231 282 339
#     4   7  10  21  45  74 102 129 160 209 271 325
#     4   9  19  35  54  81 111 140 182 234 284 331
#     4  10  19  35  57  79 111 151 187 232 293 342
#     4  10  22  38  51  81 108 145 193 234 274 344
#     4   8  15  29  51  82 108 132 178 232 280 333
#     4  10  20  36  56  77 106 149 191 226 274 341
#     4   8  14  30  52  72 101 132 168 227 284 319
#
# _framework density 21.301756000000001
#
# number of rings (size 3 to 8) (size 9 to 14) (size 15 to 20)
#    0.000    2.923    0.769    4.385    1.077    0.615 
#    2.769    1.538    0.000    0.462    0.000    2.154 
#    0.000    3.692    0.000    0.000    0.000    0.000 
#
# Total GULP energy -289778.055926 kJ/mol
# GULP energy per Si atom -5572.654922 kJ/mol
# Density = 2.125327 g / cm^3
# Si number density = 21.301756 Si / 1000 Ang^3
#
#
#
# Elastic Constant Matrix: (Units=GPa)
#
#
# Indices 1 2 3 4 5 6 
#
# 1 75.0374 25.6120 -6.4912 0.0000 0.0000 0.0000
# 2 25.6120 132.6225 2.7580 0.0000 0.0000 0.0000
# 3 -6.4912 2.7580 16.0841 0.0000 0.0000 0.0000
# 4 0.0000 0.0000 0.0000 2.5992 0.0000 0.0000
# 5 0.0000 0.0000 0.0000 0.0000 4.2260 0.0000
# 6 0.0000 0.0000 0.0000 0.0000 0.0000 -16.8940
#
#
#
# Elastic Compliance Matrix: (Units=1/GPa)
#
#
# Indices 1 2 3 4 5 6 
#
# 1 0.014922 -0.003018 0.006540 0.000000 0.000000 0.000000
# 2 -0.003018 0.008177 -0.002620 0.000000 0.000000 0.000000
# 3 0.006540 -0.002620 0.065262 0.000000 0.000000 0.000000
# 4 0.000000 0.000000 0.000000 0.384727 0.000000 0.000000
# 5 0.000000 0.000000 0.000000 0.000000 0.236633 0.000000
# 6 0.000000 0.000000 0.000000 0.000000 0.000000 -0.059193
#
#
# Mechanical properties :
#
#
# Convention : Reuss Voigt Hill
#
# Bulk Modulus (GPa) = 11.09069 29.72238 20.40653
# Shear Modulus (GPa) = 7.36616 11.44392 9.40504
#
# Velocity S-wave (km/s) = 1.86159 2.32033 2.10350
# Velocity P-wave (km/s) = 3.13663 4.60021 3.93703
#
# Compressibility (1/GPa) = 0.09016573
#
# Stress axis : x y z
#
# Youngs Moduli (GPa) = 67.01295 122.28692 15.32287
#
# Poissons Ratio (x) = 0.36904 -0.10021
# Poissons Ratio (y) = 0.20223 0.04015
# Poissons Ratio (z) = -0.43826 0.32041
#
# Static dielectric constant tensor:
#      x y z
#    x 1.824090 0.000000 0.000000 
#    y 0.000000 1.791490 0.000000 
#    z 0.000000 0.000000 1.798420 
# 
# From -- ./inp_files/48903.got.cif
#   From: 2010.05.17/outbox.cif.g08.bks.cpg/sg71_25_cif.got.tgz:48903.got - 2010.06.03 16:22:01.
