data_PCOD9520937
_publ_section_title
;
Structure prediction by ZEFSAII (Michael W. Deem and Ramdas Pophale) SiO2 
 PCOD9520937
Probable space group: I M M M
;
_chemical_formula_sum "Si O2"
_cell_formula_units_Z 88
_cell_length_a 13.822292
_cell_length_b 24.610019
_cell_length_c 15.188050
_cell_angle_alpha 90.000000
_cell_angle_beta 90.000000
_cell_angle_gamma 90.000000
_cell_volume 5166.471411
_symmetry_space_group_name_H-M "I M M M"
_symmetry_group_IT_number 71
_symmetry_cell_setting 'orthorhombic'
loop_
_space_group_symop_operation_xyz
x,y,z
-x,-y,z
x,-y,-z
-x,y,-z
-x,-y,-z
x,y,-z
-x,y,z
x,-y,z
1/2+x,1/2+y,1/2+z
1/2-x,1/2-y,1/2+z
1/2+x,1/2-y,1/2-z
1/2-x,1/2+y,1/2-z
1/2-x,1/2-y,1/2-z
1/2+x,1/2+y,1/2-z
1/2-x,1/2+y,1/2+z
1/2+x,1/2-y,1/2+z
loop_
_atom_site_type_symbol
_atom_site_label
_atom_site_fract_x
_atom_site_fract_y
_atom_site_fract_z
Si Si1 0.300089 0.741011 0.599437
Si Si2 0.796088 0.143278 0.767352
Si Si3 0.388376 0.310398 0.100217
Si Si4 0.886320 0.645452 0.844272
Si Si5 0.387392 0.435013 0.401148
Si Si6 0.882841 0.437326 0.000000
O O1 0.316456 0.720926 0.500000
O O2 0.318078 0.696312 0.673359
O O3 0.188898 0.761555 0.607387
O O4 0.363206 0.795334 0.614492
O O5 0.856343 0.148650 0.676829
O O6 0.684289 0.141646 0.738959
O O7 0.826023 0.092781 0.825941
O O8 0.500000 0.294226 0.111992
O O9 0.377692 0.331970 0.000000
O O10 0.000000 0.640715 0.825575
O O11 0.857209 0.598696 0.914463
O O12 0.356148 0.419205 0.500000
O O13 0.500000 0.418853 0.391311
O O14 0.383116 0.500000 0.395810
O O15 0.847784 0.500000 0.000000
O O16 0.000000 0.439599 0.000000
#
# Coordination Sequence:
#
# PCOD9520937 Si02
#       6
#    16  16  16  16  16   8
#     4  10  20  33  49  74 105 136 175 219 268 317
#     4  11  21  31  53  79 105 134 176 221 262 322
#     4   9  18  32  48  68 102 140 168 203 255 317
#     4  10  20  34  51  74 108 143 174 222 271 312
#     4   9  19  37  58  78 102 132 169 217 270 317
#     4   9  18  34  54  72  95 137 186 224 263 310
#
# _framework density 17.032900999999999
#
# number of rings (size 3 to 8) (size 9 to 14) (size 15 to 20)
#    0.000    2.273    0.909    3.818    1.273    4.364 
#    0.000    0.000    0.000    1.636    0.000    3.818 
#    0.000    0.000    0.000    0.000    0.000    0.000 
#
# Total GULP energy -245285.715233 kJ/mol
# GULP energy per Si atom -5574.675346 kJ/mol
# Density = 1.699413 g / cm^3
# Si number density = 17.032901 Si / 1000 Ang^3
#
#
#
# Elastic Constant Matrix: (Units=GPa)
#
#
# Indices 1 2 3 4 5 6 
#
# 1 55.4254 15.8450 32.2444 0.0000 0.0000 0.0000
# 2 15.8450 67.4685 37.2227 -0.0002 0.0000 0.0000
# 3 32.2444 37.2227 110.6589 -0.0003 0.0000 0.0000
# 4 0.0000 -0.0002 -0.0003 26.7305 0.0000 0.0000
# 5 0.0000 0.0000 0.0000 0.0000 17.6513 0.0000
# 6 0.0000 0.0000 0.0000 0.0000 0.0000 10.4939
#
#
#
# Elastic Compliance Matrix: (Units=1/GPa)
#
#
# Indices 1 2 3 4 5 6 
#
# 1 0.021942 -0.001996 -0.005722 0.000000 0.000000 0.000000
# 2 -0.001996 0.018381 -0.005601 0.000000 0.000000 0.000000
# 3 -0.005722 -0.005601 0.012588 0.000000 0.000000 0.000000
# 4 0.000000 0.000000 0.000000 0.037410 0.000000 0.000000
# 5 0.000000 0.000000 0.000000 0.000000 0.056653 0.000000
# 6 0.000000 0.000000 0.000000 0.000000 0.000000 0.095293
#
#
# Mechanical properties :
#
#
# Convention : Reuss Voigt Hill
#
# Bulk Modulus (GPa) = 38.06335 44.90855 41.48595
# Shear Modulus (GPa) = 18.00740 20.85786 19.43263
#
# Velocity S-wave (km/s) = 3.25501 3.50317 3.38137
# Velocity P-wave (km/s) = 6.04336 6.54110 6.29715
#
# Compressibility (1/GPa) = 0.02627199
#
# Stress axis : x y z
#
# Youngs Moduli (GPa) = 45.57511 54.40490 79.43958
#
# Poissons Ratio (x) = 0.10860 0.45456
# Poissons Ratio (y) = 0.09097 0.44495
# Poissons Ratio (z) = 0.26078 0.30473
#
# Static dielectric constant tensor:
#      x y z
#    x 1.579440 0.000000 0.000000 
#    y 0.000000 1.564670 0.000000 
#    z 0.000000 0.000000 1.591720 
# 
# From -- ./inp_files/34415.got.cif
#   From: 2010.05.17/outbox.cif.g08.bks.cpg/sg71_18_cif.got.tgz:34415.got - 2010.06.03 16:22:01.
