data_PCOD9520739
_publ_section_title
;
Structure prediction by ZEFSAII (Michael W. Deem and Ramdas Pophale) SiO2 
 PCOD9520739
Probable space group: I M M M
;
_chemical_formula_sum "Si O2"
_cell_formula_units_Z 112
_cell_length_a 11.690420
_cell_length_b 27.237343
_cell_length_c 19.278828
_cell_angle_alpha 90.000000
_cell_angle_beta 90.000000
_cell_angle_gamma 90.000000
_cell_volume 6138.686898
_symmetry_space_group_name_H-M "I M M M"
_symmetry_group_IT_number 71
_symmetry_cell_setting 'orthorhombic'
loop_
_space_group_symop_operation_xyz
x,y,z
-x,-y,z
x,-y,-z
-x,y,-z
-x,-y,-z
x,y,-z
-x,y,z
x,-y,z
1/2+x,1/2+y,1/2+z
1/2-x,1/2-y,1/2+z
1/2+x,1/2-y,1/2-z
1/2-x,1/2+y,1/2-z
1/2-x,1/2-y,1/2-z
1/2+x,1/2+y,1/2-z
1/2-x,1/2+y,1/2+z
1/2+x,1/2-y,1/2+z
loop_
_atom_site_type_symbol
_atom_site_label
_atom_site_fract_x
_atom_site_fract_y
_atom_site_fract_z
Si Si1 0.863923 0.052319 0.422170
Si Si2 0.134300 0.684790 0.077296
Si Si3 0.787540 0.718041 0.579192
Si Si4 0.373928 0.262108 0.214641
Si Si5 0.135080 0.057680 0.790690
Si Si6 0.212620 0.867427 0.318462
Si Si7 0.869567 0.124439 0.080715
O O1 0.817831 0.055254 0.500000
O O2 0.838446 0.099995 0.379513
O O3 0.000000 0.049461 0.426423
O O4 0.824056 0.000000 0.390705
O O5 0.197400 0.737051 0.079668
O O6 0.174913 0.654401 0.144485
O O7 0.000000 0.691541 0.079503
O O8 0.162956 0.663409 0.000000
O O9 0.834079 0.715232 0.500000
O O10 0.870462 0.732711 0.641753
O O11 0.719789 0.667921 0.594998
O O12 0.500000 0.252509 0.247973
O O13 0.250000 0.250000 0.250000
O O14 0.363086 0.320431 0.201423
O O15 0.212321 0.094183 0.744676
O O16 0.144573 0.078538 0.868460
O O17 0.000000 0.063266 0.769230
O O18 0.162346 0.000000 0.785570
O O19 0.000000 0.143184 0.091221
O O20 0.858498 0.110835 0.000000
#
# Coordination Sequence:
#
# PCOD9520739 Si02
#       7
#    16  16  16  16  16  16  16
#     4   9  17  29  47  72 100 129 162 202 251 309
#     4   9  18  32  50  75 107 142 179 215 252 301
#     4   9  18  33  54  79 106 137 173 213 259 312
#     4  11  24  38  54  78 111 149 184 222 267 316
#     4  10  20  32  48  72 100 130 168 218 274 329
#     4  11  20  32  51  73 100 136 175 214 259 309
#     4   9  17  31  52  76 103 136 172 211 263 331
#
# _framework density 18.244945000000001
#
# number of rings (size 3 to 8) (size 9 to 14) (size 15 to 20)
#    0.000    2.286    0.000    3.857    0.000    8.000 
#    0.000    1.429    0.000    1.714    0.000    5.000 
#    0.000    0.000    0.000    8.714    0.000    1.429 
#
# Total GULP energy -311788.231285 kJ/mol
# GULP energy per Si atom -5567.646987 kJ/mol
# Density = 1.820342 g / cm^3
# Si number density = 18.244945 Si / 1000 Ang^3
#
#
#
# Elastic Constant Matrix: (Units=GPa)
#
#
# Indices 1 2 3 4 5 6 
#
# 1 73.3115 17.3461 28.4410 0.0000 0.0002 0.0000
# 2 17.3461 84.8652 40.7624 0.0000 0.0003 0.0000
# 3 28.4410 40.7624 67.5415 0.0001 0.0026 0.0000
# 4 0.0000 0.0000 0.0001 33.4195 0.0009 0.0000
# 5 0.0002 0.0003 0.0026 0.0009 981.6493 0.0002
# 6 0.0000 0.0000 0.0000 0.0000 0.0002 -5.0257
#
#
#
# Elastic Compliance Matrix: (Units=1/GPa)
#
#
# Indices 1 2 3 4 5 6 
#
# 1 0.016304 -0.000049 -0.006836 0.000000 0.000000 0.000000
# 2 -0.000049 0.016594 -0.009994 0.000000 0.000000 0.000000
# 3 -0.006836 -0.009994 0.023716 0.000000 0.000000 0.000000
# 4 0.000000 0.000000 0.000000 0.029923 0.000000 0.000000
# 5 0.000000 0.000000 0.000000 0.000000 0.001019 0.000000
# 6 0.000000 0.000000 0.000000 0.000000 0.000000 -0.198977
#
#
# Mechanical properties :
#
#
# Convention : Reuss Voigt Hill
#
# Bulk Modulus (GPa) = 43.75263 44.31301 44.03282
# Shear Modulus (GPa) = -71.38132 211.28652 69.95260
#
# Velocity S-wave (km/s) = -6.26169 10.77297 6.19871
# Velocity P-wave (km/s) = 5.31467 13.38219 8.68439
#
# Compressibility (1/GPa) = 0.02285577
#
# Stress axis : x y z
#
# Youngs Moduli (GPa) = 61.33471 60.26389 42.16617
#
# Poissons Ratio (x) = 0.00296 0.28824
# Poissons Ratio (y) = 0.00301 0.42140
# Poissons Ratio (z) = 0.41927 0.60227
#
# Static dielectric constant tensor:
#      x y z
#    x 1.627610 0.000000 0.000000 
#    y 0.000000 1.636500 0.000000 
#    z 0.000000 0.000000 1.714550 
# 
# From -- ./inp_files/52182.got.cif
#   From: 2010.05.17/outbox.cif.g08.bks.cpg/sg71_27_cif.got.tgz:52182.got - 2010.06.03 16:22:01.
