data_PCOD9520432
_publ_section_title
;
Structure prediction by ZEFSAII (Michael W. Deem and Ramdas Pophale) SiO2 
 PCOD9520432
Probable space group: I M M M
;
_chemical_formula_sum "Si O2"
_cell_formula_units_Z 88
_cell_length_a 24.724952
_cell_length_b 13.829919
_cell_length_c 12.951703
_cell_angle_alpha 90.000000
_cell_angle_beta 90.000000
_cell_angle_gamma 90.000000
_cell_volume 4428.758211
_symmetry_space_group_name_H-M "I M M M"
_symmetry_group_IT_number 71
_symmetry_cell_setting 'orthorhombic'
loop_
_space_group_symop_operation_xyz
x,y,z
-x,-y,z
x,-y,-z
-x,y,-z
-x,-y,-z
x,y,-z
-x,y,z
x,-y,z
1/2+x,1/2+y,1/2+z
1/2-x,1/2-y,1/2+z
1/2+x,1/2-y,1/2-z
1/2-x,1/2+y,1/2-z
1/2-x,1/2-y,1/2-z
1/2+x,1/2+y,1/2-z
1/2-x,1/2+y,1/2+z
1/2+x,1/2-y,1/2+z
loop_
_atom_site_type_symbol
_atom_site_label
_atom_site_fract_x
_atom_site_fract_y
_atom_site_fract_z
Si Si1 0.286955 0.167752 0.199189
Si Si2 0.786549 0.000000 0.883320
Si Si3 0.636850 0.500000 0.817499
Si Si4 0.139732 0.607256 0.886196
Si Si5 0.563980 0.714900 0.333152
Si Si6 0.618773 0.294094 0.886518
Si Si7 0.563208 0.500000 0.651723
O O1 0.250000 0.250000 0.250000
O O2 0.317096 0.117017 0.295120
O O3 0.333638 0.217188 0.131605
O O4 0.250578 0.093705 0.135571
O O5 0.829444 0.000000 0.789489
O O6 0.808716 0.000000 0.000000
O O7 0.645115 0.400910 0.876587
O O8 0.575246 0.500000 0.774751
O O9 0.114241 0.500000 0.878097
O O10 0.097569 0.695211 0.876841
O O11 0.165414 0.613966 0.000000
O O12 0.500000 0.725120 0.349374
O O13 0.578677 0.714824 0.210929
O O14 0.581698 0.609149 0.377859
O O15 0.594358 0.283055 0.000000
O O16 0.500000 0.500000 0.628421
#
# Coordination Sequence:
#
# PCOD9520432 Si02
#       7
#    16   8   8  16  16  16   8
#     4  11  22  41  57  83 119 151 199 241 291 351
#     4  12  24  39  59  83 115 157 197 238 295 359
#     4  10  19  36  54  86 118 145 199 244 286 346
#     4  10  22  40  63  87 117 155 199 249 299 352
#     4   9  19  36  59  86 119 153 194 244 293 356
#     4  10  20  35  57  83 115 153 191 240 296 346
#     4   8  16  35  57  78 115 155 181 231 297 343
#
# _framework density 19.870128999999999
#
# number of rings (size 3 to 8) (size 9 to 14) (size 15 to 20)
#    0.000    2.000    2.727    0.818    0.000    2.545 
#    0.000    1.364    0.000    8.455    0.000    2.545 
#    0.000    0.000    0.000    0.000    0.000    0.000 
#
# Total GULP energy -245279.092380 kJ/mol
# GULP energy per Si atom -5574.524827 kJ/mol
# Density = 1.982490 g / cm^3
# Si number density = 19.870129 Si / 1000 Ang^3
#
#
#
# Elastic Constant Matrix: (Units=GPa)
#
#
# Indices 1 2 3 4 5 6 
#
# 1 38.4456 15.2882 4.7997 0.0000 0.0000 0.0000
# 2 15.2882 132.2528 21.3046 0.0000 0.0000 0.0000
# 3 4.7997 21.3046 120.0751 0.0000 0.0000 0.0000
# 4 0.0000 0.0000 0.0000 -8.5511 0.0000 0.0000
# 5 0.0000 0.0000 0.0000 0.0000 1.0153 0.0000
# 6 0.0000 0.0000 0.0000 0.0000 0.0000 25.6863
#
#
#
# Elastic Compliance Matrix: (Units=1/GPa)
#
#
# Indices 1 2 3 4 5 6 
#
# 1 0.027299 -0.003068 -0.000547 0.000000 0.000000 0.000000
# 2 -0.003068 0.008128 -0.001320 0.000000 0.000000 0.000000
# 3 -0.000547 -0.001320 0.008584 0.000000 0.000000 0.000000
# 4 0.000000 0.000000 0.000000 -0.116944 0.000000 0.000000
# 5 0.000000 0.000000 0.000000 0.000000 0.984907 0.000000
# 6 0.000000 0.000000 0.000000 0.000000 0.000000 0.038931
#
#
# Mechanical properties :
#
#
# Convention : Reuss Voigt Hill
#
# Bulk Modulus (GPa) = 29.28838 41.50650 35.39744
# Shear Modulus (GPa) = 5.14321 20.25550 12.69936
#
# Velocity S-wave (km/s) = 1.61060 3.19626 2.53082
# Velocity P-wave (km/s) = 4.26973 5.87841 5.13743
#
# Compressibility (1/GPa) = 0.03414323
#
# Stress axis : x y z
#
# Youngs Moduli (GPa) = 36.63150 123.02456 116.49425
#
# Poissons Ratio (x) = 0.37739 0.06372
# Poissons Ratio (y) = 0.11237 0.15372
# Poissons Ratio (z) = 0.02004 0.16234
#
# Static dielectric constant tensor:
#      x y z
#    x 1.714450 0.000000 0.000000 
#    y 0.000000 1.719890 0.000000 
#    z 0.000000 0.000000 1.697390 
# 
# From -- ./inp_files/28663.got.cif
#   From: 2010.05.17/outbox.cif.g08.bks.cpg/sg71_15_cif.got.tgz:28663.got - 2010.06.03 16:22:01.
