data_PCOD9520118
_publ_section_title
;
Structure prediction by ZEFSAII (Michael W. Deem and Ramdas Pophale) SiO2 
 PCOD9520118
Probable space group: I M M M
;
_chemical_formula_sum "Si O2"
_cell_formula_units_Z 96
_cell_length_a 12.163648
_cell_length_b 14.298617
_cell_length_c 28.555124
_cell_angle_alpha 90.000000
_cell_angle_beta 90.000000
_cell_angle_gamma 90.000000
_cell_volume 4966.402657
_symmetry_space_group_name_H-M "I M M M"
_symmetry_group_IT_number 71
_symmetry_cell_setting 'orthorhombic'
loop_
_space_group_symop_operation_xyz
x,y,z
-x,-y,z
x,-y,-z
-x,y,-z
-x,-y,-z
x,y,-z
-x,y,z
x,-y,z
1/2+x,1/2+y,1/2+z
1/2-x,1/2-y,1/2+z
1/2+x,1/2-y,1/2-z
1/2-x,1/2+y,1/2-z
1/2-x,1/2-y,1/2-z
1/2+x,1/2+y,1/2-z
1/2-x,1/2+y,1/2+z
1/2+x,1/2-y,1/2+z
loop_
_atom_site_type_symbol
_atom_site_label
_atom_site_fract_x
_atom_site_fract_y
_atom_site_fract_z
Si Si1 0.784571 0.612729 0.614113
Si Si2 0.873282 0.613549 0.182657
Si Si3 0.000000 0.112936 0.554427
Si Si4 0.262497 0.611909 0.908604
Si Si5 0.500000 0.112991 0.946003
Si Si6 0.372320 0.113705 0.787376
Si Si7 0.870542 0.771672 0.051782
O O1 0.775419 0.500000 0.613048
O O2 0.803122 0.643305 0.667718
O O3 0.681576 0.661309 0.590342
O O4 0.891304 0.639198 0.582935
O O5 0.877181 0.500000 0.183901
O O6 0.786107 0.636693 0.142521
O O7 0.841763 0.645377 0.235050
O O8 0.000000 0.643933 0.172436
O O9 0.111581 0.139139 0.581242
O O10 0.000000 0.143875 0.500000
O O11 0.000000 0.000000 0.553039
O O12 0.252326 0.500000 0.914985
O O13 0.187006 0.671223 0.943273
O O14 0.500000 0.000000 0.947242
O O15 0.500000 0.145109 0.000000
O O16 0.500000 0.139178 0.795141
O O17 0.368698 0.000000 0.787118
O O18 0.000000 0.761852 0.057508
O O19 0.847181 0.810540 0.000000
#
# Coordination Sequence:
#
# PCOD9520118 Si02
#       7
#    16  16   8  16   8  16  16
#     4  10  19  34  55  78 110 147 184 228 276 327
#     4   8  14  26  51  84 112 142 179 218 267 323
#     4   9  18  33  55  81 108 143 181 214 265 332
#     4  10  20  37  60  83 111 142 175 222 276 329
#     4   9  16  27  49  81 108 135 177 226 275 322
#     4   8  13  26  51  83 113 141 178 224 272 325
#     4  11  25  40  54  77 107 142 189 234 272 325
#
# _framework density 19.329886999999999
#
# number of rings (size 3 to 8) (size 9 to 14) (size 15 to 20)
#    0.000    2.667    0.833    2.500    0.000    4.000 
#    0.000    4.167    1.833    0.000    0.000    0.000 
#    0.000    0.000    0.000    0.000    0.000    0.000 
#
# Total GULP energy -267732.344307 kJ/mol
# GULP energy per Si atom -5577.757173 kJ/mol
# Density = 1.928589 g / cm^3
# Si number density = 19.329887 Si / 1000 Ang^3
#
#
#
# Elastic Constant Matrix: (Units=GPa)
#
#
# Indices 1 2 3 4 5 6 
#
# 1 121.9167 18.7428 93.2005 0.0000 0.0000 0.0000
# 2 18.7428 58.4640 19.4077 0.0000 0.0000 0.0000
# 3 93.2005 19.4077 172.6696 0.0000 0.0000 0.0000
# 4 0.0000 0.0000 0.0000 12.1813 0.0000 0.0000
# 5 0.0000 0.0000 0.0000 0.0000 35.0861 0.0000
# 6 0.0000 0.0000 0.0000 0.0000 0.0000 9.6487
#
#
#
# Elastic Compliance Matrix: (Units=1/GPa)
#
#
# Indices 1 2 3 4 5 6 
#
# 1 0.014205 -0.002087 -0.007433 0.000000 0.000000 0.000000
# 2 -0.002087 0.018074 -0.000905 0.000000 0.000000 0.000000
# 3 -0.007433 -0.000905 0.009905 0.000000 0.000000 0.000000
# 4 0.000000 0.000000 0.000000 0.082093 0.000000 0.000000
# 5 0.000000 0.000000 0.000000 0.000000 0.028501 0.000000
# 6 0.000000 0.000000 0.000000 0.000000 0.000000 0.103641
#
#
# Mechanical properties :
#
#
# Convention : Reuss Voigt Hill
#
# Bulk Modulus (GPa) = 46.87149 68.41692 57.64421
# Shear Modulus (GPa) = 17.58205 26.16317 21.87261
#
# Velocity S-wave (km/s) = 3.01919 3.68300 3.36749
# Velocity P-wave (km/s) = 6.03779 7.31828 6.70865
#
# Compressibility (1/GPa) = 0.02133493
#
# Stress axis : x y z
#
# Youngs Moduli (GPa) = 70.39631 55.32822 100.95736
#
# Poissons Ratio (x) = 0.11545 0.75041
# Poissons Ratio (y) = 0.14689 0.09139
# Poissons Ratio (z) = 0.52325 0.05008
#
# Static dielectric constant tensor:
#      x y z
#    x 1.647060 0.000000 0.000000 
#    y 0.000000 1.681390 0.000000 
#    z 0.000000 0.000000 1.696560 
# 
# From -- ./inp_files/69261.got.cif
#   From: 2010.05.17/outbox.cif.g08.bks.cpg/sg71_35_cif.got.tgz:69261.got - 2010.06.03 16:22:01.
