data_PCOD9520726
_publ_section_title
;
Structure prediction by ZEFSAII (Michael W. Deem and Ramdas Pophale) SiO2 
 PCOD9520726
Probable space group: I M M M
;
_chemical_formula_sum "Si O2"
_cell_formula_units_Z 96
_cell_length_a 13.122404
_cell_length_b 31.155480
_cell_length_c 13.837444
_cell_angle_alpha 90.000000
_cell_angle_beta 90.000000
_cell_angle_gamma 90.000000
_cell_volume 5657.228586
_symmetry_space_group_name_H-M "I M M M"
_symmetry_group_IT_number 71
_symmetry_cell_setting 'orthorhombic'
loop_
_space_group_symop_operation_xyz
x,y,z
-x,-y,z
x,-y,-z
-x,y,-z
-x,-y,-z
x,y,-z
-x,y,z
x,-y,z
1/2+x,1/2+y,1/2+z
1/2-x,1/2-y,1/2+z
1/2+x,1/2-y,1/2-z
1/2-x,1/2+y,1/2-z
1/2-x,1/2-y,1/2-z
1/2+x,1/2+y,1/2-z
1/2-x,1/2+y,1/2+z
1/2+x,1/2-y,1/2+z
loop_
_atom_site_type_symbol
_atom_site_label
_atom_site_fract_x
_atom_site_fract_y
_atom_site_fract_z
Si Si1 0.200091 0.950106 0.383428
Si Si2 0.302788 0.244259 0.117997
Si Si3 0.885261 0.699021 0.883270
Si Si4 0.119283 0.395706 0.200241
Si Si5 0.500000 0.298296 0.117915
Si Si6 0.120801 0.652045 0.388965
Si Si7 0.000000 0.897146 0.617630
O O1 0.206278 0.947390 0.500000
O O2 0.302454 0.930075 0.340027
O O3 0.101913 0.922297 0.352498
O O4 0.187192 0.000000 0.357810
O O5 0.198830 0.266939 0.149727
O O6 0.399086 0.272918 0.148385
O O7 0.319344 0.194633 0.143128
O O8 0.303418 0.244670 0.000000
O O9 0.861894 0.650470 0.850772
O O10 0.000000 0.709082 0.849433
O O11 0.885142 0.699428 0.000000
O O12 0.136261 0.385971 0.313467
O O13 0.000000 0.406542 0.184404
O O14 0.500000 0.347723 0.149954
O O15 0.500000 0.298673 0.000000
O O16 0.145734 0.641699 0.500000
O O17 0.000000 0.663210 0.385650
O O18 0.000000 0.896875 0.500000
#
# Coordination Sequence:
#
# PCOD9520726 Si02
#       7
#    16  16  16  16   8  16   8
#     4  10  20  34  53  76 102 130 159 193 237 294
#     4   9  15  25  43  65  89 123 164 201 235 274
#     4   9  17  28  41  60  92 131 162 190 231 287
#     4  10  20  32  48  70  96 128 164 201 245 294
#     4   9  14  21  40  69  94 117 155 201 232 262
#     4   9  17  31  49  68  92 124 166 210 251 288
#     4   9  17  30  49  74 103 134 162 189 230 280
#
# _framework density 16.969439999999999
#
# number of rings (size 3 to 8) (size 9 to 14) (size 15 to 20)
#    0.000    2.667    0.833    1.750    0.000    5.667 
#    0.000    0.833    1.833    0.500    0.000    2.333 
#    0.000    1.333    0.000    0.000    0.000    0.000 
#
# Total GULP energy -267817.248927 kJ/mol
# GULP energy per Si atom -5579.526019 kJ/mol
# Density = 1.693082 g / cm^3
# Si number density = 16.969440 Si / 1000 Ang^3
#
#
#
# Elastic Constant Matrix: (Units=GPa)
#
#
# Indices 1 2 3 4 5 6 
#
# 1 68.4830 31.2351 11.2298 0.0000 0.0000 0.0000
# 2 31.2351 50.9671 9.8587 0.0000 0.0000 0.0000
# 3 11.2298 9.8587 34.9340 -0.0002 0.0000 0.0000
# 4 0.0000 0.0000 -0.0002 20.0812 0.0000 0.0000
# 5 0.0000 0.0000 0.0000 0.0000 14.6400 0.0000
# 6 0.0000 0.0000 0.0000 0.0000 0.0000 15.2944
#
#
#
# Elastic Compliance Matrix: (Units=1/GPa)
#
#
# Indices 1 2 3 4 5 6 
#
# 1 0.020608 -0.012003 -0.003237 0.000000 0.000000 0.000000
# 2 -0.012003 0.027745 -0.003971 0.000000 0.000000 0.000000
# 3 -0.003237 -0.003971 0.030787 0.000000 0.000000 0.000000
# 4 0.000000 0.000000 0.000000 0.049798 0.000000 0.000000
# 5 0.000000 0.000000 0.000000 0.000000 0.068306 0.000000
# 6 0.000000 0.000000 0.000000 0.000000 0.000000 0.065384
#
#
# Mechanical properties :
#
#
# Convention : Reuss Voigt Hill
#
# Bulk Modulus (GPa) = 24.56037 28.78125 26.67081
# Shear Modulus (GPa) = 15.89210 16.80716 16.34963
#
# Velocity S-wave (km/s) = 3.06357 3.15053 3.10736
# Velocity P-wave (km/s) = 5.19795 5.49836 5.35026
#
# Compressibility (1/GPa) = 0.04071600
#
# Stress axis : x y z
#
# Youngs Moduli (GPa) = 48.52570 36.04276 32.48159
#
# Poissons Ratio (x) = 0.43263 0.10514
# Poissons Ratio (y) = 0.58246 0.12899
# Poissons Ratio (z) = 0.15708 0.14314
#
# Static dielectric constant tensor:
#      x y z
#    x 1.574840 0.000000 0.000000 
#    y 0.000000 1.541530 0.000000 
#    z 0.000000 0.000000 1.614790 
# 
# From -- ./inp_files/33192.got.cif
#   From: 2010.05.17/outbox.cif.g08.bks.cpg/sg71_17_cif.got.tgz:33192.got - 2010.06.03 16:22:01.
