data_PCOD9520269
_publ_section_title
;
Structure prediction by ZEFSAII (Michael W. Deem and Ramdas Pophale) SiO2 
 PCOD9520269
Probable space group: I M M M
;
_chemical_formula_sum "Si O2"
_cell_formula_units_Z 120
_cell_length_a 14.482165
_cell_length_b 15.321576
_cell_length_c 30.568107
_cell_angle_alpha 90.000000
_cell_angle_beta 90.000000
_cell_angle_gamma 90.000000
_cell_volume 6782.744781
_symmetry_space_group_name_H-M "I M M M"
_symmetry_group_IT_number 71
_symmetry_cell_setting 'orthorhombic'
loop_
_space_group_symop_operation_xyz
x,y,z
-x,-y,z
x,-y,-z
-x,y,-z
-x,-y,-z
x,y,-z
-x,y,z
x,-y,z
1/2+x,1/2+y,1/2+z
1/2-x,1/2-y,1/2+z
1/2+x,1/2-y,1/2-z
1/2-x,1/2+y,1/2-z
1/2-x,1/2-y,1/2-z
1/2+x,1/2+y,1/2-z
1/2-x,1/2+y,1/2+z
1/2+x,1/2-y,1/2+z
loop_
_atom_site_type_symbol
_atom_site_label
_atom_site_fract_x
_atom_site_fract_y
_atom_site_fract_z
Si Si1 0.392985 0.896922 0.858949
Si Si2 0.139723 0.400857 0.743424
Si Si3 0.894043 0.896301 0.355013
Si Si4 0.755314 0.753370 0.384481
Si Si5 0.608341 0.307660 0.552739
Si Si6 0.611229 0.500000 0.450352
Si Si7 0.639581 0.400540 0.246387
Si Si8 0.901493 0.748526 0.188526
O O1 0.500000 0.882897 0.871917
O O2 0.385772 0.880073 0.806633
O O3 0.322408 0.830994 0.881981
O O4 0.370727 0.000000 0.865588
O O5 0.109227 0.500000 0.752390
O O6 0.250165 0.398407 0.748186
O O7 0.103193 0.332110 0.778063
O O8 0.821302 0.837091 0.380428
O O9 0.884954 0.875027 0.303232
O O10 0.000000 0.879415 0.368159
O O11 0.875673 0.000000 0.359259
O O12 0.685419 0.752215 0.425331
O O13 0.686018 0.752062 0.343064
O O14 0.615077 0.308350 0.500000
O O15 0.500000 0.289572 0.562534
O O16 0.632345 0.406153 0.569830
O O17 0.500000 0.500000 0.453972
O O18 0.649075 0.500000 0.500000
O O19 0.608571 0.500000 0.253170
O O20 0.601595 0.334402 0.281722
O O21 0.000000 0.745625 0.164542
#
# Coordination Sequence:
#
# PCOD9520269 Si02
#       8
#    16  16  16  16  16   8  16  16
#     4  10  21  35  51  74 107 147 185 218 261 317
#     4  10  19  35  53  68  97 144 188 223 260 308
#     4  10  21  37  57  78 103 142 189 232 273 315
#     4  12  22  34  55  81 108 137 175 226 274 318
#     4   9  19  37  60  85 113 143 174 209 258 326
#     4   7  12  28  54  80 105 137 173 199 230 296
#     4  10  19  35  53  70 100 144 187 226 267 311
#     4  12  23  32  47  75 108 140 176 222 271 316
#
# _framework density 17.691953000000002
#
# number of rings (size 3 to 8) (size 9 to 14) (size 15 to 20)
#    0.000    1.800    2.667    3.600    0.933    1.600 
#    0.000    0.000    0.000    3.200    0.000    2.800 
#    0.000    0.000    0.000    0.000    0.000    0.000 
#
# Total GULP energy -334771.469516 kJ/mol
# GULP energy per Si atom -5579.524492 kJ/mol
# Density = 1.765169 g / cm^3
# Si number density = 17.691953 Si / 1000 Ang^3
#
#
#
# Elastic Constant Matrix: (Units=GPa)
#
#
# Indices 1 2 3 4 5 6 
#
# 1 139.7806 50.0195 30.9161 0.0000 0.0000 0.0000
# 2 50.0195 59.6607 29.2251 0.0000 0.0000 0.0000
# 3 30.9161 29.2251 45.6597 0.0000 0.0000 0.0000
# 4 0.0000 0.0000 0.0000 12.7611 0.0000 0.0000
# 5 0.0000 0.0000 0.0000 0.0000 16.5499 0.0000
# 6 0.0000 0.0000 0.0000 0.0000 0.0000 70.0730
#
#
#
# Elastic Compliance Matrix: (Units=1/GPa)
#
#
# Indices 1 2 3 4 5 6 
#
# 1 0.010359 -0.007647 -0.002120 0.000000 0.000000 0.000000
# 2 -0.007647 0.030062 -0.014064 0.000000 0.000000 0.000000
# 3 -0.002120 -0.014064 0.032338 0.000000 0.000000 0.000000
# 4 0.000000 0.000000 0.000000 0.078363 0.000000 0.000000
# 5 0.000000 0.000000 0.000000 0.000000 0.060423 0.000000
# 6 0.000000 0.000000 0.000000 0.000000 0.000000 0.014271
#
#
# Mechanical properties :
#
#
# Convention : Reuss Voigt Hill
#
# Bulk Modulus (GPa) = 39.84315 51.71360 45.77837
# Shear Modulus (GPa) = 17.74037 28.87284 23.30660
#
# Velocity S-wave (km/s) = 3.17004 4.04415 3.63348
# Velocity P-wave (km/s) = 5.99735 7.14845 6.59805
#
# Compressibility (1/GPa) = 0.02509842
#
# Stress axis : x y z
#
# Youngs Moduli (GPa) = 96.53189 33.26489 30.92320
#
# Poissons Ratio (x) = 0.25437 0.06555
# Poissons Ratio (y) = 0.73816 0.43490
# Poissons Ratio (z) = 0.20463 0.46783
#
# Static dielectric constant tensor:
#      x y z
#    x 1.639100 0.000000 0.000000 
#    y 0.000000 1.634000 0.000000 
#    z 0.000000 0.000000 1.582410 
# 
# From -- ./inp_files/70139.got.cif
#   From: 2010.05.17/outbox.cif.g08.bks.cpg/sg71_36_cif.got.tgz:70139.got - 2010.06.03 16:22:01.
