data_PCOD9520024
_publ_section_title
;
Structure prediction by ZEFSAII (Michael W. Deem and Ramdas Pophale) SiO2 
 PCOD9520024
Probable space group: I M M M
;
_chemical_formula_sum "Si O2"
_cell_formula_units_Z 92
_cell_length_a 19.181393
_cell_length_b 27.450196
_cell_length_c 9.777658
_cell_angle_alpha 90.000000
_cell_angle_beta 90.000000
_cell_angle_gamma 90.000000
_cell_volume 5148.259574
_symmetry_space_group_name_H-M "I M M M"
_symmetry_group_IT_number 71
_symmetry_cell_setting 'orthorhombic'
loop_
_space_group_symop_operation_xyz
x,y,z
-x,-y,z
x,-y,-z
-x,y,-z
-x,-y,-z
x,y,-z
-x,y,z
x,-y,z
1/2+x,1/2+y,1/2+z
1/2-x,1/2-y,1/2+z
1/2+x,1/2-y,1/2-z
1/2-x,1/2+y,1/2-z
1/2-x,1/2-y,1/2-z
1/2+x,1/2+y,1/2-z
1/2-x,1/2+y,1/2+z
1/2+x,1/2-y,1/2+z
loop_
_atom_site_type_symbol
_atom_site_label
_atom_site_fract_x
_atom_site_fract_y
_atom_site_fract_z
Si Si1 0.157596 0.917340 0.222389
Si Si2 0.623724 0.500000 0.500000
Si Si3 0.685560 0.306834 0.345583
Si Si4 0.348224 0.218449 0.839746
Si Si5 0.193325 0.444234 0.161912
Si Si6 0.919213 0.361673 0.839698
Si Si7 0.916799 0.057593 0.500000
O O1 0.160238 0.862061 0.169613
O O2 0.237552 0.932502 0.253340
O O3 0.116029 0.919772 0.364262
O O4 0.126616 0.956894 0.118751
O O5 0.670575 0.289226 0.500000
O O6 0.653395 0.270758 0.233813
O O7 0.769485 0.303301 0.327333
O O8 0.398562 0.182660 0.757601
O O9 0.364839 0.221883 0.000000
O O10 0.172255 0.500000 0.186806
O O11 0.131672 0.406721 0.192001
O O12 0.210475 0.439618 0.000000
O O13 0.000000 0.374923 0.823333
O O14 0.907981 0.348659 0.000000
O O15 0.000000 0.062387 0.500000
O O16 0.898919 0.000000 0.500000
#
# Coordination Sequence:
#
# PCOD9520024 Si02
#       7
#    16   4  16  16  16  16   8
#     4  12  21  38  61  92 120 156 195 245 293 355
#     4  12  24  34  63  98 125 152 194 244 302 352
#     4  10  21  36  59  89 120 147 195 251 301 350
#     4  10  21  36  57  86 115 154 201 252 298 353
#     4  10  19  33  58  88 117 158 205 250 294 348
#     4  10  21  37  57  83 120 164 205 250 306 360
#     4  11  24  42  62  85 119 155 191 230 287 362
#
# _framework density 17.870117
#
# number of rings (size 3 to 8) (size 9 to 14) (size 15 to 20)
#    0.000    1.478    5.217    0.522    1.217    1.391 
#    0.000    3.478    0.000    1.043    0.000    1.826 
#    0.000    0.000    0.000    0.000    0.000    0.000 
#
# Total GULP energy -256289.638298 kJ/mol
# GULP energy per Si atom -5571.513876 kJ/mol
# Density = 1.782944 g / cm^3
# Si number density = 17.870117 Si / 1000 Ang^3
#
#
#
# Elastic Constant Matrix: (Units=GPa)
#
#
# Indices 1 2 3 4 5 6 
#
# 1 31.7347 3.2790 23.1673 0.0000 0.0000 0.0000
# 2 3.2790 92.0124 30.1130 0.0000 0.0000 0.0000
# 3 23.1673 30.1130 99.0718 0.0000 0.0000 0.0000
# 4 0.0000 0.0000 0.0000 35.6925 0.0000 0.0000
# 5 0.0000 0.0000 0.0000 0.0000 14.5794 0.0000
# 6 0.0000 0.0000 0.0000 0.0000 0.0000 10.6192
#
#
#
# Elastic Compliance Matrix: (Units=1/GPa)
#
#
# Indices 1 2 3 4 5 6 
#
# 1 0.038246 0.001737 -0.009472 0.000000 0.000000 0.000000
# 2 0.001737 0.012147 -0.004098 0.000000 0.000000 0.000000
# 3 -0.009472 -0.004098 0.013554 0.000000 0.000000 0.000000
# 4 0.000000 0.000000 0.000000 0.028017 0.000000 0.000000
# 5 0.000000 0.000000 0.000000 0.000000 0.068590 0.000000
# 6 0.000000 0.000000 0.000000 0.000000 0.000000 0.094169
#
#
# Mechanical properties :
#
#
# Convention : Reuss Voigt Hill
#
# Bulk Modulus (GPa) = 24.82514 37.32639 31.07577
# Shear Modulus (GPa) = 17.13398 23.26218 20.19808
#
# Velocity S-wave (km/s) = 3.09982 3.61187 3.36560
# Velocity P-wave (km/s) = 5.17049 6.19089 5.70356
#
# Compressibility (1/GPa) = 0.04028174
#
# Stress axis : x y z
#
# Youngs Moduli (GPa) = 26.14634 82.32154 73.77758
#
# Poissons Ratio (x) = -0.14297 0.69879
# Poissons Ratio (y) = -0.04541 0.30237
# Poissons Ratio (z) = 0.24765 0.33738
#
# Static dielectric constant tensor:
#      x y z
#    x 1.596870 0.000000 0.000000 
#    y 0.000000 1.590630 0.000000 
#    z 0.000000 0.000000 1.606380 
# 
# From -- ./inp_files/11003.got.cif
#   From: 2010.05.17/outbox.cif.g08.bks.cpg/sg71_6_cif.got.tgz:11003.got - 2010.06.03 16:22:01.
