data_PCOD9520847
_publ_section_title
;
Structure prediction by ZEFSAII (Michael W. Deem and Ramdas Pophale) SiO2 
 PCOD9520847
Probable space group: I M M M
;
_chemical_formula_sum "Si O2"
_cell_formula_units_Z 116
_cell_length_a 26.131016
_cell_length_b 7.577689
_cell_length_c 24.167053
_cell_angle_alpha 90.000000
_cell_angle_beta 90.000000
_cell_angle_gamma 90.000000
_cell_volume 4785.383718
_symmetry_space_group_name_H-M "I M M M"
_symmetry_group_IT_number 71
_symmetry_cell_setting 'orthorhombic'
loop_
_space_group_symop_operation_xyz
x,y,z
-x,-y,z
x,-y,-z
-x,y,-z
-x,-y,-z
x,y,-z
-x,y,z
x,-y,z
1/2+x,1/2+y,1/2+z
1/2-x,1/2-y,1/2+z
1/2+x,1/2-y,1/2-z
1/2-x,1/2+y,1/2-z
1/2-x,1/2-y,1/2-z
1/2+x,1/2+y,1/2-z
1/2-x,1/2+y,1/2+z
1/2+x,1/2-y,1/2+z
loop_
_atom_site_type_symbol
_atom_site_label
_atom_site_fract_x
_atom_site_fract_y
_atom_site_fract_z
Si Si1 0.697612 0.291220 0.060412
Si Si2 0.580587 0.797485 0.940734
Si Si3 0.712696 0.288584 0.639820
Si Si4 0.881004 0.785992 0.063233
Si Si5 0.653841 0.701629 0.260453
Si Si6 0.000000 0.000000 0.276457
Si Si7 0.074093 0.295023 0.681302
Si Si8 0.057144 0.706987 0.835224
O O1 0.688268 0.500000 0.060271
O O2 0.642197 0.203455 0.062161
O O3 0.733513 0.249439 0.111690
O O4 0.721310 0.242926 0.000000
O O5 0.565148 0.726813 0.881189
O O6 0.563095 0.000000 0.941769
O O7 0.565928 0.715537 0.000000
O O8 0.707353 0.500000 0.643738
O O9 0.669866 0.224714 0.595897
O O10 0.699232 0.220702 0.701407
O O11 0.928651 0.725105 0.100279
O O12 0.880795 0.000000 0.063298
O O13 0.881815 0.726259 0.000000
O O14 0.665365 0.500000 0.246130
O O15 0.631962 0.790008 0.205122
O O16 0.605893 0.710417 0.304035
O O17 0.956463 0.156188 0.282554
O O18 0.058155 0.500000 0.684559
O O19 0.056407 0.500000 0.819770
O O20 0.000000 0.782897 0.825760
#
# Coordination Sequence:
#
# PCOD9520847 Si02
#       8
#    16  16  16  16  16   4  16  16
#     4  10  20  32  54  89 123 159 208 260 310 374
#     4   9  20  41  67  93 126 165 203 249 304 370
#     4   9  18  33  53  78 112 154 200 249 306 369
#     4   9  18  32  48  67  95 136 184 238 301 361
#     4  10  21  38  58  82 116 156 198 255 315 363
#     4  12  26  44  69 100 132 168 205 266 312 364
#     4  11  24  43  68  98 128 165 212 254 311 379
#     4  10  21  33  47  70  98 135 184 237 296 365
#
# _framework density 24.240480999999999
#
# number of rings (size 3 to 8) (size 9 to 14) (size 15 to 20)
#    0.000    2.207    0.690    2.690    1.931    5.793 
#    0.000    2.759    0.000    1.655    0.000    0.000 
#    0.000    0.000    0.000    0.000    0.000    0.000 
#
# Total GULP energy -323388.682702 kJ/mol
# GULP energy per Si atom -5575.666943 kJ/mol
# Density = 2.418531 g / cm^3
# Si number density = 24.240481 Si / 1000 Ang^3
#
#
#
# Elastic Constant Matrix: (Units=GPa)
#
#
# Indices 1 2 3 4 5 6 
#
# 1 65.5318 -1.0199 18.6029 0.0000 0.0000 0.0000
# 2 -1.0199 87.0807 -0.0852 0.0000 0.0000 0.0000
# 3 18.6029 -0.0852 127.9416 0.0000 0.0000 0.0000
# 4 0.0000 0.0000 0.0000 11.8380 0.0000 0.0000
# 5 0.0000 0.0000 0.0000 0.0000 723.1567 0.0000
# 6 0.0000 0.0000 0.0000 0.0000 0.0000 -68.8655
#
#
#
# Elastic Compliance Matrix: (Units=1/GPa)
#
#
# Indices 1 2 3 4 5 6 
#
# 1 0.015920 0.000184 -0.002315 0.000000 0.000000 0.000000
# 2 0.000184 0.011486 -0.000019 0.000000 0.000000 0.000000
# 3 -0.002315 -0.000019 0.008153 0.000000 0.000000 0.000000
# 4 0.000000 0.000000 0.000000 0.084474 0.000000 0.000000
# 5 0.000000 0.000000 0.000000 0.000000 0.001383 0.000000
# 6 0.000000 0.000000 0.000000 0.000000 0.000000 -0.014521
#
#
# Mechanical properties :
#
#
# Convention : Reuss Voigt Hill
#
# Bulk Modulus (GPa) = 31.99089 35.06108 33.52599
# Shear Modulus (GPa) = 41.11424 150.76294 95.93859
#
# Velocity S-wave (km/s) = 4.12284 7.89492 6.29792
# Velocity P-wave (km/s) = 5.99080 9.87935 8.16980
#
# Compressibility (1/GPa) = 0.03125890
#
# Stress axis : x y z
#
# Youngs Moduli (GPa) = 62.81530 87.06452 122.66018
#
# Poissons Ratio (x) = -0.01604 0.28391
# Poissons Ratio (y) = -0.01157 0.00235
# Poissons Ratio (z) = 0.14539 0.00167
#
# Static dielectric constant tensor:
#      x y z
#    x 1.982570 0.000000 0.000000 
#    y 0.000000 2.013410 0.000000 
#    z 0.000000 0.000000 2.020990 
# 
# From -- ./inp_files/13721.got.cif
#   From: 2010.05.17/outbox.cif.g08.bks.cpg/sg71_7_cif.got.tgz:13721.got - 2010.06.03 16:22:01.
