data_PCOD9520111
_publ_section_title
;
Structure prediction by ZEFSAII (Michael W. Deem and Ramdas Pophale) SiO2 
 PCOD9520111
Probable space group: I M M M
;
_chemical_formula_sum "Si O2"
_cell_formula_units_Z 96
_cell_length_a 8.403052
_cell_length_b 26.282526
_cell_length_c 24.227856
_cell_angle_alpha 90.000000
_cell_angle_beta 90.000000
_cell_angle_gamma 90.000000
_cell_volume 5350.805164
_symmetry_space_group_name_H-M "I M M M"
_symmetry_group_IT_number 71
_symmetry_cell_setting 'orthorhombic'
loop_
_space_group_symop_operation_xyz
x,y,z
-x,-y,z
x,-y,-z
-x,y,-z
-x,-y,-z
x,y,-z
-x,y,z
x,-y,z
1/2+x,1/2+y,1/2+z
1/2-x,1/2-y,1/2+z
1/2+x,1/2-y,1/2-z
1/2-x,1/2+y,1/2-z
1/2-x,1/2-y,1/2-z
1/2+x,1/2+y,1/2-z
1/2-x,1/2+y,1/2+z
1/2+x,1/2-y,1/2+z
loop_
_atom_site_type_symbol
_atom_site_label
_atom_site_fract_x
_atom_site_fract_y
_atom_site_fract_z
Si Si1 0.690472 0.440922 0.500000
Si Si2 0.192159 0.694017 0.813108
Si Si3 0.692566 0.903092 0.618749
Si Si4 0.692035 0.193526 0.813822
Si Si5 0.194226 0.559279 0.000000
Si Si6 0.190898 0.000000 0.687107
Si Si7 0.809170 0.596778 0.383235
Si Si8 0.808858 0.000000 0.185342
O O1 0.747698 0.500000 0.500000
O O2 0.500000 0.442280 0.500000
O O3 0.747876 0.413179 0.555221
O O4 0.247899 0.649450 0.853673
O O5 0.250215 0.750134 0.828884
O O6 0.243998 0.683719 0.749694
O O7 0.000000 0.694145 0.813350
O O8 0.500000 0.902408 0.618225
O O9 0.746829 0.913463 0.556176
O O10 0.746021 0.950270 0.656065
O O11 0.500000 0.193400 0.813973
O O12 0.747253 0.149142 0.854754
O O13 0.243677 0.500000 0.000000
O O14 0.000000 0.559195 0.000000
O O15 0.242448 0.000000 0.750909
O O16 0.000000 0.000000 0.685502
O O17 0.753517 0.549752 0.345761
O O18 0.000000 0.597452 0.384408
O O19 0.000000 0.000000 0.182940
#
# Coordination Sequence:
#
# PCOD9520111 Si02
#       8
#     8  16  16  16   8   8  16   8
#     4  11  23  39  58  81 113 149 184 227 277 326
#     4   9  18  33  55  80 106 142 182 221 269 322
#     4  10  19  34  55  77 105 139 182 225 265 321
#     4   9  19  35  54  79 109 140 177 222 271 321
#     4   9  16  30  53  78 101 137 178 217 265 308
#     4  11  23  34  49  78 112 142 175 219 276 329
#     4  11  22  37  59  83 108 143 187 226 267 326
#     4  11  23  36  51  78 113 142 172 221 278 327
#
# _framework density 17.941224999999999
#
# number of rings (size 3 to 8) (size 9 to 14) (size 15 to 20)
#    0.000    2.000    1.667    2.250    0.000    5.000 
#    0.000    5.000    0.000    1.000    0.000    0.000 
#    0.000    0.000    0.000    0.000    0.000    0.000 
#
# Total GULP energy -267993.304240 kJ/mol
# GULP energy per Si atom -5583.193838 kJ/mol
# Density = 1.790039 g / cm^3
# Si number density = 17.941225 Si / 1000 Ang^3
#
#
#
# Elastic Constant Matrix: (Units=GPa)
#
#
# Indices 1 2 3 4 5 6 
#
# 1 16.4842 21.2595 26.2470 0.0000 0.0000 0.0000
# 2 21.2595 186.9055 125.9409 0.0000 0.0000 0.0000
# 3 26.2470 125.9409 187.1872 0.0000 0.0000 0.0000
# 4 0.0000 0.0000 0.0000 11.4695 0.0000 0.0000
# 5 0.0000 0.0000 0.0000 0.0000 22.6262 0.0000
# 6 0.0000 0.0000 0.0000 0.0000 0.0000 28.5088
#
#
#
# Elastic Compliance Matrix: (Units=1/GPa)
#
#
# Indices 1 2 3 4 5 6 
#
# 1 0.078883 -0.002780 -0.009191 0.000000 0.000000 0.000000
# 2 -0.002780 0.009885 -0.006261 0.000000 0.000000 0.000000
# 3 -0.009191 -0.006261 0.010844 0.000000 0.000000 0.000000
# 4 0.000000 0.000000 0.000000 0.087188 0.000000 0.000000
# 5 0.000000 0.000000 0.000000 0.000000 0.044197 0.000000
# 6 0.000000 0.000000 0.000000 0.000000 0.000000 0.035077
#
#
# Mechanical properties :
#
#
# Convention : Reuss Voigt Hill
#
# Bulk Modulus (GPa) = 15.83559 81.94130 48.88844
# Shear Modulus (GPa) = 15.45184 26.99619 21.22402
#
# Velocity S-wave (km/s) = 2.93789 3.88326 3.44317
# Velocity P-wave (km/s) = 4.51151 8.11649 6.56625
#
# Compressibility (1/GPa) = 0.06314891
#
# Stress axis : x y z
#
# Youngs Moduli (GPa) = 12.67700 101.15918 92.22091
#
# Poissons Ratio (x) = 0.28119 0.84757
# Poissons Ratio (y) = 0.03524 0.57741
# Poissons Ratio (z) = 0.11651 0.63338
#
# Static dielectric constant tensor:
#      x y z
#    x 1.616780 0.000000 0.000000 
#    y 0.000000 1.587100 0.000000 
#    z 0.000000 0.000000 1.605920 
# 
# From -- ./inp_files/57820.got.cif
#   From: 2010.05.17/outbox.cif.g08.bks.cpg/sg71_29_cif.got.tgz:57820.got - 2010.06.03 16:22:01.
