data_PCOD9520231
_publ_section_title
;
Structure prediction by ZEFSAII (Michael W. Deem and Ramdas Pophale) SiO2 
 PCOD9520231
Probable space group: I M M M
;
_chemical_formula_sum "Si O2"
_cell_formula_units_Z 88
_cell_length_a 18.438627
_cell_length_b 29.808907
_cell_length_c 8.403512
_cell_angle_alpha 90.000000
_cell_angle_beta 90.000000
_cell_angle_gamma 90.000000
_cell_volume 4618.866986
_symmetry_space_group_name_H-M "I M M M"
_symmetry_group_IT_number 71
_symmetry_cell_setting 'orthorhombic'
loop_
_space_group_symop_operation_xyz
x,y,z
-x,-y,z
x,-y,-z
-x,y,-z
-x,-y,-z
x,y,-z
-x,y,z
x,-y,z
1/2+x,1/2+y,1/2+z
1/2-x,1/2-y,1/2+z
1/2+x,1/2-y,1/2-z
1/2-x,1/2+y,1/2-z
1/2-x,1/2-y,1/2-z
1/2+x,1/2+y,1/2-z
1/2-x,1/2+y,1/2+z
1/2+x,1/2-y,1/2+z
loop_
_atom_site_type_symbol
_atom_site_label
_atom_site_fract_x
_atom_site_fract_y
_atom_site_fract_z
Si Si1 0.154996 0.296680 0.811388
Si Si2 0.356348 0.396580 0.192882
Si Si3 0.710526 0.051630 0.691803
Si Si4 0.818762 0.198255 0.809888
Si Si5 0.000000 0.949034 0.305835
Si Si6 0.917894 0.614555 0.689275
O O1 0.142387 0.244870 0.763150
O O2 0.239913 0.304077 0.772281
O O3 0.108585 0.335082 0.728414
O O4 0.143890 0.301044 0.000000
O O5 0.282758 0.421857 0.245554
O O6 0.359117 0.346657 0.260877
O O7 0.426974 0.424028 0.242804
O O8 0.354707 0.394216 0.000000
O O9 0.713530 0.050412 0.500000
O O10 0.640005 0.079767 0.740277
O O11 0.709245 0.000000 0.748655
O O12 0.807615 0.199904 0.000000
O O13 0.000000 0.949648 0.500000
O O14 0.000000 0.000000 0.250257
O O15 0.917750 0.608908 0.500000
O O16 0.000000 0.607637 0.748987
#
# Coordination Sequence:
#
# PCOD9520231 Si02
#       6
#    16  16  16  16   8  16
#     4  10  20  36  58  84 112 148 191 232 280 341
#     4  10  19  34  58  86 116 151 192 235 281 337
#     4  10  21  37  59  86 113 147 194 240 284 342
#     4  10  20  34  57  86 116 148 184 232 286 341
#     4   9  18  34  57  85 117 153 193 237 282 331
#     4  11  24  40  58  83 116 153 194 242 291 340
#
# _framework density 19.052292000000001
#
# number of rings (size 3 to 8) (size 9 to 14) (size 15 to 20)
#    0.000    1.909    1.818    2.182    0.000    6.545 
#    1.636    2.273    0.000    2.182    0.000    0.000 
#    0.000    0.000    0.000    0.000    0.000    0.000 
#
# Total GULP energy -245683.917504 kJ/mol
# GULP energy per Si atom -5583.725398 kJ/mol
# Density = 1.900893 g / cm^3
# Si number density = 19.052292 Si / 1000 Ang^3
#
#
#
# Elastic Constant Matrix: (Units=GPa)
#
#
# Indices 1 2 3 4 5 6 
#
# 1 106.9300 65.2503 5.3494 -0.0001 0.0000 0.0000
# 2 65.2503 165.0314 9.8675 -0.0001 0.0000 0.0000
# 3 5.3494 9.8675 8.4608 -0.0008 -0.0006 -0.0002
# 4 -0.0001 -0.0001 -0.0008 28.5136 -0.0002 0.0000
# 5 0.0000 0.0000 -0.0006 -0.0002 17.4715 0.0000
# 6 0.0000 0.0000 -0.0002 0.0000 0.0000 22.5506
#
#
#
# Elastic Compliance Matrix: (Units=1/GPa)
#
#
# Indices 1 2 3 4 5 6 
#
# 1 0.012366 -0.004753 -0.002275 0.000000 0.000000 0.000000
# 2 -0.004753 0.008341 -0.006722 0.000000 0.000000 0.000000
# 3 -0.002275 -0.006722 0.127470 0.000004 0.000004 0.000001
# 4 0.000000 0.000000 0.000004 0.035071 0.000000 0.000000
# 5 0.000000 0.000000 0.000004 0.000000 0.057236 0.000000
# 6 0.000000 0.000000 0.000001 0.000000 0.000000 0.044345
#
#
# Mechanical properties :
#
#
# Convention : Reuss Voigt Hill
#
# Bulk Modulus (GPa) = 8.28666 49.03961 28.66314
# Shear Modulus (GPa) = 14.18219 27.03748 20.60984
#
# Velocity S-wave (km/s) = 2.73130 3.77121 3.29257
# Velocity P-wave (km/s) = 3.78226 6.69014 5.43431
#
# Compressibility (1/GPa) = 0.12067586
#
# Stress axis : x y z
#
# Youngs Moduli (GPa) = 80.86489 119.89288 7.84500
#
# Poissons Ratio (x) = 0.56990 0.01785
# Poissons Ratio (y) = 0.38438 0.05274
# Poissons Ratio (z) = 0.18396 0.80594
#
# Static dielectric constant tensor:
#      x y z
#    x 1.639560 0.000000 0.000000 
#    y 0.000000 1.661640 0.000000 
#    z 0.000000 0.000000 1.660820 
# 
# From -- ./inp_files/8804.got.cif
#   From: 2010.05.17/outbox.cif.g08.bks.cpg/sg71_5_cif.got.tgz:8804.got - 2010.06.03 16:22:01.
