data_PCOD9520535
_publ_section_title
;
Structure prediction by ZEFSAII (Michael W. Deem and Ramdas Pophale) SiO2 
 PCOD9520535
Probable space group: I M M M
;
_chemical_formula_sum "Si O2"
_cell_formula_units_Z 100
_cell_length_a 21.692851
_cell_length_b 7.335261
_cell_length_c 29.833156
_cell_angle_alpha 90.000000
_cell_angle_beta 90.000000
_cell_angle_gamma 90.000000
_cell_volume 4747.133046
_symmetry_space_group_name_H-M "I M M M"
_symmetry_group_IT_number 71
_symmetry_cell_setting 'orthorhombic'
loop_
_space_group_symop_operation_xyz
x,y,z
-x,-y,z
x,-y,-z
-x,y,-z
-x,-y,-z
x,y,-z
-x,y,z
x,-y,z
1/2+x,1/2+y,1/2+z
1/2-x,1/2-y,1/2+z
1/2+x,1/2-y,1/2-z
1/2-x,1/2+y,1/2-z
1/2-x,1/2-y,1/2-z
1/2+x,1/2+y,1/2-z
1/2-x,1/2+y,1/2+z
1/2+x,1/2-y,1/2+z
loop_
_atom_site_type_symbol
_atom_site_label
_atom_site_fract_x
_atom_site_fract_y
_atom_site_fract_z
Si Si1 0.815830 0.297943 0.779760
Si Si2 0.728429 0.722153 0.141240
Si Si3 0.612151 0.708238 0.192356
Si Si4 0.205633 0.722284 0.049063
Si Si5 0.000000 0.500000 0.296174
Si Si6 0.933045 0.285166 0.063812
Si Si7 0.565774 0.717352 0.669492
O O1 0.792953 0.500000 0.767654
O O2 0.769559 0.214113 0.816336
O O3 0.840474 0.206143 0.734750
O O4 0.878174 0.311723 0.807746
O O5 0.732477 0.500000 0.141728
O O6 0.657335 0.767819 0.151477
O O7 0.757738 0.781605 0.093715
O O8 0.591475 0.500000 0.185167
O O9 0.555371 0.841178 0.201587
O O10 0.204238 0.500000 0.051040
O O11 0.133995 0.784796 0.049857
O O12 0.231631 0.772377 0.000000
O O13 0.933413 0.500000 0.052931
O O14 0.933510 0.261368 0.117242
O O15 0.000000 0.211407 0.048711
O O16 0.500000 0.776246 0.688805
O O17 0.571180 0.500000 0.675129
#
# Coordination Sequence:
#
# PCOD9520535 Si02
#       7
#    16  16  16  16   4  16  16
#     4  11  20  35  57  85 120 162 207 249 294 352
#     4   9  19  36  57  85 123 162 201 254 307 361
#     4  11  24  42  63  90 126 161 204 253 304 367
#     4   9  16  29  52  83 115 150 198 254 309 363
#     4  12  26  48  64  98 121 162 209 252 310 368
#     4   9  16  28  45  70 103 148 198 250 298 341
#     4  10  20  30  43  69 106 153 203 248 294 341
#
# _framework density 21.065346999999999
#
# number of rings (size 3 to 8) (size 9 to 14) (size 15 to 20)
#    0.000    2.080    2.400    1.680    1.120    1.280 
#    2.880    1.600    0.000    0.480    0.000    3.360 
#    0.000    3.840    0.000    0.000    0.000    0.000 
#
# Total GULP energy -278501.402789 kJ/mol
# GULP energy per Si atom -5570.028056 kJ/mol
# Density = 2.101740 g / cm^3
# Si number density = 21.065347 Si / 1000 Ang^3
#
#
#
# Elastic Constant Matrix: (Units=GPa)
#
#
# Indices 1 2 3 4 5 6 
#
# 1 130.6999 33.0368 75.0111 0.0000 0.0000 0.0000
# 2 33.0368 107.1555 15.1367 0.0000 0.0000 0.0000
# 3 75.0111 15.1367 111.6230 0.0000 0.0000 0.0000
# 4 0.0000 0.0000 0.0000 13.3240 0.0000 0.0000
# 5 0.0000 0.0000 0.0000 0.0000 -1.2632 0.0000
# 6 0.0000 0.0000 0.0000 0.0000 0.0000 22.4084
#
#
#
# Elastic Compliance Matrix: (Units=1/GPa)
#
#
# Indices 1 2 3 4 5 6 
#
# 1 0.013277 -0.002888 -0.008531 0.000000 0.000000 0.000000
# 2 -0.002888 0.010143 0.000566 0.000000 0.000000 0.000000
# 3 -0.008531 0.000566 0.014615 0.000000 0.000000 0.000000
# 4 0.000000 0.000000 0.000000 0.075053 0.000000 0.000000
# 5 0.000000 0.000000 0.000000 0.000000 -0.791650 0.000000
# 6 0.000000 0.000000 0.000000 0.000000 0.000000 0.044626
#
#
# Mechanical properties :
#
#
# Convention : Reuss Voigt Hill
#
# Bulk Modulus (GPa) = 61.24531 66.20528 63.72530
# Shear Modulus (GPa) = -8.24012 21.98009 6.86999
#
# Velocity S-wave (km/s) = -1.97995 3.23371 1.80786
# Velocity P-wave (km/s) = 4.88980 6.74087 5.88852
#
# Compressibility (1/GPa) = 0.01632778
#
# Stress axis : x y z
#
# Youngs Moduli (GPa) = 75.31800 98.59166 68.42480
#
# Poissons Ratio (x) = 0.28477 0.58370
# Poissons Ratio (y) = 0.21755 -0.03870
# Poissons Ratio (z) = 0.64250 -0.05576
#
# Static dielectric constant tensor:
#      x y z
#    x 1.743880 0.000000 0.000000 
#    y 0.000000 1.815950 0.000000 
#    z 0.000000 0.000000 1.768970 
# 
# From -- ./inp_files/70746.got.cif
#   From: 2010.05.17/outbox.cif.g08.bks.cpg/sg71_36_cif.got.tgz:70746.got - 2010.06.03 16:22:01.
