data_PCOD9520052
_publ_section_title
;
Structure prediction by ZEFSAII (Michael W. Deem and Ramdas Pophale) SiO2 
 PCOD9520052
Probable space group: I M M M
;
_chemical_formula_sum "Si O2"
_cell_formula_units_Z 104
_cell_length_a 32.872057
_cell_length_b 8.997531
_cell_length_c 20.481528
_cell_angle_alpha 90.000000
_cell_angle_beta 90.000000
_cell_angle_gamma 90.000000
_cell_volume 6057.767299
_symmetry_space_group_name_H-M "I M M M"
_symmetry_group_IT_number 71
_symmetry_cell_setting 'orthorhombic'
loop_
_space_group_symop_operation_xyz
x,y,z
-x,-y,z
x,-y,-z
-x,y,-z
-x,-y,-z
x,y,-z
-x,y,z
x,-y,z
1/2+x,1/2+y,1/2+z
1/2-x,1/2-y,1/2+z
1/2+x,1/2-y,1/2-z
1/2-x,1/2+y,1/2-z
1/2-x,1/2-y,1/2-z
1/2+x,1/2+y,1/2-z
1/2-x,1/2+y,1/2+z
1/2+x,1/2-y,1/2+z
loop_
_atom_site_type_symbol
_atom_site_label
_atom_site_fract_x
_atom_site_fract_y
_atom_site_fract_z
Si Si1 0.844394 0.677452 0.172257
Si Si2 0.071930 0.172417 0.144999
Si Si3 0.720483 0.321674 0.575573
Si Si4 0.131377 0.677971 0.679733
Si Si5 0.546252 0.325963 0.795794
Si Si6 0.000000 0.333993 0.923300
Si Si7 0.808997 0.823766 0.423997
O O1 0.840311 0.500000 0.167628
O O2 0.887055 0.733491 0.143400
O O3 0.809190 0.754645 0.130273
O O4 0.848674 0.716955 0.249393
O O5 0.052640 0.180504 0.217573
O O6 0.039211 0.243177 0.097993
O O7 0.080406 0.000000 0.130818
O O8 0.708194 0.285154 0.500000
O O9 0.721522 0.500000 0.581034
O O10 0.765417 0.254706 0.585399
O O11 0.131784 0.500000 0.674257
O O12 0.084805 0.735785 0.677185
O O13 0.158070 0.752916 0.623788
O O14 0.500000 0.275908 0.811378
O O15 0.549725 0.500000 0.814678
O O16 0.000000 0.500000 0.893223
O O17 0.000000 0.348234 0.000000
O O18 0.820471 0.802788 0.500000
O O19 0.805078 0.000000 0.411965
#
# Coordination Sequence:
#
# PCOD9520052 Si02
#       7
#    16  16  16  16  16   8  16
#     4  10  21  36  54  80 111 143 180 224 272 323
#     4  10  19  34  53  73  98 133 176 222 270 317
#     4  10  21  37  57  80 106 142 186 228 273 324
#     4  10  21  35  54  84 114 143 180 221 269 321
#     4   9  17  32  54  79 106 137 173 215 264 317
#     4  11  23  35  47  67  97 135 178 223 272 323
#     4  10  21  38  60  83 108 142 180 219 268 326
#
# _framework density 17.168042
#
# number of rings (size 3 to 8) (size 9 to 14) (size 15 to 20)
#    0.000    2.077    0.769    2.538    0.000    6.462 
#    0.000    0.000    0.000    0.462    0.000    3.231 
#    0.000    0.000    0.000    0.000    0.000    0.000 
#
# Total GULP energy -290094.360720 kJ/mol
# GULP energy per Si atom -5578.737706 kJ/mol
# Density = 1.712897 g / cm^3
# Si number density = 17.168042 Si / 1000 Ang^3
#
#
#
# Elastic Constant Matrix: (Units=GPa)
#
#
# Indices 1 2 3 4 5 6 
#
# 1 135.3088 64.5649 83.1945 0.0000 0.0000 0.0000
# 2 64.5649 79.5478 59.5007 0.0000 0.0000 0.0000
# 3 83.1945 59.5007 81.1504 0.0000 0.0000 0.0000
# 4 0.0000 0.0000 0.0000 27.3458 0.0000 0.0000
# 5 0.0000 0.0000 0.0000 0.0000 60.1920 0.0000
# 6 0.0000 0.0000 0.0000 0.0000 0.0000 27.1739
#
#
#
# Elastic Compliance Matrix: (Units=1/GPa)
#
#
# Indices 1 2 3 4 5 6 
#
# 1 0.020135 -0.001999 -0.019177 0.000000 0.000000 0.000000
# 2 -0.001999 0.028037 -0.018509 0.000000 0.000000 0.000000
# 3 -0.019177 -0.018509 0.045553 0.000000 0.000000 0.000000
# 4 0.000000 0.000000 0.000000 0.036569 0.000000 0.000000
# 5 0.000000 0.000000 0.000000 0.000000 0.016613 0.000000
# 6 0.000000 0.000000 0.000000 0.000000 0.000000 0.036800
#
#
# Mechanical properties :
#
#
# Convention : Reuss Voigt Hill
#
# Bulk Modulus (GPa) = 69.64778 78.94746 74.29762
# Shear Modulus (GPa) = 18.66637 28.85882 23.76259
#
# Velocity S-wave (km/s) = 3.30096 4.10440 3.72441
# Velocity P-wave (km/s) = 7.42865 8.27928 7.86547
#
# Compressibility (1/GPa) = 0.01435796
#
# Stress axis : x y z
#
# Youngs Moduli (GPa) = 49.66485 35.66680 21.95227
#
# Poissons Ratio (x) = 0.07128 0.42097
# Poissons Ratio (y) = 0.09926 0.40630
# Poissons Ratio (z) = 0.95241 0.66014
#
# Static dielectric constant tensor:
#      x y z
#    x 1.581500 0.000000 0.000000 
#    y 0.000000 1.578020 0.000000 
#    z 0.000000 0.000000 1.572160 
# 
# From -- ./inp_files/15056.got.cif
#   From: 2010.05.17/outbox.cif.g08.bks.cpg/sg71_8_cif.got.tgz:15056.got - 2010.06.03 16:22:01.
