data_PCOD9520851
_publ_section_title
;
Structure prediction by ZEFSAII (Michael W. Deem and Ramdas Pophale) SiO2 
 PCOD9520851
Probable space group: I M M M
;
_chemical_formula_sum "Si O2"
_cell_formula_units_Z 88
_cell_length_a 32.781157
_cell_length_b 20.377270
_cell_length_c 9.102341
_cell_angle_alpha 90.000000
_cell_angle_beta 90.000000
_cell_angle_gamma 90.000000
_cell_volume 6080.277198
_symmetry_space_group_name_H-M "I M M M"
_symmetry_group_IT_number 71
_symmetry_cell_setting 'orthorhombic'
loop_
_space_group_symop_operation_xyz
x,y,z
-x,-y,z
x,-y,-z
-x,y,-z
-x,-y,-z
x,y,-z
-x,y,z
x,-y,z
1/2+x,1/2+y,1/2+z
1/2-x,1/2-y,1/2+z
1/2+x,1/2-y,1/2-z
1/2-x,1/2+y,1/2-z
1/2-x,1/2-y,1/2-z
1/2+x,1/2+y,1/2-z
1/2-x,1/2+y,1/2+z
1/2+x,1/2-y,1/2+z
loop_
_atom_site_type_symbol
_atom_site_label
_atom_site_fract_x
_atom_site_fract_y
_atom_site_fract_z
Si Si1 0.669494 0.425012 0.823543
Si Si2 0.451606 0.636497 0.825831
Si Si3 0.378738 0.306004 0.674969
Si Si4 0.252249 0.648370 0.168119
Si Si5 0.187169 0.275098 0.331618
Si Si6 0.450645 0.500000 0.667547
O O1 0.658703 0.500000 0.790446
O O2 0.643827 0.371697 0.734775
O O3 0.717275 0.410514 0.791703
O O4 0.664046 0.413962 0.000000
O O5 0.500000 0.646657 0.803100
O O6 0.423396 0.689717 0.746609
O O7 0.440366 0.565863 0.755566
O O8 0.443762 0.635061 0.000000
O O9 0.380486 0.306366 0.500000
O O10 0.351281 0.246174 0.734262
O O11 0.214028 0.665345 0.269238
O O12 0.282276 0.712037 0.171835
O O13 0.238618 0.640318 0.000000
O O14 0.175114 0.285204 0.500000
O O15 0.500000 0.500000 0.658446
O O16 0.434737 0.500000 0.500000
#
# Coordination Sequence:
#
# PCOD9520851 Si02
#       6
#    16  16  16  16  16   8
#     4   9  18  31  44  58  79 106 133 161 196 239
#     4  10  20  33  46  57  72  98 129 160 199 245
#     4  11  21  30  42  59  79 100 128 168 205 236
#     4   8  14  25  41  59  77  98 125 157 192 229
#     4   9  16  27  42  58  76  98 126 157 193 235
#     4   9  17  29  43  57  71  89 119 157 193 231
#
# _framework density 14.473025
#
# number of rings (size 3 to 8) (size 9 to 14) (size 15 to 20)
#    0.000    2.636    0.000    4.091    1.273    6.909 
#    0.000    0.000    0.000    0.000    0.000    0.000 
#    0.000    0.000    0.000    0.000    0.000    0.909 
#
# Total GULP energy -245213.572534 kJ/mol
# GULP energy per Si atom -5573.035739 kJ/mol
# Density = 1.444008 g / cm^3
# Si number density = 14.473025 Si / 1000 Ang^3
#
#
#
# Elastic Constant Matrix: (Units=GPa)
#
#
# Indices 1 2 3 4 5 6 
#
# 1 71.1954 15.6953 49.3161 0.0000 0.0000 0.0000
# 2 15.6953 10.3476 11.5912 0.0000 0.0000 0.0000
# 3 49.3161 11.5912 98.7811 0.0000 0.0000 0.0000
# 4 0.0000 0.0000 0.0000 13.8407 0.0000 0.0000
# 5 0.0000 0.0000 0.0000 0.0000 24.1162 0.0000
# 6 0.0000 0.0000 0.0000 0.0000 0.0000 22.1592
#
#
#
# Elastic Compliance Matrix: (Units=1/GPa)
#
#
# Indices 1 2 3 4 5 6 
#
# 1 0.028050 -0.030924 -0.010375 0.000000 0.000000 0.000000
# 2 -0.030924 0.145359 -0.001618 0.000000 0.000000 0.000000
# 3 -0.010375 -0.001618 0.015493 0.000000 0.000000 0.000000
# 4 0.000000 0.000000 0.000000 0.072251 0.000000 0.000000
# 5 0.000000 0.000000 0.000000 0.000000 0.041466 0.000000
# 6 0.000000 0.000000 0.000000 0.000000 0.000000 0.045128
#
#
# Mechanical properties :
#
#
# Convention : Reuss Voigt Hill
#
# Bulk Modulus (GPa) = 9.70237 37.05880 23.38058
# Shear Modulus (GPa) = 10.68520 18.93798 14.81159
#
# Velocity S-wave (km/s) = 2.72009 3.62125 3.20252
# Velocity P-wave (km/s) = 4.07228 6.56853 5.46484
#
# Compressibility (1/GPa) = 0.10306763
#
# Stress axis : x y z
#
# Youngs Moduli (GPa) = 35.65075 6.87951 64.54535
#
# Poissons Ratio (x) = 0.21274 0.66966
# Poissons Ratio (y) = 1.10247 0.10443
# Poissons Ratio (z) = 0.36988 0.01113
#
# Static dielectric constant tensor:
#      x y z
#    x 1.511800 0.000000 0.000000 
#    y 0.000000 1.461520 0.000000 
#    z 0.000000 0.000000 1.486000 
# 
# From -- ./inp_files/13550.got.cif
#   From: 2010.05.17/outbox.cif.g08.bks.cpg/sg71_7_cif.got.tgz:13550.got - 2010.06.03 16:22:01.
