data_PCOD9520057
_publ_section_title
;
Structure prediction by ZEFSAII (Michael W. Deem and Ramdas Pophale) SiO2 
 PCOD9520057
Probable space group: I M M M
;
_chemical_formula_sum "Si O2"
_cell_formula_units_Z 88
_cell_length_a 19.969829
_cell_length_b 7.722730
_cell_length_c 28.066104
_cell_angle_alpha 90.000000
_cell_angle_beta 90.000000
_cell_angle_gamma 90.000000
_cell_volume 4328.399395
_symmetry_space_group_name_H-M "I M M M"
_symmetry_group_IT_number 71
_symmetry_cell_setting 'orthorhombic'
loop_
_space_group_symop_operation_xyz
x,y,z
-x,-y,z
x,-y,-z
-x,y,-z
-x,-y,-z
x,y,-z
-x,y,z
x,-y,z
1/2+x,1/2+y,1/2+z
1/2-x,1/2-y,1/2+z
1/2+x,1/2-y,1/2-z
1/2-x,1/2+y,1/2-z
1/2-x,1/2-y,1/2-z
1/2+x,1/2+y,1/2-z
1/2-x,1/2+y,1/2+z
1/2+x,1/2-y,1/2+z
loop_
_atom_site_type_symbol
_atom_site_label
_atom_site_fract_x
_atom_site_fract_y
_atom_site_fract_z
Si Si1 0.424562 0.793018 0.193744
Si Si2 0.803431 0.287322 0.119525
Si Si3 0.846571 0.794232 0.597437
Si Si4 0.321516 0.791902 0.727534
Si Si5 0.576478 0.794250 0.000000
Si Si6 0.926170 0.711206 0.055064
O O1 0.500000 0.723024 0.193762
O O2 0.389217 0.765072 0.142988
O O3 0.378698 0.724094 0.236858
O O4 0.428622 0.000000 0.200180
O O5 0.802632 0.500000 0.119210
O O6 0.729825 0.228315 0.102680
O O7 0.819790 0.229898 0.173215
O O8 0.863247 0.229530 0.085402
O O9 0.882941 0.753032 0.547750
O O10 0.842580 0.000000 0.600586
O O11 0.250000 0.750000 0.750000
O O12 0.328499 0.000000 0.725569
O O13 0.500000 0.722593 0.000000
O O14 0.570835 0.000000 0.000000
O O15 0.925587 0.500000 0.055963
O O16 0.000000 0.765210 0.072582
O O17 0.919854 0.763020 0.000000
#
# Coordination Sequence:
#
# PCOD9520057 Si02
#       6
#    16  16  16  16   8  16
#     4  10  21  36  55  79 109 147 186 224 270 325
#     4   9  18  30  48  76 109 140 175 221 267 312
#     4  11  22  36  57  84 111 142 180 225 276 326
#     4  10  19  34  53  75 106 142 179 220 266 315
#     4  11  25  43  59  77 108 145 182 226 273 325
#     4   8  14  25  43  69 103 139 168 202 257 316
#
# _framework density 20.330840999999999
#
# number of rings (size 3 to 8) (size 9 to 14) (size 15 to 20)
#    0.000    2.273    1.818    1.909    1.273    4.000 
#    0.000    3.636    0.000    0.000    0.000    0.000 
#    0.000    3.636    0.000    0.000    0.000    0.000 
#
# Total GULP energy -245620.387786 kJ/mol
# GULP energy per Si atom -5582.281541 kJ/mol
# Density = 2.028457 g / cm^3
# Si number density = 20.330841 Si / 1000 Ang^3
#
#
#
# Elastic Constant Matrix: (Units=GPa)
#
#
# Indices 1 2 3 4 5 6 
#
# 1 248.1958 5.8996 136.9367 0.0000 0.0000 0.0000
# 2 5.8996 32.7554 -1.0763 0.0000 0.0000 0.0000
# 3 136.9367 -1.0763 160.0874 0.0000 0.0000 0.0000
# 4 0.0000 0.0000 0.0000 3.3182 0.0000 0.0000
# 5 0.0000 0.0000 0.0000 0.0000 42.3101 0.0000
# 6 0.0000 0.0000 0.0000 0.0000 0.0000 9.0974
#
#
#
# Elastic Compliance Matrix: (Units=1/GPa)
#
#
# Indices 1 2 3 4 5 6 
#
# 1 0.007714 -0.001606 -0.006609 0.000000 0.000000 0.000000
# 2 -0.001606 0.030871 0.001582 0.000000 0.000000 0.000000
# 3 -0.006609 0.001582 0.011910 0.000000 0.000000 0.000000
# 4 0.000000 0.000000 0.000000 0.301366 0.000000 0.000000
# 5 0.000000 0.000000 0.000000 0.000000 0.023635 0.000000
# 6 0.000000 0.000000 0.000000 0.000000 0.000000 0.109922
#
#
# Mechanical properties :
#
#
# Convention : Reuss Voigt Hill
#
# Bulk Modulus (GPa) = 26.86201 80.50650 53.68426
# Shear Modulus (GPa) = 9.78295 30.89705 20.34000
#
# Velocity S-wave (km/s) = 2.19598 3.90258 3.16642
# Velocity P-wave (km/s) = 4.43519 7.74539 6.31118
#
# Compressibility (1/GPa) = 0.03722729
#
# Stress axis : x y z
#
# Youngs Moduli (GPa) = 129.64149 32.39323 83.96033
#
# Poissons Ratio (x) = 0.05204 0.55489
# Poissons Ratio (y) = 0.20826 -0.13280
# Poissons Ratio (z) = 0.85679 -0.05124
#
# Static dielectric constant tensor:
#      x y z
#    x 1.719200 0.000000 0.000000 
#    y 0.000000 1.769220 0.000000 
#    z 0.000000 0.000000 1.559900 
# 
# From -- ./inp_files/12564.got.cif
#   From: 2010.05.17/outbox.cif.g08.bks.cpg/sg71_7_cif.got.tgz:12564.got - 2010.06.03 16:22:01.
