data_PCOD9520413
_publ_section_title
;
Structure prediction by ZEFSAII (Michael W. Deem and Ramdas Pophale) SiO2 
 PCOD9520413
Probable space group: I M M M
;
_chemical_formula_sum "Si O2"
_cell_formula_units_Z 64
_cell_length_a 8.527409
_cell_length_b 21.179851
_cell_length_c 18.340461
_cell_angle_alpha 90.000000
_cell_angle_beta 90.000000
_cell_angle_gamma 90.000000
_cell_volume 3312.456943
_symmetry_space_group_name_H-M "I M M M"
_symmetry_group_IT_number 71
_symmetry_cell_setting 'orthorhombic'
loop_
_space_group_symop_operation_xyz
x,y,z
-x,-y,z
x,-y,-z
-x,y,-z
-x,-y,-z
x,y,-z
-x,y,z
x,-y,z
1/2+x,1/2+y,1/2+z
1/2-x,1/2-y,1/2+z
1/2+x,1/2-y,1/2-z
1/2-x,1/2+y,1/2-z
1/2-x,1/2-y,1/2-z
1/2+x,1/2+y,1/2-z
1/2-x,1/2+y,1/2+z
1/2+x,1/2-y,1/2+z
loop_
_atom_site_type_symbol
_atom_site_label
_atom_site_fract_x
_atom_site_fract_y
_atom_site_fract_z
Si Si1 0.688287 0.374718 0.915214
Si Si2 0.688424 0.248408 0.332309
Si Si3 0.313174 0.000000 0.336687
Si Si4 0.808787 0.124802 0.916092
Si Si5 0.190226 0.000000 0.171978
O O1 0.500000 0.374820 0.911931
O O2 0.751316 0.313521 0.873445
O O3 0.750123 0.437858 0.877076
O O4 0.736554 0.373083 0.000000
O O5 0.500000 0.247717 0.331288
O O6 0.750000 0.250000 0.250000
O O7 0.740599 0.311369 0.375342
O O8 0.255018 0.000000 0.253429
O O9 0.500000 0.000000 0.338418
O O10 0.760288 0.062657 0.871759
O O11 0.000000 0.124599 0.917033
O O12 0.756157 0.123327 0.000000
O O13 0.000000 0.000000 0.175664
#
# Coordination Sequence:
#
# PCOD9520413 Si02
#       5
#    16  16   8  16   8
#     4  11  24  42  63  87 117 154 198 249 303 358
#     4  11  22  37  59  87 122 161 202 248 297 354
#     4  12  25  40  61  88 119 154 193 240 296 364
#     4   9  18  33  56  86 116 150 195 243 288 338
#     4  10  19  35  61  88 117 153 193 240 292 348
#
# _framework density 19.321006000000001
#
# number of rings (size 3 to 8) (size 9 to 14) (size 15 to 20)
#    0.000    1.500    0.000    5.625    0.000    8.000 
#    0.000    1.250    0.000    4.500    0.000    0.000 
#    0.000    0.000    0.000    0.000    0.000    0.000 
#
# Total GULP energy -178972.167822 kJ/mol
# GULP energy per Si atom -5592.880244 kJ/mol
# Density = 1.927703 g / cm^3
# Si number density = 19.321006 Si / 1000 Ang^3
#
#
#
# Elastic Constant Matrix: (Units=GPa)
#
#
# Indices 1 2 3 4 5 6 
#
# 1 48.5992 47.9708 52.5263 0.0000 0.0000 0.0000
# 2 47.9708 243.7491 149.8777 0.0000 0.0000 0.0000
# 3 52.5263 149.8777 244.8327 0.0000 0.0000 0.0000
# 4 0.0000 0.0000 0.0000 46.6546 0.0000 0.0000
# 5 0.0000 0.0000 0.0000 0.0000 24.6076 0.0000
# 6 0.0000 0.0000 0.0000 0.0000 0.0000 17.8322
#
#
#
# Elastic Compliance Matrix: (Units=1/GPa)
#
#
# Indices 1 2 3 4 5 6 
#
# 1 0.028023 -0.002916 -0.004227 0.000000 0.000000 0.000000
# 2 -0.002916 0.006882 -0.003588 0.000000 0.000000 0.000000
# 3 -0.004227 -0.003588 0.007187 0.000000 0.000000 0.000000
# 4 0.000000 0.000000 0.000000 0.021434 0.000000 0.000000
# 5 0.000000 0.000000 0.000000 0.000000 0.040638 0.000000
# 6 0.000000 0.000000 0.000000 0.000000 0.000000 0.056078
#
#
# Mechanical properties :
#
#
# Convention : Reuss Voigt Hill
#
# Bulk Modulus (GPa) = 48.46829 115.32562 81.89696
# Shear Modulus (GPa) = 26.51366 36.93929 31.72647
#
# Velocity S-wave (km/s) = 3.70844 4.37724 4.05664
# Velocity P-wave (km/s) = 6.59370 9.23936 8.02629
#
# Compressibility (1/GPa) = 0.02063205
#
# Stress axis : x y z
#
# Youngs Moduli (GPa) = 35.68451 145.29842 139.13091
#
# Poissons Ratio (x) = 0.42368 0.58812
# Poissons Ratio (y) = 0.10405 0.49914
# Poissons Ratio (z) = 0.15084 0.52127
#
# Static dielectric constant tensor:
#      x y z
#    x 1.666090 0.000000 0.000000 
#    y 0.000000 1.636020 0.000000 
#    z 0.000000 0.000000 1.638040 
# 
# From -- ./inp_files/41862.got.cif
#   From: 2010.05.17/outbox.cif.g08.bks.cpg/sg71_21_cif.got.tgz:41862.got - 2010.06.03 16:22:01.
