data_PCOD9520001
_publ_section_title
;
Structure prediction by ZEFSAII (Michael W. Deem and Ramdas Pophale) SiO2 
 PCOD9520001
Probable space group: I M M M
;
_chemical_formula_sum "Si O2"
_cell_formula_units_Z 112
_cell_length_a 26.809345
_cell_length_b 14.582204
_cell_length_c 13.666427
_cell_angle_alpha 90.000000
_cell_angle_beta 90.000000
_cell_angle_gamma 90.000000
_cell_volume 5342.743923
_symmetry_space_group_name_H-M "I M M M"
_symmetry_group_IT_number 71
_symmetry_cell_setting 'orthorhombic'
loop_
_space_group_symop_operation_xyz
x,y,z
-x,-y,z
x,-y,-z
-x,y,-z
-x,-y,-z
x,y,-z
-x,y,z
x,-y,z
1/2+x,1/2+y,1/2+z
1/2-x,1/2-y,1/2+z
1/2+x,1/2-y,1/2-z
1/2-x,1/2+y,1/2-z
1/2-x,1/2-y,1/2-z
1/2+x,1/2+y,1/2-z
1/2-x,1/2+y,1/2+z
1/2+x,1/2-y,1/2+z
loop_
_atom_site_type_symbol
_atom_site_label
_atom_site_fract_x
_atom_site_fract_y
_atom_site_fract_z
Si Si1 0.896492 0.603915 0.799025
Si Si2 0.555270 0.889756 0.892284
Si Si3 0.056485 0.202162 0.815826
Si Si4 0.157584 0.864918 0.108037
Si Si5 0.084674 0.110491 0.613058
Si Si6 0.695118 0.398734 0.179560
Si Si7 0.296755 0.837937 0.610578
O O1 0.916476 0.500000 0.816793
O O2 0.901120 0.625166 0.683686
O O3 0.927851 0.691385 0.837666
O O4 0.839867 0.606865 0.833908
O O5 0.500000 0.860174 0.856274
O O6 0.552283 0.000000 0.900552
O O7 0.563427 0.851414 0.000000
O O8 0.098564 0.142804 0.870461
O O9 0.060858 0.170986 0.700553
O O10 0.000000 0.186885 0.846862
O O11 0.181797 0.904527 0.205884
O O12 0.180218 0.763030 0.106711
O O13 0.166667 0.903258 0.000000
O O14 0.069353 0.128260 0.500000
O O15 0.144071 0.128296 0.625355
O O16 0.076965 0.000000 0.630933
O O17 0.709191 0.500000 0.143902
O O18 0.742961 0.337356 0.160156
O O19 0.291366 0.872581 0.500000
#
# Coordination Sequence:
#
# PCOD9520001 Si02
#       7
#    16  16  16  16  16  16  16
#     4  10  20  33  50  76 112 149 184 225 267 308
#     4   8  14  26  44  63  86 125 175 219 259 301
#     4  10  21  35  53  79 107 140 185 227 267 323
#     4   9  20  38  56  76 106 142 178 221 271 318
#     4   9  19  36  57  82 111 139 171 221 282 335
#     4  10  19  33  57  85 109 136 174 219 269 328
#     4  10  20  35  56  80 109 147 186 220 259 314
#
# _framework density 20.963010000000001
#
# number of rings (size 3 to 8) (size 9 to 14) (size 15 to 20)
#    0.000    2.571    0.000    2.143    0.000    4.286 
#    0.000    1.429    0.000    3.000    0.000   12.000 
#    0.000    0.000    0.000    0.000    0.000    0.000 
#
# Total GULP energy -311989.511587 kJ/mol
# GULP energy per Si atom -5571.241278 kJ/mol
# Density = 2.091530 g / cm^3
# Si number density = 20.963010 Si / 1000 Ang^3
#
#
#
# Elastic Constant Matrix: (Units=GPa)
#
#
# Indices 1 2 3 4 5 6 
#
# 1 113.4254 23.1898 29.7918 0.0000 0.0000 0.0000
# 2 23.1898 79.2133 8.7183 0.0000 0.0000 0.0000
# 3 29.7918 8.7183 83.9423 0.0000 0.0000 0.0000
# 4 0.0000 0.0000 0.0000 17.9661 0.0000 0.0000
# 5 0.0000 0.0000 0.0000 0.0000 15.7350 0.0000
# 6 0.0000 0.0000 0.0000 0.0000 0.0000 12.8560
#
#
#
# Elastic Compliance Matrix: (Units=1/GPa)
#
#
# Indices 1 2 3 4 5 6 
#
# 1 0.010236 -0.002627 -0.003360 0.000000 0.000000 0.000000
# 2 -0.002627 0.013444 -0.000464 0.000000 0.000000 0.000000
# 3 -0.003360 -0.000464 0.013154 0.000000 0.000000 0.000000
# 4 0.000000 0.000000 0.000000 0.055660 0.000000 0.000000
# 5 0.000000 0.000000 0.000000 0.000000 0.063553 0.000000
# 6 0.000000 0.000000 0.000000 0.000000 0.000000 0.077785
#
#
# Mechanical properties :
#
#
# Convention : Reuss Voigt Hill
#
# Bulk Modulus (GPa) = 41.78489 44.44233 43.11361
# Shear Modulus (GPa) = 19.63009 23.63680 21.63345
#
# Velocity S-wave (km/s) = 3.06341 3.36154 3.21593
# Velocity P-wave (km/s) = 5.69988 6.02603 5.86522
#
# Compressibility (1/GPa) = 0.02393210
#
# Stress axis : x y z
#
# Youngs Moduli (GPa) = 97.69505 74.38146 76.02460
#
# Poissons Ratio (x) = 0.19538 0.25544
# Poissons Ratio (y) = 0.25662 0.03528
# Poissons Ratio (z) = 0.32826 0.03452
#
# Static dielectric constant tensor:
#      x y z
#    x 1.719490 0.000000 0.000000 
#    y 0.000000 1.816450 0.000000 
#    z 0.000000 0.000000 1.781850 
# 
# From -- ./inp_files/39278.got.cif
#   From: 2010.05.17/outbox.cif.g08.bks.cpg/sg71_20_cif.got.tgz:39278.got - 2010.06.03 16:22:01.
