data_PCOD9520313
_publ_section_title
;
Structure prediction by ZEFSAII (Michael W. Deem and Ramdas Pophale) SiO2 
 PCOD9520313
Probable space group: I M M M
;
_chemical_formula_sum "Si O2"
_cell_formula_units_Z 88
_cell_length_a 30.809560
_cell_length_b 14.940732
_cell_length_c 9.758434
_cell_angle_alpha 90.000000
_cell_angle_beta 90.000000
_cell_angle_gamma 90.000000
_cell_volume 4491.976762
_symmetry_space_group_name_H-M "I M M M"
_symmetry_group_IT_number 71
_symmetry_cell_setting 'orthorhombic'
loop_
_space_group_symop_operation_xyz
x,y,z
-x,-y,z
x,-y,-z
-x,y,-z
-x,-y,-z
x,y,-z
-x,y,z
x,-y,z
1/2+x,1/2+y,1/2+z
1/2-x,1/2-y,1/2+z
1/2+x,1/2-y,1/2-z
1/2-x,1/2+y,1/2-z
1/2-x,1/2-y,1/2-z
1/2+x,1/2+y,1/2-z
1/2-x,1/2+y,1/2+z
1/2+x,1/2-y,1/2+z
loop_
_atom_site_type_symbol
_atom_site_label
_atom_site_fract_x
_atom_site_fract_y
_atom_site_fract_z
Si Si1 0.431290 0.842902 0.351578
Si Si2 0.834442 0.394044 0.849754
Si Si3 0.293968 0.242513 0.163339
Si Si4 0.635154 0.398441 0.837796
Si Si5 0.451003 0.637106 0.338649
Si Si6 0.949094 0.500000 0.647293
O O1 0.446754 0.877345 0.500000
O O2 0.379421 0.840726 0.358813
O O3 0.450033 0.745077 0.330138
O O4 0.439851 0.911759 0.232498
O O5 0.843014 0.500000 0.836092
O O6 0.811844 0.351973 0.718988
O O7 0.812107 0.381936 0.000000
O O8 0.250000 0.250000 0.250000
O O9 0.328894 0.322245 0.196149
O O10 0.287179 0.243692 0.000000
O O11 0.652519 0.500000 0.818826
O O12 0.590383 0.391961 0.751310
O O13 0.625057 0.387156 0.000000
O O14 0.444867 0.613765 0.500000
O O15 0.500000 0.607343 0.298371
O O16 0.926524 0.500000 0.500000
O O17 0.000000 0.500000 0.629533
#
# Coordination Sequence:
#
# PCOD9520313 Si02
#       6
#    16  16  16  16  16   8
#     4  10  19  35  57  80 111 156 203 245 299 361
#     4  10  20  37  62  90 120 156 197 244 301 364
#     4  11  24  42  66  94 124 160 203 253 309 373
#     4  10  23  43  65  90 123 165 209 255 312 372
#     4  10  21  37  60  90 122 159 207 261 312 364
#     4  11  23  33  45  75 117 157 201 251 297 347
#
# _framework density 19.590485000000001
#
# number of rings (size 3 to 8) (size 9 to 14) (size 15 to 20)
#    0.000    1.727    2.727    1.364    0.000    5.818 
#    0.000    3.636    0.000    0.000    0.000    0.000 
#    0.000    0.000    0.000    0.000    0.000    0.000 
#
# Total GULP energy -245194.245256 kJ/mol
# GULP energy per Si atom -5572.596483 kJ/mol
# Density = 1.954590 g / cm^3
# Si number density = 19.590485 Si / 1000 Ang^3
#
#
#
# Elastic Constant Matrix: (Units=GPa)
#
#
# Indices 1 2 3 4 5 6 
#
# 1 104.6324 28.3760 53.3434 0.0000 0.0000 0.0000
# 2 28.3760 95.5075 47.1162 0.0000 0.0000 0.0000
# 3 53.3434 47.1162 112.8774 0.0000 0.0000 0.0000
# 4 0.0000 0.0000 0.0000 28.4210 0.0000 0.0000
# 5 0.0000 0.0000 0.0000 0.0000 33.9184 0.0000
# 6 0.0000 0.0000 0.0000 0.0000 0.0000 19.7275
#
#
#
# Elastic Compliance Matrix: (Units=1/GPa)
#
#
# Indices 1 2 3 4 5 6 
#
# 1 0.012669 -0.001021 -0.005561 0.000000 0.000000 0.000000
# 2 -0.001021 0.013268 -0.005056 0.000000 0.000000 0.000000
# 3 -0.005561 -0.005056 0.013598 0.000000 0.000000 0.000000
# 4 0.000000 0.000000 0.000000 0.035185 0.000000 0.000000
# 5 0.000000 0.000000 0.000000 0.000000 0.029483 0.000000
# 6 0.000000 0.000000 0.000000 0.000000 0.000000 0.050691
#
#
# Mechanical properties :
#
#
# Convention : Reuss Voigt Hill
#
# Bulk Modulus (GPa) = 61.50288 63.40983 62.45636
# Shear Modulus (GPa) = 27.23488 28.69215 27.96351
#
# Velocity S-wave (km/s) = 3.73260 3.83116 3.78220
# Velocity P-wave (km/s) = 7.07381 7.21168 7.14308
#
# Compressibility (1/GPa) = 0.01625940
#
# Stress axis : x y z
#
# Youngs Moduli (GPa) = 78.93123 75.37068 73.54253
#
# Poissons Ratio (x) = 0.07693 0.40898
# Poissons Ratio (y) = 0.08056 0.37181
# Poissons Ratio (z) = 0.43895 0.38106
#
# Static dielectric constant tensor:
#      x y z
#    x 1.737540 0.000000 0.000000 
#    y 0.000000 1.675550 0.000000 
#    z 0.000000 0.000000 1.850750 
# 
# From -- ./inp_files/16628.got.cif
#   From: 2010.05.17/outbox.cif.g08.bks.cpg/sg71_9_cif.got.tgz:16628.got - 2010.06.03 16:22:01.
