data_PCOD9520320
_publ_section_title
;
Structure prediction by ZEFSAII (Michael W. Deem and Ramdas Pophale) SiO2 
 PCOD9520320
Probable space group: I M M M
;
_chemical_formula_sum "Si O2"
_cell_formula_units_Z 96
_cell_length_a 14.346914
_cell_length_b 21.571605
_cell_length_c 17.052994
_cell_angle_alpha 90.000000
_cell_angle_beta 90.000000
_cell_angle_gamma 90.000000
_cell_volume 5277.662249
_symmetry_space_group_name_H-M "I M M M"
_symmetry_group_IT_number 71
_symmetry_cell_setting 'orthorhombic'
loop_
_space_group_symop_operation_xyz
x,y,z
-x,-y,z
x,-y,-z
-x,y,-z
-x,-y,-z
x,y,-z
-x,y,z
x,-y,z
1/2+x,1/2+y,1/2+z
1/2-x,1/2-y,1/2+z
1/2+x,1/2-y,1/2-z
1/2-x,1/2+y,1/2-z
1/2-x,1/2-y,1/2-z
1/2+x,1/2+y,1/2-z
1/2-x,1/2+y,1/2+z
1/2+x,1/2-y,1/2+z
loop_
_atom_site_type_symbol
_atom_site_label
_atom_site_fract_x
_atom_site_fract_y
_atom_site_fract_z
Si Si1 0.609736 0.733489 0.366551
Si Si2 0.296739 0.071901 0.000000
Si Si3 0.108633 0.572254 0.803307
Si Si4 0.611049 0.144857 0.857133
Si Si5 0.764299 0.648853 0.091216
Si Si6 0.111258 0.214666 0.315536
Si Si7 0.393214 0.368960 0.500000
O O1 0.500000 0.750986 0.367098
O O2 0.670183 0.790749 0.396387
O O3 0.634452 0.717468 0.276896
O O4 0.620566 0.675475 0.424478
O O5 0.336222 0.107897 0.924457
O O6 0.185390 0.079337 0.000000
O O7 0.324746 0.000000 0.000000
O O8 0.118650 0.500000 0.783334
O O9 0.129406 0.614214 0.727372
O O10 0.177541 0.592801 0.871638
O O11 0.000000 0.583016 0.824754
O O12 0.500000 0.139790 0.871362
O O13 0.634091 0.217672 0.852089
O O14 0.671281 0.663682 0.139934
O O15 0.744817 0.640440 0.000000
O O16 0.000000 0.205390 0.322604
O O17 0.500000 0.391031 0.500000
#
# Coordination Sequence:
#
# PCOD9520320 Si02
#       7
#    16   8  16  16  16  16   8
#     4  10  19  35  57  83 113 145 182 231 288 344
#     4  12  25  37  54  81 115 159 201 234 273 326
#     4  10  22  40  60  83 115 152 190 234 282 337
#     4  10  21  38  59  84 116 151 189 233 283 337
#     4  12  23  34  57  87 117 150 187 233 286 343
#     4  10  22  38  59  86 116 149 187 235 287 337
#     4  10  22  36  57  86 115 147 188 237 291 341
#
# _framework density 18.189872000000001
#
# number of rings (size 3 to 8) (size 9 to 14) (size 15 to 20)
#    0.000    1.500    2.500    2.750    3.500    3.167 
#    0.000    0.833    0.000    0.500    0.000    1.167 
#    0.000    0.000    0.000    0.000    0.000    0.000 
#
# Total GULP energy -268299.480491 kJ/mol
# GULP energy per Si atom -5589.572510 kJ/mol
# Density = 1.814847 g / cm^3
# Si number density = 18.189872 Si / 1000 Ang^3
#
#
#
# Elastic Constant Matrix: (Units=GPa)
#
#
# Indices 1 2 3 4 5 6 
#
# 1 47.0924 16.5659 25.2703 0.0000 0.0000 0.0000
# 2 16.5659 33.7255 12.9264 0.0000 0.0000 0.0000
# 3 25.2703 12.9264 80.1922 0.0000 0.0000 0.0000
# 4 0.0000 0.0000 0.0000 6.9798 0.0000 0.0000
# 5 0.0000 0.0000 0.0000 0.0000 26.8286 0.0000
# 6 0.0000 0.0000 0.0000 0.0000 0.0000 28.5036
#
#
#
# Elastic Compliance Matrix: (Units=1/GPa)
#
#
# Indices 1 2 3 4 5 6 
#
# 1 0.029242 -0.011545 -0.007354 0.000000 0.000000 0.000000
# 2 -0.011545 0.036162 -0.002191 0.000000 0.000000 0.000000
# 3 -0.007354 -0.002191 0.015141 0.000000 0.000000 0.000000
# 4 0.000000 0.000000 0.000000 0.143271 0.000000 0.000000
# 5 0.000000 0.000000 0.000000 0.000000 0.037274 0.000000
# 6 0.000000 0.000000 0.000000 0.000000 0.000000 0.035083
#
#
# Mechanical properties :
#
#
# Convention : Reuss Voigt Hill
#
# Bulk Modulus (GPa) = 26.06553 30.05949 28.06251
# Shear Modulus (GPa) = 14.23932 19.54557 16.89245
#
# Velocity S-wave (km/s) = 2.80092 3.28156 3.05072
# Velocity P-wave (km/s) = 4.98207 5.56053 5.27923
#
# Compressibility (1/GPa) = 0.03836484
#
# Stress axis : x y z
#
# Youngs Moduli (GPa) = 34.19704 27.65346 66.04771
#
# Poissons Ratio (x) = 0.31926 0.48571
# Poissons Ratio (y) = 0.39481 0.14470
# Poissons Ratio (z) = 0.25148 0.06059
#
# Static dielectric constant tensor:
#      x y z
#    x 1.640400 0.000000 0.000000 
#    y 0.000000 1.590180 0.000000 
#    z 0.000000 0.000000 1.614850 
# 
# From -- ./inp_files/34539.got.cif
#   From: 2010.05.17/outbox.cif.g08.bks.cpg/sg71_18_cif.got.tgz:34539.got - 2010.06.03 16:22:01.
