data_PCOD9520240
_publ_section_title
;
Structure prediction by ZEFSAII (Michael W. Deem and Ramdas Pophale) SiO2 
 PCOD9520240
Probable space group: I M M M
;
_chemical_formula_sum "Si O2"
_cell_formula_units_Z 72
_cell_length_a 7.665924
_cell_length_b 16.477775
_cell_length_c 27.423373
_cell_angle_alpha 90.000000
_cell_angle_beta 90.000000
_cell_angle_gamma 90.000000
_cell_volume 3464.048377
_symmetry_space_group_name_H-M "I M M M"
_symmetry_group_IT_number 71
_symmetry_cell_setting 'orthorhombic'
loop_
_space_group_symop_operation_xyz
x,y,z
-x,-y,z
x,-y,-z
-x,y,-z
-x,-y,-z
x,y,-z
-x,y,z
x,-y,z
1/2+x,1/2+y,1/2+z
1/2-x,1/2-y,1/2+z
1/2+x,1/2-y,1/2-z
1/2-x,1/2+y,1/2-z
1/2-x,1/2-y,1/2-z
1/2+x,1/2+y,1/2-z
1/2-x,1/2+y,1/2+z
1/2+x,1/2-y,1/2+z
loop_
_atom_site_type_symbol
_atom_site_label
_atom_site_fract_x
_atom_site_fract_y
_atom_site_fract_z
Si Si1 0.791109 0.837338 0.273039
Si Si2 0.712048 0.330496 0.556325
Si Si3 0.000000 0.404435 0.053638
Si Si4 0.201002 0.826557 0.615164
Si Si5 0.712441 0.500000 0.396521
Si Si6 0.786021 0.000000 0.216651
O O1 0.750000 0.750000 0.250000
O O2 0.734803 0.834276 0.329308
O O3 0.727537 0.917151 0.243875
O O4 0.000000 0.844207 0.273419
O O5 0.764278 0.316767 0.500000
O O6 0.500000 0.325742 0.558269
O O7 0.784337 0.264057 0.593666
O O8 0.765676 0.419195 0.574983
O O9 0.828327 0.377651 0.081632
O O10 0.000000 0.500000 0.049810
O O11 0.000000 0.365956 0.000000
O O12 0.000000 0.852943 0.612847
O O13 0.500000 0.500000 0.396016
O O14 0.768397 0.500000 0.339997
O O15 0.000000 0.000000 0.217109
#
# Coordination Sequence:
#
# PCOD9520240 Si02
#       6
#    16  16   8  16   8   8
#     4  10  22  38  60  91 125 166 212 260 315 379
#     4  10  19  34  58  89 125 165 210 257 309 370
#     4  11  26  46  68  95 125 161 215 272 326 391
#     4  11  24  41  65  94 130 167 210 263 324 383
#     4   9  17  30  56  90 124 165 208 258 309 365
#     4   9  18  35  57  82 120 161 201 248 312 375
#
# _framework density 20.784928000000001
#
# number of rings (size 3 to 8) (size 9 to 14) (size 15 to 20)
#    0.000    1.889    1.111    2.333    3.111    5.333 
#    0.000    2.222    0.000    5.333    0.000    0.000 
#    0.000    0.000    0.000    0.000    0.000    0.000 
#
# Total GULP energy -201181.483627 kJ/mol
# GULP energy per Si atom -5588.374545 kJ/mol
# Density = 2.073762 g / cm^3
# Si number density = 20.784928 Si / 1000 Ang^3
#
#
#
# Elastic Constant Matrix: (Units=GPa)
#
#
# Indices 1 2 3 4 5 6 
#
# 1 59.0394 4.8025 19.5387 0.0000 0.0000 0.0000
# 2 4.8025 105.4343 23.4382 0.0000 0.0000 0.0000
# 3 19.5387 23.4382 127.1185 0.0000 0.0000 0.0000
# 4 0.0000 0.0000 0.0000 46.6001 0.0000 0.0000
# 5 0.0000 0.0000 0.0000 0.0000 18.0331 0.0000
# 6 0.0000 0.0000 0.0000 0.0000 0.0000 -6.4247
#
#
#
# Elastic Compliance Matrix: (Units=1/GPa)
#
#
# Indices 1 2 3 4 5 6 
#
# 1 0.017850 -0.000212 -0.002705 0.000000 0.000000 0.000000
# 2 -0.000212 0.009892 -0.001791 0.000000 0.000000 0.000000
# 3 -0.002705 -0.001791 0.008613 0.000000 0.000000 0.000000
# 4 0.000000 0.000000 0.000000 0.021459 0.000000 0.000000
# 5 0.000000 0.000000 0.000000 0.000000 0.055454 0.000000
# 6 0.000000 0.000000 0.000000 0.000000 0.000000 -0.155648
#
#
# Mechanical properties :
#
#
# Convention : Reuss Voigt Hill
#
# Bulk Modulus (GPa) = 37.12008 43.01678 40.06843
# Shear Modulus (GPa) = -208.46698 27.89588 -90.28555
#
# Velocity S-wave (km/s) = -10.02571 3.66747 -6.59790
# Velocity P-wave (km/s) = 10.77599 6.21891 6.22283
#
# Compressibility (1/GPa) = 0.02693960
#
# Stress axis : x y z
#
# Youngs Moduli (GPa) = 56.02199 101.08705 116.10777
#
# Poissons Ratio (x) = 0.02141 0.31402
# Poissons Ratio (y) = 0.01187 0.20800
# Poissons Ratio (z) = 0.15152 0.18109
#
# Static dielectric constant tensor:
#      x y z
#    x 1.766010 0.000000 0.000000 
#    y 0.000000 1.745990 0.000000 
#    z 0.000000 0.000000 1.778550 
# 
# From -- ./inp_files/62889.got.cif
#   From: 2010.05.17/outbox.cif.g08.bks.cpg/sg71_32_cif.got.tgz:62889.got - 2010.06.03 16:22:01.
