data_PCOD9520200
_publ_section_title
;
Structure prediction by ZEFSAII (Michael W. Deem and Ramdas Pophale) SiO2 
 PCOD9520200
Probable space group: I M M M
;
_chemical_formula_sum "Si O2"
_cell_formula_units_Z 88
_cell_length_a 11.002773
_cell_length_b 27.777860
_cell_length_c 14.273558
_cell_angle_alpha 90.000000
_cell_angle_beta 90.000000
_cell_angle_gamma 90.000000
_cell_volume 4362.477318
_symmetry_space_group_name_H-M "I M M M"
_symmetry_group_IT_number 71
_symmetry_cell_setting 'orthorhombic'
loop_
_space_group_symop_operation_xyz
x,y,z
-x,-y,z
x,-y,-z
-x,y,-z
-x,-y,-z
x,y,-z
-x,y,z
x,-y,z
1/2+x,1/2+y,1/2+z
1/2-x,1/2-y,1/2+z
1/2+x,1/2-y,1/2-z
1/2-x,1/2+y,1/2-z
1/2-x,1/2-y,1/2-z
1/2+x,1/2+y,1/2-z
1/2-x,1/2+y,1/2+z
1/2+x,1/2-y,1/2+z
loop_
_atom_site_type_symbol
_atom_site_label
_atom_site_fract_x
_atom_site_fract_y
_atom_site_fract_z
Si Si1 0.856741 0.051802 0.110961
Si Si2 0.363134 0.443776 0.113800
Si Si3 0.500000 0.053023 0.887218
Si Si4 0.137645 0.377145 0.112778
Si Si5 0.300485 0.131371 0.889025
Si Si6 0.360449 0.212481 0.744940
O O1 0.823659 0.105822 0.142057
O O2 0.000000 0.048289 0.118649
O O3 0.806985 0.000000 0.147816
O O4 0.823300 0.051651 0.000000
O O5 0.500000 0.429219 0.145547
O O6 0.347143 0.500000 0.138318
O O7 0.248251 0.411690 0.144045
O O8 0.364660 0.441493 0.000000
O O9 0.386615 0.086239 0.865016
O O10 0.500000 0.000000 0.846012
O O11 0.500000 0.048531 0.000000
O O12 0.152677 0.324405 0.157734
O O13 0.000000 0.393946 0.138880
O O14 0.141665 0.374499 0.000000
O O15 0.343591 0.177472 0.833861
O O16 0.304290 0.141253 0.000000
O O17 0.500000 0.231755 0.743613
O O18 0.250000 0.250000 0.750000
#
# Coordination Sequence:
#
# PCOD9520200 Si02
#       6
#    16  16   8  16  16  16
#     4   8  14  26  47  78 116 154 186 216 259 327
#     4   8  14  27  51  83 115 145 179 222 272 328
#     4   9  16  28  52  84 115 147 175 207 267 340
#     4   9  19  37  59  80 107 144 184 228 278 335
#     4  10  19  34  57  83 113 146 182 227 279 339
#     4  11  25  43  60  80 109 142 188 245 295 337
#
# _framework density 20.172024
#
# number of rings (size 3 to 8) (size 9 to 14) (size 15 to 20)
#    0.000    2.818    0.909    1.636    0.000    4.727 
#    0.000    3.636    0.000    2.182    0.000    0.000 
#    0.000    0.000    0.000    0.000    0.000    0.000 
#
# Total GULP energy -245037.955587 kJ/mol
# GULP energy per Si atom -5569.044445 kJ/mol
# Density = 2.012611 g / cm^3
# Si number density = 20.172024 Si / 1000 Ang^3
#
#
#
# Elastic Constant Matrix: (Units=GPa)
#
#
# Indices 1 2 3 4 5 6 
#
# 1 165.7630 84.9036 19.0867 0.0000 0.0000 0.0000
# 2 84.9036 99.4386 17.1555 0.0000 0.0000 0.0001
# 3 19.0867 17.1555 70.2641 0.0001 -0.0001 0.0002
# 4 0.0000 0.0000 0.0001 24.2490 0.0000 0.0003
# 5 0.0000 0.0000 -0.0001 0.0000 8.7605 -0.0001
# 6 0.0000 0.0001 0.0002 0.0003 -0.0001 228.2778
#
#
#
# Elastic Compliance Matrix: (Units=1/GPa)
#
#
# Indices 1 2 3 4 5 6 
#
# 1 0.010755 -0.009061 -0.000709 0.000000 0.000000 0.000000
# 2 -0.009061 0.018132 -0.001966 0.000000 0.000000 0.000000
# 3 -0.000709 -0.001966 0.014905 0.000000 0.000000 0.000000
# 4 0.000000 0.000000 0.000000 0.041239 0.000000 0.000000
# 5 0.000000 0.000000 0.000000 0.000000 0.114148 0.000000
# 6 0.000000 0.000000 0.000000 0.000000 0.000000 0.004381
#
#
# Mechanical properties :
#
#
# Convention : Reuss Voigt Hill
#
# Bulk Modulus (GPa) = 49.21226 64.19524 56.70375
# Shear Modulus (GPa) = 21.38532 66.54545 43.96538
#
# Velocity S-wave (km/s) = 3.25952 5.74983 4.67360
# Velocity P-wave (km/s) = 6.21412 8.71629 7.56931
#
# Compressibility (1/GPa) = 0.02032014
#
# Stress axis : x y z
#
# Youngs Moduli (GPa) = 92.97707 55.15104 67.09309
#
# Poissons Ratio (x) = 0.49972 0.04759
# Poissons Ratio (y) = 0.84245 0.13189
# Poissons Ratio (z) = 0.06595 0.10841
#
# Static dielectric constant tensor:
#      x y z
#    x 1.693030 0.000000 0.000000 
#    y 0.000000 1.644410 0.000000 
#    z 0.000000 0.000000 1.783070 
# 
# From -- ./inp_files/32760.got.cif
#   From: 2010.05.17/outbox.cif.g08.bks.cpg/sg71_17_cif.got.tgz:32760.got - 2010.06.03 16:22:01.
