data_PCOD9520098
_publ_section_title
;
Structure prediction by ZEFSAII (Michael W. Deem and Ramdas Pophale) SiO2 
 PCOD9520098
Probable space group: I M M M
;
_chemical_formula_sum "Si O2"
_cell_formula_units_Z 104
_cell_length_a 23.908009
_cell_length_b 24.926454
_cell_length_c 7.655814
_cell_angle_alpha 90.000000
_cell_angle_beta 90.000000
_cell_angle_gamma 90.000000
_cell_volume 4562.420238
_symmetry_space_group_name_H-M "I M M M"
_symmetry_group_IT_number 71
_symmetry_cell_setting 'orthorhombic'
loop_
_space_group_symop_operation_xyz
x,y,z
-x,-y,z
x,-y,-z
-x,y,-z
-x,-y,-z
x,y,-z
-x,y,z
x,-y,z
1/2+x,1/2+y,1/2+z
1/2-x,1/2-y,1/2+z
1/2+x,1/2-y,1/2-z
1/2-x,1/2+y,1/2-z
1/2-x,1/2-y,1/2-z
1/2+x,1/2+y,1/2-z
1/2-x,1/2+y,1/2+z
1/2+x,1/2-y,1/2+z
loop_
_atom_site_type_symbol
_atom_site_label
_atom_site_fract_x
_atom_site_fract_y
_atom_site_fract_z
Si Si1 0.564625 0.000000 0.206747
Si Si2 0.158582 0.587130 0.210099
Si Si3 0.000000 0.735466 0.209853
Si Si4 0.595435 0.441443 0.213128
Si Si5 0.500000 0.361033 0.788936
Si Si6 0.199256 0.789149 0.707006
Si Si7 0.218295 0.911009 0.713866
Si Si8 0.616034 0.200020 0.706112
O O1 0.604585 0.949380 0.252295
O O2 0.500000 0.000000 0.278292
O O3 0.558981 0.000000 0.000000
O O4 0.220447 0.568744 0.272137
O O5 0.148292 0.647982 0.275773
O O6 0.163267 0.587919 0.000000
O O7 0.054958 0.707446 0.282732
O O8 0.000000 0.799043 0.239510
O O9 0.000000 0.728339 0.000000
O O10 0.573057 0.500000 0.262473
O O11 0.555107 0.393467 0.271769
O O12 0.660005 0.437175 0.270355
O O13 0.595908 0.439103 0.000000
O O14 0.500000 0.362972 0.000000
O O15 0.192863 0.793412 0.500000
O O16 0.250000 0.750000 0.750000
O O17 0.211827 0.848813 0.769057
O O18 0.146194 0.757042 0.775364
O O19 0.218279 0.913869 0.500000
O O20 0.611498 0.189682 0.500000
#
# Coordination Sequence:
#
# PCOD9520098 Si02
#       8
#     8  16   8  16   8  16  16  16
#     4  11  27  47  63  85 119 150 185 240 302 359
#     4  10  21  39  64  88 112 147 194 240 285 347
#     4  10  22  37  57  82 115 152 183 233 292 341
#     4   9  17  29  51  81 113 145 187 241 289 324
#     4  10  19  34  54  82 115 151 194 235 275 339
#     4  11  20  34  55  83 120 157 191 233 286 345
#     4   9  18  32  52  84 118 148 188 240 288 333
#     4  10  21  38  58  85 116 149 195 242 287 351
#
# _framework density 22.794920000000001
#
# number of rings (size 3 to 8) (size 9 to 14) (size 15 to 20)
#    0.000    2.077    1.538    1.846    2.154    4.000 
#    0.000    0.000    0.000    1.846    0.000    0.000 
#    0.000    0.000    0.000    0.000    0.000    0.000 
#
# Total GULP energy -290259.422544 kJ/mol
# GULP energy per Si atom -5581.911972 kJ/mol
# Density = 2.274304 g / cm^3
# Si number density = 22.794920 Si / 1000 Ang^3
#
#
#
# Elastic Constant Matrix: (Units=GPa)
#
#
# Indices 1 2 3 4 5 6 
#
# 1 165.2183 23.2299 11.4785 0.0000 0.0000 0.0000
# 2 23.2299 76.3776 3.7284 0.0000 0.0000 0.0000
# 3 11.4785 3.7284 37.2429 0.0000 0.0000 0.0000
# 4 0.0000 0.0000 0.0000 19.8480 0.0000 0.0000
# 5 0.0000 0.0000 0.0000 0.0000 12.3747 0.0000
# 6 0.0000 0.0000 0.0000 0.0000 0.0000 33.8433
#
#
#
# Elastic Compliance Matrix: (Units=1/GPa)
#
#
# Indices 1 2 3 4 5 6 
#
# 1 0.006441 -0.001871 -0.001798 0.000000 0.000000 0.000000
# 2 -0.001871 0.013701 -0.000795 0.000000 0.000000 0.000000
# 3 -0.001798 -0.000795 0.027484 0.000000 0.000000 0.000000
# 4 0.000000 0.000000 0.000000 0.050383 0.000000 0.000000
# 5 0.000000 0.000000 0.000000 0.000000 0.080810 0.000000
# 6 0.000000 0.000000 0.000000 0.000000 0.000000 0.029548
#
#
# Mechanical properties :
#
#
# Convention : Reuss Voigt Hill
#
# Bulk Modulus (GPa) = 25.84097 39.52359 32.68228
# Shear Modulus (GPa) = 21.72088 29.24001 25.48044
#
# Velocity S-wave (km/s) = 3.09023 3.58542 3.34700
# Velocity P-wave (km/s) = 4.90852 5.87510 5.41343
#
# Compressibility (1/GPa) = 0.03869824
#
# Stress axis : x y z
#
# Youngs Moduli (GPa) = 155.26569 72.98873 36.38433
#
# Poissons Ratio (x) = 0.13657 0.06541
# Poissons Ratio (y) = 0.29052 0.02892
# Poissons Ratio (z) = 0.27912 0.05802
#
# Static dielectric constant tensor:
#      x y z
#    x 1.899820 0.000000 0.000000 
#    y 0.000000 1.876490 0.000000 
#    z 0.000000 0.000000 1.870840 
# 
# From -- ./inp_files/11218.got.cif
#   From: 2010.05.17/outbox.cif.g08.bks.cpg/sg71_6_cif.got.tgz:11218.got - 2010.06.03 16:22:01.
