data_PCOD9520441
_publ_section_title
;
Structure prediction by ZEFSAII (Michael W. Deem and Ramdas Pophale) SiO2 
 PCOD9520441
Probable space group: I M M M
;
_chemical_formula_sum "Si O2"
_cell_formula_units_Z 104
_cell_length_a 17.455780
_cell_length_b 20.984296
_cell_length_c 14.919239
_cell_angle_alpha 90.000000
_cell_angle_beta 90.000000
_cell_angle_gamma 90.000000
_cell_volume 5464.876284
_symmetry_space_group_name_H-M "I M M M"
_symmetry_group_IT_number 71
_symmetry_cell_setting 'orthorhombic'
loop_
_space_group_symop_operation_xyz
x,y,z
-x,-y,z
x,-y,-z
-x,y,-z
-x,-y,-z
x,y,-z
-x,y,z
x,-y,z
1/2+x,1/2+y,1/2+z
1/2-x,1/2-y,1/2+z
1/2+x,1/2-y,1/2-z
1/2-x,1/2+y,1/2-z
1/2-x,1/2-y,1/2-z
1/2+x,1/2+y,1/2-z
1/2-x,1/2+y,1/2+z
1/2+x,1/2-y,1/2+z
loop_
_atom_site_type_symbol
_atom_site_label
_atom_site_fract_x
_atom_site_fract_y
_atom_site_fract_z
Si Si1 0.182280 0.877658 0.904058
Si Si2 0.587481 0.315126 0.854780
Si Si3 0.359777 0.135677 0.294864
Si Si4 0.000000 0.575653 0.898308
Si Si5 0.585526 0.734775 0.651010
Si Si6 0.147819 0.679326 0.597791
Si Si7 0.192260 0.074009 0.706645
O O1 0.117681 0.823611 0.904292
O O2 0.262529 0.838915 0.897698
O O3 0.173758 0.917875 0.813246
O O4 0.182305 0.912380 0.000000
O O5 0.500000 0.322634 0.888144
O O6 0.582122 0.292900 0.751470
O O7 0.630106 0.254695 0.898730
O O8 0.636452 0.379908 0.850451
O O9 0.425510 0.097540 0.344664
O O10 0.358630 0.204876 0.342409
O O11 0.382747 0.148538 0.190406
O O12 0.278646 0.100844 0.301606
O O13 0.000000 0.500000 0.902982
O O14 0.000000 0.601192 0.000000
O O15 0.500000 0.755339 0.624681
O O16 0.119182 0.655871 0.500000
O O17 0.187164 0.000000 0.681851
#
# Coordination Sequence:
#
# PCOD9520441 Si02
#       7
#    16  16  16   8  16  16  16
#     4   9  18  31  48  77 113 142 178 229 281 336
#     4   9  18  32  51  76 106 139 181 228 275 327
#     4  10  19  36  57  81 111 145 184 228 277 328
#     4  11  24  40  57  79 111 151 191 226 262 316
#     4   9  16  29  50  76 105 141 177 222 283 334
#     4   9  18  33  57  86 112 139 174 225 288 344
#     4  10  20  34  54  75 103 151 196 228 270 324
#
# _framework density 19.030622000000001
#
# number of rings (size 3 to 8) (size 9 to 14) (size 15 to 20)
#    0.000    2.538    0.769    1.385    1.077    5.538 
#    0.000    0.769    0.000    3.231    0.000    5.385 
#    0.000    0.000    0.000    0.000    0.000    0.000 
#
# Total GULP energy -289651.451238 kJ/mol
# GULP energy per Si atom -5570.220216 kJ/mol
# Density = 1.898731 g / cm^3
# Si number density = 19.030622 Si / 1000 Ang^3
#
#
#
# Elastic Constant Matrix: (Units=GPa)
#
#
# Indices 1 2 3 4 5 6 
#
# 1 37.4540 27.1644 19.1187 0.0000 0.0000 0.0000
# 2 27.1644 95.8159 9.3719 0.0000 0.0000 0.0000
# 3 19.1187 9.3719 73.4517 0.0000 0.0000 0.0000
# 4 0.0000 0.0000 0.0000 13.3457 0.0000 0.0000
# 5 0.0000 0.0000 0.0000 0.0000 9.5041 0.0000
# 6 0.0000 0.0000 0.0000 0.0000 0.0000 17.2727
#
#
#
# Elastic Compliance Matrix: (Units=1/GPa)
#
#
# Indices 1 2 3 4 5 6 
#
# 1 0.038437 -0.010044 -0.008723 0.000000 0.000000 0.000000
# 2 -0.010044 0.013193 0.000931 0.000000 0.000000 0.000000
# 3 -0.008723 0.000931 0.015766 0.000000 0.000000 0.000000
# 4 0.000000 0.000000 0.000000 0.074930 0.000000 0.000000
# 5 0.000000 0.000000 0.000000 0.000000 0.105218 0.000000
# 6 0.000000 0.000000 0.000000 0.000000 0.000000 0.057895
#
#
# Mechanical properties :
#
#
# Convention : Reuss Voigt Hill
#
# Bulk Modulus (GPa) = 31.52194 35.33685 33.42940
# Shear Modulus (GPa) = 14.21721 18.09559 16.15640
#
# Velocity S-wave (km/s) = 2.73622 3.08696 2.91687
# Velocity P-wave (km/s) = 5.15580 5.59593 5.38037
#
# Compressibility (1/GPa) = 0.03172394
#
# Stress axis : x y z
#
# Youngs Moduli (GPa) = 26.01679 75.79712 63.42706
#
# Poissons Ratio (x) = 0.76129 0.55328
# Poissons Ratio (y) = 0.26131 -0.05905
# Poissons Ratio (z) = 0.22695 -0.07056
#
# Static dielectric constant tensor:
#      x y z
#    x 1.656720 0.000000 0.000000 
#    y 0.000000 1.637150 0.000000 
#    z 0.000000 0.000000 1.708160 
# 
# From -- ./inp_files/36689.got.cif
#   From: 2010.05.17/outbox.cif.g08.bks.cpg/sg71_19_cif.got.tgz:36689.got - 2010.06.03 16:22:01.
