data_PCOD9520514
_publ_section_title
;
Structure prediction by ZEFSAII (Michael W. Deem and Ramdas Pophale) SiO2 
 PCOD9520514
Probable space group: I M M M
;
_chemical_formula_sum "Si O2"
_cell_formula_units_Z 50
_cell_length_a 5.290709
_cell_length_b 29.232585
_cell_length_c 17.736949
_cell_angle_alpha 90.000000
_cell_angle_beta 90.000000
_cell_angle_gamma 90.000000
_cell_volume 2743.216053
_symmetry_space_group_name_H-M "I M M M"
_symmetry_group_IT_number 71
_symmetry_cell_setting 'orthorhombic'
loop_
_space_group_symop_operation_xyz
x,y,z
-x,-y,z
x,-y,-z
-x,y,-z
-x,-y,-z
x,y,-z
-x,y,z
x,-y,z
1/2+x,1/2+y,1/2+z
1/2-x,1/2-y,1/2+z
1/2+x,1/2-y,1/2-z
1/2-x,1/2+y,1/2-z
1/2-x,1/2-y,1/2-z
1/2+x,1/2+y,1/2-z
1/2-x,1/2+y,1/2+z
1/2+x,1/2-y,1/2+z
loop_
_atom_site_type_symbol
_atom_site_label
_atom_site_fract_x
_atom_site_fract_y
_atom_site_fract_z
Si Si1 0.000000 0.500000 0.500000
Si Si2 0.000000 0.109352 0.679880
Si Si3 0.500000 0.259279 0.408829
Si Si4 0.500000 0.703122 0.909337
Si Si5 0.000000 0.862949 0.144414
Si Si6 0.000000 0.445949 0.798166
Si Si7 0.500000 0.918134 0.878029
O O1 0.000000 0.460015 0.434771
O O2 0.750382 0.078627 0.670804
O O3 0.000000 0.153059 0.626214
O O4 0.000000 0.128165 0.765834
O O5 0.500000 0.263864 0.500000
O O6 0.749777 0.231130 0.386738
O O7 0.500000 0.309589 0.373983
O O8 0.500000 0.699602 0.000000
O O9 0.250046 0.887423 0.112491
O O10 0.000000 0.437144 0.707722
O O11 0.000000 0.500000 0.812256
#
# Coordination Sequence:
#
# PCOD9520514 Si02
#       7
#     2   8   8   8   8   8   8
#     4  12  24  38  56  82 112 166 186 234 268 310
#     4  10  21  35  60  80 108 144 180 226 273 317
#     4  10  21  35  55  78 113 145 177 222 277 321
#     4  10  21  38  57  83 107 140 180 222 276 341
#     4  10  22  38  53  83 110 145 189 228 269 317
#     4  10  19  38  55  81 110 142 182 220 269 321
#     4  10  23  35  54  79 112 147 190 228 261 314
#
# _framework density 18.226783000000001
#
# number of rings (size 3 to 8) (size 9 to 14) (size 15 to 20)
#    0.000    1.920    0.800    2.400    2.240    2.560 
#    0.000    0.000    0.000    2.880    0.000    0.000 
#    0.000    0.000    0.000    0.000    0.000    0.000 
#
# Total GULP energy -139403.085469 kJ/mol
# GULP energy per Si atom -5576.123419 kJ/mol
# Density = 1.818530 g / cm^3
# Si number density = 18.226783 Si / 1000 Ang^3
#
#
#
# Elastic Constant Matrix: (Units=GPa)
#
#
# Indices 1 2 3 4 5 6 
#
# 1 211.4315 131.4342 39.4250 0.0000 0.0000 0.0000
# 2 131.4342 234.3113 49.8577 0.0000 0.0000 0.0000
# 3 39.4250 49.8577 21.1937 0.0000 0.0000 0.0000
# 4 0.0000 0.0000 0.0000 13.1169 0.0000 0.0000
# 5 0.0000 0.0000 0.0000 0.0000 -7.6030 0.0000
# 6 0.0000 0.0000 0.0000 0.0000 0.0000 -7.1959
#
#
#
# Elastic Compliance Matrix: (Units=1/GPa)
#
#
# Indices 1 2 3 4 5 6 
#
# 1 0.007981 -0.002638 -0.008639 0.000000 0.000000 0.000000
# 2 -0.002638 0.009418 -0.017247 0.000000 0.000000 0.000000
# 3 -0.008639 -0.017247 0.103827 0.000000 0.000000 0.000000
# 4 0.000000 0.000000 0.000000 0.076237 0.000000 0.000000
# 5 0.000000 0.000000 0.000000 0.000000 -0.131528 0.000000
# 6 0.000000 0.000000 0.000000 0.000000 0.000000 -0.138967
#
#
# Mechanical properties :
#
#
# Convention : Reuss Voigt Hill
#
# Bulk Modulus (GPa) = 15.58188 100.93002 58.25595
# Shear Modulus (GPa) = 924.35229 16.07824 470.21527
#
# Velocity S-wave (km/s) = 22.54419 2.97328 16.07919
# Velocity P-wave (km/s) = 26.19583 8.20256 19.41009
#
# Compressibility (1/GPa) = 0.06417711
#
# Stress axis : x y z
#
# Youngs Moduli (GPa) = 125.30189 106.18339 9.63137
#
# Poissons Ratio (x) = 0.28016 0.08321
# Poissons Ratio (y) = 0.33060 0.16611
# Poissons Ratio (z) = 1.08250 1.83132
#
# Static dielectric constant tensor:
#      x y z
#    x 1.629060 0.000000 0.000000 
#    y 0.000000 1.568090 0.000000 
#    z 0.000000 0.000000 1.608900 
# 
# From -- ./inp_files/601.got.cif
#   From: 2010.05.17/outbox.cif.g08.bks.cpg/sg71_1_cif.got.tgz:601.got - 2010.06.03 16:22:01.
