data_PCOD9520376
_publ_section_title
;
Structure prediction by ZEFSAII (Michael W. Deem and Ramdas Pophale) SiO2 
 PCOD9520376
Probable space group: I M M M
;
_chemical_formula_sum "Si O2"
_cell_formula_units_Z 116
_cell_length_a 17.416459
_cell_length_b 25.398195
_cell_length_c 12.685636
_cell_angle_alpha 90.000000
_cell_angle_beta 90.000000
_cell_angle_gamma 90.000000
_cell_volume 5611.448231
_symmetry_space_group_name_H-M "I M M M"
_symmetry_group_IT_number 71
_symmetry_cell_setting 'orthorhombic'
loop_
_space_group_symop_operation_xyz
x,y,z
-x,-y,z
x,-y,-z
-x,y,-z
-x,-y,-z
x,y,-z
-x,y,z
x,-y,z
1/2+x,1/2+y,1/2+z
1/2-x,1/2-y,1/2+z
1/2+x,1/2-y,1/2-z
1/2-x,1/2+y,1/2-z
1/2-x,1/2-y,1/2-z
1/2+x,1/2+y,1/2-z
1/2-x,1/2+y,1/2+z
1/2+x,1/2-y,1/2+z
loop_
_atom_site_type_symbol
_atom_site_label
_atom_site_fract_x
_atom_site_fract_y
_atom_site_fract_z
Si Si1 0.500000 0.397226 0.000000
Si Si2 0.663926 0.225456 0.880564
Si Si3 0.908337 0.100535 0.117614
Si Si4 0.317600 0.695188 0.712063
Si Si5 0.909722 0.560420 0.833077
Si Si6 0.622042 0.441267 0.156633
Si Si7 0.263991 0.122867 0.614218
Si Si8 0.408988 0.110485 0.116032
O O1 0.432975 0.401958 0.907225
O O2 0.637353 0.264446 0.787865
O O3 0.755898 0.223198 0.863114
O O4 0.632282 0.166313 0.865647
O O5 0.643708 0.241539 0.000000
O O6 0.870802 0.156590 0.145940
O O7 0.886196 0.064946 0.217736
O O8 0.000000 0.104161 0.117076
O O9 0.883457 0.083397 0.000000
O O10 0.265996 0.660297 0.793034
O O11 0.894272 0.500000 0.863635
O O12 0.850704 0.602373 0.879865
O O13 0.896131 0.568788 0.707933
O O14 0.000000 0.570931 0.854902
O O15 0.598997 0.500000 0.125010
O O16 0.708715 0.427813 0.125628
O O17 0.250521 0.147801 0.500000
O O18 0.500000 0.121201 0.115281
O O19 0.385844 0.091342 0.000000
#
# Coordination Sequence:
#
# PCOD9520376 Si02
#       8
#     4  16  16  16  16  16  16  16
#     4  12  21  36  58  86 118 158 200 250 302 344
#     4  10  19  35  59  85 110 142 184 231 286 344
#     4  10  22  39  57  80 114 154 193 235 285 344
#     4  10  21  36  57  84 111 149 184 233 284 349
#     4  10  21  37  56  81 114 151 193 239 289 347
#     4  11  22  36  57  84 116 154 199 246 293 343
#     4  11  22  37  56  82 115 151 194 243 291 346
#     4   9  18  34  57  83 113 147 183 231 287 345
#
# _framework density 20.672024
#
# number of rings (size 3 to 8) (size 9 to 14) (size 15 to 20)
#    0.000    1.793    2.759    1.862    0.000    2.207 
#    0.000    2.759    0.000    1.655    0.000    0.000 
#    0.000    0.000    0.000    0.000    0.000    0.000 
#
# Total GULP energy -323057.360036 kJ/mol
# GULP energy per Si atom -5569.954483 kJ/mol
# Density = 2.062497 g / cm^3
# Si number density = 20.672024 Si / 1000 Ang^3
#
#
#
# Elastic Constant Matrix: (Units=GPa)
#
#
# Indices 1 2 3 4 5 6 
#
# 1 38.0857 -0.4927 10.0240 0.0000 0.0000 0.0000
# 2 -0.4927 29.9940 1.9034 0.0000 0.0000 0.0000
# 3 10.0240 1.9034 128.0654 0.0000 0.0000 0.0000
# 4 0.0000 0.0000 0.0000 -2.9715 0.0000 0.0000
# 5 0.0000 0.0000 0.0000 0.0000 23.8040 0.0000
# 6 0.0000 0.0000 0.0000 0.0000 0.0000 4.5531
#
#
#
# Elastic Compliance Matrix: (Units=1/GPa)
#
#
# Indices 1 2 3 4 5 6 
#
# 1 0.026819 0.000574 -0.002108 0.000000 0.000000 0.000000
# 2 0.000574 0.033384 -0.000541 0.000000 0.000000 0.000000
# 3 -0.002108 -0.000541 0.007982 0.000000 0.000000 0.000000
# 4 0.000000 0.000000 0.000000 -0.336525 0.000000 0.000000
# 5 0.000000 0.000000 0.000000 0.000000 0.042010 0.000000
# 6 0.000000 0.000000 0.000000 0.000000 0.000000 0.219631
#
#
# Mechanical properties :
#
#
# Convention : Reuss Voigt Hill
#
# Bulk Modulus (GPa) = 15.61647 24.33495 19.97571
# Shear Modulus (GPa) = 266.03351 17.39113 141.71232
#
# Velocity S-wave (km/s) = 11.35658 2.90364 8.28864
# Velocity P-wave (km/s) = 13.39901 4.79990 10.06410
#
# Compressibility (1/GPa) = 0.06403494
#
# Stress axis : x y z
#
# Youngs Moduli (GPa) = 37.28735 29.95470 125.28927
#
# Poissons Ratio (x) = -0.01720 0.26407
# Poissons Ratio (y) = -0.02141 0.06780
# Poissons Ratio (z) = 0.07859 0.01621
#
# Static dielectric constant tensor:
#      x y z
#    x 1.726330 0.000000 0.000000 
#    y 0.000000 1.755050 0.000000 
#    z 0.000000 0.000000 1.794890 
# 
# From -- ./inp_files/24643.got.cif
#   From: 2010.05.17/outbox.cif.g08.bks.cpg/sg71_13_cif.got.tgz:24643.got - 2010.06.03 16:22:01.
