data_PCOD9520280
_publ_section_title
;
Structure prediction by ZEFSAII (Michael W. Deem and Ramdas Pophale) SiO2 
 PCOD9520280
Probable space group: I M M M
;
_chemical_formula_sum "Si O2"
_cell_formula_units_Z 80
_cell_length_a 7.526928
_cell_length_b 16.930005
_cell_length_c 29.914171
_cell_angle_alpha 90.000000
_cell_angle_beta 90.000000
_cell_angle_gamma 90.000000
_cell_volume 3811.990591
_symmetry_space_group_name_H-M "I M M M"
_symmetry_group_IT_number 71
_symmetry_cell_setting 'orthorhombic'
loop_
_space_group_symop_operation_xyz
x,y,z
-x,-y,z
x,-y,-z
-x,y,-z
-x,-y,-z
x,y,-z
-x,y,z
x,-y,z
1/2+x,1/2+y,1/2+z
1/2-x,1/2-y,1/2+z
1/2+x,1/2-y,1/2-z
1/2-x,1/2+y,1/2-z
1/2-x,1/2-y,1/2-z
1/2+x,1/2+y,1/2-z
1/2-x,1/2+y,1/2+z
1/2+x,1/2-y,1/2+z
loop_
_atom_site_type_symbol
_atom_site_label
_atom_site_fract_x
_atom_site_fract_y
_atom_site_fract_z
Si Si1 0.788401 0.000000 0.673565
Si Si2 0.709067 0.500000 0.067866
Si Si3 0.297875 0.158522 0.279200
Si Si4 0.285985 0.909171 0.813188
Si Si5 0.792008 0.678898 0.048353
Si Si6 0.712170 0.258496 0.360712
O O1 0.762936 0.000000 0.620884
O O2 0.701826 0.923732 0.694780
O O3 0.000000 0.000000 0.682730
O O4 0.500000 0.500000 0.058012
O O5 0.781099 0.583720 0.051302
O O6 0.500000 0.185805 0.270489
O O7 0.215608 0.135079 0.231516
O O8 0.213171 0.217128 0.315603
O O9 0.500000 0.912897 0.808847
O O10 0.242707 0.851650 0.854399
O O11 0.223088 0.000000 0.815931
O O12 0.717701 0.718758 0.093647
O O13 0.000000 0.700185 0.047666
O O14 0.714858 0.702622 0.000000
O O15 0.500000 0.243352 0.359980
#
# Coordination Sequence:
#
# PCOD9520280 Si02
#       6
#     8   8  16  16  16  16
#     4  11  21  30  48  79 112 146 181 217 254 299
#     4  11  22  34  51  80 114 146 180 219 261 305
#     4  10  19  35  55  75 106 146 181 211 257 312
#     4  10  21  36  55  78 106 139 174 215 264 318
#     4  10  21  37  57  79 105 141 182 220 262 316
#     4  10  21  35  55  80 105 137 176 220 264 310
#
# _framework density 20.986411
#
# number of rings (size 3 to 8) (size 9 to 14) (size 15 to 20)
#    0.000    1.800    3.000    1.500    0.000    5.200 
#    0.000    0.000    0.000    0.600    0.000    4.200 
#    0.000    0.000    0.000    0.000    0.000    0.000 
#
# Total GULP energy -223250.989737 kJ/mol
# GULP energy per Si atom -5581.274743 kJ/mol
# Density = 2.093864 g / cm^3
# Si number density = 20.986411 Si / 1000 Ang^3
#
#
#
# Elastic Constant Matrix: (Units=GPa)
#
#
# Indices 1 2 3 4 5 6 
#
# 1 49.7197 -1.5578 16.3672 0.0000 0.0000 0.0000
# 2 -1.5578 134.7714 90.1765 0.0000 0.0000 0.0000
# 3 16.3672 90.1765 131.0663 0.0000 0.0000 0.0000
# 4 0.0000 0.0000 0.0000 -56.6544 0.0000 0.0000
# 5 0.0000 0.0000 0.0000 0.0000 -1.5429 0.0000
# 6 0.0000 0.0000 0.0000 0.0000 0.0000 18.6479
#
#
#
# Elastic Compliance Matrix: (Units=1/GPa)
#
#
# Indices 1 2 3 4 5 6 
#
# 1 0.022018 0.003881 -0.005420 0.000000 0.000000 0.000000
# 2 0.003881 0.014434 -0.010415 0.000000 0.000000 0.000000
# 3 -0.005420 -0.010415 0.015473 0.000000 0.000000 0.000000
# 4 0.000000 0.000000 0.000000 -0.017651 0.000000 0.000000
# 5 0.000000 0.000000 0.000000 0.000000 -0.648115 0.000000
# 6 0.000000 0.000000 0.000000 0.000000 0.000000 0.053625
#
#
# Mechanical properties :
#
#
# Convention : Reuss Voigt Hill
#
# Bulk Modulus (GPa) = 35.69348 58.39214 47.04281
# Shear Modulus (GPa) = -9.48825 6.12821 -1.68002
#
# Velocity S-wave (km/s) = -2.12860 1.71068 -0.89569
# Velocity P-wave (km/s) = 3.31716 5.63792 4.62545
#
# Compressibility (1/GPa) = 0.02801632
#
# Stress axis : x y z
#
# Youngs Moduli (GPa) = 45.41641 69.28134 64.63036
#
# Poissons Ratio (x) = -0.26887 0.35028
# Poissons Ratio (y) = -0.17626 0.67316
# Poissons Ratio (z) = 0.24615 0.72160
#
# Static dielectric constant tensor:
#      x y z
#    x 1.795630 0.000000 0.000000 
#    y 0.000000 1.736930 0.000000 
#    z 0.000000 0.000000 1.788440 
# 
# From -- ./inp_files/63055.got.cif
#   From: 2010.05.17/outbox.cif.g08.bks.cpg/sg71_32_cif.got.tgz:63055.got - 2010.06.03 16:22:01.
