data_PCOD9520996
_publ_section_title
;
Structure prediction by ZEFSAII (Michael W. Deem and Ramdas Pophale) SiO2 
 PCOD9520996
Probable space group: I M M M
;
_chemical_formula_sum "Si O2"
_cell_formula_units_Z 72
_cell_length_a 7.604934
_cell_length_b 23.222468
_cell_length_c 19.815717
_cell_angle_alpha 90.000000
_cell_angle_beta 90.000000
_cell_angle_gamma 90.000000
_cell_volume 3499.561368
_symmetry_space_group_name_H-M "I M M M"
_symmetry_group_IT_number 71
_symmetry_cell_setting 'orthorhombic'
loop_
_space_group_symop_operation_xyz
x,y,z
-x,-y,z
x,-y,-z
-x,y,-z
-x,-y,-z
x,y,-z
-x,y,z
x,-y,z
1/2+x,1/2+y,1/2+z
1/2-x,1/2-y,1/2+z
1/2+x,1/2-y,1/2-z
1/2-x,1/2+y,1/2-z
1/2-x,1/2-y,1/2-z
1/2+x,1/2+y,1/2-z
1/2-x,1/2+y,1/2+z
1/2+x,1/2-y,1/2+z
loop_
_atom_site_type_symbol
_atom_site_label
_atom_site_fract_x
_atom_site_fract_y
_atom_site_fract_z
Si Si1 0.785151 0.654946 0.577110
Si Si2 0.785169 0.213855 0.577234
Si Si3 0.706400 0.935133 0.186464
Si Si4 0.294383 0.609962 0.832494
Si Si5 0.211535 0.500000 0.077348
O O1 0.733816 0.641799 0.500000
O O2 0.731254 0.720658 0.592730
O O3 0.719570 0.608397 0.630648
O O4 0.000000 0.655283 0.578610
O O5 0.731961 0.200163 0.500000
O O6 0.721710 0.166589 0.630364
O O7 0.000000 0.212381 0.577616
O O8 0.500000 0.940516 0.170589
O O9 0.717569 0.907801 0.260664
O O10 0.781503 0.000000 0.186905
O O11 0.500000 0.619718 0.820440
O O12 0.272994 0.556486 0.883208
O O13 0.000000 0.500000 0.078145
O O14 0.272123 0.500000 0.000000
#
# Coordination Sequence:
#
# PCOD9520996 Si02
#       5
#    16  16  16  16   8
#     4   8  15  30  52  76 101 132 172 218 265 309
#     4   8  15  29  49  74 102 130 169 220 261 297
#     4  10  20  33  50  74 107 140 171 215 263 304
#     4  11  21  33  52  76 103 139 177 210 251 307
#     4  11  23  37  53  75 104 137 172 213 259 302
#
# _framework density 20.574006000000001
#
# number of rings (size 3 to 8) (size 9 to 14) (size 15 to 20)
#    0.000    2.556    1.111    3.000    0.000    3.111 
#    0.000    2.222    0.000    2.000    0.000    7.778 
#    0.000    0.000    0.000    0.000    0.000    0.000 
#
# Total GULP energy -200953.072164 kJ/mol
# GULP energy per Si atom -5582.029782 kJ/mol
# Density = 2.052718 g / cm^3
# Si number density = 20.574006 Si / 1000 Ang^3
#
#
#
# Elastic Constant Matrix: (Units=GPa)
#
#
# Indices 1 2 3 4 5 6 
#
# 1 39.9954 0.0214 -12.0119 0.0000 0.0000 0.0000
# 2 0.0214 189.7721 135.5079 0.0000 0.0000 0.0000
# 3 -12.0119 135.5079 153.0573 0.0000 0.0000 0.0000
# 4 0.0000 0.0000 0.0000 47.0582 0.0000 0.0000
# 5 0.0000 0.0000 0.0000 0.0000 -20.9395 0.0000
# 6 0.0000 0.0000 0.0000 0.0000 0.0000 0.6380
#
#
#
# Elastic Compliance Matrix: (Units=1/GPa)
#
#
# Indices 1 2 3 4 5 6 
#
# 1 0.026719 -0.004079 0.005708 0.000000 0.000000 0.000000
# 2 -0.004079 0.014949 -0.013555 0.000000 0.000000 0.000000
# 3 0.005708 -0.013555 0.018982 0.000000 0.000000 0.000000
# 4 0.000000 0.000000 0.000000 0.021250 0.000000 0.000000
# 5 0.000000 0.000000 0.000000 0.000000 -0.047757 0.000000
# 6 0.000000 0.000000 0.000000 0.000000 0.000000 1.567501
#
#
# Mechanical properties :
#
#
# Convention : Reuss Voigt Hill
#
# Bulk Modulus (GPa) = 27.17462 69.98441 48.57952
# Shear Modulus (GPa) = 3.05294 22.63851 12.84573
#
# Velocity S-wave (km/s) = 1.21947 3.32074 2.50144
# Velocity P-wave (km/s) = 3.90124 6.98519 5.65741
#
# Compressibility (1/GPa) = 0.03679904
#
# Stress axis : x y z
#
# Youngs Moduli (GPa) = 37.42600 66.89387 52.68041
#
# Poissons Ratio (x) = 0.27286 -0.30071
# Poissons Ratio (y) = 0.15266 0.71409
# Poissons Ratio (z) = -0.21364 0.90675
#
# Static dielectric constant tensor:
#      x y z
#    x 1.806940 0.000000 0.000000 
#    y 0.000000 1.726780 0.000000 
#    z 0.000000 0.000000 1.692170 
# 
# From -- ./inp_files/9940.got.cif
#   From: 2010.05.17/outbox.cif.g08.bks.cpg/sg71_5_cif.got.tgz:9940.got - 2010.06.03 16:22:01.
