data_PCOD9520932
_publ_section_title
;
Structure prediction by ZEFSAII (Michael W. Deem and Ramdas Pophale) SiO2 
 PCOD9520932
Probable space group: I M M M
;
_chemical_formula_sum "Si O2"
_cell_formula_units_Z 104
_cell_length_a 24.480896
_cell_length_b 7.841624
_cell_length_c 26.311666
_cell_angle_alpha 90.000000
_cell_angle_beta 90.000000
_cell_angle_gamma 90.000000
_cell_volume 5051.050038
_symmetry_space_group_name_H-M "I M M M"
_symmetry_group_IT_number 71
_symmetry_cell_setting 'orthorhombic'
loop_
_space_group_symop_operation_xyz
x,y,z
-x,-y,z
x,-y,-z
-x,y,-z
-x,-y,-z
x,y,-z
-x,y,z
x,-y,z
1/2+x,1/2+y,1/2+z
1/2-x,1/2-y,1/2+z
1/2+x,1/2-y,1/2-z
1/2-x,1/2+y,1/2-z
1/2-x,1/2-y,1/2-z
1/2+x,1/2+y,1/2-z
1/2-x,1/2+y,1/2+z
1/2+x,1/2-y,1/2+z
loop_
_atom_site_type_symbol
_atom_site_label
_atom_site_fract_x
_atom_site_fract_y
_atom_site_fract_z
Si Si1 0.336778 0.304491 0.370247
Si Si2 0.062150 0.704161 0.941674
Si Si3 0.829339 0.695540 0.244270
Si Si4 0.721226 0.791332 0.151559
Si Si5 0.105448 0.293164 0.392957
Si Si6 0.059541 0.800905 0.709310
Si Si7 0.437551 0.791606 0.000000
O O1 0.333659 0.500000 0.386026
O O2 0.389659 0.239049 0.400826
O O3 0.338119 0.292589 0.308668
O O4 0.275772 0.227042 0.376384
O O5 0.058941 0.500000 0.944238
O O6 0.000000 0.765458 0.928294
O O7 0.074384 0.764338 0.000000
O O8 0.814704 0.500000 0.232806
O O9 0.789745 0.762985 0.289608
O O10 0.889417 0.699304 0.269200
O O11 0.666686 0.743890 0.122152
O O12 0.723822 0.000000 0.153798
O O13 0.101505 0.500000 0.390128
O O14 0.064948 0.218256 0.351145
O O15 0.091215 0.235601 0.448889
O O16 0.000000 0.741472 0.726575
O O17 0.065695 0.000000 0.722902
O O18 0.500000 0.737639 0.000000
O O19 0.436812 0.000000 0.000000
#
# Coordination Sequence:
#
# PCOD9520932 Si02
#       7
#    16  16  16  16  16  16   8
#     4  11  21  34  55  85 114 138 171 215 268 325
#     4   9  20  41  64  82 105 140 182 226 270 320
#     4  10  20  35  55  77 105 143 184 219 257 312
#     4   8  17  33  51  76 108 142 177 215 262 313
#     4   9  17  32  51  72 100 137 180 221 259 306
#     4  10  20  33  49  72 103 137 173 218 272 318
#     4   9  16  26  47  77 101 129 176 225 258 290
#
# _framework density 20.589777000000002
#
# number of rings (size 3 to 8) (size 9 to 14) (size 15 to 20)
#    0.000    2.538    0.000    3.692    0.000    3.077 
#    1.385    8.077    0.000    1.385    0.000    0.000 
#    0.000    0.000    0.000    0.000    0.000    0.000 
#
# Total GULP energy -289735.289709 kJ/mol
# GULP energy per Si atom -5571.832494 kJ/mol
# Density = 2.054291 g / cm^3
# Si number density = 20.589777 Si / 1000 Ang^3
#
#
#
# Elastic Constant Matrix: (Units=GPa)
#
#
# Indices 1 2 3 4 5 6 
#
# 1 157.2974 16.9650 58.8299 0.0000 0.0000 0.0000
# 2 16.9650 34.1825 -1.0788 0.0000 0.0000 0.0000
# 3 58.8299 -1.0788 84.3990 0.0000 0.0000 0.0000
# 4 0.0000 0.0000 0.0000 13.9828 0.0000 0.0000
# 5 0.0000 0.0000 0.0000 0.0000 28.8984 0.0000
# 6 0.0000 0.0000 0.0000 0.0000 0.0000 12.0851
#
#
#
# Elastic Compliance Matrix: (Units=1/GPa)
#
#
# Indices 1 2 3 4 5 6 
#
# 1 0.009337 -0.004841 -0.006570 0.000000 0.000000 0.000000
# 2 -0.004841 0.031777 0.003781 0.000000 0.000000 0.000000
# 3 -0.006570 0.003781 0.016476 0.000000 0.000000 0.000000
# 4 0.000000 0.000000 0.000000 0.071516 0.000000 0.000000
# 5 0.000000 0.000000 0.000000 0.000000 0.034604 0.000000
# 6 0.000000 0.000000 0.000000 0.000000 0.000000 0.082747
#
#
# Mechanical properties :
#
#
# Convention : Reuss Voigt Hill
#
# Bulk Modulus (GPa) = 23.62453 47.25680 35.44066
# Shear Modulus (GPa) = 18.12727 24.40412 21.26569
#
# Velocity S-wave (km/s) = 2.97037 3.44649 3.21725
# Velocity P-wave (km/s) = 4.82317 6.23210 5.57235
#
# Compressibility (1/GPa) = 0.04232889
#
# Stress axis : x y z
#
# Youngs Moduli (GPa) = 107.10375 31.46953 60.69285
#
# Poissons Ratio (x) = 0.15235 0.39875
# Poissons Ratio (y) = 0.51851 -0.22946
# Poissons Ratio (z) = 0.70367 -0.11898
#
# Static dielectric constant tensor:
#      x y z
#    x 1.772470 0.000000 0.000000 
#    y 0.000000 1.747930 0.000000 
#    z 0.000000 0.000000 1.741810 
# 
# From -- ./inp_files/66846.got.cif
#   From: 2010.05.17/outbox.cif.g08.bks.cpg/sg71_34_cif.got.tgz:66846.got - 2010.06.03 16:22:01.
