data_PCOD9520927
_publ_section_title
;
Structure prediction by ZEFSAII (Michael W. Deem and Ramdas Pophale) SiO2 
 PCOD9520927
Probable space group: I M M M
;
_chemical_formula_sum "Si O2"
_cell_formula_units_Z 72
_cell_length_a 37.723710
_cell_length_b 14.770689
_cell_length_c 7.809061
_cell_angle_alpha 90.000000
_cell_angle_beta 90.000000
_cell_angle_gamma 90.000000
_cell_volume 4351.249305
_symmetry_space_group_name_H-M "I M M M"
_symmetry_group_IT_number 71
_symmetry_cell_setting 'orthorhombic'
loop_
_space_group_symop_operation_xyz
x,y,z
-x,-y,z
x,-y,-z
-x,y,-z
-x,-y,-z
x,y,-z
-x,y,z
x,-y,z
1/2+x,1/2+y,1/2+z
1/2-x,1/2-y,1/2+z
1/2+x,1/2-y,1/2-z
1/2-x,1/2+y,1/2-z
1/2-x,1/2-y,1/2-z
1/2+x,1/2+y,1/2-z
1/2-x,1/2+y,1/2+z
1/2+x,1/2-y,1/2+z
loop_
_atom_site_type_symbol
_atom_site_label
_atom_site_fract_x
_atom_site_fract_y
_atom_site_fract_z
Si Si1 0.225054 0.606308 0.706129
Si Si2 0.040317 0.390200 0.000000
Si Si3 0.342212 0.779116 0.300910
Si Si4 0.091684 0.606168 0.692840
Si Si5 0.694546 0.603277 0.709363
O O1 0.223194 0.617212 0.500000
O O2 0.219204 0.500000 0.743186
O O3 0.194570 0.666087 0.787486
O O4 0.265226 0.628125 0.762036
O O5 0.062843 0.364862 0.167396
O O6 0.038620 0.500000 0.000000
O O7 0.000000 0.356357 0.000000
O O8 0.352445 0.772654 0.500000
O O9 0.373046 0.834273 0.209072
O O10 0.333073 0.679002 0.233243
O O11 0.077611 0.612263 0.500000
O O12 0.100780 0.500000 0.725426
O O13 0.694715 0.604248 0.500000
O O14 0.687372 0.500000 0.762492
#
# Coordination Sequence:
#
# PCOD9520927 Si02
#       5
#    16   8  16  16  16
#     4   9  17  29  43  59  83 119 161 202 247 296
#     4   9  18  34  54  76 103 131 161 193 224 276
#     4  11  19  27  44  66  90 122 160 204 246 285
#     4  10  20  33  49  72 103 133 159 191 232 278
#     4   8  16  30  44  59  83 119 164 209 252 294
#
# _framework density 16.546970999999999
#
# number of rings (size 3 to 8) (size 9 to 14) (size 15 to 20)
#    0.000    2.556    1.111    3.333    0.000    3.556 
#    0.000    3.333    0.000    5.333    0.000    0.000 
#    0.000    1.778    0.000    2.000    0.000    0.222 
#
# Total GULP energy -200826.062156 kJ/mol
# GULP energy per Si atom -5578.501727 kJ/mol
# Density = 1.650931 g / cm^3
# Si number density = 16.546971 Si / 1000 Ang^3
#
#
#
# Elastic Constant Matrix: (Units=GPa)
#
#
# Indices 1 2 3 4 5 6 
#
# 1 94.6408 55.8284 36.8528 0.0000 0.0000 0.0000
# 2 55.8284 55.7726 26.5594 -0.0001 0.0000 0.0000
# 3 36.8528 26.5594 57.9057 0.0000 0.0000 0.0000
# 4 0.0000 -0.0001 0.0000 7.9204 0.0000 0.0000
# 5 0.0000 0.0000 0.0000 0.0000 12.6640 0.0000
# 6 0.0000 0.0000 0.0000 0.0000 0.0000 13.7009
#
#
#
# Elastic Compliance Matrix: (Units=1/GPa)
#
#
# Indices 1 2 3 4 5 6 
#
# 1 0.027452 -0.024514 -0.006228 0.000000 0.000000 0.000000
# 2 -0.024514 0.044831 -0.004961 0.000000 0.000000 0.000000
# 3 -0.006228 -0.004961 0.023508 0.000000 0.000000 0.000000
# 4 0.000000 0.000000 0.000000 0.126256 0.000000 0.000000
# 5 0.000000 0.000000 0.000000 0.000000 0.078964 0.000000
# 6 0.000000 0.000000 0.000000 0.000000 0.000000 0.072988
#
#
# Mechanical properties :
#
#
# Convention : Reuss Voigt Hill
#
# Bulk Modulus (GPa) = 41.00681 49.64447 45.32564
# Shear Modulus (GPa) = 11.02459 12.79564 11.91012
#
# Velocity S-wave (km/s) = 2.58400 2.78383 2.68578
# Velocity P-wave (km/s) = 5.80850 6.35612 6.08847
#
# Compressibility (1/GPa) = 0.02438619
#
# Stress axis : x y z
#
# Youngs Moduli (GPa) = 36.42751 22.30618 42.53819
#
# Poissons Ratio (x) = 0.54681 0.26491
# Poissons Ratio (y) = 0.89297 0.21104
# Poissons Ratio (z) = 0.22685 0.11066
#
# Static dielectric constant tensor:
#      x y z
#    x 1.523400 0.000000 0.000000 
#    y 0.000000 1.566510 0.000000 
#    z 0.000000 0.000000 1.600530 
# 
# From -- ./inp_files/6421.got.cif
#   From: 2010.05.17/outbox.cif.g08.bks.cpg/sg71_4_cif.got.tgz:6421.got - 2010.06.03 16:22:01.
