data_PCOD9520880
_publ_section_title
;
Structure prediction by ZEFSAII (Michael W. Deem and Ramdas Pophale) SiO2 
 PCOD9520880
Probable space group: I M M M
;
_chemical_formula_sum "Si O2"
_cell_formula_units_Z 116
_cell_length_a 28.983559
_cell_length_b 28.392448
_cell_length_c 7.826885
_cell_angle_alpha 90.000000
_cell_angle_beta 90.000000
_cell_angle_gamma 90.000000
_cell_volume 6440.854744
_symmetry_space_group_name_H-M "I M M M"
_symmetry_group_IT_number 71
_symmetry_cell_setting 'orthorhombic'
loop_
_space_group_symop_operation_xyz
x,y,z
-x,-y,z
x,-y,-z
-x,y,-z
-x,-y,-z
x,y,-z
-x,y,z
x,-y,z
1/2+x,1/2+y,1/2+z
1/2-x,1/2-y,1/2+z
1/2+x,1/2-y,1/2-z
1/2-x,1/2+y,1/2-z
1/2-x,1/2-y,1/2-z
1/2+x,1/2+y,1/2-z
1/2-x,1/2+y,1/2+z
1/2+x,1/2-y,1/2+z
loop_
_atom_site_type_symbol
_atom_site_label
_atom_site_fract_x
_atom_site_fract_y
_atom_site_fract_z
Si Si1 0.798113 0.813071 0.801166
Si Si2 0.053054 0.946498 0.291550
Si Si3 0.921102 0.500000 0.500000
Si Si4 0.101755 0.673616 0.204637
Si Si5 0.197212 0.707062 0.298917
Si Si6 0.551620 0.266799 0.702821
Si Si7 0.444480 0.926238 0.700935
Si Si8 0.109334 0.142496 0.299959
O O1 0.812734 0.758154 0.782626
O O2 0.745755 0.813284 0.731180
O O3 0.836596 0.846775 0.722681
O O4 0.796454 0.825125 0.000000
O O5 0.054137 0.947465 0.500000
O O6 0.088597 0.906552 0.231389
O O7 0.000000 0.934856 0.243261
O O8 0.063132 0.000000 0.234485
O O9 0.924089 0.459574 0.346839
O O10 0.153729 0.673665 0.273436
O O11 0.076379 0.720261 0.273991
O O12 0.072922 0.626678 0.236215
O O13 0.105836 0.678193 0.000000
O O14 0.203781 0.716217 0.500000
O O15 0.547672 0.259010 0.500000
O O16 0.500000 0.273059 0.772716
O O17 0.581943 0.313133 0.725825
O O18 0.432866 0.937361 0.500000
O O19 0.500000 0.929324 0.714012
O O20 0.099344 0.142707 0.500000
#
# Coordination Sequence:
#
# PCOD9520880 Si02
#       8
#    16  16   4  16  16  16  16  16
#     4  10  20  34  50  72 104 139 173 212 266 322
#     4   8  15  29  48  71 101 134 170 217 267 306
#     4  12  23  38  60  86 110 144 190 238 282 320
#     4  10  20  34  53  77 107 144 176 210 266 326
#     4  10  20  33  52  76 102 134 176 222 261 312
#     4  10  20  33  48  69 105 148 176 200 250 319
#     4  10  21  37  57  82 112 145 185 232 278 329
#     4  11  20  30  49  77 102 132 177 221 260 308
#
# _framework density 18.010031999999999
#
# number of rings (size 3 to 8) (size 9 to 14) (size 15 to 20)
#    0.000    2.069    1.379    3.310    0.966    4.690 
#    0.000    0.000    0.000    1.655    1.793    4.828 
#    0.000    0.000    0.000    0.000    0.000    0.000 
#
# Total GULP energy -322929.242018 kJ/mol
# GULP energy per Si atom -5567.745552 kJ/mol
# Density = 1.796904 g / cm^3
# Si number density = 18.010032 Si / 1000 Ang^3
#
#
#
# Elastic Constant Matrix: (Units=GPa)
#
#
# Indices 1 2 3 4 5 6 
#
# 1 72.0163 39.9708 6.4587 0.0000 0.0000 0.0000
# 2 39.9708 104.4782 21.6437 0.0000 0.0000 0.0000
# 3 6.4587 21.6437 42.6910 0.0000 0.0000 0.0000
# 4 0.0000 0.0000 0.0000 -60.5343 0.0000 0.0000
# 5 0.0000 0.0000 0.0000 0.0000 15.0874 0.0000
# 6 0.0000 0.0000 0.0000 0.0000 0.0000 7.5037
#
#
#
# Elastic Compliance Matrix: (Units=1/GPa)
#
#
# Indices 1 2 3 4 5 6 
#
# 1 0.017656 -0.006929 0.000842 0.000000 0.000000 0.000000
# 2 -0.006929 0.013414 -0.005752 0.000000 0.000000 0.000000
# 3 0.000842 -0.005752 0.026213 0.000000 0.000000 0.000000
# 4 0.000000 0.000000 0.000000 -0.016520 0.000000 0.000000
# 5 0.000000 0.000000 0.000000 0.000000 0.066281 0.000000
# 6 0.000000 0.000000 0.000000 0.000000 0.000000 0.133267
#
#
# Mechanical properties :
#
#
# Convention : Reuss Voigt Hill
#
# Bulk Modulus (GPa) = 29.75860 39.48133 34.61997
# Shear Modulus (GPa) = 18.16912 2.48551 10.32732
#
# Velocity S-wave (km/s) = 3.17966 1.17604 2.39722
# Velocity P-wave (km/s) = 5.48083 4.87991 5.18908
#
# Compressibility (1/GPa) = 0.03360373
#
# Stress axis : x y z
#
# Youngs Moduli (GPa) = 56.63756 74.54911 38.14879
#
# Poissons Ratio (x) = 0.51657 -0.03211
# Poissons Ratio (y) = 0.39245 0.21945
# Poissons Ratio (z) = -0.04768 0.42883
#
# Static dielectric constant tensor:
#      x y z
#    x 1.642670 0.000000 0.000000 
#    y 0.000000 1.609710 0.000000 
#    z 0.000000 0.000000 1.663630 
# 
# From -- ./inp_files/17508.got.cif
#   From: 2010.05.17/outbox.cif.g08.bks.cpg/sg71_9_cif.got.tgz:17508.got - 2010.06.03 16:22:01.
