data_PCOD9520886
_publ_section_title
;
Structure prediction by ZEFSAII (Michael W. Deem and Ramdas Pophale) SiO2 
 PCOD9520886
Probable space group: I M M M
;
_chemical_formula_sum "Si O2"
_cell_formula_units_Z 104
_cell_length_a 14.875351
_cell_length_b 9.455558
_cell_length_c 34.659119
_cell_angle_alpha 90.000000
_cell_angle_beta 90.000000
_cell_angle_gamma 90.000000
_cell_volume 4874.969515
_symmetry_space_group_name_H-M "I M M M"
_symmetry_group_IT_number 71
_symmetry_cell_setting 'orthorhombic'
loop_
_space_group_symop_operation_xyz
x,y,z
-x,-y,z
x,-y,-z
-x,y,-z
-x,-y,-z
x,y,-z
-x,y,z
x,-y,z
1/2+x,1/2+y,1/2+z
1/2-x,1/2-y,1/2+z
1/2+x,1/2-y,1/2-z
1/2-x,1/2+y,1/2-z
1/2-x,1/2-y,1/2-z
1/2+x,1/2+y,1/2-z
1/2-x,1/2+y,1/2+z
1/2+x,1/2-y,1/2+z
loop_
_atom_site_type_symbol
_atom_site_label
_atom_site_fract_x
_atom_site_fract_y
_atom_site_fract_z
Si Si1 0.648652 0.166118 0.711611
Si Si2 0.602449 0.845794 0.432227
Si Si3 0.164588 0.330637 0.703175
Si Si4 0.608680 0.666649 0.956583
Si Si5 0.370578 0.338700 0.360024
Si Si6 0.841977 0.660656 0.380223
Si Si7 0.889011 0.158516 0.000000
O O1 0.752183 0.221856 0.708675
O O2 0.615521 0.180553 0.755604
O O3 0.605132 0.270838 0.680818
O O4 0.642678 0.000000 0.700814
O O5 0.500000 0.863215 0.446139
O O6 0.596331 0.768064 0.392120
O O7 0.645157 0.741960 0.462952
O O8 0.644807 0.000000 0.429799
O O9 0.192855 0.500000 0.701465
O O10 0.117247 0.299835 0.662111
O O11 0.500000 0.678507 0.955701
O O12 0.631102 0.500000 0.954006
O O13 0.642921 0.745478 0.918064
O O14 0.637119 0.715993 0.000000
O O15 0.400500 0.500000 0.364197
O O16 0.263365 0.339105 0.368481
O O17 0.869754 0.500000 0.389349
O O18 0.000000 0.150002 0.000000
O O19 0.856335 0.000000 0.000000
#
# Coordination Sequence:
#
# PCOD9520886 Si02
#       7
#    16  16  16  16  16  16   8
#     4   9  15  25  44  68  95 129 166 202 242 291
#     4  10  20  34  52  73  96 126 169 213 248 291
#     4   8  15  27  43  67  99 129 159 199 246 294
#     4   9  19  36  55  74  98 129 164 202 246 298
#     4  10  20  33  48  71 104 135 164 205 253 300
#     4   9  18  32  50  75 103 128 159 201 245 293
#     4   9  17  31  51  71  91 119 156 197 242 289
#
# _framework density 21.333466999999999
#
# number of rings (size 3 to 8) (size 9 to 14) (size 15 to 20)
#    0.000    2.846    0.000    3.000    0.000    6.154 
#    1.385    0.769    0.000    0.923    0.000    2.154 
#    0.000    0.000    0.000    0.000    0.000    0.000 
#
# Total GULP energy -289543.613917 kJ/mol
# GULP energy per Si atom -5568.146421 kJ/mol
# Density = 2.128491 g / cm^3
# Si number density = 21.333467 Si / 1000 Ang^3
#
#
#
# Elastic Constant Matrix: (Units=GPa)
#
#
# Indices 1 2 3 4 5 6 
#
# 1 40.3048 7.4371 14.0446 0.0000 0.0000 0.0000
# 2 7.4371 149.3814 92.6491 0.0000 0.0000 0.0000
# 3 14.0446 92.6491 210.5735 0.0000 0.0000 0.0000
# 4 0.0000 0.0000 0.0000 36.3370 0.0000 0.0000
# 5 0.0000 0.0000 0.0000 0.0000 28.3813 0.0000
# 6 0.0000 0.0000 0.0000 0.0000 0.0000 5.7323
#
#
#
# Elastic Compliance Matrix: (Units=1/GPa)
#
#
# Indices 1 2 3 4 5 6 
#
# 1 0.025411 -0.000294 -0.001565 0.000000 0.000000 0.000000
# 2 -0.000294 0.009210 -0.004033 0.000000 0.000000 0.000000
# 3 -0.001565 -0.004033 0.006628 0.000000 0.000000 0.000000
# 4 0.000000 0.000000 0.000000 0.027520 0.000000 0.000000
# 5 0.000000 0.000000 0.000000 0.000000 0.035234 0.000000
# 6 0.000000 0.000000 0.000000 0.000000 0.000000 0.174450
#
#
# Mechanical properties :
#
#
# Convention : Reuss Voigt Hill
#
# Bulk Modulus (GPa) = 33.93987 69.83571 51.88779
# Shear Modulus (GPa) = 16.66340 33.16538 24.91439
#
# Velocity S-wave (km/s) = 2.79783 3.94714 3.42110
# Velocity P-wave (km/s) = 5.13624 7.31981 6.32299
#
# Compressibility (1/GPa) = 0.02946388
#
# Stress axis : x y z
#
# Youngs Moduli (GPa) = 39.35354 108.57708 150.88318
#
# Poissons Ratio (x) = 0.03195 0.23618
# Poissons Ratio (y) = 0.01158 0.60846
# Poissons Ratio (z) = 0.06160 0.43785
#
# Static dielectric constant tensor:
#      x y z
#    x 1.996180 0.000000 0.000000 
#    y 0.000000 1.745460 0.000000 
#    z 0.000000 0.000000 1.868980 
# 
# From -- ./inp_files/70751.got.cif
#   From: 2010.05.17/outbox.cif.g08.bks.cpg/sg71_36_cif.got.tgz:70751.got - 2010.06.03 16:22:01.
