data_PCOD9520614
_publ_section_title
;
Structure prediction by ZEFSAII (Michael W. Deem and Ramdas Pophale) SiO2 
 PCOD9520614
Probable space group: I M M M
;
_chemical_formula_sum "Si O2"
_cell_formula_units_Z 120
_cell_length_a 23.233347
_cell_length_b 22.289422
_cell_length_c 14.333251
_cell_angle_alpha 90.000000
_cell_angle_beta 90.000000
_cell_angle_gamma 90.000000
_cell_volume 7422.586916
_symmetry_space_group_name_H-M "I M M M"
_symmetry_group_IT_number 71
_symmetry_cell_setting 'orthorhombic'
loop_
_space_group_symop_operation_xyz
x,y,z
-x,-y,z
x,-y,-z
-x,y,-z
-x,-y,-z
x,y,-z
-x,y,z
x,-y,z
1/2+x,1/2+y,1/2+z
1/2-x,1/2-y,1/2+z
1/2+x,1/2-y,1/2-z
1/2-x,1/2+y,1/2-z
1/2-x,1/2-y,1/2-z
1/2+x,1/2+y,1/2-z
1/2-x,1/2+y,1/2+z
1/2+x,1/2-y,1/2+z
loop_
_atom_site_type_symbol
_atom_site_label
_atom_site_fract_x
_atom_site_fract_y
_atom_site_fract_z
Si Si1 0.699717 0.800876 0.389202
Si Si2 0.563475 0.727617 0.231710
Si Si3 0.000000 0.571791 0.890838
Si Si4 0.129969 0.823037 0.890088
Si Si5 0.830803 0.624178 0.390823
Si Si6 0.098923 0.362020 0.778954
Si Si7 0.291287 0.432626 0.386730
Si Si8 0.174570 0.768286 0.390120
O O1 0.699001 0.814053 0.500000
O O2 0.672734 0.734114 0.378416
O O3 0.657527 0.845138 0.334371
O O4 0.765868 0.798051 0.356539
O O5 0.500000 0.715685 0.193536
O O6 0.575513 0.691652 0.326688
O O7 0.569167 0.798162 0.256321
O O8 0.617213 0.713741 0.164411
O O9 0.944029 0.598669 0.839800
O O10 0.000000 0.500000 0.885115
O O11 0.000000 0.589383 0.000000
O O12 0.162779 0.882709 0.857869
O O13 0.116701 0.827279 0.000000
O O14 0.843746 0.612739 0.500000
O O15 0.881628 0.609559 0.319192
O O16 0.772941 0.589308 0.364045
O O17 0.819564 0.695896 0.381261
O O18 0.293389 0.433072 0.500000
O O19 0.302235 0.500000 0.353113
O O20 0.168746 0.780923 0.500000
#
# Coordination Sequence:
#
# PCOD9520614 Si02
#       8
#    16  16   8  16  16  16  16  16
#     4   9  16  28  48  74  97 124 159 201 250 294
#     4  10  20  31  46  71  96 127 163 197 240 293
#     4  11  24  42  57  69  95 133 171 213 254 291
#     4   9  17  28  44  67  97 125 153 194 241 284
#     4   9  17  29  46  71 103 132 161 196 239 286
#     4  10  20  33  52  72  98 128 168 206 241 290
#     4   9  16  27  44  67  96 128 160 190 228 283
#     4   9  17  29  47  70 101 130 156 197 250 294
#
# _framework density 16.166871
#
# number of rings (size 3 to 8) (size 9 to 14) (size 15 to 20)
#    0.000    2.600    2.000    0.400    1.867    3.200 
#    0.000    0.333    0.000    0.800    0.000    1.867 
#    0.000    0.533    0.000    1.200    0.000    0.133 
#
# Total GULP energy -334403.129576 kJ/mol
# GULP energy per Si atom -5573.385493 kJ/mol
# Density = 1.613007 g / cm^3
# Si number density = 16.166871 Si / 1000 Ang^3
#
#
#
# Elastic Constant Matrix: (Units=GPa)
#
#
# Indices 1 2 3 4 5 6 
#
# 1 101.0423 15.8697 35.7311 0.0000 0.0000 0.0000
# 2 15.8697 42.2002 14.4198 0.0000 0.0000 0.0000
# 3 35.7311 14.4198 53.7226 0.0000 0.0000 0.0000
# 4 0.0000 0.0000 0.0000 12.1444 0.0000 0.0000
# 5 0.0000 0.0000 0.0000 0.0000 24.8010 0.0000
# 6 0.0000 0.0000 0.0000 0.0000 0.0000 13.9425
#
#
#
# Elastic Compliance Matrix: (Units=1/GPa)
#
#
# Indices 1 2 3 4 5 6 
#
# 1 0.013115 -0.002148 -0.008146 0.000000 0.000000 0.000000
# 2 -0.002148 0.026441 -0.005668 0.000000 0.000000 0.000000
# 3 -0.008146 -0.005668 0.025554 0.000000 0.000000 0.000000
# 4 0.000000 0.000000 0.000000 0.082343 0.000000 0.000000
# 5 0.000000 0.000000 0.000000 0.000000 0.040321 0.000000
# 6 0.000000 0.000000 0.000000 0.000000 0.000000 0.071723
#
#
# Mechanical properties :
#
#
# Convention : Reuss Voigt Hill
#
# Bulk Modulus (GPa) = 30.13480 36.55626 33.34553
# Shear Modulus (GPa) = 16.52984 18.90723 17.71853
#
# Velocity S-wave (km/s) = 3.20105 3.42351 3.31415
# Velocity P-wave (km/s) = 5.68705 6.18774 5.94267
#
# Compressibility (1/GPa) = 0.03318423
#
# Stress axis : x y z
#
# Youngs Moduli (GPa) = 76.24888 37.81958 39.13347
#
# Poissons Ratio (x) = 0.08125 0.31879
# Poissons Ratio (y) = 0.16382 0.22182
# Poissons Ratio (z) = 0.62113 0.21437
#
# Static dielectric constant tensor:
#      x y z
#    x 1.542660 0.000000 0.000000 
#    y 0.000000 1.524690 0.000000 
#    z 0.000000 0.000000 1.577270 
# 
# From -- ./inp_files/38416.got.cif
#   From: 2010.05.17/outbox.cif.g08.bks.cpg/sg71_20_cif.got.tgz:38416.got - 2010.06.03 16:22:01.
