data_PCOD9520511
_publ_section_title
;
Structure prediction by ZEFSAII (Michael W. Deem and Ramdas Pophale) SiO2 
 PCOD9520511
Probable space group: I M M M
;
_chemical_formula_sum "Si O2"
_cell_formula_units_Z 54
_cell_length_a 10.390057
_cell_length_b 13.665026
_cell_length_c 18.947874
_cell_angle_alpha 90.000000
_cell_angle_beta 90.000000
_cell_angle_gamma 90.000000
_cell_volume 2690.226712
_symmetry_space_group_name_H-M "I M M M"
_symmetry_group_IT_number 71
_symmetry_cell_setting 'orthorhombic'
loop_
_space_group_symop_operation_xyz
x,y,z
-x,-y,z
x,-y,-z
-x,y,-z
-x,-y,-z
x,y,-z
-x,y,z
x,-y,z
1/2+x,1/2+y,1/2+z
1/2-x,1/2-y,1/2+z
1/2+x,1/2-y,1/2-z
1/2-x,1/2+y,1/2-z
1/2-x,1/2-y,1/2-z
1/2+x,1/2+y,1/2-z
1/2-x,1/2+y,1/2+z
1/2+x,1/2-y,1/2+z
loop_
_atom_site_type_symbol
_atom_site_label
_atom_site_fract_x
_atom_site_fract_y
_atom_site_fract_z
Si Si1 0.283356 0.825438 0.500000
Si Si2 0.500000 0.000000 0.500000
Si Si3 0.857554 0.293053 0.848560
Si Si4 0.500000 0.886553 0.131412
Si Si5 0.500000 0.733851 0.000000
Si Si6 0.239450 0.109905 0.775642
O O1 0.383561 0.915597 0.500000
O O2 0.314802 0.770630 0.427414
O O3 0.128407 0.832717 0.500000
O O4 0.852525 0.193534 0.804429
O O5 0.767693 0.368015 0.806337
O O6 0.000000 0.336061 0.849761
O O7 0.374048 0.876398 0.181313
O O8 0.500000 0.000000 0.104840
O O9 0.500000 0.806786 0.068626
O O10 0.194311 0.000000 0.786433
#
# Coordination Sequence:
#
# PCOD9520511 Si02
#       6
#     8   2  16   8   4  16
#     4  12  26  42  69  94 131 167 223 267 330 388
#     4  12  28  46  68  96 114 186 224 262 336 406
#     4  11  22  40  64  92 127 171 218 269 326 391
#     4  10  19  37  65  97 125 164 207 257 326 394
#     4  12  23  43  66  98 136 168 208 277 321 386
#     4  10  22  38  64  94 125 165 215 271 325 389
#
# _framework density 20.072659000000002
#
# number of rings (size 3 to 8) (size 9 to 14) (size 15 to 20)
#    0.000    1.185    5.926    0.222    2.074    0.889 
#    0.000    0.741    0.000    1.778    0.000    0.000 
#    0.000    0.000    0.000    0.000    0.000    0.000 
#
# Total GULP energy -150326.856940 kJ/mol
# GULP energy per Si atom -5567.661368 kJ/mol
# Density = 2.002697 g / cm^3
# Si number density = 20.072659 Si / 1000 Ang^3
#
#
#
# Elastic Constant Matrix: (Units=GPa)
#
#
# Indices 1 2 3 4 5 6 
#
# 1 87.7748 12.1678 9.6825 0.0000 0.0000 0.0000
# 2 12.1678 72.7722 -1.4520 0.0000 0.0000 0.0000
# 3 9.6825 -1.4520 106.4127 0.0000 0.0000 0.0000
# 4 0.0000 0.0000 0.0000 -10.0133 0.0000 0.0000
# 5 0.0000 0.0000 0.0000 0.0000 17.0102 0.0000
# 6 0.0000 0.0000 0.0000 0.0000 0.0000 19.3594
#
#
#
# Elastic Compliance Matrix: (Units=1/GPa)
#
#
# Indices 1 2 3 4 5 6 
#
# 1 0.011790 -0.001993 -0.001100 0.000000 0.000000 0.000000
# 2 -0.001993 0.014082 0.000374 0.000000 0.000000 0.000000
# 3 -0.001100 0.000374 0.009503 0.000000 0.000000 0.000000
# 4 0.000000 0.000000 0.000000 -0.099868 0.000000 0.000000
# 5 0.000000 0.000000 0.000000 0.000000 0.058788 0.000000
# 6 0.000000 0.000000 0.000000 0.000000 0.000000 0.051655
#
#
# Mechanical properties :
#
#
# Convention : Reuss Voigt Hill
#
# Bulk Modulus (GPa) = 33.40506 34.19516 33.80011
# Shear Modulus (GPa) = 81.47493 21.70870 51.59181
#
# Velocity S-wave (km/s) = 6.37794 3.29219 5.07527
# Velocity P-wave (km/s) = 8.42115 5.61463 7.15681
#
# Compressibility (1/GPa) = 0.02993558
#
# Stress axis : x y z
#
# Youngs Moduli (GPa) = 84.81430 71.01135 105.23480
#
# Poissons Ratio (x) = 0.14155 0.11576
# Poissons Ratio (y) = 0.16907 -0.03931
# Poissons Ratio (z) = 0.09330 -0.02652
#
# Static dielectric constant tensor:
#      x y z
#    x 1.705800 0.000000 0.000000 
#    y 0.000000 1.669290 0.000000 
#    z 0.000000 0.000000 1.728920 
# 
# From -- ./inp_files/42826.got.cif
#   From: 2010.05.17/outbox.cif.g08.bks.cpg/sg71_22_cif.got.tgz:42826.got - 2010.06.03 16:22:01.
