data_PCOD9520971
_publ_section_title
;
Structure prediction by ZEFSAII (Michael W. Deem and Ramdas Pophale) SiO2 
 PCOD9520971
Probable space group: I M M M
;
_chemical_formula_sum "Si O2"
_cell_formula_units_Z 112
_cell_length_a 15.015551
_cell_length_b 23.964034
_cell_length_c 15.910374
_cell_angle_alpha 90.000000
_cell_angle_beta 90.000000
_cell_angle_gamma 90.000000
_cell_volume 5725.080387
_symmetry_space_group_name_H-M "I M M M"
_symmetry_group_IT_number 71
_symmetry_cell_setting 'orthorhombic'
loop_
_space_group_symop_operation_xyz
x,y,z
-x,-y,z
x,-y,-z
-x,y,-z
-x,-y,-z
x,y,-z
-x,y,z
x,-y,z
1/2+x,1/2+y,1/2+z
1/2-x,1/2-y,1/2+z
1/2+x,1/2-y,1/2-z
1/2-x,1/2+y,1/2-z
1/2-x,1/2-y,1/2-z
1/2+x,1/2+y,1/2-z
1/2-x,1/2+y,1/2+z
1/2+x,1/2-y,1/2+z
loop_
_atom_site_type_symbol
_atom_site_label
_atom_site_fract_x
_atom_site_fract_y
_atom_site_fract_z
Si Si1 0.598353 0.110537 0.402754
Si Si2 0.399103 0.435681 0.602536
Si Si3 0.101309 0.836653 0.601018
Si Si4 0.221797 0.938240 0.603254
Si Si5 0.396844 0.781930 0.828081
Si Si6 0.265992 0.659732 0.597991
Si Si7 0.897701 0.738127 0.870532
O O1 0.590888 0.093375 0.500000
O O2 0.500000 0.105710 0.363414
O O3 0.678312 0.074659 0.366340
O O4 0.623619 0.175993 0.403018
O O5 0.399031 0.433790 0.500000
O O6 0.500000 0.420342 0.629156
O O7 0.382325 0.500000 0.626696
O O8 0.324780 0.391993 0.630843
O O9 0.100547 0.838994 0.500000
O O10 0.159957 0.887792 0.632292
O O11 0.132544 0.775424 0.626871
O O12 0.000000 0.842197 0.631830
O O13 0.222259 0.936629 0.500000
O O14 0.191966 0.000000 0.627743
O O15 0.500000 0.794447 0.851907
O O16 0.324565 0.828012 0.852176
O O17 0.395152 0.768651 0.729739
O O18 0.243885 0.650444 0.500000
O O19 0.330115 0.713996 0.603021
O O20 0.000000 0.751339 0.895822
#
# Coordination Sequence:
#
# PCOD9520971 Si02
#       7
#    16  16  16  16  16  16  16
#     4   9  17  29  46  69  96 122 149 188 237 284
#     4   8  15  29  49  75 105 130 154 193 247 300
#     4   9  17  30  48  68  91 121 158 199 239 276
#     4   9  17  28  43  65  91 119 154 195 236 277
#     4  10  21  35  50  70 100 136 167 199 244 298
#     4  11  20  30  51  78 101 128 165 206 245 293
#     4  10  20  33  50  73 101 130 161 201 249 298
#
# _framework density 19.563044000000001
#
# number of rings (size 3 to 8) (size 9 to 14) (size 15 to 20)
#    0.000    2.571    0.000    3.000    0.000    4.000 
#    0.000    2.857    0.000    3.857    0.000    6.000 
#    0.000    0.000    0.000    0.000    0.000    0.000 
#
# Total GULP energy -312449.702327 kJ/mol
# GULP energy per Si atom -5579.458970 kJ/mol
# Density = 1.951852 g / cm^3
# Si number density = 19.563044 Si / 1000 Ang^3
#
#
#
# Elastic Constant Matrix: (Units=GPa)
#
#
# Indices 1 2 3 4 5 6 
#
# 1 94.2924 73.9905 14.0792 0.0001 0.0000 0.0000
# 2 73.9905 88.4396 5.7932 0.0002 -0.0001 0.0000
# 3 14.0792 5.7932 17.5548 0.0003 -0.0001 0.0000
# 4 0.0001 0.0002 0.0003 -32.1495 -0.0001 0.0001
# 5 0.0000 -0.0001 -0.0001 -0.0001 12.4155 0.0000
# 6 0.0000 0.0000 0.0000 0.0001 0.0000 23.2731
#
#
#
# Elastic Compliance Matrix: (Units=1/GPa)
#
#
# Indices 1 2 3 4 5 6 
#
# 1 0.036460 -0.029219 -0.019599 0.000000 0.000000 0.000000
# 2 -0.029219 0.034974 0.011893 0.000000 0.000000 0.000000
# 3 -0.019599 0.011893 0.068758 0.000001 0.000000 0.000000
# 4 0.000000 0.000000 0.000001 -0.031105 0.000000 0.000000
# 5 0.000000 0.000000 0.000000 0.000000 0.080544 0.000000
# 6 0.000000 0.000000 0.000000 0.000000 0.000000 0.042968
#
#
# Mechanical properties :
#
#
# Convention : Reuss Voigt Hill
#
# Bulk Modulus (GPa) = 15.07358 43.11252 29.09305
# Shear Modulus (GPa) = 15.21773 7.80276 11.51025
#
# Velocity S-wave (km/s) = 2.79208 1.99929 2.42826
# Velocity P-wave (km/s) = 4.25630 5.23595 4.77134
#
# Compressibility (1/GPa) = 0.06634126
#
# Stress axis : x y z
#
# Youngs Moduli (GPa) = 27.42739 28.59295 14.54367
#
# Poissons Ratio (x) = 0.83547 0.28504
# Poissons Ratio (y) = 0.80141 -0.17297
# Poissons Ratio (z) = 0.53755 -0.34005
#
# Static dielectric constant tensor:
#      x y z
#    x 1.716040 0.000000 0.000000 
#    y 0.000000 1.678730 0.000000 
#    z 0.000000 0.000000 1.684710 
# 
# From -- ./inp_files/34853.got.cif
#   From: 2010.05.17/outbox.cif.g08.bks.cpg/sg71_18_cif.got.tgz:34853.got - 2010.06.03 16:22:01.
