data_PCOD9520863
_publ_section_title
;
Structure prediction by ZEFSAII (Michael W. Deem and Ramdas Pophale) SiO2 
 PCOD9520863
Probable space group: I M M M
;
_chemical_formula_sum "Si O2"
_cell_formula_units_Z 80
_cell_length_a 33.748538
_cell_length_b 8.689295
_cell_length_c 19.497279
_cell_angle_alpha 90.000000
_cell_angle_beta 90.000000
_cell_angle_gamma 90.000000
_cell_volume 5717.596613
_symmetry_space_group_name_H-M "I M M M"
_symmetry_group_IT_number 71
_symmetry_cell_setting 'orthorhombic'
loop_
_space_group_symop_operation_xyz
x,y,z
-x,-y,z
x,-y,-z
-x,y,-z
-x,-y,-z
x,y,-z
-x,y,z
x,-y,z
1/2+x,1/2+y,1/2+z
1/2-x,1/2-y,1/2+z
1/2+x,1/2-y,1/2-z
1/2-x,1/2+y,1/2-z
1/2-x,1/2-y,1/2-z
1/2+x,1/2+y,1/2-z
1/2-x,1/2+y,1/2+z
1/2+x,1/2-y,1/2+z
loop_
_atom_site_type_symbol
_atom_site_label
_atom_site_fract_x
_atom_site_fract_y
_atom_site_fract_z
Si Si1 0.045652 0.684843 0.080634
Si Si2 0.669537 0.817809 0.500000
Si Si3 0.312458 0.816166 0.724319
Si Si4 0.257220 0.817391 0.000000
Si Si5 0.624013 0.682052 0.629742
Si Si6 0.730994 0.684156 0.146243
O O1 0.050477 0.500000 0.086218
O O2 0.078249 0.768790 0.126181
O O3 0.000000 0.722001 0.097238
O O4 0.051992 0.724363 0.000000
O O5 0.710942 0.729129 0.500000
O O6 0.644783 0.770707 0.566642
O O7 0.677340 0.000000 0.500000
O O8 0.351735 0.735292 0.696319
O O9 0.298506 0.758260 0.798522
O O10 0.275602 0.777832 0.673172
O O11 0.317264 0.000000 0.723879
O O12 0.274476 0.747293 0.069979
O O13 0.261422 0.000000 0.000000
O O14 0.627990 0.500000 0.620020
O O15 0.727381 0.500000 0.147409
#
# Coordination Sequence:
#
# PCOD9520863 Si02
#       6
#    16   8  16   8  16  16
#     4   9  18  32  48  64  86 117 150 185 227 271
#     4  12  22  32  43  61  86 116 154 192 227 264
#     4  10  20  33  48  64  88 118 149 186 227 270
#     4  12  22  32  48  67  89 116 151 189 228 271
#     4  12  22  31  46  67  89 115 149 191 231 270
#     4  10  20  33  48  65  89 117 148 187 228 267
#
# _framework density 13.991892999999999
#
# number of rings (size 3 to 8) (size 9 to 14) (size 15 to 20)
#    0.000    1.400    3.000    5.400    0.000    2.000 
#    0.000    1.000    0.000    0.000    0.000    0.000 
#    0.000    0.000    0.000    0.900    0.000   16.600 
#
# Total GULP energy -223401.173047 kJ/mol
# GULP energy per Si atom -5585.029326 kJ/mol
# Density = 1.396005 g / cm^3
# Si number density = 13.991893 Si / 1000 Ang^3
#
#
#
# Elastic Constant Matrix: (Units=GPa)
#
#
# Indices 1 2 3 4 5 6 
#
# 1 69.4647 13.7277 26.7568 0.0000 0.0000 0.0000
# 2 13.7277 37.0777 13.7863 0.0000 0.0000 0.0000
# 3 26.7568 13.7863 80.1200 0.0000 0.0000 0.0000
# 4 0.0000 0.0000 0.0000 22.9884 0.0000 0.0000
# 5 0.0000 0.0000 0.0000 0.0000 23.8980 0.0000
# 6 0.0000 0.0000 0.0000 0.0000 0.0000 21.3486
#
#
#
# Elastic Compliance Matrix: (Units=1/GPa)
#
#
# Indices 1 2 3 4 5 6 
#
# 1 0.017203 -0.004522 -0.004967 0.000000 0.000000 0.000000
# 2 -0.004522 0.030003 -0.003652 0.000000 0.000000 0.000000
# 3 -0.004967 -0.003652 0.014768 0.000000 0.000000 0.000000
# 4 0.000000 0.000000 0.000000 0.043500 0.000000 0.000000
# 5 0.000000 0.000000 0.000000 0.000000 0.041844 0.000000
# 6 0.000000 0.000000 0.000000 0.000000 0.000000 0.046841
#
#
# Mechanical properties :
#
#
# Convention : Reuss Voigt Hill
#
# Bulk Modulus (GPa) = 28.01838 32.80045 30.40941
# Shear Modulus (GPa) = 21.52019 22.47311 21.99665
#
# Velocity S-wave (km/s) = 3.92605 4.01203 3.96927
# Velocity P-wave (km/s) = 6.37338 6.70486 6.54122
#
# Compressibility (1/GPa) = 0.03569086
#
# Stress axis : x y z
#
# Youngs Moduli (GPa) = 58.13056 33.33028 67.71191
#
# Poissons Ratio (x) = 0.15073 0.33631
# Poissons Ratio (y) = 0.26289 0.24730
# Poissons Ratio (z) = 0.28872 0.12173
#
# Static dielectric constant tensor:
#      x y z
#    x 1.458350 0.000000 0.000000 
#    y 0.000000 1.460060 0.000000 
#    z 0.000000 0.000000 1.449880 
# 
# From -- ./inp_files/8697.got.cif
#   From: 2010.05.17/outbox.cif.g08.bks.cpg/sg71_5_cif.got.tgz:8697.got - 2010.06.03 16:22:01.
