data_PCOD9520015
_publ_section_title
;
Structure prediction by ZEFSAII (Michael W. Deem and Ramdas Pophale) SiO2 
 PCOD9520015
Probable space group: I M M M
;
_chemical_formula_sum "Si O2"
_cell_formula_units_Z 76
_cell_length_a 7.369763
_cell_length_b 26.724515
_cell_length_c 17.548700
_cell_angle_alpha 90.000000
_cell_angle_beta 90.000000
_cell_angle_gamma 90.000000
_cell_volume 3456.275110
_symmetry_space_group_name_H-M "I M M M"
_symmetry_group_IT_number 71
_symmetry_cell_setting 'orthorhombic'
loop_
_space_group_symop_operation_xyz
x,y,z
-x,-y,z
x,-y,-z
-x,y,-z
-x,-y,-z
x,y,-z
-x,y,z
x,-y,z
1/2+x,1/2+y,1/2+z
1/2-x,1/2-y,1/2+z
1/2+x,1/2-y,1/2-z
1/2-x,1/2+y,1/2-z
1/2-x,1/2-y,1/2-z
1/2+x,1/2+y,1/2-z
1/2-x,1/2+y,1/2+z
1/2+x,1/2-y,1/2+z
loop_
_atom_site_type_symbol
_atom_site_label
_atom_site_fract_x
_atom_site_fract_y
_atom_site_fract_z
Si Si1 0.780080 0.824771 0.414359
Si Si2 0.000000 0.000000 0.631646
Si Si3 0.721356 0.942285 0.000000
Si Si4 0.216180 0.272922 0.666745
Si Si5 0.291866 0.920826 0.318334
Si Si6 0.278610 0.113248 0.153852
O O1 0.725061 0.837939 0.500000
O O2 0.718133 0.769104 0.392010
O O3 0.713393 0.865467 0.354310
O O4 0.000000 0.825282 0.411110
O O5 0.841677 0.043527 0.636149
O O6 0.779006 0.913902 0.076626
O O7 0.500000 0.941908 0.000000
O O8 0.778421 0.000000 0.000000
O O9 0.250000 0.250000 0.750000
O O10 0.285736 0.329291 0.658249
O O11 0.000000 0.276554 0.656333
O O12 0.500000 0.938259 0.319064
O O13 0.227238 0.916075 0.230654
O O14 0.500000 0.113972 0.154555
#
# Coordination Sequence:
#
# PCOD9520015 Si02
#       6
#    16   4   8  16  16  16
#     4  10  21  38  61  92 132 174 218 265 330 396
#     4  12  26  44  69  97 126 170 220 274 334 379
#     4   9  18  32  54  86 126 170 216 274 323 374
#     4  10  19  33  57  89 124 166 210 262 319 387
#     4  11  23  42  67  97 126 168 219 271 327 394
#     4   9  19  34  57  90 129 167 221 267 321 391
#
# _framework density 21.988990999999999
#
# number of rings (size 3 to 8) (size 9 to 14) (size 15 to 20)
#    0.000    2.000    3.158    0.316    2.947    0.421 
#    0.000    1.053    0.000    2.526    0.000    0.000 
#    0.000    0.000    0.000    0.000    0.000    0.000 
#
# Total GULP energy -211898.718146 kJ/mol
# GULP energy per Si atom -5576.282056 kJ/mol
# Density = 2.193894 g / cm^3
# Si number density = 21.988991 Si / 1000 Ang^3
#
#
#
# Elastic Constant Matrix: (Units=GPa)
#
#
# Indices 1 2 3 4 5 6 
#
# 1 104.5960 7.5320 -9.8440 0.0000 0.0000 0.0000
# 2 7.5320 103.6995 2.7247 0.0000 0.0000 0.0000
# 3 -9.8440 2.7247 92.1973 0.0001 0.0000 0.0000
# 4 0.0000 0.0000 0.0001 60.6813 0.0000 0.0000
# 5 0.0000 0.0000 0.0000 0.0000 0.1802 0.0000
# 6 0.0000 0.0000 0.0000 0.0000 0.0000 80.0888
#
#
#
# Elastic Compliance Matrix: (Units=1/GPa)
#
#
# Indices 1 2 3 4 5 6 
#
# 1 0.009713 -0.000733 0.001059 0.000000 0.000000 0.000000
# 2 -0.000733 0.009706 -0.000365 0.000000 0.000000 0.000000
# 3 0.001059 -0.000365 0.010970 0.000000 -0.000001 0.000000
# 4 0.000000 0.000000 0.000000 0.016480 0.000001 0.000000
# 5 0.000000 0.000000 -0.000001 0.000001 5.548691 0.000000
# 6 0.000000 0.000000 0.000000 0.000000 0.000000 0.012486
#
#
# Mechanical properties :
#
#
# Convention : Reuss Voigt Hill
#
# Bulk Modulus (GPa) = 32.99255 33.47981 33.23618
# Shear Modulus (GPa) = 0.88996 48.19540 24.54268
#
# Velocity S-wave (km/s) = 0.63687 4.68674 3.34448
# Velocity P-wave (km/s) = 3.94684 6.67429 5.48287
#
# Compressibility (1/GPa) = 0.03030987
#
# Stress axis : x y z
#
# Youngs Moduli (GPa) = 102.95437 103.02792 91.15654
#
# Poissons Ratio (x) = 0.07555 -0.09651
# Poissons Ratio (y) = 0.07550 0.03329
# Poissons Ratio (z) = -0.10900 0.03762
#
# Static dielectric constant tensor:
#      x y z
#    x 1.861860 0.000000 0.000000 
#    y 0.000000 1.774290 0.000000 
#    z 0.000000 0.000000 1.782180 
# 
# From -- ./inp_files/42249.got.cif
#   From: 2010.05.17/outbox.cif.g08.bks.cpg/sg71_22_cif.got.tgz:42249.got - 2010.06.03 16:22:01.
