data_PCOD9520865
_publ_section_title
;
Structure prediction by ZEFSAII (Michael W. Deem and Ramdas Pophale) SiO2 
 PCOD9520865
Probable space group: I M M M
;
_chemical_formula_sum "Si O2"
_cell_formula_units_Z 120
_cell_length_a 28.879042
_cell_length_b 8.943361
_cell_length_c 30.431300
_cell_angle_alpha 90.000000
_cell_angle_beta 90.000000
_cell_angle_gamma 90.000000
_cell_volume 7859.665247
_symmetry_space_group_name_H-M "I M M M"
_symmetry_group_IT_number 71
_symmetry_cell_setting 'orthorhombic'
loop_
_space_group_symop_operation_xyz
x,y,z
-x,-y,z
x,-y,-z
-x,y,-z
-x,-y,-z
x,y,-z
-x,y,z
x,-y,z
1/2+x,1/2+y,1/2+z
1/2-x,1/2-y,1/2+z
1/2+x,1/2-y,1/2-z
1/2-x,1/2+y,1/2-z
1/2-x,1/2-y,1/2-z
1/2+x,1/2+y,1/2-z
1/2-x,1/2+y,1/2+z
1/2+x,1/2-y,1/2+z
loop_
_atom_site_type_symbol
_atom_site_label
_atom_site_fract_x
_atom_site_fract_y
_atom_site_fract_z
Si Si1 0.943818 0.827893 0.788893
Si Si2 0.000000 0.681609 0.449805
Si Si3 0.369696 0.180409 0.551227
Si Si4 0.408491 0.820110 0.896018
Si Si5 0.726836 0.328213 0.553313
Si Si6 0.053207 0.320125 0.879564
Si Si7 0.054590 0.180901 0.308884
Si Si8 0.323459 0.321347 0.052006
O O1 0.930531 0.735434 0.831752
O O2 0.929829 0.774084 0.740331
O O3 0.000000 0.827282 0.787522
O O4 0.929058 0.000000 0.794169
O O5 0.046204 0.727038 0.424156
O O6 0.000000 0.500000 0.450727
O O7 0.000000 0.735048 0.500000
O O8 0.377571 0.220751 0.500000
O O9 0.321205 0.251044 0.566491
O O10 0.411932 0.228730 0.582219
O O11 0.365968 0.000000 0.553109
O O12 0.416461 0.756112 0.847397
O O13 0.363468 0.755021 0.919713
O O14 0.406560 0.000000 0.895185
O O15 0.726352 0.327465 0.500000
O O16 0.729067 0.500000 0.567970
O O17 0.773051 0.239360 0.565896
O O18 0.052507 0.500000 0.879537
O O19 0.000000 0.268545 0.886536
O O20 0.000000 0.220628 0.314326
O O21 0.057414 0.000000 0.311270
O O22 0.325162 0.500000 0.056464
O O23 0.329905 0.285133 0.000000
#
# Coordination Sequence:
#
# PCOD9520865 Si02
#       8
#    16   8  16  16  16  16  16  16
#     4   8  15  28  45  63  85 118 154 190 233 272
#     4   9  18  30  41  57  87 123 153 181 218 267
#     4   9  17  29  45  66  95 129 159 187 223 266
#     4  11  20  30  45  66  91 120 153 189 231 275
#     4   9  17  30  48  68  88 113 150 195 235 268
#     4   9  17  28  43  67  97 127 159 192 222 259
#     4   9  17  30  46  63  87 117 151 192 234 277
#     4  10  20  33  48  66  89 118 152 190 232 275
#
# _framework density 15.267825999999999
#
# number of rings (size 3 to 8) (size 9 to 14) (size 15 to 20)
#    0.000    2.733    0.667    2.400    0.000    4.267 
#    0.000    2.667    0.000    1.600    0.000    4.667 
#    0.000    0.000    0.000    0.000    0.000    0.000 
#
# Total GULP energy -334263.660977 kJ/mol
# GULP energy per Si atom -5571.061016 kJ/mol
# Density = 1.523308 g / cm^3
# Si number density = 15.267826 Si / 1000 Ang^3
#
#
#
# Elastic Constant Matrix: (Units=GPa)
#
#
# Indices 1 2 3 4 5 6 
#
# 1 110.3574 38.4274 71.3672 0.0000 0.0000 0.0000
# 2 38.4274 35.4273 37.3365 0.0000 0.0000 0.0000
# 3 71.3672 37.3365 108.6684 0.0000 0.0000 0.0000
# 4 0.0000 0.0000 0.0000 22.4603 0.0000 0.0000
# 5 0.0000 0.0000 0.0000 0.0000 3.9311 0.0000
# 6 0.0000 0.0000 0.0000 0.0000 0.0000 20.9673
#
#
#
# Elastic Compliance Matrix: (Units=1/GPa)
#
#
# Indices 1 2 3 4 5 6 
#
# 1 0.018205 -0.011203 -0.008107 0.000000 0.000000 0.000000
# 2 -0.011203 0.051143 -0.010215 0.000000 0.000000 0.000000
# 3 -0.008107 -0.010215 0.018036 0.000000 0.000000 0.000000
# 4 0.000000 0.000000 0.000000 0.044523 0.000000 0.000000
# 5 0.000000 0.000000 0.000000 0.000000 0.254379 0.000000
# 6 0.000000 0.000000 0.000000 0.000000 0.000000 0.047693
#
#
# Mechanical properties :
#
#
# Convention : Reuss Voigt Hill
#
# Bulk Modulus (GPa) = 35.29112 60.96838 48.12975
# Shear Modulus (GPa) = 9.95077 16.62655 13.28866
#
# Velocity S-wave (km/s) = 2.55570 3.30357 2.95340
# Velocity P-wave (km/s) = 5.64568 7.38720 6.57436
#
# Compressibility (1/GPa) = 0.02833574
#
# Stress axis : x y z
#
# Youngs Moduli (GPa) = 54.92952 19.55284 55.44459
#
# Poissons Ratio (x) = 0.21905 0.44949
# Poissons Ratio (y) = 0.61537 0.56634
# Poissons Ratio (z) = 0.44531 0.19972
#
# Static dielectric constant tensor:
#      x y z
#    x 1.490680 0.000000 0.000000 
#    y 0.000000 1.513070 0.000000 
#    z 0.000000 0.000000 1.504650 
# 
# From -- ./inp_files/67160.got.cif
#   From: 2010.05.17/outbox.cif.g08.bks.cpg/sg71_34_cif.got.tgz:67160.got - 2010.06.03 16:22:01.
