data_PCOD9520361
_publ_section_title
;
Structure prediction by ZEFSAII (Michael W. Deem and Ramdas Pophale) SiO2 
 PCOD9520361
Probable space group: I M M M
;
_chemical_formula_sum "Si O2"
_cell_formula_units_Z 104
_cell_length_a 14.681331
_cell_length_b 18.341373
_cell_length_c 20.131578
_cell_angle_alpha 90.000000
_cell_angle_beta 90.000000
_cell_angle_gamma 90.000000
_cell_volume 5420.946127
_symmetry_space_group_name_H-M "I M M M"
_symmetry_group_IT_number 71
_symmetry_cell_setting 'orthorhombic'
loop_
_space_group_symop_operation_xyz
x,y,z
-x,-y,z
x,-y,-z
-x,y,-z
-x,-y,-z
x,y,-z
-x,y,z
x,-y,z
1/2+x,1/2+y,1/2+z
1/2-x,1/2-y,1/2+z
1/2+x,1/2-y,1/2-z
1/2-x,1/2+y,1/2-z
1/2-x,1/2-y,1/2-z
1/2+x,1/2+y,1/2-z
1/2-x,1/2+y,1/2+z
1/2+x,1/2-y,1/2+z
loop_
_atom_site_type_symbol
_atom_site_label
_atom_site_fract_x
_atom_site_fract_y
_atom_site_fract_z
Si Si1 0.393058 0.189161 0.294669
Si Si2 0.704274 0.000000 0.075614
Si Si3 0.108356 0.000000 0.579791
Si Si4 0.898767 0.771559 0.423820
Si Si5 0.898600 0.374373 0.646862
Si Si6 0.604967 0.360928 0.284964
Si Si7 0.783328 0.874142 0.344784
Si Si8 0.100204 0.000000 0.882794
O O1 0.500000 0.178417 0.310320
O O2 0.379864 0.165218 0.217391
O O3 0.373513 0.276226 0.303695
O O4 0.324293 0.138479 0.336723
O O5 0.672151 0.932232 0.120219
O O6 0.812526 0.000000 0.071624
O O7 0.666209 0.000000 0.000000
O O8 0.167502 0.067126 0.608179
O O9 0.108254 0.000000 0.500000
O O10 0.000000 0.000000 0.600442
O O11 0.879049 0.788721 0.500000
O O12 0.903208 0.686414 0.410141
O O13 0.823610 0.800364 0.374574
O O14 0.000000 0.802073 0.408125
O O15 0.000000 0.407374 0.653514
O O16 0.500000 0.358041 0.259486
O O17 0.673891 0.384411 0.227668
O O18 0.606298 0.425356 0.339125
O O19 0.000000 0.000000 0.914031
#
# Coordination Sequence:
#
# PCOD9520361 Si02
#       8
#    16   8   8  16  16  16  16   8
#     4  10  22  38  60  89 123 157 196 249 298 353
#     4  12  25  38  56  81 113 153 202 245 291 351
#     4  11  25  43  62  91 127 158 194 246 304 364
#     4  10  20  34  55  83 114 151 194 237 288 354
#     4  10  21  39  58  82 116 151 189 239 301 356
#     4  10  19  35  58  90 122 152 193 246 309 364
#     4  12  21  34  61  88 121 156 196 239 299 357
#     4  10  23  38  58  84 117 156 198 246 299 354
#
# _framework density 19.184843000000001
#
# number of rings (size 3 to 8) (size 9 to 14) (size 15 to 20)
#    0.000    1.462    1.538    4.385    2.154    3.846 
#    0.000    1.154    0.000    2.308    0.000    0.000 
#    0.000    0.000    0.000    0.000    0.000    0.000 
#
# Total GULP energy -289842.023155 kJ/mol
# GULP energy per Si atom -5573.885061 kJ/mol
# Density = 1.914118 g / cm^3
# Si number density = 19.184843 Si / 1000 Ang^3
#
#
#
# Elastic Constant Matrix: (Units=GPa)
#
#
# Indices 1 2 3 4 5 6 
#
# 1 113.6543 44.5909 41.7090 0.0000 0.0000 0.0000
# 2 44.5909 88.5242 22.2576 0.0000 0.0000 0.0000
# 3 41.7090 22.2576 52.9663 0.0000 0.0000 0.0000
# 4 0.0000 0.0000 0.0000 19.0659 0.0000 0.0000
# 5 0.0000 0.0000 0.0000 0.0000 22.1328 0.0000
# 6 0.0000 0.0000 0.0000 0.0000 0.0000 52.5857
#
#
#
# Elastic Compliance Matrix: (Units=1/GPa)
#
#
# Indices 1 2 3 4 5 6 
#
# 1 0.013975 -0.004777 -0.008997 0.000000 0.000000 0.000000
# 2 -0.004777 0.014264 -0.002232 0.000000 0.000000 0.000000
# 3 -0.008997 -0.002232 0.026903 0.000000 0.000000 0.000000
# 4 0.000000 0.000000 0.000000 0.052450 0.000000 0.000000
# 5 0.000000 0.000000 0.000000 0.000000 0.045182 0.000000
# 6 0.000000 0.000000 0.000000 0.000000 0.000000 0.019017
#
#
# Mechanical properties :
#
#
# Convention : Reuss Voigt Hill
#
# Bulk Modulus (GPa) = 43.23657 52.47331 47.85494
# Shear Modulus (GPa) = 23.63940 28.52939 26.08439
#
# Velocity S-wave (km/s) = 3.51407 3.86045 3.69132
# Velocity P-wave (km/s) = 6.24905 6.87616 6.57009
#
# Compressibility (1/GPa) = 0.02312857
#
# Stress axis : x y z
#
# Youngs Moduli (GPa) = 71.55860 70.10724 37.17094
#
# Poissons Ratio (x) = 0.33491 0.33443
# Poissons Ratio (y) = 0.34184 0.08297
# Poissons Ratio (z) = 0.64381 0.15650
#
# Static dielectric constant tensor:
#      x y z
#    x 1.702880 0.000000 0.000000 
#    y 0.000000 1.600870 0.000000 
#    z 0.000000 0.000000 1.626850 
# 
# From -- ./inp_files/53220.got.cif
#   From: 2010.05.17/outbox.cif.g08.bks.cpg/sg71_27_cif.got.tgz:53220.got - 2010.06.03 16:22:01.
