data_PCOD9520754
_publ_section_title
;
Structure prediction by ZEFSAII (Michael W. Deem and Ramdas Pophale) SiO2 
 PCOD9520754
Probable space group: I M M M
;
_chemical_formula_sum "Si O2"
_cell_formula_units_Z 104
_cell_length_a 21.130651
_cell_length_b 33.381701
_cell_length_c 7.662937
_cell_angle_alpha 90.000000
_cell_angle_beta 90.000000
_cell_angle_gamma 90.000000
_cell_volume 5405.260076
_symmetry_space_group_name_H-M "I M M M"
_symmetry_group_IT_number 71
_symmetry_cell_setting 'orthorhombic'
loop_
_space_group_symop_operation_xyz
x,y,z
-x,-y,z
x,-y,-z
-x,y,-z
-x,-y,-z
x,y,-z
-x,y,z
x,-y,z
1/2+x,1/2+y,1/2+z
1/2-x,1/2-y,1/2+z
1/2+x,1/2-y,1/2-z
1/2-x,1/2+y,1/2-z
1/2-x,1/2-y,1/2-z
1/2+x,1/2+y,1/2-z
1/2-x,1/2+y,1/2+z
1/2+x,1/2-y,1/2+z
loop_
_atom_site_type_symbol
_atom_site_label
_atom_site_fract_x
_atom_site_fract_y
_atom_site_fract_z
Si Si1 0.630926 0.915911 0.287343
Si Si2 0.929845 0.821569 0.289800
Si Si3 0.179577 0.670074 0.701770
Si Si4 0.305102 0.369374 0.295582
Si Si5 0.500000 0.045673 0.286850
Si Si6 0.928430 0.729010 0.713451
Si Si7 0.240204 0.956004 0.708308
O O1 0.632352 0.913191 0.500000
O O2 0.643818 0.872292 0.211702
O O3 0.563712 0.932592 0.231757
O O4 0.688770 0.944592 0.232712
O O5 0.930798 0.821289 0.500000
O O6 0.872700 0.849765 0.235628
O O7 0.920019 0.775400 0.234812
O O8 0.000000 0.834200 0.229353
O O9 0.189768 0.682365 0.500000
O O10 0.248279 0.658465 0.781894
O O11 0.130469 0.702433 0.777723
O O12 0.292069 0.370012 0.500000
O O13 0.300097 0.415827 0.241421
O O14 0.500000 0.045521 0.500000
O O15 0.500000 0.000000 0.228905
O O16 0.928380 0.727289 0.500000
O O17 0.000000 0.716283 0.767230
O O18 0.242700 0.959227 0.500000
O O19 0.220534 0.000000 0.776418
#
# Coordination Sequence:
#
# PCOD9520754 Si02
#       7
#    16  16  16  16   8  16  16
#     4   9  17  28  43  65  92 123 161 205 247 284
#     4   9  18  34  55  75  94 122 163 202 235 281
#     4   9  18  31  46  68  97 129 165 200 238 285
#     4  10  20  32  48  74 105 130 154 192 246 297
#     4   9  16  26  41  61  87 121 161 205 251 291
#     4   8  15  29  49  70  93 128 171 207 236 274
#     4   9  17  31  51  71  92 124 166 203 234 278
#
# _framework density 19.240517000000001
#
# number of rings (size 3 to 8) (size 9 to 14) (size 15 to 20)
#    0.000    3.000    0.000    1.846    1.077    3.692 
#    0.000    0.769    0.000    3.231    0.000    3.231 
#    0.000    0.000    0.000    0.000    0.000    0.000 
#
# Total GULP energy -289727.671469 kJ/mol
# GULP energy per Si atom -5571.685990 kJ/mol
# Density = 1.919672 g / cm^3
# Si number density = 19.240517 Si / 1000 Ang^3
#
#
#
# Elastic Constant Matrix: (Units=GPa)
#
#
# Indices 1 2 3 4 5 6 
#
# 1 145.5852 97.4669 -2.1565 -0.0001 -0.0013 0.0000
# 2 97.4669 113.0319 3.0791 -0.0001 -0.0013 0.0000
# 3 -2.1565 3.0791 31.9806 0.0000 -0.0218 -0.0002
# 4 -0.0001 -0.0001 0.0000 13.3410 -0.0025 -0.0002
# 5 -0.0013 -0.0013 -0.0218 -0.0025 -60.8810 -0.0001
# 6 0.0000 0.0000 -0.0002 -0.0002 -0.0001 15.2128
#
#
#
# Elastic Compliance Matrix: (Units=1/GPa)
#
#
# Indices 1 2 3 4 5 6 
#
# 1 0.016444 -0.014247 0.002480 0.000000 -0.000001 0.000000
# 2 -0.014247 0.021214 -0.003003 0.000000 0.000001 0.000000
# 3 0.002480 -0.003003 0.031725 0.000000 -0.000011 0.000001
# 4 0.000000 0.000000 0.000000 0.074957 -0.000003 0.000001
# 5 -0.000001 0.000001 -0.000011 -0.000003 -0.016425 0.000000
# 6 0.000000 0.000000 0.000001 0.000001 0.000000 0.065734
#
#
# Mechanical properties :
#
#
# Convention : Reuss Voigt Hill
#
# Bulk Modulus (GPa) = 25.09797 54.15295 39.62546
# Shear Modulus (GPa) = 21.14444 6.34843 13.74643
#
# Velocity S-wave (km/s) = 3.31864 1.81843 2.67582
# Velocity P-wave (km/s) = 5.26851 5.71098 5.49420
#
# Compressibility (1/GPa) = 0.03984385
#
# Stress axis : x y z
#
# Youngs Moduli (GPa) = 60.81410 47.13910 31.52055
#
# Poissons Ratio (x) = 0.67158 -0.07819
# Poissons Ratio (y) = 0.86641 0.09466
# Poissons Ratio (z) = -0.15085 0.14157
#
# Static dielectric constant tensor:
#      x y z
#    x 1.688870 0.000000 0.000000 
#    y 0.000000 1.664350 0.000000 
#    z 0.000000 0.000000 1.718610 
# 
# From -- ./inp_files/11468.got.cif
#   From: 2010.05.17/outbox.cif.g08.bks.cpg/sg71_6_cif.got.tgz:11468.got - 2010.06.03 16:22:01.
