data_PCOD9520040
_publ_section_title
;
Structure prediction by ZEFSAII (Michael W. Deem and Ramdas Pophale) SiO2 
 PCOD9520040
Probable space group: I M M M
;
_chemical_formula_sum "Si O2"
_cell_formula_units_Z 52
_cell_length_a 21.248876
_cell_length_b 7.604286
_cell_length_c 15.103961
_cell_angle_alpha 90.000000
_cell_angle_beta 90.000000
_cell_angle_gamma 90.000000
_cell_volume 2440.536236
_symmetry_space_group_name_H-M "I M M M"
_symmetry_group_IT_number 71
_symmetry_cell_setting 'orthorhombic'
loop_
_space_group_symop_operation_xyz
x,y,z
-x,-y,z
x,-y,-z
-x,y,-z
-x,-y,-z
x,y,-z
-x,y,z
x,-y,z
1/2+x,1/2+y,1/2+z
1/2-x,1/2-y,1/2+z
1/2+x,1/2-y,1/2-z
1/2-x,1/2+y,1/2-z
1/2-x,1/2-y,1/2-z
1/2+x,1/2+y,1/2-z
1/2-x,1/2+y,1/2+z
1/2+x,1/2-y,1/2+z
loop_
_atom_site_type_symbol
_atom_site_label
_atom_site_fract_x
_atom_site_fract_y
_atom_site_fract_z
Si Si1 0.230800 0.701219 0.608846
Si Si2 0.000000 0.796677 0.175361
Si Si3 0.000000 0.000000 0.655650
Si Si4 0.141415 0.000000 0.396670
Si Si5 0.869036 0.787310 0.895241
O O1 0.231157 0.696324 0.500000
O O2 0.222914 0.500000 0.637778
O O3 0.299902 0.772522 0.634931
O O4 0.175349 0.827638 0.641176
O O5 0.066551 0.718105 0.147012
O O6 0.000000 0.831710 0.279546
O O7 0.000000 0.000000 0.136879
O O8 0.066700 0.000000 0.609062
O O9 0.157563 0.000000 0.500000
O O10 0.867412 0.000000 0.881695
O O11 0.873605 0.754788 0.000000
#
# Coordination Sequence:
#
# PCOD9520040 Si02
#       5
#    16   8   4   8  16
#     4   8  15  28  50  77  98 117 155 202 244 286
#     4   8  15  25  42  65 103 127 158 198 225 279
#     4  10  21  32  43  68  94 130 174 194 237 292
#     4  10  19  34  52  70  95 125 162 210 245 277
#     4   8  12  22  44  73  98 125 155 188 237 288
#
# _framework density 21.306792000000002
#
# number of rings (size 3 to 8) (size 9 to 14) (size 15 to 20)
#    0.462    3.077    0.000    2.538    0.000    1.846 
#    0.000    2.308    0.000    4.615    4.000    5.385 
#    0.000    0.000    0.000    0.000    0.000    0.000 
#
# Total GULP energy -144794.633478 kJ/mol
# GULP energy per Si atom -5569.024365 kJ/mol
# Density = 2.125830 g / cm^3
# Si number density = 21.306792 Si / 1000 Ang^3
#
#
#
# Elastic Constant Matrix: (Units=GPa)
#
#
# Indices 1 2 3 4 5 6 
#
# 1 165.1628 64.4408 7.7665 0.0000 0.0000 0.0000
# 2 64.4408 78.4104 14.1951 0.0000 0.0000 0.0000
# 3 7.7665 14.1951 8.4186 0.0000 0.0000 0.0000
# 4 0.0000 0.0000 0.0000 -0.2135 0.0000 0.0000
# 5 0.0000 0.0000 0.0000 0.0000 -22.1528 0.0000
# 6 0.0000 0.0000 0.0000 0.0000 0.0000 -415.2582
#
#
#
# Elastic Compliance Matrix: (Units=1/GPa)
#
#
# Indices 1 2 3 4 5 6 
#
# 1 0.009124 -0.008600 0.006083 0.000000 0.000000 0.000000
# 2 -0.008600 0.026462 -0.036686 0.000000 0.000000 0.000000
# 3 0.006083 -0.036686 0.175032 0.000000 0.000000 0.000000
# 4 0.000000 0.000000 0.000000 -4.682916 0.000000 0.000000
# 5 0.000000 0.000000 0.000000 0.000000 -0.045141 0.000000
# 6 0.000000 0.000000 0.000000 0.000000 0.000000 -0.002408
#
#
# Mechanical properties :
#
#
# Convention : Reuss Voigt Hill
#
# Bulk Modulus (GPa) = 7.56360 47.19963 27.38161
# Shear Modulus (GPa) = -1.13704 -76.48562 -38.81133
#
# Velocity S-wave (km/s) = -0.73131 -5.99794 -4.27259
# Velocity P-wave (km/s) = 1.68656 5.07607 3.38541
#
# Compressibility (1/GPa) = 0.13221224
#
# Stress axis : x y z
#
# Youngs Moduli (GPa) = 109.60286 37.78943 5.71326
#
# Poissons Ratio (x) = 0.32497 -0.03475
# Poissons Ratio (y) = 0.94254 0.20960
# Poissons Ratio (z) = -0.66673 1.38635
#
# Static dielectric constant tensor:
#      x y z
#    x 1.782930 0.000000 0.000000 
#    y 0.000000 1.815230 0.000000 
#    z 0.000000 0.000000 1.786830 
# 
# From -- ./inp_files/46775.got.cif
#   From: 2010.05.17/outbox.cif.g08.bks.cpg/sg71_24_cif.got.tgz:46775.got - 2010.06.03 16:22:01.
