data_PCOD9520039
_publ_section_title
;
Structure prediction by ZEFSAII (Michael W. Deem and Ramdas Pophale) SiO2 
 PCOD9520039
Probable space group: I M M M
;
_chemical_formula_sum "Si O2"
_cell_formula_units_Z 104
_cell_length_a 33.030461
_cell_length_b 8.973381
_cell_length_c 20.936067
_cell_angle_alpha 90.000000
_cell_angle_beta 90.000000
_cell_angle_gamma 90.000000
_cell_volume 6205.343718
_symmetry_space_group_name_H-M "I M M M"
_symmetry_group_IT_number 71
_symmetry_cell_setting 'orthorhombic'
loop_
_space_group_symop_operation_xyz
x,y,z
-x,-y,z
x,-y,-z
-x,y,-z
-x,-y,-z
x,y,-z
-x,y,z
x,-y,z
1/2+x,1/2+y,1/2+z
1/2-x,1/2-y,1/2+z
1/2+x,1/2-y,1/2-z
1/2-x,1/2+y,1/2-z
1/2-x,1/2-y,1/2-z
1/2+x,1/2+y,1/2-z
1/2-x,1/2+y,1/2+z
1/2+x,1/2-y,1/2+z
loop_
_atom_site_type_symbol
_atom_site_label
_atom_site_fract_x
_atom_site_fract_y
_atom_site_fract_z
Si Si1 0.500000 0.667045 0.075190
Si Si2 0.188376 0.818760 0.928377
Si Si3 0.928723 0.326218 0.355944
Si Si4 0.654867 0.678171 0.171103
Si Si5 0.869390 0.820035 0.185909
Si Si6 0.545623 0.824670 0.708652
Si Si7 0.217532 0.679821 0.573543
O O1 0.500000 0.500000 0.103817
O O2 0.539081 0.756921 0.096889
O O3 0.500000 0.654637 0.000000
O O4 0.158442 0.768264 0.872735
O O5 0.235286 0.777841 0.917458
O O6 0.187455 0.000000 0.928118
O O7 0.176733 0.770151 0.000000
O O8 0.920808 0.500000 0.368354
O O9 0.887475 0.234375 0.357654
O O10 0.948045 0.313910 0.285132
O O11 0.658005 0.500000 0.168936
O O12 0.651053 0.723894 0.246075
O O13 0.690150 0.749052 0.128472
O O14 0.915110 0.758586 0.181225
O O15 0.871321 0.000000 0.185725
O O16 0.500000 0.770886 0.692641
O O17 0.547780 0.000000 0.692126
O O18 0.206127 0.721237 0.500000
O O19 0.214692 0.500000 0.577480
#
# Coordination Sequence:
#
# PCOD9520039 Si02
#       7
#     8  16  16  16  16  16  16
#     4  11  23  35  47  67  95 125 158 201 254 299
#     4   8  15  31  54  75  98 129 165 205 244 288
#     4  10  19  34  52  68  89 124 167 205 239 286
#     4  10  20  32  47  73 105 130 156 204 259 299
#     4   9  18  31  49  77 103 126 162 203 248 298
#     4   9  17  31  50  72  97 125 158 197 240 287
#     4   9  18  33  52  71  92 129 176 209 240 291
#
# _framework density 16.759748999999999
#
# number of rings (size 3 to 8) (size 9 to 14) (size 15 to 20)
#    0.000    2.692    0.769    2.077    0.000    3.692 
#    0.000    0.769    0.000    1.846    0.000    3.231 
#    0.000    0.000    0.000    0.000    0.000    0.000 
#
# Total GULP energy -289712.453749 kJ/mol
# GULP energy per Si atom -5571.393341 kJ/mol
# Density = 1.672160 g / cm^3
# Si number density = 16.759749 Si / 1000 Ang^3
#
#
#
# Elastic Constant Matrix: (Units=GPa)
#
#
# Indices 1 2 3 4 5 6 
#
# 1 130.6477 31.6758 91.7955 0.0000 0.0000 0.0000
# 2 31.6758 23.1796 32.5066 0.0000 0.0000 0.0000
# 3 91.7955 32.5066 104.6383 0.0000 0.0000 0.0000
# 4 0.0000 0.0000 0.0000 16.7642 0.0000 0.0000
# 5 0.0000 0.0000 0.0000 0.0000 -890.3567 0.0000
# 6 0.0000 0.0000 0.0000 0.0000 0.0000 25.9829
#
#
#
# Elastic Compliance Matrix: (Units=1/GPa)
#
#
# Indices 1 2 3 4 5 6 
#
# 1 0.020261 -0.004893 -0.016254 0.000000 0.000000 0.000000
# 2 -0.004893 0.077627 -0.019823 0.000000 0.000000 0.000000
# 3 -0.016254 -0.019823 0.029974 0.000000 0.000000 0.000000
# 4 0.000000 0.000000 0.000000 0.059651 0.000000 0.000000
# 5 0.000000 0.000000 0.000000 0.000000 -0.001123 0.000000
# 6 0.000000 0.000000 0.000000 0.000000 0.000000 0.038487
#
#
# Mechanical properties :
#
#
# Convention : Reuss Voigt Hill
#
# Bulk Modulus (GPa) = 21.77608 63.38012 42.57810
# Shear Modulus (GPa) = 15.52195 -162.68939 -73.58372
#
# Velocity S-wave (km/s) = 3.04656 -9.86318 -6.63328
# Velocity P-wave (km/s) = 5.03951 9.58179 5.76255
#
# Compressibility (1/GPa) = 0.04592195
#
# Stress axis : x y z
#
# Youngs Moduli (GPa) = 49.35586 12.88212 33.36195
#
# Poissons Ratio (x) = 0.06303 0.54228
# Poissons Ratio (y) = 0.24148 0.66134
# Poissons Ratio (z) = 0.80225 0.25536
#
# Static dielectric constant tensor:
#      x y z
#    x 1.547980 0.000000 0.000000 
#    y 0.000000 1.566980 0.000000 
#    z 0.000000 0.000000 1.564590 
# 
# From -- ./inp_files/13335.got.cif
#   From: 2010.05.17/outbox.cif.g08.bks.cpg/sg71_7_cif.got.tgz:13335.got - 2010.06.03 16:22:01.
