data_PCOD9520862
_publ_section_title
;
Structure prediction by ZEFSAII (Michael W. Deem and Ramdas Pophale) SiO2 
 PCOD9520862
Probable space group: I M M M
;
_chemical_formula_sum "Si O2"
_cell_formula_units_Z 116
_cell_length_a 27.293716
_cell_length_b 7.644454
_cell_length_c 28.955592
_cell_angle_alpha 90.000000
_cell_angle_beta 90.000000
_cell_angle_gamma 90.000000
_cell_volume 6041.455605
_symmetry_space_group_name_H-M "I M M M"
_symmetry_group_IT_number 71
_symmetry_cell_setting 'orthorhombic'
loop_
_space_group_symop_operation_xyz
x,y,z
-x,-y,z
x,-y,-z
-x,y,-z
-x,-y,-z
x,y,-z
-x,y,z
x,-y,z
1/2+x,1/2+y,1/2+z
1/2-x,1/2-y,1/2+z
1/2+x,1/2-y,1/2-z
1/2-x,1/2+y,1/2-z
1/2-x,1/2-y,1/2-z
1/2+x,1/2+y,1/2-z
1/2-x,1/2+y,1/2+z
1/2+x,1/2-y,1/2+z
loop_
_atom_site_type_symbol
_atom_site_label
_atom_site_fract_x
_atom_site_fract_y
_atom_site_fract_z
Si Si1 0.778971 0.711265 0.447630
Si Si2 0.253717 0.708526 0.196005
Si Si3 0.555104 0.703108 0.172005
Si Si4 0.579730 0.797404 0.375729
Si Si5 0.000000 0.000000 0.101072
Si Si6 0.556576 0.208746 0.274634
Si Si7 0.687228 0.705256 0.612157
Si Si8 0.154920 0.208865 0.363744
O O1 0.782998 0.773983 0.500000
O O2 0.776740 0.500000 0.448349
O O3 0.729634 0.773821 0.421942
O O4 0.823701 0.760574 0.414442
O O5 0.253590 0.500000 0.191369
O O6 0.250000 0.750000 0.250000
O O7 0.209324 0.773549 0.163764
O O8 0.304096 0.776668 0.172432
O O9 0.500000 0.780336 0.168524
O O10 0.550675 0.500000 0.158639
O O11 0.570289 0.709501 0.225979
O O12 0.600629 0.782260 0.144494
O O13 0.542924 0.655964 0.397009
O O14 0.584459 0.746669 0.321237
O O15 0.634644 0.790811 0.394729
O O16 0.561745 0.000000 0.377442
O O17 0.500000 0.259294 0.283955
O O18 0.558847 0.000000 0.268281
O O19 0.680792 0.500000 0.603452
O O20 0.151881 0.000000 0.356139
#
# Coordination Sequence:
#
# PCOD9520862 Si02
#       8
#    16  16  16  16   4  16  16  16
#     4   9  19  37  61  85 107 132 171 225 283 347
#     4  10  20  33  47  70 105 145 185 230 279 338
#     4   9  18  30  48  70 100 142 186 230 272 324
#     4  11  22  35  52  79 113 150 195 244 277 329
#     4  12  22  36  56  78 109 162 198 234 291 322
#     4   9  18  30  43  65  99 139 187 231 265 304
#     4  10  20  35  54  79 109 143 181 226 288 344
#     4   9  19  34  50  75 105 136 178 225 274 336
#
# _framework density 19.200672000000001
#
# number of rings (size 3 to 8) (size 9 to 14) (size 15 to 20)
#    0.000    2.345    1.379    1.034    2.897    1.931 
#    0.000    0.000    0.000    0.414    0.000    3.862 
#    0.000    1.103    0.000    0.000    0.000    0.000 
#
# Total GULP energy -322882.736250 kJ/mol
# GULP energy per Si atom -5566.943728 kJ/mol
# Density = 1.915697 g / cm^3
# Si number density = 19.200672 Si / 1000 Ang^3
#
#
#
# Elastic Constant Matrix: (Units=GPa)
#
#
# Indices 1 2 3 4 5 6 
#
# 1 62.6170 13.1101 2.8516 0.0000 0.0000 0.0000
# 2 13.1101 67.2374 -8.3315 0.0000 0.0000 0.0000
# 3 2.8516 -8.3315 60.8676 0.0000 0.0000 0.0000
# 4 0.0000 0.0000 0.0000 17.8819 0.0000 0.0000
# 5 0.0000 0.0000 0.0000 0.0000 12.3137 0.0000
# 6 0.0000 0.0000 0.0000 0.0000 0.0000 19.9690
#
#
#
# Elastic Compliance Matrix: (Units=1/GPa)
#
#
# Indices 1 2 3 4 5 6 
#
# 1 0.016743 -0.003420 -0.001252 0.000000 0.000000 0.000000
# 2 -0.003420 0.015828 0.002327 0.000000 0.000000 0.000000
# 3 -0.001252 0.002327 0.016806 0.000000 0.000000 0.000000
# 4 0.000000 0.000000 0.000000 0.055922 0.000000 0.000000
# 5 0.000000 0.000000 0.000000 0.000000 0.081210 0.000000
# 6 0.000000 0.000000 0.000000 0.000000 0.000000 0.050078
#
#
# Mechanical properties :
#
#
# Convention : Reuss Voigt Hill
#
# Bulk Modulus (GPa) = 22.37838 22.88692 22.63265
# Shear Modulus (GPa) = 19.51797 22.23904 20.87851
#
# Velocity S-wave (km/s) = 3.19176 3.40699 3.30113
# Velocity P-wave (km/s) = 5.02627 5.23665 5.13254
#
# Compressibility (1/GPa) = 0.04468598
#
# Stress axis : x y z
#
# Youngs Moduli (GPa) = 59.72591 63.18001 59.50168
#
# Poissons Ratio (x) = 0.21606 0.07453
# Poissons Ratio (y) = 0.20425 -0.13844
# Poissons Ratio (z) = 0.07481 -0.14700
#
# Static dielectric constant tensor:
#      x y z
#    x 1.702840 0.000000 0.000000 
#    y 0.000000 1.728540 0.000000 
#    z 0.000000 0.000000 1.657860 
# 
# From -- ./inp_files/67137.got.cif
#   From: 2010.05.17/outbox.cif.g08.bks.cpg/sg71_34_cif.got.tgz:67137.got - 2010.06.03 16:22:01.
