data_PCOD9520551
_publ_section_title
;
Structure prediction by ZEFSAII (Michael W. Deem and Ramdas Pophale) SiO2 
 PCOD9520551
Probable space group: I M M M
;
_chemical_formula_sum "Si O2"
_cell_formula_units_Z 80
_cell_length_a 27.406816
_cell_length_b 7.425203
_cell_length_c 18.024716
_cell_angle_alpha 90.000000
_cell_angle_beta 90.000000
_cell_angle_gamma 90.000000
_cell_volume 3668.050838
_symmetry_space_group_name_H-M "I M M M"
_symmetry_group_IT_number 71
_symmetry_cell_setting 'orthorhombic'
loop_
_space_group_symop_operation_xyz
x,y,z
-x,-y,z
x,-y,-z
-x,y,-z
-x,-y,-z
x,y,-z
-x,y,z
x,-y,z
1/2+x,1/2+y,1/2+z
1/2-x,1/2-y,1/2+z
1/2+x,1/2-y,1/2-z
1/2-x,1/2+y,1/2-z
1/2-x,1/2-y,1/2-z
1/2+x,1/2+y,1/2-z
1/2-x,1/2+y,1/2+z
1/2+x,1/2-y,1/2+z
loop_
_atom_site_type_symbol
_atom_site_label
_atom_site_fract_x
_atom_site_fract_y
_atom_site_fract_z
Si Si1 0.552157 0.714605 0.202708
Si Si2 0.843285 0.785842 0.296127
Si Si3 0.340760 0.720955 0.374201
Si Si4 0.052911 0.785684 0.117604
Si Si5 0.735272 0.784087 0.920724
O O1 0.500000 0.789404 0.176911
O O2 0.550816 0.500000 0.187914
O O3 0.604265 0.785082 0.175316
O O4 0.553453 0.733709 0.292522
O O5 0.835706 0.721572 0.212008
O O6 0.798937 0.757213 0.351409
O O7 0.848992 0.000000 0.288699
O O8 0.342046 0.500000 0.376639
O O9 0.393465 0.781382 0.405381
O O10 0.290910 0.779947 0.412170
O O11 0.000000 0.713882 0.091922
O O12 0.052167 0.000000 0.101560
O O13 0.737839 0.000000 0.922525
O O14 0.715104 0.720593 0.000000
#
# Coordination Sequence:
#
# PCOD9520551 Si02
#       5
#    16  16  16  16  16
#     4   7  10  18  35  61  86 100 116 154 208 250
#     4   9  16  27  46  67  82 100 133 176 208 232
#     4   8  14  25  41  61  83 107 136 167 201 241
#     4   7   9  15  31  56  82 103 124 156 198 239
#     4  10  20  31  41  55  82 118 144 163 197 245
#
# _framework density 21.809949
#
# number of rings (size 3 to 8) (size 9 to 14) (size 15 to 20)
#    0.000    3.800    0.000    4.200    0.000    0.400 
#    0.000    0.000    0.000    1.800    0.000    8.400 
#    0.000    2.400    0.000    1.800    0.000    2.000 
#
# Total GULP energy -222708.704169 kJ/mol
# GULP energy per Si atom -5567.717604 kJ/mol
# Density = 2.176031 g / cm^3
# Si number density = 21.809949 Si / 1000 Ang^3
#
#
#
# Elastic Constant Matrix: (Units=GPa)
#
#
# Indices 1 2 3 4 5 6 
#
# 1 165.8883 3.6652 44.2015 0.0000 0.0000 0.0000
# 2 3.6652 63.5828 -0.5209 0.0000 0.0000 0.0000
# 3 44.2015 -0.5209 62.5805 0.0000 0.0000 0.0000
# 4 0.0000 0.0000 0.0000 -1.8897 0.0000 0.0000
# 5 0.0000 0.0000 0.0000 0.0000 -23.0557 0.0000
# 6 0.0000 0.0000 0.0000 0.0000 0.0000 -0.9404
#
#
#
# Elastic Compliance Matrix: (Units=1/GPa)
#
#
# Indices 1 2 3 4 5 6 
#
# 1 0.007440 -0.000472 -0.005259 0.000000 0.000000 0.000000
# 2 -0.000472 0.015759 0.000465 0.000000 0.000000 0.000000
# 3 -0.005259 0.000465 0.019698 0.000000 0.000000 0.000000
# 4 0.000000 0.000000 0.000000 -0.529177 0.000000 0.000000
# 5 0.000000 0.000000 0.000000 0.000000 -0.043373 0.000000
# 6 0.000000 0.000000 0.000000 0.000000 0.000000 -1.063363
#
#
# Mechanical properties :
#
#
# Convention : Reuss Voigt Hill
#
# Bulk Modulus (GPa) = 30.89892 42.97145 36.93518
# Shear Modulus (GPa) = -3.18128 11.13655 3.97764
#
# Velocity S-wave (km/s) = -1.20905 2.26214 1.35194
# Velocity P-wave (km/s) = 3.49986 5.15446 4.40554
#
# Compressibility (1/GPa) = 0.03236359
#
# Stress axis : x y z
#
# Youngs Moduli (GPa) = 134.41226 63.45766 50.76751
#
# Poissons Ratio (x) = 0.02995 0.26697
# Poissons Ratio (y) = 0.06344 -0.02358
# Poissons Ratio (z) = 0.70684 -0.02948
#
# Static dielectric constant tensor:
#      x y z
#    x 1.869000 0.000000 0.000000 
#    y 0.000000 1.902340 0.000000 
#    z 0.000000 0.000000 1.768360 
# 
# From -- ./inp_files/8308.got.cif
#   From: 2010.05.17/outbox.cif.g08.bks.cpg/sg71_5_cif.got.tgz:8308.got - 2010.06.03 16:22:01.
