data_PCOD9520141
_publ_section_title
;
Structure prediction by ZEFSAII (Michael W. Deem and Ramdas Pophale) SiO2 
 PCOD9520141
Probable space group: I M M M
;
_chemical_formula_sum "Si O2"
_cell_formula_units_Z 72
_cell_length_a 7.508167
_cell_length_b 14.330045
_cell_length_c 29.676675
_cell_angle_alpha 90.000000
_cell_angle_beta 90.000000
_cell_angle_gamma 90.000000
_cell_volume 3192.983826
_symmetry_space_group_name_H-M "I M M M"
_symmetry_group_IT_number 71
_symmetry_cell_setting 'orthorhombic'
loop_
_space_group_symop_operation_xyz
x,y,z
-x,-y,z
x,-y,-z
-x,y,-z
-x,-y,-z
x,y,-z
-x,y,z
x,-y,z
1/2+x,1/2+y,1/2+z
1/2-x,1/2-y,1/2+z
1/2+x,1/2-y,1/2-z
1/2-x,1/2+y,1/2-z
1/2-x,1/2-y,1/2-z
1/2+x,1/2+y,1/2-z
1/2-x,1/2+y,1/2+z
1/2+x,1/2-y,1/2+z
loop_
_atom_site_type_symbol
_atom_site_label
_atom_site_fract_x
_atom_site_fract_y
_atom_site_fract_z
Si Si1 0.789171 0.290274 0.907777
Si Si2 0.783354 0.690816 0.810836
Si Si3 0.712337 0.395704 0.000000
Si Si4 0.282634 0.603227 0.552337
Si Si5 0.793707 0.103626 0.782241
O O1 0.724943 0.335016 0.861335
O O2 0.765590 0.345118 0.954073
O O3 0.716490 0.186744 0.916965
O O4 0.000000 0.279679 0.900939
O O5 0.723174 0.798731 0.802721
O O6 0.714405 0.624864 0.771252
O O7 0.000000 0.688312 0.806722
O O8 0.784934 0.500000 0.000000
O O9 0.500000 0.398684 0.000000
O O10 0.231670 0.618736 0.500000
O O11 0.500000 0.604082 0.552806
O O12 0.225481 0.500000 0.566019
O O13 0.000000 0.100150 0.796755
O O14 0.717627 0.000000 0.791684
#
# Coordination Sequence:
#
# PCOD9520141 Si02
#       5
#    16  16   8  16  16
#     4  10  19  34  56  79 104 134 172 218 261 301
#     4   9  19  33  52  80 107 133 171 217 260 304
#     4  11  25  41  54  71 100 140 181 217 256 303
#     4   8  13  23  44  74 101 124 155 197 247 300
#     4   9  18  34  54  76 106 141 172 207 256 313
#
# _framework density 22.549441000000002
#
# number of rings (size 3 to 8) (size 9 to 14) (size 15 to 20)
#    0.000    2.778    1.111    1.000    0.000    4.000 
#    0.000    8.889    0.000    1.333    0.000    3.111 
#    0.000    0.000    0.000    0.000    0.000    0.000 
#
# Total GULP energy -200817.362116 kJ/mol
# GULP energy per Si atom -5578.260059 kJ/mol
# Density = 2.249812 g / cm^3
# Si number density = 22.549441 Si / 1000 Ang^3
#
#
#
# Elastic Constant Matrix: (Units=GPa)
#
#
# Indices 1 2 3 4 5 6 
#
# 1 58.4287 -8.4696 -15.7886 0.0000 0.0000 0.0000
# 2 -8.4696 59.7017 -8.3398 0.0000 0.0000 0.0000
# 3 -15.7886 -8.3398 82.6322 0.0000 0.0000 0.0000
# 4 0.0000 0.0000 0.0000 8.3080 0.0000 0.0000
# 5 0.0000 0.0000 0.0000 0.0000 11.0593 0.0000
# 6 0.0000 0.0000 0.0000 0.0000 0.0000 17.9581
#
#
#
# Elastic Compliance Matrix: (Units=1/GPa)
#
#
# Indices 1 2 3 4 5 6 
#
# 1 0.018625 0.003184 0.003880 0.000000 0.000000 0.000000
# 2 0.003184 0.017534 0.002378 0.000000 0.000000 0.000000
# 3 0.003880 0.002378 0.013083 0.000000 0.000000 0.000000
# 4 0.000000 0.000000 0.000000 0.120366 0.000000 0.000000
# 5 0.000000 0.000000 0.000000 0.000000 0.090422 0.000000
# 6 0.000000 0.000000 0.000000 0.000000 0.000000 0.055685
#
#
# Mechanical properties :
#
#
# Convention : Reuss Voigt Hill
#
# Bulk Modulus (GPa) = 14.67854 15.06295 14.87074
# Shear Modulus (GPa) = 15.64756 23.02246 19.33501
#
# Velocity S-wave (km/s) = 2.63710 3.19874 2.93140
# Velocity P-wave (km/s) = 3.97442 4.50966 4.25047
#
# Compressibility (1/GPa) = 0.06812669
#
# Stress axis : x y z
#
# Youngs Moduli (GPa) = 53.69150 57.03246 76.43393
#
# Poissons Ratio (x) = -0.18161 -0.29657
# Poissons Ratio (y) = -0.17097 -0.18176
# Poissons Ratio (z) = -0.20833 -0.13563
#
# Static dielectric constant tensor:
#      x y z
#    x 1.894480 0.000000 0.000000 
#    y 0.000000 1.836390 0.000000 
#    z 0.000000 0.000000 1.800170 
# 
# From -- ./inp_files/6418.got.cif
#   From: 2010.05.17/outbox.cif.g08.bks.cpg/sg71_4_cif.got.tgz:6418.got - 2010.06.03 16:22:01.
