data_PCOD9520374
_publ_section_title
;
Structure prediction by ZEFSAII (Michael W. Deem and Ramdas Pophale) SiO2 
 PCOD9520374
Probable space group: I M M M
;
_chemical_formula_sum "Si O2"
_cell_formula_units_Z 80
_cell_length_a 11.873542
_cell_length_b 23.745259
_cell_length_c 13.681707
_cell_angle_alpha 90.000000
_cell_angle_beta 90.000000
_cell_angle_gamma 90.000000
_cell_volume 3857.424987
_symmetry_space_group_name_H-M "I M M M"
_symmetry_group_IT_number 71
_symmetry_cell_setting 'orthorhombic'
loop_
_space_group_symop_operation_xyz
x,y,z
-x,-y,z
x,-y,-z
-x,y,-z
-x,-y,-z
x,y,-z
-x,y,z
x,-y,z
1/2+x,1/2+y,1/2+z
1/2-x,1/2-y,1/2+z
1/2+x,1/2-y,1/2-z
1/2-x,1/2+y,1/2-z
1/2-x,1/2-y,1/2-z
1/2+x,1/2+y,1/2-z
1/2-x,1/2+y,1/2+z
1/2+x,1/2-y,1/2+z
loop_
_atom_site_type_symbol
_atom_site_label
_atom_site_fract_x
_atom_site_fract_y
_atom_site_fract_z
Si Si1 0.776854 0.673495 0.882317
Si Si2 0.372644 0.773912 0.881313
Si Si3 0.367279 0.063685 0.290115
Si Si4 0.500000 0.628862 0.381157
Si Si5 0.000000 0.258350 0.119071
Si Si6 0.249797 0.609960 0.383263
O O1 0.674486 0.713360 0.849640
O O2 0.792281 0.610944 0.842517
O O3 0.888231 0.708351 0.852871
O O4 0.774076 0.670510 0.000000
O O5 0.500000 0.784492 0.848224
O O6 0.290551 0.826134 0.858796
O O7 0.374443 0.772330 0.000000
O O8 0.500000 0.075996 0.303963
O O9 0.332540 0.070030 0.176962
O O10 0.346806 0.000000 0.323811
O O11 0.500000 0.629302 0.500000
O O12 0.500000 0.693884 0.348959
O O13 0.380317 0.602167 0.353197
O O14 0.000000 0.256771 0.000000
O O15 0.240666 0.602986 0.500000
#
# Coordination Sequence:
#
# PCOD9520374 Si02
#       6
#    16  16  16   8   8  16
#     4  10  19  35  59  84 115 148 179 224 280 331
#     4   9  17  31  55  88 120 147 177 218 275 341
#     4  11  25  41  56  79 109 145 195 240 272 321
#     4   9  16  32  59  89 116 141 175 222 278 338
#     4   9  14  28  55  85 112 141 173 216 278 334
#     4  10  20  37  60  85 115 147 180 225 279 331
#
# _framework density 20.739222999999999
#
# number of rings (size 3 to 8) (size 9 to 14) (size 15 to 20)
#    0.000    2.200    3.000    0.600    0.000    2.800 
#    1.800    2.500    0.000    1.800    0.000    2.800 
#    0.000    0.000    0.000    0.000    0.000    0.000 
#
# Total GULP energy -223468.743465 kJ/mol
# GULP energy per Si atom -5586.718587 kJ/mol
# Density = 2.069202 g / cm^3
# Si number density = 20.739223 Si / 1000 Ang^3
#
#
#
# Elastic Constant Matrix: (Units=GPa)
#
#
# Indices 1 2 3 4 5 6 
#
# 1 82.9023 6.5883 7.9328 -0.0001 0.0000 0.0000
# 2 6.5883 60.1904 2.5047 -0.0003 0.0001 0.0001
# 3 7.9328 2.5047 50.7299 -0.0002 0.0001 0.0000
# 4 -0.0001 -0.0003 -0.0002 18.8952 0.0000 0.0000
# 5 0.0000 0.0001 0.0001 0.0000 27.0039 0.0000
# 6 0.0000 0.0001 0.0000 0.0000 0.0000 25.3548
#
#
#
# Elastic Compliance Matrix: (Units=1/GPa)
#
#
# Indices 1 2 3 4 5 6 
#
# 1 0.012342 -0.001273 -0.001867 0.000000 0.000000 0.000000
# 2 -0.001273 0.016779 -0.000629 0.000000 0.000000 0.000000
# 3 -0.001867 -0.000629 0.020035 0.000000 0.000000 0.000000
# 4 0.000000 0.000000 0.000000 0.052923 0.000000 0.000000
# 5 0.000000 0.000000 0.000000 0.000000 0.037032 0.000000
# 6 0.000000 0.000000 0.000000 0.000000 0.000000 0.039440
#
#
# Mechanical properties :
#
#
# Convention : Reuss Voigt Hill
#
# Bulk Modulus (GPa) = 24.02834 25.31937 24.67386
# Shear Modulus (GPa) = 25.00446 26.03725 25.52086
#
# Velocity S-wave (km/s) = 3.47603 3.54709 3.51174
# Velocity P-wave (km/s) = 5.26512 5.38616 5.32598
#
# Compressibility (1/GPa) = 0.04161752
#
# Stress axis : x y z
#
# Youngs Moduli (GPa) = 81.02252 59.59654 49.91193
#
# Poissons Ratio (x) = 0.07588 0.09319
# Poissons Ratio (y) = 0.10316 0.03141
# Poissons Ratio (z) = 0.15128 0.03751
#
# Static dielectric constant tensor:
#      x y z
#    x 1.724330 0.000000 0.000000 
#    y 0.000000 1.714560 0.000000 
#    z 0.000000 0.000000 1.829340 
# 
# From -- ./inp_files/27138.got.cif
#   From: 2010.05.17/outbox.cif.g08.bks.cpg/sg71_14_cif.got.tgz:27138.got - 2010.06.03 16:22:01.
