data_PCOD9520023
_publ_section_title
;
Structure prediction by ZEFSAII (Michael W. Deem and Ramdas Pophale) SiO2 
 PCOD9520023
Probable space group: I M M M
;
_chemical_formula_sum "Si O2"
_cell_formula_units_Z 104
_cell_length_a 9.028642
_cell_length_b 23.679448
_cell_length_c 24.508936
_cell_angle_alpha 90.000000
_cell_angle_beta 90.000000
_cell_angle_gamma 90.000000
_cell_volume 5239.845296
_symmetry_space_group_name_H-M "I M M M"
_symmetry_group_IT_number 71
_symmetry_cell_setting 'orthorhombic'
loop_
_space_group_symop_operation_xyz
x,y,z
-x,-y,z
x,-y,-z
-x,y,-z
-x,-y,-z
x,y,-z
-x,y,z
x,-y,z
1/2+x,1/2+y,1/2+z
1/2-x,1/2-y,1/2+z
1/2+x,1/2-y,1/2-z
1/2-x,1/2+y,1/2-z
1/2-x,1/2-y,1/2-z
1/2+x,1/2+y,1/2-z
1/2-x,1/2+y,1/2+z
1/2+x,1/2-y,1/2+z
loop_
_atom_site_type_symbol
_atom_site_label
_atom_site_fract_x
_atom_site_fract_y
_atom_site_fract_z
Si Si1 0.823148 0.106667 0.748984
Si Si2 0.668512 0.000000 0.692092
Si Si3 0.824660 0.870772 0.559340
Si Si4 0.769367 0.500000 0.063966
Si Si5 0.330863 0.000000 0.066065
Si Si6 0.179098 0.201286 0.338367
Si Si7 0.323551 0.828485 0.156941
Si Si8 0.328320 0.615913 0.565224
O O1 0.789488 0.161572 0.712457
O O2 0.753101 0.123176 0.806790
O O3 0.000000 0.098756 0.752923
O O4 0.752210 0.054153 0.716994
O O5 0.661800 0.000000 0.625549
O O6 0.500000 0.000000 0.711921
O O7 0.759900 0.856235 0.500000
O O8 0.808986 0.938611 0.566046
O O9 0.763526 0.832547 0.608308
O O10 0.000000 0.860044 0.557957
O O11 0.832370 0.500000 0.000000
O O12 0.239514 0.944665 0.081020
O O13 0.500000 0.000000 0.086986
O O14 0.339865 0.000000 0.000000
O O15 0.230595 0.265132 0.329790
O O16 0.000000 0.204540 0.343456
O O17 0.500000 0.832043 0.163535
O O18 0.273987 0.839041 0.095036
O O19 0.321312 0.620840 0.500000
O O20 0.500000 0.620746 0.581728
#
# Coordination Sequence:
#
# PCOD9520023 Si02
#       8
#    16   8  16   8   8  16  16  16
#     4  11  23  42  65  88 117 156 202 250 303 364
#     4  12  25  41  63  94 128 162 200 253 310 363
#     4   9  16  28  52  89 125 157 200 251 298 350
#     4  10  19  33  58  87 123 165 204 245 302 369
#     4   9  17  32  57  87 115 144 180 225 281 341
#     4   9  19  35  58  86 117 157 202 249 299 354
#     4  11  23  39  60  89 121 156 200 250 304 359
#     4  10  21  38  60  87 120 157 197 240 292 357
#
# _framework density 19.847915
#
# number of rings (size 3 to 8) (size 9 to 14) (size 15 to 20)
#    0.000    1.923    1.538    2.538    0.000    4.769 
#    0.000    6.923    0.000    0.000    0.000    0.000 
#    0.000    0.000    0.000    0.000    0.000    0.000 
#
# Total GULP energy -289722.735576 kJ/mol
# GULP energy per Si atom -5571.591069 kJ/mol
# Density = 1.980274 g / cm^3
# Si number density = 19.847915 Si / 1000 Ang^3
#
#
#
# Elastic Constant Matrix: (Units=GPa)
#
#
# Indices 1 2 3 4 5 6 
#
# 1 66.4306 27.5605 29.7278 0.0000 0.0000 0.0000
# 2 27.5605 96.1967 33.3720 0.0000 0.0000 0.0000
# 3 29.7278 33.3720 85.1851 0.0000 0.0000 0.0000
# 4 0.0000 0.0000 0.0000 15.2892 0.0000 0.0000
# 5 0.0000 0.0000 0.0000 0.0000 19.8897 0.0000
# 6 0.0000 0.0000 0.0000 0.0000 0.0000 18.8686
#
#
#
# Elastic Compliance Matrix: (Units=1/GPa)
#
#
# Indices 1 2 3 4 5 6 
#
# 1 0.018865 -0.003612 -0.005168 0.000000 0.000000 0.000000
# 2 -0.003612 0.012722 -0.003723 0.000000 0.000000 0.000000
# 3 -0.005168 -0.003723 0.015002 0.000000 0.000000 0.000000
# 4 0.000000 0.000000 0.000000 0.065406 0.000000 0.000000
# 5 0.000000 0.000000 0.000000 0.000000 0.050277 0.000000
# 6 0.000000 0.000000 0.000000 0.000000 0.000000 0.052998
#
#
# Mechanical properties :
#
#
# Convention : Reuss Voigt Hill
#
# Bulk Modulus (GPa) = 46.33769 47.68146 47.00958
# Shear Modulus (GPa) = 20.20450 21.28632 20.74541
#
# Velocity S-wave (km/s) = 3.19402 3.27841 3.23649
# Velocity P-wave (km/s) = 6.08271 6.19728 6.14026
#
# Compressibility (1/GPa) = 0.02158070
#
# Stress axis : x y z
#
# Youngs Moduli (GPa) = 53.00937 78.60486 66.65996
#
# Poissons Ratio (x) = 0.28390 0.34453
# Poissons Ratio (y) = 0.19146 0.24821
# Poissons Ratio (z) = 0.27397 0.29268
#
# Static dielectric constant tensor:
#      x y z
#    x 1.683700 0.000000 0.000000 
#    y 0.000000 1.717510 0.000000 
#    z 0.000000 0.000000 1.772080 
# 
# From -- ./inp_files/63393.got.cif
#   From: 2010.05.17/outbox.cif.g08.bks.cpg/sg71_32_cif.got.tgz:63393.got - 2010.06.03 16:22:01.
