data_PCOD9520983
_publ_section_title
;
Structure prediction by ZEFSAII (Michael W. Deem and Ramdas Pophale) SiO2 
 PCOD9520983
Probable space group: I M M M
;
_chemical_formula_sum "Si O2"
_cell_formula_units_Z 56
_cell_length_a 7.507079
_cell_length_b 21.759521
_cell_length_c 14.627315
_cell_angle_alpha 90.000000
_cell_angle_beta 90.000000
_cell_angle_gamma 90.000000
_cell_volume 2389.378387
_symmetry_space_group_name_H-M "I M M M"
_symmetry_group_IT_number 71
_symmetry_cell_setting 'orthorhombic'
loop_
_space_group_symop_operation_xyz
x,y,z
-x,-y,z
x,-y,-z
-x,y,-z
-x,-y,-z
x,y,-z
-x,y,z
x,-y,z
1/2+x,1/2+y,1/2+z
1/2-x,1/2-y,1/2+z
1/2+x,1/2-y,1/2-z
1/2-x,1/2+y,1/2-z
1/2-x,1/2-y,1/2-z
1/2+x,1/2+y,1/2-z
1/2-x,1/2+y,1/2+z
1/2+x,1/2-y,1/2+z
loop_
_atom_site_type_symbol
_atom_site_label
_atom_site_fract_x
_atom_site_fract_y
_atom_site_fract_z
Si Si1 0.712890 0.066846 0.698603
Si Si2 0.287567 0.660905 0.347731
Si Si3 0.282119 0.897134 0.500000
Si Si4 0.718061 0.244426 0.500000
Si Si5 0.217303 0.932225 0.000000
O O1 0.500000 0.063065 0.698392
O O2 0.748802 0.132110 0.748926
O O3 0.776246 0.072429 0.594330
O O4 0.778648 0.000000 0.737269
O O5 0.500000 0.666735 0.350205
O O6 0.223316 0.720006 0.406484
O O7 0.226853 0.604910 0.411789
O O8 0.500000 0.899202 0.500000
O O9 0.227964 0.825840 0.500000
O O10 0.500000 0.246254 0.500000
O O11 0.000000 0.932778 0.000000
O O12 0.285464 0.000000 0.000000
#
# Coordination Sequence:
#
# PCOD9520983 Si02
#       5
#    16  16   8   8   8
#     4  10  20  33  50  73  99 130 168 204 241 287
#     4   9  17  30  50  74  98 124 158 202 247 292
#     4   9  18  34  53  69  94 134 172 205 238 282
#     4   8  16  32  53  76  98 126 166 201 238 295
#     4   8  13  23  41  64  90 122 154 182 224 284
#
# _framework density 23.437059000000001
#
# number of rings (size 3 to 8) (size 9 to 14) (size 15 to 20)
#    0.000    3.000    0.000    3.000    0.000    4.571 
#    0.000    3.571    0.000   11.143    0.000    0.000 
#    0.000    0.000    0.000    0.000    0.000    0.000 
#
# Total GULP energy -155933.557912 kJ/mol
# GULP energy per Si atom -5569.055640 kJ/mol
# Density = 2.338372 g / cm^3
# Si number density = 23.437059 Si / 1000 Ang^3
#
#
#
# Elastic Constant Matrix: (Units=GPa)
#
#
# Indices 1 2 3 4 5 6 
#
# 1 59.7174 5.7516 -2.6497 0.0000 0.0000 0.0000
# 2 5.7516 125.0631 15.6586 0.0000 0.0000 0.0000
# 3 -2.6497 15.6586 91.7597 -0.0001 0.0000 0.0000
# 4 0.0000 0.0000 -0.0001 27.6644 0.0000 0.0000
# 5 0.0000 0.0000 0.0000 0.0000 15.0908 0.0000
# 6 0.0000 0.0000 0.0000 0.0000 0.0000 6.8270
#
#
#
# Elastic Compliance Matrix: (Units=1/GPa)
#
#
# Indices 1 2 3 4 5 6 
#
# 1 0.016856 -0.000854 0.000633 0.000000 0.000000 0.000000
# 2 -0.000854 0.008214 -0.001426 0.000000 0.000000 0.000000
# 3 0.000633 -0.001426 0.011160 0.000000 0.000000 0.000000
# 4 0.000000 0.000000 0.000000 0.036148 0.000000 0.000000
# 5 0.000000 0.000000 0.000000 0.000000 0.066265 0.000000
# 6 0.000000 0.000000 0.000000 0.000000 0.000000 0.146478
#
#
# Mechanical properties :
#
#
# Convention : Reuss Voigt Hill
#
# Bulk Modulus (GPa) = 30.36463 34.89568 32.63016
# Shear Modulus (GPa) = 16.70037 27.10175 21.90106
#
# Velocity S-wave (km/s) = 2.67228 3.40422 3.06021
# Velocity P-wave (km/s) = 4.74399 5.51118 5.14191
#
# Compressibility (1/GPa) = 0.03293305
#
# Stress axis : x y z
#
# Youngs Moduli (GPa) = 59.32638 121.74568 89.60819
#
# Poissons Ratio (x) = 0.10402 -0.05668
# Poissons Ratio (y) = 0.05069 0.12781
# Poissons Ratio (z) = -0.03753 0.17365
#
# Static dielectric constant tensor:
#      x y z
#    x 1.896780 0.000000 0.000000 
#    y 0.000000 1.883050 0.000000 
#    z 0.000000 0.000000 1.994120 
# 
# From -- ./inp_files/19562.got.cif
#   From: 2010.05.17/outbox.cif.g08.bks.cpg/sg71_10_cif.got.tgz:19562.got - 2010.06.03 16:22:01.
