data_PCOD9520132
_publ_section_title
;
Structure prediction by ZEFSAII (Michael W. Deem and Ramdas Pophale) SiO2 
 PCOD9520132
Probable space group: I M M M
;
_chemical_formula_sum "Si O2"
_cell_formula_units_Z 74
_cell_length_a 7.298253
_cell_length_b 15.025075
_cell_length_c 30.559956
_cell_angle_alpha 90.000000
_cell_angle_beta 90.000000
_cell_angle_gamma 90.000000
_cell_volume 3351.106943
_symmetry_space_group_name_H-M "I M M M"
_symmetry_group_IT_number 71
_symmetry_cell_setting 'orthorhombic'
loop_
_space_group_symop_operation_xyz
x,y,z
-x,-y,z
x,-y,-z
-x,y,-z
-x,-y,-z
x,y,-z
-x,y,z
x,-y,z
1/2+x,1/2+y,1/2+z
1/2-x,1/2-y,1/2+z
1/2+x,1/2-y,1/2-z
1/2-x,1/2+y,1/2-z
1/2-x,1/2-y,1/2-z
1/2+x,1/2+y,1/2-z
1/2-x,1/2+y,1/2+z
1/2+x,1/2-y,1/2+z
loop_
_atom_site_type_symbol
_atom_site_label
_atom_site_fract_x
_atom_site_fract_y
_atom_site_fract_z
Si Si1 0.773649 0.500000 0.084161
Si Si2 0.218783 0.803005 0.794513
Si Si3 0.778058 0.313609 0.450448
Si Si4 0.721593 0.000000 0.091235
Si Si5 0.000000 0.000000 0.500000
Si Si6 0.707972 0.182010 0.627173
Si Si7 0.291091 0.500000 0.693538
O O1 0.719385 0.413010 0.112207
O O2 0.000000 0.500000 0.077782
O O3 0.661518 0.500000 0.038869
O O4 0.250000 0.750000 0.750000
O O5 0.291807 0.743211 0.834684
O O6 0.000000 0.812664 0.801967
O O7 0.291032 0.904409 0.793189
O O8 0.719560 0.296884 0.500000
O O9 0.722526 0.411254 0.434101
O O10 0.709382 0.241821 0.416288
O O11 0.000000 0.310249 0.449689
O O12 0.500000 0.000000 0.093435
O O13 0.790908 0.000000 0.140707
O O14 0.500000 0.164056 0.641594
O O15 0.500000 0.500000 0.710402
#
# Coordination Sequence:
#
# PCOD9520132 Si02
#       7
#     8  16  16   8   2  16   8
#     4  10  25  44  64  95 136 172 221 289 328 394
#     4  10  22  40  64  91 121 160 203 257 321 384
#     4  10  21  34  55  85 122 159 203 249 297 360
#     4  10  19  34  55  85 120 158 193 244 298 350
#     4  12  26  44  72  98 124 182 246 256 356 402
#     4  10  22  41  61  85 122 163 204 261 328 375
#     4  10  20  38  60  87 121 153 193 243 298 362
#
# _framework density 22.082255
#
# number of rings (size 3 to 8) (size 9 to 14) (size 15 to 20)
#    0.000    1.946    2.162    0.486    3.027    4.324 
#    0.000    1.081    0.000    1.946    0.000    0.000 
#    0.000    0.000    0.000    0.000    0.000    0.000 
#
# Total GULP energy -206388.521803 kJ/mol
# GULP energy per Si atom -5578.068157 kJ/mol
# Density = 2.203200 g / cm^3
# Si number density = 22.082255 Si / 1000 Ang^3
#
#
#
# Elastic Constant Matrix: (Units=GPa)
#
#
# Indices 1 2 3 4 5 6 
#
# 1 107.4840 14.0870 -4.5727 0.0000 0.0000 0.0000
# 2 14.0870 231.6840 106.5339 0.0000 0.0000 0.0000
# 3 -4.5727 106.5339 141.7120 0.0000 0.0000 0.0000
# 4 0.0000 0.0000 0.0000 48.2585 0.0000 0.0000
# 5 0.0000 0.0000 0.0000 0.0000 21.5967 0.0000
# 6 0.0000 0.0000 0.0000 0.0000 0.0000 1.5840
#
#
#
# Elastic Compliance Matrix: (Units=1/GPa)
#
#
# Indices 1 2 3 4 5 6 
#
# 1 0.009496 -0.001098 0.001132 0.000000 0.000000 0.000000
# 2 -0.001098 0.006723 -0.005090 0.000000 0.000000 0.000000
# 3 0.001132 -0.005090 0.010919 0.000000 0.000000 0.000000
# 4 0.000000 0.000000 0.000000 0.020722 0.000000 0.000000
# 5 0.000000 0.000000 0.000000 0.000000 0.046303 0.000000
# 6 0.000000 0.000000 0.000000 0.000000 0.000000 0.631305
#
#
# Mechanical properties :
#
#
# Convention : Reuss Voigt Hill
#
# Bulk Modulus (GPa) = 58.73124 79.21962 68.97543
# Shear Modulus (GPa) = 6.74531 38.60997 22.67764
#
# Velocity S-wave (km/s) = 1.74965 4.18600 3.20810
# Velocity P-wave (km/s) = 5.54401 7.70169 6.71014
#
# Compressibility (1/GPa) = 0.01702671
#
# Stress axis : x y z
#
# Youngs Moduli (GPa) = 105.31061 148.73442 91.57988
#
# Poissons Ratio (x) = 0.16327 -0.10363
# Poissons Ratio (y) = 0.11560 0.46613
# Poissons Ratio (z) = -0.11917 0.75703
#
# Static dielectric constant tensor:
#      x y z
#    x 1.822270 0.000000 0.000000 
#    y 0.000000 1.813700 0.000000 
#    z 0.000000 0.000000 1.735600 
# 
# From -- ./inp_files/67891.got.cif
#   From: 2010.05.17/outbox.cif.g08.bks.cpg/sg71_34_cif.got.tgz:67891.got - 2010.06.03 16:22:01.
