data_PCOD9520617
_publ_section_title
;
Structure prediction by ZEFSAII (Michael W. Deem and Ramdas Pophale) SiO2 
 PCOD9520617
Probable space group: I M M M
;
_chemical_formula_sum "Si O2"
_cell_formula_units_Z 64
_cell_length_a 41.947740
_cell_length_b 9.937983
_cell_length_c 7.654676
_cell_angle_alpha 90.000000
_cell_angle_beta 90.000000
_cell_angle_gamma 90.000000
_cell_volume 3191.050153
_symmetry_space_group_name_H-M "I M M M"
_symmetry_group_IT_number 71
_symmetry_cell_setting 'orthorhombic'
loop_
_space_group_symop_operation_xyz
x,y,z
-x,-y,z
x,-y,-z
-x,y,-z
-x,-y,-z
x,y,-z
-x,y,z
x,-y,z
1/2+x,1/2+y,1/2+z
1/2-x,1/2-y,1/2+z
1/2+x,1/2-y,1/2-z
1/2-x,1/2+y,1/2-z
1/2-x,1/2-y,1/2-z
1/2+x,1/2+y,1/2-z
1/2-x,1/2+y,1/2+z
1/2+x,1/2-y,1/2+z
loop_
_atom_site_type_symbol
_atom_site_label
_atom_site_fract_x
_atom_site_fract_y
_atom_site_fract_z
Si Si1 0.221349 0.848947 0.209433
Si Si2 0.963512 0.152972 0.713368
Si Si3 0.149863 0.153977 0.210824
Si Si4 0.408212 0.847905 0.791858
O O1 0.250000 0.750000 0.250000
O O2 0.185782 0.810101 0.270934
O O3 0.228003 0.000000 0.274607
O O4 0.219260 0.855375 0.000000
O O5 0.963045 0.153694 0.500000
O O6 0.938006 0.261070 0.777332
O O7 0.000000 0.180922 0.765832
O O8 0.955273 0.000000 0.766958
O O9 0.123578 0.260844 0.265378
O O10 0.142864 0.000000 0.269326
O O11 0.149875 0.151622 0.000000
O O12 0.406072 0.000000 0.721926
O O13 0.412944 0.858310 0.000000
#
# Coordination Sequence:
#
# PCOD9520617 Si02
#       4
#    16  16  16  16
#     4   9  19  35  53  74  99 126 159 199 241 287
#     4   8  14  26  45  68  94 126 163 200 238 282
#     4   9  19  36  54  70  93 129 168 201 237 284
#     4  10  20  31  46  73 104 130 159 198 244 290
#
# _framework density 20.056094000000002
#
# number of rings (size 3 to 8) (size 9 to 14) (size 15 to 20)
#    0.000    3.000    0.000    3.000    0.000    5.000 
#    0.000   10.000    0.000    0.750    0.000    5.250 
#    0.000    0.000    0.000    0.000    0.000    0.000 
#
# Total GULP energy -178482.259691 kJ/mol
# GULP energy per Si atom -5577.570615 kJ/mol
# Density = 2.001045 g / cm^3
# Si number density = 20.056094 Si / 1000 Ang^3
#
#
#
# Elastic Constant Matrix: (Units=GPa)
#
#
# Indices 1 2 3 4 5 6 
#
# 1 183.4938 155.9160 2.1496 0.0000 0.0000 0.0000
# 2 155.9160 188.9517 7.4142 0.0001 0.0000 0.0000
# 3 2.1496 7.4142 34.5836 0.0001 0.0000 0.0000
# 4 0.0000 0.0001 0.0001 17.2326 0.0000 0.0000
# 5 0.0000 0.0000 0.0000 0.0000 8.7066 0.0000
# 6 0.0000 0.0000 0.0000 0.0000 0.0000 35.8471
#
#
#
# Elastic Compliance Matrix: (Units=1/GPa)
#
#
# Indices 1 2 3 4 5 6 
#
# 1 0.018390 -0.015258 0.002128 0.000000 0.000000 0.000000
# 2 -0.015258 0.017997 -0.002910 0.000000 0.000000 0.000000
# 3 0.002128 -0.002910 0.029407 0.000000 0.000000 0.000000
# 4 0.000000 0.000000 0.000000 0.058029 0.000000 0.000000
# 5 0.000000 0.000000 0.000000 0.000000 0.114856 0.000000
# 6 0.000000 0.000000 0.000000 0.000000 0.000000 0.027896
#
#
# Mechanical properties :
#
#
# Convention : Reuss Voigt Hill
#
# Bulk Modulus (GPa) = 29.66134 81.99874 55.83004
# Shear Modulus (GPa) = 16.13462 28.46055 22.29758
#
# Velocity S-wave (km/s) = 2.83940 3.77111 3.33793
# Velocity P-wave (km/s) = 5.05677 7.74178 6.53858
#
# Compressibility (1/GPa) = 0.03371392
#
# Stress axis : x y z
#
# Youngs Moduli (GPa) = 54.37841 55.56527 34.00548
#
# Poissons Ratio (x) = 0.84781 -0.07236
# Poissons Ratio (y) = 0.82970 0.09895
# Poissons Ratio (z) = -0.11572 0.16169
#
# Static dielectric constant tensor:
#      x y z
#    x 1.695820 0.000000 0.000000 
#    y 0.000000 1.700380 0.000000 
#    z 0.000000 0.000000 1.778050 
# 
# From -- ./inp_files/3715.got.cif
#   From: 2010.05.17/outbox.cif.g08.bks.cpg/sg71_2_cif.got.tgz:3715.got - 2010.06.03 16:22:01.
