data_PCOD9520419
_publ_section_title
;
Structure prediction by ZEFSAII (Michael W. Deem and Ramdas Pophale) SiO2 
 PCOD9520419
Probable space group: I M M M
;
_chemical_formula_sum "Si O2"
_cell_formula_units_Z 58
_cell_length_a 12.810206
_cell_length_b 13.437323
_cell_length_c 14.961576
_cell_angle_alpha 90.000000
_cell_angle_beta 90.000000
_cell_angle_gamma 90.000000
_cell_volume 2575.409025
_symmetry_space_group_name_H-M "I M M M"
_symmetry_group_IT_number 71
_symmetry_cell_setting 'orthorhombic'
loop_
_space_group_symop_operation_xyz
x,y,z
-x,-y,z
x,-y,-z
-x,y,-z
-x,-y,-z
x,y,-z
-x,y,z
x,-y,z
1/2+x,1/2+y,1/2+z
1/2-x,1/2-y,1/2+z
1/2+x,1/2-y,1/2-z
1/2-x,1/2+y,1/2-z
1/2-x,1/2-y,1/2-z
1/2+x,1/2+y,1/2-z
1/2-x,1/2+y,1/2+z
1/2+x,1/2-y,1/2+z
loop_
_atom_site_type_symbol
_atom_site_label
_atom_site_fract_x
_atom_site_fract_y
_atom_site_fract_z
Si Si1 0.880983 0.210019 0.315237
Si Si2 0.875642 0.385303 0.814844
Si Si3 0.372385 0.500000 0.893345
Si Si4 0.841608 0.684460 0.500000
Si Si5 0.621493 0.229588 0.500000
Si Si6 0.500000 0.000000 0.000000
O O1 0.838209 0.299415 0.252794
O O2 0.877230 0.256922 0.412949
O O3 0.000000 0.193667 0.283066
O O4 0.840256 0.098773 0.337325
O O5 0.843343 0.500000 0.804574
O O6 0.863321 0.340158 0.913749
O O7 0.000000 0.389685 0.798211
O O8 0.500000 0.500000 0.897020
O O9 0.339286 0.500000 0.000000
O O10 0.714060 0.688266 0.500000
O O11 0.907203 0.584679 0.500000
O O12 0.500000 0.265486 0.500000
#
# Coordination Sequence:
#
# PCOD9520419 Si02
#       6
#    16  16   8   8   8   2
#     4  10  19  35  62 101 139 179 229 289 365 423
#     4   9  19  37  67  99 138 183 239 299 347 408
#     4   9  16  30  53  87 140 185 215 276 341 434
#     4  12  24  40  70  99 143 182 219 288 355 430
#     4  10  23  46  67  94 135 191 243 287 336 415
#     4  12  28  44  70 114 144 174 220 290 378 440
#
# _framework density 22.520693999999999
#
# number of rings (size 3 to 8) (size 9 to 14) (size 15 to 20)
#    0.000    2.069    2.759    0.414    1.931    2.759 
#    4.966    1.724    0.000    3.310    0.000    0.000 
#    0.000    0.000    0.000    0.000    0.000    0.000 
#
# Total GULP energy -161467.915650 kJ/mol
# GULP energy per Si atom -5567.859160 kJ/mol
# Density = 2.246944 g / cm^3
# Si number density = 22.520694 Si / 1000 Ang^3
#
#
#
# Elastic Constant Matrix: (Units=GPa)
#
#
# Indices 1 2 3 4 5 6 
#
# 1 149.6018 85.2170 -1.4229 0.0000 0.0000 0.0000
# 2 85.2170 278.4008 102.7854 0.0000 0.0000 0.0000
# 3 -1.4229 102.7854 146.3976 0.0000 0.0000 0.0000
# 4 0.0000 0.0000 0.0000 92.3589 0.0000 0.0000
# 5 0.0000 0.0000 0.0000 0.0000 34.5795 0.0000
# 6 0.0000 0.0000 0.0000 0.0000 0.0000 56.5670
#
#
#
# Elastic Compliance Matrix: (Units=1/GPa)
#
#
# Indices 1 2 3 4 5 6 
#
# 1 0.008807 -0.003682 0.002671 0.000000 0.000000 0.000000
# 2 -0.003682 0.006388 -0.004521 0.000000 0.000000 0.000000
# 3 0.002671 -0.004521 0.010031 0.000000 0.000000 0.000000
# 4 0.000000 0.000000 0.000000 0.010827 0.000000 0.000000
# 5 0.000000 0.000000 0.000000 0.000000 0.028919 0.000000
# 6 0.000000 0.000000 0.000000 0.000000 0.000000 0.017678
#
#
# Mechanical properties :
#
#
# Convention : Reuss Voigt Hill
#
# Bulk Modulus (GPa) = 70.61270 105.28437 87.94853
# Shear Modulus (GPa) = 50.79520 62.55582 56.67551
#
# Velocity S-wave (km/s) = 4.75435 5.27611 5.02201
# Velocity P-wave (km/s) = 7.84609 9.16341 8.53021
#
# Compressibility (1/GPa) = 0.01416176
#
# Stress axis : x y z
#
# Youngs Moduli (GPa) = 113.54564 156.54419 99.69406
#
# Poissons Ratio (x) = 0.57636 -0.26624
# Poissons Ratio (y) = 0.41805 0.45069
# Poissons Ratio (z) = -0.30323 0.70770
#
# Static dielectric constant tensor:
#      x y z
#    x 2.001910 0.000000 0.000000 
#    y 0.000000 1.791370 0.000000 
#    z 0.000000 0.000000 1.708420 
# 
# From -- ./inp_files/44277.got.cif
#   From: 2010.05.17/outbox.cif.g08.bks.cpg/sg71_23_cif.got.tgz:44277.got - 2010.06.03 16:22:01.
