data_PCOD9520146
_publ_section_title
;
Structure prediction by ZEFSAII (Michael W. Deem and Ramdas Pophale) SiO2 
 PCOD9520146
Probable space group: I M M M
;
_chemical_formula_sum "Si O2"
_cell_formula_units_Z 104
_cell_length_a 21.418567
_cell_length_b 31.051361
_cell_length_c 8.011193
_cell_angle_alpha 90.000000
_cell_angle_beta 90.000000
_cell_angle_gamma 90.000000
_cell_volume 5328.049440
_symmetry_space_group_name_H-M "I M M M"
_symmetry_group_IT_number 71
_symmetry_cell_setting 'orthorhombic'
loop_
_space_group_symop_operation_xyz
x,y,z
-x,-y,z
x,-y,-z
-x,y,-z
-x,-y,-z
x,y,-z
-x,y,z
x,-y,z
1/2+x,1/2+y,1/2+z
1/2-x,1/2-y,1/2+z
1/2+x,1/2-y,1/2-z
1/2-x,1/2+y,1/2-z
1/2-x,1/2-y,1/2-z
1/2+x,1/2+y,1/2-z
1/2-x,1/2+y,1/2+z
1/2+x,1/2-y,1/2+z
loop_
_atom_site_type_symbol
_atom_site_label
_atom_site_fract_x
_atom_site_fract_y
_atom_site_fract_z
Si Si1 0.500000 0.947954 0.190390
Si Si2 0.858876 0.867429 0.697702
Si Si3 0.137372 0.450819 0.801594
Si Si4 0.927300 0.047499 0.201422
Si Si5 0.813936 0.274697 0.199378
Si Si6 0.429669 0.283775 0.799009
Si Si7 0.282960 0.130201 0.705126
O O1 0.565657 0.936379 0.273409
O O2 0.500000 0.000000 0.191376
O O3 0.500000 0.932792 0.000000
O O4 0.853550 0.859412 0.500000
O O5 0.888778 0.913629 0.725816
O O6 0.903150 0.829632 0.765431
O O7 0.788589 0.867413 0.763785
O O8 0.145611 0.500000 0.733978
O O9 0.182533 0.413207 0.736290
O O10 0.147448 0.453704 0.000000
O O11 0.000000 0.051681 0.248621
O O12 0.905386 0.000000 0.254293
O O13 0.924320 0.049256 0.000000
O O14 0.750000 0.250000 0.250000
O O15 0.875885 0.250404 0.258625
O O16 0.813039 0.324398 0.256990
O O17 0.814246 0.275011 0.000000
O O18 0.500000 0.274995 0.736301
O O19 0.433856 0.286157 0.000000
O O20 0.283667 0.128975 0.500000
#
# Coordination Sequence:
#
# PCOD9520146 Si02
#       7
#     8  16  16  16  16  16  16
#     4   9  17  31  51  75 105 139 173 215 265 315
#     4  10  19  34  56  80 106 139 180 224 272 321
#     4   9  17  32  55  79 103 137 179 219 264 319
#     4   9  19  35  51  71 106 146 180 220 268 315
#     4  11  21  38  61  82 111 149 188 229 279 336
#     4  10  21  38  59  84 115 146 182 234 285 329
#     4   9  19  35  55  80 108 137 175 223 267 314
#
# _framework density 19.519338999999999
#
# number of rings (size 3 to 8) (size 9 to 14) (size 15 to 20)
#    0.000    2.385    1.538    1.615    0.000    3.692 
#    1.385    4.615    0.000    1.846    0.000    0.000 
#    0.000    0.000    0.000    0.000    0.000    0.000 
#
# Total GULP energy -289978.981183 kJ/mol
# GULP energy per Si atom -5576.518869 kJ/mol
# Density = 1.947491 g / cm^3
# Si number density = 19.519339 Si / 1000 Ang^3
#
#
#
# Elastic Constant Matrix: (Units=GPa)
#
#
# Indices 1 2 3 4 5 6 
#
# 1 161.1361 96.1726 10.7508 0.0000 0.0000 0.0000
# 2 96.1726 148.6270 5.7372 0.0000 0.0000 0.0000
# 3 10.7508 5.7372 11.8177 0.0000 0.0000 0.0000
# 4 0.0000 0.0000 0.0000 22.1711 0.0000 0.0000
# 5 0.0000 0.0000 0.0000 0.0000 4.7644 0.0000
# 6 0.0000 0.0000 0.0000 0.0000 0.0000 33.4258
#
#
#
# Elastic Compliance Matrix: (Units=1/GPa)
#
#
# Indices 1 2 3 4 5 6 
#
# 1 0.010567 -0.006590 -0.006414 0.000000 0.000000 0.000000
# 2 -0.006590 0.010967 0.000671 0.000000 0.000000 0.000000
# 3 -0.006414 0.000671 0.090128 0.000000 0.000000 0.000000
# 4 0.000000 0.000000 0.000000 0.045104 0.000000 0.000000
# 5 0.000000 0.000000 0.000000 0.000000 0.209889 0.000000
# 6 0.000000 0.000000 0.000000 0.000000 0.000000 0.029917
#
#
# Mechanical properties :
#
#
# Convention : Reuss Voigt Hill
#
# Bulk Modulus (GPa) = 11.49480 60.76689 36.13085
# Shear Modulus (GPa) = 11.10532 26.00028 18.55280
#
# Velocity S-wave (km/s) = 2.38783 3.65365 3.08634
# Velocity P-wave (km/s) = 3.67478 6.99987 5.59027
#
# Compressibility (1/GPa) = 0.08699585
#
# Stress axis : x y z
#
# Youngs Moduli (GPa) = 94.63336 91.18566 11.09538
#
# Poissons Ratio (x) = 0.60092 0.07116
# Poissons Ratio (y) = 0.62364 -0.00745
# Poissons Ratio (z) = 0.60695 -0.06119
#
# Static dielectric constant tensor:
#      x y z
#    x 1.773510 0.000000 0.000000 
#    y 0.000000 1.685440 0.000000 
#    z 0.000000 0.000000 1.706660 
# 
# From -- ./inp_files/11494.got.cif
#   From: 2010.05.17/outbox.cif.g08.bks.cpg/sg71_6_cif.got.tgz:11494.got - 2010.06.03 16:22:01.
