data_PCOD9520728
_publ_section_title
;
Structure prediction by ZEFSAII (Michael W. Deem and Ramdas Pophale) SiO2 
 PCOD9520728
Probable space group: I M M M
;
_chemical_formula_sum "Si O2"
_cell_formula_units_Z 88
_cell_length_a 21.607528
_cell_length_b 9.686997
_cell_length_c 18.666181
_cell_angle_alpha 90.000000
_cell_angle_beta 90.000000
_cell_angle_gamma 90.000000
_cell_volume 3907.056777
_symmetry_space_group_name_H-M "I M M M"
_symmetry_group_IT_number 71
_symmetry_cell_setting 'orthorhombic'
loop_
_space_group_symop_operation_xyz
x,y,z
-x,-y,z
x,-y,-z
-x,y,-z
-x,-y,-z
x,y,-z
-x,y,z
x,-y,z
1/2+x,1/2+y,1/2+z
1/2-x,1/2-y,1/2+z
1/2+x,1/2-y,1/2-z
1/2-x,1/2+y,1/2-z
1/2-x,1/2-y,1/2-z
1/2+x,1/2+y,1/2-z
1/2-x,1/2+y,1/2+z
1/2+x,1/2-y,1/2+z
loop_
_atom_site_type_symbol
_atom_site_label
_atom_site_fract_x
_atom_site_fract_y
_atom_site_fract_z
Si Si1 0.575030 0.336221 0.143005
Si Si2 0.075405 0.662838 0.500000
Si Si3 0.908053 0.158560 0.918434
Si Si4 0.095294 0.343286 0.212974
Si Si5 0.757146 0.853883 0.081373
Si Si6 0.739647 0.854747 0.688314
O O1 0.500000 0.337273 0.143223
O O2 0.593603 0.500000 0.142327
O O3 0.593311 0.250869 0.215304
O O4 0.593667 0.247908 0.071984
O O5 0.095266 0.500000 0.500000
O O6 0.000000 0.659840 0.500000
O O7 0.930655 0.257275 0.854877
O O8 0.832358 0.151934 0.916803
O O9 0.928179 0.000000 0.907584
O O10 0.924428 0.201111 0.000000
O O11 0.070766 0.500000 0.224846
O O12 0.165969 0.364466 0.187910
O O13 0.734595 0.716682 0.118266
O O14 0.738299 0.000000 0.116436
O O15 0.737636 0.856388 0.000000
O O16 0.750000 0.750000 0.750000
O O17 0.769033 0.000000 0.702939
#
# Coordination Sequence:
#
# PCOD9520728 Si02
#       6
#    16   8  16  16  16  16
#     4  10  20  34  54  79 105 134 170 210 253 305
#     4   9  17  31  53  79 105 133 165 205 253 303
#     4   8  14  26  45  69  96 127 163 200 240 289
#     4  10  20  32  49  75 103 132 167 208 256 302
#     4   8  14  26  45  67  90 118 154 197 241 284
#     4  10  20  32  48  70  97 130 166 204 246 295
#
# _framework density 22.523349
#
# number of rings (size 3 to 8) (size 9 to 14) (size 15 to 20)
#    0.000    2.818    0.000    3.000    0.000    5.091 
#    0.000    3.636    2.000    0.545    0.000    3.818 
#    0.000    0.000    0.000    0.000    0.000    0.000 
#
# Total GULP energy -245287.093498 kJ/mol
# GULP energy per Si atom -5574.706670 kJ/mol
# Density = 2.247209 g / cm^3
# Si number density = 22.523349 Si / 1000 Ang^3
#
#
#
# Elastic Constant Matrix: (Units=GPa)
#
#
# Indices 1 2 3 4 5 6 
#
# 1 52.6747 5.8161 -2.2433 0.0000 0.0000 0.0000
# 2 5.8161 246.6555 134.6248 0.0000 0.0000 0.0000
# 3 -2.2433 134.6248 182.0399 0.0000 0.0000 0.0000
# 4 0.0000 0.0000 0.0000 40.1741 0.0000 0.0000
# 5 0.0000 0.0000 0.0000 0.0000 31.7557 0.0000
# 6 0.0000 0.0000 0.0000 0.0000 0.0000 -11.1622
#
#
#
# Elastic Compliance Matrix: (Units=1/GPa)
#
#
# Indices 1 2 3 4 5 6 
#
# 1 0.019132 -0.000972 0.000955 0.000000 0.000000 0.000000
# 2 -0.000972 0.006848 -0.005076 0.000000 0.000000 0.000000
# 3 0.000955 -0.005076 0.009259 0.000000 0.000000 0.000000
# 4 0.000000 0.000000 0.000000 0.024892 0.000000 0.000000
# 5 0.000000 0.000000 0.000000 0.000000 0.031490 0.000000
# 6 0.000000 0.000000 0.000000 0.000000 0.000000 -0.089588
#
#
# Mechanical properties :
#
#
# Convention : Reuss Voigt Hill
#
# Bulk Modulus (GPa) = 39.91694 84.19614 62.05654
# Shear Modulus (GPa) = 243.06058 35.03167 139.04613
#
# Velocity S-wave (km/s) = 10.39948 3.94807 7.86564
# Velocity P-wave (km/s) = 12.72635 7.63190 10.49299
#
# Compressibility (1/GPa) = 0.02505202
#
# Stress axis : x y z
#
# Youngs Moduli (GPa) = 52.26725 146.03453 108.00292
#
# Poissons Ratio (x) = 0.14198 -0.10312
# Poissons Ratio (y) = 0.05082 0.54823
# Poissons Ratio (z) = -0.04990 0.74128
#
# Static dielectric constant tensor:
#      x y z
#    x 1.995290 0.000000 0.000000 
#    y 0.000000 1.843350 0.000000 
#    z 0.000000 0.000000 1.379850 
# 
# From -- ./inp_files/8770.got.cif
#   From: 2010.05.17/outbox.cif.g08.bks.cpg/sg71_5_cif.got.tgz:8770.got - 2010.06.03 16:22:01.
