data_PCOD9520262
_publ_section_title
;
Structure prediction by ZEFSAII (Michael W. Deem and Ramdas Pophale) SiO2 
 PCOD9520262
Probable space group: I M M M
;
_chemical_formula_sum "Si O2"
_cell_formula_units_Z 66
_cell_length_a 15.853318
_cell_length_b 26.061258
_cell_length_c 7.911977
_cell_angle_alpha 90.000000
_cell_angle_beta 90.000000
_cell_angle_gamma 90.000000
_cell_volume 3268.891930
_symmetry_space_group_name_H-M "I M M M"
_symmetry_group_IT_number 71
_symmetry_cell_setting 'orthorhombic'
loop_
_space_group_symop_operation_xyz
x,y,z
-x,-y,z
x,-y,-z
-x,y,-z
-x,-y,-z
x,y,-z
-x,y,z
x,-y,z
1/2+x,1/2+y,1/2+z
1/2-x,1/2-y,1/2+z
1/2+x,1/2-y,1/2-z
1/2-x,1/2+y,1/2-z
1/2-x,1/2-y,1/2-z
1/2+x,1/2+y,1/2-z
1/2-x,1/2+y,1/2+z
1/2+x,1/2-y,1/2+z
loop_
_atom_site_type_symbol
_atom_site_label
_atom_site_fract_x
_atom_site_fract_y
_atom_site_fract_z
Si Si1 0.000000 0.500000 0.500000
Si Si2 0.838203 0.649025 0.293168
Si Si3 0.154042 0.870822 0.197472
Si Si4 0.402544 0.257803 0.203481
Si Si5 0.500000 0.083958 0.693456
Si Si6 0.500000 0.557349 0.801106
O O1 0.000000 0.455956 0.348291
O O2 0.842579 0.646741 0.500000
O O3 0.749094 0.626114 0.233088
O O4 0.846777 0.709016 0.245389
O O5 0.916988 0.618704 0.219401
O O6 0.124501 0.812315 0.224085
O O7 0.083054 0.909609 0.260436
O O8 0.161077 0.880716 0.000000
O O9 0.500000 0.247306 0.249493
O O10 0.398695 0.262062 0.000000
O O11 0.500000 0.063728 0.500000
O O12 0.500000 0.500000 0.723426
O O13 0.500000 0.551530 0.000000
#
# Coordination Sequence:
#
# PCOD9520262 Si02
#       6
#     2  16  16  16   8   8
#     4  12  26  52  72  90 148 166 222 292 330 398
#     4  10  21  42  65  94 136 176 210 273 335 393
#     4  11  23  38  64  95 129 169 216 268 331 394
#     4  10  19  34  62  91 131 179 210 256 333 391
#     4  12  25  44  74 100 128 179 223 273 342 398
#     4  11  25  46  65  83 118 167 217 281 331 381
#
# _framework density 20.190328000000001
#
# number of rings (size 3 to 8) (size 9 to 14) (size 15 to 20)
#    0.000    1.333    3.636    2.000    0.000    3.879 
#    2.182    0.000    0.000    0.000    0.000    0.000 
#    0.000    0.000    0.000    0.000    0.000    0.000 
#
# Total GULP energy -184055.652142 kJ/mol
# GULP energy per Si atom -5577.444004 kJ/mol
# Density = 2.014437 g / cm^3
# Si number density = 20.190328 Si / 1000 Ang^3
#
#
#
# Elastic Constant Matrix: (Units=GPa)
#
#
# Indices 1 2 3 4 5 6 
#
# 1 179.8827 78.2189 28.1290 -0.0001 -0.0001 0.0000
# 2 78.2189 144.3755 33.4717 -0.0002 0.0000 0.0000
# 3 28.1290 33.4717 66.7281 -0.0058 0.0035 -0.0007
# 4 -0.0001 -0.0002 -0.0058 1.8453 0.0010 -0.0001
# 5 -0.0001 0.0000 0.0035 0.0010 -11.8337 -0.0001
# 6 0.0000 0.0000 -0.0007 -0.0001 -0.0001 9.8059
#
#
#
# Elastic Compliance Matrix: (Units=1/GPa)
#
#
# Indices 1 2 3 4 5 6 
#
# 1 0.007363 -0.003700 -0.001248 -0.000004 0.000000 0.000000
# 2 -0.003700 0.009697 -0.003304 -0.000010 -0.000001 0.000000
# 3 -0.001248 -0.003304 0.017170 0.000054 0.000005 0.000001
# 4 -0.000004 -0.000010 0.000054 0.541906 0.000047 0.000003
# 5 0.000000 -0.000001 0.000005 0.000047 -0.084504 -0.000001
# 6 0.000000 0.000000 0.000001 0.000003 -0.000001 0.101979
#
#
# Mechanical properties :
#
#
# Convention : Reuss Voigt Hill
#
# Bulk Modulus (GPa) = 56.41650 74.51395 65.46522
# Shear Modulus (GPa) = 8.11657 16.70795 12.41226
#
# Velocity S-wave (km/s) = 2.00718 2.87979 2.48213
# Velocity P-wave (km/s) = 5.77708 6.93134 6.38037
#
# Compressibility (1/GPa) = 0.01772531
#
# Stress axis : x y z
#
# Youngs Moduli (GPa) = 135.81166 103.12523 58.24157
#
# Poissons Ratio (x) = 0.38154 0.07269
# Poissons Ratio (y) = 0.50248 0.19246
# Poissons Ratio (z) = 0.16950 0.34077
#
# Static dielectric constant tensor:
#      x y z
#    x 1.755830 0.000000 0.000000 
#    y 0.000000 1.719440 0.000000 
#    z 0.000000 0.000000 1.712090 
# 
# From -- ./inp_files/5918.got.cif
#   From: 2010.05.17/outbox.cif.g08.bks.cpg/sg71_3_cif.got.tgz:5918.got - 2010.06.03 16:22:01.
