data_PCOD9520460
_publ_section_title
;
Structure prediction by ZEFSAII (Michael W. Deem and Ramdas Pophale) SiO2 
 PCOD9520460
Probable space group: I M M M
;
_chemical_formula_sum "Si O2"
_cell_formula_units_Z 96
_cell_length_a 20.790168
_cell_length_b 13.851462
_cell_length_c 15.319996
_cell_angle_alpha 90.000000
_cell_angle_beta 90.000000
_cell_angle_gamma 90.000000
_cell_volume 4411.763930
_symmetry_space_group_name_H-M "I M M M"
_symmetry_group_IT_number 71
_symmetry_cell_setting 'orthorhombic'
loop_
_space_group_symop_operation_xyz
x,y,z
-x,-y,z
x,-y,-z
-x,y,-z
-x,-y,-z
x,y,-z
-x,y,z
x,-y,z
1/2+x,1/2+y,1/2+z
1/2-x,1/2-y,1/2+z
1/2+x,1/2-y,1/2-z
1/2-x,1/2+y,1/2-z
1/2-x,1/2-y,1/2-z
1/2+x,1/2+y,1/2-z
1/2-x,1/2+y,1/2+z
1/2+x,1/2-y,1/2+z
loop_
_atom_site_type_symbol
_atom_site_label
_atom_site_fract_x
_atom_site_fract_y
_atom_site_fract_z
Si Si1 0.760367 0.615655 0.098282
Si Si2 0.426772 0.185667 0.096090
Si Si3 0.293475 0.383591 0.402941
Si Si4 0.071145 0.886803 0.845456
Si Si5 0.681294 0.883119 0.774636
Si Si6 0.389830 0.390234 0.141878
O O1 0.768721 0.500000 0.093400
O O2 0.807684 0.648878 0.175121
O O3 0.686401 0.628149 0.128936
O O4 0.769243 0.653827 0.000000
O O5 0.500000 0.153355 0.108943
O O6 0.380892 0.153140 0.174199
O O7 0.424646 0.301988 0.096062
O O8 0.404504 0.151354 0.000000
O O9 0.268422 0.367026 0.500000
O O10 0.297817 0.500000 0.390818
O O11 0.366186 0.346335 0.393197
O O12 0.243079 0.349980 0.330963
O O13 0.089290 0.885464 0.743001
O O14 0.000000 0.843904 0.859504
O O15 0.066568 0.000000 0.870629
O O16 0.680365 0.000000 0.775781
O O17 0.402939 0.500000 0.111500
#
# Coordination Sequence:
#
# PCOD9520460 Si02
#       6
#    16  16  16  16  16  16
#     4   9  17  32  59  92 120 147 188 241 295 353
#     4  11  25  40  56  85 119 154 201 246 288 348
#     4   9  16  28  48  75 107 147 194 236 278 335
#     4   9  16  27  46  73 107 147 187 230 283 339
#     4  10  20  38  61  84 115 155 194 241 298 345
#     4  10  19  36  59  84 117 155 191 236 293 348
#
# _framework density 21.760003999999999
#
# number of rings (size 3 to 8) (size 9 to 14) (size 15 to 20)
#    0.000    2.333    1.667    1.500    0.000    4.333 
#    0.000    3.333    0.000    0.500    0.000    2.333 
#    0.000    0.000    0.000    0.000    0.000    0.000 
#
# Total GULP energy -268088.491298 kJ/mol
# GULP energy per Si atom -5585.176902 kJ/mol
# Density = 2.171048 g / cm^3
# Si number density = 21.760004 Si / 1000 Ang^3
#
#
#
# Elastic Constant Matrix: (Units=GPa)
#
#
# Indices 1 2 3 4 5 6 
#
# 1 123.5127 21.7935 75.9403 0.0000 0.0000 0.0000
# 2 21.7935 66.9908 2.5107 0.0000 0.0000 0.0000
# 3 75.9403 2.5107 95.8729 0.0000 0.0000 0.0000
# 4 0.0000 0.0000 0.0000 -2.8019 0.0000 0.0000
# 5 0.0000 0.0000 0.0000 0.0000 5.2380 0.0000
# 6 0.0000 0.0000 0.0000 0.0000 0.0000 17.4385
#
#
#
# Elastic Compliance Matrix: (Units=1/GPa)
#
#
# Indices 1 2 3 4 5 6 
#
# 1 0.017391 -0.005146 -0.013641 0.000000 0.000000 0.000000
# 2 -0.005146 0.016465 0.003645 0.000000 0.000000 0.000000
# 3 -0.013641 0.003645 0.021140 0.000000 0.000000 0.000000
# 4 0.000000 0.000000 0.000000 -0.356904 0.000000 0.000000
# 5 0.000000 0.000000 0.000000 0.000000 0.190914 0.000000
# 6 0.000000 0.000000 0.000000 0.000000 0.000000 0.057344
#
#
# Mechanical properties :
#
#
# Convention : Reuss Voigt Hill
#
# Bulk Modulus (GPa) = 40.46578 54.09617 47.28097
# Shear Modulus (GPa) = -330.50059 16.38371 -157.05844
#
# Velocity S-wave (km/s) = -12.33751 2.74693 -8.50496
# Velocity P-wave (km/s) = 13.57628 5.91398 8.64119
#
# Compressibility (1/GPa) = 0.02471224
#
# Stress axis : x y z
#
# Youngs Moduli (GPa) = 57.50028 60.73469 47.30438
#
# Poissons Ratio (x) = 0.31257 0.64526
# Poissons Ratio (y) = 0.29592 -0.17244
# Poissons Ratio (z) = 0.78434 -0.22140
#
# Static dielectric constant tensor:
#      x y z
#    x 1.777930 0.000000 0.000000 
#    y 0.000000 1.834220 0.000000 
#    z 0.000000 0.000000 1.807540 
# 
# From -- ./inp_files/34517.got.cif
#   From: 2010.05.17/outbox.cif.g08.bks.cpg/sg71_18_cif.got.tgz:34517.got - 2010.06.03 16:22:01.
