data_PCOD9520512
_publ_section_title
;
Structure prediction by ZEFSAII (Michael W. Deem and Ramdas Pophale) SiO2 
 PCOD9520512
Probable space group: I M M M
;
_chemical_formula_sum "Si O2"
_cell_formula_units_Z 96
_cell_length_a 17.911002
_cell_length_b 23.193900
_cell_length_c 12.218492
_cell_angle_alpha 90.000000
_cell_angle_beta 90.000000
_cell_angle_gamma 90.000000
_cell_volume 5075.879127
_symmetry_space_group_name_H-M "I M M M"
_symmetry_group_IT_number 71
_symmetry_cell_setting 'orthorhombic'
loop_
_space_group_symop_operation_xyz
x,y,z
-x,-y,z
x,-y,-z
-x,y,-z
-x,-y,-z
x,y,-z
-x,y,z
x,-y,z
1/2+x,1/2+y,1/2+z
1/2-x,1/2-y,1/2+z
1/2+x,1/2-y,1/2-z
1/2-x,1/2+y,1/2-z
1/2-x,1/2-y,1/2-z
1/2+x,1/2+y,1/2-z
1/2-x,1/2+y,1/2+z
1/2+x,1/2-y,1/2+z
loop_
_atom_site_type_symbol
_atom_site_label
_atom_site_fract_x
_atom_site_fract_y
_atom_site_fract_z
Si Si1 0.292849 0.934056 0.265341
Si Si2 0.369187 0.937047 0.500000
Si Si3 0.909800 0.746660 0.225516
Si Si4 0.000000 0.069079 0.629443
Si Si5 0.414405 0.808389 0.500000
Si Si6 0.587668 0.862383 0.869808
Si Si7 0.365566 0.622524 0.269378
Si Si8 0.089799 0.932755 0.000000
O O1 0.320426 0.934866 0.390335
O O2 0.357733 0.906118 0.191745
O O3 0.217093 0.898392 0.257725
O O4 0.278867 0.000000 0.230657
O O5 0.413908 0.877496 0.500000
O O6 0.408268 0.000000 0.500000
O O7 0.895748 0.701230 0.322270
O O8 0.873606 0.808814 0.237785
O O9 0.000000 0.754980 0.221165
O O10 0.882592 0.716813 0.112581
O O11 0.072926 0.094657 0.688754
O O12 0.000000 0.082263 0.500000
O O13 0.000000 0.000000 0.643094
O O14 0.500000 0.789121 0.500000
O O15 0.500000 0.874518 0.844392
O O16 0.597376 0.864749 0.000000
O O17 0.383675 0.599919 0.391442
O O18 0.000000 0.932349 0.000000
O O19 0.114009 0.000000 0.000000
#
# Coordination Sequence:
#
# PCOD9520512 Si02
#       8
#    16   8  16   8   8  16  16   8
#     4  11  25  43  65  94 128 166 214 268 324 379
#     4  10  22  42  63  90 127 163 206 266 329 375
#     4  10  20  39  63  93 126 165 212 259 316 383
#     4  11  24  41  63  91 127 178 229 266 312 378
#     4  10  19  37  67  93 123 157 207 270 319 379
#     4  10  23  44  67  93 128 167 210 266 325 387
#     4  12  24  41  63  95 131 173 212 265 318 378
#     4  11  21  37  62  90 124 166 214 264 315 370
#
# _framework density 18.912979
#
# number of rings (size 3 to 8) (size 9 to 14) (size 15 to 20)
#    0.000    1.333    3.333    2.000    2.333    2.833 
#    0.000    2.500    0.000    0.000    0.000    0.000 
#    0.000    0.000    0.000    0.000    0.000    0.000 
#
# Total GULP energy -268106.619192 kJ/mol
# GULP energy per Si atom -5585.554566 kJ/mol
# Density = 1.886993 g / cm^3
# Si number density = 18.912979 Si / 1000 Ang^3
#
#
#
# Elastic Constant Matrix: (Units=GPa)
#
#
# Indices 1 2 3 4 5 6 
#
# 1 82.7080 49.1161 55.1279 0.0000 0.0000 0.0000
# 2 49.1161 140.3155 51.3081 0.0000 0.0000 0.0000
# 3 55.1279 51.3081 126.4397 0.0000 0.0000 0.0000
# 4 0.0000 0.0000 0.0000 15.6871 0.0000 0.0000
# 5 0.0000 0.0000 0.0000 0.0000 -8.9044 0.0000
# 6 0.0000 0.0000 0.0000 0.0000 0.0000 41.5707
#
#
#
# Elastic Compliance Matrix: (Units=1/GPa)
#
#
# Indices 1 2 3 4 5 6 
#
# 1 0.018980 -0.004248 -0.006552 0.000000 0.000000 0.000000
# 2 -0.004248 0.009319 -0.001929 0.000000 0.000000 0.000000
# 3 -0.006552 -0.001929 0.011548 0.000000 0.000000 0.000000
# 4 0.000000 0.000000 0.000000 0.063747 0.000000 0.000000
# 5 0.000000 0.000000 0.000000 0.000000 -0.112304 0.000000
# 6 0.000000 0.000000 0.000000 0.000000 0.000000 0.024055
#
#
# Mechanical properties :
#
#
# Convention : Reuss Voigt Hill
#
# Bulk Modulus (GPa) = 69.49487 73.39637 71.44562
# Shear Modulus (GPa) = 109.64563 22.59809 66.12186
#
# Velocity S-wave (km/s) = 7.62231 3.46040 5.91921
# Velocity P-wave (km/s) = 10.69067 7.40659 9.19641
#
# Compressibility (1/GPa) = 0.01438955
#
# Stress axis : x y z
#
# Youngs Moduli (GPa) = 52.68588 107.30312 86.59221
#
# Poissons Ratio (x) = 0.45585 0.56732
# Poissons Ratio (y) = 0.22382 0.16708
# Poissons Ratio (z) = 0.34518 0.20704
#
# Static dielectric constant tensor:
#      x y z
#    x 1.633830 0.000000 0.000000 
#    y 0.000000 1.646070 0.000000 
#    z 0.000000 0.000000 1.650380 
# 
# From -- ./inp_files/24315.got.cif
#   From: 2010.05.17/outbox.cif.g08.bks.cpg/sg71_13_cif.got.tgz:24315.got - 2010.06.03 16:22:01.
