data_PCOD9520902
_publ_section_title
;
Structure prediction by ZEFSAII (Michael W. Deem and Ramdas Pophale) SiO2 
 PCOD9520902
Probable space group: I M M M
;
_chemical_formula_sum "Si O2"
_cell_formula_units_Z 80
_cell_length_a 16.474082
_cell_length_b 28.728179
_cell_length_c 9.080023
_cell_angle_alpha 90.000000
_cell_angle_beta 90.000000
_cell_angle_gamma 90.000000
_cell_volume 4297.305904
_symmetry_space_group_name_H-M "I M M M"
_symmetry_group_IT_number 71
_symmetry_cell_setting 'orthorhombic'
loop_
_space_group_symop_operation_xyz
x,y,z
-x,-y,z
x,-y,-z
-x,y,-z
-x,-y,-z
x,y,-z
-x,y,z
x,-y,z
1/2+x,1/2+y,1/2+z
1/2-x,1/2-y,1/2+z
1/2+x,1/2-y,1/2-z
1/2-x,1/2+y,1/2-z
1/2-x,1/2-y,1/2-z
1/2+x,1/2+y,1/2-z
1/2-x,1/2+y,1/2+z
1/2+x,1/2-y,1/2+z
loop_
_atom_site_type_symbol
_atom_site_label
_atom_site_fract_x
_atom_site_fract_y
_atom_site_fract_z
Si Si1 0.905481 0.775756 0.662912
Si Si2 0.405023 0.372103 0.676103
Si Si3 0.190691 0.287570 0.172460
Si Si4 0.591381 0.055965 0.825948
Si Si5 0.243426 0.605504 0.173686
O O1 0.866044 0.780966 0.500000
O O2 0.887382 0.819467 0.768206
O O3 0.888790 0.726360 0.737477
O O4 0.000000 0.779590 0.642561
O O5 0.399366 0.374461 0.500000
O O6 0.500000 0.383286 0.716422
O O7 0.331438 0.401201 0.749097
O O8 0.250000 0.250000 0.250000
O O9 0.218594 0.340168 0.191252
O O10 0.180309 0.277923 0.000000
O O11 0.500000 0.070890 0.776587
O O12 0.668197 0.077287 0.742010
O O13 0.594011 0.000000 0.812015
O O14 0.598088 0.067140 0.000000
O O15 0.251337 0.595949 0.000000
#
# Coordination Sequence:
#
# PCOD9520902 Si02
#       5
#    16  16  16  16  16
#     4  10  20  33  49  70 100 141 188 236 285 335
#     4  10  20  34  54  79 108 148 195 238 281 333
#     4  11  22  34  49  72 107 149 191 236 285 336
#     4   9  20  41  67  92 118 150 190 238 294 356
#     4  11  23  36  56  86 117 152 192 239 295 352
#
# _framework density 18.616315
#
# number of rings (size 3 to 8) (size 9 to 14) (size 15 to 20)
#    0.000    1.800    2.000    3.000    0.000    6.400 
#    0.000    5.000    0.000    0.600    0.000    4.200 
#    0.000    0.000    0.000    0.000    0.000    0.000 
#
# Total GULP energy -222778.497610 kJ/mol
# GULP energy per Si atom -5569.462440 kJ/mol
# Density = 1.857394 g / cm^3
# Si number density = 18.616315 Si / 1000 Ang^3
#
#
#
# Elastic Constant Matrix: (Units=GPa)
#
#
# Indices 1 2 3 4 5 6 
#
# 1 153.9897 37.5233 76.0258 -0.0015 -0.0002 0.0002
# 2 37.5233 29.2156 35.6231 0.0002 0.0011 0.0007
# 3 76.0258 35.6231 103.5740 0.0191 -0.0069 -0.0056
# 4 -0.0015 0.0002 0.0191 20.5949 -0.0018 -0.0007
# 5 -0.0002 0.0011 -0.0069 -0.0018 30.4559 0.0012
# 6 0.0002 0.0007 -0.0056 -0.0007 0.0012 35.0474
#
#
#
# Elastic Compliance Matrix: (Units=1/GPa)
#
#
# Indices 1 2 3 4 5 6 
#
# 1 0.011043 -0.007405 -0.005559 0.000006 -0.000001 -0.000001
# 2 -0.007405 0.063916 -0.016548 0.000014 -0.000006 -0.000004
# 3 -0.005559 -0.016548 0.019427 -0.000018 0.000005 0.000003
# 4 0.000006 0.000014 -0.000018 0.048556 0.000003 0.000001
# 5 -0.000001 -0.000006 0.000005 0.000003 0.032834 -0.000001
# 6 -0.000001 -0.000004 0.000003 0.000001 -0.000001 0.028533
#
#
# Mechanical properties :
#
#
# Convention : Reuss Voigt Hill
#
# Bulk Modulus (GPa) = 28.27870 65.01374 46.64622
# Shear Modulus (GPa) = 18.17401 26.39347 22.28374
#
# Velocity S-wave (km/s) = 3.12787 3.76940 3.46352
# Velocity P-wave (km/s) = 5.31677 7.34461 6.41137
#
# Compressibility (1/GPa) = 0.03536230
#
# Stress axis : x y z
#
# Youngs Moduli (GPa) = 90.55714 15.64559 51.47577
#
# Poissons Ratio (x) = 0.11585 0.28614
# Poissons Ratio (y) = 0.67057 0.85181
# Poissons Ratio (z) = 0.50339 0.25890
#
# Static dielectric constant tensor:
#      x y z
#    x 1.876620 0.000000 0.000000 
#    y 0.000000 1.626340 0.000000 
#    z 0.000000 0.000000 1.664450 
# 
# From -- ./inp_files/8373.got.cif
#   From: 2010.05.17/outbox.cif.g08.bks.cpg/sg71_5_cif.got.tgz:8373.got - 2010.06.03 16:22:01.
