data_PCOD9520043
_publ_section_title
;
Structure prediction by ZEFSAII (Michael W. Deem and Ramdas Pophale) SiO2 
 PCOD9520043
Probable space group: I M M M
;
_chemical_formula_sum "Si O2"
_cell_formula_units_Z 108
_cell_length_a 23.767517
_cell_length_b 15.853556
_cell_length_c 16.826454
_cell_angle_alpha 90.000000
_cell_angle_beta 90.000000
_cell_angle_gamma 90.000000
_cell_volume 6340.202175
_symmetry_space_group_name_H-M "I M M M"
_symmetry_group_IT_number 71
_symmetry_cell_setting 'orthorhombic'
loop_
_space_group_symop_operation_xyz
x,y,z
-x,-y,z
x,-y,-z
-x,y,-z
-x,-y,-z
x,y,-z
-x,y,z
x,-y,z
1/2+x,1/2+y,1/2+z
1/2-x,1/2-y,1/2+z
1/2+x,1/2-y,1/2-z
1/2-x,1/2+y,1/2-z
1/2-x,1/2-y,1/2-z
1/2+x,1/2+y,1/2-z
1/2-x,1/2+y,1/2+z
1/2+x,1/2-y,1/2+z
loop_
_atom_site_type_symbol
_atom_site_label
_atom_site_fract_x
_atom_site_fract_y
_atom_site_fract_z
Si Si1 0.660137 0.775132 0.906042
Si Si2 0.068427 0.000000 0.589372
Si Si3 0.064387 0.100736 0.851789
Si Si4 0.226014 0.500000 0.000000
Si Si5 0.175112 0.171785 0.912287
Si Si6 0.433998 0.328943 0.824779
Si Si7 0.769454 0.400436 0.304176
Si Si8 0.731700 0.842253 0.377701
O O1 0.605186 0.743234 0.859610
O O2 0.684976 0.856261 0.861225
O O3 0.709042 0.704356 0.895928
O O4 0.650072 0.787121 0.000000
O O5 0.085489 0.084743 0.632733
O O6 0.089956 0.000000 0.500000
O O7 0.000000 0.000000 0.588660
O O8 0.111556 0.140211 0.907223
O O9 0.070052 0.150200 0.768258
O O10 0.000000 0.110336 0.879675
O O11 0.073456 0.000000 0.839529
O O12 0.226397 0.574808 0.069255
O O13 0.210111 0.123862 0.844652
O O14 0.184946 0.271179 0.898170
O O15 0.198609 0.152086 0.000000
O O16 0.500000 0.314936 0.843357
O O17 0.776308 0.500000 0.300944
O O18 0.771517 0.362929 0.215647
#
# Coordination Sequence:
#
# PCOD9520043 Si02
#       8
#    16   8  16   4  16  16  16  16
#     4  11  22  35  51  80 114 144 183 227 266 317
#     4   9  16  27  45  70  98 131 171 210 251 306
#     4  10  20  35  54  79 110 147 187 225 268 323
#     4  12  20  38  62  84 112 142 168 232 284 324
#     4  11  22  37  56  81 112 146 182 223 270 324
#     4  10  19  34  52  73 107 148 185 222 268 320
#     4  11  22  36  59  79 106 146 181 224 273 327
#     4  11  21  39  56  83 113 137 180 222 278 331
#
# _framework density 17.034158000000001
#
# number of rings (size 3 to 8) (size 9 to 14) (size 15 to 20)
#    0.000    1.407    2.963    5.778    0.000    3.852 
#    1.333    0.741    0.000    0.444    0.000    2.074 
#    0.000    0.000    0.000    0.000    0.000    0.000 
#
# Total GULP energy -300929.455129 kJ/mol
# GULP energy per Si atom -5572.767688 kJ/mol
# Density = 1.699539 g / cm^3
# Si number density = 17.034158 Si / 1000 Ang^3
#
#
#
# Elastic Constant Matrix: (Units=GPa)
#
#
# Indices 1 2 3 4 5 6 
#
# 1 69.9091 35.7070 35.1864 0.0000 0.0000 0.0000
# 2 35.7070 62.3635 33.1891 0.0000 0.0000 0.0000
# 3 35.1864 33.1891 102.9827 0.0000 0.0000 0.0000
# 4 0.0000 0.0000 0.0000 26.9141 0.0000 0.0000
# 5 0.0000 0.0000 0.0000 0.0000 15.7928 0.0000
# 6 0.0000 0.0000 0.0000 0.0000 0.0000 12.7614
#
#
#
# Elastic Compliance Matrix: (Units=1/GPa)
#
#
# Indices 1 2 3 4 5 6 
#
# 1 0.021554 -0.010165 -0.004088 0.000000 0.000000 0.000000
# 2 -0.010165 0.024149 -0.004309 0.000000 0.000000 0.000000
# 3 -0.004088 -0.004309 0.012496 0.000000 0.000000 0.000000
# 4 0.000000 0.000000 0.000000 0.037155 0.000000 0.000000
# 5 0.000000 0.000000 0.000000 0.000000 0.063320 0.000000
# 6 0.000000 0.000000 0.000000 0.000000 0.000000 0.078361
#
#
# Mechanical properties :
#
#
# Convention : Reuss Voigt Hill
#
# Bulk Modulus (GPa) = 47.45469 49.26890 48.36180
# Shear Modulus (GPa) = 17.78185 19.83852 18.81018
#
# Velocity S-wave (km/s) = 3.23444 3.41637 3.32665
# Velocity P-wave (km/s) = 6.47053 6.67447 6.57329
#
# Compressibility (1/GPa) = 0.02107273
#
# Stress axis : x y z
#
# Youngs Moduli (GPa) = 46.39487 41.41007 80.02500
#
# Poissons Ratio (x) = 0.42095 0.32717
# Poissons Ratio (y) = 0.47162 0.34486
# Poissons Ratio (z) = 0.18968 0.17845
#
# Static dielectric constant tensor:
#      x y z
#    x 1.584840 0.000000 0.000000 
#    y 0.000000 1.548220 0.000000 
#    z 0.000000 0.000000 1.590690 
# 
# From -- ./inp_files/34937.got.cif
#   From: 2010.05.17/outbox.cif.g08.bks.cpg/sg71_18_cif.got.tgz:34937.got - 2010.06.03 16:22:01.
