data_PCOD9520334
_publ_section_title
;
Structure prediction by ZEFSAII (Michael W. Deem and Ramdas Pophale) SiO2 
 PCOD9520334
Probable space group: I M M M
;
_chemical_formula_sum "Si O2"
_cell_formula_units_Z 56
_cell_length_a 7.418798
_cell_length_b 11.676760
_cell_length_c 28.787695
_cell_angle_alpha 90.000000
_cell_angle_beta 90.000000
_cell_angle_gamma 90.000000
_cell_volume 2493.806732
_symmetry_space_group_name_H-M "I M M M"
_symmetry_group_IT_number 71
_symmetry_cell_setting 'orthorhombic'
loop_
_space_group_symop_operation_xyz
x,y,z
-x,-y,z
x,-y,-z
-x,y,-z
-x,-y,-z
x,y,-z
-x,y,z
x,-y,z
1/2+x,1/2+y,1/2+z
1/2-x,1/2-y,1/2+z
1/2+x,1/2-y,1/2-z
1/2-x,1/2+y,1/2-z
1/2-x,1/2-y,1/2-z
1/2+x,1/2+y,1/2-z
1/2-x,1/2+y,1/2+z
1/2+x,1/2-y,1/2+z
loop_
_atom_site_type_symbol
_atom_site_label
_atom_site_fract_x
_atom_site_fract_y
_atom_site_fract_z
Si Si1 0.780289 0.133004 0.550270
Si Si2 0.782654 0.000000 0.946731
Si Si3 0.716205 0.871097 0.776400
Si Si4 0.707834 0.799854 0.876737
O O1 0.721358 0.182495 0.500000
O O2 0.710408 0.191576 0.596884
O O3 0.000000 0.141704 0.550811
O O4 0.734864 0.000000 0.550361
O O5 0.714368 0.107180 0.917457
O O6 0.000000 0.000000 0.945839
O O7 0.723231 0.000000 0.000000
O O8 0.500000 0.881060 0.776975
O O9 0.750000 0.750000 0.750000
O O10 0.784452 0.849381 0.829109
O O11 0.780222 0.000000 0.760623
O O12 0.500000 0.772233 0.865474
#
# Coordination Sequence:
#
# PCOD9520334 Si02
#       4
#    16   8  16  16
#     4   8  14  25  45  77 111 139 173 221 275 330
#     4  11  23  35  51  81 119 153 185 225 282 349
#     4  10  22  40  60  86 117 150 199 257 308 365
#     4  10  19  35  58  81 107 143 191 240 283 337
#
# _framework density 22.455631
#
# number of rings (size 3 to 8) (size 9 to 14) (size 15 to 20)
#    0.000    2.429    1.429    2.143    0.000    5.143 
#    0.000    2.857    0.000    0.857    0.000    4.000 
#    0.000    0.000    0.000    0.000    0.000    0.000 
#
# Total GULP energy -155994.381329 kJ/mol
# GULP energy per Si atom -5571.227905 kJ/mol
# Density = 2.240452 g / cm^3
# Si number density = 22.455631 Si / 1000 Ang^3
#
#
#
# Elastic Constant Matrix: (Units=GPa)
#
#
# Indices 1 2 3 4 5 6 
#
# 1 82.1494 0.1005 -1.3540 0.0000 0.0000 0.0000
# 2 0.1005 150.3989 77.0468 0.0000 0.0000 0.0000
# 3 -1.3540 77.0468 126.3867 0.0000 0.0000 0.0000
# 4 0.0000 0.0000 0.0000 -3.5775 0.0000 0.0000
# 5 0.0000 0.0000 0.0000 0.0000 1.1396 0.0000
# 6 0.0000 0.0000 0.0000 0.0000 0.0000 -177.3304
#
#
#
# Elastic Compliance Matrix: (Units=1/GPa)
#
#
# Indices 1 2 3 4 5 6 
#
# 1 0.012176 -0.000109 0.000197 0.000000 0.000000 0.000000
# 2 -0.000109 0.009669 -0.005896 0.000000 0.000000 0.000000
# 3 0.000197 -0.005896 0.011508 0.000000 0.000000 0.000000
# 4 0.000000 0.000000 0.000000 -0.279528 0.000001 0.000000
# 5 0.000000 0.000000 0.000000 0.000001 0.877513 0.000000
# 6 0.000000 0.000000 0.000000 0.000000 0.000000 -0.005639
#
#
# Mechanical properties :
#
#
# Convention : Reuss Voigt Hill
#
# Bulk Modulus (GPa) = 46.00144 56.72464 51.36304
# Shear Modulus (GPa) = 7.75721 -17.07755 -4.66017
#
# Velocity S-wave (km/s) = 1.86063 -2.76071 -1.44215
# Velocity P-wave (km/s) = 5.01457 3.89276 4.48885
#
# Compressibility (1/GPa) = 0.02173845
#
# Stress axis : x y z
#
# Youngs Moduli (GPa) = 82.12660 103.41982 86.89283
#
# Poissons Ratio (x) = 0.01127 -0.01711
# Poissons Ratio (y) = 0.00895 0.51229
# Poissons Ratio (z) = -0.01617 0.60973
#
# Static dielectric constant tensor:
#      x y z
#    x 1.868900 0.000000 0.000000 
#    y 0.000000 2.125890 0.000000 
#    z 0.000000 0.000000 1.840510 
# 
# From -- ./inp_files/3298.got.cif
#   From: 2010.05.17/outbox.cif.g08.bks.cpg/sg71_2_cif.got.tgz:3298.got - 2010.06.03 16:22:01.
