data_PCOD9520461
_publ_section_title
;
Structure prediction by ZEFSAII (Michael W. Deem and Ramdas Pophale) SiO2 
 PCOD9520461
Probable space group: I M M M
;
_chemical_formula_sum "Si O2"
_cell_formula_units_Z 100
_cell_length_a 7.417260
_cell_length_b 21.235206
_cell_length_c 29.834389
_cell_angle_alpha 90.000000
_cell_angle_beta 90.000000
_cell_angle_gamma 90.000000
_cell_volume 4699.126423
_symmetry_space_group_name_H-M "I M M M"
_symmetry_group_IT_number 71
_symmetry_cell_setting 'orthorhombic'
loop_
_space_group_symop_operation_xyz
x,y,z
-x,-y,z
x,-y,-z
-x,y,-z
-x,-y,-z
x,y,-z
-x,y,z
x,-y,z
1/2+x,1/2+y,1/2+z
1/2-x,1/2-y,1/2+z
1/2+x,1/2-y,1/2-z
1/2-x,1/2+y,1/2-z
1/2-x,1/2-y,1/2-z
1/2+x,1/2+y,1/2-z
1/2-x,1/2+y,1/2+z
1/2+x,1/2-y,1/2+z
loop_
_atom_site_type_symbol
_atom_site_label
_atom_site_fract_x
_atom_site_fract_y
_atom_site_fract_z
Si Si1 0.281198 0.688851 0.803929
Si Si2 0.208373 0.067917 0.357159
Si Si3 0.219916 0.314253 0.644831
Si Si4 0.215186 0.728493 0.450084
Si Si5 0.791720 0.394068 0.725003
Si Si6 0.500000 0.500000 0.250468
Si Si7 0.785310 0.377059 0.950076
O O1 0.500000 0.690592 0.803915
O O2 0.215982 0.629067 0.833222
O O3 0.219407 0.751760 0.828569
O O4 0.218178 0.670323 0.754441
O O5 0.210152 0.081759 0.409948
O O6 0.000000 0.063649 0.342431
O O7 0.291504 0.000000 0.347580
O O8 0.282315 0.308867 0.593445
O O9 0.267642 0.374374 0.674839
O O10 0.000000 0.312668 0.644186
O O11 0.286881 0.713695 0.500000
O O12 0.245256 0.803140 0.442227
O O13 0.000000 0.719283 0.451710
O O14 0.658087 0.444762 0.745784
O O15 0.000000 0.414769 0.724629
O O16 0.000000 0.384940 0.949559
O O17 0.719025 0.392820 0.000000
#
# Coordination Sequence:
#
# PCOD9520461 Si02
#       7
#    16  16  16  16  16   4  16
#     4  10  19  36  59  84 122 158 197 255 304 351
#     4  10  21  34  52  74 101 146 197 244 292 345
#     4   9  18  35  59  92 124 154 196 250 304 358
#     4   9  16  31  57  84 113 150 190 236 296 358
#     4  11  24  41  64  90 122 162 205 249 302 363
#     4  12  26  48  64  90 125 162 209 254 296 372
#     4  10  20  33  47  69 103 144 192 247 299 348
#
# _framework density 21.280552
#
# number of rings (size 3 to 8) (size 9 to 14) (size 15 to 20)
#    0.000    2.080    2.400    1.200    1.120    2.240 
#    2.880    1.600    0.000    0.000    0.000    1.120 
#    0.000    3.840    0.000    0.000    0.000    0.000 
#
# Total GULP energy -278821.349567 kJ/mol
# GULP energy per Si atom -5576.426991 kJ/mol
# Density = 2.123212 g / cm^3
# Si number density = 21.280552 Si / 1000 Ang^3
#
#
#
# Elastic Constant Matrix: (Units=GPa)
#
#
# Indices 1 2 3 4 5 6 
#
# 1 101.2741 12.4720 7.8867 0.0000 0.0000 0.0000
# 2 12.4720 29.1583 28.7993 0.0000 0.0000 0.0000
# 3 7.8867 28.7993 126.8193 0.0000 0.0000 0.0000
# 4 0.0000 0.0000 0.0000 2.1088 0.0000 0.0000
# 5 0.0000 0.0000 0.0000 0.0000 9.3954 0.0000
# 6 0.0000 0.0000 0.0000 0.0000 0.0000 445.0730
#
#
#
# Elastic Compliance Matrix: (Units=1/GPa)
#
#
# Indices 1 2 3 4 5 6 
#
# 1 0.010445 -0.004932 0.000471 0.000000 0.000000 0.000000
# 2 -0.004932 0.046541 -0.010262 0.000000 0.000000 0.000000
# 3 0.000471 -0.010262 0.010186 0.000000 0.000000 0.000000
# 4 0.000000 0.000000 0.000000 0.474201 0.000000 0.000000
# 5 0.000000 0.000000 0.000000 0.000000 0.106435 0.000000
# 6 0.000000 0.000000 0.000000 0.000000 0.000000 0.002247
#
#
# Mechanical properties :
#
#
# Convention : Reuss Voigt Hill
#
# Bulk Modulus (GPa) = 26.50807 39.50754 33.00780
# Shear Modulus (GPa) = 7.22461 105.18835 56.20648
#
# Velocity S-wave (km/s) = 1.84453 7.03823 5.14485
# Velocity P-wave (km/s) = 4.12552 9.20077 7.13001
#
# Compressibility (1/GPa) = 0.03772436
#
# Stress axis : x y z
#
# Youngs Moduli (GPa) = 95.73974 21.48627 98.16975
#
# Poissons Ratio (x) = 0.10598 -0.04619
# Poissons Ratio (y) = 0.47223 1.00745
# Poissons Ratio (z) = -0.04505 0.22050
#
# Static dielectric constant tensor:
#      x y z
#    x 1.797750 0.000000 0.000000 
#    y 0.000000 1.745870 0.000000 
#    z 0.000000 0.000000 1.828870 
# 
# From -- ./inp_files/17025.got.cif
#   From: 2010.05.17/outbox.cif.g08.bks.cpg/sg71_9_cif.got.tgz:17025.got - 2010.06.03 16:22:01.
