data_PCOD9520781
_publ_section_title
;
Structure prediction by ZEFSAII (Michael W. Deem and Ramdas Pophale) SiO2 
 PCOD9520781
Probable space group: I M M M
;
_chemical_formula_sum "Si O2"
_cell_formula_units_Z 104
_cell_length_a 21.473541
_cell_length_b 8.045275
_cell_length_c 33.152097
_cell_angle_alpha 90.000000
_cell_angle_beta 90.000000
_cell_angle_gamma 90.000000
_cell_volume 5727.374265
_symmetry_space_group_name_H-M "I M M M"
_symmetry_group_IT_number 71
_symmetry_cell_setting 'orthorhombic'
loop_
_space_group_symop_operation_xyz
x,y,z
-x,-y,z
x,-y,-z
-x,y,-z
-x,-y,-z
x,y,-z
-x,y,z
x,-y,z
1/2+x,1/2+y,1/2+z
1/2-x,1/2-y,1/2+z
1/2+x,1/2-y,1/2-z
1/2-x,1/2+y,1/2-z
1/2-x,1/2-y,1/2-z
1/2+x,1/2+y,1/2-z
1/2-x,1/2+y,1/2+z
1/2+x,1/2-y,1/2+z
loop_
_atom_site_type_symbol
_atom_site_label
_atom_site_fract_x
_atom_site_fract_y
_atom_site_fract_z
Si Si1 0.819035 0.299536 0.635126
Si Si2 0.198003 0.696658 0.544321
Si Si3 0.181000 0.698069 0.156258
Si Si4 0.931095 0.297077 0.000000
Si Si5 0.429720 0.698178 0.715643
Si Si6 0.334746 0.798522 0.434409
Si Si7 0.569667 0.200553 0.808282
O O1 0.821922 0.500000 0.632807
O O2 0.823037 0.236426 0.588513
O O3 0.752803 0.258925 0.656293
O O4 0.876118 0.237849 0.662292
O O5 0.177616 0.764010 0.500000
O O6 0.183783 0.500000 0.543980
O O7 0.272163 0.722331 0.547436
O O8 0.184240 0.500000 0.157650
O O9 0.129239 0.750229 0.188609
O O10 0.158236 0.751300 0.111856
O O11 0.892833 0.247315 0.039115
O O12 0.932993 0.500000 0.000000
O O13 0.000000 0.231866 0.000000
O O14 0.500000 0.760655 0.703725
O O15 0.432350 0.500000 0.714493
O O16 0.419207 0.753064 0.761785
O O17 0.328232 0.000000 0.436272
O O18 0.500000 0.259549 0.819164
O O19 0.569659 0.000000 0.810716
#
# Coordination Sequence:
#
# PCOD9520781 Si02
#       7
#    16  16  16   8  16  16  16
#     4   9  18  32  50  74 102 130 162 202 248 293
#     4   9  16  27  46  69  94 125 156 189 233 287
#     4  10  20  32  49  74 100 128 165 207 246 289
#     4   9  16  26  41  61  85 115 152 193 236 276
#     4  10  21  36  53  72  96 130 167 202 247 299
#     4   9  17  29  45  64  88 120 157 198 238 277
#     4   9  18  34  55  75  96 126 164 204 245 293
#
# _framework density 18.158407
#
# number of rings (size 3 to 8) (size 9 to 14) (size 15 to 20)
#    0.000    2.692    0.769    0.923    0.000    3.385 
#    0.000    1.538    0.000    1.385    0.000    3.231 
#    0.000    0.000    0.000   11.538    0.000   12.000 
#
# Total GULP energy -289556.564465 kJ/mol
# GULP energy per Si atom -5568.395470 kJ/mol
# Density = 1.811708 g / cm^3
# Si number density = 18.158407 Si / 1000 Ang^3
#
#
#
# Elastic Constant Matrix: (Units=GPa)
#
#
# Indices 1 2 3 4 5 6 
#
# 1 139.4940 13.2073 107.5228 0.0000 0.0000 0.0000
# 2 13.2073 14.6523 11.8879 0.0000 0.0000 0.0000
# 3 107.5228 11.8879 137.5420 0.0000 0.0000 0.0000
# 4 0.0000 0.0000 0.0000 11.7549 0.0000 0.0000
# 5 0.0000 0.0000 0.0000 0.0000 34.0128 0.0000
# 6 0.0000 0.0000 0.0000 0.0000 0.0000 14.5616
#
#
#
# Elastic Compliance Matrix: (Units=1/GPa)
#
#
# Indices 1 2 3 4 5 6 
#
# 1 0.018411 -0.005289 -0.013936 0.000000 0.000000 0.000000
# 2 -0.005289 0.074915 -0.002340 0.000000 0.000000 0.000000
# 3 -0.013936 -0.002340 0.018367 0.000000 0.000000 0.000000
# 4 0.000000 0.000000 0.000000 0.085071 0.000000 0.000000
# 5 0.000000 0.000000 0.000000 0.000000 0.029401 0.000000
# 6 0.000000 0.000000 0.000000 0.000000 0.000000 0.068674
#
#
# Mechanical properties :
#
#
# Convention : Reuss Voigt Hill
#
# Bulk Modulus (GPa) = 14.58513 61.88049 38.23281
# Shear Modulus (GPa) = 13.85718 22.67055 18.26387
#
# Velocity S-wave (km/s) = 2.76547 3.53723 3.17489
# Velocity P-wave (km/s) = 4.27162 7.12985 5.87714
#
# Compressibility (1/GPa) = 0.06856296
#
# Stress axis : x y z
#
# Youngs Moduli (GPa) = 54.31409 13.34848 54.44516
#
# Poissons Ratio (x) = 0.07060 0.75874
# Poissons Ratio (y) = 0.28727 0.12742
# Poissons Ratio (z) = 0.75692 0.03124
#
# Static dielectric constant tensor:
#      x y z
#    x 1.627640 0.000000 0.000000 
#    y 0.000000 1.646330 0.000000 
#    z 0.000000 0.000000 1.671560 
# 
# From -- ./inp_files/70778.got.cif
#   From: 2010.05.17/outbox.cif.g08.bks.cpg/sg71_36_cif.got.tgz:70778.got - 2010.06.03 16:22:01.
