data_PCOD9520487
_publ_section_title
;
Structure prediction by ZEFSAII (Michael W. Deem and Ramdas Pophale) SiO2 
 PCOD9520487
Probable space group: I M M M
;
_chemical_formula_sum "Si O2"
_cell_formula_units_Z 108
_cell_length_a 15.170372
_cell_length_b 23.376198
_cell_length_c 15.789217
_cell_angle_alpha 90.000000
_cell_angle_beta 90.000000
_cell_angle_gamma 90.000000
_cell_volume 5599.260862
_symmetry_space_group_name_H-M "I M M M"
_symmetry_group_IT_number 71
_symmetry_cell_setting 'orthorhombic'
loop_
_space_group_symop_operation_xyz
x,y,z
-x,-y,z
x,-y,-z
-x,y,-z
-x,-y,-z
x,y,-z
-x,y,z
x,-y,z
1/2+x,1/2+y,1/2+z
1/2-x,1/2-y,1/2+z
1/2+x,1/2-y,1/2-z
1/2-x,1/2+y,1/2-z
1/2-x,1/2-y,1/2-z
1/2+x,1/2+y,1/2-z
1/2-x,1/2+y,1/2+z
1/2+x,1/2-y,1/2+z
loop_
_atom_site_type_symbol
_atom_site_label
_atom_site_fract_x
_atom_site_fract_y
_atom_site_fract_z
Si Si1 0.904501 0.223841 0.603113
Si Si2 0.193314 0.904940 0.855288
Si Si3 0.103233 0.665594 0.897337
Si Si4 0.720034 0.936260 0.320685
Si Si5 0.278943 0.726986 0.602312
Si Si6 0.595686 0.589497 0.898513
Si Si7 0.500000 0.568441 0.400094
Si Si8 0.272028 0.500000 0.500000
O O1 0.904004 0.226956 0.500000
O O2 0.817761 0.255062 0.634773
O O3 0.898838 0.156800 0.624283
O O4 0.000000 0.246070 0.631911
O O5 0.250112 0.920079 0.773564
O O6 0.203402 0.838060 0.874453
O O7 0.087870 0.914213 0.851226
O O8 0.222966 0.949325 0.927314
O O9 0.157120 0.612302 0.859146
O O10 0.150288 0.725088 0.870652
O O11 0.000000 0.664746 0.874475
O O12 0.109321 0.662060 0.000000
O O13 0.814106 0.937300 0.368265
O O14 0.680602 0.000000 0.324389
O O15 0.277384 0.729823 0.500000
O O16 0.500000 0.567972 0.867378
O O17 0.593835 0.585570 0.000000
O O18 0.500000 0.500000 0.407668
O O19 0.500000 0.589461 0.500000
#
# Coordination Sequence:
#
# PCOD9520487 Si02
#       8
#    16  16  16  16  16  16   8   4
#     4   8  14  29  56  86 118 156 196 240 300 375
#     4  12  24  38  64  93 128 171 212 269 320 382
#     4  10  23  44  67  93 128 168 217 274 326 387
#     4  12  25  40  60  91 125 169 215 266 320 375
#     4  10  19  36  64  95 121 163 214 264 321 385
#     4   9  18  35  57  83 122 164 195 241 307 378
#     4  11  18  36  60  86 123 165 212 254 309 384
#     4  12  20  49  60  96 131 176 220 254 323 386
#
# _framework density 19.288260999999999
#
# number of rings (size 3 to 8) (size 9 to 14) (size 15 to 20)
#    0.000    1.704    4.444    1.333    2.074    2.370 
#    0.000    2.222    0.000    0.000    0.000    2.074 
#    0.000    0.000    0.000    0.000    0.000    0.000 
#
# Total GULP energy -300818.341232 kJ/mol
# GULP energy per Si atom -5570.710023 kJ/mol
# Density = 1.924436 g / cm^3
# Si number density = 19.288261 Si / 1000 Ang^3
#
#
#
# Elastic Constant Matrix: (Units=GPa)
#
#
# Indices 1 2 3 4 5 6 
#
# 1 136.9160 86.7988 33.4792 -0.0001 0.0000 0.0000
# 2 86.7988 179.1098 36.4862 0.0003 -0.0001 0.0000
# 3 33.4792 36.4862 42.4718 0.0005 -0.0001 -0.0001
# 4 -0.0001 0.0003 0.0005 -21.5303 -0.0003 0.0000
# 5 0.0000 -0.0001 -0.0001 -0.0003 23.4674 0.0000
# 6 0.0000 0.0000 -0.0001 0.0000 0.0000 31.0559
#
#
#
# Elastic Compliance Matrix: (Units=1/GPa)
#
#
# Indices 1 2 3 4 5 6 
#
# 1 0.011399 -0.004477 -0.005139 0.000000 0.000000 0.000000
# 2 -0.004477 0.008526 -0.003795 0.000000 0.000000 0.000000
# 3 -0.005139 -0.003795 0.030856 0.000001 0.000000 0.000000
# 4 0.000000 0.000000 0.000001 -0.046446 -0.000001 0.000000
# 5 0.000000 0.000000 0.000000 -0.000001 0.042612 0.000000
# 6 0.000000 0.000000 0.000000 0.000000 0.000000 0.032200
#
#
# Mechanical properties :
#
#
# Convention : Reuss Voigt Hill
#
# Bulk Modulus (GPa) = 41.73942 74.66957 58.20450
# Shear Modulus (GPa) = 43.87665 20.04750 31.96207
#
# Velocity S-wave (km/s) = 4.77465 3.22741 4.07513
# Velocity P-wave (km/s) = 7.21686 7.25843 7.23767
#
# Compressibility (1/GPa) = 0.02395817
#
# Stress axis : x y z
#
# Youngs Moduli (GPa) = 87.72990 117.28934 32.40822
#
# Poissons Ratio (x) = 0.52511 0.16655
# Poissons Ratio (y) = 0.39277 0.12300
# Poissons Ratio (z) = 0.45085 0.44514
#
# Static dielectric constant tensor:
#      x y z
#    x 1.695030 0.000000 0.000000 
#    y 0.000000 1.667650 0.000000 
#    z 0.000000 0.000000 1.699380 
# 
# From -- ./inp_files/34931.got.cif
#   From: 2010.05.17/outbox.cif.g08.bks.cpg/sg71_18_cif.got.tgz:34931.got - 2010.06.03 16:22:01.
