data_PCOD9520092
_publ_section_title
;
Structure prediction by ZEFSAII (Michael W. Deem and Ramdas Pophale) SiO2 
 PCOD9520092
Probable space group: I M M M
;
_chemical_formula_sum "Si O2"
_cell_formula_units_Z 80
_cell_length_a 17.689549
_cell_length_b 27.347733
_cell_length_c 8.118348
_cell_angle_alpha 90.000000
_cell_angle_beta 90.000000
_cell_angle_gamma 90.000000
_cell_volume 3927.405605
_symmetry_space_group_name_H-M "I M M M"
_symmetry_group_IT_number 71
_symmetry_cell_setting 'orthorhombic'
loop_
_space_group_symop_operation_xyz
x,y,z
-x,-y,z
x,-y,-z
-x,y,-z
-x,-y,-z
x,y,-z
-x,y,z
x,-y,z
1/2+x,1/2+y,1/2+z
1/2-x,1/2-y,1/2+z
1/2+x,1/2-y,1/2-z
1/2-x,1/2+y,1/2-z
1/2-x,1/2-y,1/2-z
1/2+x,1/2+y,1/2-z
1/2-x,1/2+y,1/2+z
1/2+x,1/2-y,1/2+z
loop_
_atom_site_type_symbol
_atom_site_label
_atom_site_fract_x
_atom_site_fract_y
_atom_site_fract_z
Si Si1 0.649827 0.115056 0.297979
Si Si2 0.584787 0.500000 0.694835
Si Si3 0.500000 0.943207 0.701482
Si Si4 0.084413 0.820856 0.800710
Si Si5 0.685693 0.590207 0.195129
Si Si6 0.169904 0.726819 0.801570
O O1 0.649222 0.115379 0.500000
O O2 0.575253 0.085925 0.245729
O O3 0.728125 0.089983 0.242730
O O4 0.654430 0.171740 0.243131
O O5 0.500000 0.500000 0.768070
O O6 0.577075 0.500000 0.500000
O O7 0.632367 0.452449 0.740994
O O8 0.500000 0.943304 0.500000
O O9 0.500000 0.000000 0.753491
O O10 0.146577 0.858397 0.736849
O O11 0.106748 0.766051 0.750329
O O12 0.000000 0.834135 0.745100
O O13 0.085490 0.823066 0.000000
O O14 0.689567 0.585072 0.000000
O O15 0.250000 0.750000 0.750000
O O16 0.169930 0.724729 0.000000
#
# Coordination Sequence:
#
# PCOD9520092 Si02
#       6
#    16   8   8  16  16  16
#     4   9  19  33  52  82 117 148 185 234 287 339
#     4  11  25  43  61  82 111 146 188 231 277 339
#     4   9  18  32  54  82 114 148 186 239 296 341
#     4  10  21  35  54  81 115 154 195 233 277 338
#     4  11  22  37  59  86 115 146 185 234 287 338
#     4  10  19  34  54  79 113 150 188 232 281 336
#
# _framework density 20.369682000000001
#
# number of rings (size 3 to 8) (size 9 to 14) (size 15 to 20)
#    0.000    2.000    2.000    1.500    2.800    3.600 
#    0.000    0.000    0.000    0.000    0.000    6.300 
#    0.000    0.000    0.000    0.000    0.000    0.000 
#
# Total GULP energy -223357.781960 kJ/mol
# GULP energy per Si atom -5583.944549 kJ/mol
# Density = 2.032332 g / cm^3
# Si number density = 20.369682 Si / 1000 Ang^3
#
#
#
# Elastic Constant Matrix: (Units=GPa)
#
#
# Indices 1 2 3 4 5 6 
#
# 1 199.3183 94.2917 15.1919 0.0000 0.0000 0.0000
# 2 94.2917 161.7288 13.4598 0.0000 0.0000 0.0000
# 3 15.1919 13.4598 12.8369 0.0003 0.0000 0.0000
# 4 0.0000 0.0000 0.0003 3.8927 0.0000 0.0000
# 5 0.0000 0.0000 0.0000 0.0000 8.9575 0.0000
# 6 0.0000 0.0000 0.0000 0.0000 0.0000 35.4869
#
#
#
# Elastic Compliance Matrix: (Units=1/GPa)
#
#
# Indices 1 2 3 4 5 6 
#
# 1 0.007156 -0.003799 -0.004486 0.000000 0.000000 0.000000
# 2 -0.003799 0.008791 -0.004722 0.000000 0.000000 0.000000
# 3 -0.004486 -0.004722 0.088160 -0.000006 0.000000 0.000000
# 4 0.000000 0.000000 -0.000006 0.256893 -0.000001 0.000000
# 5 0.000000 0.000000 0.000000 -0.000001 0.111639 0.000000
# 6 0.000000 0.000000 0.000000 0.000000 0.000000 0.028179
#
#
# Mechanical properties :
#
#
# Convention : Reuss Voigt Hill
#
# Bulk Modulus (GPa) = 12.80507 68.86342 40.83424
# Shear Modulus (GPa) = 9.04385 26.39679 17.72032
#
# Velocity S-wave (km/s) = 2.10938 3.60375 2.95267
# Velocity P-wave (km/s) = 3.49752 7.15515 5.63156
#
# Compressibility (1/GPa) = 0.07809409
#
# Stress axis : x y z
#
# Youngs Moduli (GPa) = 139.74031 113.75285 11.34305
#
# Poissons Ratio (x) = 0.43213 0.05088
# Poissons Ratio (y) = 0.53086 0.05356
# Poissons Ratio (z) = 0.62683 0.53712
#
# Static dielectric constant tensor:
#      x y z
#    x 1.813290 0.000000 0.000000 
#    y 0.000000 1.710510 0.000000 
#    z 0.000000 0.000000 1.730500 
# 
# From -- ./inp_files/8391.got.cif
#   From: 2010.05.17/outbox.cif.g08.bks.cpg/sg71_5_cif.got.tgz:8391.got - 2010.06.03 16:22:01.
