data_PCOD9520866
_publ_section_title
;
Structure prediction by ZEFSAII (Michael W. Deem and Ramdas Pophale) SiO2 
 PCOD9520866
Probable space group: I M M M
;
_chemical_formula_sum "Si O2"
_cell_formula_units_Z 72
_cell_length_a 8.695683
_cell_length_b 35.200258
_cell_length_c 14.623537
_cell_angle_alpha 90.000000
_cell_angle_beta 90.000000
_cell_angle_gamma 90.000000
_cell_volume 4476.122609
_symmetry_space_group_name_H-M "I M M M"
_symmetry_group_IT_number 71
_symmetry_cell_setting 'orthorhombic'
loop_
_space_group_symop_operation_xyz
x,y,z
-x,-y,z
x,-y,-z
-x,y,-z
-x,-y,-z
x,y,-z
-x,y,z
x,-y,z
1/2+x,1/2+y,1/2+z
1/2-x,1/2-y,1/2+z
1/2+x,1/2-y,1/2-z
1/2-x,1/2+y,1/2-z
1/2-x,1/2-y,1/2-z
1/2+x,1/2+y,1/2-z
1/2-x,1/2+y,1/2+z
1/2+x,1/2-y,1/2+z
loop_
_atom_site_type_symbol
_atom_site_label
_atom_site_fract_x
_atom_site_fract_y
_atom_site_fract_z
Si Si1 0.818617 0.225938 0.109013
Si Si2 0.311779 0.083038 0.105898
Si Si3 0.177451 0.500000 0.388903
Si Si4 0.184170 0.344214 0.278390
Si Si5 0.816084 0.191302 0.605421
O O1 0.740460 0.191829 0.163021
O O2 0.746399 0.266868 0.131112
O O3 0.000000 0.226773 0.129524
O O4 0.798602 0.220092 0.000000
O O5 0.500000 0.081771 0.106051
O O6 0.255511 0.041115 0.136070
O O7 0.263758 0.117372 0.170787
O O8 0.266508 0.089796 0.000000
O O9 0.173913 0.500000 0.500000
O O10 0.000000 0.500000 0.357091
O O11 0.249673 0.338523 0.177123
O O12 0.000000 0.344170 0.275403
O O13 0.770244 0.184129 0.500000
O O14 0.000000 0.191860 0.610411
#
# Coordination Sequence:
#
# PCOD9520866 Si02
#       5
#    16  16   8  16  16
#     4  10  20  33  48  66  90 120 152 185 221 263
#     4   8  14  24  40  65  95 123 147 172 208 256
#     4   7  10  20  38  60  90 123 148 170 201 249
#     4  11  20  29  45  69  95 119 146 184 226 268
#     4  10  21  36  50  62  81 114 155 195 231 266
#
# _framework density 16.085349999999998
#
# number of rings (size 3 to 8) (size 9 to 14) (size 15 to 20)
#    0.000    2.556    0.000    4.667    0.000    3.556 
#    0.000    0.000    0.000    0.000    0.000    3.889 
#    0.000   18.667    0.000    0.000    0.000    0.000 
#
# Total GULP energy -200738.699365 kJ/mol
# GULP energy per Si atom -5576.074982 kJ/mol
# Density = 1.604874 g / cm^3
# Si number density = 16.085350 Si / 1000 Ang^3
#
#
#
# Elastic Constant Matrix: (Units=GPa)
#
#
# Indices 1 2 3 4 5 6 
#
# 1 32.6447 26.8635 27.0090 0.0000 0.0000 0.0000
# 2 26.8635 141.1128 86.6079 0.0000 0.0000 0.0000
# 3 27.0090 86.6079 79.8312 0.0001 0.0000 0.0000
# 4 0.0000 0.0000 0.0001 19.7544 0.0000 0.0000
# 5 0.0000 0.0000 0.0000 0.0000 23.6076 0.0000
# 6 0.0000 0.0000 0.0000 0.0000 0.0000 11.5702
#
#
#
# Elastic Compliance Matrix: (Units=1/GPa)
#
#
# Indices 1 2 3 4 5 6 
#
# 1 0.042770 0.002212 -0.016870 0.000000 0.000000 0.000000
# 2 0.002212 0.021322 -0.023880 0.000000 0.000000 0.000000
# 3 -0.016870 -0.023880 0.044141 0.000000 0.000000 0.000000
# 4 0.000000 0.000000 0.000000 0.050622 0.000000 0.000000
# 5 0.000000 0.000000 0.000000 0.000000 0.042359 0.000000
# 6 0.000000 0.000000 0.000000 0.000000 0.000000 0.086429
#
#
# Mechanical properties :
#
#
# Convention : Reuss Voigt Hill
#
# Bulk Modulus (GPa) = 32.09557 59.39441 45.74499
# Shear Modulus (GPa) = 13.32959 18.52699 15.92829
#
# Velocity S-wave (km/s) = 2.88180 3.39749 3.15021
# Velocity P-wave (km/s) = 5.57401 7.23846 6.46007
#
# Compressibility (1/GPa) = 0.03115695
#
# Stress axis : x y z
#
# Youngs Moduli (GPa) = 23.38075 46.90000 22.65459
#
# Poissons Ratio (x) = -0.10372 0.38217
# Poissons Ratio (y) = -0.05171 0.54100
# Poissons Ratio (z) = 0.39442 1.11998
#
# Static dielectric constant tensor:
#      x y z
#    x 1.550440 0.000000 0.000000 
#    y 0.000000 1.544690 0.000000 
#    z 0.000000 0.000000 1.542910 
# 
# From -- ./inp_files/16382.got.cif
#   From: 2010.05.17/outbox.cif.g08.bks.cpg/sg71_9_cif.got.tgz:16382.got - 2010.06.03 16:22:01.
