data_PCOD9520827
_publ_section_title
;
Structure prediction by ZEFSAII (Michael W. Deem and Ramdas Pophale) SiO2 
 PCOD9520827
Probable space group: I M M M
;
_chemical_formula_sum "Si O2"
_cell_formula_units_Z 96
_cell_length_a 21.582746
_cell_length_b 12.807013
_cell_length_c 19.142463
_cell_angle_alpha 90.000000
_cell_angle_beta 90.000000
_cell_angle_gamma 90.000000
_cell_volume 5291.177934
_symmetry_space_group_name_H-M "I M M M"
_symmetry_group_IT_number 71
_symmetry_cell_setting 'orthorhombic'
loop_
_space_group_symop_operation_xyz
x,y,z
-x,-y,z
x,-y,-z
-x,y,-z
-x,-y,-z
x,y,-z
-x,y,z
x,-y,z
1/2+x,1/2+y,1/2+z
1/2-x,1/2-y,1/2+z
1/2+x,1/2-y,1/2-z
1/2-x,1/2+y,1/2-z
1/2-x,1/2-y,1/2-z
1/2+x,1/2+y,1/2-z
1/2-x,1/2+y,1/2+z
1/2+x,1/2-y,1/2+z
loop_
_atom_site_type_symbol
_atom_site_label
_atom_site_fract_x
_atom_site_fract_y
_atom_site_fract_z
Si Si1 0.428394 0.804723 0.322484
Si Si2 0.305246 0.122533 0.722867
Si Si3 0.255384 0.699039 0.637817
Si Si4 0.500000 0.127273 0.919540
Si Si5 0.925906 0.500000 0.077489
Si Si6 0.367534 0.118912 0.083484
Si Si7 0.883863 0.122509 0.081119
O O1 0.500000 0.816550 0.299268
O O2 0.373099 0.823666 0.266996
O O3 0.419386 0.696519 0.364176
O O4 0.413129 0.896157 0.378549
O O5 0.276559 0.184689 0.657491
O O6 0.260192 0.143706 0.788249
O O7 0.311889 0.000000 0.712694
O O8 0.190865 0.689980 0.598321
O O9 0.311127 0.643189 0.597173
O O10 0.566084 0.156749 0.887969
O O11 0.500000 0.000000 0.920601
O O12 0.500000 0.164045 0.000000
O O13 0.000000 0.500000 0.070206
O O14 0.897906 0.500000 0.000000
O O15 0.355331 0.000000 0.109806
O O16 0.374651 0.110793 0.000000
O O17 0.897483 0.000000 0.090508
O O18 0.897291 0.149999 0.000000
#
# Coordination Sequence:
#
# PCOD9520827 Si02
#       7
#    16  16  16   8   8  16  16
#     4  10  20  34  51  72 101 135 169 208 255 302
#     4  10  20  35  51  69  97 131 167 208 248 289
#     4  10  20  32  51  74  95 130 170 202 245 300
#     4   7  12  22  38  64  97 125 143 173 230 287
#     4   9  16  28  48  68  88 122 163 200 244 295
#     4   9  15  26  46  71 100 127 153 193 243 294
#     4  10  20  33  51  77 106 134 169 213 257 306
#
# _framework density 18.143408000000001
#
# number of rings (size 3 to 8) (size 9 to 14) (size 15 to 20)
#    0.000    2.500    0.833    3.500    0.000    2.667 
#    1.500    0.833    0.000    0.000    0.000    0.583 
#    0.000    2.000    0.000    0.000    0.000    0.000 
#
# Total GULP energy -267386.709019 kJ/mol
# GULP energy per Si atom -5570.556438 kJ/mol
# Density = 1.810211 g / cm^3
# Si number density = 18.143408 Si / 1000 Ang^3
#
#
#
# Elastic Constant Matrix: (Units=GPa)
#
#
# Indices 1 2 3 4 5 6 
#
# 1 102.9643 17.1790 -3.1668 0.0000 0.0000 0.0000
# 2 17.1790 81.3658 10.8959 0.0000 0.0000 0.0000
# 3 -3.1668 10.8959 18.0121 0.0000 0.0000 0.0000
# 4 0.0000 0.0000 0.0000 11.2254 0.0000 0.0000
# 5 0.0000 0.0000 0.0000 0.0000 12.5242 0.0000
# 6 0.0000 0.0000 0.0000 0.0000 0.0000 21.8886
#
#
#
# Elastic Compliance Matrix: (Units=1/GPa)
#
#
# Indices 1 2 3 4 5 6 
#
# 1 0.010253 -0.002618 0.003387 0.000000 0.000000 0.000000
# 2 -0.002618 0.014042 -0.008955 0.000000 0.000000 0.000000
# 3 0.003387 -0.008955 0.061531 0.000000 0.000000 0.000000
# 4 0.000000 0.000000 0.000000 0.089083 0.000000 0.000000
# 5 0.000000 0.000000 0.000000 0.000000 0.079845 0.000000
# 6 0.000000 0.000000 0.000000 0.000000 0.000000 0.045686
#
#
# Mechanical properties :
#
#
# Convention : Reuss Voigt Hill
#
# Bulk Modulus (GPa) = 14.39824 28.01759 21.20792
# Shear Modulus (GPa) = 14.70743 20.95659 17.83201
#
# Velocity S-wave (km/s) = 2.85023 3.40229 3.13842
# Velocity P-wave (km/s) = 4.33414 5.55967 4.98471
#
# Compressibility (1/GPa) = 0.06945294
#
# Stress axis : x y z
#
# Youngs Moduli (GPa) = 97.53140 71.21435 16.25207
#
# Poissons Ratio (x) = 0.18646 -0.05504
# Poissons Ratio (y) = 0.25536 0.14553
# Poissons Ratio (z) = -0.33029 0.63770
#
# Static dielectric constant tensor:
#      x y z
#    x 1.666590 0.000000 0.000000 
#    y 0.000000 1.602660 0.000000 
#    z 0.000000 0.000000 1.687960 
# 
# From -- ./inp_files/54928.got.cif
#   From: 2010.05.17/outbox.cif.g08.bks.cpg/sg71_28_cif.got.tgz:54928.got - 2010.06.03 16:22:01.
