data_PCOD9520251
_publ_section_title
;
Structure prediction by ZEFSAII (Michael W. Deem and Ramdas Pophale) SiO2 
 PCOD9520251
Probable space group: I M M M
;
_chemical_formula_sum "Si O2"
_cell_formula_units_Z 112
_cell_length_a 29.826871
_cell_length_b 14.330856
_cell_length_c 13.860403
_cell_angle_alpha 90.000000
_cell_angle_beta 90.000000
_cell_angle_gamma 90.000000
_cell_volume 5924.554322
_symmetry_space_group_name_H-M "I M M M"
_symmetry_group_IT_number 71
_symmetry_cell_setting 'orthorhombic'
loop_
_space_group_symop_operation_xyz
x,y,z
-x,-y,z
x,-y,-z
-x,y,-z
-x,-y,-z
x,y,-z
-x,y,z
x,-y,z
1/2+x,1/2+y,1/2+z
1/2-x,1/2-y,1/2+z
1/2+x,1/2-y,1/2-z
1/2-x,1/2+y,1/2-z
1/2-x,1/2-y,1/2-z
1/2+x,1/2+y,1/2-z
1/2-x,1/2+y,1/2+z
1/2+x,1/2-y,1/2+z
loop_
_atom_site_type_symbol
_atom_site_label
_atom_site_fract_x
_atom_site_fract_y
_atom_site_fract_z
Si Si1 0.623766 0.757661 0.614354
Si Si2 0.715816 0.826645 0.290835
Si Si3 0.834138 0.394694 0.393967
Si Si4 0.050235 0.389674 0.209688
Si Si5 0.614191 0.612021 0.225495
Si Si6 0.700404 0.608555 0.104853
Si Si7 0.576158 0.773801 0.110324
O O1 0.623497 0.746928 0.500000
O O2 0.672740 0.789153 0.652072
O O3 0.587966 0.835823 0.648575
O O4 0.611265 0.662566 0.671210
O O5 0.750000 0.750000 0.250000
O O6 0.698012 0.880032 0.196486
O O7 0.748679 0.882120 0.361619
O O8 0.812060 0.385606 0.500000
O O9 0.852771 0.500000 0.388800
O O10 0.874411 0.321308 0.389065
O O11 0.060049 0.500000 0.217793
O O12 0.050537 0.339257 0.314072
O O13 0.000000 0.379617 0.168331
O O14 0.607976 0.500000 0.227392
O O15 0.663776 0.637145 0.183711
O O16 0.581262 0.669862 0.154425
O O17 0.690719 0.500000 0.094531
O O18 0.693388 0.654592 0.000000
O O19 0.560154 0.773301 0.000000
#
# Coordination Sequence:
#
# PCOD9520251 Si02
#       7
#    16  16  16  16  16  16  16
#     4  11  24  41  61  87 117 157 207 260 314 370
#     4  12  21  36  54  80 119 159 199 250 302 361
#     4  10  20  34  55  82 115 157 199 240 294 361
#     4  10  22  41  65  95 130 164 200 247 306 373
#     4  10  20  38  59  82 116 157 200 250 303 356
#     4  10  20  33  51  77 110 150 195 240 290 353
#     4  10  19  34  59  91 122 156 197 241 291 356
#
# _framework density 18.904375999999999
#
# number of rings (size 3 to 8) (size 9 to 14) (size 15 to 20)
#    0.000    1.571    4.286    1.714    0.000    5.714 
#    0.000    1.429    0.000    6.857    0.000    8.000 
#    0.000    0.000    0.000    0.000    0.000    0.000 
#
# Total GULP energy -312218.072433 kJ/mol
# GULP energy per Si atom -5575.322722 kJ/mol
# Density = 1.886135 g / cm^3
# Si number density = 18.904376 Si / 1000 Ang^3
#
#
#
# Elastic Constant Matrix: (Units=GPa)
#
#
# Indices 1 2 3 4 5 6 
#
# 1 70.3937 36.4691 32.2823 0.0000 0.0000 0.0000
# 2 36.4691 129.6447 47.0687 0.0000 0.0000 0.0000
# 3 32.2823 47.0687 146.0794 0.0000 0.0000 0.0000
# 4 0.0000 0.0000 0.0000 15.8990 0.0000 0.0000
# 5 0.0000 0.0000 0.0000 0.0000 7.8273 0.0000
# 6 0.0000 0.0000 0.0000 0.0000 0.0000 21.7336
#
#
#
# Elastic Compliance Matrix: (Units=1/GPa)
#
#
# Indices 1 2 3 4 5 6 
#
# 1 0.017445 -0.003972 -0.002575 0.000000 0.000000 0.000000
# 2 -0.003972 0.009640 -0.002228 0.000000 0.000000 0.000000
# 3 -0.002575 -0.002228 0.008133 0.000000 0.000000 0.000000
# 4 0.000000 0.000000 0.000000 0.062897 0.000000 0.000000
# 5 0.000000 0.000000 0.000000 0.000000 0.127758 0.000000
# 6 0.000000 0.000000 0.000000 0.000000 0.000000 0.046012
#
#
# Mechanical properties :
#
#
# Convention : Reuss Voigt Hill
#
# Bulk Modulus (GPa) = 56.60673 64.19534 60.40103
# Shear Modulus (GPa) = 16.93056 24.44517 20.68787
#
# Velocity S-wave (km/s) = 2.99589 3.59987 3.31167
# Velocity P-wave (km/s) = 6.47888 7.16312 6.82958
#
# Compressibility (1/GPa) = 0.01766574
#
# Stress axis : x y z
#
# Youngs Moduli (GPa) = 57.32394 103.73699 122.96107
#
# Poissons Ratio (x) = 0.41207 0.31665
# Poissons Ratio (y) = 0.22771 0.27398
# Poissons Ratio (z) = 0.14762 0.23115
#
# Static dielectric constant tensor:
#      x y z
#    x 1.668810 0.000000 0.000000 
#    y 0.000000 1.693430 0.000000 
#    z 0.000000 0.000000 1.723290 
# 
# From -- ./inp_files/40372.got.cif
#   From: 2010.05.17/outbox.cif.g08.bks.cpg/sg71_21_cif.got.tgz:40372.got - 2010.06.03 16:22:01.
