data_PCOD9520972
_publ_section_title
;
Structure prediction by ZEFSAII (Michael W. Deem and Ramdas Pophale) SiO2 
 PCOD9520972
Probable space group: I M M M
;
_chemical_formula_sum "Si O2"
_cell_formula_units_Z 88
_cell_length_a 20.120218
_cell_length_b 7.809860
_cell_length_c 28.422965
_cell_angle_alpha 90.000000
_cell_angle_beta 90.000000
_cell_angle_gamma 90.000000
_cell_volume 4466.273465
_symmetry_space_group_name_H-M "I M M M"
_symmetry_group_IT_number 71
_symmetry_cell_setting 'orthorhombic'
loop_
_space_group_symop_operation_xyz
x,y,z
-x,-y,z
x,-y,-z
-x,y,-z
-x,-y,-z
x,y,-z
-x,y,z
x,-y,z
1/2+x,1/2+y,1/2+z
1/2-x,1/2-y,1/2+z
1/2+x,1/2-y,1/2-z
1/2-x,1/2+y,1/2-z
1/2-x,1/2-y,1/2-z
1/2+x,1/2+y,1/2-z
1/2-x,1/2+y,1/2+z
1/2+x,1/2-y,1/2+z
loop_
_atom_site_type_symbol
_atom_site_label
_atom_site_fract_x
_atom_site_fract_y
_atom_site_fract_z
Si Si1 0.074714 0.796494 0.773235
Si Si2 0.820913 0.793659 0.844247
Si Si3 0.138900 0.791946 0.404164
Si Si4 0.776147 0.705575 0.051727
Si Si5 0.000000 0.209132 0.446690
Si Si6 0.184297 0.303964 0.302425
O O1 0.111248 0.730664 0.820398
O O2 0.129746 0.772845 0.732482
O O3 0.000000 0.727365 0.764374
O O4 0.067630 0.000000 0.778552
O O5 0.812208 0.755033 0.899488
O O6 0.758113 0.727924 0.812606
O O7 0.818189 0.000000 0.840470
O O8 0.198984 0.747176 0.439210
O O9 0.067467 0.737485 0.422078
O O10 0.153600 0.708911 0.354324
O O11 0.139780 0.000000 0.398764
O O12 0.779442 0.500000 0.049994
O O13 0.798036 0.770329 0.000000
O O14 0.000000 0.267420 0.500000
O O15 0.000000 0.000000 0.446794
O O16 0.193267 0.500000 0.287781
#
# Coordination Sequence:
#
# PCOD9520972 Si02
#       6
#    16  16  16  16   8  16
#     4  10  21  36  54  74  98 129 167 208 249 295
#     4   9  19  35  53  75 101 130 164 204 248 295
#     4   9  17  29  46  68  96 129 166 205 242 284
#     4   9  17  30  50  75 100 127 163 206 247 290
#     4   9  16  26  43  65  89 123 167 209 242 275
#     4  10  20  33  50  73 101 131 163 201 246 296
#
# _framework density 19.703226999999998
#
# number of rings (size 3 to 8) (size 9 to 14) (size 15 to 20)
#    0.000    2.636    0.000    1.636    1.273    4.364 
#    0.000    0.000    0.000    2.727    0.000    3.818 
#    0.000    0.000    0.000    0.000    0.000    0.000 
#
# Total GULP energy -245176.709177 kJ/mol
# GULP energy per Si atom -5572.197936 kJ/mol
# Density = 1.965838 g / cm^3
# Si number density = 19.703227 Si / 1000 Ang^3
#
#
#
# Elastic Constant Matrix: (Units=GPa)
#
#
# Indices 1 2 3 4 5 6 
#
# 1 98.9892 13.6870 68.5210 0.0000 0.0000 0.0000
# 2 13.6870 23.4884 11.8565 0.0000 0.0000 0.0000
# 3 68.5210 11.8565 114.3616 0.0000 0.0000 0.0000
# 4 0.0000 0.0000 0.0000 16.8056 0.0000 0.0000
# 5 0.0000 0.0000 0.0000 0.0000 10.6580 0.0000
# 6 0.0000 0.0000 0.0000 0.0000 0.0000 16.7643
#
#
#
# Elastic Compliance Matrix: (Units=1/GPa)
#
#
# Indices 1 2 3 4 5 6 
#
# 1 0.017861 -0.005282 -0.010154 0.000000 0.000000 0.000000
# 2 -0.005282 0.046487 -0.001655 0.000000 0.000000 0.000000
# 3 -0.010154 -0.001655 0.015000 0.000000 0.000000 0.000000
# 4 0.000000 0.000000 0.000000 0.059504 0.000000 0.000000
# 5 0.000000 0.000000 0.000000 0.000000 0.093826 0.000000
# 6 0.000000 0.000000 0.000000 0.000000 0.000000 0.059650
#
#
# Mechanical properties :
#
#
# Convention : Reuss Voigt Hill
#
# Bulk Modulus (GPa) = 22.14046 47.21870 34.67958
# Shear Modulus (GPa) = 14.63845 18.36391 16.50118
#
# Velocity S-wave (km/s) = 2.72866 3.05622 2.89708
# Velocity P-wave (km/s) = 4.60313 6.03912 5.36935
#
# Compressibility (1/GPa) = 0.04516617
#
# Stress axis : x y z
#
# Youngs Moduli (GPa) = 55.98718 21.51118 66.66805
#
# Poissons Ratio (x) = 0.11363 0.67695
# Poissons Ratio (y) = 0.29574 0.11031
# Poissons Ratio (z) = 0.56850 0.03559
#
# Static dielectric constant tensor:
#      x y z
#    x 1.810610 0.000000 0.000000 
#    y 0.000000 1.733560 0.000000 
#    z 0.000000 0.000000 1.696040 
# 
# From -- ./inp_files/63220.got.cif
#   From: 2010.05.17/outbox.cif.g08.bks.cpg/sg71_32_cif.got.tgz:63220.got - 2010.06.03 16:22:01.
