data_PCOD9520542
_publ_section_title
;
Structure prediction by ZEFSAII (Michael W. Deem and Ramdas Pophale) SiO2 
 PCOD9520542
Probable space group: I M M M
;
_chemical_formula_sum "Si O2"
_cell_formula_units_Z 120
_cell_length_a 19.700858
_cell_length_b 14.997801
_cell_length_c 23.230687
_cell_angle_alpha 90.000000
_cell_angle_beta 90.000000
_cell_angle_gamma 90.000000
_cell_volume 6863.960583
_symmetry_space_group_name_H-M "I M M M"
_symmetry_group_IT_number 71
_symmetry_cell_setting 'orthorhombic'
loop_
_space_group_symop_operation_xyz
x,y,z
-x,-y,z
x,-y,-z
-x,y,-z
-x,-y,-z
x,y,-z
-x,y,z
x,-y,z
1/2+x,1/2+y,1/2+z
1/2-x,1/2-y,1/2+z
1/2+x,1/2-y,1/2-z
1/2-x,1/2+y,1/2-z
1/2-x,1/2-y,1/2-z
1/2+x,1/2+y,1/2-z
1/2-x,1/2+y,1/2+z
1/2+x,1/2-y,1/2+z
loop_
_atom_site_type_symbol
_atom_site_label
_atom_site_fract_x
_atom_site_fract_y
_atom_site_fract_z
Si Si1 0.737624 0.396214 0.212521
Si Si2 0.419409 0.500000 0.065575
Si Si3 0.273316 0.103855 0.839629
Si Si4 0.103262 0.396520 0.812376
Si Si5 0.748406 0.756947 0.936156
Si Si6 0.630125 0.321840 0.874345
Si Si7 0.073739 0.340116 0.688398
Si Si8 0.363212 0.894560 0.434681
O O1 0.717153 0.500000 0.209426
O O2 0.740259 0.368574 0.278913
O O3 0.814969 0.391551 0.191282
O O4 0.687703 0.340253 0.173600
O O5 0.500000 0.500000 0.060870
O O6 0.398131 0.413039 0.100965
O O7 0.390764 0.500000 0.000000
O O8 0.243764 0.167134 0.888499
O O9 0.355439 0.113959 0.831595
O O10 0.259444 0.000000 0.849732
O O11 0.083746 0.500000 0.801241
O O12 0.077391 0.339633 0.758305
O O13 0.088978 0.375289 0.879367
O O14 0.671549 0.723929 0.926073
O O15 0.799326 0.672741 0.930747
O O16 0.757532 0.793422 0.000000
O O17 0.578677 0.255256 0.843172
O O18 0.000000 0.380768 0.673562
O O19 0.391210 0.884605 0.500000
O O20 0.343389 0.000000 0.428932
#
# Coordination Sequence:
#
# PCOD9520542 Si02
#       8
#    16   8  16  16  16  16  16  16
#     4   9  16  29  48  74  96 122 157 199 252 303
#     4  11  24  38  50  68 100 142 176 202 238 287
#     4   9  20  34  51  72  98 127 163 206 254 294
#     4   9  17  29  48  73  99 126 160 199 248 300
#     4  10  20  30  47  74 100 130 163 195 243 298
#     4  11  20  32  51  70  98 129 164 206 247 293
#     4  10  21  33  49  71  94 126 170 210 246 292
#     4   9  17  28  44  71 107 133 155 191 238 302
#
# _framework density 17.482617999999999
#
# number of rings (size 3 to 8) (size 9 to 14) (size 15 to 20)
#    0.000    2.333    2.000    2.000    2.800    2.933 
#    0.000    0.000    0.000    4.000    0.000    5.600 
#    0.000    0.000    0.000    0.000    0.000   15.467 
#
# Total GULP energy -334184.451082 kJ/mol
# GULP energy per Si atom -5569.740851 kJ/mol
# Density = 1.744283 g / cm^3
# Si number density = 17.482618 Si / 1000 Ang^3
#
#
#
# Elastic Constant Matrix: (Units=GPa)
#
#
# Indices 1 2 3 4 5 6 
#
# 1 41.3284 6.3533 5.2898 0.0000 0.0000 0.0000
# 2 6.3533 60.1152 49.4239 0.0000 0.0000 0.0000
# 3 5.2898 49.4239 118.8763 0.0000 0.0000 0.0000
# 4 0.0000 0.0000 0.0000 33.2354 0.0000 0.0000
# 5 0.0000 0.0000 0.0000 0.0000 5.3911 0.0000
# 6 0.0000 0.0000 0.0000 0.0000 0.0000 -0.1542
#
#
#
# Elastic Compliance Matrix: (Units=1/GPa)
#
#
# Indices 1 2 3 4 5 6 
#
# 1 0.024596 -0.002582 -0.000021 0.000000 0.000000 0.000000
# 2 -0.002582 0.025545 -0.010506 0.000000 0.000000 0.000000
# 3 -0.000021 -0.010506 0.012781 0.000000 0.000000 0.000000
# 4 0.000000 0.000000 0.000000 0.030088 0.000000 0.000000
# 5 0.000000 0.000000 0.000000 0.000000 0.185492 0.000000
# 6 0.000000 0.000000 0.000000 0.000000 0.000000 -6.483711
#
#
# Mechanical properties :
#
#
# Convention : Reuss Voigt Hill
#
# Bulk Modulus (GPa) = 27.24480 38.05044 32.64762
# Shear Modulus (GPa) = -0.81080 18.31130 8.75025
#
# Velocity S-wave (km/s) = -0.68175 3.23987 2.23964
# Velocity P-wave (km/s) = 3.87273 5.98395 5.04012
#
# Compressibility (1/GPa) = 0.03670425
#
# Stress axis : x y z
#
# Youngs Moduli (GPa) = 40.65689 39.14677 78.24205
#
# Poissons Ratio (x) = 0.10109 0.00163
# Poissons Ratio (y) = 0.10499 0.82198
# Poissons Ratio (z) = 0.00085 0.41126
#
# Static dielectric constant tensor:
#      x y z
#    x 1.594910 0.000000 0.000000 
#    y 0.000000 1.602750 0.000000 
#    z 0.000000 0.000000 1.632790 
# 
# From -- ./inp_files/55916.got.cif
#   From: 2010.05.17/outbox.cif.g08.bks.cpg/sg71_28_cif.got.tgz:55916.got - 2010.06.03 16:22:01.
