data_PCOD9520616
_publ_section_title
;
Structure prediction by ZEFSAII (Michael W. Deem and Ramdas Pophale) SiO2 
 PCOD9520616
Probable space group: I M M M
;
_chemical_formula_sum "Si O2"
_cell_formula_units_Z 96
_cell_length_a 30.880958
_cell_length_b 19.895821
_cell_length_c 7.457928
_cell_angle_alpha 90.000000
_cell_angle_beta 90.000000
_cell_angle_gamma 90.000000
_cell_volume 4582.165974
_symmetry_space_group_name_H-M "I M M M"
_symmetry_group_IT_number 71
_symmetry_cell_setting 'orthorhombic'
loop_
_space_group_symop_operation_xyz
x,y,z
-x,-y,z
x,-y,-z
-x,y,-z
-x,-y,-z
x,y,-z
-x,y,z
x,-y,z
1/2+x,1/2+y,1/2+z
1/2-x,1/2-y,1/2+z
1/2+x,1/2-y,1/2-z
1/2-x,1/2+y,1/2-z
1/2-x,1/2-y,1/2-z
1/2+x,1/2+y,1/2-z
1/2-x,1/2+y,1/2+z
1/2+x,1/2-y,1/2+z
loop_
_atom_site_type_symbol
_atom_site_label
_atom_site_fract_x
_atom_site_fract_y
_atom_site_fract_z
Si Si1 0.049748 0.424707 0.718870
Si Si2 0.120725 0.677365 0.710215
Si Si3 0.450600 0.423622 0.283717
Si Si4 0.703820 0.576040 0.218877
Si Si5 0.697032 0.076084 0.283573
Si Si6 0.628999 0.672943 0.211291
O O1 0.050785 0.424746 0.500000
O O2 0.062824 0.500000 0.775240
O O3 0.082146 0.368169 0.786361
O O4 0.000000 0.413476 0.771222
O O5 0.110432 0.686104 0.500000
O O6 0.163941 0.632843 0.723244
O O7 0.125197 0.752016 0.787274
O O8 0.450874 0.424337 0.500000
O O9 0.500000 0.408631 0.225211
O O10 0.439766 0.500000 0.224135
O O11 0.414993 0.369779 0.227703
O O12 0.692377 0.500000 0.273728
O O13 0.753405 0.589422 0.272929
O O14 0.668715 0.629026 0.285197
O O15 0.703411 0.576398 0.000000
O O16 0.696436 0.075618 0.500000
O O17 0.685143 0.000000 0.224124
O O18 0.638307 0.680443 0.000000
#
# Coordination Sequence:
#
# PCOD9520616 Si02
#       6
#    16  16  16  16  16  16
#     4   8  14  26  44  63  85 119 158 190 228 281
#     4  10  20  31  46  73 104 127 153 199 252 294
#     4   9  19  36  55  74  99 132 168 206 249 294
#     4   8  15  30  50  69  92 125 164 204 244 288
#     4   9  18  33  52  70  90 125 170 206 240 291
#     4  10  20  32  49  75 103 131 164 201 244 296
#
# _framework density 20.950789
#
# number of rings (size 3 to 8) (size 9 to 14) (size 15 to 20)
#    0.000    3.000    0.000    3.000    0.000    4.333 
#    0.000    3.333    0.000    1.500    0.000    2.333 
#    0.000    0.000    0.000    0.000    0.000    0.000 
#
# Total GULP energy -267913.771101 kJ/mol
# GULP energy per Si atom -5581.536898 kJ/mol
# Density = 2.090310 g / cm^3
# Si number density = 20.950789 Si / 1000 Ang^3
#
#
#
# Elastic Constant Matrix: (Units=GPa)
#
#
# Indices 1 2 3 4 5 6 
#
# 1 123.2689 128.7577 -9.8280 0.0000 0.0000 0.0000
# 2 128.7577 211.0993 -0.4079 0.0000 0.0000 0.0000
# 3 -9.8280 -0.4079 59.2823 0.0000 0.0000 0.0000
# 4 0.0000 0.0000 0.0000 13.3664 0.0000 0.0000
# 5 0.0000 0.0000 0.0000 0.0000 19.2681 0.0000
# 6 0.0000 0.0000 0.0000 0.0000 0.0000 -19.7045
#
#
#
# Elastic Compliance Matrix: (Units=1/GPa)
#
#
# Indices 1 2 3 4 5 6 
#
# 1 0.023155 -0.014116 0.003742 0.000000 0.000000 0.000000
# 2 -0.014116 0.013343 -0.002248 0.000000 0.000000 0.000000
# 3 0.003742 -0.002248 0.017473 0.000000 0.000000 0.000000
# 4 0.000000 0.000000 0.000000 0.074815 0.000000 0.000000
# 5 0.000000 0.000000 0.000000 0.000000 0.051899 0.000000
# 6 0.000000 0.000000 0.000000 0.000000 0.000000 -0.050750
#
#
# Mechanical properties :
#
#
# Convention : Reuss Voigt Hill
#
# Bulk Modulus (GPa) = 34.81226 70.07714 52.44470
# Shear Modulus (GPa) = 30.34788 20.92791 25.63789
#
# Velocity S-wave (km/s) = 3.81009 3.16398 3.50197
# Velocity P-wave (km/s) = 6.00066 6.84608 6.43726
#
# Compressibility (1/GPa) = 0.02872551
#
# Stress axis : x y z
#
# Youngs Moduli (GPa) = 43.18672 74.94735 57.23034
#
# Poissons Ratio (x) = 1.05796 -0.21413
# Poissons Ratio (y) = 0.60963 0.12868
# Poissons Ratio (z) = -0.16159 0.16851
#
# Static dielectric constant tensor:
#      x y z
#    x 1.721500 0.000000 0.000000 
#    y 0.000000 1.739440 0.000000 
#    z 0.000000 0.000000 1.791010 
# 
# From -- ./inp_files/10930.got.cif
#   From: 2010.05.17/outbox.cif.g08.bks.cpg/sg71_6_cif.got.tgz:10930.got - 2010.06.03 16:22:01.
