data_PCOD9520333
_publ_section_title
;
Structure prediction by ZEFSAII (Michael W. Deem and Ramdas Pophale) SiO2 
 PCOD9520333
Probable space group: I M M M
;
_chemical_formula_sum "Si O2"
_cell_formula_units_Z 104
_cell_length_a 23.944044
_cell_length_b 27.428963
_cell_length_c 7.611695
_cell_angle_alpha 90.000000
_cell_angle_beta 90.000000
_cell_angle_gamma 90.000000
_cell_volume 4999.059068
_symmetry_space_group_name_H-M "I M M M"
_symmetry_group_IT_number 71
_symmetry_cell_setting 'orthorhombic'
loop_
_space_group_symop_operation_xyz
x,y,z
-x,-y,z
x,-y,-z
-x,y,-z
-x,-y,-z
x,y,-z
-x,y,z
x,-y,z
1/2+x,1/2+y,1/2+z
1/2-x,1/2-y,1/2+z
1/2+x,1/2-y,1/2-z
1/2-x,1/2+y,1/2-z
1/2-x,1/2-y,1/2-z
1/2+x,1/2+y,1/2-z
1/2-x,1/2+y,1/2+z
1/2+x,1/2-y,1/2+z
loop_
_atom_site_type_symbol
_atom_site_label
_atom_site_fract_x
_atom_site_fract_y
_atom_site_fract_z
Si Si1 0.936023 0.000000 0.288640
Si Si2 0.353063 0.133025 0.693181
Si Si3 0.937503 0.175897 0.214401
Si Si4 0.066286 0.446104 0.707489
Si Si5 0.140417 0.091425 0.793071
Si Si6 0.436838 0.789090 0.285044
Si Si7 0.240688 0.555236 0.290665
O O1 0.903122 0.952578 0.224911
O O2 0.935338 0.000000 0.500000
O O3 0.000000 0.000000 0.228508
O O4 0.334273 0.148727 0.500000
O O5 0.404558 0.095585 0.686787
O O6 0.384327 0.179077 0.780748
O O7 0.304448 0.098126 0.764934
O O8 0.889641 0.139648 0.279525
O O9 0.930477 0.232412 0.263549
O O10 0.000000 0.160029 0.269188
O O11 0.937091 0.174567 0.000000
O O12 0.079500 0.439962 0.500000
O O13 0.085641 0.500000 0.759418
O O14 0.000000 0.444480 0.725497
O O15 0.199656 0.073620 0.718560
O O16 0.150014 0.100713 0.000000
O O17 0.436367 0.792123 0.500000
O O18 0.500000 0.805030 0.230213
O O19 0.246145 0.550051 0.500000
O O20 0.227141 0.500000 0.224541
#
# Coordination Sequence:
#
# PCOD9520333 Si02
#       7
#     8  16  16  16  16  16  16
#     4  11  23  35  51  81 119 147 162 195 262 325
#     4  11  21  31  48  73  99 133 177 216 252 306
#     4   8  14  27  52  82 105 127 161 211 264 306
#     4   9  18  32  48  67  94 127 162 208 268 321
#     4  10  19  35  58  81 101 132 182 223 249 294
#     4   8  15  29  48  74 107 134 160 207 269 316
#     4  10  21  37  52  69 100 138 174 218 269 306
#
# _framework density 20.803913999999999
#
# number of rings (size 3 to 8) (size 9 to 14) (size 15 to 20)
#    0.000    2.538    0.769    3.462    0.000    5.231 
#    0.000    1.538    0.000    1.846    0.000    6.462 
#    0.000    0.000    0.000    0.000    0.000    0.000 
#
# Total GULP energy -289891.881065 kJ/mol
# GULP energy per Si atom -5574.843867 kJ/mol
# Density = 2.075656 g / cm^3
# Si number density = 20.803914 Si / 1000 Ang^3
#
#
#
# Elastic Constant Matrix: (Units=GPa)
#
#
# Indices 1 2 3 4 5 6 
#
# 1 133.9519 81.2632 7.3264 0.0000 0.0000 0.0000
# 2 81.2632 116.9225 0.9424 0.0000 0.0000 0.0000
# 3 7.3264 0.9424 35.6263 0.0000 0.0000 0.0000
# 4 0.0000 0.0000 0.0000 17.4321 0.0000 0.0000
# 5 0.0000 0.0000 0.0000 0.0000 13.6323 0.0000
# 6 0.0000 0.0000 0.0000 0.0000 0.000010121.3196
#
#
#
# Elastic Compliance Matrix: (Units=1/GPa)
#
#
# Indices 1 2 3 4 5 6 
#
# 1 0.013119 -0.009098 -0.002457 0.000000 0.000000 0.000000
# 2 -0.009098 0.014864 0.001478 0.000000 0.000000 0.000000
# 3 -0.002457 0.001478 0.028535 0.000000 0.000000 0.000000
# 4 0.000000 0.000000 0.000000 0.057366 0.000000 0.000000
# 5 0.000000 0.000000 0.000000 0.000000 0.073355 0.000000
# 6 0.000000 0.000000 0.000000 0.000000 0.000000 0.000099
#
#
# Mechanical properties :
#
#
# Convention : Reuss Voigt Hill
#
# Bulk Modulus (GPa) = 27.50013 51.72940 39.61476
# Shear Modulus (GPa) = 22.76708 2043.60805 1033.18757
#
# Velocity S-wave (km/s) = 3.31171 31.37597 22.30940
# Velocity P-wave (km/s) = 5.27927 36.57214 26.12845
#
# Compressibility (1/GPa) = 0.03636346
#
# Stress axis : x y z
#
# Youngs Moduli (GPa) = 76.22286 67.27509 35.04421
#
# Poissons Ratio (x) = 0.61210 0.08611
# Poissons Ratio (y) = 0.69351 -0.05179
# Poissons Ratio (z) = 0.18730 -0.09942
#
# Static dielectric constant tensor:
#      x y z
#    x 1.754120 0.000000 0.000000 
#    y 0.000000 1.764060 0.000000 
#    z 0.000000 0.000000 1.828750 
# 
# From -- ./inp_files/11464.got.cif
#   From: 2010.05.17/outbox.cif.g08.bks.cpg/sg71_6_cif.got.tgz:11464.got - 2010.06.03 16:22:01.
