data_PCOD9520776
_publ_section_title
;
Structure prediction by ZEFSAII (Michael W. Deem and Ramdas Pophale) SiO2 
 PCOD9520776
Probable space group: I M M M
;
_chemical_formula_sum "Si O2"
_cell_formula_units_Z 80
_cell_length_a 28.849152
_cell_length_b 8.106936
_cell_length_c 17.319392
_cell_angle_alpha 90.000000
_cell_angle_beta 90.000000
_cell_angle_gamma 90.000000
_cell_volume 4050.628727
_symmetry_space_group_name_H-M "I M M M"
_symmetry_group_IT_number 71
_symmetry_cell_setting 'orthorhombic'
loop_
_space_group_symop_operation_xyz
x,y,z
-x,-y,z
x,-y,-z
-x,y,-z
-x,-y,-z
x,y,-z
-x,y,z
x,-y,z
1/2+x,1/2+y,1/2+z
1/2-x,1/2-y,1/2+z
1/2+x,1/2-y,1/2-z
1/2-x,1/2+y,1/2-z
1/2-x,1/2-y,1/2-z
1/2+x,1/2+y,1/2-z
1/2-x,1/2+y,1/2+z
1/2+x,1/2-y,1/2+z
loop_
_atom_site_type_symbol
_atom_site_label
_atom_site_fract_x
_atom_site_fract_y
_atom_site_fract_z
Si Si1 0.808586 0.305064 0.825513
Si Si2 0.900033 0.801559 0.911958
Si Si3 0.500000 0.691748 0.405591
Si Si4 0.888234 0.686802 0.408829
Si Si5 0.788877 0.302125 0.652179
Si Si6 0.946174 0.000000 0.405357
O O1 0.813513 0.500000 0.819718
O O2 0.855233 0.238266 0.862383
O O3 0.800389 0.238963 0.738683
O O4 0.761160 0.266128 0.871215
O O5 0.950036 0.736281 0.882601
O O6 0.904313 0.000000 0.915219
O O7 0.893099 0.741975 0.000000
O O8 0.500000 0.500000 0.380706
O O9 0.500000 0.692649 0.500000
O O10 0.897588 0.676289 0.500000
O O11 0.894972 0.500000 0.376413
O O12 0.834361 0.733646 0.397452
O O13 0.920305 0.833847 0.377739
O O14 0.783943 0.500000 0.654212
O O15 0.943911 0.000000 0.500000
O O16 0.000000 0.000000 0.383658
#
# Coordination Sequence:
#
# PCOD9520776 Si02
#       6
#    16  16   8  16  16   8
#     4  10  20  32  49  73 100 131 165 204 254 305
#     4   9  17  31  51  73  98 129 168 210 246 289
#     4   7  12  26  49  71  91 123 164 203 242 282
#     4   9  18  33  54  77 102 136 173 212 259 306
#     4   9  19  35  51  70  98 132 169 206 250 305
#     4   9  18  32  52  80 108 132 167 212 258 310
#
# _framework density 19.750019000000002
#
# number of rings (size 3 to 8) (size 9 to 14) (size 15 to 20)
#    0.000    3.000    0.000    1.800    1.400    2.400 
#    0.000    4.500    2.200    1.800    0.000    0.000 
#    0.000    0.000    0.000    0.000    0.000    0.000 
#
# Total GULP energy -222780.909086 kJ/mol
# GULP energy per Si atom -5569.522727 kJ/mol
# Density = 1.970507 g / cm^3
# Si number density = 19.750019 Si / 1000 Ang^3
#
#
#
# Elastic Constant Matrix: (Units=GPa)
#
#
# Indices 1 2 3 4 5 6 
#
# 1 190.1715 52.1429 26.2825 0.0000 0.0000 0.0000
# 2 52.1429 56.2801 7.8309 0.0000 0.0000 0.0000
# 3 26.2825 7.8309 7.6955 0.0000 0.0000 0.0000
# 4 0.0000 0.0000 0.0000 0.7982 0.0000 0.0000
# 5 0.0000 0.0000 0.0000 0.0000 -43.9933 0.0000
# 6 0.0000 0.0000 0.0000 0.0000 0.0000 28.8090
#
#
#
# Elastic Compliance Matrix: (Units=1/GPa)
#
#
# Indices 1 2 3 4 5 6 
#
# 1 0.011487 -0.006039 -0.033086 0.000000 0.000000 0.000000
# 2 -0.006039 0.023874 -0.003670 0.000000 0.000000 0.000000
# 3 -0.033086 -0.003670 0.246677 0.000000 0.000000 0.000000
# 4 0.000000 0.000000 0.000000 1.252880 0.000000 0.000000
# 5 0.000000 0.000000 0.000000 0.000000 -0.022731 0.000000
# 6 0.000000 0.000000 0.000000 0.000000 0.000000 0.034711
#
#
# Mechanical properties :
#
#
# Convention : Reuss Voigt Hill
#
# Bulk Modulus (GPa) = 5.09037 47.40663 26.24850
# Shear Modulus (GPa) = 2.94469 8.31549 5.63009
#
# Velocity S-wave (km/s) = 1.22238 2.05414 1.69023
# Velocity P-wave (km/s) = 2.13899 5.44807 4.13864
#
# Compressibility (1/GPa) = 0.19644937
#
# Stress axis : x y z
#
# Youngs Moduli (GPa) = 87.05709 41.88705 4.05388
#
# Poissons Ratio (x) = 0.25294 0.13412
# Poissons Ratio (y) = 0.52571 0.01488
# Poissons Ratio (z) = 2.88033 0.15372
#
# Static dielectric constant tensor:
#      x y z
#    x 1.709640 0.000000 0.000000 
#    y 0.000000 1.717850 0.000000 
#    z 0.000000 0.000000 1.717070 
# 
# From -- ./inp_files/55444.got.cif
#   From: 2010.05.17/outbox.cif.g08.bks.cpg/sg71_28_cif.got.tgz:55444.got - 2010.06.03 16:22:01.
