data_PCOD9520796
_publ_section_title
;
Structure prediction by ZEFSAII (Michael W. Deem and Ramdas Pophale) SiO2 
 PCOD9520796
Probable space group: I M M M
;
_chemical_formula_sum "Si O2"
_cell_formula_units_Z 80
_cell_length_a 26.161543
_cell_length_b 9.981713
_cell_length_c 15.646941
_cell_angle_alpha 90.000000
_cell_angle_beta 90.000000
_cell_angle_gamma 90.000000
_cell_volume 4085.995449
_symmetry_space_group_name_H-M "I M M M"
_symmetry_group_IT_number 71
_symmetry_cell_setting 'orthorhombic'
loop_
_space_group_symop_operation_xyz
x,y,z
-x,-y,z
x,-y,-z
-x,y,-z
-x,-y,-z
x,y,-z
-x,y,z
x,-y,z
1/2+x,1/2+y,1/2+z
1/2-x,1/2-y,1/2+z
1/2+x,1/2-y,1/2-z
1/2-x,1/2+y,1/2-z
1/2-x,1/2-y,1/2-z
1/2+x,1/2+y,1/2-z
1/2-x,1/2+y,1/2+z
1/2+x,1/2-y,1/2+z
loop_
_atom_site_type_symbol
_atom_site_label
_atom_site_fract_x
_atom_site_fract_y
_atom_site_fract_z
Si Si1 0.442858 0.347288 0.659078
Si Si2 0.850403 0.349130 0.398780
Si Si3 0.058230 0.150586 0.364919
Si Si4 0.646561 0.152368 0.602914
Si Si5 0.262256 0.653936 0.104536
O O1 0.500000 0.304021 0.631165
O O2 0.434889 0.500000 0.628691
O O3 0.443148 0.351023 0.761986
O O4 0.397517 0.251362 0.631685
O O5 0.840770 0.361387 0.500000
O O6 0.853333 0.500000 0.363048
O O7 0.902263 0.264617 0.390128
O O8 0.804231 0.258522 0.363153
O O9 0.000000 0.174095 0.394489
O O10 0.073923 0.000000 0.393144
O O11 0.647049 0.151393 0.500000
O O12 0.704269 0.189225 0.630179
O O13 0.636514 0.000000 0.631891
O O14 0.273132 0.500000 0.130445
O O15 0.263622 0.654242 0.000000
#
# Coordination Sequence:
#
# PCOD9520796 Si02
#       5
#    16  16  16  16  16
#     4   9  19  35  52  71  97 129 165 204 244 286
#     4  10  20  32  49  76 104 126 155 199 246 290
#     4   9  19  36  54  70  93 129 169 203 238 286
#     4   9  18  32  51  76 102 128 162 202 241 285
#     4   8  15  30  50  70  96 130 163 195 235 284
#
# _framework density 19.579070999999999
#
# number of rings (size 3 to 8) (size 9 to 14) (size 15 to 20)
#    0.000    3.000    0.000    3.000    0.000    4.800 
#    0.000    9.000    0.000    0.000    0.000    0.000 
#    0.000    0.000    0.000    0.000    0.000    0.000 
#
# Total GULP energy -223054.851060 kJ/mol
# GULP energy per Si atom -5576.371276 kJ/mol
# Density = 1.953451 g / cm^3
# Si number density = 19.579071 Si / 1000 Ang^3
#
#
#
# Elastic Constant Matrix: (Units=GPa)
#
#
# Indices 1 2 3 4 5 6 
#
# 1 161.0038 135.5913 10.8239 0.0000 0.0000 0.0000
# 2 135.5913 166.1206 11.5615 0.0000 0.0000 0.0000
# 3 10.8239 11.5615 18.0491 0.0000 0.0000 0.0000
# 4 0.0000 0.0000 0.0000 17.5757 0.0000 0.0000
# 5 0.0000 0.0000 0.0000 0.0000 35.6767 0.0000
# 6 0.0000 0.0000 0.0000 0.0000 0.0000 34.5282
#
#
#
# Elastic Compliance Matrix: (Units=1/GPa)
#
#
# Indices 1 2 3 4 5 6 
#
# 1 0.019913 -0.016142 -0.001602 0.000000 0.000000 0.000000
# 2 -0.016142 0.019385 -0.002737 0.000000 0.000000 0.000000
# 3 -0.001602 -0.002737 0.058119 0.000000 0.000000 0.000000
# 4 0.000000 0.000000 0.000000 0.056897 0.000000 0.000000
# 5 0.000000 0.000000 0.000000 0.000000 0.028029 0.000000
# 6 0.000000 0.000000 0.000000 0.000000 0.000000 0.028962
#
#
# Mechanical properties :
#
#
# Convention : Reuss Voigt Hill
#
# Bulk Modulus (GPa) = 17.71328 73.45855 45.58591
# Shear Modulus (GPa) = 18.44444 30.03591 24.24017
#
# Velocity S-wave (km/s) = 3.07261 3.92099 3.52243
# Velocity P-wave (km/s) = 4.65345 7.62228 6.31482
#
# Compressibility (1/GPa) = 0.05645481
#
# Stress axis : x y z
#
# Youngs Moduli (GPa) = 50.21951 51.58525 17.20620
#
# Poissons Ratio (x) = 0.83267 0.02756
# Poissons Ratio (y) = 0.81062 0.04710
# Poissons Ratio (z) = 0.08044 0.14121
#
# Static dielectric constant tensor:
#      x y z
#    x 1.675480 0.000000 0.000000 
#    y 0.000000 1.680200 0.000000 
#    z 0.000000 0.000000 1.719180 
# 
# From -- ./inp_files/8315.got.cif
#   From: 2010.05.17/outbox.cif.g08.bks.cpg/sg71_5_cif.got.tgz:8315.got - 2010.06.03 16:22:01.
