data_PCOD9520896
_publ_section_title
;
Structure prediction by ZEFSAII (Michael W. Deem and Ramdas Pophale) SiO2 
 PCOD9520896
Probable space group: I M M M
;
_chemical_formula_sum "Si O2"
_cell_formula_units_Z 88
_cell_length_a 9.594421
_cell_length_b 29.145279
_cell_length_c 14.994844
_cell_angle_alpha 90.000000
_cell_angle_beta 90.000000
_cell_angle_gamma 90.000000
_cell_volume 4193.039370
_symmetry_space_group_name_H-M "I M M M"
_symmetry_group_IT_number 71
_symmetry_cell_setting 'orthorhombic'
loop_
_space_group_symop_operation_xyz
x,y,z
-x,-y,z
x,-y,-z
-x,y,-z
-x,-y,-z
x,y,-z
-x,y,z
x,-y,z
1/2+x,1/2+y,1/2+z
1/2-x,1/2-y,1/2+z
1/2+x,1/2-y,1/2-z
1/2-x,1/2+y,1/2-z
1/2-x,1/2-y,1/2-z
1/2+x,1/2+y,1/2-z
1/2-x,1/2+y,1/2+z
1/2+x,1/2-y,1/2+z
loop_
_atom_site_type_symbol
_atom_site_label
_atom_site_fract_x
_atom_site_fract_y
_atom_site_fract_z
Si Si1 0.834965 0.450140 0.892464
Si Si2 0.847208 0.337040 0.369054
Si Si3 0.656945 0.000000 0.890267
Si Si4 0.653191 0.581309 0.396790
Si Si5 0.335595 0.263812 0.160709
Si Si6 0.660151 0.150537 0.655642
O O1 0.777743 0.500000 0.862206
O O2 0.781931 0.400736 0.859810
O O3 0.000000 0.450060 0.869789
O O4 0.824621 0.449455 0.000000
O O5 0.722225 0.369053 0.397848
O O6 0.830846 0.283803 0.393480
O O7 0.848721 0.341726 0.261835
O O8 0.000000 0.353507 0.399984
O O9 0.739075 0.044788 0.858021
O O10 0.500000 0.000000 0.857549
O O11 0.650138 0.000000 0.000000
O O12 0.638637 0.567219 0.500000
O O13 0.500000 0.580714 0.355356
O O14 0.500000 0.272828 0.179495
O O15 0.250000 0.250000 0.250000
O O16 0.258989 0.308439 0.121562
O O17 0.500000 0.153609 0.620647
#
# Coordination Sequence:
#
# PCOD9520896 Si02
#       6
#    16  16   8  16  16  16
#     4   8  14  27  49  75 102 133 167 202 243 292
#     4   9  18  31  46  69  97 127 163 201 245 295
#     4   9  17  31  51  69  87 119 158 191 230 283
#     4  10  20  33  49  69  94 125 162 203 244 285
#     4   9  17  30  49  71  96 128 165 200 243 296
#     4   9  17  30  49  75 102 127 163 205 245 290
#
# _framework density 20.987162999999999
#
# number of rings (size 3 to 8) (size 9 to 14) (size 15 to 20)
#    0.000    3.000    0.000    3.000    0.000    5.818 
#    1.636    0.909    0.000    4.364    0.000    1.273 
#    0.000    0.000    0.000    0.000    0.000    0.000 
#
# Total GULP energy -245090.065611 kJ/mol
# GULP energy per Si atom -5570.228764 kJ/mol
# Density = 2.093940 g / cm^3
# Si number density = 20.987163 Si / 1000 Ang^3
#
#
#
# Elastic Constant Matrix: (Units=GPa)
#
#
# Indices 1 2 3 4 5 6 
#
# 1 152.1854 82.9889 2.7517 0.0000 0.0000 0.0000
# 2 82.9889 199.7174 10.3449 0.0001 0.0000 0.0000
# 3 2.7517 10.3449 28.7414 0.0003 -0.0001 0.0000
# 4 0.0000 0.0001 0.0003 33.2480 0.0000 0.0000
# 5 0.0000 0.0000 -0.0001 0.0000 4.6716 0.0000
# 6 0.0000 0.0000 0.0000 0.0000 0.0000 32.8455
#
#
#
# Elastic Compliance Matrix: (Units=1/GPa)
#
#
# Indices 1 2 3 4 5 6 
#
# 1 0.008502 -0.003557 0.000466 0.000000 0.000000 0.000000
# 2 -0.003557 0.006590 -0.002032 0.000000 0.000000 0.000000
# 3 0.000466 -0.002032 0.035480 0.000000 0.000000 0.000000
# 4 0.000000 0.000000 0.000000 0.030077 0.000000 0.000000
# 5 0.000000 0.000000 0.000000 0.000000 0.214061 0.000000
# 6 0.000000 0.000000 0.000000 0.000000 0.000000 0.030446
#
#
# Mechanical properties :
#
#
# Convention : Reuss Voigt Hill
#
# Bulk Modulus (GPa) = 24.79692 63.64614 44.22153
# Shear Modulus (GPa) = 14.33309 33.12359 23.72834
#
# Velocity S-wave (km/s) = 2.61616 3.97707 3.36611
# Velocity P-wave (km/s) = 4.57893 7.17506 6.01864
#
# Compressibility (1/GPa) = 0.04032759
#
# Stress axis : x y z
#
# Youngs Moduli (GPa) = 117.61608 151.73601 28.18520
#
# Poissons Ratio (x) = 0.53974 -0.01314
# Poissons Ratio (y) = 0.41837 0.05726
# Poissons Ratio (z) = -0.05484 0.30826
#
# Static dielectric constant tensor:
#      x y z
#    x 1.757060 0.000000 0.000000 
#    y 0.000000 1.791430 0.000000 
#    z 0.000000 0.000000 1.809740 
# 
# From -- ./inp_files/42494.got.cif
#   From: 2010.05.17/outbox.cif.g08.bks.cpg/sg71_22_cif.got.tgz:42494.got - 2010.06.03 16:22:01.
