data_PCOD9520733
_publ_section_title
;
Structure prediction by ZEFSAII (Michael W. Deem and Ramdas Pophale) SiO2 
 PCOD9520733
Probable space group: I M M M
;
_chemical_formula_sum "Si O2"
_cell_formula_units_Z 112
_cell_length_a 31.936838
_cell_length_b 13.838143
_cell_length_c 15.197108
_cell_angle_alpha 90.000000
_cell_angle_beta 90.000000
_cell_angle_gamma 90.000000
_cell_volume 6716.309165
_symmetry_space_group_name_H-M "I M M M"
_symmetry_group_IT_number 71
_symmetry_cell_setting 'orthorhombic'
loop_
_space_group_symop_operation_xyz
x,y,z
-x,-y,z
x,-y,-z
-x,y,-z
-x,-y,-z
x,y,-z
-x,y,z
x,-y,z
1/2+x,1/2+y,1/2+z
1/2-x,1/2-y,1/2+z
1/2+x,1/2-y,1/2-z
1/2-x,1/2+y,1/2-z
1/2-x,1/2-y,1/2-z
1/2+x,1/2+y,1/2-z
1/2-x,1/2+y,1/2+z
1/2+x,1/2-y,1/2+z
loop_
_atom_site_type_symbol
_atom_site_label
_atom_site_fract_x
_atom_site_fract_y
_atom_site_fract_z
Si Si1 0.953427 0.883257 0.284092
Si Si2 0.824535 0.117378 0.099189
Si Si3 0.920800 0.117333 0.098129
Si Si4 0.713949 0.616561 0.900862
Si Si5 0.749340 0.117499 0.221909
Si Si6 0.621936 0.299178 0.896957
Si Si7 0.829693 0.387099 0.396984
O O1 0.948021 0.854494 0.181706
O O2 0.915684 0.837928 0.338750
O O3 0.000000 0.856778 0.315275
O O4 0.949730 0.000000 0.288822
O O5 0.872498 0.147247 0.114671
O O6 0.790756 0.149562 0.169626
O O7 0.824717 0.000000 0.100986
O O8 0.812471 0.146042 0.000000
O O9 0.921179 0.000000 0.095655
O O10 0.933373 0.149972 0.000000
O O11 0.714709 0.500000 0.902765
O O12 0.745057 0.648042 0.823031
O O13 0.666369 0.647912 0.879090
O O14 0.723626 0.651693 0.000000
O O15 0.707938 0.142922 0.167595
O O16 0.749662 0.000000 0.221340
O O17 0.632154 0.186091 0.883495
O O18 0.612617 0.315653 0.000000
O O19 0.816536 0.377325 0.500000
O O20 0.839474 0.500000 0.382640
#
# Coordination Sequence:
#
# PCOD9520733 Si02
#       7
#    16  16  16  16  16  16  16
#     4  10  20  32  48  71  95 119 149 183 220 268
#     4   8  12  18  32  56  84 112 142 176 211 246
#     4   8  14  25  41  63  93 127 156 178 207 251
#     4   9  17  28  42  62  90 125 160 186 213 258
#     4   9  15  24  41  63  87 116 150 188 222 250
#     4  10  20  33  48  65  89 121 153 188 230 274
#     4   9  18  32  49  68  88 113 149 191 235 279
#
# _framework density 16.675825
#
# number of rings (size 3 to 8) (size 9 to 14) (size 15 to 20)
#    0.000    3.000    0.000    2.571    0.000    6.000 
#    0.000    2.143    0.000    1.286    0.000    2.000 
#    0.000    0.000    0.000    1.286    0.000    0.143 
#
# Total GULP energy -312072.029022 kJ/mol
# GULP energy per Si atom -5572.714804 kJ/mol
# Density = 1.663787 g / cm^3
# Si number density = 16.675825 Si / 1000 Ang^3
#
#
#
# Elastic Constant Matrix: (Units=GPa)
#
#
# Indices 1 2 3 4 5 6 
#
# 1 75.0976 20.7843 68.1394 0.0000 0.0000 0.0000
# 2 20.7843 45.2947 21.1771 0.0000 0.0000 0.0000
# 3 68.1394 21.1771 101.2194 0.0000 0.0000 0.0000
# 4 0.0000 0.0000 0.0000 6.1775 0.0000 0.0000
# 5 0.0000 0.0000 0.0000 0.0000 7.1123 0.0000
# 6 0.0000 0.0000 0.0000 0.0000 0.0000 16.3829
#
#
#
# Elastic Compliance Matrix: (Units=1/GPa)
#
#
# Indices 1 2 3 4 5 6 
#
# 1 0.035481 -0.005668 -0.022699 0.000000 0.000000 0.000000
# 2 -0.005668 0.025377 -0.001494 0.000000 0.000000 0.000000
# 3 -0.022699 -0.001494 0.025473 0.000000 0.000000 0.000000
# 4 0.000000 0.000000 0.000000 0.161879 0.000000 0.000000
# 5 0.000000 0.000000 0.000000 0.000000 0.140601 0.000000
# 6 0.000000 0.000000 0.000000 0.000000 0.000000 0.061039
#
#
# Mechanical properties :
#
#
# Convention : Reuss Voigt Hill
#
# Bulk Modulus (GPa) = 37.58209 49.09036 43.33623
# Shear Modulus (GPa) = 9.64428 13.36860 11.50644
#
# Velocity S-wave (km/s) = 2.40748 2.83446 2.62965
# Velocity P-wave (km/s) = 5.50579 6.34146 5.93835
#
# Compressibility (1/GPa) = 0.02660842
#
# Stress axis : x y z
#
# Youngs Moduli (GPa) = 28.18425 39.40593 39.25754
#
# Poissons Ratio (x) = 0.22336 0.89112
# Poissons Ratio (y) = 0.15975 0.05863
# Poissons Ratio (z) = 0.63976 0.05886
#
# Static dielectric constant tensor:
#      x y z
#    x 1.538540 0.000000 0.000000 
#    y 0.000000 1.578030 0.000000 
#    z 0.000000 0.000000 1.604890 
# 
# From -- ./inp_files/35156.got.cif
#   From: 2010.05.17/outbox.cif.g08.bks.cpg/sg71_18_cif.got.tgz:35156.got - 2010.06.03 16:22:01.
