data_PCOD9520653
_publ_section_title
;
Structure prediction by ZEFSAII (Michael W. Deem and Ramdas Pophale) SiO2 
 PCOD9520653
Probable space group: I M M M
;
_chemical_formula_sum "Si O2"
_cell_formula_units_Z 100
_cell_length_a 21.141204
_cell_length_b 28.161006
_cell_length_c 7.419190
_cell_angle_alpha 90.000000
_cell_angle_beta 90.000000
_cell_angle_gamma 90.000000
_cell_volume 4417.070950
_symmetry_space_group_name_H-M "I M M M"
_symmetry_group_IT_number 71
_symmetry_cell_setting 'orthorhombic'
loop_
_space_group_symop_operation_xyz
x,y,z
-x,-y,z
x,-y,-z
-x,y,-z
-x,-y,-z
x,y,-z
-x,y,z
x,-y,z
1/2+x,1/2+y,1/2+z
1/2-x,1/2-y,1/2+z
1/2+x,1/2-y,1/2-z
1/2-x,1/2+y,1/2-z
1/2-x,1/2-y,1/2-z
1/2+x,1/2+y,1/2-z
1/2-x,1/2+y,1/2+z
1/2+x,1/2-y,1/2+z
loop_
_atom_site_type_symbol
_atom_site_label
_atom_site_fract_x
_atom_site_fract_y
_atom_site_fract_z
Si Si1 0.408980 0.115326 0.708308
Si Si2 0.070718 0.866215 0.711094
Si Si3 0.568828 0.224123 0.280796
Si Si4 0.236747 0.630300 0.281458
Si Si5 0.840312 0.946353 0.217199
Si Si6 0.500000 0.076878 0.000000
Si Si7 0.325445 0.708987 0.297451
O O1 0.425776 0.107619 0.500000
O O2 0.430009 0.168679 0.763434
O O3 0.333420 0.117654 0.723692
O O4 0.444658 0.080442 0.842222
O O5 0.072178 0.853722 0.500000
O O6 0.095275 0.919805 0.730856
O O7 0.121532 0.832649 0.805855
O O8 0.000000 0.860396 0.780151
O O9 0.570635 0.228151 0.500000
O O10 0.500000 0.243882 0.222255
O O11 0.632487 0.249340 0.211745
O O12 0.238230 0.632383 0.500000
O O13 0.284152 0.588565 0.221431
O O14 0.265262 0.681197 0.217190
O O15 0.835211 0.000000 0.283090
O O16 0.837450 0.947433 0.000000
O O17 0.307558 0.723857 0.500000
#
# Coordination Sequence:
#
# PCOD9520653 Si02
#       7
#    16  16  16  16  16   4  16
#     4  11  22  37  59  84 114 148 185 228 278 330
#     4  10  20  32  45  71 108 145 187 234 282 325
#     4   9  17  31  50  75 107 143 189 235 274 320
#     4   9  18  34  54  81 112 142 178 224 278 333
#     4   9  19  36  58  80 104 138 181 226 273 332
#     4  12  22  40  60  86 113 146 184 232 273 324
#     4   9  18  33  53  73 104 148 190 233 275 318
#
# _framework density 22.639437999999998
#
# number of rings (size 3 to 8) (size 9 to 14) (size 15 to 20)
#    0.000    2.400    1.600    2.160    0.000    5.760 
#    1.440    1.600    0.000    0.000    0.000    1.120 
#    0.000    1.280    0.000    0.000    0.000    0.000 
#
# Total GULP energy -278685.527895 kJ/mol
# GULP energy per Si atom -5573.710558 kJ/mol
# Density = 2.258791 g / cm^3
# Si number density = 22.639438 Si / 1000 Ang^3
#
#
#
# Elastic Constant Matrix: (Units=GPa)
#
#
# Indices 1 2 3 4 5 6 
#
# 1 123.9012 -7.3136 4.0999 0.0000 0.0000 0.0000
# 2 -7.3136 30.5726 -1.8714 0.0000 0.0000 0.0000
# 3 4.0999 -1.8714 103.3635 0.0000 0.0000 0.0000
# 4 0.0000 0.0000 0.0000 -11.0708 0.0000 0.0000
# 5 0.0000 0.0000 0.0000 0.0000 8.6664 0.0000
# 6 0.0000 0.0000 0.0000 0.0000 0.0000 10.5163
#
#
#
# Elastic Compliance Matrix: (Units=1/GPa)
#
#
# Indices 1 2 3 4 5 6 
#
# 1 0.008195 0.001943 -0.000290 0.000000 0.000000 0.000000
# 2 0.001943 0.033206 0.000524 0.000000 0.000000 0.000000
# 3 -0.000290 0.000524 0.009696 0.000000 0.000000 0.000000
# 4 0.000000 0.000000 0.000000 -0.090328 0.000000 0.000000
# 5 0.000000 0.000000 0.000000 0.000000 0.115388 0.000000
# 6 0.000000 0.000000 0.000000 0.000000 0.000000 0.095091
#
#
# Mechanical properties :
#
#
# Convention : Reuss Voigt Hill
#
# Bulk Modulus (GPa) = 18.03406 27.51856 22.77631
# Shear Modulus (GPa) = 26.97198 19.15053 23.06126
#
# Velocity S-wave (km/s) = 3.45537 2.91158 3.19506
# Velocity P-wave (km/s) = 4.88902 4.84609 4.86760
#
# Compressibility (1/GPa) = 0.05545064
#
# Stress axis : x y z
#
# Youngs Moduli (GPa) = 122.02242 30.11513 103.13977
#
# Poissons Ratio (x) = -0.05851 0.02990
# Poissons Ratio (y) = -0.23706 -0.05406
# Poissons Ratio (z) = 0.03537 -0.01578
#
# Static dielectric constant tensor:
#      x y z
#    x 1.859720 0.000000 0.000000 
#    y 0.000000 1.856580 0.000000 
#    z 0.000000 0.000000 1.886360 
# 
# From -- ./inp_files/11071.got.cif
#   From: 2010.05.17/outbox.cif.g08.bks.cpg/sg71_6_cif.got.tgz:11071.got - 2010.06.03 16:22:01.
