data_PCOD9520607
_publ_section_title
;
Structure prediction by ZEFSAII (Michael W. Deem and Ramdas Pophale) SiO2 
 PCOD9520607
Probable space group: I M M M
;
_chemical_formula_sum "Si O2"
_cell_formula_units_Z 104
_cell_length_a 7.837082
_cell_length_b 27.854486
_cell_length_c 24.147703
_cell_angle_alpha 90.000000
_cell_angle_beta 90.000000
_cell_angle_gamma 90.000000
_cell_volume 5271.392634
_symmetry_space_group_name_H-M "I M M M"
_symmetry_group_IT_number 71
_symmetry_cell_setting 'orthorhombic'
loop_
_space_group_symop_operation_xyz
x,y,z
-x,-y,z
x,-y,-z
-x,y,-z
-x,-y,-z
x,y,-z
-x,y,z
x,-y,z
1/2+x,1/2+y,1/2+z
1/2-x,1/2-y,1/2+z
1/2+x,1/2-y,1/2-z
1/2-x,1/2+y,1/2-z
1/2-x,1/2-y,1/2-z
1/2+x,1/2+y,1/2-z
1/2-x,1/2+y,1/2+z
1/2+x,1/2-y,1/2+z
loop_
_atom_site_type_symbol
_atom_site_label
_atom_site_fract_x
_atom_site_fract_y
_atom_site_fract_z
Si Si1 0.196849 0.691892 0.560555
Si Si2 0.209133 0.500000 0.935298
Si Si3 0.791380 0.000000 0.140598
Si Si4 0.200654 0.581553 0.149546
Si Si5 0.801359 0.217719 0.181671
Si Si6 0.296763 0.176598 0.709597
Si Si7 0.703955 0.583146 0.438612
Si Si8 0.206476 0.000000 0.732959
O O1 0.269090 0.706350 0.500000
O O2 0.282842 0.708695 0.616730
O O3 0.207592 0.634329 0.562635
O O4 0.000000 0.707076 0.562216
O O5 0.266891 0.451814 0.901662
O O6 0.000000 0.500000 0.932940
O O7 0.258272 0.500000 0.000000
O O8 0.734991 0.953025 0.107817
O O9 0.740257 0.000000 0.203745
O O10 0.000000 0.000000 0.138431
O O11 0.271916 0.632643 0.172035
O O12 0.223149 0.546171 0.201421
O O13 0.000000 0.588876 0.137663
O O14 0.728065 0.177427 0.223573
O O15 0.726670 0.270834 0.193082
O O16 0.000000 0.219090 0.195404
O O17 0.500000 0.176576 0.700249
O O18 0.727123 0.561905 0.500000
O O19 0.500000 0.591543 0.431602
O O20 0.000000 0.000000 0.729401
#
# Coordination Sequence:
#
# PCOD9520607 Si02
#       8
#    16   8   8  16  16  16  16   8
#     4  10  21  36  52  72 101 137 175 215 259 306
#     4   8  14  28  53  80 103 131 165 200 244 300
#     4   9  18  30  45  69  97 124 161 208 253 301
#     4   9  18  34  53  74 103 135 169 207 251 304
#     4  10  20  34  54  78 103 134 174 218 264 313
#     4   9  19  35  54  78 106 135 168 211 263 316
#     4   9  17  31  50  69  92 127 169 212 256 301
#     4  10  20  31  45  72 106 135 168 205 246 297
#
# _framework density 19.729132
#
# number of rings (size 3 to 8) (size 9 to 14) (size 15 to 20)
#    0.000    2.692    0.000    1.846    2.154    3.077 
#    0.000    1.923    0.000    8.308    0.000    0.000 
#    0.000    0.000    0.000    0.000    0.000    0.000 
#
# Total GULP energy -289593.391041 kJ/mol
# GULP energy per Si atom -5569.103674 kJ/mol
# Density = 1.968423 g / cm^3
# Si number density = 19.729132 Si / 1000 Ang^3
#
#
#
# Elastic Constant Matrix: (Units=GPa)
#
#
# Indices 1 2 3 4 5 6 
#
# 1 24.6618 2.8613 6.3735 0.0000 0.0000 0.0000
# 2 2.8613 88.9994 55.1653 0.0000 0.0000 0.0000
# 3 6.3735 55.1653 154.4543 0.0000 0.0000 0.0000
# 4 0.0000 0.0000 0.0000 10.4528 0.0000 0.0000
# 5 0.0000 0.0000 0.0000 0.0000 18.6292 0.0000
# 6 0.0000 0.0000 0.0000 0.0000 0.0000 36.3271
#
#
#
# Elastic Compliance Matrix: (Units=1/GPa)
#
#
# Indices 1 2 3 4 5 6 
#
# 1 0.040994 -0.000346 -0.001568 0.000000 0.000000 0.000000
# 2 -0.000346 0.014434 -0.005141 0.000000 0.000000 0.000000
# 3 -0.001568 -0.005141 0.008375 0.000000 0.000000 0.000000
# 4 0.000000 0.000000 0.000000 0.095669 0.000000 0.000000
# 5 0.000000 0.000000 0.000000 0.000000 0.053679 0.000000
# 6 0.000000 0.000000 0.000000 0.000000 0.000000 0.027528
#
#
# Mechanical properties :
#
#
# Convention : Reuss Voigt Hill
#
# Bulk Modulus (GPa) = 20.12357 44.10174 32.11265
# Shear Modulus (GPa) = 18.42622 26.66284 22.54453
#
# Velocity S-wave (km/s) = 3.05939 3.68019 3.38406
# Velocity P-wave (km/s) = 4.76465 6.36086 5.61972
#
# Compressibility (1/GPa) = 0.04969297
#
# Stress axis : x y z
#
# Youngs Moduli (GPa) = 24.39386 69.28237 119.39948
#
# Poissons Ratio (x) = 0.02398 0.18722
# Poissons Ratio (y) = 0.00844 0.61382
# Poissons Ratio (z) = 0.03825 0.35617
#
# Static dielectric constant tensor:
#      x y z
#    x 1.724560 0.000000 0.000000 
#    y 0.000000 1.720730 0.000000 
#    z 0.000000 0.000000 1.714500 
# 
# From -- ./inp_files/58056.got.cif
#   From: 2010.05.17/outbox.cif.g08.bks.cpg/sg71_30_cif.got.tgz:58056.got - 2010.06.03 16:22:01.
