data_PCOD9520853
_publ_section_title
;
Structure prediction by ZEFSAII (Michael W. Deem and Ramdas Pophale) SiO2 
 PCOD9520853
Probable space group: I M M M
;
_chemical_formula_sum "Si O2"
_cell_formula_units_Z 80
_cell_length_a 24.153279
_cell_length_b 26.920789
_cell_length_c 9.093017
_cell_angle_alpha 90.000000
_cell_angle_beta 90.000000
_cell_angle_gamma 90.000000
_cell_volume 5912.509958
_symmetry_space_group_name_H-M "I M M M"
_symmetry_group_IT_number 71
_symmetry_cell_setting 'orthorhombic'
loop_
_space_group_symop_operation_xyz
x,y,z
-x,-y,z
x,-y,-z
-x,y,-z
-x,-y,-z
x,y,-z
-x,y,z
x,-y,z
1/2+x,1/2+y,1/2+z
1/2-x,1/2-y,1/2+z
1/2+x,1/2-y,1/2-z
1/2-x,1/2+y,1/2-z
1/2-x,1/2-y,1/2-z
1/2+x,1/2+y,1/2-z
1/2-x,1/2+y,1/2+z
1/2+x,1/2-y,1/2+z
loop_
_atom_site_type_symbol
_atom_site_label
_atom_site_fract_x
_atom_site_fract_y
_atom_site_fract_z
Si Si1 0.000000 0.899134 0.823846
Si Si2 0.190010 0.145743 0.675861
Si Si3 0.500000 0.281944 0.324664
Si Si4 0.109689 0.057495 0.676270
Si Si5 0.280431 0.796957 0.175845
Si Si6 0.113167 0.241456 0.324734
O O1 0.000000 0.840644 0.784639
O O2 0.054460 0.924448 0.757200
O O3 0.000000 0.903511 0.000000
O O4 0.199202 0.147837 0.500000
O O5 0.159816 0.094506 0.714454
O O6 0.247440 0.156584 0.758272
O O7 0.146969 0.190627 0.711532
O O8 0.500000 0.278297 0.500000
O O9 0.555638 0.258446 0.259325
O O10 0.100793 0.062062 0.500000
O O11 0.121095 0.000000 0.709648
O O12 0.250000 0.750000 0.250000
O O13 0.345040 0.786973 0.208307
O O14 0.273773 0.794872 0.000000
O O15 0.103252 0.240524 0.500000
#
# Coordination Sequence:
#
# PCOD9520853 Si02
#       6
#     8  16   8  16  16  16
#     4  11  22  32  41  58  82 108 142 185 225 251
#     4   9  17  29  44  61  79 103 135 173 212 247
#     4  11  21  28  40  61  82 108 139 173 210 243
#     4  10  20  33  47  60  77 108 148 182 214 254
#     4   9  17  28  43  62  80 102 131 165 205 249
#     4   9  17  29  43  58  78 106 136 166 202 246
#
# _framework density 13.530633
#
# number of rings (size 3 to 8) (size 9 to 14) (size 15 to 20)
#    0.000    2.400    2.000    2.700    0.000    7.200 
#    0.000    0.000    0.000    0.000    0.000    0.000 
#    0.000    0.000    0.000    0.900    0.000   18.200 
#
# Total GULP energy -222878.417045 kJ/mol
# GULP energy per Si atom -5571.960426 kJ/mol
# Density = 1.349984 g / cm^3
# Si number density = 13.530633 Si / 1000 Ang^3
#
#
#
# Elastic Constant Matrix: (Units=GPa)
#
#
# Indices 1 2 3 4 5 6 
#
# 1 118.1412 64.3306 52.1671 0.0000 0.0000 0.0000
# 2 64.3306 69.2823 33.4286 0.0000 0.0000 0.0000
# 3 52.1671 33.4286 33.5621 0.0000 0.0000 0.0000
# 4 0.0000 0.0000 0.0000 15.5457 0.0000 0.0000
# 5 0.0000 0.0000 0.0000 0.0000 25.4658 0.0000
# 6 0.0000 0.0000 0.0000 0.0000 0.0000 10.9293
#
#
#
# Elastic Compliance Matrix: (Units=1/GPa)
#
#
# Indices 1 2 3 4 5 6 
#
# 1 0.030485 -0.010480 -0.036946 0.000000 0.000000 0.000000
# 2 -0.010480 0.031391 -0.014977 0.000000 0.000000 0.000000
# 3 -0.036946 -0.014977 0.102140 0.000000 0.000000 0.000000
# 4 0.000000 0.000000 0.000000 0.064326 0.000000 0.000000
# 5 0.000000 0.000000 0.000000 0.000000 0.039268 0.000000
# 6 0.000000 0.000000 0.000000 0.000000 0.000000 0.091497
#
#
# Mechanical properties :
#
#
# Convention : Reuss Voigt Hill
#
# Bulk Modulus (GPa) = 25.50349 57.87091 41.68720
# Shear Modulus (GPa) = 10.06070 15.12545 12.59308
#
# Velocity S-wave (km/s) = 2.72977 3.34708 3.05406
# Velocity P-wave (km/s) = 5.36890 7.60266 6.58124
#
# Compressibility (1/GPa) = 0.03921032
#
# Stress axis : x y z
#
# Youngs Moduli (GPa) = 32.80278 31.85654 9.79047
#
# Poissons Ratio (x) = 0.33385 0.36172
# Poissons Ratio (y) = 0.34377 0.14663
# Poissons Ratio (z) = 1.21195 0.47710
#
# Static dielectric constant tensor:
#      x y z
#    x 1.441800 0.000000 0.000000 
#    y 0.000000 1.441530 0.000000 
#    z 0.000000 0.000000 1.450580 
# 
# From -- ./inp_files/10746.got.cif
#   From: 2010.05.17/outbox.cif.g08.bks.cpg/sg71_6_cif.got.tgz:10746.got - 2010.06.03 16:22:01.
