data_PCOD9520740
_publ_section_title
;
Structure prediction by ZEFSAII (Michael W. Deem and Ramdas Pophale) SiO2 
 PCOD9520740
Probable space group: I M M M
;
_chemical_formula_sum "Si O2"
_cell_formula_units_Z 80
_cell_length_a 9.511457
_cell_length_b 17.009060
_cell_length_c 21.635792
_cell_angle_alpha 90.000000
_cell_angle_beta 90.000000
_cell_angle_gamma 90.000000
_cell_volume 3500.258828
_symmetry_space_group_name_H-M "I M M M"
_symmetry_group_IT_number 71
_symmetry_cell_setting 'orthorhombic'
loop_
_space_group_symop_operation_xyz
x,y,z
-x,-y,z
x,-y,-z
-x,y,-z
-x,-y,-z
x,y,-z
-x,y,z
x,-y,z
1/2+x,1/2+y,1/2+z
1/2-x,1/2-y,1/2+z
1/2+x,1/2-y,1/2-z
1/2-x,1/2+y,1/2-z
1/2-x,1/2-y,1/2-z
1/2+x,1/2+y,1/2-z
1/2-x,1/2+y,1/2+z
1/2+x,1/2-y,1/2+z
loop_
_atom_site_type_symbol
_atom_site_label
_atom_site_fract_x
_atom_site_fract_y
_atom_site_fract_z
Si Si1 0.666587 0.836120 0.244715
Si Si2 0.150041 0.285704 0.927950
Si Si3 0.833511 0.000000 0.249547
Si Si4 0.656761 0.144568 0.902898
Si Si5 0.340955 0.500000 0.401155
Si Si6 0.347804 0.409943 0.924272
O O1 0.500000 0.831776 0.266299
O O2 0.750000 0.750000 0.250000
O O3 0.753068 0.916419 0.266048
O O4 0.655621 0.850775 0.171248
O O5 0.273222 0.224208 0.923750
O O6 0.214352 0.363791 0.899271
O O7 0.000000 0.259218 0.902202
O O8 0.131676 0.301357 0.000000
O O9 0.838067 0.000000 0.174082
O O10 0.000000 0.000000 0.269243
O O11 0.500000 0.133113 0.925367
O O12 0.758532 0.075718 0.922965
O O13 0.500000 0.500000 0.421777
O O14 0.500000 0.376379 0.905394
O O15 0.341982 0.500000 0.905561
O O16 0.346338 0.408845 0.000000
#
# Coordination Sequence:
#
# PCOD9520740 Si02
#       6
#    16  16   8  16   8  16
#     4  10  20  34  55  82 109 139 175 216 263 313
#     4  10  20  32  48  72 101 133 169 211 257 301
#     4   9  17  31  53  80 108 139 174 212 256 312
#     4  10  20  34  53  76 103 134 171 210 251 302
#     4   9  17  31  52  76 101 131 167 209 253 298
#     4   8  14  26  45  67  90 120 160 203 246 295
#
# _framework density 22.855453000000001
#
# number of rings (size 3 to 8) (size 9 to 14) (size 15 to 20)
#    0.000    2.600    0.000    3.000    0.000    6.400 
#    0.000    2.500    2.200    3.000    0.000    0.000 
#    0.000    0.000    0.000    0.000    0.000    0.000 
#
# Total GULP energy -222937.173337 kJ/mol
# GULP energy per Si atom -5573.429333 kJ/mol
# Density = 2.280343 g / cm^3
# Si number density = 22.855453 Si / 1000 Ang^3
#
#
#
# Elastic Constant Matrix: (Units=GPa)
#
#
# Indices 1 2 3 4 5 6 
#
# 1 225.2094 99.9820 12.5988 0.0000 0.0000 0.0000
# 2 99.9820 136.0836 8.2289 0.0000 0.0000 0.0000
# 3 12.5988 8.2289 59.1108 0.0000 0.0000 0.0000
# 4 0.0000 0.0000 0.0000 1586.4484 0.0000 0.0000
# 5 0.0000 0.0000 0.0000 0.0000 10.3158 0.0000
# 6 0.0000 0.0000 0.0000 0.0000 0.0000 35.7830
#
#
#
# Elastic Compliance Matrix: (Units=1/GPa)
#
#
# Indices 1 2 3 4 5 6 
#
# 1 0.006622 -0.004820 -0.000740 0.000000 0.000000 0.000000
# 2 -0.004820 0.010920 -0.000493 0.000000 0.000000 0.000000
# 3 -0.000740 -0.000493 0.017144 0.000000 0.000000 0.000000
# 4 0.000000 0.000000 0.000000 0.000630 0.000000 0.000000
# 5 0.000000 0.000000 0.000000 0.000000 0.096939 0.000000
# 6 0.000000 0.000000 0.000000 0.000000 0.000000 0.027946
#
#
# Mechanical properties :
#
#
# Convention : Reuss Voigt Hill
#
# Bulk Modulus (GPa) = 44.28987 73.55812 58.92399
# Shear Modulus (GPa) = 27.80355 346.48240 187.14297
#
# Velocity S-wave (km/s) = 3.49161 12.32584 9.05863
# Velocity P-wave (km/s) = 5.97289 15.32392 11.62966
#
# Compressibility (1/GPa) = 0.02257853
#
# Stress axis : x y z
#
# Youngs Moduli (GPa) = 151.01904 91.57753 58.33024
#
# Poissons Ratio (x) = 0.44143 0.04318
# Poissons Ratio (y) = 0.72795 0.02874
# Poissons Ratio (z) = 0.11180 0.04513
#
# Static dielectric constant tensor:
#      x y z
#    x 1.884700 0.000000 0.000000 
#    y 0.000000 2.300450 0.000000 
#    z 0.000000 0.000000 1.945570 
# 
# From -- ./inp_files/67960.got.cif
#   From: 2010.05.17/outbox.cif.g08.bks.cpg/sg71_34_cif.got.tgz:67960.got - 2010.06.03 16:22:01.
