data_PCOD9520073
_publ_section_title
;
Structure prediction by ZEFSAII (Michael W. Deem and Ramdas Pophale) SiO2 
 PCOD9520073
Probable space group: I M M M
;
_chemical_formula_sum "Si O2"
_cell_formula_units_Z 104
_cell_length_a 24.656276
_cell_length_b 26.893583
_cell_length_c 7.320033
_cell_angle_alpha 90.000000
_cell_angle_beta 90.000000
_cell_angle_gamma 90.000000
_cell_volume 4853.881711
_symmetry_space_group_name_H-M "I M M M"
_symmetry_group_IT_number 71
_symmetry_cell_setting 'orthorhombic'
loop_
_space_group_symop_operation_xyz
x,y,z
-x,-y,z
x,-y,-z
-x,y,-z
-x,-y,-z
x,y,-z
-x,y,z
x,-y,z
1/2+x,1/2+y,1/2+z
1/2-x,1/2-y,1/2+z
1/2+x,1/2-y,1/2-z
1/2-x,1/2+y,1/2-z
1/2-x,1/2-y,1/2-z
1/2+x,1/2+y,1/2-z
1/2-x,1/2+y,1/2+z
1/2+x,1/2-y,1/2+z
loop_
_atom_site_type_symbol
_atom_site_label
_atom_site_fract_x
_atom_site_fract_y
_atom_site_fract_z
Si Si1 0.938077 0.000000 0.280513
Si Si2 0.349353 0.130642 0.778691
Si Si3 0.939304 0.176068 0.779486
Si Si4 0.941864 0.556362 0.721474
Si Si5 0.138134 0.091982 0.789398
Si Si6 0.438434 0.792878 0.214517
Si Si7 0.244516 0.557321 0.276554
O O1 0.905909 0.951674 0.216630
O O2 0.937561 0.000000 0.500000
O O3 0.000000 0.000000 0.218120
O O4 0.392200 0.088666 0.723893
O O5 0.383655 0.179460 0.716780
O O6 0.293391 0.104069 0.719599
O O7 0.344356 0.135128 0.000000
O O8 0.891837 0.140246 0.709947
O O9 0.931563 0.233731 0.731977
O O10 0.000000 0.161009 0.717163
O O11 0.939622 0.172462 0.000000
O O12 0.941530 0.555668 0.500000
O O13 0.937556 0.500000 0.782941
O O14 0.000000 0.576852 0.778591
O O15 0.194458 0.070444 0.715380
O O16 0.150732 0.104217 0.000000
O O17 0.500000 0.803966 0.287606
O O18 0.441355 0.806399 0.000000
O O19 0.242269 0.555728 0.500000
O O20 0.229982 0.500000 0.220830
#
# Coordination Sequence:
#
# PCOD9520073 Si02
#       7
#     8  16  16  16  16  16  16
#     4  11  23  35  51  79 109 131 154 191 242 296
#     4   9  15  23  38  62  92 124 159 198 240 287
#     4   9  18  32  50  70  92 122 159 200 245 289
#     4   8  12  17  27  48  82 120 151 185 236 291
#     4  10  19  34  54  75  99 129 166 201 236 284
#     4   9  17  29  46  69  97 128 161 201 249 296
#     4   9  16  27  45  69  95 126 164 202 239 281
#
# _framework density 21.426151999999998
#
# number of rings (size 3 to 8) (size 9 to 14) (size 15 to 20)
#    0.000    2.846    0.769    2.077    0.000    5.538 
#    0.000    2.308    0.000    0.923    0.000    0.000 
#    0.000    0.000    0.000   11.385    0.000    9.538 
#
# Total GULP energy -289694.759722 kJ/mol
# GULP energy per Si atom -5571.053072 kJ/mol
# Density = 2.137738 g / cm^3
# Si number density = 21.426152 Si / 1000 Ang^3
#
#
#
# Elastic Constant Matrix: (Units=GPa)
#
#
# Indices 1 2 3 4 5 6 
#
# 1 136.5545 60.2570 -4.0497 0.0000 0.0000 0.0000
# 2 60.2570 116.5811 -8.4661 0.0000 0.0000 0.0000
# 3 -4.0497 -8.4661 83.1934 0.0000 0.0000 0.0000
# 4 0.0000 0.0000 0.0000 15.9472 0.0000 0.0000
# 5 0.0000 0.0000 0.0000 0.0000 21.4713 0.0000
# 6 0.0000 0.0000 0.0000 0.0000 0.0000 23.0057
#
#
#
# Elastic Compliance Matrix: (Units=1/GPa)
#
#
# Indices 1 2 3 4 5 6 
#
# 1 0.009487 -0.004906 -0.000037 0.000000 0.000000 0.000000
# 2 -0.004906 0.011179 0.000899 0.000000 0.000000 0.000000
# 3 -0.000037 0.000899 0.012110 0.000000 0.000000 0.000000
# 4 0.000000 0.000000 0.000000 0.062707 0.000000 0.000000
# 5 0.000000 0.000000 0.000000 0.000000 0.046574 0.000000
# 6 0.000000 0.000000 0.000000 0.000000 0.000000 0.043468
#
#
# Mechanical properties :
#
#
# Convention : Reuss Voigt Hill
#
# Bulk Modulus (GPa) = 40.50911 47.97903 44.24407
# Shear Modulus (GPa) = 24.77185 31.32403 28.04794
#
# Velocity S-wave (km/s) = 3.40391 3.82770 3.62201
# Velocity P-wave (km/s) = 5.86483 6.47892 6.17951
#
# Compressibility (1/GPa) = 0.02468581
#
# Stress axis : x y z
#
# Youngs Moduli (GPa) = 105.40833 89.45469 82.57760
#
# Poissons Ratio (x) = 0.43888 0.00309
# Poissons Ratio (y) = 0.51715 -0.07422
# Poissons Ratio (z) = 0.00395 -0.08040
#
# Static dielectric constant tensor:
#      x y z
#    x 1.785790 0.000000 0.000000 
#    y 0.000000 1.762680 0.000000 
#    z 0.000000 0.000000 1.804330 
# 
# From -- ./inp_files/13320.got.cif
#   From: 2010.05.17/outbox.cif.g08.bks.cpg/sg71_7_cif.got.tgz:13320.got - 2010.06.03 16:22:01.
