data_PCOD9520299
_publ_section_title
;
Structure prediction by ZEFSAII (Michael W. Deem and Ramdas Pophale) SiO2 
 PCOD9520299
Probable space group: I M M M
;
_chemical_formula_sum "Si O2"
_cell_formula_units_Z 80
_cell_length_a 11.670976
_cell_length_b 12.910767
_cell_length_c 32.283387
_cell_angle_alpha 90.000000
_cell_angle_beta 90.000000
_cell_angle_gamma 90.000000
_cell_volume 4864.501165
_symmetry_space_group_name_H-M "I M M M"
_symmetry_group_IT_number 71
_symmetry_cell_setting 'orthorhombic'
loop_
_space_group_symop_operation_xyz
x,y,z
-x,-y,z
x,-y,-z
-x,y,-z
-x,-y,-z
x,y,-z
-x,y,z
x,-y,z
1/2+x,1/2+y,1/2+z
1/2-x,1/2-y,1/2+z
1/2+x,1/2-y,1/2-z
1/2-x,1/2+y,1/2-z
1/2-x,1/2-y,1/2-z
1/2+x,1/2+y,1/2-z
1/2-x,1/2+y,1/2+z
1/2+x,1/2-y,1/2+z
loop_
_atom_site_type_symbol
_atom_site_label
_atom_site_fract_x
_atom_site_fract_y
_atom_site_fract_z
Si Si1 0.780293 0.880098 0.547117
Si Si2 0.634824 0.122041 0.627589
Si Si3 0.129800 0.880956 0.243715
Si Si4 0.000000 0.622979 0.366759
Si Si5 0.295647 0.767381 0.817140
Si Si6 0.000000 0.267198 0.547930
O O1 0.738642 0.866083 0.500000
O O2 0.682830 0.863201 0.581122
O O3 0.887991 0.804962 0.553493
O O4 0.818975 0.000000 0.551156
O O5 0.500000 0.144903 0.630553
O O6 0.710608 0.194986 0.656568
O O7 0.650820 0.000000 0.638134
O O8 0.220102 0.848574 0.208862
O O9 0.145250 0.806077 0.282925
O O10 0.000000 0.869693 0.227845
O O11 0.147166 0.000000 0.256246
O O12 0.110713 0.676287 0.345529
O O13 0.000000 0.648898 0.415694
O O14 0.000000 0.500000 0.359713
O O15 0.000000 0.304715 0.500000
#
# Coordination Sequence:
#
# PCOD9520299 Si02
#       6
#    16  16  16   8  16   8
#     4   9  17  30  51  80 112 144 179 219 269 330
#     4  10  20  33  52  80 112 146 183 220 266 326
#     4  10  21  37  58  80 104 139 183 222 268 330
#     4  12  24  38  57  84 110 143 189 233 284 333
#     4  11  21  38  55  79 111 145 175 229 274 321
#     4  10  19  35  56  81 111 146 183 229 282 328
#
# _framework density 16.445672999999999
#
# number of rings (size 3 to 8) (size 9 to 14) (size 15 to 20)
#    0.000    1.800    3.000    2.100    0.000    1.800 
#    0.000    2.000    0.000    0.000    0.000    0.000 
#    0.000    3.200    0.000    0.000    0.000    0.000 
#
# Total GULP energy -223138.177663 kJ/mol
# GULP energy per Si atom -5578.454442 kJ/mol
# Density = 1.640824 g / cm^3
# Si number density = 16.445673 Si / 1000 Ang^3
#
#
#
# Elastic Constant Matrix: (Units=GPa)
#
#
# Indices 1 2 3 4 5 6 
#
# 1 107.8042 53.2574 46.1679 0.0000 0.0000 0.0000
# 2 53.2574 78.0144 38.8439 0.0000 0.0000 0.0000
# 3 46.1679 38.8439 82.5782 0.0000 0.0000 0.0000
# 4 0.0000 0.0000 0.0000 22.4512 0.0000 0.0000
# 5 0.0000 0.0000 0.0000 0.0000 20.9462 0.0000
# 6 0.0000 0.0000 0.0000 0.0000 0.0000 15.1398
#
#
#
# Elastic Compliance Matrix: (Units=1/GPa)
#
#
# Indices 1 2 3 4 5 6 
#
# 1 0.015304 -0.008080 -0.004756 0.000000 0.000000 0.000000
# 2 -0.008080 0.021004 -0.005363 0.000000 0.000000 0.000000
# 3 -0.004756 -0.005363 0.017291 0.000000 0.000000 0.000000
# 4 0.000000 0.000000 0.000000 0.044541 0.000000 0.000000
# 5 0.000000 0.000000 0.000000 0.000000 0.047741 0.000000
# 6 0.000000 0.000000 0.000000 0.000000 0.000000 0.066051
#
#
# Mechanical properties :
#
#
# Convention : Reuss Voigt Hill
#
# Bulk Modulus (GPa) = 58.12967 60.54839 59.33903
# Shear Modulus (GPa) = 19.68009 20.38262 20.03136
#
# Velocity S-wave (km/s) = 3.46305 3.52432 3.49382
# Velocity P-wave (km/s) = 7.17032 7.31151 7.24126
#
# Compressibility (1/GPa) = 0.01720292
#
# Stress axis : x y z
#
# Youngs Moduli (GPa) = 65.34110 47.60981 57.83287
#
# Poissons Ratio (x) = 0.38468 0.27504
# Poissons Ratio (y) = 0.52794 0.31015
# Poissons Ratio (z) = 0.31074 0.25532
#
# Static dielectric constant tensor:
#      x y z
#    x 1.528000 0.000000 0.000000 
#    y 0.000000 1.531260 0.000000 
#    z 0.000000 0.000000 1.547850 
# 
# From -- ./inp_files/20194.got.cif
#   From: 2010.05.17/outbox.cif.g08.bks.cpg/sg71_11_cif.got.tgz:20194.got - 2010.06.03 16:22:01.
