data_PCOD9520330
_publ_section_title
;
Structure prediction by ZEFSAII (Michael W. Deem and Ramdas Pophale) SiO2 
 PCOD9520330
Probable space group: I M M M
;
_chemical_formula_sum "Si O2"
_cell_formula_units_Z 50
_cell_length_a 19.983516
_cell_length_b 5.258517
_cell_length_c 23.949618
_cell_angle_alpha 90.000000
_cell_angle_beta 90.000000
_cell_angle_gamma 90.000000
_cell_volume 2516.713482
_symmetry_space_group_name_H-M "I M M M"
_symmetry_group_IT_number 71
_symmetry_cell_setting 'orthorhombic'
loop_
_space_group_symop_operation_xyz
x,y,z
-x,-y,z
x,-y,-z
-x,y,-z
-x,-y,-z
x,y,-z
-x,y,z
x,-y,z
1/2+x,1/2+y,1/2+z
1/2-x,1/2-y,1/2+z
1/2+x,1/2-y,1/2-z
1/2-x,1/2+y,1/2-z
1/2-x,1/2-y,1/2-z
1/2+x,1/2+y,1/2-z
1/2-x,1/2+y,1/2+z
1/2+x,1/2-y,1/2+z
loop_
_atom_site_type_symbol
_atom_site_label
_atom_site_fract_x
_atom_site_fract_y
_atom_site_fract_z
Si Si1 0.926652 0.500000 0.319224
Si Si2 0.851570 0.500000 0.788840
Si Si3 0.000000 0.000000 0.500000
Si Si4 0.904005 0.000000 0.608328
Si Si5 0.754636 0.500000 0.115809
Si Si6 0.421044 0.500000 0.661174
Si Si7 0.324803 0.500000 0.566112
O O1 0.863815 0.500000 0.277210
O O2 0.923521 0.748818 0.357355
O O3 0.000000 0.500000 0.289748
O O4 0.779215 0.500000 0.819116
O O5 0.889235 0.248835 0.810652
O O6 0.941815 0.000000 0.450562
O O7 0.823882 0.000000 0.605607
O O8 0.786121 0.750353 0.087697
O O9 0.500000 0.500000 0.666774
O O10 0.396079 0.500000 0.597295
O O11 0.329896 0.500000 0.500000
#
# Coordination Sequence:
#
# PCOD9520330 Si02
#       7
#     8   8   2   8   8   8   8
#     4  12  23  43  63  97 125 164 208 263 318 391
#     4  10  22  38  66  90 131 157 208 262 314 383
#     4  12  28  50  64  98 128 178 206 290 302 374
#     4  12  27  44  68  89 130 162 219 262 324 377
#     4  10  23  43  61  96 118 167 211 260 324 377
#     4  10  19  35  57  91 124 167 203 249 316 377
#     4  10  21  37  59  87 124 159 216 257 304 377
#
# _framework density 19.867180000000001
#
# number of rings (size 3 to 8) (size 9 to 14) (size 15 to 20)
#    0.000    1.280    1.600    3.840    2.240    2.880 
#    0.000    0.000    0.000    5.760    0.000    0.000 
#    0.000    0.000    0.000    0.000    0.000    0.000 
#
# Total GULP energy -139429.206615 kJ/mol
# GULP energy per Si atom -5577.168265 kJ/mol
# Density = 1.982196 g / cm^3
# Si number density = 19.867180 Si / 1000 Ang^3
#
#
#
# Elastic Constant Matrix: (Units=GPa)
#
#
# Indices 1 2 3 4 5 6 
#
# 1 112.5546 20.6062 37.9510 0.0000 0.0000 0.0000
# 2 20.6062 162.4747 43.0212 0.0000 0.0000 0.0000
# 3 37.9510 43.0212 162.7302 0.0000 0.0000 0.0000
# 4 0.0000 0.0000 0.0000 13.5472 0.0000 0.0000
# 5 0.0000 0.0000 0.0000 0.0000 19.5152 0.0000
# 6 0.0000 0.0000 0.0000 0.0000 0.0000 36.3855
#
#
#
# Elastic Compliance Matrix: (Units=1/GPa)
#
#
# Indices 1 2 3 4 5 6 
#
# 1 0.009712 -0.000680 -0.002085 0.000000 0.000000 0.000000
# 2 -0.000680 0.006666 -0.001604 0.000000 0.000000 0.000000
# 3 -0.002085 -0.001604 0.007055 0.000000 0.000000 0.000000
# 4 0.000000 0.000000 0.000000 0.073816 0.000000 0.000000
# 5 0.000000 0.000000 0.000000 0.000000 0.051242 0.000000
# 6 0.000000 0.000000 0.000000 0.000000 0.000000 0.027483
#
#
# Mechanical properties :
#
#
# Convention : Reuss Voigt Hill
#
# Bulk Modulus (GPa) = 68.04612 71.21295 69.62954
# Shear Modulus (GPa) = 26.36982 36.30165 31.33573
#
# Velocity S-wave (km/s) = 3.64717 4.27923 3.97578
# Velocity P-wave (km/s) = 7.21531 7.76776 7.49663
#
# Compressibility (1/GPa) = 0.01469592
#
# Stress axis : x y z
#
# Youngs Moduli (GPa) = 102.96408 150.02315 141.73445
#
# Poissons Ratio (x) = 0.10195 0.29557
# Poissons Ratio (y) = 0.06997 0.22730
# Poissons Ratio (z) = 0.21472 0.24059
#
# Static dielectric constant tensor:
#      x y z
#    x 1.716720 0.000000 0.000000 
#    y 0.000000 1.689510 0.000000 
#    z 0.000000 0.000000 1.702000 
# 
# From -- ./inp_files/963.got.cif
#   From: 2010.05.17/outbox.cif.g08.bks.cpg/sg71_1_cif.got.tgz:963.got - 2010.06.03 16:22:01.
