data_PCOD9520710
_publ_section_title
;
Structure prediction by ZEFSAII (Michael W. Deem and Ramdas Pophale) SiO2 
 PCOD9520710
Probable space group: I M M M
;
_chemical_formula_sum "Si O2"
_cell_formula_units_Z 104
_cell_length_a 26.407677
_cell_length_b 16.113590
_cell_length_c 14.201035
_cell_angle_alpha 90.000000
_cell_angle_beta 90.000000
_cell_angle_gamma 90.000000
_cell_volume 6042.859632
_symmetry_space_group_name_H-M "I M M M"
_symmetry_group_IT_number 71
_symmetry_cell_setting 'orthorhombic'
loop_
_space_group_symop_operation_xyz
x,y,z
-x,-y,z
x,-y,-z
-x,y,-z
-x,-y,-z
x,y,-z
-x,y,z
x,-y,z
1/2+x,1/2+y,1/2+z
1/2-x,1/2-y,1/2+z
1/2+x,1/2-y,1/2-z
1/2-x,1/2+y,1/2-z
1/2-x,1/2-y,1/2-z
1/2+x,1/2+y,1/2-z
1/2-x,1/2+y,1/2+z
1/2+x,1/2-y,1/2+z
loop_
_atom_site_type_symbol
_atom_site_label
_atom_site_fract_x
_atom_site_fract_y
_atom_site_fract_z
Si Si1 0.057230 0.327875 0.797773
Si Si2 0.441402 0.399866 0.108446
Si Si3 0.633058 0.692652 0.749058
Si Si4 0.438616 0.000000 0.608403
Si Si5 0.579201 0.096527 0.106205
Si Si6 0.815809 0.682153 0.608048
Si Si7 0.707266 0.598531 0.610123
O O1 0.096572 0.254012 0.810165
O O2 0.076745 0.414278 0.842383
O O3 0.055715 0.346447 0.686022
O O4 0.000000 0.310930 0.831533
O O5 0.500000 0.377128 0.128704
O O6 0.438066 0.500000 0.112951
O O7 0.403287 0.359086 0.181554
O O8 0.430368 0.375112 0.000000
O O9 0.668774 0.748854 0.816128
O O10 0.666232 0.636799 0.680211
O O11 0.500000 0.000000 0.613125
O O12 0.423068 0.000000 0.500000
O O13 0.639439 0.113499 0.111778
O O14 0.567552 0.000000 0.123701
O O15 0.563154 0.117070 0.000000
O O16 0.816084 0.714596 0.500000
O O17 0.761597 0.641630 0.626592
O O18 0.693957 0.612648 0.500000
O O19 0.711842 0.500000 0.624219
#
# Coordination Sequence:
#
# PCOD9520710 Si02
#       7
#    16  16  16   8  16  16  16
#     4  10  20  32  47  71 101 130 167 209 251 299
#     4   9  18  33  53  78 110 146 177 205 248 308
#     4  11  20  32  53  80 105 131 172 216 260 296
#     4   9  18  34  51  63  85 127 172 208 247 297
#     4   9  16  27  46  72 103 136 164 194 238 294
#     4   9  18  32  51  76 105 133 164 204 255 310
#     4  10  21  37  55  74  99 134 173 215 261 311
#
# _framework density 17.210394000000001
#
# number of rings (size 3 to 8) (size 9 to 14) (size 15 to 20)
#    0.000    2.385    0.769    2.769    0.000    3.385 
#    0.000    0.769    0.000    1.385    0.000    5.385 
#    0.000    0.000    0.000    0.000    0.000    0.000 
#
# Total GULP energy -290062.351679 kJ/mol
# GULP energy per Si atom -5578.122148 kJ/mol
# Density = 1.717122 g / cm^3
# Si number density = 17.210394 Si / 1000 Ang^3
#
#
#
# Elastic Constant Matrix: (Units=GPa)
#
#
# Indices 1 2 3 4 5 6 
#
# 1 109.9717 53.3535 56.1333 0.0000 0.0000 0.0000
# 2 53.3535 72.6355 45.1966 0.0000 0.0000 0.0000
# 3 56.1333 45.1966 65.6625 0.0000 0.0000 0.0000
# 4 0.0000 0.0000 0.0000 23.6562 0.0000 0.0000
# 5 0.0000 0.0000 0.0000 0.0000 26.4784 0.0000
# 6 0.0000 0.0000 0.0000 0.0000 0.0000 15.1733
#
#
#
# Elastic Compliance Matrix: (Units=1/GPa)
#
#
# Indices 1 2 3 4 5 6 
#
# 1 0.017615 -0.006242 -0.010762 0.000000 0.000000 0.000000
# 2 -0.006242 0.026294 -0.012762 0.000000 0.000000 0.000000
# 3 -0.010762 -0.012762 0.033214 0.000000 0.000000 0.000000
# 4 0.000000 0.000000 0.000000 0.042272 0.000000 0.000000
# 5 0.000000 0.000000 0.000000 0.000000 0.037767 0.000000
# 6 0.000000 0.000000 0.000000 0.000000 0.000000 0.065905
#
#
# Mechanical properties :
#
#
# Convention : Reuss Voigt Hill
#
# Bulk Modulus (GPa) = 56.85056 61.95963 59.40509
# Shear Modulus (GPa) = 17.33330 19.30066 18.31698
#
# Velocity S-wave (km/s) = 3.17699 3.35244 3.26590
# Velocity P-wave (km/s) = 6.82364 7.14595 6.98666
#
# Compressibility (1/GPa) = 0.01758998
#
# Stress axis : x y z
#
# Youngs Moduli (GPa) = 56.76957 38.03207 30.10808
#
# Poissons Ratio (x) = 0.23741 0.32402
# Poissons Ratio (y) = 0.35438 0.38423
# Poissons Ratio (z) = 0.61095 0.48536
#
# Static dielectric constant tensor:
#      x y z
#    x 1.579170 0.000000 0.000000 
#    y 0.000000 1.579080 0.000000 
#    z 0.000000 0.000000 1.581920 
# 
# From -- ./inp_files/39494.got.cif
#   From: 2010.05.17/outbox.cif.g08.bks.cpg/sg71_20_cif.got.tgz:39494.got - 2010.06.03 16:22:01.
