data_PCOD9520238
_publ_section_title
;
Structure prediction by ZEFSAII (Michael W. Deem and Ramdas Pophale) SiO2 
 PCOD9520238
Probable space group: I M M M
;
_chemical_formula_sum "Si O2"
_cell_formula_units_Z 66
_cell_length_a 21.496169
_cell_length_b 11.925580
_cell_length_c 14.414097
_cell_angle_alpha 90.000000
_cell_angle_beta 90.000000
_cell_angle_gamma 90.000000
_cell_volume 3695.115503
_symmetry_space_group_name_H-M "I M M M"
_symmetry_group_IT_number 71
_symmetry_cell_setting 'orthorhombic'
loop_
_space_group_symop_operation_xyz
x,y,z
-x,-y,z
x,-y,-z
-x,y,-z
-x,-y,-z
x,y,-z
-x,y,z
x,-y,z
1/2+x,1/2+y,1/2+z
1/2-x,1/2-y,1/2+z
1/2+x,1/2-y,1/2-z
1/2-x,1/2+y,1/2-z
1/2-x,1/2-y,1/2-z
1/2+x,1/2+y,1/2-z
1/2-x,1/2+y,1/2+z
1/2+x,1/2-y,1/2+z
loop_
_atom_site_type_symbol
_atom_site_label
_atom_site_fract_x
_atom_site_fract_y
_atom_site_fract_z
Si Si1 0.711069 0.290289 0.606912
Si Si2 0.000000 0.000000 0.000000
Si Si3 0.425295 0.500000 0.840467
Si Si4 0.574407 0.250991 0.103050
Si Si5 0.120611 0.000000 0.867520
Si Si6 0.671653 0.132830 0.229183
O O1 0.722992 0.258542 0.500000
O O2 0.660638 0.390220 0.608343
O O3 0.686316 0.190426 0.672254
O O4 0.772599 0.335844 0.658322
O O5 0.944704 0.000000 0.920233
O O6 0.500000 0.500000 0.827889
O O7 0.409812 0.383367 0.890371
O O8 0.391773 0.500000 0.741994
O O9 0.500000 0.240671 0.113541
O O10 0.610442 0.185943 0.182926
O O11 0.591406 0.209466 0.000000
O O12 0.666959 0.000000 0.237791
#
# Coordination Sequence:
#
# PCOD9520238 Si02
#       6
#    16   2   8  16   8  16
#     4  11  23  41  62  86 121 157 198 250 305 365
#     4  12  24  32  68 108 116 152 214 264 320 370
#     4  10  19  34  58  88 122 153 190 251 312 357
#     4  10  21  37  59  87 120 157 201 250 303 360
#     4  12  20  37  62  94 121 152 196 259 311 362
#     4  11  24  40  61  87 119 162 204 243 300 367
#
# _framework density 17.861418
#
# number of rings (size 3 to 8) (size 9 to 14) (size 15 to 20)
#    0.000    1.212    5.455    1.091    0.000    3.879 
#    0.000    1.212    0.000    0.000    0.000    2.545 
#    0.000    0.000    0.000    0.000    0.000    0.000 
#
# Total GULP energy -184023.895449 kJ/mol
# GULP energy per Si atom -5576.481680 kJ/mol
# Density = 1.782076 g / cm^3
# Si number density = 17.861418 Si / 1000 Ang^3
#
#
#
# Elastic Constant Matrix: (Units=GPa)
#
#
# Indices 1 2 3 4 5 6 
#
# 1 64.6829 33.1931 36.9997 0.0000 0.0000 0.0000
# 2 33.1931 130.8708 57.9656 0.0000 0.0000 0.0000
# 3 36.9997 57.9656 146.7736 0.0000 0.0000 0.0000
# 4 0.0000 0.0000 0.0000 -104.4084 0.0000 0.0000
# 5 0.0000 0.0000 0.0000 0.0000 59.9363 0.0000
# 6 0.0000 0.0000 0.0000 0.0000 0.0000 14.9338
#
#
#
# Elastic Compliance Matrix: (Units=1/GPa)
#
#
# Indices 1 2 3 4 5 6 
#
# 1 0.019172 -0.003299 -0.003530 0.000000 0.000000 0.000000
# 2 -0.003299 0.009829 -0.003050 0.000000 0.000000 0.000000
# 3 -0.003530 -0.003050 0.008908 0.000000 0.000000 0.000000
# 4 0.000000 0.000000 0.000000 -0.009578 0.000000 0.000000
# 5 0.000000 0.000000 0.000000 0.000000 0.016684 0.000000
# 6 0.000000 0.000000 0.000000 0.000000 0.000000 0.066962
#
#
# Mechanical properties :
#
#
# Convention : Reuss Voigt Hill
#
# Bulk Modulus (GPa) = 55.09593 66.51600 60.80596
# Shear Modulus (GPa) = 36.28805 8.37027 22.32916
#
# Velocity S-wave (km/s) = 4.51227 2.16712 3.53956
# Velocity P-wave (km/s) = 7.61976 6.60172 7.12894
#
# Compressibility (1/GPa) = 0.01815016
#
# Stress axis : x y z
#
# Youngs Moduli (GPa) = 52.15847 101.74151 112.26259
#
# Poissons Ratio (x) = 0.33566 0.39630
# Poissons Ratio (y) = 0.17208 0.34241
# Poissons Ratio (z) = 0.18413 0.31032
#
# Static dielectric constant tensor:
#      x y z
#    x 1.597760 0.000000 0.000000 
#    y 0.000000 1.588940 0.000000 
#    z 0.000000 0.000000 1.657940 
# 
# From -- ./inp_files/21620.got.cif
#   From: 2010.05.17/outbox.cif.g08.bks.cpg/sg71_11_cif.got.tgz:21620.got - 2010.06.03 16:22:01.
