data_PCOD9520842
_publ_section_title
;
Structure prediction by ZEFSAII (Michael W. Deem and Ramdas Pophale) SiO2 
 PCOD9520842
Probable space group: I M M M
;
_chemical_formula_sum "Si O2"
_cell_formula_units_Z 92
_cell_length_a 16.810666
_cell_length_b 30.461478
_cell_length_c 8.271294
_cell_angle_alpha 90.000000
_cell_angle_beta 90.000000
_cell_angle_gamma 90.000000
_cell_volume 4235.545477
_symmetry_space_group_name_H-M "I M M M"
_symmetry_group_IT_number 71
_symmetry_cell_setting 'orthorhombic'
loop_
_space_group_symop_operation_xyz
x,y,z
-x,-y,z
x,-y,-z
-x,y,-z
-x,-y,-z
x,y,-z
-x,y,z
x,-y,z
1/2+x,1/2+y,1/2+z
1/2-x,1/2-y,1/2+z
1/2+x,1/2-y,1/2-z
1/2-x,1/2+y,1/2-z
1/2-x,1/2-y,1/2-z
1/2+x,1/2+y,1/2-z
1/2-x,1/2+y,1/2+z
1/2+x,1/2-y,1/2+z
loop_
_atom_site_type_symbol
_atom_site_label
_atom_site_fract_x
_atom_site_fract_y
_atom_site_fract_z
Si Si1 0.500000 0.136397 0.500000
Si Si2 0.708982 0.549170 0.311637
Si Si3 0.167720 0.311894 0.318096
Si Si4 0.500000 0.863519 0.164716
Si Si5 0.089765 0.873220 0.806258
Si Si6 0.332480 0.851769 0.500000
Si Si7 0.590846 0.723231 0.805801
Si Si8 0.823384 0.452417 0.000000
O O1 0.500000 0.111012 0.331403
O O2 0.577781 0.167635 0.500000
O O3 0.736675 0.557285 0.500000
O O4 0.672814 0.500000 0.313538
O O5 0.647554 0.587055 0.263931
O O6 0.773618 0.548003 0.168722
O O7 0.203311 0.314570 0.500000
O O8 0.079516 0.334021 0.335485
O O9 0.206897 0.337273 0.167537
O O10 0.151387 0.262035 0.264709
O O11 0.500000 0.890461 0.000000
O O12 0.114628 0.824829 0.751634
O O13 0.000000 0.880293 0.742739
O O14 0.086443 0.872862 0.000000
O O15 0.354831 0.902953 0.500000
O O16 0.500000 0.731675 0.746801
O O17 0.587611 0.723632 0.000000
O O18 0.866659 0.500000 0.000000
#
# Coordination Sequence:
#
# PCOD9520842 Si02
#       8
#     4  16  16   8  16   8  16   8
#     4   8  16  28  43  76 102 124 156 192 265 320
#     4   9  19  37  59  79 101 137 182 223 266 315
#     4   9  16  27  44  70 103 136 172 207 247 299
#     4   8  12  22  38  59  95 129 157 195 229 278
#     4   9  18  30  47  80 113 140 174 216 270 314
#     4  10  20  32  53  81 104 131 173 219 269 315
#     4   9  16  26  42  70 109 146 176 208 249 304
#     4  10  22  40  60  80 100 130 179 228 268 321
#
# _framework density 21.720934
#
# number of rings (size 3 to 8) (size 9 to 14) (size 15 to 20)
#    0.000    2.957    0.870    0.000    2.435    1.043 
#    0.000    1.957    0.000    2.609    0.000    0.000 
#    0.000    9.739    0.000    0.000    0.000    0.000 
#
# Total GULP energy -256107.498536 kJ/mol
# GULP energy per Si atom -5567.554316 kJ/mol
# Density = 2.167150 g / cm^3
# Si number density = 21.720934 Si / 1000 Ang^3
#
#
#
# Elastic Constant Matrix: (Units=GPa)
#
#
# Indices 1 2 3 4 5 6 
#
# 1 35.9886 7.9868 11.7414 -0.0051 -0.0007 -0.0022
# 2 7.9868 113.1420 30.9885 -0.0186 0.0043 -0.0033
# 3 11.7414 30.9885 122.4800 -0.0750 0.0064 -0.0037
# 4 -0.0051 -0.0186 -0.0750 51.6381 0.0091 -0.0018
# 5 -0.0007 0.0043 0.0064 0.0091 -1.4019 -0.0004
# 6 -0.0022 -0.0033 -0.0037 -0.0018 -0.0004 13.6831
#
#
#
# Elastic Compliance Matrix: (Units=1/GPa)
#
#
# Indices 1 2 3 4 5 6 
#
# 1 0.028882 -0.001376 -0.002421 -0.000001 -0.000031 0.000004
# 2 -0.001376 0.009562 -0.002287 0.000000 0.000020 0.000001
# 3 -0.002421 -0.002287 0.008975 0.000012 0.000035 0.000002
# 4 -0.000001 0.000000 0.000012 0.019366 0.000126 0.000003
# 5 -0.000031 0.000020 0.000035 0.000126 -0.713302 -0.000023
# 6 0.000004 0.000001 0.000002 0.000003 -0.000023 0.073083
#
#
# Mechanical properties :
#
#
# Convention : Reuss Voigt Hill
#
# Bulk Modulus (GPa) = 28.36764 41.44935 34.90849
# Shear Modulus (GPa) = -9.09890 27.51012 9.20561
#
# Velocity S-wave (km/s) = -2.04893 3.56269 2.06090
# Velocity P-wave (km/s) = 2.73696 6.00398 4.66576
#
# Compressibility (1/GPa) = 0.03525144
#
# Stress axis : x y z
#
# Youngs Moduli (GPa) = 34.62411 104.57990 111.41584
#
# Poissons Ratio (x) = 0.14388 0.26969
# Poissons Ratio (y) = 0.04764 0.25485
# Poissons Ratio (z) = 0.08381 0.23922
#
# Static dielectric constant tensor:
#      x y z
#    x 1.869490 0.000000 0.000000 
#    y 0.000000 1.797940 0.000000 
#    z 0.000000 0.000000 1.859580 
# 
# From -- ./inp_files/11028.got.cif
#   From: 2010.05.17/outbox.cif.g08.bks.cpg/sg71_6_cif.got.tgz:11028.got - 2010.06.03 16:22:01.
