data_PCOD9520956
_publ_section_title
;
Structure prediction by ZEFSAII (Michael W. Deem and Ramdas Pophale) SiO2 
 PCOD9520956
Probable space group: I M M M
;
_chemical_formula_sum "Si O2"
_cell_formula_units_Z 88
_cell_length_a 17.021632
_cell_length_b 9.159258
_cell_length_c 33.139382
_cell_angle_alpha 90.000000
_cell_angle_beta 90.000000
_cell_angle_gamma 90.000000
_cell_volume 5166.612552
_symmetry_space_group_name_H-M "I M M M"
_symmetry_group_IT_number 71
_symmetry_cell_setting 'orthorhombic'
loop_
_space_group_symop_operation_xyz
x,y,z
-x,-y,z
x,-y,-z
-x,y,-z
-x,-y,-z
x,y,-z
-x,y,z
x,-y,z
1/2+x,1/2+y,1/2+z
1/2-x,1/2-y,1/2+z
1/2+x,1/2-y,1/2-z
1/2-x,1/2+y,1/2-z
1/2-x,1/2-y,1/2-z
1/2+x,1/2+y,1/2-z
1/2-x,1/2+y,1/2+z
1/2+x,1/2-y,1/2+z
loop_
_atom_site_type_symbol
_atom_site_label
_atom_site_fract_x
_atom_site_fract_y
_atom_site_fract_z
Si Si1 0.661303 0.172971 0.951790
Si Si2 0.588858 0.672538 0.651566
Si Si3 0.500000 0.332485 0.048979
Si Si4 0.364767 0.165423 0.730069
Si Si5 0.761848 0.675621 0.113509
Si Si6 0.685589 0.334285 0.196146
O O1 0.578746 0.247005 0.939487
O O2 0.729150 0.252564 0.926865
O O3 0.660194 0.000000 0.943679
O O4 0.670700 0.192813 0.000000
O O5 0.500000 0.695079 0.636713
O O6 0.606454 0.500000 0.651067
O O7 0.594207 0.731982 0.697341
O O8 0.654183 0.759230 0.626370
O O9 0.500000 0.500000 0.063495
O O10 0.500000 0.336730 0.000000
O O11 0.105289 0.500000 0.771547
O O12 0.364247 0.230526 0.774941
O O13 0.273582 0.161122 0.715315
O O14 0.766007 0.500000 0.111205
O O15 0.701543 0.712378 0.150233
O O16 0.654903 0.500000 0.196904
#
# Coordination Sequence:
#
# PCOD9520956 Si02
#       6
#    16  16   8  16  16  16
#     4  10  20  34  54  80 109 139 170 207 254 310
#     4  10  20  33  50  72 100 136 176 219 265 310
#     4   9  17  31  53  79 105 133 165 201 243 295
#     4   9  16  26  44  68  92 122 160 203 248 296
#     4  10  20  33  52  77 103 135 174 217 262 308
#     4   8  15  27  43  66  94 123 157 197 246 300
#
# _framework density 17.032436000000001
#
# number of rings (size 3 to 8) (size 9 to 14) (size 15 to 20)
#    0.000    2.636    0.000    3.545    0.000    8.727 
#    0.000    0.000    2.000    0.545    0.000    3.818 
#    0.000    0.000    0.000    0.000    0.000    0.000 
#
# Total GULP energy -245240.973917 kJ/mol
# GULP energy per Si atom -5573.658498 kJ/mol
# Density = 1.699367 g / cm^3
# Si number density = 17.032436 Si / 1000 Ang^3
#
#
#
# Elastic Constant Matrix: (Units=GPa)
#
#
# Indices 1 2 3 4 5 6 
#
# 1 74.4966 57.8682 39.4640 0.0000 0.0000 0.0000
# 2 57.8682 113.4882 57.1018 0.0000 0.0000 0.0000
# 3 39.4640 57.1018 62.6826 0.0000 0.0000 0.0000
# 4 0.0000 0.0000 0.0000 26.7606 0.0000 0.0000
# 5 0.0000 0.0000 0.0000 0.0000 12.9628 0.0000
# 6 0.0000 0.0000 0.0000 0.0000 0.0000 17.2950
#
#
#
# Elastic Compliance Matrix: (Units=1/GPa)
#
#
# Indices 1 2 3 4 5 6 
#
# 1 0.023903 -0.008523 -0.007285 0.000000 0.000000 0.000000
# 2 -0.008523 0.019307 -0.012222 0.000000 0.000000 0.000000
# 3 -0.007285 -0.012222 0.031674 0.000000 0.000000 0.000000
# 4 0.000000 0.000000 0.000000 0.037368 0.000000 0.000000
# 5 0.000000 0.000000 0.000000 0.000000 0.077144 0.000000
# 6 0.000000 0.000000 0.000000 0.000000 0.000000 0.057820
#
#
# Mechanical properties :
#
#
# Convention : Reuss Voigt Hill
#
# Bulk Modulus (GPa) = 53.12381 62.17061 57.64721
# Shear Modulus (GPa) = 16.15246 17.81925 16.98585
#
# Velocity S-wave (km/s) = 3.08285 3.23800 3.16138
# Velocity P-wave (km/s) = 6.62793 7.11056 6.87348
#
# Compressibility (1/GPa) = 0.01882395
#
# Stress axis : x y z
#
# Youngs Moduli (GPa) = 41.83563 51.79496 31.57179
#
# Poissons Ratio (x) = 0.44144 0.23000
# Poissons Ratio (y) = 0.35656 0.38587
# Poissons Ratio (z) = 0.30477 0.63304
#
# Static dielectric constant tensor:
#      x y z
#    x 1.576670 0.000000 0.000000 
#    y 0.000000 1.573200 0.000000 
#    z 0.000000 0.000000 1.574910 
# 
# From -- ./inp_files/70341.got.cif
#   From: 2010.05.17/outbox.cif.g08.bks.cpg/sg71_36_cif.got.tgz:70341.got - 2010.06.03 16:22:01.
