data_PCOD9520539
_publ_section_title
;
Structure prediction by ZEFSAII (Michael W. Deem and Ramdas Pophale) SiO2 
 PCOD9520539
Probable space group: I M M M
;
_chemical_formula_sum "Si O2"
_cell_formula_units_Z 88
_cell_length_a 7.834480
_cell_length_b 31.797599
_cell_length_c 20.314819
_cell_angle_alpha 90.000000
_cell_angle_beta 90.000000
_cell_angle_gamma 90.000000
_cell_volume 5060.780039
_symmetry_space_group_name_H-M "I M M M"
_symmetry_group_IT_number 71
_symmetry_cell_setting 'orthorhombic'
loop_
_space_group_symop_operation_xyz
x,y,z
-x,-y,z
x,-y,-z
-x,y,-z
-x,-y,-z
x,y,-z
-x,y,z
x,-y,z
1/2+x,1/2+y,1/2+z
1/2-x,1/2-y,1/2+z
1/2+x,1/2-y,1/2-z
1/2-x,1/2+y,1/2-z
1/2-x,1/2-y,1/2-z
1/2+x,1/2+y,1/2-z
1/2-x,1/2+y,1/2+z
1/2+x,1/2-y,1/2+z
loop_
_atom_site_type_symbol
_atom_site_label
_atom_site_fract_x
_atom_site_fract_y
_atom_site_fract_z
Si Si1 0.297161 0.707092 0.288109
Si Si2 0.196353 0.948823 0.500000
Si Si3 0.203057 0.261443 0.427675
Si Si4 0.801198 0.665028 0.073484
Si Si5 0.695781 0.628663 0.208626
Si Si6 0.210326 0.951678 0.355321
O O1 0.500000 0.704382 0.282559
O O2 0.250000 0.750000 0.250000
O O3 0.249254 0.711530 0.364270
O O4 0.223770 0.665168 0.253437
O O5 0.272110 0.938263 0.428727
O O6 0.000000 0.934222 0.500000
O O7 0.191628 0.000000 0.500000
O O8 0.248671 0.278959 0.500000
O O9 0.287833 0.215625 0.422045
O O10 0.000000 0.254399 0.426387
O O11 0.698646 0.646795 0.134372
O O12 0.000000 0.653555 0.079885
O O13 0.740853 0.652969 0.000000
O O14 0.500000 0.623006 0.230409
O O15 0.769999 0.582069 0.198401
O O16 0.000000 0.950763 0.357528
O O17 0.259134 0.000000 0.343410
#
# Coordination Sequence:
#
# PCOD9520539 Si02
#       6
#    16   8  16  16  16  16
#     4  11  21  32  46  67  97 127 156 188 226 273
#     4   7  10  18  34  56  81 109 141 181 227 263
#     4  10  20  34  51  68  87 116 156 197 234 274
#     4  10  20  31  43  62  89 122 157 191 231 275
#     4  10  20  30  45  68  89 118 156 193 230 270
#     4   8  14  25  40  61  88 114 147 192 235 268
#
# _framework density 17.388624
#
# number of rings (size 3 to 8) (size 9 to 14) (size 15 to 20)
#    0.000    2.455    1.818    2.727    1.273    2.909 
#    0.000    0.000    0.000    0.545    0.000    1.273 
#    0.000    0.727    0.000    9.091    0.000    1.455 
#
# Total GULP energy -245327.695666 kJ/mol
# GULP energy per Si atom -5575.629447 kJ/mol
# Density = 1.734905 g / cm^3
# Si number density = 17.388624 Si / 1000 Ang^3
#
#
#
# Elastic Constant Matrix: (Units=GPa)
#
#
# Indices 1 2 3 4 5 6 
#
# 1 35.6005 6.8670 1.8557 0.0000 0.0000 0.0000
# 2 6.8670 112.7999 60.1224 0.0000 0.0000 0.0000
# 3 1.8557 60.1224 90.5495 0.0000 0.0000 0.0000
# 4 0.0000 0.0000 0.0000 31.5513 0.0000 0.0000
# 5 0.0000 0.0000 0.0000 0.0000 16.6768 0.0000
# 6 0.0000 0.0000 0.0000 0.0000 0.0000 8.2797
#
#
#
# Elastic Compliance Matrix: (Units=1/GPa)
#
#
# Indices 1 2 3 4 5 6 
#
# 1 0.028468 -0.002201 0.000878 0.000000 0.000000 0.000000
# 2 -0.002201 0.013891 -0.009178 0.000000 0.000000 0.000000
# 3 0.000878 -0.009178 0.017120 0.000000 0.000000 0.000000
# 4 0.000000 0.000000 0.000000 0.031694 0.000000 0.000000
# 5 0.000000 0.000000 0.000000 0.000000 0.059964 0.000000
# 6 0.000000 0.000000 0.000000 0.000000 0.000000 0.120777
#
#
# Mechanical properties :
#
#
# Convention : Reuss Voigt Hill
#
# Bulk Modulus (GPa) = 25.98977 41.84892 33.91935
# Shear Modulus (GPa) = 16.35360 22.64186 19.49773
#
# Velocity S-wave (km/s) = 3.07005 3.61239 3.35220
# Velocity P-wave (km/s) = 5.24841 6.44346 5.87639
#
# Compressibility (1/GPa) = 0.03847668
#
# Stress axis : x y z
#
# Youngs Moduli (GPa) = 35.12678 71.98737 58.41163
#
# Poissons Ratio (x) = 0.15845 -0.05129
# Poissons Ratio (y) = 0.07732 0.53612
# Poissons Ratio (z) = -0.03084 0.66073
#
# Static dielectric constant tensor:
#      x y z
#    x 1.652440 0.000000 0.000000 
#    y 0.000000 1.651450 0.000000 
#    z 0.000000 0.000000 1.594820 
# 
# From -- ./inp_files/51044.got.cif
#   From: 2010.05.17/outbox.cif.g08.bks.cpg/sg71_26_cif.got.tgz:51044.got - 2010.06.03 16:22:01.
