data_PCOD9520962
_publ_section_title
;
Structure prediction by ZEFSAII (Michael W. Deem and Ramdas Pophale) SiO2 
 PCOD9520962
Probable space group: I M M M
;
_chemical_formula_sum "Si O2"
_cell_formula_units_Z 96
_cell_length_a 30.188908
_cell_length_b 20.926876
_cell_length_c 7.402648
_cell_angle_alpha 90.000000
_cell_angle_beta 90.000000
_cell_angle_gamma 90.000000
_cell_volume 4676.693453
_symmetry_space_group_name_H-M "I M M M"
_symmetry_group_IT_number 71
_symmetry_cell_setting 'orthorhombic'
loop_
_space_group_symop_operation_xyz
x,y,z
-x,-y,z
x,-y,-z
-x,y,-z
-x,-y,-z
x,y,-z
-x,y,z
x,-y,z
1/2+x,1/2+y,1/2+z
1/2-x,1/2-y,1/2+z
1/2+x,1/2-y,1/2-z
1/2-x,1/2+y,1/2-z
1/2-x,1/2-y,1/2-z
1/2+x,1/2+y,1/2-z
1/2-x,1/2+y,1/2+z
1/2+x,1/2-y,1/2+z
loop_
_atom_site_type_symbol
_atom_site_label
_atom_site_fract_x
_atom_site_fract_y
_atom_site_fract_z
Si Si1 0.195231 0.205332 0.780160
Si Si2 0.717991 0.851560 0.792631
Si Si3 0.949572 0.331732 0.216014
Si Si4 0.093918 0.198874 0.779256
Si Si5 0.448416 0.431888 0.719481
Si Si6 0.131829 0.426887 0.283189
O O1 0.232031 0.154135 0.716323
O O2 0.205106 0.276784 0.712706
O O3 0.145032 0.193642 0.727646
O O4 0.197817 0.207156 0.000000
O O5 0.676598 0.891267 0.714268
O O6 0.722443 0.873234 0.000000
O O7 0.929724 0.264037 0.282750
O O8 0.912615 0.386073 0.248244
O O9 0.000000 0.343763 0.282591
O O10 0.952848 0.326295 0.000000
O O11 0.071280 0.134179 0.715981
O O12 0.092321 0.200675 0.000000
O O13 0.445349 0.430940 0.500000
O O14 0.500000 0.432335 0.765171
O O15 0.428676 0.500000 0.779038
O O16 0.135728 0.428750 0.500000
O O17 0.128791 0.500000 0.218030
#
# Coordination Sequence:
#
# PCOD9520962 Si02
#       6
#    16  16  16  16  16  16
#     4   9  16  27  47  71  93 116 147 189 232 273
#     4   9  17  30  47  68  91 118 153 188 227 276
#     4  10  20  33  50  72  96 123 160 207 251 288
#     4   9  15  25  42  66  94 122 151 188 234 277
#     4   8  13  21  34  55  87 125 155 176 211 271
#     4  10  21  36  51  67  94 131 165 199 244 295
#
# _framework density 20.527324
#
# number of rings (size 3 to 8) (size 9 to 14) (size 15 to 20)
#    0.000    2.833    1.667    1.000    0.000    3.000 
#    0.000    2.500    0.000    5.000    0.000    0.000 
#    0.000    4.000    0.000    9.167    0.000    8.333 
#
# Total GULP energy -267437.707678 kJ/mol
# GULP energy per Si atom -5571.618910 kJ/mol
# Density = 2.048060 g / cm^3
# Si number density = 20.527324 Si / 1000 Ang^3
#
#
#
# Elastic Constant Matrix: (Units=GPa)
#
#
# Indices 1 2 3 4 5 6 
#
# 1 163.6615 102.9661 7.8712 0.0000 0.0000 0.0000
# 2 102.9661 166.2249 1.1389 0.0000 0.0000 0.0000
# 3 7.8712 1.1389 70.2217 0.0000 0.0000 0.0000
# 4 0.0000 0.0000 0.0000 -45.0692 0.0000 0.0000
# 5 0.0000 0.0000 0.0000 0.0000 6.3562 0.0000
# 6 0.0000 0.0000 0.0000 0.0000 0.0000 29.4412
#
#
#
# Elastic Compliance Matrix: (Units=1/GPa)
#
#
# Indices 1 2 3 4 5 6 
#
# 1 0.010086 -0.006240 -0.001029 0.000000 0.000000 0.000000
# 2 -0.006240 0.009878 0.000539 0.000000 0.000000 0.000000
# 3 -0.001029 0.000539 0.014347 0.000000 0.000000 0.000000
# 4 0.000000 0.000000 0.000000 -0.022188 0.000000 0.000000
# 5 0.000000 0.000000 0.000000 0.000000 0.157327 0.000000
# 6 0.000000 0.000000 0.000000 0.000000 0.000000 0.033966
#
#
# Mechanical properties :
#
#
# Convention : Reuss Voigt Hill
#
# Bulk Modulus (GPa) = 47.96189 69.34006 58.65097
# Shear Modulus (GPa) = 22.33867 17.35443 19.84655
#
# Velocity S-wave (km/s) = 3.30243 2.91078 3.11277
# Velocity P-wave (km/s) = 6.16092 6.71935 6.44619
#
# Compressibility (1/GPa) = 0.02084989
#
# Stress axis : x y z
#
# Youngs Moduli (GPa) = 99.14912 101.23666 69.69980
#
# Poissons Ratio (x) = 0.63177 0.07174
# Poissons Ratio (y) = 0.61874 -0.03759
# Poissons Ratio (z) = 0.10206 -0.05460
#
# Static dielectric constant tensor:
#      x y z
#    x 1.766360 0.000000 0.000000 
#    y 0.000000 1.705770 0.000000 
#    z 0.000000 0.000000 1.832320 
# 
# From -- ./inp_files/14820.got.cif
#   From: 2010.05.17/outbox.cif.g08.bks.cpg/sg71_8_cif.got.tgz:14820.got - 2010.06.03 16:22:01.
