data_PCOD9520854
_publ_section_title
;
Structure prediction by ZEFSAII (Michael W. Deem and Ramdas Pophale) SiO2 
 PCOD9520854
Probable space group: I M M M
;
_chemical_formula_sum "Si O2"
_cell_formula_units_Z 112
_cell_length_a 14.610841
_cell_length_b 17.760020
_cell_length_c 26.763135
_cell_angle_alpha 90.000000
_cell_angle_beta 90.000000
_cell_angle_gamma 90.000000
_cell_volume 6944.734545
_symmetry_space_group_name_H-M "I M M M"
_symmetry_group_IT_number 71
_symmetry_cell_setting 'orthorhombic'
loop_
_space_group_symop_operation_xyz
x,y,z
-x,-y,z
x,-y,-z
-x,y,-z
-x,-y,-z
x,y,-z
-x,y,z
x,-y,z
1/2+x,1/2+y,1/2+z
1/2-x,1/2-y,1/2+z
1/2+x,1/2-y,1/2-z
1/2-x,1/2+y,1/2-z
1/2-x,1/2-y,1/2-z
1/2+x,1/2+y,1/2-z
1/2-x,1/2+y,1/2+z
1/2+x,1/2-y,1/2+z
loop_
_atom_site_type_symbol
_atom_site_label
_atom_site_fract_x
_atom_site_fract_y
_atom_site_fract_z
Si Si1 0.892585 0.853807 0.304854
Si Si2 0.250000 0.086436 0.773676
Si Si3 0.107415 0.646192 0.195146
Si Si4 0.893062 0.415439 0.915822
Si Si5 0.250000 0.269209 0.337643
Si Si6 0.250000 0.793212 0.445987
Si Si7 0.106938 0.084561 0.584178
O O1 0.838020 0.895366 0.261060
O O2 0.837682 0.776433 0.315904
O O3 0.883645 0.901645 0.356141
O O4 0.000000 0.842608 0.294744
O O5 0.338019 0.104634 0.738940
O O6 0.250000 0.146486 0.818163
O O7 0.250000 0.000000 0.789073
O O8 0.116355 0.598355 0.143859
O O9 0.162317 0.723567 0.184096
O O10 0.000000 0.657391 0.205257
O O11 0.862225 0.500000 0.928232
O O12 0.835620 0.349915 0.941068
O O13 0.000000 0.409419 0.928164
O O14 0.250000 0.259241 0.397299
O O15 0.250000 0.755484 0.500000
O O16 0.164380 0.849915 0.441068
O O17 0.000000 0.090582 0.571836
O O18 0.137775 0.000000 0.571768
#
# Coordination Sequence:
#
# PCOD9520854 Si02
#       7
#    16  16  16  16  16  16  16
#     4   9  17  31  50  70  96 129 155 173 207 266
#     4  11  21  30  45  71  98 121 149 186 226 268
#     4   9  17  31  50  70  96 129 155 173 207 266
#     4   9  17  28  43  67  97 122 145 176 213 258
#     4   9  20  34  47  67  92 119 153 193 228 262
#     4  10  20  33  47  60  80 116 158 195 231 267
#     4   9  17  28  43  67  97 122 145 176 213 258
#
# _framework density 16.127326
#
# number of rings (size 3 to 8) (size 9 to 14) (size 15 to 20)
#    0.000    2.571    0.000    3.857    0.000    5.714 
#    0.000    1.429    0.000    0.429    0.000    0.000 
#    0.000    0.000    0.000   16.857    0.000    0.000 
#
# Total GULP energy -312462.196807 kJ/mol
# GULP energy per Si atom -5579.682086 kJ/mol
# Density = 1.609062 g / cm^3
# Si number density = 16.127326 Si / 1000 Ang^3
#
#
#
# Elastic Constant Matrix: (Units=GPa)
#
#
# Indices 1 2 3 4 5 6 
#
# 1 100.6249 26.2716 29.3397 0.0000 0.0000 0.0000
# 2 26.2716 94.2261 43.8665 0.0000 0.0000 0.0000
# 3 29.3397 43.8665 76.4019 0.0000 0.0000 0.0000
# 4 0.0000 0.0000 0.0000 0.8763 0.0000 0.0000
# 5 0.0000 0.0000 0.0000 0.0000 1.2460 0.0000
# 6 0.0000 0.0000 0.0000 0.0000 0.0000 7.7026
#
#
#
# Elastic Compliance Matrix: (Units=1/GPa)
#
#
# Indices 1 2 3 4 5 6 
#
# 1 0.011354 -0.001550 -0.003470 0.000000 0.000000 0.000000
# 2 -0.001550 0.014696 -0.007842 0.000000 0.000000 0.000000
# 3 -0.003470 -0.007842 0.018924 0.000000 0.000000 0.000000
# 4 0.000000 0.000000 0.000000 1.141126 0.000000 0.000000
# 5 0.000000 0.000000 0.000000 0.000000 0.802586 0.000000
# 6 0.000000 0.000000 0.000000 0.000000 0.000000 0.129826
#
#
# Mechanical properties :
#
#
# Convention : Reuss Voigt Hill
#
# Bulk Modulus (GPa) = 51.95159 52.24541 52.09850
# Shear Modulus (GPa) = 2.32487 13.41666 7.87077
#
# Velocity S-wave (km/s) = 1.20196 2.88743 2.21156
# Velocity P-wave (km/s) = 5.84890 6.60169 6.23666
#
# Compressibility (1/GPa) = 0.01924869
#
# Stress axis : x y z
#
# Youngs Moduli (GPa) = 88.07099 68.04562 52.84264
#
# Poissons Ratio (x) = 0.10549 0.18338
# Poissons Ratio (y) = 0.13653 0.41442
# Poissons Ratio (z) = 0.30563 0.53365
#
# Static dielectric constant tensor:
#      x y z
#    x 1.558780 0.000000 0.000000 
#    y 0.000000 1.511580 0.000000 
#    z 0.000000 0.000000 1.558280 
# 
# From -- ./inp_files/70090.got.cif
#   From: 2010.05.17/outbox.cif.g08.bks.cpg/sg71_36_cif.got.tgz:70090.got - 2010.06.03 16:22:01.
