data_PCOD9520048
_publ_section_title
;
Structure prediction by ZEFSAII (Michael W. Deem and Ramdas Pophale) SiO2 
 PCOD9520048
Probable space group: I M M M
;
_chemical_formula_sum "Si O2"
_cell_formula_units_Z 56
_cell_length_a 7.622692
_cell_length_b 38.503091
_cell_length_c 10.527196
_cell_angle_alpha 90.000000
_cell_angle_beta 90.000000
_cell_angle_gamma 90.000000
_cell_volume 3089.702589
_symmetry_space_group_name_H-M "I M M M"
_symmetry_group_IT_number 71
_symmetry_cell_setting 'orthorhombic'
loop_
_space_group_symop_operation_xyz
x,y,z
-x,-y,z
x,-y,-z
-x,y,-z
-x,-y,-z
x,y,-z
-x,y,z
x,-y,z
1/2+x,1/2+y,1/2+z
1/2-x,1/2-y,1/2+z
1/2+x,1/2-y,1/2-z
1/2-x,1/2+y,1/2-z
1/2-x,1/2-y,1/2-z
1/2+x,1/2+y,1/2-z
1/2-x,1/2+y,1/2+z
1/2+x,1/2-y,1/2+z
loop_
_atom_site_type_symbol
_atom_site_label
_atom_site_fract_x
_atom_site_fract_y
_atom_site_fract_z
Si Si1 0.208265 0.831587 0.753008
Si Si2 0.500000 0.960452 0.154290
Si Si3 0.790614 0.286429 0.500000
Si Si4 0.706788 0.406024 0.347102
Si Si5 0.784152 0.793222 0.500000
O O1 0.272476 0.870368 0.783171
O O2 0.275981 0.813110 0.626413
O O3 0.000000 0.835456 0.736301
O O4 0.235520 0.807222 0.874796
O O5 0.671634 0.938277 0.190372
O O6 0.500000 0.000000 0.200949
O O7 0.500000 0.961828 0.000000
O O8 0.725601 0.246807 0.500000
O O9 0.000000 0.285185 0.500000
O O10 0.721158 0.401197 0.500000
O O11 0.500000 0.411545 0.319598
O O12 0.000000 0.792806 0.500000
#
# Coordination Sequence:
#
# PCOD9520048 Si02
#       5
#    16   8   8  16   8
#     4  10  19  34  53  71  99 138 176 219 261 312
#     4   9  18  30  48  75 109 135 161 213 267 313
#     4  11  21  31  51  75  99 136 175 219 270 316
#     4   9  17  29  49  74  98 134 176 208 256 316
#     4   9  20  35  49  73 103 132 176 224 268 310
#
# _framework density 18.124721999999998
#
# number of rings (size 3 to 8) (size 9 to 14) (size 15 to 20)
#    0.000    2.429    1.429    1.286    2.000    0.571 
#    0.000    5.000    0.000    0.000    0.000    2.000 
#    0.000    5.714    0.000    0.000    0.000    0.000 
#
# Total GULP energy -156203.314252 kJ/mol
# GULP energy per Si atom -5578.689795 kJ/mol
# Density = 1.808347 g / cm^3
# Si number density = 18.124722 Si / 1000 Ang^3
#
#
#
# Elastic Constant Matrix: (Units=GPa)
#
#
# Indices 1 2 3 4 5 6 
#
# 1 53.8842 53.9837 11.5959 0.0000 0.0000 0.0000
# 2 53.9837 212.3778 68.9939 -0.0001 0.0000 0.0000
# 3 11.5959 68.9939 99.2105 -0.0002 0.0000 0.0000
# 4 0.0000 -0.0001 -0.0002 3.2013 0.0000 0.0000
# 5 0.0000 0.0000 0.0000 0.0000 22.9106 0.0000
# 6 0.0000 0.0000 0.0000 0.0000 0.0000 24.3415
#
#
#
# Elastic Compliance Matrix: (Units=1/GPa)
#
#
# Indices 1 2 3 4 5 6 
#
# 1 0.025187 -0.007035 0.001949 0.000000 0.000000 0.000000
# 2 -0.007035 0.008048 -0.004774 0.000000 0.000000 0.000000
# 3 0.001949 -0.004774 0.013172 0.000001 0.000000 0.000000
# 4 0.000000 0.000000 0.000001 0.312374 0.000000 0.000000
# 5 0.000000 0.000000 0.000000 0.000000 0.043648 0.000000
# 6 0.000000 0.000000 0.000000 0.000000 0.000000 0.041082
#
#
# Mechanical properties :
#
#
# Convention : Reuss Voigt Hill
#
# Bulk Modulus (GPa) = 37.47419 70.51329 53.99374
# Shear Modulus (GPa) = 10.59032 25.48393 18.03713
#
# Velocity S-wave (km/s) = 2.41986 3.75378 3.15805
# Velocity P-wave (km/s) = 5.34118 7.60110 6.56905
#
# Compressibility (1/GPa) = 0.02668503
#
# Stress axis : x y z
#
# Youngs Moduli (GPa) = 39.70258 124.25543 75.91786
#
# Poissons Ratio (x) = 0.87418 -0.14794
# Poissons Ratio (y) = 0.27932 0.36247
# Poissons Ratio (z) = -0.07737 0.59325
#
# Static dielectric constant tensor:
#      x y z
#    x 1.661240 0.000000 0.000000 
#    y 0.000000 1.614620 0.000000 
#    z 0.000000 0.000000 1.587380 
# 
# From -- ./inp_files/3606.got.cif
#   From: 2010.05.17/outbox.cif.g08.bks.cpg/sg71_2_cif.got.tgz:3606.got - 2010.06.03 16:22:01.
