data_PCOD9520533
_publ_section_title
;
Structure prediction by ZEFSAII (Michael W. Deem and Ramdas Pophale) SiO2 
 PCOD9520533
Probable space group: I M M M
;
_chemical_formula_sum "Si O2"
_cell_formula_units_Z 112
_cell_length_a 35.681047
_cell_length_b 14.730906
_cell_length_c 13.374456
_cell_angle_alpha 90.000000
_cell_angle_beta 90.000000
_cell_angle_gamma 90.000000
_cell_volume 7029.803313
_symmetry_space_group_name_H-M "I M M M"
_symmetry_group_IT_number 71
_symmetry_cell_setting 'orthorhombic'
loop_
_space_group_symop_operation_xyz
x,y,z
-x,-y,z
x,-y,-z
-x,y,-z
-x,-y,-z
x,y,-z
-x,y,z
x,-y,z
1/2+x,1/2+y,1/2+z
1/2-x,1/2-y,1/2+z
1/2+x,1/2-y,1/2-z
1/2-x,1/2+y,1/2-z
1/2-x,1/2-y,1/2-z
1/2+x,1/2+y,1/2-z
1/2-x,1/2+y,1/2+z
1/2+x,1/2-y,1/2+z
loop_
_atom_site_type_symbol
_atom_site_label
_atom_site_fract_x
_atom_site_fract_y
_atom_site_fract_z
Si Si1 0.807012 0.394891 0.117155
Si Si2 0.958033 0.397074 0.378384
Si Si3 0.283379 0.605983 0.115714
Si Si4 0.608045 0.391805 0.615962
Si Si5 0.456413 0.608660 0.228268
Si Si6 0.405357 0.739360 0.117165
Si Si7 0.834798 0.222161 0.241758
O O1 0.817391 0.500000 0.142569
O O2 0.761702 0.389730 0.121931
O O3 0.823062 0.316462 0.189019
O O4 0.817438 0.379603 0.000000
O O5 0.957775 0.395594 0.500000
O O6 0.950918 0.500000 0.347157
O O7 0.927421 0.327184 0.343330
O O8 0.000000 0.370833 0.347372
O O9 0.294503 0.500000 0.130735
O O10 0.301727 0.669526 0.199833
O O11 0.293750 0.630168 0.000000
O O12 0.603449 0.370474 0.500000
O O13 0.613517 0.500000 0.627379
O O14 0.569992 0.368562 0.676548
O O15 0.643953 0.340689 0.660756
O O16 0.500000 0.636926 0.235739
O O17 0.456108 0.500000 0.216621
O O18 0.433710 0.656618 0.139307
O O19 0.366673 0.733510 0.174505
O O20 0.398839 0.746902 0.000000
#
# Coordination Sequence:
#
# PCOD9520533 Si02
#       7
#    16  16  16  16  16  16  16
#     4   9  19  35  53  72  93 121 159 200 240 282
#     4   8  14  26  43  59  77 108 149 185 215 252
#     4   9  18  33  52  73  97 125 158 194 232 281
#     4   9  18  31  46  67  94 121 152 194 243 288
#     4   9  18  31  46  65  89 121 162 200 232 272
#     4  10  20  30  42  65  96 124 150 185 231 279
#     4  11  19  30  49  72  96 124 156 191 234 286
#
# _framework density 15.932167
#
# number of rings (size 3 to 8) (size 9 to 14) (size 15 to 20)
#    0.000    2.714    0.000    3.429    0.000    2.571 
#    0.000    2.143    0.000    1.286    0.000    8.000 
#    0.000    0.000    0.000   26.571    0.000    1.000 
#
# Total GULP energy -311762.750680 kJ/mol
# GULP energy per Si atom -5567.191976 kJ/mol
# Density = 1.589590 g / cm^3
# Si number density = 15.932167 Si / 1000 Ang^3
#
#
#
# Elastic Constant Matrix: (Units=GPa)
#
#
# Indices 1 2 3 4 5 6 
#
# 1 57.9546 31.5331 26.4430 0.0000 0.0000 0.0000
# 2 31.5331 61.2131 37.7864 0.0000 0.0000 0.0000
# 3 26.4430 37.7864 59.9934 0.0000 0.0000 0.0000
# 4 0.0000 0.0000 0.0000 23.7228 0.0000 0.0000
# 5 0.0000 0.0000 0.0000 0.0000 0.3526 0.0000
# 6 0.0000 0.0000 0.0000 0.0000 0.0000 25.4968
#
#
#
# Elastic Compliance Matrix: (Units=1/GPa)
#
#
# Indices 1 2 3 4 5 6 
#
# 1 0.024763 -0.009847 -0.004712 0.000000 0.000000 0.000000
# 2 -0.009847 0.030644 -0.014961 0.000000 0.000000 0.000000
# 3 -0.004712 -0.014961 0.028168 0.000000 0.000000 0.000000
# 4 0.000000 0.000000 0.000000 0.042154 0.000000 0.000000
# 5 0.000000 0.000000 0.000000 0.000000 2.835835 0.000000
# 6 0.000000 0.000000 0.000000 0.000000 0.000000 0.039221
#
#
# Mechanical properties :
#
#
# Convention : Reuss Voigt Hill
#
# Bulk Modulus (GPa) = 40.75843 41.18734 40.97288
# Shear Modulus (GPa) = 1.62972 15.47436 8.55204
#
# Velocity S-wave (km/s) = 1.01249 3.11989 2.31936
# Velocity P-wave (km/s) = 5.19662 6.23587 5.73982
#
# Compressibility (1/GPa) = 0.02453480
#
# Stress axis : x y z
#
# Youngs Moduli (GPa) = 40.38287 32.63257 35.50084
#
# Poissons Ratio (x) = 0.32135 0.16729
# Poissons Ratio (y) = 0.39767 0.53111
# Poissons Ratio (z) = 0.19030 0.48820
#
# Static dielectric constant tensor:
#      x y z
#    x 1.531280 0.000000 0.000000 
#    y 0.000000 1.546360 0.000000 
#    z 0.000000 0.000000 1.527480 
# 
# From -- ./inp_files/30044.got.cif
#   From: 2010.05.17/outbox.cif.g08.bks.cpg/sg71_16_cif.got.tgz:30044.got - 2010.06.03 16:22:01.
