data_PCOD9520234
_publ_section_title
;
Structure prediction by ZEFSAII (Michael W. Deem and Ramdas Pophale) SiO2 
 PCOD9520234
Probable space group: I M M M
;
_chemical_formula_sum "Si O2"
_cell_formula_units_Z 72
_cell_length_a 7.412057
_cell_length_b 18.427951
_cell_length_c 25.368899
_cell_angle_alpha 90.000000
_cell_angle_beta 90.000000
_cell_angle_gamma 90.000000
_cell_volume 3465.113134
_symmetry_space_group_name_H-M "I M M M"
_symmetry_group_IT_number 71
_symmetry_cell_setting 'orthorhombic'
loop_
_space_group_symop_operation_xyz
x,y,z
-x,-y,z
x,-y,-z
-x,y,-z
-x,-y,-z
x,y,-z
-x,y,z
x,-y,z
1/2+x,1/2+y,1/2+z
1/2-x,1/2-y,1/2+z
1/2+x,1/2-y,1/2-z
1/2-x,1/2+y,1/2-z
1/2-x,1/2-y,1/2-z
1/2+x,1/2+y,1/2-z
1/2-x,1/2+y,1/2+z
1/2+x,1/2-y,1/2+z
loop_
_atom_site_type_symbol
_atom_site_label
_atom_site_fract_x
_atom_site_fract_y
_atom_site_fract_z
Si Si1 0.792464 0.846675 0.862611
Si Si2 0.218493 0.582164 0.252228
Si Si3 0.280102 0.182365 0.343570
Si Si4 0.000000 0.586970 0.561673
Si Si5 0.280291 0.916764 0.440399
O O1 0.780207 0.895133 0.810139
O O2 0.726276 0.766030 0.847053
O O3 0.671435 0.880488 0.908068
O O4 0.000000 0.841267 0.879545
O O5 0.274002 0.500000 0.239030
O O6 0.280208 0.639831 0.208562
O O7 0.000000 0.583233 0.252661
O O8 0.500000 0.181362 0.342608
O O9 0.221176 0.138012 0.395229
O O10 0.000000 0.500000 0.567118
O O11 0.000000 0.605229 0.500000
O O12 0.223812 0.897938 0.500000
O O13 0.500000 0.916257 0.440102
O O14 0.226096 0.000000 0.429435
#
# Coordination Sequence:
#
# PCOD9520234 Si02
#       5
#    16  16  16   8  16
#     4  11  23  40  64  92 125 160 200 253 315 368
#     4  10  19  34  58  86 123 167 207 252 305 365
#     4   9  18  31  51  85 122 159 203 250 300 359
#     4  11  26  48  70  92 121 159 206 256 307 370
#     4   8  13  23  42  71 110 153 197 246 296 351
#
# _framework density 20.778542999999999
#
# number of rings (size 3 to 8) (size 9 to 14) (size 15 to 20)
#    0.000    2.333    1.111    2.667    0.000    5.778 
#    2.000    3.333    0.000    0.000    0.000    0.000 
#    0.000    3.556    0.000    0.222    0.000    0.000 
#
# Total GULP energy -201244.138329 kJ/mol
# GULP energy per Si atom -5590.114954 kJ/mol
# Density = 2.073125 g / cm^3
# Si number density = 20.778543 Si / 1000 Ang^3
#
#
#
# Elastic Constant Matrix: (Units=GPa)
#
#
# Indices 1 2 3 4 5 6 
#
# 1 92.1442 33.8216 37.7921 0.0000 0.0000 0.0000
# 2 33.8216 117.1862 70.7265 0.0000 0.0000 0.0000
# 3 37.7921 70.7265 139.0517 0.0000 0.0000 0.0000
# 4 0.0000 0.0000 0.0000 -41.2434 0.0000 0.0000
# 5 0.0000 0.0000 0.0000 0.0000 -24.5577 0.0000
# 6 0.0000 0.0000 0.0000 0.0000 0.0000 12.3820
#
#
#
# Elastic Compliance Matrix: (Units=1/GPa)
#
#
# Indices 1 2 3 4 5 6 
#
# 1 0.012619 -0.002268 -0.002276 0.000000 0.000000 0.000000
# 2 -0.002268 0.012721 -0.005854 0.000000 0.000000 0.000000
# 3 -0.002276 -0.005854 0.010788 0.000000 0.000000 0.000000
# 4 0.000000 0.000000 0.000000 -0.024246 0.000000 0.000000
# 5 0.000000 0.000000 0.000000 0.000000 -0.040720 0.000000
# 6 0.000000 0.000000 0.000000 0.000000 0.000000 0.080762
#
#
# Mechanical properties :
#
#
# Convention : Reuss Voigt Hill
#
# Bulk Modulus (GPa) = 65.22642 70.34028 67.78335
# Shear Modulus (GPa) = 64.24292 3.05230 33.64761
#
# Velocity S-wave (km/s) = 5.56642 1.21332 4.02847
# Velocity P-wave (km/s) = 8.53070 5.99072 7.37094
#
# Compressibility (1/GPa) = 0.01533121
#
# Stress axis : x y z
#
# Youngs Moduli (GPa) = 79.24846 78.60899 92.69906
#
# Poissons Ratio (x) = 0.17832 0.21096
# Poissons Ratio (y) = 0.17977 0.54265
# Poissons Ratio (z) = 0.18035 0.46017
#
# Static dielectric constant tensor:
#      x y z
#    x 1.828490 0.000000 0.000000 
#    y 0.000000 1.715390 0.000000 
#    z 0.000000 0.000000 1.689100 
# 
# From -- ./inp_files/7883.got.cif
#   From: 2010.05.17/outbox.cif.g08.bks.cpg/sg71_4_cif.got.tgz:7883.got - 2010.06.03 16:22:01.
