data_PCOD9520775
_publ_section_title
;
Structure prediction by ZEFSAII (Michael W. Deem and Ramdas Pophale) SiO2 
 PCOD9520775
Probable space group: I M M M
;
_chemical_formula_sum "Si O2"
_cell_formula_units_Z 88
_cell_length_a 7.371474
_cell_length_b 25.816471
_cell_length_c 21.137151
_cell_angle_alpha 90.000000
_cell_angle_beta 90.000000
_cell_angle_gamma 90.000000
_cell_volume 4022.514922
_symmetry_space_group_name_H-M "I M M M"
_symmetry_group_IT_number 71
_symmetry_cell_setting 'orthorhombic'
loop_
_space_group_symop_operation_xyz
x,y,z
-x,-y,z
x,-y,-z
-x,y,-z
-x,-y,-z
x,y,-z
-x,y,z
x,-y,z
1/2+x,1/2+y,1/2+z
1/2-x,1/2-y,1/2+z
1/2+x,1/2-y,1/2-z
1/2-x,1/2+y,1/2-z
1/2-x,1/2-y,1/2-z
1/2+x,1/2+y,1/2-z
1/2-x,1/2+y,1/2+z
1/2+x,1/2-y,1/2+z
loop_
_atom_site_type_symbol
_atom_site_label
_atom_site_fract_x
_atom_site_fract_y
_atom_site_fract_z
Si Si1 0.221171 0.000000 0.574889
Si Si2 0.282790 0.291820 0.806485
Si Si3 0.221337 0.088112 0.675709
Si Si4 0.781124 0.942935 0.186482
Si Si5 0.281015 0.761744 0.932405
Si Si6 0.712855 0.616845 0.568110
O O1 0.276591 0.051570 0.615989
O O2 0.276594 0.000000 0.500000
O O3 0.000000 0.000000 0.574435
O O4 0.500000 0.295828 0.807710
O O5 0.250000 0.250000 0.750000
O O6 0.220772 0.351880 0.812025
O O7 0.212908 0.266011 0.870567
O O8 0.279971 0.062101 0.741605
O O9 0.000000 0.088563 0.672030
O O10 0.710101 0.903980 0.133707
O O11 0.000000 0.936218 0.190659
O O12 0.742948 0.000000 0.162156
O O13 0.500000 0.759600 0.930947
O O14 0.227537 0.821490 0.930595
O O15 0.221827 0.739434 0.000000
O O16 0.789148 0.599313 0.500000
O O17 0.500000 0.602646 0.567532
#
# Coordination Sequence:
#
# PCOD9520775 Si02
#       6
#     8  16  16  16  16  16
#     4   9  16  26  42  66  96 128 162 203 251 301
#     4  10  20  32  49  73 100 130 164 203 245 294
#     4   9  16  27  42  63  92 123 155 193 243 292
#     4   9  15  24  40  60  86 116 143 180 229 275
#     4   9  18  32  47  64  91 126 158 188 230 281
#     4   9  17  28  44  67  91 117 152 191 226 265
#
# _framework density 21.876859
#
# number of rings (size 3 to 8) (size 9 to 14) (size 15 to 20)
#    0.000    2.818    0.909    1.091    0.000    3.273 
#    0.000    5.455    0.000    0.545    0.000    3.182 
#    0.000    0.727    0.000    0.000    0.000    0.000 
#
# Total GULP energy -244980.049054 kJ/mol
# GULP energy per Si atom -5567.728388 kJ/mol
# Density = 2.182707 g / cm^3
# Si number density = 21.876859 Si / 1000 Ang^3
#
#
#
# Elastic Constant Matrix: (Units=GPa)
#
#
# Indices 1 2 3 4 5 6 
#
# 1 77.8892 -0.7925 7.4299 0.0000 0.0000 0.0000
# 2 -0.7925 118.5244 100.2519 0.0000 0.0000 0.0000
# 3 7.4299 100.2519 176.4268 0.0000 0.0000 0.0000
# 4 0.0000 0.0000 0.0000 49.4160 0.0000 0.0000
# 5 0.0000 0.0000 0.0000 0.0000 -0.7449 0.0000
# 6 0.0000 0.0000 0.0000 0.0000 0.0000 -1.9332
#
#
#
# Elastic Compliance Matrix: (Units=1/GPa)
#
#
# Indices 1 2 3 4 5 6 
#
# 1 0.012959 0.001056 -0.001146 0.000000 0.000000 0.000000
# 2 0.001056 0.016331 -0.009324 0.000000 0.000000 0.000000
# 3 -0.001146 -0.009324 0.011015 0.000000 0.000000 0.000000
# 4 0.000000 0.000000 0.000000 0.020236 0.000000 0.000000
# 5 0.000000 0.000000 0.000000 0.000000 -1.342540 -0.000010
# 6 0.000000 0.000000 0.000000 0.000000 -0.000010 -0.517279
#
#
# Mechanical properties :
#
#
# Convention : Reuss Voigt Hill
#
# Bulk Modulus (GPa) = 46.56376 65.17990 55.87183
# Shear Modulus (GPa) = -2.81962 27.07765 12.12902
#
# Velocity S-wave (km/s) = -1.13651 3.52196 2.35717
# Velocity P-wave (km/s) = 4.42815 6.81158 5.74483
#
# Compressibility (1/GPa) = 0.02147593
#
# Stress axis : x y z
#
# Youngs Moduli (GPa) = 77.16781 61.23364 90.78793
#
# Poissons Ratio (x) = -0.06464 0.10400
# Poissons Ratio (y) = -0.08146 0.84653
# Poissons Ratio (z) = 0.08840 0.57096
#
# Static dielectric constant tensor:
#      x y z
#    x 1.862670 0.000000 0.000000 
#    y 0.000000 1.802140 0.000000 
#    z 0.000000 0.000000 1.815450 
# 
# From -- ./inp_files/12540.got.cif
#   From: 2010.05.17/outbox.cif.g08.bks.cpg/sg71_7_cif.got.tgz:12540.got - 2010.06.03 16:22:01.
