data_PCOD9520570
_publ_section_title
;
Structure prediction by ZEFSAII (Michael W. Deem and Ramdas Pophale) SiO2 
 PCOD9520570
Probable space group: I M M M
;
_chemical_formula_sum "Si O2"
_cell_formula_units_Z 88
_cell_length_a 20.333180
_cell_length_b 8.166247
_cell_length_c 31.776430
_cell_angle_alpha 90.000000
_cell_angle_beta 90.000000
_cell_angle_gamma 90.000000
_cell_volume 5276.341793
_symmetry_space_group_name_H-M "I M M M"
_symmetry_group_IT_number 71
_symmetry_cell_setting 'orthorhombic'
loop_
_space_group_symop_operation_xyz
x,y,z
-x,-y,z
x,-y,-z
-x,y,-z
-x,-y,-z
x,y,-z
-x,y,z
x,-y,z
1/2+x,1/2+y,1/2+z
1/2-x,1/2-y,1/2+z
1/2+x,1/2-y,1/2-z
1/2-x,1/2+y,1/2-z
1/2-x,1/2-y,1/2-z
1/2+x,1/2+y,1/2-z
1/2-x,1/2+y,1/2+z
1/2+x,1/2-y,1/2+z
loop_
_atom_site_type_symbol
_atom_site_label
_atom_site_fract_x
_atom_site_fract_y
_atom_site_fract_z
Si Si1 0.644695 0.696861 0.547790
Si Si2 0.427214 0.305090 0.236457
Si Si3 0.794798 0.190498 0.870287
Si Si4 0.500000 0.186352 0.551013
Si Si5 0.926187 0.691797 0.831760
Si Si6 0.211458 0.303481 0.707672
O O1 0.653792 0.759243 0.500000
O O2 0.650582 0.500000 0.546519
O O3 0.695429 0.761703 0.582865
O O4 0.569833 0.734748 0.561969
O O5 0.500000 0.269748 0.218357
O O6 0.423386 0.500000 0.244168
O O7 0.423391 0.216069 0.281489
O O8 0.363879 0.252362 0.210361
O O9 0.867732 0.203894 0.850866
O O10 0.747118 0.262007 0.834526
O O11 0.776492 0.000000 0.875132
O O12 0.500000 0.187517 0.500000
O O13 0.500000 0.000000 0.566040
O O14 0.915998 0.500000 0.841494
O O15 0.000000 0.739207 0.845345
O O16 0.214413 0.500000 0.706975
O O17 0.250000 0.250000 0.750000
#
# Coordination Sequence:
#
# PCOD9520570 Si02
#       6
#    16  16  16   8  16  16
#     4   9  18  33  49  64  85 117 157 195 234 281
#     4  10  20  34  51  69  92 124 159 195 235 277
#     4  10  21  33  47  67  90 122 157 195 238 279
#     4   9  17  29  45  65  89 117 151 197 245 277
#     4  10  20  31  44  65  91 122 161 199 234 276
#     4  11  21  33  49  70  97 126 158 193 233 279
#
# _framework density 16.678222000000002
#
# number of rings (size 3 to 8) (size 9 to 14) (size 15 to 20)
#    0.000    2.091    1.818    1.909    1.273    4.727 
#    0.000    0.000    0.000    0.000    0.000    0.000 
#    0.000    0.727    0.000    9.091    0.000    1.455 
#
# Total GULP energy -245371.346380 kJ/mol
# GULP energy per Si atom -5576.621509 kJ/mol
# Density = 1.664026 g / cm^3
# Si number density = 16.678222 Si / 1000 Ang^3
#
#
#
# Elastic Constant Matrix: (Units=GPa)
#
#
# Indices 1 2 3 4 5 6 
#
# 1 91.9736 6.1419 58.4369 0.0000 0.0000 0.0000
# 2 6.1419 25.0787 4.3993 0.0000 0.0000 0.0000
# 3 58.4369 4.3993 107.6247 0.0000 0.0000 0.0000
# 4 0.0000 0.0000 0.0000 10.4442 0.0000 0.0000
# 5 0.0000 0.0000 0.0000 0.0000 32.0849 0.0000
# 6 0.0000 0.0000 0.0000 0.0000 0.0000 19.3032
#
#
#
# Elastic Compliance Matrix: (Units=1/GPa)
#
#
# Indices 1 2 3 4 5 6 
#
# 1 0.016756 -0.002526 -0.008995 0.000000 0.000000 0.000000
# 2 -0.002526 0.040543 -0.000286 0.000000 0.000000 0.000000
# 3 -0.008995 -0.000286 0.014187 0.000000 0.000000 0.000000
# 4 0.000000 0.000000 0.000000 0.095747 0.000000 0.000000
# 5 0.000000 0.000000 0.000000 0.000000 0.031167 0.000000
# 6 0.000000 0.000000 0.000000 0.000000 0.000000 0.051805
#
#
# Mechanical properties :
#
#
# Convention : Reuss Voigt Hill
#
# Bulk Modulus (GPa) = 20.88834 40.29257 30.59045
# Shear Modulus (GPa) = 17.25465 22.74639 20.00052
#
# Velocity S-wave (km/s) = 3.21995 3.69702 3.46670
# Velocity P-wave (km/s) = 5.13572 6.51423 5.86561
#
# Compressibility (1/GPa) = 0.04787360
#
# Stress axis : x y z
#
# Youngs Moduli (GPa) = 59.67842 24.66508 70.48587
#
# Poissons Ratio (x) = 0.06230 0.63402
# Poissons Ratio (y) = 0.15074 0.02014
# Poissons Ratio (z) = 0.53681 0.00705
#
# Static dielectric constant tensor:
#      x y z
#    x 1.560680 0.000000 0.000000 
#    y 0.000000 1.597100 0.000000 
#    z 0.000000 0.000000 1.622910 
# 
# From -- ./inp_files/11346.got.cif
#   From: 2010.05.17/outbox.cif.g08.bks.cpg/sg71_6_cif.got.tgz:11346.got - 2010.06.03 16:22:01.
