data_PCOD9520875
_publ_section_title
;
Structure prediction by ZEFSAII (Michael W. Deem and Ramdas Pophale) SiO2 
 PCOD9520875
Probable space group: I M M M
;
_chemical_formula_sum "Si O2"
_cell_formula_units_Z 72
_cell_length_a 23.008511
_cell_length_b 20.071834
_cell_length_c 7.416427
_cell_angle_alpha 90.000000
_cell_angle_beta 90.000000
_cell_angle_gamma 90.000000
_cell_volume 3425.076666
_symmetry_space_group_name_H-M "I M M M"
_symmetry_group_IT_number 71
_symmetry_cell_setting 'orthorhombic'
loop_
_space_group_symop_operation_xyz
x,y,z
-x,-y,z
x,-y,-z
-x,y,-z
-x,-y,-z
x,y,-z
-x,y,z
x,-y,z
1/2+x,1/2+y,1/2+z
1/2-x,1/2-y,1/2+z
1/2+x,1/2-y,1/2-z
1/2-x,1/2+y,1/2-z
1/2-x,1/2-y,1/2-z
1/2+x,1/2+y,1/2-z
1/2-x,1/2+y,1/2+z
1/2+x,1/2-y,1/2+z
loop_
_atom_site_type_symbol
_atom_site_label
_atom_site_fract_x
_atom_site_fract_y
_atom_site_fract_z
Si Si1 0.353360 0.925163 0.783509
Si Si2 0.278101 0.576467 0.719667
Si Si3 0.500000 0.423543 0.280359
Si Si4 0.887149 0.160993 0.220378
Si Si5 0.934236 0.300714 0.213972
O O1 0.287779 0.908468 0.721264
O O2 0.399419 0.868770 0.738754
O O3 0.368057 0.000000 0.719516
O O4 0.350799 0.928164 0.000000
O O5 0.278245 0.577669 0.500000
O O6 0.291764 0.500000 0.771245
O O7 0.327272 0.627422 0.781451
O O8 0.500000 0.500000 0.220598
O O9 0.500000 0.424058 0.500000
O O10 0.442198 0.384103 0.225725
O O11 0.899262 0.236241 0.282232
O O12 0.885577 0.160665 0.000000
O O13 0.000000 0.303265 0.286565
O O14 0.939284 0.290358 0.000000
#
# Coordination Sequence:
#
# PCOD9520875 Si02
#       5
#    16  16   8  16  16
#     4   9  19  35  52  70  92 120 159 204 242 278
#     4   8  14  26  45  68  94 124 157 194 235 277
#     4   9  14  20  36  64  96 129 160 186 219 271
#     4   9  15  25  41  65  98 130 155 185 230 280
#     4  10  20  33  48  69 100 130 154 190 239 285
#
# _framework density 21.021426999999999
#
# number of rings (size 3 to 8) (size 9 to 14) (size 15 to 20)
#    0.000    3.000    1.111    2.000    0.000    4.889 
#    0.000    2.222    0.000    0.000    0.000    0.000 
#    0.000    3.556    0.000    0.000    0.000    0.222 
#
# Total GULP energy -200939.496429 kJ/mol
# GULP energy per Si atom -5581.652679 kJ/mol
# Density = 2.097358 g / cm^3
# Si number density = 21.021427 Si / 1000 Ang^3
#
#
#
# Elastic Constant Matrix: (Units=GPa)
#
#
# Indices 1 2 3 4 5 6 
#
# 1 144.9259 117.9055 2.7842 0.0000 0.0000 0.0000
# 2 117.9055 179.3022 0.6594 0.0000 0.0000 0.0000
# 3 2.7842 0.6594 65.9354 0.0000 0.0000 0.0000
# 4 0.0000 0.0000 0.0000 2.4241 0.0000 0.0000
# 5 0.0000 0.0000 0.0000 0.0000 -1.7095 0.0000
# 6 0.0000 0.0000 0.0000 0.0000 0.0000 5.2893
#
#
#
# Elastic Compliance Matrix: (Units=1/GPa)
#
#
# Indices 1 2 3 4 5 6 
#
# 1 0.014857 -0.009767 -0.000530 0.000000 0.000000 0.000000
# 2 -0.009767 0.011999 0.000292 0.000000 0.000000 0.000000
# 3 -0.000530 0.000292 0.015186 0.000000 0.000000 0.000000
# 4 0.000000 0.000000 0.000000 0.412524 0.000000 0.000000
# 5 0.000000 0.000000 0.000000 0.000000 -0.584959 0.000000
# 6 0.000000 0.000000 0.000000 0.000000 0.000000 0.189063
#
#
# Mechanical properties :
#
#
# Convention : Reuss Voigt Hill
#
# Bulk Modulus (GPa) = 45.38838 70.31793 57.85315
# Shear Modulus (GPa) = 58.12413 19.12173 38.62293
#
# Velocity S-wave (km/s) = 5.26403 3.01928 4.29104
# Velocity P-wave (km/s) = 7.65408 6.75855 7.22021
#
# Compressibility (1/GPa) = 0.02203207
#
# Stress axis : x y z
#
# Youngs Moduli (GPa) = 67.30983 83.34023 65.85098
#
# Poissons Ratio (x) = 0.81403 0.03488
# Poissons Ratio (y) = 0.65745 -0.01926
# Poissons Ratio (z) = 0.03565 -0.02437
#
# Static dielectric constant tensor:
#      x y z
#    x 1.723050 0.000000 0.000000 
#    y 0.000000 1.726600 0.000000 
#    z 0.000000 0.000000 1.859620 
# 
# From -- ./inp_files/7983.got.cif
#   From: 2010.05.17/outbox.cif.g08.bks.cpg/sg71_4_cif.got.tgz:7983.got - 2010.06.03 16:22:01.
