data_PCOD9520826
_publ_section_title
;
Structure prediction by ZEFSAII (Michael W. Deem and Ramdas Pophale) SiO2 
 PCOD9520826
Probable space group: I M M M
;
_chemical_formula_sum "Si O2"
_cell_formula_units_Z 72
_cell_length_a 14.617532
_cell_length_b 25.530569
_cell_length_c 10.404804
_cell_angle_alpha 90.000000
_cell_angle_beta 90.000000
_cell_angle_gamma 90.000000
_cell_volume 3883.009481
_symmetry_space_group_name_H-M "I M M M"
_symmetry_group_IT_number 71
_symmetry_cell_setting 'orthorhombic'
loop_
_space_group_symop_operation_xyz
x,y,z
-x,-y,z
x,-y,-z
-x,y,-z
-x,-y,-z
x,y,-z
-x,y,z
x,-y,z
1/2+x,1/2+y,1/2+z
1/2-x,1/2-y,1/2+z
1/2+x,1/2-y,1/2-z
1/2-x,1/2+y,1/2-z
1/2-x,1/2-y,1/2-z
1/2+x,1/2+y,1/2-z
1/2-x,1/2+y,1/2+z
1/2+x,1/2-y,1/2+z
loop_
_atom_site_type_symbol
_atom_site_label
_atom_site_fract_x
_atom_site_fract_y
_atom_site_fract_z
Si Si1 0.395332 0.652748 0.232616
Si Si2 0.868766 0.209505 0.000000
Si Si3 0.106027 0.666830 0.000000
Si Si4 0.200558 0.391891 0.235604
Si Si5 0.103613 0.223917 0.500000
Si Si6 0.108757 0.500000 0.155295
Si Si7 0.830902 0.333980 0.500000
O O1 0.500000 0.633811 0.205659
O O2 0.399865 0.680522 0.371026
O O3 0.311734 0.611340 0.232103
O O4 0.361312 0.696795 0.129971
O O5 0.892866 0.270307 0.000000
O O6 0.760573 0.201320 0.000000
O O7 0.157568 0.644599 0.875460
O O8 0.000000 0.648737 0.000000
O O9 0.158976 0.448845 0.210162
O O10 0.169525 0.368910 0.372921
O O11 0.099730 0.286206 0.500000
O O12 0.000000 0.205717 0.500000
O O13 0.000000 0.500000 0.185426
O O14 0.117014 0.500000 0.000000
#
# Coordination Sequence:
#
# PCOD9520826 Si02
#       7
#    16   8   8  16   8   8   8
#     4  10  20  36  57  85 120 157 189 227 280 338
#     4  10  20  34  56  85 121 158 194 229 270 335
#     4  12  22  35  58  87 115 156 203 235 272 335
#     4  11  23  39  61  84 114 150 194 243 287 336
#     4  10  20  32  50  81 124 159 187 230 284 336
#     4  11  24  45  66  84 107 142 191 245 293 333
#     4  10  22  37  55  87 120 153 189 232 288 340
#
# _framework density 18.542318999999999
#
# number of rings (size 3 to 8) (size 9 to 14) (size 15 to 20)
#    0.000    1.444    1.111    5.000    0.000    7.556 
#    0.000    1.111    0.000    0.667    0.000    4.667 
#    0.000    0.000    0.000    0.000    0.000    0.000 
#
# Total GULP energy -200723.207103 kJ/mol
# GULP energy per Si atom -5575.644642 kJ/mol
# Density = 1.850012 g / cm^3
# Si number density = 18.542319 Si / 1000 Ang^3
#
#
#
# Elastic Constant Matrix: (Units=GPa)
#
#
# Indices 1 2 3 4 5 6 
#
# 1 143.0668 71.6228 54.8571 -0.0001 -0.0001 -0.0006
# 2 71.6228 118.2592 46.2016 0.0001 0.0000 -0.0002
# 3 54.8571 46.2016 139.6248 -0.0003 -0.0001 -0.0016
# 4 -0.0001 0.0001 -0.0003 30.9269 -0.0001 -0.0029
# 5 -0.0001 0.0000 -0.0001 -0.0001 13.1890 -0.0009
# 6 -0.0006 -0.0002 -0.0016 -0.0029 -0.0009 201.6462
#
#
#
# Elastic Compliance Matrix: (Units=1/GPa)
#
#
# Indices 1 2 3 4 5 6 
#
# 1 0.010667 -0.005539 -0.002358 0.000000 0.000000 0.000000
# 2 -0.005539 0.012588 -0.001989 0.000000 0.000000 0.000000
# 3 -0.002358 -0.001989 0.008747 0.000000 0.000000 0.000000
# 4 0.000000 0.000000 0.000000 0.032334 0.000000 0.000000
# 5 0.000000 0.000000 0.000000 0.000000 0.075821 0.000000
# 6 0.000000 0.000000 0.000000 0.000000 0.000000 0.004959
#
#
# Mechanical properties :
#
#
# Convention : Reuss Voigt Hill
#
# Bulk Modulus (GPa) = 81.77253 82.92375 82.34814
# Shear Modulus (GPa) = 29.59203 64.37038 46.98121
#
# Velocity S-wave (km/s) = 3.99923 5.89837 5.03908
# Velocity P-wave (km/s) = 8.09452 9.55019 8.85233
#
# Compressibility (1/GPa) = 0.01222905
#
# Stress axis : x y z
#
# Youngs Moduli (GPa) = 93.74786 79.44208 114.32933
#
# Poissons Ratio (x) = 0.44004 0.26959
# Poissons Ratio (y) = 0.51928 0.22740
# Poissons Ratio (z) = 0.22106 0.15801
#
# Static dielectric constant tensor:
#      x y z
#    x 1.844040 0.000000 -0.000010 
#    y 0.000000 1.595540 0.000000 
#    z -0.000010 0.000000 1.571500 
# 
# From -- ./inp_files/6250.got.cif
#   From: 2010.05.17/outbox.cif.g08.bks.cpg/sg71_4_cif.got.tgz:6250.got - 2010.06.03 16:22:01.
