data_PCOD9520389
_publ_section_title
;
Structure prediction by ZEFSAII (Michael W. Deem and Ramdas Pophale) SiO2 
 PCOD9520389
Probable space group: I M M M
;
_chemical_formula_sum "Si O2"
_cell_formula_units_Z 90
_cell_length_a 27.027839
_cell_length_b 20.248507
_cell_length_c 8.737245
_cell_angle_alpha 90.000000
_cell_angle_beta 90.000000
_cell_angle_gamma 90.000000
_cell_volume 4781.661666
_symmetry_space_group_name_H-M "I M M M"
_symmetry_group_IT_number 71
_symmetry_cell_setting 'orthorhombic'
loop_
_space_group_symop_operation_xyz
x,y,z
-x,-y,z
x,-y,-z
-x,y,-z
-x,-y,-z
x,y,-z
-x,y,z
x,-y,z
1/2+x,1/2+y,1/2+z
1/2-x,1/2-y,1/2+z
1/2+x,1/2-y,1/2-z
1/2-x,1/2+y,1/2-z
1/2-x,1/2-y,1/2-z
1/2+x,1/2+y,1/2-z
1/2-x,1/2+y,1/2+z
1/2+x,1/2-y,1/2+z
loop_
_atom_site_type_symbol
_atom_site_label
_atom_site_fract_x
_atom_site_fract_y
_atom_site_fract_z
Si Si1 0.688672 0.000000 0.318798
Si Si2 0.764451 0.636993 0.813855
Si Si3 0.500000 0.500000 0.000000
Si Si4 0.571345 0.000000 0.680461
Si Si5 0.395361 0.500000 0.831345
Si Si6 0.053553 0.358704 0.317488
Si Si7 0.856415 0.276284 0.184169
Si Si8 0.653957 0.628893 0.316421
O O1 0.710782 0.068225 0.260512
O O2 0.630359 0.000000 0.301210
O O3 0.699344 0.000000 0.500000
O O4 0.802468 0.695445 0.766690
O O5 0.710020 0.634681 0.744483
O O6 0.761096 0.638749 0.000000
O O7 0.454437 0.500000 0.868360
O O8 0.553329 0.933501 0.758419
O O9 0.559724 0.000000 0.500000
O O10 0.375809 0.566266 0.749041
O O11 0.370864 0.500000 0.000000
O O12 0.058068 0.357975 0.500000
O O13 0.100161 0.322208 0.245558
O O14 0.000000 0.328416 0.275548
O O15 0.867246 0.200793 0.228686
O O16 0.856325 0.279993 0.000000
O O17 0.654602 0.623883 0.500000
#
# Coordination Sequence:
#
# PCOD9520389 Si02
#       8
#     8  16   2   8   8  16  16  16
#     4   9  17  31  55  83 113 156 204 244 280 333
#     4  10  19  35  59  89 127 170 208 245 296 363
#     4   8  24  48  78  96 112 156 214 270 306 396
#     4  11  20  37  62  82 113 158 204 252 299 350
#     4  10  22  46  71  93 117 156 208 252 312 383
#     4  11  24  40  57  85 120 159 208 264 308 352
#     4  10  22  40  60  87 126 165 208 251 305 373
#     4  11  23  39  63  98 130 157 193 255 315 376
#
# _framework density 18.821909000000002
#
# number of rings (size 3 to 8) (size 9 to 14) (size 15 to 20)
#    0.267    1.422    1.778    2.933    0.000    5.333 
#    1.600    0.889    0.000    0.000    0.000    0.000 
#    0.000    0.000    0.000    0.000    0.000    0.000 
#
# Total GULP energy -250738.761039 kJ/mol
# GULP energy per Si atom -5571.972468 kJ/mol
# Density = 1.877907 g / cm^3
# Si number density = 18.821909 Si / 1000 Ang^3
#
#
#
# Elastic Constant Matrix: (Units=GPa)
#
#
# Indices 1 2 3 4 5 6 
#
# 1 121.5921 76.5685 28.1654 0.0000 0.0000 0.0000
# 2 76.5685 147.5876 37.5800 0.0000 0.0000 0.0000
# 3 28.1654 37.5800 25.7400 0.0000 0.0000 0.0000
# 4 0.0000 0.0000 0.0000 9.0854 0.0000 0.0000
# 5 0.0000 0.0000 0.0000 0.0000 28.7991 0.0000
# 6 0.0000 0.0000 0.0000 0.0000 0.0000 15.9909
#
#
#
# Elastic Compliance Matrix: (Units=1/GPa)
#
#
# Indices 1 2 3 4 5 6 
#
# 1 0.012950 -0.004951 -0.006942 0.000000 0.000000 0.000000
# 2 -0.004951 0.012678 -0.013092 0.000000 0.000000 0.000000
# 3 -0.006942 -0.013092 0.065560 0.000000 0.000000 0.000000
# 4 0.000000 0.000000 0.000000 0.110066 0.000000 0.000000
# 5 0.000000 0.000000 0.000000 0.000000 0.034723 0.000000
# 6 0.000000 0.000000 0.000000 0.000000 0.000000 0.062535
#
#
# Mechanical properties :
#
#
# Convention : Reuss Voigt Hill
#
# Bulk Modulus (GPa) = 24.26111 64.39419 44.32765
# Shear Modulus (GPa) = 13.80370 20.94880 17.37625
#
# Velocity S-wave (km/s) = 2.71105 3.33979 3.04171
# Velocity P-wave (km/s) = 4.76629 7.01134 5.99485
#
# Compressibility (1/GPa) = 0.04121824
#
# Stress axis : x y z
#
# Youngs Moduli (GPa) = 77.22120 78.87886 15.25315
#
# Poissons Ratio (x) = 0.39051 0.10589
# Poissons Ratio (y) = 0.38230 0.19969
# Poissons Ratio (z) = 0.53607 1.03268
#
# Static dielectric constant tensor:
#      x y z
#    x 1.647420 0.000000 0.000000 
#    y 0.000000 1.666400 0.000000 
#    z 0.000000 0.000000 1.638600 
# 
# From -- ./inp_files/12671.got.cif
#   From: 2010.05.17/outbox.cif.g08.bks.cpg/sg71_7_cif.got.tgz:12671.got - 2010.06.03 16:22:01.
