data_PCOD9520424
_publ_section_title
;
Structure prediction by ZEFSAII (Michael W. Deem and Ramdas Pophale) SiO2 
 PCOD9520424
Probable space group: I M M M
;
_chemical_formula_sum "Si O2"
_cell_formula_units_Z 120
_cell_length_a 20.048088
_cell_length_b 14.807704
_cell_length_c 20.134926
_cell_angle_alpha 90.000000
_cell_angle_beta 90.000000
_cell_angle_gamma 90.000000
_cell_volume 5977.378020
_symmetry_space_group_name_H-M "I M M M"
_symmetry_group_IT_number 71
_symmetry_cell_setting 'orthorhombic'
loop_
_space_group_symop_operation_xyz
x,y,z
-x,-y,z
x,-y,-z
-x,y,-z
-x,-y,-z
x,y,-z
-x,y,z
x,-y,z
1/2+x,1/2+y,1/2+z
1/2-x,1/2-y,1/2+z
1/2+x,1/2-y,1/2-z
1/2-x,1/2+y,1/2-z
1/2-x,1/2-y,1/2-z
1/2+x,1/2+y,1/2-z
1/2-x,1/2+y,1/2+z
1/2+x,1/2-y,1/2+z
loop_
_atom_site_type_symbol
_atom_site_label
_atom_site_fract_x
_atom_site_fract_y
_atom_site_fract_z
Si Si1 0.099982 0.396221 0.272496
Si Si2 0.743386 0.167198 0.804093
Si Si3 0.381915 0.599359 0.274225
Si Si4 0.418876 0.097248 0.000000
Si Si5 0.337755 0.600696 0.880238
Si Si6 0.575858 0.233433 0.891839
Si Si7 0.425241 0.221765 0.649032
Si Si8 0.781486 0.710416 0.920289
O O1 0.078786 0.500000 0.286691
O O2 0.179130 0.387809 0.282883
O O3 0.075680 0.313927 0.319757
O O4 0.080788 0.362893 0.199296
O O5 0.750000 0.250000 0.750000
O O6 0.808002 0.105669 0.803608
O O7 0.743901 0.212831 0.876519
O O8 0.412266 0.500000 0.285749
O O9 0.364880 0.607662 0.195842
O O10 0.418009 0.685552 0.306999
O O11 0.399772 0.151240 0.935993
O O12 0.500000 0.091565 0.000000
O O13 0.388825 0.000000 0.000000
O O14 0.351876 0.500000 0.903771
O O15 0.379876 0.681436 0.910653
O O16 0.259936 0.623242 0.893242
O O17 0.500000 0.257282 0.907783
O O18 0.500000 0.221872 0.618989
O O19 0.359401 0.215352 0.602265
O O20 0.775809 0.717117 0.000000
#
# Coordination Sequence:
#
# PCOD9520424 Si02
#       8
#    16  16  16   8  16  16  16  16
#     4  12  22  35  61  92 123 161 206 262 325 378
#     4  11  17  38  62  88 121 158 203 263 323 373
#     4  10  19  35  62  92 121 157 204 259 323 388
#     4   9  20  38  57  77 113 171 217 246 300 378
#     4  11  22  38  63  93 127 167 210 259 319 382
#     4  11  22  38  57  86 128 164 205 262 316 383
#     4  11  23  41  62  92 130 165 213 270 322 379
#     4  11  23  41  65  92 126 170 217 262 314 381
#
# _framework density 20.075692
#
# number of rings (size 3 to 8) (size 9 to 14) (size 15 to 20)
#    0.000    1.133    6.667    1.200    0.933    4.267 
#    0.000    1.333    0.000   10.800    0.000    5.600 
#    0.000    0.000    0.000    0.000    0.000    0.000 
#
# Total GULP energy -334257.427562 kJ/mol
# GULP energy per Si atom -5570.957126 kJ/mol
# Density = 2.003000 g / cm^3
# Si number density = 20.075692 Si / 1000 Ang^3
#
#
#
# Elastic Constant Matrix: (Units=GPa)
#
#
# Indices 1 2 3 4 5 6 
#
# 1 113.6860 39.6391 3.0904 0.0000 0.0000 0.0000
# 2 39.6391 139.8585 23.7083 0.0000 0.0000 0.0000
# 3 3.0904 23.7083 71.6316 0.0000 0.0000 0.0000
# 4 0.0000 0.0000 0.0000 9.9735 0.0000 0.0000
# 5 0.0000 0.0000 0.0000 0.0000 16.9576 0.0000
# 6 0.0000 0.0000 0.0000 0.0000 0.0000 7.7526
#
#
#
# Elastic Compliance Matrix: (Units=1/GPa)
#
#
# Indices 1 2 3 4 5 6 
#
# 1 0.009779 -0.002861 0.000525 0.000000 0.000000 0.000000
# 2 -0.002861 0.008412 -0.002661 0.000000 0.000000 0.000000
# 3 0.000525 -0.002661 0.014818 0.000000 0.000000 0.000000
# 4 0.000000 0.000000 0.000000 0.100266 0.000000 0.000000
# 5 0.000000 0.000000 0.000000 0.000000 0.058971 0.000000
# 6 0.000000 0.000000 0.000000 0.000000 0.000000 0.128988
#
#
# Mechanical properties :
#
#
# Convention : Reuss Voigt Hill
#
# Bulk Modulus (GPa) = 43.44694 50.89461 47.17078
# Shear Modulus (GPa) = 14.75365 24.18597 19.46981
#
# Velocity S-wave (km/s) = 2.71385 3.47470 3.11757
# Velocity P-wave (km/s) = 5.61324 6.44240 6.04206
#
# Compressibility (1/GPa) = 0.02301658
#
# Stress axis : x y z
#
# Youngs Moduli (GPa) = 102.25665 118.87933 67.48411
#
# Poissons Ratio (x) = 0.34007 -0.03542
# Poissons Ratio (y) = 0.29252 0.17956
# Poissons Ratio (z) = -0.05367 0.31630
#
# Static dielectric constant tensor:
#      x y z
#    x 1.766590 0.000000 0.000000 
#    y 0.000000 1.762860 0.000000 
#    z 0.000000 0.000000 2.354420 
# 
# From -- ./inp_files/55132.got.cif
#   From: 2010.05.17/outbox.cif.g08.bks.cpg/sg71_28_cif.got.tgz:55132.got - 2010.06.03 16:22:01.
