data_PCOD9520152
_publ_section_title
;
Structure prediction by ZEFSAII (Michael W. Deem and Ramdas Pophale) SiO2 
 PCOD9520152
Probable space group: I M M M
;
_chemical_formula_sum "Si O2"
_cell_formula_units_Z 120
_cell_length_a 12.908616
_cell_length_b 18.712017
_cell_length_c 25.773161
_cell_angle_alpha 90.000000
_cell_angle_beta 90.000000
_cell_angle_gamma 90.000000
_cell_volume 6225.410185
_symmetry_space_group_name_H-M "I M M M"
_symmetry_group_IT_number 71
_symmetry_cell_setting 'orthorhombic'
loop_
_space_group_symop_operation_xyz
x,y,z
-x,-y,z
x,-y,-z
-x,y,-z
-x,-y,-z
x,y,-z
-x,y,z
x,-y,z
1/2+x,1/2+y,1/2+z
1/2-x,1/2-y,1/2+z
1/2+x,1/2-y,1/2-z
1/2-x,1/2+y,1/2-z
1/2-x,1/2-y,1/2-z
1/2+x,1/2+y,1/2-z
1/2-x,1/2+y,1/2+z
1/2+x,1/2-y,1/2+z
loop_
_atom_site_type_symbol
_atom_site_label
_atom_site_fract_x
_atom_site_fract_y
_atom_site_fract_z
Si Si1 0.887960 0.585169 0.667736
Si Si2 0.620893 0.697283 0.194474
Si Si3 0.304512 0.414962 0.888123
Si Si4 0.791661 0.180637 0.808019
Si Si5 0.122686 0.081046 0.500000
Si Si6 0.691671 0.085010 0.943962
Si Si7 0.877553 0.350946 0.940642
Si Si8 0.381271 0.684247 0.419120
O O1 0.888835 0.500000 0.670855
O O2 0.786811 0.614138 0.696049
O O3 0.873434 0.604841 0.606933
O O4 0.000000 0.611691 0.686775
O O5 0.500000 0.716415 0.186489
O O6 0.646687 0.628381 0.159263
O O7 0.708292 0.756167 0.180616
O O8 0.644014 0.687283 0.255522
O O9 0.321265 0.500000 0.883198
O O10 0.349260 0.387723 0.943797
O O11 0.184621 0.394863 0.897520
O O12 0.866160 0.177156 0.857264
O O13 0.000000 0.075993 0.500000
O O14 0.167481 0.000000 0.500000
O O15 0.797561 0.129737 0.941738
O O16 0.712839 0.000000 0.940100
O O17 0.640959 0.097789 0.000000
O O18 0.856912 0.266097 0.934716
O O19 0.000000 0.360745 0.934516
O O20 0.850409 0.372851 0.000000
O O21 0.500000 0.669609 0.434015
#
# Coordination Sequence:
#
# PCOD9520152 Si02
#       8
#    16  16  16  16   8  16  16  16
#     4   9  18  34  56  80 108 144 183 224 272 323
#     4  11  23  39  60  85 111 144 183 228 281 333
#     4  11  22  38  58  84 116 148 187 236 287 343
#     4  10  21  38  59  83 110 144 183 231 274 331
#     4   9  18  34  57  81 109 149 187 222 276 342
#     4   9  18  31  49  78 114 149 188 233 278 327
#     4  10  20  35  57  84 115 153 193 235 285 337
#     4  10  19  34  56  80 110 150 192 232 279 335
#
# _framework density 19.275838
#
# number of rings (size 3 to 8) (size 9 to 14) (size 15 to 20)
#    0.000    2.067    2.000    1.600    0.000    2.933 
#    0.000    3.333    0.000    2.400    0.000    0.000 
#    0.000    0.000    0.000    0.000    0.000    0.000 
#
# Total GULP energy -334402.390708 kJ/mol
# GULP energy per Si atom -5573.373178 kJ/mol
# Density = 1.923197 g / cm^3
# Si number density = 19.275838 Si / 1000 Ang^3
#
#
#
# Elastic Constant Matrix: (Units=GPa)
#
#
# Indices 1 2 3 4 5 6 
#
# 1 67.0840 18.2077 5.4405 0.0000 0.0000 0.0000
# 2 18.2077 46.1935 12.5205 0.0000 0.0000 0.0000
# 3 5.4405 12.5205 45.6219 0.0000 0.0000 0.0000
# 4 0.0000 0.0000 0.0000 22.5714 0.0000 0.0000
# 5 0.0000 0.0000 0.0000 0.0000 5.6564 0.0000
# 6 0.0000 0.0000 0.0000 0.0000 0.0000 19.0219
#
#
#
# Elastic Compliance Matrix: (Units=1/GPa)
#
#
# Indices 1 2 3 4 5 6 
#
# 1 0.016694 -0.006526 -0.000200 0.000000 0.000000 0.000000
# 2 -0.006526 0.025939 -0.006340 0.000000 0.000000 0.000000
# 3 -0.000200 -0.006340 0.023683 0.000000 0.000000 0.000000
# 4 0.000000 0.000000 0.000000 0.044304 0.000000 0.000000
# 5 0.000000 0.000000 0.000000 0.000000 0.176790 0.000000
# 6 0.000000 0.000000 0.000000 0.000000 0.000000 0.052571
#
#
# Mechanical properties :
#
#
# Convention : Reuss Voigt Hill
#
# Bulk Modulus (GPa) = 24.88570 25.69296 25.28933
# Shear Modulus (GPa) = 13.17496 17.63199 15.40347
#
# Velocity S-wave (km/s) = 2.61721 3.02771 2.82992
# Velocity P-wave (km/s) = 4.69802 5.05774 4.88120
#
# Compressibility (1/GPa) = 0.04018373
#
# Stress axis : x y z
#
# Youngs Moduli (GPa) = 59.90119 38.55210 42.22397
#
# Poissons Ratio (x) = 0.25159 0.00844
# Poissons Ratio (y) = 0.39092 0.26772
# Poissons Ratio (z) = 0.01197 0.24444
#
# Static dielectric constant tensor:
#      x y z
#    x 1.679500 0.000000 0.000000 
#    y 0.000000 1.691170 0.000000 
#    z 0.000000 0.000000 1.677370 
# 
# From -- ./inp_files/59087.got.cif
#   From: 2010.05.17/outbox.cif.g08.bks.cpg/sg71_30_cif.got.tgz:59087.got - 2010.06.03 16:22:01.
