data_PCOD9520566
_publ_section_title
;
Structure prediction by ZEFSAII (Michael W. Deem and Ramdas Pophale) SiO2 
 PCOD9520566
Probable space group: I M M M
;
_chemical_formula_sum "Si O2"
_cell_formula_units_Z 112
_cell_length_a 23.585638
_cell_length_b 30.020600
_cell_length_c 7.327825
_cell_angle_alpha 90.000000
_cell_angle_beta 90.000000
_cell_angle_gamma 90.000000
_cell_volume 5188.503161
_symmetry_space_group_name_H-M "I M M M"
_symmetry_group_IT_number 71
_symmetry_cell_setting 'orthorhombic'
loop_
_space_group_symop_operation_xyz
x,y,z
-x,-y,z
x,-y,-z
-x,y,-z
-x,-y,-z
x,y,-z
-x,y,z
x,-y,z
1/2+x,1/2+y,1/2+z
1/2-x,1/2-y,1/2+z
1/2+x,1/2-y,1/2-z
1/2-x,1/2+y,1/2-z
1/2-x,1/2-y,1/2-z
1/2+x,1/2+y,1/2-z
1/2-x,1/2+y,1/2+z
1/2+x,1/2-y,1/2+z
loop_
_atom_site_type_symbol
_atom_site_label
_atom_site_fract_x
_atom_site_fract_y
_atom_site_fract_z
Si Si1 0.739876 0.861659 0.777687
Si Si2 0.063751 0.597725 0.722352
Si Si3 0.131286 0.137748 0.776565
Si Si4 0.565624 0.449929 0.721988
Si Si5 0.871426 0.314161 0.281807
Si Si6 0.436485 0.276409 0.283641
Si Si7 0.823863 0.549345 0.722045
O O1 0.804021 0.854835 0.717809
O O2 0.692019 0.826299 0.717622
O O3 0.716885 0.910356 0.722258
O O4 0.740449 0.860894 0.000000
O O5 0.062748 0.597607 0.500000
O O6 0.086456 0.646376 0.780629
O O7 0.112244 0.562852 0.776469
O O8 0.000000 0.589028 0.784414
O O9 0.105659 0.090293 0.718725
O O10 0.092045 0.178436 0.713916
O O11 0.131252 0.137589 0.000000
O O12 0.566384 0.449925 0.500000
O O13 0.500000 0.442197 0.775252
O O14 0.582023 0.500000 0.779634
O O15 0.869768 0.317913 0.500000
O O16 0.896265 0.266098 0.240707
O O17 0.441599 0.282617 0.500000
O O18 0.500000 0.268409 0.211365
O O19 0.822921 0.549189 0.500000
O O20 0.808395 0.500000 0.783676
#
# Coordination Sequence:
#
# PCOD9520566 Si02
#       7
#    16  16  16  16  16  16  16
#     4   8  15  26  39  56  78 108 144 174 205 252
#     4   8  13  21  34  52  74 103 137 167 198 240
#     4   9  16  26  39  56  82 112 138 171 216 256
#     4   8  13  21  34  53  78 111 149 180 207 250
#     4   9  17  30  46  62  83 113 146 176 207 248
#     4  10  20  31  44  64  87 110 139 176 215 252
#     4   8  13  20  30  48  76 105 132 166 203 238
#
# _framework density 21.586188
#
# number of rings (size 3 to 8) (size 9 to 14) (size 15 to 20)
#    0.000    3.429    0.000    3.000    0.000    4.000 
#    0.000    4.286    0.000    0.000    0.000    0.000 
#    0.000    9.714    0.000   39.571    0.000   36.857 
#
# Total GULP energy -312485.737757 kJ/mol
# GULP energy per Si atom -5580.102460 kJ/mol
# Density = 2.153706 g / cm^3
# Si number density = 21.586188 Si / 1000 Ang^3
#
#
#
# Elastic Constant Matrix: (Units=GPa)
#
#
# Indices 1 2 3 4 5 6 
#
# 1 151.0216 94.7815 5.5955 0.0000 0.0000 0.0000
# 2 94.7815 157.8433 0.0688 0.0000 0.0000 0.0000
# 3 5.5955 0.0688 82.9542 0.0000 0.0000 0.0000
# 4 0.0000 0.0000 0.0000 1.6697 0.0000 0.0000
# 5 0.0000 0.0000 0.0000 0.0000 -9.4662 0.0000
# 6 0.0000 0.0000 0.0000 0.0000 0.0000 18.3290
#
#
#
# Elastic Compliance Matrix: (Units=1/GPa)
#
#
# Indices 1 2 3 4 5 6 
#
# 1 0.010668 -0.006406 -0.000714 0.000000 0.000000 0.000000
# 2 -0.006406 0.010182 0.000424 0.000000 0.000000 0.000000
# 3 -0.000714 0.000424 0.012103 0.000000 0.000000 0.000000
# 4 0.000000 0.000000 0.000000 0.598903 0.000000 0.000000
# 5 0.000000 0.000000 0.000000 0.000000 -0.105639 0.000000
# 6 0.000000 0.000000 0.000000 0.000000 0.000000 0.054558
#
#
# Mechanical properties :
#
#
# Convention : Reuss Voigt Hill
#
# Bulk Modulus (GPa) = 51.12509 65.85674 58.49092
# Shear Modulus (GPa) = 8.32379 21.53140 14.92759
#
# Velocity S-wave (km/s) = 1.96582 3.16169 2.63256
# Velocity P-wave (km/s) = 5.37477 6.62596 6.03289
#
# Compressibility (1/GPa) = 0.01955987
#
# Stress axis : x y z
#
# Youngs Moduli (GPa) = 93.73547 98.21495 82.62633
#
# Poissons Ratio (x) = 0.62914 0.05902
# Poissons Ratio (y) = 0.60045 -0.03500
# Poissons Ratio (z) = 0.06696 -0.04161
#
# Static dielectric constant tensor:
#      x y z
#    x 1.757050 0.000000 0.000000 
#    y 0.000000 1.745380 0.000000 
#    z 0.000000 0.000000 1.914400 
# 
# From -- ./inp_files/29216.got.cif
#   From: 2010.05.17/outbox.cif.g08.bks.cpg/sg71_15_cif.got.tgz:29216.got - 2010.06.03 16:22:01.
