data_PCOD9520906
_publ_section_title
;
Structure prediction by ZEFSAII (Michael W. Deem and Ramdas Pophale) SiO2 
 PCOD9520906
Probable space group: I M M M
;
_chemical_formula_sum "Si O2"
_cell_formula_units_Z 96
_cell_length_a 25.874373
_cell_length_b 26.106074
_cell_length_c 8.836633
_cell_angle_alpha 90.000000
_cell_angle_beta 90.000000
_cell_angle_gamma 90.000000
_cell_volume 5968.953803
_symmetry_space_group_name_H-M "I M M M"
_symmetry_group_IT_number 71
_symmetry_cell_setting 'orthorhombic'
loop_
_space_group_symop_operation_xyz
x,y,z
-x,-y,z
x,-y,-z
-x,y,-z
-x,-y,-z
x,y,-z
-x,y,z
x,-y,z
1/2+x,1/2+y,1/2+z
1/2-x,1/2-y,1/2+z
1/2+x,1/2-y,1/2-z
1/2-x,1/2+y,1/2-z
1/2-x,1/2-y,1/2-z
1/2+x,1/2+y,1/2-z
1/2-x,1/2+y,1/2+z
1/2+x,1/2-y,1/2+z
loop_
_atom_site_type_symbol
_atom_site_label
_atom_site_fract_x
_atom_site_fract_y
_atom_site_fract_z
Si Si1 0.000000 0.562253 0.174691
Si Si2 0.890835 0.060294 0.681149
Si Si3 0.308496 0.138908 0.818639
Si Si4 0.807566 0.247377 0.681491
Si Si5 0.000000 0.937906 0.826069
Si Si6 0.812981 0.858367 0.818493
Si Si7 0.887231 0.440749 0.816766
O O1 0.944250 0.576488 0.240747
O O2 0.000000 0.500000 0.171312
O O3 0.000000 0.579834 0.000000
O O4 0.889757 0.064619 0.500000
O O5 0.847115 0.095707 0.753907
O O6 0.947143 0.076868 0.742650
O O7 0.883464 0.000000 0.720114
O O8 0.329197 0.196180 0.781856
O O9 0.247738 0.135467 0.775751
O O10 0.342708 0.095903 0.741492
O O11 0.310714 0.133190 0.000000
O O12 0.805093 0.242613 0.500000
O O13 0.750000 0.250000 0.750000
O O14 0.831613 0.196288 0.751946
O O15 0.000000 0.000000 0.826535
O O16 0.000000 0.920392 0.000000
O O17 0.815798 0.856924 0.000000
O O18 0.878874 0.500000 0.771538
O O19 0.888737 0.439893 0.000000
#
# Coordination Sequence:
#
# PCOD9520906 Si02
#       7
#     8  16  16  16   8  16  16
#     4   7  12  26  45  64  87 116 153 193 227 261
#     4  10  20  33  50  73 100 129 161 198 239 283
#     4   9  19  32  46  68  97 125 152 189 238 286
#     4   9  17  31  49  68  91 121 159 198 236 281
#     4   9  17  31  51  72  95 126 163 199 235 281
#     4  10  20  33  49  70  96 127 160 195 239 285
#     4   9  17  29  47  69  92 121 156 192 230 274
#
# _framework density 16.083220000000001
#
# number of rings (size 3 to 8) (size 9 to 14) (size 15 to 20)
#    0.000    2.833    0.000    3.750    0.000    7.000 
#    0.000    3.750    0.000    2.500    0.000    2.333 
#    0.000    0.000    0.000    0.000    0.000    0.000 
#
# Total GULP energy -267233.253076 kJ/mol
# GULP energy per Si atom -5567.359439 kJ/mol
# Density = 1.604661 g / cm^3
# Si number density = 16.083220 Si / 1000 Ang^3
#
#
#
# Elastic Constant Matrix: (Units=GPa)
#
#
# Indices 1 2 3 4 5 6 
#
# 1 101.5617 72.3401 38.7022 0.0000 0.0000 0.0000
# 2 72.3401 112.2291 46.0215 0.0000 0.0000 0.0000
# 3 38.7022 46.0215 46.3213 0.0000 0.0000 0.0000
# 4 0.0000 0.0000 0.0000 28.8271 0.0000 0.0000
# 5 0.0000 0.0000 0.0000 0.0000 24.2032 0.0000
# 6 0.0000 0.0000 0.0000 0.0000 0.0000 -3.5872
#
#
#
# Elastic Compliance Matrix: (Units=1/GPa)
#
#
# Indices 1 2 3 4 5 6 
#
# 1 0.019247 -0.009807 -0.006337 0.000000 0.000000 0.000000
# 2 -0.009807 0.020034 -0.011710 0.000000 0.000000 0.000000
# 3 -0.006337 -0.011710 0.038517 0.000000 0.000000 0.000000
# 4 0.000000 0.000000 0.000000 0.034690 0.000000 0.000000
# 5 0.000000 0.000000 0.000000 0.000000 0.041317 0.000000
# 6 0.000000 0.000000 0.000000 0.000000 0.000000 -0.278765
#
#
# Mechanical properties :
#
#
# Convention : Reuss Voigt Hill
#
# Bulk Modulus (GPa) = 45.27140 63.80441 54.53790
# Shear Modulus (GPa) = -80.78874 16.75850 -32.01512
#
# Velocity S-wave (km/s) = -7.09512 3.23148 -4.46644
# Velocity P-wave (km/s) = 6.23792 7.32672 2.71746
#
# Compressibility (1/GPa) = 0.02208900
#
# Stress axis : x y z
#
# Youngs Moduli (GPa) = 51.95727 49.91578 25.96247
#
# Poissons Ratio (x) = 0.48954 0.16452
# Poissons Ratio (y) = 0.50956 0.30402
# Poissons Ratio (z) = 0.32925 0.58451
#
# Static dielectric constant tensor:
#      x y z
#    x 1.554510 0.000000 0.000000 
#    y 0.000000 1.549880 0.000000 
#    z 0.000000 0.000000 1.542640 
# 
# From -- ./inp_files/12928.got.cif
#   From: 2010.05.17/outbox.cif.g08.bks.cpg/sg71_7_cif.got.tgz:12928.got - 2010.06.03 16:22:01.
