data_PCOD9521964
_publ_section_title
;
Structure prediction by ZEFSAII (Michael W. Deem and Ramdas Pophale) SiO2 
 PCOD9521964
Probable space group: I M M M
;
_chemical_formula_sum "Si O2"
_cell_formula_units_Z 96
_cell_length_a 24.395083
_cell_length_b 23.885966
_cell_length_c 9.194087
_cell_angle_alpha 90.000000
_cell_angle_beta 90.000000
_cell_angle_gamma 90.000000
_cell_volume 5357.395627
_symmetry_space_group_name_H-M "I M M M"
_symmetry_group_IT_number 71
_symmetry_cell_setting 'orthorhombic'
loop_
_space_group_symop_operation_xyz
x,y,z
-x,-y,z
x,-y,-z
-x,y,-z
-x,-y,-z
x,y,-z
-x,y,z
x,-y,z
1/2+x,1/2+y,1/2+z
1/2-x,1/2-y,1/2+z
1/2+x,1/2-y,1/2-z
1/2-x,1/2+y,1/2-z
1/2-x,1/2-y,1/2-z
1/2+x,1/2+y,1/2-z
1/2-x,1/2+y,1/2+z
1/2+x,1/2-y,1/2+z
loop_
_atom_site_type_symbol
_atom_site_label
_atom_site_fract_x
_atom_site_fract_y
_atom_site_fract_z
Si Si1 0.384001 0.169211 0.829659
Si Si2 0.726757 0.825984 0.331676
Si Si3 0.715193 0.435755 0.168299
Si Si4 0.664732 0.660697 0.672409
Si Si5 0.434007 0.936401 0.671158
Si Si6 0.437851 0.714826 0.828355
O O1 0.329403 0.188084 0.745758
O O2 0.405946 0.111571 0.764286
O O3 0.428116 0.218685 0.811776
O O4 0.371606 0.163287 0.000000
O O5 0.728591 0.808541 0.500000
O O6 0.732351 0.894476 0.326956
O O7 0.782261 0.809280 0.246763
O O8 0.725520 0.500000 0.205639
O O9 0.673253 0.403425 0.273302
O O10 0.695762 0.433146 0.000000
O O11 0.667556 0.665439 0.500000
O O12 0.608631 0.684364 0.735936
O O13 0.421370 0.928212 0.500000
O O14 0.500000 0.932677 0.686535
O O15 0.417872 0.000000 0.710912
O O16 0.500000 0.700190 0.787916
O O17 0.429736 0.702089 0.000000
#
# Coordination Sequence:
#
# PCOD9521964 Si02
#       6
#    16  16  16  16  16  16
#     4  11  22  35  54  83 112 141 184 235 282 322
#     4   9  19  35  54  79 110 146 181 215 264 329
#     4   8  16  33  56  80 109 147 184 215 261 328
#     4  10  20  35  56  85 114 142 181 230 280 326
#     4   9  19  36  55  74 102 144 189 230 276 332
#     4  10  22  40  59  78 107 148 188 227 274 333
#
# _framework density 17.919153999999999
#
# number of rings (size 3 to 8) (size 9 to 14) (size 15 to 20)
#    1.000    1.500    0.000    3.000    0.000    4.667 
#    0.000    2.500    0.000    0.500    0.000    3.500 
#    0.000    0.000    0.000    0.000    0.000    0.000 
#
# Total GULP energy -267505.884310 kJ/mol
# GULP energy per Si atom -5573.039256 kJ/mol
# Density = 1.787837 g / cm^3
# Si number density = 17.919154 Si / 1000 Ang^3
#
#
#
# Elastic Constant Matrix: (Units=GPa)
#
#
# Indices 1 2 3 4 5 6 
#
# 1 76.5789 3.9798 42.6576 0.0000 0.0000 0.0000
# 2 3.9798 45.4144 14.9450 0.0000 0.0000 0.0000
# 3 42.6576 14.9450 82.2607 0.0000 0.0000 0.0000
# 4 0.0000 0.0000 0.0000 15.2088 0.0000 0.0000
# 5 0.0000 0.0000 0.0000 0.0000 25.3777 0.0000
# 6 0.0000 0.0000 0.0000 0.0000 0.0000 24.9416
#
#
#
# Elastic Compliance Matrix: (Units=1/GPa)
#
#
# Indices 1 2 3 4 5 6 
#
# 1 0.018476 0.001631 -0.009877 0.000000 0.000000 0.000000
# 2 0.001631 0.023564 -0.005127 0.000000 0.000000 0.000000
# 3 -0.009877 -0.005127 0.018210 0.000000 0.000000 0.000000
# 4 0.000000 0.000000 0.000000 0.065752 0.000000 0.000000
# 5 0.000000 0.000000 0.000000 0.000000 0.039405 0.000000
# 6 0.000000 0.000000 0.000000 0.000000 0.000000 0.040094
#
#
# Mechanical properties :
#
#
# Convention : Reuss Voigt Hill
#
# Bulk Modulus (GPa) = 29.84756 36.37985 33.11371
# Shear Modulus (GPa) = 20.54126 22.61708 21.57917
#
# Velocity S-wave (km/s) = 3.38942 3.55656 3.47400
# Velocity P-wave (km/s) = 5.65778 6.10015 5.88313
#
# Compressibility (1/GPa) = 0.03350357
#
# Stress axis : x y z
#
# Youngs Moduli (GPa) = 54.12521 42.43819 54.91513
#
# Poissons Ratio (x) = -0.06923 0.54241
# Poissons Ratio (y) = -0.08830 0.28155
# Poissons Ratio (z) = 0.53461 0.21758
#
# Static dielectric constant tensor:
#      x y z
#    x 1.591660 0.000000 0.000000 
#    y 0.000000 1.643680 0.000000 
#    z 0.000000 0.000000 1.600910 
# 
# From -- ./inp_files/12873.got.cif
#   From: 2010.05.17/outbox.cif.g08.bks.cpg/sg71_7_cif.got.tgz:12873.got - 2010.06.03 16:22:01.
