data_PCOD9521726
_publ_section_title
;
Structure prediction by ZEFSAII (Michael W. Deem and Ramdas Pophale) SiO2 
 PCOD9521726
Probable space group: I M M M
;
_chemical_formula_sum "Si O2"
_cell_formula_units_Z 100
_cell_length_a 21.409259
_cell_length_b 29.459382
_cell_length_c 7.672975
_cell_angle_alpha 90.000000
_cell_angle_beta 90.000000
_cell_angle_gamma 90.000000
_cell_volume 4839.372489
_symmetry_space_group_name_H-M "I M M M"
_symmetry_group_IT_number 71
_symmetry_cell_setting 'orthorhombic'
loop_
_space_group_symop_operation_xyz
x,y,z
-x,-y,z
x,-y,-z
-x,y,-z
-x,-y,-z
x,y,-z
-x,y,z
x,-y,z
1/2+x,1/2+y,1/2+z
1/2-x,1/2-y,1/2+z
1/2+x,1/2-y,1/2-z
1/2-x,1/2+y,1/2-z
1/2-x,1/2-y,1/2-z
1/2+x,1/2+y,1/2-z
1/2-x,1/2+y,1/2+z
1/2+x,1/2-y,1/2+z
loop_
_atom_site_type_symbol
_atom_site_label
_atom_site_fract_x
_atom_site_fract_y
_atom_site_fract_z
Si Si1 0.189849 0.800707 0.800162
Si Si2 0.249843 0.550511 0.207365
Si Si3 0.192430 0.355981 0.291562
Si Si4 0.932138 0.852596 0.299331
Si Si5 0.500000 0.768321 0.000000
Si Si6 0.393584 0.550787 0.702222
Si Si7 0.392247 0.220498 0.295038
O O1 0.246276 0.829166 0.719723
O O2 0.127303 0.831220 0.792248
O O3 0.166522 0.752116 0.734837
O O4 0.207163 0.793301 0.000000
O O5 0.228404 0.500000 0.259907
O O6 0.204075 0.591344 0.252483
O O7 0.318655 0.557627 0.287913
O O8 0.259371 0.550718 0.000000
O O9 0.189395 0.351824 0.500000
O O10 0.132176 0.331064 0.215747
O O11 0.930652 0.837049 0.500000
O O12 0.925166 0.906857 0.294348
O O13 0.000000 0.839709 0.226562
O O14 0.554066 0.770243 0.155895
O O15 0.412440 0.552236 0.500000
O O16 0.406730 0.500000 0.770443
O O17 0.406667 0.231153 0.500000
#
# Coordination Sequence:
#
# PCOD9521726 Si02
#       7
#    16  16  16  16   4  16  16
#     4  10  23  39  60  89 123 165 211 265 314 370
#     4  10  20  34  56  88 124 161 203 255 318 384
#     4  11  21  39  64  96 131 164 211 266 321 374
#     4  11  24  36  52  77 108 154 207 259 315 374
#     4  12  26  48  68  98 133 170 217 272 310 394
#     4  10  20  35  53  74 104 148 201 257 315 375
#     4  11  25  44  68  96 129 173 216 262 319 383
#
# _framework density 20.663836
#
# number of rings (size 3 to 8) (size 9 to 14) (size 15 to 20)
#    0.000    1.440    2.400    2.640    2.240    4.160 
#    0.000    1.600    0.000    0.000    0.000    1.120 
#    0.000    2.560    0.000    0.000    0.000    0.000 
#
# Total GULP energy -278845.255579 kJ/mol
# GULP energy per Si atom -5576.905112 kJ/mol
# Density = 2.061680 g / cm^3
# Si number density = 20.663836 Si / 1000 Ang^3
#
#
#
# Elastic Constant Matrix: (Units=GPa)
#
#
# Indices 1 2 3 4 5 6 
#
# 1 29.5915 27.1265 19.8286 0.0000 0.0000 0.0000
# 2 27.1265 107.3485 10.2028 0.0000 0.0000 0.0000
# 3 19.8286 10.2028 99.5981 0.0000 0.0000 0.0000
# 4 0.0000 0.0000 0.0000 24.1103 0.0000 0.0000
# 5 0.0000 0.0000 0.0000 0.0000 25.9540 0.0000
# 6 0.0000 0.0000 0.0000 0.0000 0.0000 -8.0894
#
#
#
# Elastic Compliance Matrix: (Units=1/GPa)
#
#
# Indices 1 2 3 4 5 6 
#
# 1 0.050711 -0.011971 -0.008870 0.000000 0.000000 0.000000
# 2 -0.011971 0.012233 0.001130 0.000000 0.000000 0.000000
# 3 -0.008870 0.001130 0.011690 0.000000 0.000000 0.000000
# 4 0.000000 0.000000 0.000000 0.041476 0.000000 0.000000
# 5 0.000000 0.000000 0.000000 0.000000 0.038530 0.000000
# 6 0.000000 0.000000 0.000000 0.000000 0.000000 -0.123618
#
#
# Mechanical properties :
#
#
# Convention : Reuss Voigt Hill
#
# Bulk Modulus (GPa) = 28.39859 38.98377 33.69118
# Shear Modulus (GPa) = 60.84079 20.35365 40.59722
#
# Velocity S-wave (km/s) = 5.43204 3.14186 4.43725
# Velocity P-wave (km/s) = 7.28805 5.66289 6.52626
#
# Compressibility (1/GPa) = 0.03521302
#
# Stress axis : x y z
#
# Youngs Moduli (GPa) = 19.71957 81.74500 85.54044
#
# Poissons Ratio (x) = 0.97861 0.75870
# Poissons Ratio (y) = 0.23607 -0.09668
# Poissons Ratio (z) = 0.17490 -0.09239
#
# Static dielectric constant tensor:
#      x y z
#    x 1.726180 0.000000 0.000000 
#    y 0.000000 1.794280 0.000000 
#    z 0.000000 0.000000 1.757530 
# 
# From -- ./inp_files/11137.got.cif
#   From: 2010.05.17/outbox.cif.g08.bks.cpg/sg71_6_cif.got.tgz:11137.got - 2010.06.03 16:22:01.
