data_PCOD9521429
_publ_section_title
;
Structure prediction by ZEFSAII (Michael W. Deem and Ramdas Pophale) SiO2 
 PCOD9521429
Probable space group: I M M M
;
_chemical_formula_sum "Si O2"
_cell_formula_units_Z 64
_cell_length_a 18.468804
_cell_length_b 21.343252
_cell_length_c 7.587457
_cell_angle_alpha 90.000000
_cell_angle_beta 90.000000
_cell_angle_gamma 90.000000
_cell_volume 2990.856714
_symmetry_space_group_name_H-M "I M M M"
_symmetry_group_IT_number 71
_symmetry_cell_setting 'orthorhombic'
loop_
_space_group_symop_operation_xyz
x,y,z
-x,-y,z
x,-y,-z
-x,y,-z
-x,-y,-z
x,y,-z
-x,y,z
x,-y,z
1/2+x,1/2+y,1/2+z
1/2-x,1/2-y,1/2+z
1/2+x,1/2-y,1/2-z
1/2-x,1/2+y,1/2-z
1/2-x,1/2-y,1/2-z
1/2+x,1/2+y,1/2-z
1/2-x,1/2+y,1/2+z
1/2+x,1/2-y,1/2+z
loop_
_atom_site_type_symbol
_atom_site_label
_atom_site_fract_x
_atom_site_fract_y
_atom_site_fract_z
Si Si1 0.416335 0.625429 0.284437
Si Si2 0.665024 0.750560 0.711649
Si Si3 0.166984 0.000000 0.215831
Si Si4 0.832178 0.500000 0.709394
Si Si5 0.917900 0.373387 0.210640
O O1 0.415992 0.625626 0.500000
O O2 0.500000 0.625560 0.229390
O O3 0.374624 0.687711 0.224345
O O4 0.374892 0.562629 0.228707
O O5 0.657514 0.750500 0.500000
O O6 0.750000 0.750000 0.750000
O O7 0.626417 0.813519 0.779716
O O8 0.249949 0.000000 0.278355
O O9 0.167328 0.000000 0.000000
O O10 0.826569 0.500000 0.500000
O O11 0.875488 0.562268 0.759673
O O12 0.000000 0.376063 0.280113
O O13 0.922982 0.365602 0.000000
#
# Coordination Sequence:
#
# PCOD9521429 Si02
#       5
#    16  16   8   8  16
#     4   9  16  28  48  73 100 131 168 208 249 296
#     4  10  20  34  53  77 105 137 173 214 258 305
#     4   9  17  28  45  73 106 133 160 204 260 309
#     4  11  22  35  53  79 108 135 168 216 272 323
#     4  10  21  37  55  75 102 139 181 220 260 311
#
# _framework density 21.398553
#
# number of rings (size 3 to 8) (size 9 to 14) (size 15 to 20)
#    0.000    2.250    0.000    3.375    0.000    9.500 
#    0.000    0.000    0.000    2.250    0.000    0.000 
#    0.000   10.000    0.000    0.000    0.000    0.000 
#
# Total GULP energy -178866.105226 kJ/mol
# GULP energy per Si atom -5589.565788 kJ/mol
# Density = 2.134985 g / cm^3
# Si number density = 21.398553 Si / 1000 Ang^3
#
#
#
# Elastic Constant Matrix: (Units=GPa)
#
#
# Indices 1 2 3 4 5 6 
#
# 1 268.3696 171.0371 3.8054 0.0000 0.0000 0.0000
# 2 171.0371 268.9645 4.6889 0.0000 0.0000 0.0000
# 3 3.8054 4.6889 47.7754 0.0000 0.0000 0.0000
# 4 0.0000 0.0000 0.0000 -16.2813 0.0000 0.0000
# 5 0.0000 0.0000 0.0000 0.0000 21.6796 0.0000
# 6 0.0000 0.0000 0.0000 0.0000 0.0000 49.5927
#
#
#
# Elastic Compliance Matrix: (Units=1/GPa)
#
#
# Indices 1 2 3 4 5 6 
#
# 1 0.006266 -0.003983 -0.000108 0.000000 0.000000 0.000000
# 2 -0.003983 0.006256 -0.000297 0.000000 0.000000 0.000000
# 3 -0.000108 -0.000297 0.020969 0.000000 0.000000 0.000000
# 4 0.000000 0.000000 0.000000 -0.061420 0.000000 0.000000
# 5 0.000000 0.000000 0.000000 0.000000 0.046126 0.000000
# 6 0.000000 0.000000 0.000000 0.000000 0.000000 0.020164
#
#
# Mechanical properties :
#
#
# Convention : Reuss Voigt Hill
#
# Bulk Modulus (GPa) = 40.46054 104.90803 72.68429
# Shear Modulus (GPa) = 90.29368 38.03674 64.16521
#
# Velocity S-wave (km/s) = 6.50290 4.22066 5.48187
# Velocity P-wave (km/s) = 8.67945 8.53722 8.60863
#
# Compressibility (1/GPa) = 0.02471544
#
# Stress axis : x y z
#
# Youngs Moduli (GPa) = 159.59122 159.85190 47.68942
#
# Poissons Ratio (x) = 0.63665 0.00516
# Poissons Ratio (y) = 0.63561 0.01415
# Poissons Ratio (z) = 0.01727 0.04743
#
# Static dielectric constant tensor:
#      x y z
#    x 1.732550 0.000000 0.000000 
#    y 0.000000 1.596400 0.000000 
#    z 0.000000 0.000000 1.818590 
# 
# From -- ./inp_files/7511.got.cif
#   From: 2010.05.17/outbox.cif.g08.bks.cpg/sg71_4_cif.got.tgz:7511.got - 2010.06.03 16:22:01.
