data_PCOD9521740
_publ_section_title
;
Structure prediction by ZEFSAII (Michael W. Deem and Ramdas Pophale) SiO2 
 PCOD9521740
Probable space group: I M M M
;
_chemical_formula_sum "Si O2"
_cell_formula_units_Z 96
_cell_length_a 29.421222
_cell_length_b 20.468618
_cell_length_c 8.812782
_cell_angle_alpha 90.000000
_cell_angle_beta 90.000000
_cell_angle_gamma 90.000000
_cell_volume 5307.160908
_symmetry_space_group_name_H-M "I M M M"
_symmetry_group_IT_number 71
_symmetry_cell_setting 'orthorhombic'
loop_
_space_group_symop_operation_xyz
x,y,z
-x,-y,z
x,-y,-z
-x,y,-z
-x,-y,-z
x,y,-z
-x,y,z
x,-y,z
1/2+x,1/2+y,1/2+z
1/2-x,1/2-y,1/2+z
1/2+x,1/2-y,1/2-z
1/2-x,1/2+y,1/2-z
1/2-x,1/2-y,1/2-z
1/2+x,1/2+y,1/2-z
1/2-x,1/2+y,1/2+z
1/2+x,1/2-y,1/2+z
loop_
_atom_site_type_symbol
_atom_site_label
_atom_site_fract_x
_atom_site_fract_y
_atom_site_fract_z
Si Si1 0.790473 0.657082 0.680430
Si Si2 0.694486 0.299685 0.320139
Si Si3 0.872634 0.423724 0.818107
Si Si4 0.899797 0.810793 0.677568
Si Si5 0.945642 0.927040 0.827224
Si Si6 0.553038 0.173556 0.183400
O O1 0.796638 0.650721 0.500000
O O2 0.736691 0.652607 0.717335
O O3 0.801047 0.731180 0.731530
O O4 0.825739 0.609042 0.760789
O O5 0.697071 0.286584 0.500000
O O6 0.645528 0.324400 0.272310
O O7 0.874858 0.500000 0.774022
O O8 0.914714 0.382560 0.750608
O O9 0.874189 0.419387 0.000000
O O10 0.888745 0.804446 0.500000
O O11 0.931430 0.872109 0.710322
O O12 0.924708 0.743562 0.725463
O O13 0.000000 0.929598 0.830372
O O14 0.928758 0.000000 0.790325
O O15 0.930722 0.910725 0.000000
O O16 0.500000 0.169628 0.230587
O O17 0.554087 0.169349 0.000000
#
# Coordination Sequence:
#
# PCOD9521740 Si02
#       6
#    16  16  16  16  16  16
#     4  10  20  36  58  85 112 144 185 228 278 337
#     4  10  20  34  57  86 115 145 182 227 276 333
#     4  11  24  40  59  84 115 153 197 244 294 349
#     4  11  21  34  56  87 118 150 189 234 285 338
#     4   9  19  36  56  78 108 149 193 233 279 338
#     4  10  22  39  58  83 115 151 195 244 292 345
#
# _framework density 18.088768000000002
#
# number of rings (size 3 to 8) (size 9 to 14) (size 15 to 20)
#    0.000    1.833    1.667    3.000    0.000    6.000 
#    0.000    3.333    0.000    1.000    0.000    0.000 
#    0.000    0.000    0.000    0.000    0.000    0.000 
#
# Total GULP energy -267771.791403 kJ/mol
# GULP energy per Si atom -5578.578988 kJ/mol
# Density = 1.804760 g / cm^3
# Si number density = 18.088768 Si / 1000 Ang^3
#
#
#
# Elastic Constant Matrix: (Units=GPa)
#
#
# Indices 1 2 3 4 5 6 
#
# 1 131.6089 57.7550 36.9682 0.0000 0.0000 0.0000
# 2 57.7550 94.4984 30.2408 0.0000 0.0000 0.0000
# 3 36.9682 30.2408 32.0773 0.0000 0.0000 0.0000
# 4 0.0000 0.0000 0.0000 24.1729 0.0000 0.0000
# 5 0.0000 0.0000 0.0000 0.0000 28.7969 0.0000
# 6 0.0000 0.0000 0.0000 0.0000 0.0000 23.6156
#
#
#
# Elastic Compliance Matrix: (Units=1/GPa)
#
#
# Indices 1 2 3 4 5 6 
#
# 1 0.012337 -0.004282 -0.010182 0.000000 0.000000 0.000000
# 2 -0.004282 0.016640 -0.010753 0.000000 0.000000 0.000000
# 3 -0.010182 -0.010753 0.053046 0.000000 0.000000 0.000000
# 4 0.000000 0.000000 0.000000 0.041369 0.000000 0.000000
# 5 0.000000 0.000000 0.000000 0.000000 0.034726 0.000000
# 6 0.000000 0.000000 0.000000 0.000000 0.000000 0.042345
#
#
# Mechanical properties :
#
#
# Convention : Reuss Voigt Hill
#
# Bulk Modulus (GPa) = 31.65481 56.45699 44.05590
# Shear Modulus (GPa) = 19.12591 24.19845 21.66218
#
# Velocity S-wave (km/s) = 3.25520 3.66151 3.46432
# Velocity P-wave (km/s) = 5.62727 7.01102 6.35691
#
# Compressibility (1/GPa) = 0.03159078
#
# Stress axis : x y z
#
# Youngs Moduli (GPa) = 81.05484 60.09525 18.85168
#
# Poissons Ratio (x) = 0.25733 0.19194
# Poissons Ratio (y) = 0.34708 0.20271
# Poissons Ratio (z) = 0.82526 0.64618
#
# Static dielectric constant tensor:
#      x y z
#    x 1.653690 0.000000 0.000000 
#    y 0.000000 1.597160 0.000000 
#    z 0.000000 0.000000 1.624120 
# 
# From -- ./inp_files/14860.got.cif
#   From: 2010.05.17/outbox.cif.g08.bks.cpg/sg71_8_cif.got.tgz:14860.got - 2010.06.03 16:22:01.
