data_PCOD9521444
_publ_section_title
;
Structure prediction by ZEFSAII (Michael W. Deem and Ramdas Pophale) SiO2 
 PCOD9521444
Probable space group: I M M M
;
_chemical_formula_sum "Si O2"
_cell_formula_units_Z 88
_cell_length_a 7.606347
_cell_length_b 19.767666
_cell_length_c 28.379931
_cell_angle_alpha 90.000000
_cell_angle_beta 90.000000
_cell_angle_gamma 90.000000
_cell_volume 4267.198677
_symmetry_space_group_name_H-M "I M M M"
_symmetry_group_IT_number 71
_symmetry_cell_setting 'orthorhombic'
loop_
_space_group_symop_operation_xyz
x,y,z
-x,-y,z
x,-y,-z
-x,y,-z
-x,-y,-z
x,y,-z
-x,y,z
x,-y,z
1/2+x,1/2+y,1/2+z
1/2-x,1/2-y,1/2+z
1/2+x,1/2-y,1/2-z
1/2-x,1/2+y,1/2-z
1/2-x,1/2-y,1/2-z
1/2+x,1/2+y,1/2-z
1/2-x,1/2+y,1/2+z
1/2+x,1/2-y,1/2+z
loop_
_atom_site_type_symbol
_atom_site_label
_atom_site_fract_x
_atom_site_fract_y
_atom_site_fract_z
Si Si1 0.208870 0.169856 0.844424
Si Si2 0.213875 0.858633 0.403945
Si Si3 0.797492 0.309213 0.197672
Si Si4 0.211061 0.281409 0.448055
Si Si5 0.214691 0.000000 0.553610
Si Si6 0.206846 0.424120 0.734088
O O1 0.281298 0.235339 0.815019
O O2 0.243989 0.178634 0.900051
O O3 0.276627 0.102622 0.819259
O O4 0.000000 0.171276 0.839234
O O5 0.291020 0.844909 0.352875
O O6 0.265418 0.796172 0.437452
O O7 0.000000 0.857567 0.400643
O O8 0.270982 0.931115 0.422129
O O9 0.716067 0.363213 0.233890
O O10 0.000000 0.297471 0.212216
O O11 0.276447 0.303125 0.500000
O O12 0.000000 0.282125 0.450215
O O13 0.271904 0.000000 0.500000
O O14 0.000000 0.000000 0.554077
O O15 0.279434 0.500000 0.740534
O O16 0.000000 0.427677 0.746099
#
# Coordination Sequence:
#
# PCOD9521444 Si02
#       6
#    16  16  16  16   8  16
#     4  10  20  34  53  78 106 134 166 210 258 301
#     4   9  17  28  45  70  98 130 171 214 251 292
#     4   9  19  34  51  73 101 135 171 207 251 300
#     4   9  17  31  52  75  99 131 171 210 249 299
#     4   9  16  26  41  63  95 133 171 213 256 293
#     4  10  21  36  54  75 101 136 174 209 250 304
#
# _framework density 20.622429
#
# number of rings (size 3 to 8) (size 9 to 14) (size 15 to 20)
#    0.000    2.636    0.000    1.636    1.273    4.364 
#    0.000    0.000    0.000    2.727    0.000    3.818 
#    0.000    0.000    0.000    0.000    0.000    0.000 
#
# Total GULP energy -245342.871826 kJ/mol
# GULP energy per Si atom -5575.974360 kJ/mol
# Density = 2.057549 g / cm^3
# Si number density = 20.622429 Si / 1000 Ang^3
#
#
#
# Elastic Constant Matrix: (Units=GPa)
#
#
# Indices 1 2 3 4 5 6 
#
# 1 47.2932 -1.3433 5.1102 0.0000 0.0000 0.0000
# 2 -1.3433 61.1405 50.6445 0.0000 0.0000 0.0000
# 3 5.1102 50.6445 111.0285 0.0000 0.0000 0.0000
# 4 0.0000 0.0000 0.0000 9.2467 0.0000 0.0000
# 5 0.0000 0.0000 0.0000 0.0000 18.7044 0.0000
# 6 0.0000 0.0000 0.0000 0.0000 0.0000 -5.9377
#
#
#
# Elastic Compliance Matrix: (Units=1/GPa)
#
#
# Indices 1 2 3 4 5 6 
#
# 1 0.021412 0.002068 -0.001929 0.000000 0.000000 0.000000
# 2 0.002068 0.026488 -0.012177 0.000000 0.000000 0.000000
# 3 -0.001929 -0.012177 0.014650 0.000000 0.000000 0.000000
# 4 0.000000 0.000000 0.000000 0.108146 0.000000 0.000000
# 5 0.000000 0.000000 0.000000 0.000000 0.053463 0.000000
# 6 0.000000 0.000000 0.000000 0.000000 0.000000 -0.168416
#
#
# Mechanical properties :
#
#
# Convention : Reuss Voigt Hill
#
# Bulk Modulus (GPa) = 25.99175 36.47612 31.23394
# Shear Modulus (GPa) = 53.96979 15.40609 34.68794
#
# Velocity S-wave (km/s) = 5.12125 2.73620 4.10573
# Velocity P-wave (km/s) = 6.89932 5.26387 6.13633
#
# Compressibility (1/GPa) = 0.03847374
#
# Stress axis : x y z
#
# Youngs Moduli (GPa) = 46.70308 37.75270 68.25892
#
# Poissons Ratio (x) = -0.07808 0.13166
# Poissons Ratio (y) = -0.09659 0.83122
# Poissons Ratio (z) = 0.09008 0.45973
#
# Static dielectric constant tensor:
#      x y z
#    x 1.772580 0.000000 0.000000 
#    y 0.000000 2.188070 0.000000 
#    z 0.000000 0.000000 1.743510 
# 
# From -- ./inp_files/12548.got.cif
#   From: 2010.05.17/outbox.cif.g08.bks.cpg/sg71_7_cif.got.tgz:12548.got - 2010.06.03 16:22:01.
