data_PCOD9521641
_publ_section_title
;
Structure prediction by ZEFSAII (Michael W. Deem and Ramdas Pophale) SiO2 
 PCOD9521641
Probable space group: I M M M
;
_chemical_formula_sum "Si O2"
_cell_formula_units_Z 120
_cell_length_a 20.125706
_cell_length_b 11.359205
_cell_length_c 26.972432
_cell_angle_alpha 90.000000
_cell_angle_beta 90.000000
_cell_angle_gamma 90.000000
_cell_volume 6166.222170
_symmetry_space_group_name_H-M "I M M M"
_symmetry_group_IT_number 71
_symmetry_cell_setting 'orthorhombic'
loop_
_space_group_symop_operation_xyz
x,y,z
-x,-y,z
x,-y,-z
-x,y,-z
-x,-y,-z
x,y,-z
-x,y,z
x,-y,z
1/2+x,1/2+y,1/2+z
1/2-x,1/2-y,1/2+z
1/2+x,1/2-y,1/2-z
1/2-x,1/2+y,1/2-z
1/2-x,1/2-y,1/2-z
1/2+x,1/2+y,1/2-z
1/2-x,1/2+y,1/2+z
1/2+x,1/2-y,1/2+z
loop_
_atom_site_type_symbol
_atom_site_label
_atom_site_fract_x
_atom_site_fract_y
_atom_site_fract_z
Si Si1 0.577166 0.368587 0.881499
Si Si2 0.877204 0.770745 0.875586
Si Si3 0.333155 0.706241 0.207922
Si Si4 0.422544 0.861502 0.282154
Si Si5 0.720415 0.377891 0.306672
Si Si6 0.000000 0.141598 0.058551
Si Si7 0.774239 0.134716 0.942243
Si Si8 0.884845 0.366507 0.441238
O O1 0.500000 0.367218 0.866942
O O2 0.590101 0.500000 0.904190
O O3 0.622771 0.355323 0.833083
O O4 0.588429 0.250535 0.914280
O O5 0.898106 0.667008 0.838310
O O6 0.848605 0.863693 0.835491
O O7 0.813561 0.767256 0.911631
O O8 0.936744 0.811494 0.910703
O O9 0.378229 0.793664 0.241601
O O10 0.297031 0.627244 0.248913
O O11 0.272977 0.776798 0.182608
O O12 0.500000 0.825086 0.278541
O O13 0.417698 0.000000 0.273153
O O14 0.753295 0.500000 0.320228
O O15 0.000000 0.000000 0.059792
O O16 0.000000 0.176280 0.000000
O O17 0.695184 0.138513 0.936023
O O18 0.796158 0.000000 0.929393
O O19 0.789224 0.149761 0.000000
O O20 0.900422 0.360260 0.500000
O O21 0.905625 0.500000 0.424272
#
# Coordination Sequence:
#
# PCOD9521641 Si02
#       8
#    16  16  16  16  16   8  16  16
#     4  11  24  40  59  87 125 161 193 235 293 352
#     4  11  20  33  52  79 110 145 184 233 293 357
#     4  10  21  37  58  82 110 148 194 236 287 353
#     4  10  21  38  57  76 106 148 197 247 291 346
#     4  10  20  34  55  82 112 144 186 242 297 348
#     4  11  22  34  51  79 113 149 192 236 280 347
#     4   9  17  32  56  83 112 145 185 242 302 348
#     4   9  20  40  64  89 116 152 200 247 291 345
#
# _framework density 19.460861000000001
#
# number of rings (size 3 to 8) (size 9 to 14) (size 15 to 20)
#    0.000    1.933    0.667    4.400    0.000    4.000 
#    0.000    6.667    0.000    2.800    0.000    0.000 
#    0.000    0.000    0.000    0.000    0.000    0.000 
#
# Total GULP energy -334284.696206 kJ/mol
# GULP energy per Si atom -5571.411603 kJ/mol
# Density = 1.941657 g / cm^3
# Si number density = 19.460861 Si / 1000 Ang^3
#
#
#
# Elastic Constant Matrix: (Units=GPa)
#
#
# Indices 1 2 3 4 5 6 
#
# 1 78.2079 33.8485 26.6818 0.0000 0.0000 0.0000
# 2 33.8485 95.7557 34.7548 0.0000 0.0000 0.0000
# 3 26.6818 34.7548 84.8727 0.0000 0.0000 0.0000
# 4 0.0000 0.0000 0.0000 12.3754 0.0000 0.0000
# 5 0.0000 0.0000 0.0000 0.0000 13.8490 0.0000
# 6 0.0000 0.0000 0.0000 0.0000 0.0000 30.6643
#
#
#
# Elastic Compliance Matrix: (Units=1/GPa)
#
#
# Indices 1 2 3 4 5 6 
#
# 1 0.015779 -0.004437 -0.003144 0.000000 0.000000 0.000000
# 2 -0.004437 0.013514 -0.004139 0.000000 0.000000 0.000000
# 3 -0.003144 -0.004139 0.014466 0.000000 0.000000 0.000000
# 4 0.000000 0.000000 0.000000 0.080806 0.000000 0.000000
# 5 0.000000 0.000000 0.000000 0.000000 0.072207 0.000000
# 6 0.000000 0.000000 0.000000 0.000000 0.000000 0.032611
#
#
# Mechanical properties :
#
#
# Convention : Reuss Voigt Hill
#
# Bulk Modulus (GPa) = 49.21364 49.93406 49.57385
# Shear Modulus (GPa) = 19.26075 22.28114 20.77095
#
# Velocity S-wave (km/s) = 3.14939 3.38734 3.27053
# Velocity P-wave (km/s) = 6.21034 6.40415 6.30799
#
# Compressibility (1/GPa) = 0.02031957
#
# Stress axis : x y z
#
# Youngs Moduli (GPa) = 63.37459 73.99823 69.12962
#
# Poissons Ratio (x) = 0.32831 0.21733
# Poissons Ratio (y) = 0.28118 0.28613
# Poissons Ratio (z) = 0.19923 0.30628
#
# Static dielectric constant tensor:
#      x y z
#    x 1.683400 0.000000 0.000000 
#    y 0.000000 1.694770 0.000000 
#    z 0.000000 0.000000 1.711640 
# 
# From -- ./inp_files/66637.got.cif
#   From: 2010.05.17/outbox.cif.g08.bks.cpg/sg71_34_cif.got.tgz:66637.got - 2010.06.03 16:22:01.
