data_PCOD9521545
_publ_section_title
;
Structure prediction by ZEFSAII (Michael W. Deem and Ramdas Pophale) SiO2 
 PCOD9521545
Probable space group: I M M M
;
_chemical_formula_sum "Si O2"
_cell_formula_units_Z 80
_cell_length_a 11.036106
_cell_length_b 30.085983
_cell_length_c 13.029347
_cell_angle_alpha 90.000000
_cell_angle_beta 90.000000
_cell_angle_gamma 90.000000
_cell_volume 4326.161413
_symmetry_space_group_name_H-M "I M M M"
_symmetry_group_IT_number 71
_symmetry_cell_setting 'orthorhombic'
loop_
_space_group_symop_operation_xyz
x,y,z
-x,-y,z
x,-y,-z
-x,y,-z
-x,-y,-z
x,y,-z
-x,y,z
x,-y,z
1/2+x,1/2+y,1/2+z
1/2-x,1/2-y,1/2+z
1/2+x,1/2-y,1/2-z
1/2-x,1/2+y,1/2-z
1/2-x,1/2-y,1/2-z
1/2+x,1/2+y,1/2-z
1/2-x,1/2+y,1/2+z
1/2+x,1/2-y,1/2+z
loop_
_atom_site_type_symbol
_atom_site_label
_atom_site_fract_x
_atom_site_fract_y
_atom_site_fract_z
Si Si1 0.357433 0.500000 0.815421
Si Si2 0.646057 0.401429 0.879567
Si Si3 0.000000 0.563551 0.619350
Si Si4 0.240220 0.679515 0.758698
Si Si5 0.860698 0.757426 0.885667
Si Si6 0.000000 0.331167 0.378076
Si Si7 0.289792 0.000000 0.123188
O O1 0.500000 0.500000 0.834304
O O2 0.314528 0.547230 0.861039
O O3 0.326538 0.500000 0.694614
O O4 0.500000 0.398061 0.858616
O O5 0.720076 0.367140 0.807805
O O6 0.663868 0.390665 0.000000
O O7 0.000000 0.615559 0.625937
O O8 0.875784 0.541333 0.655864
O O9 0.000000 0.550783 0.500000
O O10 0.216645 0.715786 0.847091
O O11 0.343824 0.700813 0.688375
O O12 0.120573 0.681336 0.685838
O O13 0.000000 0.743266 0.885164
O O14 0.824841 0.770427 0.000000
O O15 0.000000 0.317801 0.500000
O O16 0.265960 0.000000 0.000000
#
# Coordination Sequence:
#
# PCOD9521545 Si02
#       7
#     8  16   8  16  16   8   8
#     4  10  20  34  54  80 113 149 182 229 282 336
#     4  10  21  38  59  83 111 147 192 238 285 337
#     4   8  16  29  48  70 100 138 180 224 271 315
#     4  11  21  36  58  84 110 149 188 233 275 340
#     4  10  21  38  57  80 112 147 183 230 285 335
#     4  11  21  34  52  82 114 146 185 229 275 330
#     4   9  16  30  50  74 104 144 185 229 276 325
#
# _framework density 18.492144
#
# number of rings (size 3 to 8) (size 9 to 14) (size 15 to 20)
#    0.000    2.000    1.000    3.900    0.000    1.400 
#    0.000    1.000    0.000    2.400    0.000    5.600 
#    0.000    0.000    0.000    0.000    0.000    0.000 
#
# Total GULP energy -222766.707783 kJ/mol
# GULP energy per Si atom -5569.167695 kJ/mol
# Density = 1.845005 g / cm^3
# Si number density = 18.492144 Si / 1000 Ang^3
#
#
#
# Elastic Constant Matrix: (Units=GPa)
#
#
# Indices 1 2 3 4 5 6 
#
# 1 35.9937 11.3149 27.5525 0.0000 0.0000 0.0000
# 2 11.3149 96.5021 37.6730 0.0000 0.0000 0.0002
# 3 27.5525 37.6730 97.2909 0.0002 0.0002 0.0008
# 4 0.0000 0.0000 0.0002 26.4497 0.0000 0.0003
# 5 0.0000 0.0000 0.0002 0.0000 22.8599 -0.0001
# 6 0.0000 0.0002 0.0008 0.0003 -0.0001 -28.5714
#
#
#
# Elastic Compliance Matrix: (Units=1/GPa)
#
#
# Indices 1 2 3 4 5 6 
#
# 1 0.035479 -0.000280 -0.009939 0.000000 0.000000 0.000000
# 2 -0.000280 0.012210 -0.004649 0.000000 0.000000 0.000000
# 3 -0.009939 -0.004649 0.014893 0.000000 0.000000 0.000000
# 4 0.000000 0.000000 0.000000 0.037808 0.000000 0.000000
# 5 0.000000 0.000000 0.000000 0.000000 0.043745 0.000000
# 6 0.000000 0.000000 0.000000 0.000000 0.000000 -0.035000
#
#
# Mechanical properties :
#
#
# Convention : Reuss Voigt Hill
#
# Bulk Modulus (GPa) = 30.44440 42.54084 36.49262
# Shear Modulus (GPa) = 33.37363 14.36405 23.86884
#
# Velocity S-wave (km/s) = 4.25284 2.79007 3.59661
# Velocity P-wave (km/s) = 6.37297 5.78222 6.08477
#
# Compressibility (1/GPa) = 0.03284676
#
# Stress axis : x y z
#
# Youngs Moduli (GPa) = 28.18585 81.89948 67.14432
#
# Poissons Ratio (x) = 0.02292 0.66736
# Poissons Ratio (y) = 0.00789 0.31214
# Poissons Ratio (z) = 0.28014 0.38073
#
# Static dielectric constant tensor:
#      x y z
#    x 1.671470 0.000000 0.000000 
#    y 0.000000 1.657100 0.000000 
#    z 0.000000 0.000000 1.643010 
# 
# From -- ./inp_files/20238.got.cif
#   From: 2010.05.17/outbox.cif.g08.bks.cpg/sg71_11_cif.got.tgz:20238.got - 2010.06.03 16:22:01.
