data_PCOD9521304
_publ_section_title
;
Structure prediction by ZEFSAII (Michael W. Deem and Ramdas Pophale) SiO2 
 PCOD9521304
Probable space group: I M M M
;
_chemical_formula_sum "Si O2"
_cell_formula_units_Z 100
_cell_length_a 29.123650
_cell_length_b 7.267734
_cell_length_c 19.948840
_cell_angle_alpha 90.000000
_cell_angle_beta 90.000000
_cell_angle_gamma 90.000000
_cell_volume 4222.430150
_symmetry_space_group_name_H-M "I M M M"
_symmetry_group_IT_number 71
_symmetry_cell_setting 'orthorhombic'
loop_
_space_group_symop_operation_xyz
x,y,z
-x,-y,z
x,-y,-z
-x,y,-z
-x,-y,-z
x,y,-z
-x,y,z
x,-y,z
1/2+x,1/2+y,1/2+z
1/2-x,1/2-y,1/2+z
1/2+x,1/2-y,1/2-z
1/2-x,1/2+y,1/2-z
1/2-x,1/2-y,1/2-z
1/2+x,1/2+y,1/2-z
1/2-x,1/2+y,1/2+z
1/2+x,1/2-y,1/2+z
loop_
_atom_site_type_symbol
_atom_site_label
_atom_site_fract_x
_atom_site_fract_y
_atom_site_fract_z
Si Si1 0.948589 0.277254 0.579048
Si Si2 0.863141 0.721926 0.330044
Si Si3 0.924517 0.290525 0.073320
Si Si4 0.739124 0.219113 0.172590
Si Si5 0.500000 0.500000 0.779731
Si Si6 0.317590 0.720813 0.424970
Si Si7 0.070806 0.278442 0.778690
O O1 0.943411 0.237007 0.500000
O O2 0.950635 0.500000 0.586110
O O3 0.903491 0.215697 0.619440
O O4 0.000000 0.205365 0.598582
O O5 0.862145 0.500000 0.336576
O O6 0.811960 0.790157 0.343288
O O7 0.878874 0.756730 0.252993
O O8 0.941498 0.500000 0.071733
O O9 0.869208 0.294750 0.079386
O O10 0.938889 0.214425 0.145338
O O11 0.935674 0.208311 0.000000
O O12 0.750000 0.250000 0.250000
O O13 0.780975 0.290418 0.128054
O O14 0.737765 0.000000 0.160427
O O15 0.538933 0.338458 0.768826
O O16 0.300499 0.759308 0.500000
O O17 0.322660 0.500000 0.418199
O O18 0.063110 0.500000 0.775203
#
# Coordination Sequence:
#
# PCOD9521304 Si02
#       7
#    16  16  16  16   4  16  16
#     4   8  14  25  45  76 107 135 176 226 273 329
#     4   9  18  32  53  77 108 150 185 229 287 336
#     4   9  18  35  59  82 109 148 189 231 280 338
#     4  10  20  34  51  76 110 146 185 230 284 338
#     4  12  26  40  61  88 113 150 192 238 298 348
#     4   9  18  31  51  80 113 148 187 234 283 336
#     4  10  22  40  59  84 116 147 191 242 287 346
#
# _framework density 23.683045
#
# number of rings (size 3 to 8) (size 9 to 14) (size 15 to 20)
#    0.000    2.720    0.000    1.680    2.240    2.560 
#    1.440    4.000    0.000    1.920    0.000    1.120 
#    0.000    0.000    0.000    0.000    0.000    0.000 
#
# Total GULP energy -278632.647803 kJ/mol
# GULP energy per Si atom -5572.652956 kJ/mol
# Density = 2.362914 g / cm^3
# Si number density = 23.683045 Si / 1000 Ang^3
#
#
#
# Elastic Constant Matrix: (Units=GPa)
#
#
# Indices 1 2 3 4 5 6 
#
# 1 99.4712 -2.2983 26.1150 0.0000 0.0000 0.0000
# 2 -2.2983 103.7328 -10.7361 0.0000 0.0000 0.0000
# 3 26.1150 -10.7361 97.4820 0.0000 0.0000 0.0000
# 4 0.0000 0.0000 0.0000 -13.3020 0.0000 0.0000
# 5 0.0000 0.0000 0.0000 0.0000 19.4065 0.0000
# 6 0.0000 0.0000 0.0000 0.0000 0.0000 13.9376
#
#
#
# Elastic Compliance Matrix: (Units=1/GPa)
#
#
# Indices 1 2 3 4 5 6 
#
# 1 0.010814 -0.000061 -0.002904 0.000000 0.000000 0.000000
# 2 -0.000061 0.009752 0.001090 0.000000 0.000000 0.000000
# 3 -0.002904 0.001090 0.011156 0.000000 0.000000 0.000000
# 4 0.000000 0.000000 0.000000 -0.075177 0.000000 0.000000
# 5 0.000000 0.000000 0.000000 0.000000 0.051529 0.000000
# 6 0.000000 0.000000 0.000000 0.000000 0.000000 0.071748
#
#
# Mechanical properties :
#
#
# Convention : Reuss Voigt Hill
#
# Bulk Modulus (GPa) = 35.74840 36.31635 36.03238
# Shear Modulus (GPa) = 53.82369 23.18212 38.50290
#
# Velocity S-wave (km/s) = 4.77242 3.13205 4.03644
# Velocity P-wave (km/s) = 6.74502 5.33360 6.08040
#
# Compressibility (1/GPa) = 0.02797328
#
# Stress axis : x y z
#
# Youngs Moduli (GPa) = 92.47188 102.54678 89.63552
#
# Poissons Ratio (x) = 0.00625 0.26028
# Poissons Ratio (y) = 0.00563 -0.09773
# Poissons Ratio (z) = 0.26852 -0.11181
#
# Static dielectric constant tensor:
#      x y z
#    x 1.891120 0.000000 0.000000 
#    y 0.000000 2.042190 0.000000 
#    z 0.000000 0.000000 1.937550 
# 
# From -- ./inp_files/56715.got.cif
#   From: 2010.05.17/outbox.cif.g08.bks.cpg/sg71_29_cif.got.tgz:56715.got - 2010.06.03 16:22:01.
