data_PCOD9521490
_publ_section_title
;
Structure prediction by ZEFSAII (Michael W. Deem and Ramdas Pophale) SiO2 
 PCOD9521490
Probable space group: I M M M
;
_chemical_formula_sum "Si O2"
_cell_formula_units_Z 80
_cell_length_a 29.425231
_cell_length_b 8.029228
_cell_length_c 17.308414
_cell_angle_alpha 90.000000
_cell_angle_beta 90.000000
_cell_angle_gamma 90.000000
_cell_volume 4089.318581
_symmetry_space_group_name_H-M "I M M M"
_symmetry_group_IT_number 71
_symmetry_cell_setting 'orthorhombic'
loop_
_space_group_symop_operation_xyz
x,y,z
-x,-y,z
x,-y,-z
-x,y,-z
-x,-y,-z
x,y,-z
-x,y,z
x,-y,z
1/2+x,1/2+y,1/2+z
1/2-x,1/2-y,1/2+z
1/2+x,1/2-y,1/2-z
1/2-x,1/2+y,1/2-z
1/2-x,1/2-y,1/2-z
1/2+x,1/2+y,1/2-z
1/2-x,1/2+y,1/2+z
1/2+x,1/2-y,1/2+z
loop_
_atom_site_type_symbol
_atom_site_label
_atom_site_fract_x
_atom_site_fract_y
_atom_site_fract_z
Si Si1 0.157333 0.318802 0.500000
Si Si2 0.049451 0.698433 0.673048
Si Si3 0.858875 0.702125 0.758889
Si Si4 0.183683 0.702426 0.088660
Si Si5 0.936039 0.813132 0.500000
Si Si6 0.215225 0.801713 0.360846
O O1 0.134834 0.500000 0.500000
O O2 0.118268 0.185213 0.500000
O O3 0.187790 0.295758 0.574114
O O4 0.049582 0.500000 0.685504
O O5 0.095422 0.762280 0.714906
O O6 0.051467 0.729192 0.581016
O O7 0.000000 0.763826 0.700293
O O8 0.858524 0.500000 0.754908
O O9 0.854275 0.752572 0.848704
O O10 0.813011 0.762189 0.716042
O O11 0.182769 0.500000 0.085000
O O12 0.232445 0.747073 0.126394
O O13 0.180005 0.762682 0.000000
O O14 0.953013 0.000000 0.500000
O O15 0.212770 0.000000 0.374697
#
# Coordination Sequence:
#
# PCOD9521490 Si02
#       6
#     8  16  16  16   8  16
#     4  12  22  33  51  76 110 147 179 207 252 316
#     4  10  21  36  53  75 106 141 177 218 263 311
#     4  10  20  34  54  76 102 141 180 214 260 315
#     4   9  18  33  53  77 105 137 176 220 264 307
#     4  12  23  35  54  79 106 138 178 219 259 305
#     4  11  20  33  53  77 108 140 174 217 260 300
#
# _framework density 19.563161000000001
#
# number of rings (size 3 to 8) (size 9 to 14) (size 15 to 20)
#    0.000    1.600    3.000    3.300    0.000    1.600 
#    0.000    1.000    0.000    0.600    0.000    4.200 
#    0.000    0.000    0.000    3.600    0.000    4.000 
#
# Total GULP energy -223088.555767 kJ/mol
# GULP energy per Si atom -5577.213894 kJ/mol
# Density = 1.951863 g / cm^3
# Si number density = 19.563161 Si / 1000 Ang^3
#
#
#
# Elastic Constant Matrix: (Units=GPa)
#
#
# Indices 1 2 3 4 5 6 
#
# 1 109.4622 9.1919 73.9964 0.0000 0.0000 0.0000
# 2 9.1919 34.3994 3.7570 0.0000 0.0000 0.0000
# 3 73.9964 3.7570 150.5342 0.0000 0.0000 0.0000
# 4 0.0000 0.0000 0.0000 8.1570 0.0000 0.0000
# 5 0.0000 0.0000 0.0000 0.0000 28.7409 0.0000
# 6 0.0000 0.0000 0.0000 0.0000 0.0000 22.5987
#
#
#
# Elastic Compliance Matrix: (Units=1/GPa)
#
#
# Indices 1 2 3 4 5 6 
#
# 1 0.013983 -0.002994 -0.006799 0.000000 0.000000 0.000000
# 2 -0.002994 0.029791 0.000728 0.000000 0.000000 0.000000
# 3 -0.006799 0.000728 0.009967 0.000000 0.000000 0.000000
# 4 0.000000 0.000000 0.000000 0.122595 0.000000 0.000000
# 5 0.000000 0.000000 0.000000 0.000000 0.034794 0.000000
# 6 0.000000 0.000000 0.000000 0.000000 0.000000 0.044250
#
#
# Mechanical properties :
#
#
# Convention : Reuss Voigt Hill
#
# Bulk Modulus (GPa) = 28.08072 52.03182 40.05627
# Shear Modulus (GPa) = 17.52059 25.72934 21.62496
#
# Velocity S-wave (km/s) = 2.99589 3.63049 3.32835
# Velocity P-wave (km/s) = 5.13344 6.65046 5.94057
#
# Compressibility (1/GPa) = 0.03561163
#
# Stress axis : x y z
#
# Youngs Moduli (GPa) = 71.51597 33.56745 100.33315
#
# Poissons Ratio (x) = 0.10050 0.68213
# Poissons Ratio (y) = 0.21411 -0.07306
# Poissons Ratio (z) = 0.48622 -0.02444
#
# Static dielectric constant tensor:
#      x y z
#    x 1.701200 0.000000 0.000000 
#    y 0.000000 1.699490 0.000000 
#    z 0.000000 0.000000 1.708530 
# 
# From -- ./inp_files/14563.got.cif
#   From: 2010.05.17/outbox.cif.g08.bks.cpg/sg71_8_cif.got.tgz:14563.got - 2010.06.03 16:22:01.
