data_PCOD9521600
_publ_section_title
;
Structure prediction by ZEFSAII (Michael W. Deem and Ramdas Pophale) SiO2 
 PCOD9521600
Probable space group: I M M M
;
_chemical_formula_sum "Si O2"
_cell_formula_units_Z 98
_cell_length_a 15.609973
_cell_length_b 10.664425
_cell_length_c 27.884684
_cell_angle_alpha 90.000000
_cell_angle_beta 90.000000
_cell_angle_gamma 90.000000
_cell_volume 4642.002002
_symmetry_space_group_name_H-M "I M M M"
_symmetry_group_IT_number 71
_symmetry_cell_setting 'orthorhombic'
loop_
_space_group_symop_operation_xyz
x,y,z
-x,-y,z
x,-y,-z
-x,y,-z
-x,-y,-z
x,y,-z
-x,y,z
x,-y,z
1/2+x,1/2+y,1/2+z
1/2-x,1/2-y,1/2+z
1/2+x,1/2-y,1/2-z
1/2-x,1/2+y,1/2-z
1/2-x,1/2-y,1/2-z
1/2+x,1/2+y,1/2-z
1/2-x,1/2+y,1/2+z
1/2+x,1/2-y,1/2+z
loop_
_atom_site_type_symbol
_atom_site_label
_atom_site_fract_x
_atom_site_fract_y
_atom_site_fract_z
Si Si1 0.097698 0.500000 0.837530
Si Si2 0.376900 0.644115 0.554213
Si Si3 0.258030 0.137608 0.213357
Si Si4 0.702773 0.741913 0.948414
Si Si5 0.823077 0.500000 0.936228
Si Si6 0.000000 0.500000 0.000000
Si Si7 0.094247 0.220797 0.839523
Si Si8 0.900726 0.354429 0.365874
O O1 0.165256 0.500000 0.879694
O O2 0.104510 0.360196 0.816642
O O3 0.000000 0.500000 0.855893
O O4 0.403062 0.689094 0.500000
O O5 0.404876 0.500000 0.559099
O O6 0.274212 0.649488 0.554701
O O7 0.404465 0.720201 0.601763
O O8 0.250000 0.250000 0.250000
O O9 0.175269 0.143953 0.178425
O O10 0.342049 0.154095 0.181036
O O11 0.260643 0.000000 0.236591
O O12 0.764520 0.620226 0.947790
O O13 0.638371 0.761030 0.905194
O O14 0.658575 0.746207 0.000000
O O15 0.918919 0.500000 0.959493
O O16 0.000000 0.172683 0.825865
O O17 0.894095 0.500000 0.382821
O O18 0.000000 0.328866 0.356101
#
# Coordination Sequence:
#
# PCOD9521600 Si02
#       8
#     8  16  16  16   8   2  16  16
#     4  10  20  34  54  87 120 163 215 261 305 374
#     4  10  20  34  55  85 125 173 217 259 309 379
#     4  11  25  46  72  99 130 168 213 275 343 411
#     4  11  21  36  59  91 130 174 219 272 328 384
#     4  12  20  36  55  85 130 184 232 278 321 380
#     4  12  24  32  56  84 128 188 256 272 320 390
#     4  11  23  40  63  93 132 171 213 263 323 397
#     4  10  22  44  72  99 128 169 222 278 341 407
#
# _framework density 21.11158
#
# number of rings (size 3 to 8) (size 9 to 14) (size 15 to 20)
#    0.000    1.306    4.490    0.980    1.143    3.592 
#    1.469    2.041    0.000    0.980    0.000    0.571 
#    0.000    0.000    0.000    0.000    0.000    0.000 
#
# Total GULP energy -273039.317160 kJ/mol
# GULP energy per Si atom -5572.230962 kJ/mol
# Density = 2.106353 g / cm^3
# Si number density = 21.111580 Si / 1000 Ang^3
#
#
#
# Elastic Constant Matrix: (Units=GPa)
#
#
# Indices 1 2 3 4 5 6 
#
# 1 150.9166 47.3521 44.6030 0.0000 0.0000 0.0000
# 2 47.3521 122.6718 41.3612 0.0000 0.0000 0.0000
# 3 44.6030 41.3612 65.5108 0.0000 0.0000 0.0000
# 4 0.0000 0.0000 0.0000 12.8910 0.0000 0.0000
# 5 0.0000 0.0000 0.0000 0.0000 2.3623 0.0000
# 6 0.0000 0.0000 0.0000 0.0000 0.0000 -7.4535
#
#
#
# Elastic Compliance Matrix: (Units=1/GPa)
#
#
# Indices 1 2 3 4 5 6 
#
# 1 0.008566 -0.001703 -0.004757 0.000000 0.000000 0.000000
# 2 -0.001703 0.010695 -0.005593 0.000000 0.000000 0.000000
# 3 -0.004757 -0.005593 0.022035 0.000000 0.000000 0.000000
# 4 0.000000 0.000000 0.000000 0.077573 0.000000 0.000000
# 5 0.000000 0.000000 0.000000 0.000000 0.423322 0.000000
# 6 0.000000 0.000000 0.000000 0.000000 0.000000 -0.134166
#
#
# Mechanical properties :
#
#
# Convention : Reuss Voigt Hill
#
# Bulk Modulus (GPa) = 58.17358 67.30352 62.73855
# Shear Modulus (GPa) = 11.41912 15.27884 13.34898
#
# Velocity S-wave (km/s) = 2.32824 2.69312 2.51730
# Velocity P-wave (km/s) = 5.90277 6.45133 6.18314
#
# Compressibility (1/GPa) = 0.01718993
#
# Stress axis : x y z
#
# Youngs Moduli (GPa) = 116.73431 93.50263 45.38219
#
# Poissons Ratio (x) = 0.15920 0.21591
# Poissons Ratio (y) = 0.19875 0.25383
# Poissons Ratio (z) = 0.55536 0.52297
#
# Static dielectric constant tensor:
#      x y z
#    x 1.739030 0.000000 0.000000 
#    y 0.000000 1.861190 0.000000 
#    z 0.000000 0.000000 1.802080 
# 
# From -- ./inp_files/69934.got.cif
#   From: 2010.05.17/outbox.cif.g08.bks.cpg/sg71_35_cif.got.tgz:69934.got - 2010.06.03 16:22:01.
