data_PCOD9521537
_publ_section_title
;
Structure prediction by ZEFSAII (Michael W. Deem and Ramdas Pophale) SiO2 
 PCOD9521537
Probable space group: I M M M
;
_chemical_formula_sum "Si O2"
_cell_formula_units_Z 112
_cell_length_a 24.681555
_cell_length_b 17.462548
_cell_length_c 13.904339
_cell_angle_alpha 90.000000
_cell_angle_beta 90.000000
_cell_angle_gamma 90.000000
_cell_volume 5992.809582
_symmetry_space_group_name_H-M "I M M M"
_symmetry_group_IT_number 71
_symmetry_cell_setting 'orthorhombic'
loop_
_space_group_symop_operation_xyz
x,y,z
-x,-y,z
x,-y,-z
-x,y,-z
-x,-y,-z
x,y,-z
-x,y,z
x,-y,z
1/2+x,1/2+y,1/2+z
1/2-x,1/2-y,1/2+z
1/2+x,1/2-y,1/2-z
1/2-x,1/2+y,1/2-z
1/2-x,1/2-y,1/2-z
1/2+x,1/2+y,1/2-z
1/2-x,1/2+y,1/2+z
1/2+x,1/2-y,1/2+z
loop_
_atom_site_type_symbol
_atom_site_label
_atom_site_fract_x
_atom_site_fract_y
_atom_site_fract_z
Si Si1 0.935110 0.276645 0.389813
Si Si2 0.143276 0.411593 0.615075
Si Si3 0.257401 0.839131 0.772570
Si Si4 0.156647 0.091708 0.112896
Si Si5 0.176089 0.590642 0.891401
Si Si6 0.559387 0.146428 0.615120
Si Si7 0.062368 0.186227 0.204163
O O1 0.920270 0.256587 0.500000
O O2 0.909440 0.359317 0.367204
O O3 0.918213 0.214838 0.309643
O O4 0.000000 0.281829 0.383795
O O5 0.149940 0.415690 0.500000
O O6 0.141796 0.500000 0.650456
O O7 0.192973 0.363751 0.658506
O O8 0.250000 0.750000 0.750000
O O9 0.204270 0.872320 0.823093
O O10 0.275970 0.877031 0.672803
O O11 0.101011 0.125148 0.155088
O O12 0.158593 0.000000 0.119462
O O13 0.162544 0.112681 0.000000
O O14 0.180451 0.500000 0.894842
O O15 0.115961 0.610023 0.851272
O O16 0.178923 0.622022 0.000000
O O17 0.558516 0.135423 0.500000
O O18 0.500000 0.118879 0.651627
O O19 0.562795 0.235897 0.641292
O O20 0.000000 0.160130 0.211083
#
# Coordination Sequence:
#
# PCOD9521537 Si02
#       7
#    16  16  16  16  16  16  16
#     4   9  18  33  54  82 116 153 191 226 262 313
#     4  10  20  34  54  80 110 144 183 230 282 330
#     4  12  24  38  57  78 106 145 185 228 275 331
#     4  11  24  41  62  87 113 141 177 227 287 344
#     4  10  21  36  54  78 110 147 186 228 273 323
#     4   9  17  30  51  80 113 149 188 229 275 328
#     4  10  20  36  58  83 112 145 182 226 276 329
#
# _framework density 18.689063000000001
#
# number of rings (size 3 to 8) (size 9 to 14) (size 15 to 20)
#    0.000    1.857    0.000    4.714    0.000    5.143 
#    0.000    4.286    0.000    5.571    0.000    2.000 
#    0.000    0.000    0.000    0.000    0.000    0.000 
#
# Total GULP energy -312474.513977 kJ/mol
# GULP energy per Si atom -5579.902035 kJ/mol
# Density = 1.864653 g / cm^3
# Si number density = 18.689063 Si / 1000 Ang^3
#
#
#
# Elastic Constant Matrix: (Units=GPa)
#
#
# Indices 1 2 3 4 5 6 
#
# 1 94.4938 54.0990 54.6081 0.0000 0.0000 0.0000
# 2 54.0990 90.0126 47.8599 0.0000 0.0000 0.0000
# 3 54.6081 47.8599 103.1080 0.0000 0.0000 0.0000
# 4 0.0000 0.0000 0.0000 31.8464 0.0000 0.0000
# 5 0.0000 0.0000 0.0000 0.0000 31.5824 0.0000
# 6 0.0000 0.0000 0.0000 0.0000 0.0000 176.5884
#
#
#
# Elastic Compliance Matrix: (Units=1/GPa)
#
#
# Indices 1 2 3 4 5 6 
#
# 1 0.018734 -0.007945 -0.006234 0.000000 0.000000 0.000000
# 2 -0.007945 0.018119 -0.004203 0.000000 0.000000 0.000000
# 3 -0.006234 -0.004203 0.014951 0.000000 0.000000 0.000000
# 4 0.000000 0.000000 0.000000 0.031401 0.000000 0.000000
# 5 0.000000 0.000000 0.000000 0.000000 0.031663 0.000000
# 6 0.000000 0.000000 0.000000 0.000000 0.000000 0.005663
#
#
# Mechanical properties :
#
#
# Convention : Reuss Voigt Hill
#
# Bulk Modulus (GPa) = 66.48512 66.74982 66.61747
# Shear Modulus (GPa) = 30.80577 56.73993 43.77285
#
# Velocity S-wave (km/s) = 4.06437 5.51597 4.84484
# Velocity P-wave (km/s) = 7.59454 8.73850 8.18653
#
# Compressibility (1/GPa) = 0.01504096
#
# Stress axis : x y z
#
# Youngs Moduli (GPa) = 53.37943 55.19073 66.88484
#
# Poissons Ratio (x) = 0.43847 0.41697
# Poissons Ratio (y) = 0.42408 0.28110
# Poissons Ratio (z) = 0.33277 0.23195
#
# Static dielectric constant tensor:
#      x y z
#    x 1.653720 0.000000 0.000000 
#    y 0.000000 1.609080 0.000000 
#    z 0.000000 0.000000 1.706670 
# 
# From -- ./inp_files/39287.got.cif
#   From: 2010.05.17/outbox.cif.g08.bks.cpg/sg71_20_cif.got.tgz:39287.got - 2010.06.03 16:22:01.
