data_PCOD9521878
_publ_section_title
;
Structure prediction by ZEFSAII (Michael W. Deem and Ramdas Pophale) SiO2 
 PCOD9521878
Probable space group: I M M M
;
_chemical_formula_sum "Si O2"
_cell_formula_units_Z 88
_cell_length_a 7.506899
_cell_length_b 19.716169
_cell_length_c 28.305585
_cell_angle_alpha 90.000000
_cell_angle_beta 90.000000
_cell_angle_gamma 90.000000
_cell_volume 4189.432909
_symmetry_space_group_name_H-M "I M M M"
_symmetry_group_IT_number 71
_symmetry_cell_setting 'orthorhombic'
loop_
_space_group_symop_operation_xyz
x,y,z
-x,-y,z
x,-y,-z
-x,y,-z
-x,-y,-z
x,y,-z
-x,y,z
x,-y,z
1/2+x,1/2+y,1/2+z
1/2-x,1/2-y,1/2+z
1/2+x,1/2-y,1/2-z
1/2-x,1/2+y,1/2-z
1/2-x,1/2-y,1/2-z
1/2+x,1/2+y,1/2-z
1/2-x,1/2+y,1/2+z
1/2+x,1/2-y,1/2+z
loop_
_atom_site_type_symbol
_atom_site_label
_atom_site_fract_x
_atom_site_fract_y
_atom_site_fract_z
Si Si1 0.213225 0.175672 0.770508
Si Si2 0.709890 0.841152 0.592433
Si Si3 0.218638 0.578686 0.000000
Si Si4 0.215865 0.922314 0.687950
Si Si5 0.784888 0.423960 0.554072
Si Si6 0.209408 0.803710 0.875140
O O1 0.250000 0.250000 0.750000
O O2 0.281016 0.120258 0.733238
O O3 0.284124 0.175330 0.823991
O O4 0.000000 0.165510 0.772515
O O5 0.500000 0.832244 0.582640
O O6 0.779886 0.881403 0.546885
O O7 0.730060 0.885319 0.639711
O O8 0.785300 0.766307 0.603653
O O9 0.274821 0.500000 0.000000
O O10 0.000000 0.577478 0.000000
O O11 0.000000 0.922239 0.688824
O O12 0.276209 0.000000 0.688810
O O13 0.726910 0.412052 0.500000
O O14 0.726753 0.500000 0.568054
O O15 0.725014 0.365139 0.588610
O O16 0.000000 0.423918 0.554110
O O17 0.000000 0.789889 0.866923
#
# Coordination Sequence:
#
# PCOD9521878 Si02
#       6
#    16  16   8  16  16  16
#     4  10  20  36  55  78 109 144 180 221 270 322
#     4  10  20  35  55  80 108 141 182 223 264 318
#     4   9  18  32  51  75 106 143 176 216 269 313
#     4  10  21  36  55  79 108 143 179 218 268 322
#     4   9  20  39  59  80 110 147 185 225 272 328
#     4  10  21  34  55  85 112 141 181 229 275 323
#
# _framework density 21.005229
#
# number of rings (size 3 to 8) (size 9 to 14) (size 15 to 20)
#    0.000    2.273    1.818    1.091    1.273    4.000 
#    0.000    3.182    0.000    1.636    0.000    0.000 
#    0.000    0.000    0.000    0.000    0.000    0.000 
#
# Total GULP energy -245715.240199 kJ/mol
# GULP energy per Si atom -5584.437277 kJ/mol
# Density = 2.095742 g / cm^3
# Si number density = 21.005229 Si / 1000 Ang^3
#
#
#
# Elastic Constant Matrix: (Units=GPa)
#
#
# Indices 1 2 3 4 5 6 
#
# 1 49.6357 -16.7139 -4.9866 0.0000 0.0000 0.0000
# 2 -16.7139 187.8865 132.1636 0.0000 0.0000 0.0000
# 3 -4.9866 132.1636 194.8928 0.0000 0.0000 0.0000
# 4 0.0000 0.0000 0.0000 40.4437 0.0000 0.0000
# 5 0.0000 0.0000 0.0000 0.0000 3.0476 0.0000
# 6 0.0000 0.0000 0.0000 0.0000 0.0000 10.1673
#
#
#
# Elastic Compliance Matrix: (Units=1/GPa)
#
#
# Indices 1 2 3 4 5 6 
#
# 1 0.020965 0.002845 -0.001393 0.000000 0.000000 0.000000
# 2 0.002845 0.010563 -0.007090 0.000000 0.000000 0.000000
# 3 -0.001393 -0.007090 0.009904 0.000000 0.000000 0.000000
# 4 0.000000 0.000000 0.000000 0.024726 0.000000 0.000000
# 5 0.000000 0.000000 0.000000 0.000000 0.328131 0.000000
# 6 0.000000 0.000000 0.000000 0.000000 0.000000 0.098354
#
#
# Mechanical properties :
#
#
# Convention : Reuss Voigt Hill
#
# Bulk Modulus (GPa) = 33.16248 72.59348 52.87798
# Shear Modulus (GPa) = 9.72820 32.19519 20.96169
#
# Velocity S-wave (km/s) = 2.15439 3.91925 3.16243
# Velocity P-wave (km/s) = 4.69154 7.42398 6.20991
#
# Compressibility (1/GPa) = 0.03015456
#
# Stress axis : x y z
#
# Youngs Moduli (GPa) = 47.69911 94.67144 100.97397
#
# Poissons Ratio (x) = -0.26930 0.14061
# Poissons Ratio (y) = -0.13568 0.71593
# Poissons Ratio (z) = 0.06642 0.67124
#
# Static dielectric constant tensor:
#      x y z
#    x 1.801170 0.000000 0.000000 
#    y 0.000000 1.716590 0.000000 
#    z 0.000000 0.000000 1.724200 
# 
# From -- ./inp_files/10443.got.cif
#   From: 2010.05.17/outbox.cif.g08.bks.cpg/sg71_6_cif.got.tgz:10443.got - 2010.06.03 16:22:01.
