data_PCOD9521415
_publ_section_title
;
Structure prediction by ZEFSAII (Michael W. Deem and Ramdas Pophale) SiO2 
 PCOD9521415
Probable space group: I M M M
;
_chemical_formula_sum "Si O2"
_cell_formula_units_Z 104
_cell_length_a 24.476910
_cell_length_b 8.017820
_cell_length_c 26.429082
_cell_angle_alpha 90.000000
_cell_angle_beta 90.000000
_cell_angle_gamma 90.000000
_cell_volume 5186.745890
_symmetry_space_group_name_H-M "I M M M"
_symmetry_group_IT_number 71
_symmetry_cell_setting 'orthorhombic'
loop_
_space_group_symop_operation_xyz
x,y,z
-x,-y,z
x,-y,-z
-x,y,-z
-x,-y,-z
x,y,-z
-x,y,z
x,-y,z
1/2+x,1/2+y,1/2+z
1/2-x,1/2-y,1/2+z
1/2+x,1/2-y,1/2-z
1/2-x,1/2+y,1/2-z
1/2-x,1/2-y,1/2-z
1/2+x,1/2+y,1/2-z
1/2-x,1/2+y,1/2+z
1/2+x,1/2-y,1/2+z
loop_
_atom_site_type_symbol
_atom_site_label
_atom_site_fract_x
_atom_site_fract_y
_atom_site_fract_z
Si Si1 0.830777 0.306995 0.744424
Si Si2 0.162225 0.806567 0.630329
Si Si3 0.223331 0.698072 0.153623
Si Si4 0.437580 0.200097 0.941732
Si Si5 0.560106 0.300564 0.706200
Si Si6 0.612612 0.300815 0.603323
Si Si7 0.562567 0.295138 0.500000
O O1 0.816746 0.500000 0.734076
O O2 0.838807 0.212662 0.691469
O O3 0.791093 0.237234 0.789341
O O4 0.890825 0.297278 0.768706
O O5 0.223728 0.733021 0.623976
O O6 0.110485 0.738828 0.598754
O O7 0.163138 0.000000 0.616415
O O8 0.231720 0.500000 0.160428
O O9 0.169050 0.725204 0.121900
O O10 0.500000 0.258759 0.928613
O O11 0.440202 0.000000 0.943679
O O12 0.425630 0.257616 0.000000
O O13 0.500000 0.252641 0.723718
O O14 0.567497 0.500000 0.715248
O O15 0.567298 0.273674 0.646381
O O16 0.620775 0.500000 0.600426
O O17 0.592713 0.237190 0.549997
O O18 0.562880 0.500000 0.500000
O O19 0.500000 0.243510 0.500000
#
# Coordination Sequence:
#
# PCOD9521415 Si02
#       7
#    16  16  16  16  16  16   8
#     4  10  20  34  53  76 106 142 180 221 266 314
#     4  11  22  36  57  84 110 139 177 216 262 319
#     4   9  20  37  53  74 107 144 178 217 266 316
#     4   9  20  41  65  86 110 140 175 219 270 322
#     4   9  17  30  48  71 101 137 176 218 266 316
#     4   9  17  30  50  74 100 135 178 222 265 309
#     4   9  16  28  49  77 105 133 174 225 268 305
#
# _framework density 20.051107999999999
#
# number of rings (size 3 to 8) (size 9 to 14) (size 15 to 20)
#    0.000    2.538    0.000    2.308    0.000    5.231 
#    1.385    1.154    0.000    1.846    0.000    0.000 
#    0.000    0.000    0.000    0.000    0.000    0.000 
#
# Total GULP energy -289617.625403 kJ/mol
# GULP energy per Si atom -5569.569719 kJ/mol
# Density = 2.000547 g / cm^3
# Si number density = 20.051108 Si / 1000 Ang^3
#
#
#
# Elastic Constant Matrix: (Units=GPa)
#
#
# Indices 1 2 3 4 5 6 
#
# 1 153.1368 17.2986 62.5113 0.0000 0.0000 0.0000
# 2 17.2986 15.0770 3.9232 0.0000 0.0000 0.0000
# 3 62.5113 3.9232 89.2869 0.0000 0.0000 0.0000
# 4 0.0000 0.0000 0.0000 100.1347 0.0000 0.0000
# 5 0.0000 0.0000 0.0000 0.0000 29.8763 0.0000
# 6 0.0000 0.0000 0.0000 0.0000 0.0000 -413.8556
#
#
#
# Elastic Compliance Matrix: (Units=1/GPa)
#
#
# Indices 1 2 3 4 5 6 
#
# 1 0.010508 -0.010260 -0.006906 0.000000 0.000000 0.000000
# 2 -0.010260 0.077110 0.003795 0.000000 0.000000 0.000000
# 3 -0.006906 0.003795 0.015868 0.000000 0.000000 0.000000
# 4 0.000000 0.000000 0.000000 0.009987 0.000000 0.000000
# 5 0.000000 0.000000 0.000000 0.000000 0.033471 0.000000
# 6 0.000000 0.000000 0.000000 0.000000 0.000000 -0.002416
#
#
# Mechanical properties :
#
#
# Convention : Reuss Voigt Hill
#
# Bulk Modulus (GPa) = 13.03025 47.21854 30.12439
# Shear Modulus (GPa) = 25.39986 -45.18441 -9.89228
#
# Velocity S-wave (km/s) = 3.56301 -4.75221 -2.22357
# Velocity P-wave (km/s) = 4.84142 2.55170 2.90931
#
# Compressibility (1/GPa) = 0.07674453
#
# Stress axis : x y z
#
# Youngs Moduli (GPa) = 95.16392 12.96849 63.01896
#
# Poissons Ratio (x) = 0.13305 0.43522
# Poissons Ratio (y) = 0.97634 -0.23914
# Poissons Ratio (z) = 0.65722 -0.04921
#
# Static dielectric constant tensor:
#      x y z
#    x 1.742710 0.000000 0.000000 
#    y 0.000000 1.753270 0.000000 
#    z 0.000000 0.000000 1.717540 
# 
# From -- ./inp_files/66796.got.cif
#   From: 2010.05.17/outbox.cif.g08.bks.cpg/sg71_34_cif.got.tgz:66796.got - 2010.06.03 16:22:01.
