data_PCOD9521051
_publ_section_title
;
Structure prediction by ZEFSAII (Michael W. Deem and Ramdas Pophale) SiO2 
 PCOD9521051
Probable space group: I M M M
;
_chemical_formula_sum "Si O2"
_cell_formula_units_Z 104
_cell_length_a 25.002873
_cell_length_b 29.210843
_cell_length_c 8.738054
_cell_angle_alpha 90.000000
_cell_angle_beta 90.000000
_cell_angle_gamma 90.000000
_cell_volume 6381.881410
_symmetry_space_group_name_H-M "I M M M"
_symmetry_group_IT_number 71
_symmetry_cell_setting 'orthorhombic'
loop_
_space_group_symop_operation_xyz
x,y,z
-x,-y,z
x,-y,-z
-x,y,-z
-x,-y,-z
x,y,-z
-x,y,z
x,-y,z
1/2+x,1/2+y,1/2+z
1/2-x,1/2-y,1/2+z
1/2+x,1/2-y,1/2-z
1/2-x,1/2+y,1/2-z
1/2-x,1/2-y,1/2-z
1/2+x,1/2+y,1/2-z
1/2-x,1/2+y,1/2+z
1/2+x,1/2-y,1/2+z
loop_
_atom_site_type_symbol
_atom_site_label
_atom_site_fract_x
_atom_site_fract_y
_atom_site_fract_z
Si Si1 0.561997 0.178450 0.812957
Si Si2 0.435110 0.279260 0.176376
Si Si3 0.561620 0.000000 0.186814
Si Si4 0.438070 0.624723 0.682290
Si Si5 0.627314 0.089872 0.186925
Si Si6 0.259567 0.946048 0.183430
Si Si7 0.355474 0.552775 0.817137
O O1 0.500000 0.171246 0.766727
O O2 0.581113 0.229062 0.764255
O O3 0.599176 0.136692 0.762981
O O4 0.561855 0.179348 0.000000
O O5 0.500000 0.277417 0.176078
O O6 0.419880 0.324366 0.268611
O O7 0.417742 0.284464 0.000000
O O8 0.592626 0.954223 0.234928
O O9 0.500000 0.000000 0.236125
O O10 0.561737 0.000000 0.000000
O O11 0.437023 0.621244 0.500000
O O12 0.500000 0.619105 0.733862
O O13 0.400096 0.586492 0.752790
O O14 0.688608 0.082325 0.234443
O O15 0.627133 0.089861 0.000000
O O16 0.203611 0.933566 0.260255
O O17 0.270097 0.000000 0.214430
O O18 0.254050 0.941385 0.000000
O O19 0.364290 0.500000 0.766141
O O20 0.356753 0.553695 0.000000
#
# Coordination Sequence:
#
# PCOD9521051 Si02
#       7
#    16  16   8  16  16  16  16
#     4   8  13  21  36  61  92 125 160 196 234 276
#     4   8  14  26  44  65  91 124 158 189 223 268
#     4   9  14  18  28  54  95 133 158 189 238 287
#     4  10  20  33  51  75  99 121 144 175 222 275
#     4   9  14  21  35  59  91 127 162 196 236 279
#     4   9  16  28  45  64  90 124 162 199 234 272
#     4  10  21  35  51  71  94 121 153 186 220 264
#
# _framework density 16.296135
#
# number of rings (size 3 to 8) (size 9 to 14) (size 15 to 20)
#    0.000    3.000    0.769    2.308    0.000    4.000 
#    0.000    1.538    0.000    1.846    0.000    0.000 
#    0.000    2.462    0.000    0.000    0.000    0.308 
#
# Total GULP energy -289629.885357 kJ/mol
# GULP energy per Si atom -5569.805488 kJ/mol
# Density = 1.625904 g / cm^3
# Si number density = 16.296135 Si / 1000 Ang^3
#
#
#
# Elastic Constant Matrix: (Units=GPa)
#
#
# Indices 1 2 3 4 5 6 
#
# 1 111.5697 92.8649 28.3590 0.0000 0.0000 0.0000
# 2 92.8649 139.7035 26.8262 0.0000 0.0000 0.0000
# 3 28.3590 26.8262 13.1163 0.0000 0.0000 0.0000
# 4 0.0000 0.0000 0.0000 8.2205 0.0000 0.0000
# 5 0.0000 0.0000 0.0000 0.0000 6.8959 0.0000
# 6 0.0000 0.0000 0.0000 0.0000 0.0000 9.9365
#
#
#
# Elastic Compliance Matrix: (Units=1/GPa)
#
#
# Indices 1 2 3 4 5 6 
#
# 1 0.027834 -0.011438 -0.036786 0.000000 0.000000 0.000000
# 2 -0.011438 0.016488 -0.008991 0.000000 0.000000 0.000000
# 3 -0.036786 -0.008991 0.174166 0.000000 0.000000 0.000000
# 4 0.000000 0.000000 0.000000 0.121647 0.000000 0.000000
# 5 0.000000 0.000000 0.000000 0.000000 0.145014 0.000000
# 6 0.000000 0.000000 0.000000 0.000000 0.000000 0.100639
#
#
# Mechanical properties :
#
#
# Convention : Reuss Voigt Hill
#
# Bulk Modulus (GPa) = 9.61010 62.27663 35.94336
# Shear Modulus (GPa) = 6.80360 12.76654 9.78507
#
# Velocity S-wave (km/s) = 2.04549 2.80198 2.45307
# Velocity P-wave (km/s) = 3.38950 6.98331 5.48887
#
# Compressibility (1/GPa) = 0.10405723
#
# Stress axis : x y z
#
# Youngs Moduli (GPa) = 35.92722 60.65065 5.74163
#
# Poissons Ratio (x) = 0.69374 0.21121
# Poissons Ratio (y) = 0.41095 0.05162
# Poissons Ratio (z) = 1.32163 0.54531
#
# Static dielectric constant tensor:
#      x y z
#    x 1.530050 0.000000 0.000000 
#    y 0.000000 1.554140 0.000000 
#    z 0.000000 0.000000 1.551440 
# 
# From -- ./inp_files/13622.got.cif
#   From: 2010.05.17/outbox.cif.g08.bks.cpg/sg71_7_cif.got.tgz:13622.got - 2010.06.03 16:22:01.
