data_PCOD9521401
_publ_section_title
;
Structure prediction by ZEFSAII (Michael W. Deem and Ramdas Pophale) SiO2 
 PCOD9521401
Probable space group: I M M M
;
_chemical_formula_sum "Si O2"
_cell_formula_units_Z 112
_cell_length_a 30.836100
_cell_length_b 14.200593
_cell_length_c 14.915898
_cell_angle_alpha 90.000000
_cell_angle_beta 90.000000
_cell_angle_gamma 90.000000
_cell_volume 6531.536086
_symmetry_space_group_name_H-M "I M M M"
_symmetry_group_IT_number 71
_symmetry_cell_setting 'orthorhombic'
loop_
_space_group_symop_operation_xyz
x,y,z
-x,-y,z
x,-y,-z
-x,y,-z
-x,-y,-z
x,y,-z
-x,y,z
x,-y,z
1/2+x,1/2+y,1/2+z
1/2-x,1/2-y,1/2+z
1/2+x,1/2-y,1/2-z
1/2-x,1/2+y,1/2-z
1/2-x,1/2-y,1/2-z
1/2+x,1/2+y,1/2-z
1/2-x,1/2+y,1/2+z
1/2+x,1/2-y,1/2+z
loop_
_atom_site_type_symbol
_atom_site_label
_atom_site_fract_x
_atom_site_fract_y
_atom_site_fract_z
Si Si1 0.450301 0.250112 0.105498
Si Si2 0.871841 0.889047 0.606677
Si Si3 0.667482 0.610945 0.396886
Si Si4 0.551213 0.890790 0.737594
Si Si5 0.114586 0.713943 0.104462
Si Si6 0.712218 0.613926 0.781414
Si Si7 0.793269 0.613030 0.103641
O O1 0.500000 0.282630 0.121620
O O2 0.414499 0.328619 0.127483
O O3 0.442942 0.158699 0.166240
O O4 0.446503 0.228617 0.000000
O O5 0.862925 0.880682 0.500000
O O6 0.830264 0.855404 0.662964
O O7 0.878827 0.000000 0.625580
O O8 0.680919 0.629753 0.500000
O O9 0.657681 0.500000 0.388767
O O10 0.626050 0.676717 0.378675
O O11 0.703615 0.634618 0.322783
O O12 0.500000 0.886732 0.716171
O O13 0.578870 0.831173 0.667297
O O14 0.564535 0.000000 0.737745
O O15 0.160533 0.661278 0.118850
O O16 0.102879 0.702396 0.000000
O O17 0.713228 0.500000 0.789639
O O18 0.756351 0.646755 0.827781
O O19 0.798303 0.500000 0.112476
O O20 0.780019 0.631205 0.000000
#
# Coordination Sequence:
#
# PCOD9521401 Si02
#       7
#    16  16  16  16  16  16  16
#     4   9  18  32  49  70  97 130 167 202 237 283
#     4   9  16  26  44  72 103 132 163 202 246 287
#     4   9  18  32  49  69  95 130 169 200 228 274
#     4  10  21  36  54  75  97 122 155 197 244 293
#     4  10  20  34  53  75  98 125 157 196 244 293
#     4   9  16  27  45  68  96 130 164 200 240 278
#     4   9  17  29  46  70  98 125 156 196 242 290
#
# _framework density 17.147573999999999
#
# number of rings (size 3 to 8) (size 9 to 14) (size 15 to 20)
#    0.000    2.714    0.000    1.714    0.000    4.000 
#    0.000    3.571    0.000    2.143    0.000    4.000 
#    0.000    0.000    0.000    0.000    0.000    0.000 
#
# Total GULP energy -312144.324459 kJ/mol
# GULP energy per Si atom -5574.005794 kJ/mol
# Density = 1.710855 g / cm^3
# Si number density = 17.147574 Si / 1000 Ang^3
#
#
#
# Elastic Constant Matrix: (Units=GPa)
#
#
# Indices 1 2 3 4 5 6 
#
# 1 49.3084 30.8824 39.3486 0.0000 0.0000 0.0000
# 2 30.8824 71.8887 37.3525 0.0000 0.0000 0.0000
# 3 39.3486 37.3525 66.7819 0.0000 0.0000 0.0000
# 4 0.0000 0.0000 0.0000 20.2009 0.0000 0.0000
# 5 0.0000 0.0000 0.0000 0.0000 23.5421 0.0000
# 6 0.0000 0.0000 0.0000 0.0000 0.0000 20.9190
#
#
#
# Elastic Compliance Matrix: (Units=1/GPa)
#
#
# Indices 1 2 3 4 5 6 
#
# 1 0.040684 -0.007079 -0.020012 0.000000 0.000000 0.000000
# 2 -0.007079 0.020841 -0.007486 0.000000 0.000000 0.000000
# 3 -0.020012 -0.007486 0.030952 0.000000 0.000000 0.000000
# 4 0.000000 0.000000 0.000000 0.049503 0.000000 0.000000
# 5 0.000000 0.000000 0.000000 0.000000 0.042477 0.000000
# 6 0.000000 0.000000 0.000000 0.000000 0.000000 0.047804
#
#
# Mechanical properties :
#
#
# Convention : Reuss Voigt Hill
#
# Bulk Modulus (GPa) = 42.87497 44.79399 43.83448
# Shear Modulus (GPa) = 16.17137 18.29208 17.23173
#
# Velocity S-wave (km/s) = 3.07428 3.26965 3.17347
# Velocity P-wave (km/s) = 6.13672 6.35873 6.24871
#
# Compressibility (1/GPa) = 0.02332363
#
# Stress axis : x y z
#
# Youngs Moduli (GPa) = 24.57970 47.98224 32.30804
#
# Poissons Ratio (x) = 0.33969 0.64654
# Poissons Ratio (y) = 0.17401 0.24184
# Poissons Ratio (z) = 0.49188 0.35917
#
# Static dielectric constant tensor:
#      x y z
#    x 1.554030 0.000000 0.000000 
#    y 0.000000 1.594040 0.000000 
#    z 0.000000 0.000000 1.596430 
# 
# From -- ./inp_files/35136.got.cif
#   From: 2010.05.17/outbox.cif.g08.bks.cpg/sg71_18_cif.got.tgz:35136.got - 2010.06.03 16:22:01.
