data_PCOD9521539
_publ_section_title
;
Structure prediction by ZEFSAII (Michael W. Deem and Ramdas Pophale) SiO2 
 PCOD9521539
Probable space group: I M M M
;
_chemical_formula_sum "Si O2"
_cell_formula_units_Z 112
_cell_length_a 14.955414
_cell_length_b 27.398992
_cell_length_c 14.075416
_cell_angle_alpha 90.000000
_cell_angle_beta 90.000000
_cell_angle_gamma 90.000000
_cell_volume 5767.588466
_symmetry_space_group_name_H-M "I M M M"
_symmetry_group_IT_number 71
_symmetry_cell_setting 'orthorhombic'
loop_
_space_group_symop_operation_xyz
x,y,z
-x,-y,z
x,-y,-z
-x,y,-z
-x,-y,-z
x,y,-z
-x,y,z
x,-y,z
1/2+x,1/2+y,1/2+z
1/2-x,1/2-y,1/2+z
1/2+x,1/2-y,1/2-z
1/2-x,1/2+y,1/2-z
1/2-x,1/2-y,1/2-z
1/2+x,1/2+y,1/2-z
1/2-x,1/2+y,1/2+z
1/2+x,1/2-y,1/2+z
loop_
_atom_site_type_symbol
_atom_site_label
_atom_site_fract_x
_atom_site_fract_y
_atom_site_fract_z
Si Si1 0.226220 0.276137 0.892104
Si Si2 0.102435 0.055213 0.310718
Si Si3 0.891187 0.726745 0.708542
Si Si4 0.324269 0.556396 0.605474
Si Si5 0.595886 0.057309 0.260805
Si Si6 0.237676 0.607719 0.105418
Si Si7 0.348234 0.123845 0.109405
O O1 0.150317 0.263074 0.813791
O O2 0.324734 0.258581 0.858277
O O3 0.226284 0.334578 0.893241
O O4 0.209068 0.258181 0.000000
O O5 0.113673 0.061253 0.197124
O O6 0.163026 0.093304 0.364892
O O7 0.000000 0.059434 0.337187
O O8 0.133868 0.000000 0.333076
O O9 0.867328 0.671534 0.673367
O O10 0.000000 0.733555 0.703702
O O11 0.365581 0.559864 0.500000
O O12 0.286899 0.500000 0.611091
O O13 0.250836 0.599523 0.612164
O O14 0.500000 0.067833 0.306730
O O15 0.673509 0.082513 0.319295
O O16 0.596329 0.080417 0.156639
O O17 0.609411 0.000000 0.257070
O O18 0.217492 0.589309 0.000000
O O19 0.369781 0.134744 0.000000
#
# Coordination Sequence:
#
# PCOD9521539 Si02
#       7
#    16  16  16  16  16  16  16
#     4  10  23  42  65  93 121 157 208 257 304 365
#     4  10  20  34  54  80 110 147 195 248 301 357
#     4  11  23  41  65  93 127 163 201 253 311 365
#     4   9  17  31  53  80 113 155 198 240 291 354
#     4  11  23  38  58  88 124 159 201 249 298 359
#     4  11  23  41  62  82 114 159 202 250 304 354
#     4  11  21  35  59  89 123 163 201 239 295 364
#
# _framework density 19.418861
#
# number of rings (size 3 to 8) (size 9 to 14) (size 15 to 20)
#    0.000    1.571    2.857    1.714    0.000    5.714 
#    0.000    6.429    0.000    0.000    0.000    4.000 
#    0.000    0.000    0.000    0.000    0.000    0.000 
#
# Total GULP energy -312137.348340 kJ/mol
# GULP energy per Si atom -5573.881220 kJ/mol
# Density = 1.937466 g / cm^3
# Si number density = 19.418861 Si / 1000 Ang^3
#
#
#
# Elastic Constant Matrix: (Units=GPa)
#
#
# Indices 1 2 3 4 5 6 
#
# 1 73.7380 18.2388 22.5133 0.0000 0.0001 0.0000
# 2 18.2388 24.7490 9.5768 0.0000 0.0004 0.0000
# 3 22.5133 9.5768 101.6048 0.0000 -0.0006 0.0000
# 4 0.0000 0.0000 0.0000 21.3825 -0.0001 0.0000
# 5 0.0001 0.0004 -0.0006 -0.0001 -545.7993 -0.0007
# 6 0.0000 0.0000 0.0000 0.0000 -0.0007 68.1857
#
#
#
# Elastic Compliance Matrix: (Units=1/GPa)
#
#
# Indices 1 2 3 4 5 6 
#
# 1 0.017284 -0.011682 -0.002729 0.000000 0.000000 0.000000
# 2 -0.011682 0.049830 -0.002108 0.000000 0.000000 0.000000
# 3 -0.002729 -0.002108 0.010645 0.000000 0.000000 0.000000
# 4 0.000000 0.000000 0.000000 0.046767 0.000000 0.000000
# 5 0.000000 0.000000 0.000000 0.000000 -0.001832 0.000000
# 6 0.000000 0.000000 0.000000 0.000000 0.000000 0.014666
#
#
# Mechanical properties :
#
#
# Convention : Reuss Voigt Hill
#
# Bulk Modulus (GPa) = 22.36016 33.41661 27.88838
# Shear Modulus (GPa) = 26.98248 -81.26202 -27.13977
#
# Velocity S-wave (km/s) = 3.73164 -6.47594 -3.74250
# Velocity P-wave (km/s) = 5.48694 6.21863 2.06940
#
# Compressibility (1/GPa) = 0.04472240
#
# Stress axis : x y z
#
# Youngs Moduli (GPa) = 57.85692 20.06809 93.93725
#
# Poissons Ratio (x) = 0.23443 0.25633
# Poissons Ratio (y) = 0.67586 0.19806
# Poissons Ratio (z) = 0.15787 0.04231
#
# Static dielectric constant tensor:
#      x y z
#    x 1.688750 0.000000 0.000000 
#    y 0.000000 1.672020 0.000000 
#    z 0.000000 0.000000 1.716750 
# 
# From -- ./inp_files/35102.got.cif
#   From: 2010.05.17/outbox.cif.g08.bks.cpg/sg71_18_cif.got.tgz:35102.got - 2010.06.03 16:22:01.
