data_PCOD9521200
_publ_section_title
;
Structure prediction by ZEFSAII (Michael W. Deem and Ramdas Pophale) SiO2 
 PCOD9521200
Probable space group: I M M M
;
_chemical_formula_sum "Si O2"
_cell_formula_units_Z 116
_cell_length_a 7.875885
_cell_length_b 25.332073
_cell_length_c 29.392448
_cell_angle_alpha 90.000000
_cell_angle_beta 90.000000
_cell_angle_gamma 90.000000
_cell_volume 5864.160598
_symmetry_space_group_name_H-M "I M M M"
_symmetry_group_IT_number 71
_symmetry_cell_setting 'orthorhombic'
loop_
_space_group_symop_operation_xyz
x,y,z
-x,-y,z
x,-y,-z
-x,y,-z
-x,-y,-z
x,y,-z
-x,y,z
x,-y,z
1/2+x,1/2+y,1/2+z
1/2-x,1/2-y,1/2+z
1/2+x,1/2-y,1/2-z
1/2-x,1/2+y,1/2-z
1/2-x,1/2-y,1/2-z
1/2+x,1/2+y,1/2-z
1/2-x,1/2+y,1/2+z
1/2+x,1/2-y,1/2+z
loop_
_atom_site_type_symbol
_atom_site_label
_atom_site_fract_x
_atom_site_fract_y
_atom_site_fract_z
Si Si1 0.197967 0.921440 0.814885
Si Si2 0.204051 0.219190 0.704284
Si Si3 0.697915 0.272099 0.551463
Si Si4 0.300317 0.942384 0.385595
Si Si5 0.300445 0.654087 0.051510
Si Si6 0.500000 0.000000 0.840663
Si Si7 0.795461 0.900758 0.289701
Si Si8 0.697675 0.812842 0.143582
O O1 0.241784 0.921250 0.760892
O O2 0.207662 0.861887 0.834042
O O3 0.000000 0.938854 0.819796
O O4 0.346697 0.954677 0.838492
O O5 0.250000 0.250000 0.750000
O O6 0.269203 0.159493 0.705194
O O7 0.263477 0.257416 0.664084
O O8 0.000000 0.214859 0.701074
O O9 0.764996 0.278485 0.500000
O O10 0.500000 0.285927 0.551625
O O11 0.714061 0.209766 0.562645
O O12 0.786013 0.307165 0.589612
O O13 0.500000 0.942750 0.394873
O O14 0.228210 0.892964 0.413291
O O15 0.273264 0.933764 0.331867
O O16 0.228842 0.000000 0.398598
O O17 0.500000 0.665782 0.051148
O O18 0.247929 0.638546 0.000000
O O19 0.000000 0.900586 0.293605
O O20 0.500000 0.817956 0.156305
#
# Coordination Sequence:
#
# PCOD9521200 Si02
#       8
#    16  16  16  16  16   4  16  16
#     4  11  24  41  64  91 121 165 212 261 313 363
#     4  10  20  33  53  81 117 156 196 242 298 367
#     4  10  21  37  61  93 127 161 198 244 303 372
#     4  11  25  39  56  80 109 152 204 259 314 366
#     4  10  21  39  61  84 113 151 197 250 311 376
#     4  12  26  44  64  86 125 166 215 264 306 364
#     4  10  22  38  56  83 118 157 205 253 307 364
#     4  11  21  36  60  92 128 165 205 251 304 370
#
# _framework density 19.781175999999999
#
# number of rings (size 3 to 8) (size 9 to 14) (size 15 to 20)
#    0.000    1.517    2.069    2.690    1.931    5.241 
#    0.000    1.379    0.000    0.000    0.000    0.966 
#    0.000    2.207    0.000    0.000    0.000    0.000 
#
# Total GULP energy -323397.183662 kJ/mol
# GULP energy per Si atom -5575.813511 kJ/mol
# Density = 1.973615 g / cm^3
# Si number density = 19.781176 Si / 1000 Ang^3
#
#
#
# Elastic Constant Matrix: (Units=GPa)
#
#
# Indices 1 2 3 4 5 6 
#
# 1 54.6214 3.4083 -2.1566 0.0000 0.0000 0.0000
# 2 3.4083 24.1626 0.4673 0.0000 0.0000 0.0000
# 3 -2.1566 0.4673 74.1631 0.0000 0.0000 0.0000
# 4 0.0000 0.0000 0.0000 24.8644 0.0000 0.0000
# 5 0.0000 0.0000 0.0000 0.0000 21.1283 0.0000
# 6 0.0000 0.0000 0.0000 0.0000 0.0000 96.9420
#
#
#
# Elastic Compliance Matrix: (Units=1/GPa)
#
#
# Indices 1 2 3 4 5 6 
#
# 1 0.018493 -0.002619 0.000554 0.000000 0.000000 0.000000
# 2 -0.002619 0.041762 -0.000339 0.000000 0.000000 0.000000
# 3 0.000554 -0.000339 0.013502 0.000000 0.000000 0.000000
# 4 0.000000 0.000000 0.000000 0.040218 0.000000 0.000000
# 5 0.000000 0.000000 0.000000 0.000000 0.047330 0.000000
# 6 0.000000 0.000000 0.000000 0.000000 0.000000 0.010315
#
#
# Mechanical properties :
#
#
# Convention : Reuss Voigt Hill
#
# Bulk Modulus (GPa) = 14.50350 17.37611 15.93981
# Shear Modulus (GPa) = 25.07364 38.66881 31.87123
#
# Velocity S-wave (km/s) = 3.56413 4.42614 4.01832
# Velocity P-wave (km/s) = 4.92801 5.90967 5.44102
#
# Compressibility (1/GPa) = 0.06894885
#
# Stress axis : x y z
#
# Youngs Moduli (GPa) = 54.07403 23.94504 74.06282
#
# Poissons Ratio (x) = 0.06272 -0.04105
# Poissons Ratio (y) = 0.14164 0.02513
# Poissons Ratio (z) = -0.02997 0.00812
#
# Static dielectric constant tensor:
#      x y z
#    x 1.705500 0.000000 0.000000 
#    y 0.000000 1.735120 0.000000 
#    z 0.000000 0.000000 1.701020 
# 
# From -- ./inp_files/63631.got.cif
#   From: 2010.05.17/outbox.cif.g08.bks.cpg/sg71_32_cif.got.tgz:63631.got - 2010.06.03 16:22:01.
