data_PCOD9521149
_publ_section_title
;
Structure prediction by ZEFSAII (Michael W. Deem and Ramdas Pophale) SiO2 
 PCOD9521149
Probable space group: I M M M
;
_chemical_formula_sum "Si O2"
_cell_formula_units_Z 88
_cell_length_a 20.178430
_cell_length_b 26.017877
_cell_length_c 7.648265
_cell_angle_alpha 90.000000
_cell_angle_beta 90.000000
_cell_angle_gamma 90.000000
_cell_volume 4015.338435
_symmetry_space_group_name_H-M "I M M M"
_symmetry_group_IT_number 71
_symmetry_cell_setting 'orthorhombic'
loop_
_space_group_symop_operation_xyz
x,y,z
-x,-y,z
x,-y,-z
-x,y,-z
-x,-y,-z
x,y,-z
-x,y,z
x,-y,z
1/2+x,1/2+y,1/2+z
1/2-x,1/2-y,1/2+z
1/2+x,1/2-y,1/2-z
1/2-x,1/2+y,1/2-z
1/2-x,1/2-y,1/2-z
1/2+x,1/2+y,1/2-z
1/2-x,1/2+y,1/2+z
1/2+x,1/2-y,1/2+z
loop_
_atom_site_type_symbol
_atom_site_label
_atom_site_fract_x
_atom_site_fract_y
_atom_site_fract_z
Si Si1 0.676535 0.589343 0.297523
Si Si2 0.926289 0.755091 0.296953
Si Si3 0.577995 0.500000 0.285808
Si Si4 0.707292 0.700392 0.691460
Si Si5 0.926415 0.636433 0.788255
Si Si6 0.181414 0.444175 0.788997
O O1 0.657792 0.599887 0.500000
O O2 0.618902 0.551308 0.227598
O O3 0.697627 0.644906 0.215823
O O4 0.745638 0.559395 0.288920
O O5 0.919113 0.769982 0.500000
O O6 0.867474 0.779329 0.190026
O O7 0.920511 0.693718 0.283589
O O8 0.000000 0.769383 0.236711
O O9 0.500000 0.500000 0.236259
O O10 0.580668 0.500000 0.500000
O O11 0.735034 0.688492 0.500000
O O12 0.750000 0.750000 0.750000
O O13 0.867227 0.600470 0.727783
O O14 0.000000 0.616758 0.743138
O O15 0.923108 0.639859 0.000000
O O16 0.152064 0.500000 0.750248
O O17 0.188019 0.439969 0.000000
#
# Coordination Sequence:
#
# PCOD9521149 Si02
#       6
#    16  16   8  16  16  16
#     4  10  21  37  58  82 108 142 184 230 282 341
#     4  10  21  37  56  79 110 147 185 227 279 336
#     4   9  18  36  61  85 108 137 180 236 289 335
#     4  11  23  37  57  86 116 150 192 237 287 344
#     4   9  18  33  53  77 107 145 187 228 268 316
#     4  10  20  33  52  78 108 143 179 220 273 328
#
# _framework density 21.915962
#
# number of rings (size 3 to 8) (size 9 to 14) (size 15 to 20)
#    0.000    2.091    0.909    2.182    0.000    7.273 
#    0.000    3.636    0.000    1.091    0.000    3.818 
#    0.000    0.000    0.000    0.000    0.000    0.000 
#
# Total GULP energy -245336.014981 kJ/mol
# GULP energy per Si atom -5575.818522 kJ/mol
# Density = 2.186608 g / cm^3
# Si number density = 21.915962 Si / 1000 Ang^3
#
#
#
# Elastic Constant Matrix: (Units=GPa)
#
#
# Indices 1 2 3 4 5 6 
#
# 1 96.1942 47.1685 5.3220 0.0000 0.0000 0.0000
# 2 47.1685 120.9267 7.8169 0.0000 0.0000 0.0000
# 3 5.3220 7.8169 40.8655 0.0000 0.0000 0.0000
# 4 0.0000 0.0000 0.0000 7.6885 0.0000 0.0000
# 5 0.0000 0.0000 0.0000 0.0000 11.4008 0.0000
# 6 0.0000 0.0000 0.0000 0.0000 0.0000 43.9990
#
#
#
# Elastic Compliance Matrix: (Units=1/GPa)
#
#
# Indices 1 2 3 4 5 6 
#
# 1 0.012875 -0.004975 -0.000725 0.000000 0.000000 0.000000
# 2 -0.004975 0.010296 -0.001321 0.000000 0.000000 0.000000
# 3 -0.000725 -0.001321 0.024818 0.000000 0.000000 0.000000
# 4 0.000000 0.000000 0.000000 0.130064 0.000000 0.000000
# 5 0.000000 0.000000 0.000000 0.000000 0.087713 0.000000
# 6 0.000000 0.000000 0.000000 0.000000 0.000000 0.022728
#
#
# Mechanical properties :
#
#
# Convention : Reuss Voigt Hill
#
# Bulk Modulus (GPa) = 29.45939 42.06680 35.76309
# Shear Modulus (GPa) = 15.93107 25.79627 20.86367
#
# Velocity S-wave (km/s) = 2.69906 3.43454 3.08877
# Velocity P-wave (km/s) = 4.81502 5.91307 5.39207
#
# Compressibility (1/GPa) = 0.03394504
#
# Stress axis : x y z
#
# Youngs Moduli (GPa) = 77.66773 97.12948 40.29376
#
# Poissons Ratio (x) = 0.48325 0.02922
# Poissons Ratio (y) = 0.38642 0.05325
# Poissons Ratio (z) = 0.05632 0.12835
#
# Static dielectric constant tensor:
#      x y z
#    x 1.767770 0.000000 0.000000 
#    y 0.000000 1.837370 0.000000 
#    z 0.000000 0.000000 1.876570 
# 
# From -- ./inp_files/10383.got.cif
#   From: 2010.05.17/outbox.cif.g08.bks.cpg/sg71_6_cif.got.tgz:10383.got - 2010.06.03 16:22:01.
