data_PCOD9521762
_publ_section_title
;
Structure prediction by ZEFSAII (Michael W. Deem and Ramdas Pophale) SiO2 
 PCOD9521762
Probable space group: I M M M
;
_chemical_formula_sum "Si O2"
_cell_formula_units_Z 68
_cell_length_a 19.207374
_cell_length_b 21.278701
_cell_length_c 7.227953
_cell_angle_alpha 90.000000
_cell_angle_beta 90.000000
_cell_angle_gamma 90.000000
_cell_volume 2954.121986
_symmetry_space_group_name_H-M "I M M M"
_symmetry_group_IT_number 71
_symmetry_cell_setting 'orthorhombic'
loop_
_space_group_symop_operation_xyz
x,y,z
-x,-y,z
x,-y,-z
-x,y,-z
-x,-y,-z
x,y,-z
-x,y,z
x,-y,z
1/2+x,1/2+y,1/2+z
1/2-x,1/2-y,1/2+z
1/2+x,1/2-y,1/2-z
1/2-x,1/2+y,1/2-z
1/2-x,1/2-y,1/2-z
1/2+x,1/2+y,1/2-z
1/2-x,1/2+y,1/2+z
1/2+x,1/2-y,1/2+z
loop_
_atom_site_type_symbol
_atom_site_label
_atom_site_fract_x
_atom_site_fract_y
_atom_site_fract_z
Si Si1 0.713364 0.385674 0.225624
Si Si2 0.418566 0.932189 0.724055
Si Si3 0.748238 0.500000 0.500000
Si Si4 0.921736 0.820376 0.713799
Si Si5 0.340339 0.807406 0.278341
O O1 0.741730 0.444521 0.337687
O O2 0.634527 0.370146 0.285773
O O3 0.760732 0.323976 0.269805
O O4 0.717338 0.394587 0.000000
O O5 0.413690 0.933119 0.500000
O O6 0.500000 0.928855 0.770319
O O7 0.380636 0.870017 0.786677
O O8 0.391580 0.000000 0.792052
O O9 0.929273 0.837246 0.500000
O O10 0.882183 0.753512 0.716733
O O11 0.000000 0.817080 0.792637
O O12 0.343564 0.805154 0.500000
#
# Coordination Sequence:
#
# PCOD9521762 Si02
#       5
#    16  16   4  16  16
#     4  10  24  44  66  98 135 171 223 278 335 400
#     4   8  14  25  43  73 113 156 204 254 307 371
#     4  12  26  44  73 100 129 182 218 278 346 392
#     4  10  22  41  64  92 132 176 218 276 339 394
#     4  10  20  34  60  91 126 171 215 269 326 390
#
# _framework density 23.018682999999999
#
# number of rings (size 3 to 8) (size 9 to 14) (size 15 to 20)
#    0.000    2.353    0.000    2.471    4.941    1.412 
#    0.000    1.176    0.000    2.824    0.000    4.941 
#    0.000    0.000    0.000    0.000    0.000    0.000 
#
# Total GULP energy -189361.493322 kJ/mol
# GULP energy per Si atom -5569.455686 kJ/mol
# Density = 2.296629 g / cm^3
# Si number density = 23.018683 Si / 1000 Ang^3
#
#
#
# Elastic Constant Matrix: (Units=GPa)
#
#
# Indices 1 2 3 4 5 6 
#
# 1 129.7822 18.3337 6.0001 0.0000 0.0000 0.0000
# 2 18.3337 66.4461 0.3703 0.0000 0.0000 0.0000
# 3 6.0001 0.3703 123.7917 0.0000 0.0000 0.0000
# 4 0.0000 0.0000 0.0000 36.7790 0.0000 0.0000
# 5 0.0000 0.0000 0.0000 0.0000 -5.0960 0.0000
# 6 0.0000 0.0000 0.0000 0.0000 0.0000 25.2158
#
#
#
# Elastic Compliance Matrix: (Units=1/GPa)
#
#
# Indices 1 2 3 4 5 6 
#
# 1 0.008036 -0.002215 -0.000383 0.000000 0.000000 0.000000
# 2 -0.002215 0.015661 0.000061 0.000000 0.000000 0.000000
# 3 -0.000383 0.000061 0.008096 0.000000 0.000000 0.000000
# 4 0.000000 0.000000 0.000000 0.027189 0.000000 0.000000
# 5 0.000000 0.000000 0.000000 0.000000 -0.196231 0.000000
# 6 0.000000 0.000000 0.000000 0.000000 0.000000 0.039658
#
#
# Mechanical properties :
#
#
# Convention : Reuss Voigt Hill
#
# Bulk Modulus (GPa) = 37.42791 41.04759 39.23775
# Shear Modulus (GPa) = -59.80161 31.06747 -14.36707
#
# Velocity S-wave (km/s) = -5.10255 3.67776 -2.50101
# Velocity P-wave (km/s) = 4.29180 5.99213 2.95686
#
# Compressibility (1/GPa) = 0.02671803
#
# Stress axis : x y z
#
# Youngs Moduli (GPa) = 124.44258 63.85438 123.51068
#
# Poissons Ratio (x) = 0.14144 0.04729
# Poissons Ratio (y) = 0.27565 -0.00747
# Poissons Ratio (z) = 0.04764 -0.00386
#
# Static dielectric constant tensor:
#      x y z
#    x 1.920910 0.000000 0.000000 
#    y 0.000000 1.820650 0.000000 
#    z 0.000000 0.000000 1.929220 
# 
# From -- ./inp_files/7617.got.cif
#   From: 2010.05.17/outbox.cif.g08.bks.cpg/sg71_4_cif.got.tgz:7617.got - 2010.06.03 16:22:01.
