data_PCOD9521136
_publ_section_title
;
Structure prediction by ZEFSAII (Michael W. Deem and Ramdas Pophale) SiO2 
 PCOD9521136
Probable space group: I M M M
;
_chemical_formula_sum "Si O2"
_cell_formula_units_Z 56
_cell_length_a 16.333206
_cell_length_b 13.769611
_cell_length_c 13.815197
_cell_angle_alpha 90.000000
_cell_angle_beta 90.000000
_cell_angle_gamma 90.000000
_cell_volume 3107.063958
_symmetry_space_group_name_H-M "I M M M"
_symmetry_group_IT_number 71
_symmetry_cell_setting 'orthorhombic'
loop_
_space_group_symop_operation_xyz
x,y,z
-x,-y,z
x,-y,-z
-x,y,-z
-x,-y,-z
x,y,-z
-x,y,z
x,-y,z
1/2+x,1/2+y,1/2+z
1/2-x,1/2-y,1/2+z
1/2+x,1/2-y,1/2-z
1/2-x,1/2+y,1/2-z
1/2-x,1/2-y,1/2-z
1/2+x,1/2+y,1/2-z
1/2-x,1/2+y,1/2+z
1/2+x,1/2-y,1/2+z
loop_
_atom_site_type_symbol
_atom_site_label
_atom_site_fract_x
_atom_site_fract_y
_atom_site_fract_z
Si Si1 0.000000 0.616828 0.390548
Si Si2 0.168988 0.383997 0.718612
Si Si3 0.243892 0.273739 0.885389
Si Si4 0.910063 0.111960 0.617014
O O1 0.917102 0.638705 0.333492
O O2 0.000000 0.500000 0.400068
O O3 0.000000 0.658583 0.500000
O O4 0.177356 0.500000 0.727823
O O5 0.177241 0.330309 0.821742
O O6 0.239437 0.335119 0.652107
O O7 0.329450 0.328195 0.859228
O O8 0.230599 0.278140 0.000000
O O9 0.912420 0.110898 0.500000
O O10 0.000000 0.147603 0.649998
O O11 0.901085 0.000000 0.648830
#
# Coordination Sequence:
#
# PCOD9521136 Si02
#       4
#     8  16  16  16
#     4   9  18  34  55  77 104 137 173 219 271 321
#     4  10  21  35  52  79 111 142 181 225 270 324
#     4  10  20  33  52  77 107 143 181 225 273 319
#     4   8  14  25  43  69  99 131 168 210 258 307
#
# _framework density 18.023446
#
# number of rings (size 3 to 8) (size 9 to 14) (size 15 to 20)
#    0.000    2.714    0.000    2.571    2.000    3.429 
#    0.000    0.714    0.000    2.571    0.000    0.000 
#    0.000    5.143    0.000    0.000    0.000    0.000 
#
# Total GULP energy -156059.818681 kJ/mol
# GULP energy per Si atom -5573.564953 kJ/mol
# Density = 1.798242 g / cm^3
# Si number density = 18.023446 Si / 1000 Ang^3
#
#
#
# Elastic Constant Matrix: (Units=GPa)
#
#
# Indices 1 2 3 4 5 6 
#
# 1 59.9281 30.9768 52.8618 0.0000 0.0000 0.0000
# 2 30.9768 95.6563 46.2499 0.0000 0.0000 0.0000
# 3 52.8618 46.2499 140.5587 0.0000 0.0000 0.0000
# 4 0.0000 0.0000 0.0000 20.9064 0.0000 0.0000
# 5 0.0000 0.0000 0.0000 0.0000 26.6094 0.0000
# 6 0.0000 0.0000 0.0000 0.0000 0.0000 22.9938
#
#
#
# Elastic Compliance Matrix: (Units=1/GPa)
#
#
# Indices 1 2 3 4 5 6 
#
# 1 0.026487 -0.004473 -0.008490 0.000000 0.000000 0.000000
# 2 -0.004473 0.013187 -0.002657 0.000000 0.000000 0.000000
# 3 -0.008490 -0.002657 0.011182 0.000000 0.000000 0.000000
# 4 0.000000 0.000000 0.000000 0.047832 0.000000 0.000000
# 5 0.000000 0.000000 0.000000 0.000000 0.037581 0.000000
# 6 0.000000 0.000000 0.000000 0.000000 0.000000 0.043490
#
#
# Mechanical properties :
#
#
# Convention : Reuss Voigt Hill
#
# Bulk Modulus (GPa) = 50.97584 61.81334 56.39459
# Shear Modulus (GPa) = 22.98460 25.17223 24.07841
#
# Velocity S-wave (km/s) = 3.57495 3.74122 3.65903
# Velocity P-wave (km/s) = 6.73683 7.28236 7.01490
#
# Compressibility (1/GPa) = 0.01961714
#
# Stress axis : x y z
#
# Youngs Moduli (GPa) = 37.75394 75.83117 89.43270
#
# Poissons Ratio (x) = 0.33917 0.75926
# Poissons Ratio (y) = 0.16886 0.23763
# Poissons Ratio (z) = 0.32052 0.20149
#
# Static dielectric constant tensor:
#      x y z
#    x 1.640720 0.000000 0.000000 
#    y 0.000000 1.685390 0.000000 
#    z 0.000000 0.000000 1.605310 
# 
# From -- ./inp_files/33698.got.cif
#   From: 2010.05.17/outbox.cif.g08.bks.cpg/sg71_17_cif.got.tgz:33698.got - 2010.06.03 16:22:01.
