data_PCOD9521759
_publ_section_title
;
Structure prediction by ZEFSAII (Michael W. Deem and Ramdas Pophale) SiO2 
 PCOD9521759
Probable space group: I M M M
;
_chemical_formula_sum "Si O2"
_cell_formula_units_Z 66
_cell_length_a 7.823453
_cell_length_b 24.191325
_cell_length_c 16.784246
_cell_angle_alpha 90.000000
_cell_angle_beta 90.000000
_cell_angle_gamma 90.000000
_cell_volume 3176.581264
_symmetry_space_group_name_H-M "I M M M"
_symmetry_group_IT_number 71
_symmetry_cell_setting 'orthorhombic'
loop_
_space_group_symop_operation_xyz
x,y,z
-x,-y,z
x,-y,-z
-x,y,-z
-x,-y,-z
x,y,-z
-x,y,z
x,-y,z
1/2+x,1/2+y,1/2+z
1/2-x,1/2-y,1/2+z
1/2+x,1/2-y,1/2-z
1/2-x,1/2+y,1/2-z
1/2-x,1/2-y,1/2-z
1/2+x,1/2+y,1/2-z
1/2-x,1/2+y,1/2+z
1/2+x,1/2-y,1/2+z
loop_
_atom_site_type_symbol
_atom_site_label
_atom_site_fract_x
_atom_site_fract_y
_atom_site_fract_z
Si Si1 0.793700 0.384917 0.173020
Si Si2 0.704548 0.774887 0.588563
Si Si3 0.202691 0.000000 0.409494
Si Si4 0.203617 0.662577 0.660970
Si Si5 0.793000 0.404762 0.500000
Si Si6 0.000000 0.000000 0.000000
O O1 0.731650 0.334412 0.117719
O O2 0.749873 0.444590 0.138253
O O3 0.729675 0.370235 0.261924
O O4 0.000000 0.382829 0.174551
O O5 0.771917 0.761375 0.500000
O O6 0.500000 0.778919 0.583253
O O7 0.740064 0.725709 0.649948
O O8 0.275692 0.000000 0.500000
O O9 0.000000 0.000000 0.416441
O O10 0.241179 0.630936 0.579200
O O11 0.000000 0.664187 0.669033
O O12 0.653776 0.452805 0.500000
O O13 0.000000 0.419509 0.500000
#
# Coordination Sequence:
#
# PCOD9521759 Si02
#       6
#    16  16   8  16   8   2
#     4  10  22  40  62  90 120 162 209 255 314 374
#     4  10  20  34  59  91 123 157 205 260 313 380
#     4  11  25  44  63  88 122 157 198 251 308 377
#     4  10  21  38  61  88 126 165 205 259 321 370
#     4  10  23  43  63  94 131 174 223 272 317 385
#     4  12  26  40  68  90 120 176 224 258 328 370
#
# _framework density 20.777052999999999
#
# number of rings (size 3 to 8) (size 9 to 14) (size 15 to 20)
#    0.000    1.818    1.212    2.000    1.697    4.848 
#    2.182    3.636    0.000    0.000    0.000    0.000 
#    0.000    0.000    0.000    0.000    0.000    0.000 
#
# Total GULP energy -183959.520004 kJ/mol
# GULP energy per Si atom -5574.530909 kJ/mol
# Density = 2.072976 g / cm^3
# Si number density = 20.777053 Si / 1000 Ang^3
#
#
#
# Elastic Constant Matrix: (Units=GPa)
#
#
# Indices 1 2 3 4 5 6 
#
# 1 24.3180 26.9969 12.4909 0.0000 0.0000 0.0000
# 2 26.9969 210.6664 97.6227 0.0000 0.0000 0.0000
# 3 12.4909 97.6227 165.6405 -0.0001 0.0000 0.0000
# 4 0.0000 0.0000 -0.0001 41.7529 0.0000 0.0000
# 5 0.0000 0.0000 0.0000 0.0000 -1.5264 0.0000
# 6 0.0000 0.0000 0.0000 0.0000 0.0000 42.2147
#
#
#
# Elastic Compliance Matrix: (Units=1/GPa)
#
#
# Indices 1 2 3 4 5 6 
#
# 1 0.047943 -0.006147 0.000008 0.000000 0.000000 0.000000
# 2 -0.006147 0.007319 -0.003850 0.000000 0.000000 0.000000
# 3 0.000008 -0.003850 0.008305 0.000000 0.000000 0.000000
# 4 0.000000 0.000000 0.000000 0.023950 0.000000 0.000000
# 5 0.000000 0.000000 0.000000 0.000000 -0.655116 0.000000
# 6 0.000000 0.000000 0.000000 0.000000 0.000000 0.023688
#
#
# Mechanical properties :
#
#
# Convention : Reuss Voigt Hill
#
# Bulk Modulus (GPa) = 22.94222 74.98287 48.96255
# Shear Modulus (GPa) = -9.81542 34.05585 12.12021
#
# Velocity S-wave (km/s) = -2.17587 4.05298 2.41788
# Velocity P-wave (km/s) = 2.18025 7.62036 5.60461
#
# Compressibility (1/GPa) = 0.04358775
#
# Stress axis : x y z
#
# Youngs Moduli (GPa) = 20.85832 136.63794 120.40219
#
# Poissons Ratio (x) = 0.83997 -0.00093
# Poissons Ratio (y) = 0.12823 0.46352
# Poissons Ratio (z) = -0.00016 0.52602
#
# Static dielectric constant tensor:
#      x y z
#    x 1.748840 0.000000 0.000000 
#    y 0.000000 1.710260 0.000000 
#    z 0.000000 0.000000 1.780720 
# 
# From -- ./inp_files/41961.got.cif
#   From: 2010.05.17/outbox.cif.g08.bks.cpg/sg71_21_cif.got.tgz:41961.got - 2010.06.03 16:22:01.
