data_PCOD9521052
_publ_section_title
;
Structure prediction by ZEFSAII (Michael W. Deem and Ramdas Pophale) SiO2 
 PCOD9521052
Probable space group: I M M M
;
_chemical_formula_sum "Si O2"
_cell_formula_units_Z 80
_cell_length_a 8.047697
_cell_length_b 14.632739
_cell_length_c 30.181940
_cell_angle_alpha 90.000000
_cell_angle_beta 90.000000
_cell_angle_gamma 90.000000
_cell_volume 3554.220720
_symmetry_space_group_name_H-M "I M M M"
_symmetry_group_IT_number 71
_symmetry_cell_setting 'orthorhombic'
loop_
_space_group_symop_operation_xyz
x,y,z
-x,-y,z
x,-y,-z
-x,y,-z
-x,-y,-z
x,y,-z
-x,y,z
x,-y,z
1/2+x,1/2+y,1/2+z
1/2-x,1/2-y,1/2+z
1/2+x,1/2-y,1/2-z
1/2-x,1/2+y,1/2-z
1/2-x,1/2-y,1/2-z
1/2+x,1/2+y,1/2-z
1/2-x,1/2+y,1/2+z
1/2+x,1/2-y,1/2+z
loop_
_atom_site_type_symbol
_atom_site_label
_atom_site_fract_x
_atom_site_fract_y
_atom_site_fract_z
Si Si1 0.690116 0.393003 0.353887
Si Si2 0.805462 0.141845 0.952374
Si Si3 0.677830 0.393643 0.855674
Si Si4 0.805880 0.638141 0.048629
Si Si5 0.500000 0.887635 0.202823
Si Si6 0.000000 0.612297 0.194515
O O1 0.500000 0.354725 0.352142
O O2 0.674173 0.500000 0.343145
O O3 0.757168 0.387668 0.404501
O O4 0.831822 0.355658 0.321585
O O5 0.800228 0.251779 0.951912
O O6 0.000000 0.114131 0.952743
O O7 0.732699 0.111915 0.000000
O O8 0.500000 0.350801 0.845235
O O9 0.670734 0.500000 0.842408
O O10 0.708028 0.392037 0.908335
O O11 0.836966 0.353961 0.831151
O O12 0.000000 0.611603 0.053537
O O13 0.748043 0.607105 0.000000
O O14 0.500000 0.862031 0.254279
O O15 0.500000 0.000000 0.200768
O O16 0.000000 0.500000 0.192041
#
# Coordination Sequence:
#
# PCOD9521052 Si02
#       6
#    16  16  16  16   8   8
#     4   9  17  30  50  76 102 131 166 204 248 290
#     4   8  15  29  49  74 102 135 171 201 238 291
#     4  10  20  33  51  76 100 126 164 206 249 295
#     4   9  17  31  51  73 100 136 170 199 239 293
#     4   9  18  32  51  75 101 127 163 208 250 298
#     4   9  18  34  53  73  99 129 161 204 256 300
#
# _framework density 22.508448999999999
#
# number of rings (size 3 to 8) (size 9 to 14) (size 15 to 20)
#    0.000    3.000    1.000    1.200    0.000    2.000 
#    1.800    8.500    0.000    3.000    0.000    0.000 
#    0.000    0.000    0.000    0.000    0.000    0.000 
#
# Total GULP energy -223136.834101 kJ/mol
# GULP energy per Si atom -5578.420853 kJ/mol
# Density = 2.245722 g / cm^3
# Si number density = 22.508449 Si / 1000 Ang^3
#
#
#
# Elastic Constant Matrix: (Units=GPa)
#
#
# Indices 1 2 3 4 5 6 
#
# 1 157.4185 13.4164 108.7828 0.0000 0.0000 0.0000
# 2 13.4164 54.5301 -6.2072 0.0000 0.0000 0.0000
# 3 108.7828 -6.2072 166.3517 0.0000 0.0000 0.0000
# 4 0.0000 0.0000 0.0000 31.1419 0.0000 0.0000
# 5 0.0000 0.0000 0.0000 0.0000 -16.5428 0.0000
# 6 0.0000 0.0000 0.0000 0.0000 0.0000 10.9907
#
#
#
# Elastic Compliance Matrix: (Units=1/GPa)
#
#
# Indices 1 2 3 4 5 6 
#
# 1 0.012398 -0.003990 -0.008256 0.000000 0.000000 0.000000
# 2 -0.003990 0.019701 0.003344 0.000000 0.000000 0.000000
# 3 -0.008256 0.003344 0.011535 0.000000 0.000000 0.000000
# 4 0.000000 0.000000 0.000000 0.032111 0.000000 0.000000
# 5 0.000000 0.000000 0.000000 0.000000 -0.060449 0.000000
# 6 0.000000 0.000000 0.000000 0.000000 0.000000 0.090986
#
#
# Mechanical properties :
#
#
# Convention : Reuss Voigt Hill
#
# Bulk Modulus (GPa) = 38.71475 67.80937 53.26206
# Shear Modulus (GPa) = 37.67985 22.60516 30.14250
#
# Velocity S-wave (km/s) = 4.09593 3.17250 3.66343
# Velocity P-wave (km/s) = 6.29335 6.60388 6.45049
#
# Compressibility (1/GPa) = 0.02582995
#
# Stress axis : x y z
#
# Youngs Moduli (GPa) = 80.65752 50.75905 86.69048
#
# Poissons Ratio (x) = 0.20254 0.71575
# Poissons Ratio (y) = 0.32184 -0.28993
# Poissons Ratio (z) = 0.66594 -0.16976
#
# Static dielectric constant tensor:
#      x y z
#    x 1.843360 0.000000 0.000000 
#    y 0.000000 1.863630 0.000000 
#    z 0.000000 0.000000 1.807930 
# 
# From -- ./inp_files/42397.got.cif
#   From: 2010.05.17/outbox.cif.g08.bks.cpg/sg71_22_cif.got.tgz:42397.got - 2010.06.03 16:22:01.
