data_PCOD9521699
_publ_section_title
;
Structure prediction by ZEFSAII (Michael W. Deem and Ramdas Pophale) SiO2 
 PCOD9521699
Probable space group: I M M M
;
_chemical_formula_sum "Si O2"
_cell_formula_units_Z 66
_cell_length_a 7.321032
_cell_length_b 22.656292
_cell_length_c 18.178197
_cell_angle_alpha 90.000000
_cell_angle_beta 90.000000
_cell_angle_gamma 90.000000
_cell_volume 3015.170977
_symmetry_space_group_name_H-M "I M M M"
_symmetry_group_IT_number 71
_symmetry_cell_setting 'orthorhombic'
loop_
_space_group_symop_operation_xyz
x,y,z
-x,-y,z
x,-y,-z
-x,y,-z
-x,-y,-z
x,y,-z
-x,y,z
x,-y,z
1/2+x,1/2+y,1/2+z
1/2-x,1/2-y,1/2+z
1/2+x,1/2-y,1/2-z
1/2-x,1/2+y,1/2-z
1/2-x,1/2-y,1/2-z
1/2+x,1/2+y,1/2-z
1/2-x,1/2+y,1/2+z
1/2+x,1/2-y,1/2+z
loop_
_atom_site_type_symbol
_atom_site_label
_atom_site_fract_x
_atom_site_fract_y
_atom_site_fract_z
Si Si1 0.287014 0.378766 0.212396
Si Si2 0.277563 0.432245 0.500000
Si Si3 0.275648 0.500000 0.138366
Si Si4 0.776824 0.156797 0.127550
Si Si5 0.000000 0.500000 0.000000
Si Si6 0.720101 0.212380 0.581758
O O1 0.500000 0.387968 0.227205
O O2 0.221312 0.441559 0.183462
O O3 0.211810 0.355329 0.289638
O O4 0.270729 0.331623 0.146918
O O5 0.216392 0.500000 0.500000
O O6 0.500000 0.433293 0.500000
O O7 0.222043 0.394776 0.428431
O O8 0.500000 0.500000 0.127275
O O9 0.160981 0.500000 0.063920
O O10 0.718333 0.221133 0.099301
O O11 0.000000 0.158520 0.126669
O O12 0.782339 0.194024 0.500000
O O13 0.500000 0.212866 0.579918
#
# Coordination Sequence:
#
# PCOD9521699 Si02
#       6
#    16   8   8  16   2  16
#     4  10  22  37  56  82 119 155 193 250 312 361
#     4   9  16  26  51  84 111 145 188 234 292 366
#     4  10  25  43  63  97 127 161 209 265 308 371
#     4   9  17  33  53  81 117 150 191 248 305 359
#     4  12  26  44  72  82 128 166 214 248 322 374
#     4  10  20  34  56  83 113 150 200 250 296 360
#
# _framework density 21.889306999999999
#
# number of rings (size 3 to 8) (size 9 to 14) (size 15 to 20)
#    0.000    2.303    1.212    0.909    5.091    0.485 
#    0.000    0.000    0.000    0.000    0.000    0.000 
#    0.000    2.909    0.000    0.121    0.000    0.000 
#
# Total GULP energy -184105.224134 kJ/mol
# GULP energy per Si atom -5578.946186 kJ/mol
# Density = 2.183949 g / cm^3
# Si number density = 21.889307 Si / 1000 Ang^3
#
#
#
# Elastic Constant Matrix: (Units=GPa)
#
#
# Indices 1 2 3 4 5 6 
#
# 1 89.3122 -18.2696 -9.0940 0.0000 0.0000 0.0000
# 2 -18.2696 148.3322 66.8030 0.0001 0.0000 0.0000
# 3 -9.0940 66.8030 189.3203 0.0002 0.0000 0.0000
# 4 0.0000 0.0001 0.0002 -241.9925 0.0000 0.0001
# 5 0.0000 0.0000 0.0000 0.0000 3.2639 0.0000
# 6 0.0000 0.0000 0.0000 0.0001 0.0000 58.4825
#
#
#
# Elastic Compliance Matrix: (Units=1/GPa)
#
#
# Indices 1 2 3 4 5 6 
#
# 1 0.011487 0.001387 0.000062 0.000000 0.000000 0.000000
# 2 0.001387 0.008183 -0.002821 0.000000 0.000000 0.000000
# 3 0.000062 -0.002821 0.006280 0.000000 0.000000 0.000000
# 4 0.000000 0.000000 0.000000 -0.004132 0.000000 0.000000
# 5 0.000000 0.000000 0.000000 0.000000 0.306384 0.000000
# 6 0.000000 0.000000 0.000000 0.000000 0.000000 0.017099
#
#
# Mechanical properties :
#
#
# Convention : Reuss Voigt Hill
#
# Bulk Modulus (GPa) = 43.09120 56.20481 49.64801
# Shear Modulus (GPa) = 14.05364 -10.21421 1.91971
#
# Velocity S-wave (km/s) = 2.53658 -2.16251 0.93750
# Velocity P-wave (km/s) = 5.32050 4.41558 4.88902
#
# Compressibility (1/GPa) = 0.02320659
#
# Stress axis : x y z
#
# Youngs Moduli (GPa) = 87.05730 122.20809 159.22625
#
# Poissons Ratio (x) = -0.16946 -0.00995
# Poissons Ratio (y) = -0.12072 0.44914
# Poissons Ratio (z) = -0.00544 0.34472
#
# Static dielectric constant tensor:
#      x y z
#    x 1.885390 0.000000 0.000000 
#    y 0.000000 1.755070 0.000000 
#    z 0.000000 0.000000 1.767210 
# 
# From -- ./inp_files/41960.got.cif
#   From: 2010.05.17/outbox.cif.g08.bks.cpg/sg71_21_cif.got.tgz:41960.got - 2010.06.03 16:22:01.
