data_PCOD9521999
_publ_section_title
;
Structure prediction by ZEFSAII (Michael W. Deem and Ramdas Pophale) SiO2 
 PCOD9521999
Probable space group: I M M M
;
_chemical_formula_sum "Si O2"
_cell_formula_units_Z 64
_cell_length_a 23.632020
_cell_length_b 16.932827
_cell_length_c 8.046690
_cell_angle_alpha 90.000000
_cell_angle_beta 90.000000
_cell_angle_gamma 90.000000
_cell_volume 3219.938577
_symmetry_space_group_name_H-M "I M M M"
_symmetry_group_IT_number 71
_symmetry_cell_setting 'orthorhombic'
loop_
_space_group_symop_operation_xyz
x,y,z
-x,-y,z
x,-y,-z
-x,y,-z
-x,-y,-z
x,y,-z
-x,y,z
x,-y,z
1/2+x,1/2+y,1/2+z
1/2-x,1/2-y,1/2+z
1/2+x,1/2-y,1/2-z
1/2-x,1/2+y,1/2-z
1/2-x,1/2-y,1/2-z
1/2+x,1/2+y,1/2-z
1/2-x,1/2+y,1/2+z
1/2+x,1/2-y,1/2+z
loop_
_atom_site_type_symbol
_atom_site_label
_atom_site_fract_x
_atom_site_fract_y
_atom_site_fract_z
Si Si1 0.064031 0.000000 0.203605
Si Si2 0.360594 0.355370 0.701553
Si Si3 0.761920 0.659229 0.299774
Si Si4 0.884662 0.324595 0.302240
Si Si5 0.000000 0.410485 0.197106
O O1 0.096158 0.921604 0.257948
O O2 0.000000 0.000000 0.259580
O O3 0.064645 0.000000 0.000000
O O4 0.360287 0.352867 0.500000
O O5 0.296870 0.379647 0.756016
O O6 0.378902 0.268282 0.759449
O O7 0.763858 0.653192 0.500000
O O8 0.750000 0.750000 0.250000
O O9 0.824862 0.638042 0.237824
O O10 0.884639 0.332258 0.500000
O O11 0.942552 0.364028 0.242643
O O12 0.000000 0.500000 0.268307
O O13 0.000000 0.416735 0.000000
#
# Coordination Sequence:
#
# PCOD9521999 Si02
#       5
#     8  16  16  16   8
#     4   9  18  30  47  77 113 146 188 229 253 292
#     4   9  17  32  54  80 111 149 189 223 260 313
#     4   8  15  29  50  78 106 138 177 220 264 313
#     4  10  20  35  57  83 109 139 177 223 278 329
#     4  11  25  43  59  78 105 138 179 223 274 337
#
# _framework density 19.876156000000002
#
# number of rings (size 3 to 8) (size 9 to 14) (size 15 to 20)
#    0.000    2.750    0.000    1.125    1.750    2.000 
#    2.250    0.625    0.000    0.750    0.000    0.000 
#    0.000    0.000    0.000    0.000    0.000    0.000 
#
# Total GULP energy -178227.398576 kJ/mol
# GULP energy per Si atom -5569.606206 kJ/mol
# Density = 1.983092 g / cm^3
# Si number density = 19.876156 Si / 1000 Ang^3
#
#
#
# Elastic Constant Matrix: (Units=GPa)
#
#
# Indices 1 2 3 4 5 6 
#
# 1 268.9844 99.3696 26.1668 0.0000 0.0000 0.0000
# 2 99.3696 80.9542 9.8751 0.0000 0.0000 0.0000
# 3 26.1668 9.8751 22.5135 0.0000 0.0000 0.0000
# 4 0.0000 0.0000 0.0000 -6.9989 0.0000 0.0000
# 5 0.0000 0.0000 0.0000 0.0000 12.9232 0.0000
# 6 0.0000 0.0000 0.0000 0.0000 0.0000 -202.3670
#
#
#
# Elastic Compliance Matrix: (Units=1/GPa)
#
#
# Indices 1 2 3 4 5 6 
#
# 1 0.007259 -0.008327 -0.004785 0.000000 0.000000 0.000000
# 2 -0.008327 0.022603 -0.000236 0.000000 0.000000 0.000000
# 3 -0.004785 -0.000236 0.050083 0.000000 0.000000 0.000000
# 4 0.000000 0.000000 0.000000 -0.142881 0.000000 0.000000
# 5 0.000000 0.000000 0.000000 0.000000 0.077380 0.000000
# 6 0.000000 0.000000 0.000000 0.000000 0.000000 -0.004942
#
#
# Mechanical properties :
#
#
# Convention : Reuss Voigt Hill
#
# Bulk Modulus (GPa) = 18.77966 71.47501 45.12733
# Shear Modulus (GPa) = 92.68113 -23.48583 34.59765
#
# Velocity S-wave (km/s) = 6.83597 -3.44118 4.17665
# Velocity P-wave (km/s) = 8.47208 4.49992 6.78327
#
# Compressibility (1/GPa) = 0.05324911
#
# Stress axis : x y z
#
# Youngs Moduli (GPa) = 137.75243 44.24234 19.96698
#
# Poissons Ratio (x) = 0.36841 0.09554
# Poissons Ratio (y) = 1.14708 0.00471
# Poissons Ratio (z) = 0.65913 0.01044
#
# Static dielectric constant tensor:
#      x y z
#    x 1.756460 0.000000 0.000000 
#    y 0.000000 1.674140 0.000000 
#    z 0.000000 0.000000 1.693370 
# 
# From -- ./inp_files/12008.got.cif
#   From: 2010.05.17/outbox.cif.g08.bks.cpg/sg71_7_cif.got.tgz:12008.got - 2010.06.03 16:22:01.
