data_PCOD9521392
_publ_section_title
;
Structure prediction by ZEFSAII (Michael W. Deem and Ramdas Pophale) SiO2 
 PCOD9521392
Probable space group: I M M M
;
_chemical_formula_sum "Si O2"
_cell_formula_units_Z 80
_cell_length_a 9.199082
_cell_length_b 24.433159
_cell_length_c 20.140302
_cell_angle_alpha 90.000000
_cell_angle_beta 90.000000
_cell_angle_gamma 90.000000
_cell_volume 4526.787310
_symmetry_space_group_name_H-M "I M M M"
_symmetry_group_IT_number 71
_symmetry_cell_setting 'orthorhombic'
loop_
_space_group_symop_operation_xyz
x,y,z
-x,-y,z
x,-y,-z
-x,y,-z
-x,-y,-z
x,y,-z
-x,y,z
x,-y,z
1/2+x,1/2+y,1/2+z
1/2-x,1/2-y,1/2+z
1/2+x,1/2-y,1/2-z
1/2-x,1/2+y,1/2-z
1/2-x,1/2-y,1/2-z
1/2+x,1/2+y,1/2-z
1/2-x,1/2+y,1/2+z
1/2+x,1/2-y,1/2+z
loop_
_atom_site_type_symbol
_atom_site_label
_atom_site_fract_x
_atom_site_fract_y
_atom_site_fract_z
Si Si1 0.340327 0.621614 0.100139
Si Si2 0.334557 0.000000 0.729217
Si Si3 0.825906 0.285234 0.692015
Si Si4 0.831927 0.110266 0.757892
Si Si5 0.666700 0.225437 0.575424
Si Si6 0.738115 0.000000 0.574901
O O1 0.500000 0.640371 0.078151
O O2 0.335169 0.626500 0.179918
O O3 0.216308 0.662016 0.075195
O O4 0.321681 0.558196 0.079588
O O5 0.248019 0.052357 0.755302
O O6 0.338459 0.000000 0.647748
O O7 0.500000 0.000000 0.752070
O O8 0.750000 0.250000 0.750000
O O9 0.760143 0.345672 0.701522
O O10 0.772740 0.258269 0.623665
O O11 0.000000 0.284303 0.698344
O O12 0.000000 0.107315 0.780030
O O13 0.674164 0.245648 0.500000
O O14 0.500000 0.229566 0.599212
O O15 0.670491 0.000000 0.500000
#
# Coordination Sequence:
#
# PCOD9521392 Si02
#       6
#    16   8  16  16  16   8
#     4  10  20  34  53  74 101 142 190 238 282 327
#     4  10  21  36  54  78 109 143 185 234 278 330
#     4  12  23  37  60  85 111 146 188 234 283 339
#     4  10  20  36  57  82 110 143 184 232 281 331
#     4  11  24  39  55  79 113 149 186 232 284 337
#     4  10  21  33  47  69 103 144 191 237 280 325
#
# _framework density 17.672578999999999
#
# number of rings (size 3 to 8) (size 9 to 14) (size 15 to 20)
#    0.000    1.400    2.000    4.200    0.000    9.000 
#    0.000    0.000    0.000    0.000    0.000    0.700 
#    0.000    5.600    0.000    0.000    0.000    0.000 
#
# Total GULP energy -223173.412401 kJ/mol
# GULP energy per Si atom -5579.335310 kJ/mol
# Density = 1.763236 g / cm^3
# Si number density = 17.672579 Si / 1000 Ang^3
#
#
#
# Elastic Constant Matrix: (Units=GPa)
#
#
# Indices 1 2 3 4 5 6 
#
# 1 173.8344 63.2356 37.4572 0.0000 0.0000 0.0000
# 2 63.2356 110.7100 38.2464 0.0000 0.0000 0.0000
# 3 37.4572 38.2464 54.1317 0.0000 0.0000 0.0000
# 4 0.0000 0.0000 0.0000 12.1575 0.0000 0.0000
# 5 0.0000 0.0000 0.0000 0.0000 14.1135 0.0000
# 6 0.0000 0.0000 0.0000 0.0000 0.0000 15.7485
#
#
#
# Elastic Compliance Matrix: (Units=1/GPa)
#
#
# Indices 1 2 3 4 5 6 
#
# 1 0.007590 -0.003335 -0.002896 0.000000 0.000000 0.000000
# 2 -0.003335 0.013414 -0.007170 0.000000 0.000000 0.000000
# 3 -0.002896 -0.007170 0.025543 0.000000 0.000000 0.000000
# 4 0.000000 0.000000 0.000000 0.082253 0.000000 0.000000
# 5 0.000000 0.000000 0.000000 0.000000 0.070854 0.000000
# 6 0.000000 0.000000 0.000000 0.000000 0.000000 0.063498
#
#
# Mechanical properties :
#
#
# Convention : Reuss Voigt Hill
#
# Bulk Modulus (GPa) = 50.64336 68.50606 59.57471
# Shear Modulus (GPa) = 16.86134 21.71971 19.29053
#
# Velocity S-wave (km/s) = 3.09220 3.50952 3.30745
# Velocity P-wave (km/s) = 6.43953 7.43441 6.95479
#
# Compressibility (1/GPa) = 0.01974592
#
# Stress axis : x y z
#
# Youngs Moduli (GPa) = 131.75915 74.54645 39.14921
#
# Poissons Ratio (x) = 0.24859 0.11336
# Poissons Ratio (y) = 0.43938 0.28071
# Poissons Ratio (z) = 0.38152 0.53453
#
# Static dielectric constant tensor:
#      x y z
#    x 1.605630 0.000000 0.000000 
#    y 0.000000 1.607050 0.000000 
#    z 0.000000 0.000000 1.604400 
# 
# From -- ./inp_files/10213.got.cif
#   From: 2010.05.17/outbox.cif.g08.bks.cpg/sg71_6_cif.got.tgz:10213.got - 2010.06.03 16:22:01.
