data_PCOD9521193
_publ_section_title
;
Structure prediction by ZEFSAII (Michael W. Deem and Ramdas Pophale) SiO2 
 PCOD9521193
Probable space group: I M M M
;
_chemical_formula_sum "Si O2"
_cell_formula_units_Z 72
_cell_length_a 16.078890
_cell_length_b 24.164719
_cell_length_c 8.626340
_cell_angle_alpha 90.000000
_cell_angle_beta 90.000000
_cell_angle_gamma 90.000000
_cell_volume 3351.694177
_symmetry_space_group_name_H-M "I M M M"
_symmetry_group_IT_number 71
_symmetry_cell_setting 'orthorhombic'
loop_
_space_group_symop_operation_xyz
x,y,z
-x,-y,z
x,-y,-z
-x,y,-z
-x,-y,-z
x,y,-z
-x,y,z
x,-y,z
1/2+x,1/2+y,1/2+z
1/2-x,1/2-y,1/2+z
1/2+x,1/2-y,1/2-z
1/2-x,1/2+y,1/2-z
1/2-x,1/2-y,1/2-z
1/2+x,1/2+y,1/2-z
1/2-x,1/2+y,1/2+z
1/2+x,1/2-y,1/2+z
loop_
_atom_site_type_symbol
_atom_site_label
_atom_site_fract_x
_atom_site_fract_y
_atom_site_fract_z
Si Si1 0.904537 0.434570 0.000000
Si Si2 0.646475 0.780874 0.179053
Si Si3 0.174803 0.827333 0.183586
Si Si4 0.402193 0.438530 0.186467
Si Si5 0.593919 0.099179 0.171243
O O1 0.865413 0.418783 0.166184
O O2 0.909896 0.500000 0.000000
O O3 0.000000 0.411080 0.000000
O O4 0.733783 0.807217 0.238036
O O5 0.620250 0.726294 0.270303
O O6 0.589095 0.834463 0.180085
O O7 0.658005 0.763784 0.000000
O O8 0.145966 0.885262 0.252150
O O9 0.177903 0.833086 0.000000
O O10 0.500000 0.433453 0.228991
O O11 0.373458 0.500000 0.238771
O O12 0.397614 0.437966 0.000000
O O13 0.500000 0.075620 0.170546
O O14 0.631625 0.086175 0.000000
#
# Coordination Sequence:
#
# PCOD9521193 Si02
#       5
#     8  16  16  16  16
#     4   9  18  32  50  74 102 132 170 216 264 314
#     4   9  19  35  52  75 108 142 177 220 267 326
#     4  10  20  33  53  80 107 139 175 219 275 324
#     4   9  19  37  58  78 105 143 184 225 270 328
#     4   9  18  33  53  75 102 140 180 222 271 319
#
# _framework density 21.481674000000002
#
# number of rings (size 3 to 8) (size 9 to 14) (size 15 to 20)
#    0.000    2.778    0.000    1.333    1.556    3.111 
#    0.000    6.667    0.000    4.000    0.000    0.000 
#    0.000    0.000    0.000    0.000    0.000    0.000 
#
# Total GULP energy -200487.336510 kJ/mol
# GULP energy per Si atom -5569.092681 kJ/mol
# Density = 2.143278 g / cm^3
# Si number density = 21.481674 Si / 1000 Ang^3
#
#
#
# Elastic Constant Matrix: (Units=GPa)
#
#
# Indices 1 2 3 4 5 6 
#
# 1 24.8403 32.4424 15.9522 0.0000 0.0000 0.0000
# 2 32.4424 162.0360 61.3350 0.0000 0.0000 0.0000
# 3 15.9522 61.3350 117.4447 0.0001 0.0000 0.0000
# 4 0.0000 0.0000 0.0001 36.6406 0.0000 0.0000
# 5 0.0000 0.0000 0.0000 0.0000 -6.2030 0.0000
# 6 0.0000 0.0000 0.0000 0.0000 0.0000 25.3315
#
#
#
# Elastic Compliance Matrix: (Units=1/GPa)
#
#
# Indices 1 2 3 4 5 6 
#
# 1 0.054940 -0.010190 -0.002141 0.000000 0.000000 0.000000
# 2 -0.010190 0.009582 -0.003620 0.000000 0.000000 0.000000
# 3 -0.002141 -0.003620 0.010696 0.000000 0.000000 0.000000
# 4 0.000000 0.000000 0.000000 0.027292 0.000000 0.000000
# 5 0.000000 0.000000 0.000000 0.000000 -0.161211 0.000000
# 6 0.000000 0.000000 0.000000 0.000000 0.000000 0.039477
#
#
# Mechanical properties :
#
#
# Convention : Reuss Voigt Hill
#
# Bulk Modulus (GPa) = 23.08568 58.19779 40.64173
# Shear Modulus (GPa) = 184.39536 24.12657 104.26097
#
# Velocity S-wave (km/s) = 9.27496 3.35494 6.97425
# Velocity P-wave (km/s) = 11.20133 6.49293 9.15500
#
# Compressibility (1/GPa) = 0.04331689
#
# Stress axis : x y z
#
# Youngs Moduli (GPa) = 18.20164 104.36351 93.49277
#
# Poissons Ratio (x) = 1.06342 0.20016
# Poissons Ratio (y) = 0.18547 0.33845
# Poissons Ratio (z) = 0.03897 0.37780
#
# Static dielectric constant tensor:
#      x y z
#    x 1.868190 0.000000 0.000000 
#    y 0.000000 1.773330 0.000000 
#    z 0.000000 0.000000 1.813480 
# 
# From -- ./inp_files/9912.got.cif
#   From: 2010.05.17/outbox.cif.g08.bks.cpg/sg71_5_cif.got.tgz:9912.got - 2010.06.03 16:22:01.
