data_PCOD9521513
_publ_section_title
;
Structure prediction by ZEFSAII (Michael W. Deem and Ramdas Pophale) SiO2 
 PCOD9521513
Probable space group: I M M M
;
_chemical_formula_sum "Si O2"
_cell_formula_units_Z 96
_cell_length_a 14.697527
_cell_length_b 15.728649
_cell_length_c 21.789166
_cell_angle_alpha 90.000000
_cell_angle_beta 90.000000
_cell_angle_gamma 90.000000
_cell_volume 5037.050385
_symmetry_space_group_name_H-M "I M M M"
_symmetry_group_IT_number 71
_symmetry_cell_setting 'orthorhombic'
loop_
_space_group_symop_operation_xyz
x,y,z
-x,-y,z
x,-y,-z
-x,y,-z
-x,-y,-z
x,y,-z
-x,y,z
x,-y,z
1/2+x,1/2+y,1/2+z
1/2-x,1/2-y,1/2+z
1/2+x,1/2-y,1/2-z
1/2-x,1/2+y,1/2-z
1/2-x,1/2-y,1/2-z
1/2+x,1/2+y,1/2-z
1/2-x,1/2+y,1/2+z
1/2+x,1/2-y,1/2+z
loop_
_atom_site_type_symbol
_atom_site_label
_atom_site_fract_x
_atom_site_fract_y
_atom_site_fract_z
Si Si1 0.609513 0.901652 0.659956
Si Si2 0.396347 0.128288 0.802545
Si Si3 0.216489 0.275606 0.930128
Si Si4 0.719067 0.403458 0.628681
Si Si5 0.896123 0.188857 0.363258
Si Si6 0.102469 0.899522 0.244907
O O1 0.500000 0.892831 0.654325
O O2 0.631222 0.886723 0.732074
O O3 0.658288 0.832725 0.617031
O O4 0.633224 0.000000 0.644805
O O5 0.500000 0.097520 0.809843
O O6 0.323406 0.090791 0.849343
O O7 0.395986 0.227196 0.820553
O O8 0.206432 0.174075 0.918216
O O9 0.321863 0.297878 0.915314
O O10 0.192859 0.295635 0.000000
O O11 0.689747 0.500000 0.611083
O O12 0.666375 0.371285 0.689870
O O13 0.866586 0.118354 0.314010
O O14 0.000000 0.174014 0.384291
O O15 0.000000 0.863717 0.238564
O O16 0.097437 0.000000 0.237518
#
# Coordination Sequence:
#
# PCOD9521513 Si02
#       6
#    16  16  16  16  16  16
#     4  10  21  37  58  83 109 136 168 212 266 318
#     4   9  17  31  54  83 110 133 162 208 268 327
#     4  11  24  38  52  73 103 143 188 223 249 291
#     4  10  20  34  54  79 107 138 171 212 263 314
#     4   9  18  33  53  77 106 138 171 212 263 314
#     4   9  17  30  51  79 106 129 158 205 268 330
#
# _framework density 19.058772000000001
#
# number of rings (size 3 to 8) (size 9 to 14) (size 15 to 20)
#    0.000    2.333    0.000    2.500    0.000    9.000 
#    0.000    0.833    0.000    0.000    0.000   11.667 
#    0.000    0.000    0.000    0.000    0.000    0.000 
#
# Total GULP energy -267556.685250 kJ/mol
# GULP energy per Si atom -5574.097609 kJ/mol
# Density = 1.901539 g / cm^3
# Si number density = 19.058772 Si / 1000 Ang^3
#
#
#
# Elastic Constant Matrix: (Units=GPa)
#
#
# Indices 1 2 3 4 5 6 
#
# 1 29.2890 22.8948 3.9389 0.0000 0.0000 0.0000
# 2 22.8948 54.3348 22.9319 0.0000 0.0000 0.0000
# 3 3.9389 22.9319 42.9131 0.0000 0.0000 0.0000
# 4 0.0000 0.0000 0.0000 -19.9664 0.0000 0.0000
# 5 0.0000 0.0000 0.0000 0.0000 10.9284 0.0000
# 6 0.0000 0.0000 0.0000 0.0000 0.0000 22.5152
#
#
#
# Elastic Compliance Matrix: (Units=1/GPa)
#
#
# Indices 1 2 3 4 5 6 
#
# 1 0.053601 -0.026482 0.009231 0.000000 0.000000 0.000000
# 2 -0.026482 0.036847 -0.017260 0.000000 0.000000 0.000000
# 3 0.009231 -0.017260 0.031679 0.000000 0.000000 0.000000
# 4 0.000000 0.000000 0.000000 -0.050084 0.000000 0.000000
# 5 0.000000 0.000000 0.000000 0.000000 0.091504 0.000000
# 6 0.000000 0.000000 0.000000 0.000000 0.000000 0.044414
#
#
# Mechanical properties :
#
#
# Convention : Reuss Voigt Hill
#
# Bulk Modulus (GPa) = 18.82984 25.11868 21.97426
# Shear Modulus (GPa) = 16.96727 7.81356 12.39041
#
# Velocity S-wave (km/s) = 2.98696 2.02697 2.55250
# Velocity P-wave (km/s) = 4.66875 4.32277 4.49909
#
# Compressibility (1/GPa) = 0.05310719
#
# Stress axis : x y z
#
# Youngs Moduli (GPa) = 18.65621 27.13898 31.56683
#
# Poissons Ratio (x) = 0.71869 -0.29141
# Poissons Ratio (y) = 0.49405 0.54484
# Poissons Ratio (z) = -0.17222 0.46841
#
# Static dielectric constant tensor:
#      x y z
#    x 1.726530 0.000000 0.000000 
#    y 0.000000 1.741860 0.000000 
#    z 0.000000 0.000000 1.621150 
# 
# From -- ./inp_files/34492.got.cif
#   From: 2010.05.17/outbox.cif.g08.bks.cpg/sg71_18_cif.got.tgz:34492.got - 2010.06.03 16:22:01.
