data_PCOD9521838
_publ_section_title
;
Structure prediction by ZEFSAII (Michael W. Deem and Ramdas Pophale) SiO2 
 PCOD9521838
Probable space group: I M M M
;
_chemical_formula_sum "Si O2"
_cell_formula_units_Z 88
_cell_length_a 13.414718
_cell_length_b 13.789539
_cell_length_c 25.308999
_cell_angle_alpha 90.000000
_cell_angle_beta 90.000000
_cell_angle_gamma 90.000000
_cell_volume 4681.728919
_symmetry_space_group_name_H-M "I M M M"
_symmetry_group_IT_number 71
_symmetry_cell_setting 'orthorhombic'
loop_
_space_group_symop_operation_xyz
x,y,z
-x,-y,z
x,-y,-z
-x,y,-z
-x,-y,-z
x,y,-z
-x,y,z
x,-y,z
1/2+x,1/2+y,1/2+z
1/2-x,1/2-y,1/2+z
1/2+x,1/2-y,1/2-z
1/2-x,1/2+y,1/2-z
1/2-x,1/2-y,1/2-z
1/2+x,1/2+y,1/2-z
1/2-x,1/2+y,1/2+z
1/2+x,1/2-y,1/2+z
loop_
_atom_site_type_symbol
_atom_site_label
_atom_site_fract_x
_atom_site_fract_y
_atom_site_fract_z
Si Si1 0.736188 0.384319 0.653107
Si Si2 0.779121 0.117196 0.562427
Si Si3 0.887931 0.383241 0.744807
Si Si4 0.885670 0.294844 0.139394
Si Si5 0.612143 0.882413 0.059628
Si Si6 0.000000 0.885486 0.436122
O O1 0.717788 0.500000 0.654995
O O2 0.802294 0.354589 0.703855
O O3 0.639578 0.318129 0.648174
O O4 0.805002 0.361333 0.602468
O O5 0.766481 0.138364 0.500000
O O6 0.692071 0.161699 0.597652
O O7 0.890483 0.151631 0.579986
O O8 0.777350 0.000000 0.567499
O O9 0.888140 0.500000 0.745299
O O10 0.871097 0.345628 0.803776
O O11 0.000000 0.352166 0.727831
O O12 0.000000 0.309703 0.123015
O O13 0.500000 0.849424 0.073162
O O14 0.607710 0.000000 0.058166
O O15 0.635072 0.849464 0.000000
O O16 0.000000 0.880080 0.500000
O O17 0.000000 0.000000 0.422292
#
# Coordination Sequence:
#
# PCOD9521838 Si02
#       6
#    16  16  16  16  16   8
#     4  10  20  35  55  75 103 145 186 223 268 323
#     4   9  18  35  59  84 112 145 180 223 277 329
#     4   9  18  35  59  82 103 131 173 229 287 334
#     4  11  23  36  52  78 112 147 186 228 265 316
#     4   8  14  27  49  76 102 126 161 216 274 320
#     4   7  12  28  54  80 107 139 171 209 265 329
#
# _framework density 18.796475999999998
#
# number of rings (size 3 to 8) (size 9 to 14) (size 15 to 20)
#    0.000    2.818    0.000    3.273    0.000    4.727 
#    3.273    0.909    2.000    0.000    0.000    3.818 
#    0.000    0.000    0.000    0.000    0.000    0.000 
#
# Total GULP energy -245449.239562 kJ/mol
# GULP energy per Si atom -5578.391808 kJ/mol
# Density = 1.875369 g / cm^3
# Si number density = 18.796476 Si / 1000 Ang^3
#
#
#
# Elastic Constant Matrix: (Units=GPa)
#
#
# Indices 1 2 3 4 5 6 
#
# 1 125.8055 26.6313 56.8845 0.0000 0.0000 0.0000
# 2 26.6313 45.6769 10.6800 0.0000 0.0000 0.0000
# 3 56.8845 10.6800 60.8362 0.0000 0.0000 0.0000
# 4 0.0000 0.0000 0.0000 -0.2761 0.0000 0.0000
# 5 0.0000 0.0000 0.0000 0.0000 33.0789 0.0000
# 6 0.0000 0.0000 0.0000 0.0000 0.0000 30.3086
#
#
#
# Elastic Compliance Matrix: (Units=1/GPa)
#
#
# Indices 1 2 3 4 5 6 
#
# 1 0.015085 -0.005732 -0.013099 0.000000 0.000000 0.000000
# 2 -0.005732 0.025008 0.000970 0.000000 0.000000 0.000000
# 3 -0.013099 0.000970 0.028515 0.000000 0.000000 0.000000
# 4 0.000000 0.000000 0.000000 -3.622056 0.000000 0.000000
# 5 0.000000 0.000000 0.000000 0.000000 0.030231 0.000000
# 6 0.000000 0.000000 0.000000 0.000000 0.000000 0.032994
#
#
# Mechanical properties :
#
#
# Convention : Reuss Voigt Hill
#
# Bulk Modulus (GPa) = 30.40832 46.74559 38.57696
# Shear Modulus (GPa) = -1.45200 21.83046 10.18923
#
# Velocity S-wave (km/s) = -0.87986 3.41165 2.33079
# Velocity P-wave (km/s) = 3.89623 6.35944 5.27366
#
# Compressibility (1/GPa) = 0.03288573
#
# Stress axis : x y z
#
# Youngs Moduli (GPa) = 66.29073 39.98662 35.06882
#
# Poissons Ratio (x) = 0.22922 0.45936
# Poissons Ratio (y) = 0.38001 -0.03401
# Poissons Ratio (z) = 0.86833 -0.03878
#
# Static dielectric constant tensor:
#      x y z
#    x 1.638690 0.000000 0.000000 
#    y 0.000000 1.700620 0.000000 
#    z 0.000000 0.000000 1.618280 
# 
# From -- ./inp_files/22027.got.cif
#   From: 2010.05.17/outbox.cif.g08.bks.cpg/sg71_12_cif.got.tgz:22027.got - 2010.06.03 16:22:01.
