data_PCOD9521037
_publ_section_title
;
Structure prediction by ZEFSAII (Michael W. Deem and Ramdas Pophale) SiO2 
 PCOD9521037
Probable space group: I M M M
;
_chemical_formula_sum "Si O2"
_cell_formula_units_Z 104
_cell_length_a 28.794938
_cell_length_b 21.917490
_cell_length_c 7.412810
_cell_angle_alpha 90.000000
_cell_angle_beta 90.000000
_cell_angle_gamma 90.000000
_cell_volume 4678.319020
_symmetry_space_group_name_H-M "I M M M"
_symmetry_group_IT_number 71
_symmetry_cell_setting 'orthorhombic'
loop_
_space_group_symop_operation_xyz
x,y,z
-x,-y,z
x,-y,-z
-x,y,-z
-x,-y,-z
x,y,-z
-x,y,z
x,-y,z
1/2+x,1/2+y,1/2+z
1/2-x,1/2-y,1/2+z
1/2+x,1/2-y,1/2-z
1/2-x,1/2+y,1/2-z
1/2-x,1/2-y,1/2-z
1/2+x,1/2+y,1/2-z
1/2-x,1/2+y,1/2+z
1/2+x,1/2-y,1/2+z
loop_
_atom_site_type_symbol
_atom_site_label
_atom_site_fract_x
_atom_site_fract_y
_atom_site_fract_z
Si Si1 0.877612 0.603242 0.285969
Si Si2 0.947748 0.169963 0.782742
Si Si3 0.795456 0.162307 0.293130
Si Si4 0.946666 0.500000 0.721213
Si Si5 0.274067 0.933730 0.283090
Si Si6 0.863969 0.261511 0.713261
Si Si7 0.377728 0.430185 0.281164
O O1 0.885829 0.609376 0.500000
O O2 0.918405 0.559740 0.217316
O O3 0.828225 0.571145 0.258276
O O4 0.872453 0.671440 0.210411
O O5 0.910646 0.221589 0.731086
O O6 0.924554 0.105669 0.728828
O O7 0.000000 0.178863 0.715215
O O8 0.949536 0.170266 0.000000
O O9 0.783416 0.177560 0.500000
O O10 0.752022 0.126305 0.210623
O O11 0.820736 0.221696 0.211864
O O12 0.835453 0.110358 0.291036
O O13 0.945712 0.500000 0.500000
O O14 0.000000 0.500000 0.776781
O O15 0.268146 0.933194 0.500000
O O16 0.256169 0.000000 0.218325
O O17 0.854626 0.267789 0.500000
O O18 0.374538 0.428968 0.500000
O O19 0.376177 0.500000 0.222376
#
# Coordination Sequence:
#
# PCOD9521037 Si02
#       7
#    16  16  16   8  16  16  16
#     4  10  20  35  55  78 101 128 164 208 256 302
#     4   9  18  32  49  70  98 132 168 207 255 306
#     4   9  18  33  50  71 101 137 172 205 247 300
#     4   9  18  34  55  77 101 129 163 205 256 311
#     4  10  20  33  51  74 102 136 169 201 245 303
#     4   9  19  34  52  74 100 130 169 214 254 300
#     4   9  17  29  46  70  99 131 171 215 252 290
#
# _framework density 22.230207
#
# number of rings (size 3 to 8) (size 9 to 14) (size 15 to 20)
#    0.000    2.692    0.769    0.462    0.000    4.000 
#    0.000    3.077    0.000    0.923    0.000    4.308 
#    0.000    0.000    0.000    0.000    0.000    0.000 
#
# Total GULP energy -290255.422957 kJ/mol
# GULP energy per Si atom -5581.835057 kJ/mol
# Density = 2.217961 g / cm^3
# Si number density = 22.230207 Si / 1000 Ang^3
#
#
#
# Elastic Constant Matrix: (Units=GPa)
#
#
# Indices 1 2 3 4 5 6 
#
# 1 124.2399 58.2585 -6.4226 0.0000 0.0000 0.0000
# 2 58.2585 158.1749 8.9981 0.0000 0.0000 0.0000
# 3 -6.4226 8.9981 74.8052 0.0000 0.0000 0.0000
# 4 0.0000 0.0000 0.0000 -0.9210 0.0000 0.0000
# 5 0.0000 0.0000 0.0000 0.0000 19.0726 0.0000
# 6 0.0000 0.0000 0.0000 0.0000 0.0000 37.4395
#
#
#
# Elastic Compliance Matrix: (Units=1/GPa)
#
#
# Indices 1 2 3 4 5 6 
#
# 1 0.009852 -0.003702 0.001291 0.000000 0.000000 0.000000
# 2 -0.003702 0.007757 -0.001251 0.000000 0.000000 0.000000
# 3 0.001291 -0.001251 0.013629 0.000000 0.000000 0.000000
# 4 0.000000 0.000000 0.000000 -1.085762 0.000000 0.000000
# 5 0.000000 0.000000 0.000000 0.000000 0.052431 0.000000
# 6 0.000000 0.000000 0.000000 0.000000 0.000000 0.026710
#
#
# Mechanical properties :
#
#
# Convention : Reuss Voigt Hill
#
# Bulk Modulus (GPa) = 41.81591 53.20976 47.51283
# Shear Modulus (GPa) = -5.20785 30.87729 12.83472
#
# Velocity S-wave (km/s) = -1.53225 3.73094 2.40543
# Velocity P-wave (km/s) = 3.96495 6.52286 5.39762
#
# Compressibility (1/GPa) = 0.02391434
#
# Stress axis : x y z
#
# Youngs Moduli (GPa) = 101.50622 128.91960 73.37093
#
# Poissons Ratio (x) = 0.47726 -0.09473
# Poissons Ratio (y) = 0.37577 0.09178
# Poissons Ratio (z) = -0.13106 0.16126
#
# Static dielectric constant tensor:
#      x y z
#    x 1.789160 0.000000 0.000000 
#    y 0.000000 1.828850 0.000000 
#    z 0.000000 0.000000 1.845360 
# 
# From -- ./inp_files/11159.got.cif
#   From: 2010.05.17/outbox.cif.g08.bks.cpg/sg71_6_cif.got.tgz:11159.got - 2010.06.03 16:22:01.
