data_PCOD9521568
_publ_section_title
;
Structure prediction by ZEFSAII (Michael W. Deem and Ramdas Pophale) SiO2 
 PCOD9521568
Probable space group: I M M M
;
_chemical_formula_sum "Si O2"
_cell_formula_units_Z 104
_cell_length_a 8.799005
_cell_length_b 21.428282
_cell_length_c 29.092846
_cell_angle_alpha 90.000000
_cell_angle_beta 90.000000
_cell_angle_gamma 90.000000
_cell_volume 5485.385140
_symmetry_space_group_name_H-M "I M M M"
_symmetry_group_IT_number 71
_symmetry_cell_setting 'orthorhombic'
loop_
_space_group_symop_operation_xyz
x,y,z
-x,-y,z
x,-y,-z
-x,y,-z
-x,-y,-z
x,y,-z
-x,y,z
x,-y,z
1/2+x,1/2+y,1/2+z
1/2-x,1/2-y,1/2+z
1/2+x,1/2-y,1/2-z
1/2-x,1/2+y,1/2-z
1/2-x,1/2-y,1/2-z
1/2+x,1/2+y,1/2-z
1/2-x,1/2+y,1/2+z
1/2+x,1/2-y,1/2+z
loop_
_atom_site_type_symbol
_atom_site_label
_atom_site_fract_x
_atom_site_fract_y
_atom_site_fract_z
Si Si1 0.181274 0.678584 0.795548
Si Si2 0.681616 0.679866 0.694264
Si Si3 0.682779 0.500000 0.445827
Si Si4 0.181209 0.133463 0.447850
Si Si5 0.174222 0.233153 0.944875
Si Si6 0.182291 0.930549 0.355975
Si Si7 0.179677 0.619158 0.606647
O O1 0.259393 0.670297 0.745978
O O2 0.221176 0.747207 0.815615
O O3 0.236621 0.623561 0.827996
O O4 0.000000 0.677525 0.789688
O O5 0.500000 0.673286 0.692593
O O6 0.756074 0.633687 0.657457
O O7 0.500000 0.500000 0.444690
O O8 0.728900 0.500000 0.500000
O O9 0.743834 0.560871 0.419263
O O10 0.221741 0.115687 0.500000
O O11 0.267513 0.197217 0.435573
O O12 0.212508 0.081825 0.409762
O O13 0.000000 0.146299 0.446876
O O14 0.277699 0.181155 0.921863
O O15 0.000000 0.225444 0.928854
O O16 0.177364 0.225039 0.000000
O O17 0.000000 0.925572 0.349183
O O18 0.230331 0.000000 0.342416
O O19 0.000000 0.609679 0.608433
#
# Coordination Sequence:
#
# PCOD9521568 Si02
#       7
#    16  16   8  16  16  16  16
#     4  10  21  38  61  89 117 148 190 241 293 347
#     4  10  21  39  64  90 117 148 186 236 295 353
#     4  11  25  45  65  85 117 161 205 247 296 357
#     4   9  18  33  54  81 112 147 191 243 290 334
#     4  10  20  34  54  81 113 149 190 236 287 342
#     4  10  21  36  54  79 113 154 195 232 281 343
#     4  12  24  38  59  88 119 152 193 241 291 348
#
# _framework density 18.959471000000001
#
# number of rings (size 3 to 8) (size 9 to 14) (size 15 to 20)
#    0.000    1.769    0.000    4.385    0.000    8.923 
#    1.385    1.538    0.000    0.000    0.000    3.231 
#    0.000    0.000    0.000    0.000    0.000    0.000 
#
# Total GULP energy -290537.830244 kJ/mol
# GULP energy per Si atom -5587.265966 kJ/mol
# Density = 1.891632 g / cm^3
# Si number density = 18.959471 Si / 1000 Ang^3
#
#
#
# Elastic Constant Matrix: (Units=GPa)
#
#
# Indices 1 2 3 4 5 6 
#
# 1 75.1468 40.2531 45.2202 0.0000 0.0000 0.0000
# 2 40.2531 84.9087 59.3456 0.0000 0.0000 0.0000
# 3 45.2202 59.3456 93.4822 0.0000 0.0000 0.0000
# 4 0.0000 0.0000 0.0000 22.8859 0.0000 0.0000
# 5 0.0000 0.0000 0.0000 0.0000 29.2854 0.0000
# 6 0.0000 0.0000 0.0000 0.0000 0.0000 28.4817
#
#
#
# Elastic Compliance Matrix: (Units=1/GPa)
#
#
# Indices 1 2 3 4 5 6 
#
# 1 0.019822 -0.004845 -0.006512 0.000000 0.000000 0.000000
# 2 -0.004845 0.022355 -0.011848 0.000000 0.000000 0.000000
# 3 -0.006512 -0.011848 0.021369 0.000000 0.000000 0.000000
# 4 0.000000 0.000000 0.000000 0.043695 0.000000 0.000000
# 5 0.000000 0.000000 0.000000 0.000000 0.034147 0.000000
# 6 0.000000 0.000000 0.000000 0.000000 0.000000 0.035110
#
#
# Mechanical properties :
#
#
# Convention : Reuss Voigt Hill
#
# Bulk Modulus (GPa) = 58.36173 60.35283 59.35728
# Shear Modulus (GPa) = 21.87024 23.37853 22.62438
#
# Velocity S-wave (km/s) = 3.40004 3.51533 3.45817
# Velocity P-wave (km/s) = 6.80168 6.95546 6.87900
#
# Compressibility (1/GPa) = 0.01713452
#
# Stress axis : x y z
#
# Youngs Moduli (GPa) = 50.45012 44.73186 46.79643
#
# Poissons Ratio (x) = 0.21673 0.30476
# Poissons Ratio (y) = 0.24444 0.55445
# Poissons Ratio (z) = 0.32855 0.52999
#
# Static dielectric constant tensor:
#      x y z
#    x 1.642210 0.000000 0.000000 
#    y 0.000000 1.625220 0.000000 
#    z 0.000000 0.000000 1.664880 
# 
# From -- ./inp_files/63303.got.cif
#   From: 2010.05.17/outbox.cif.g08.bks.cpg/sg71_32_cif.got.tgz:63303.got - 2010.06.03 16:22:01.
