data_PCOD9521686
_publ_section_title
;
Structure prediction by ZEFSAII (Michael W. Deem and Ramdas Pophale) SiO2 
 PCOD9521686
Probable space group: I M M M
;
_chemical_formula_sum "Si O2"
_cell_formula_units_Z 58
_cell_length_a 27.292130
_cell_length_b 7.669393
_cell_length_c 12.449746
_cell_angle_alpha 90.000000
_cell_angle_beta 90.000000
_cell_angle_gamma 90.000000
_cell_volume 2605.907015
_symmetry_space_group_name_H-M "I M M M"
_symmetry_group_IT_number 71
_symmetry_cell_setting 'orthorhombic'
loop_
_space_group_symop_operation_xyz
x,y,z
-x,-y,z
x,-y,-z
-x,y,-z
-x,-y,-z
x,y,-z
-x,y,z
x,-y,z
1/2+x,1/2+y,1/2+z
1/2-x,1/2-y,1/2+z
1/2+x,1/2-y,1/2-z
1/2-x,1/2+y,1/2-z
1/2-x,1/2-y,1/2-z
1/2+x,1/2+y,1/2-z
1/2-x,1/2+y,1/2+z
1/2+x,1/2-y,1/2+z
loop_
_atom_site_type_symbol
_atom_site_label
_atom_site_fract_x
_atom_site_fract_y
_atom_site_fract_z
Si Si1 0.930449 0.201540 0.882081
Si Si2 0.677604 0.800529 0.340294
Si Si3 0.287456 0.710751 0.116782
Si Si4 0.000000 0.000000 0.500000
Si Si5 0.500000 0.802549 0.191208
O O1 0.871629 0.209381 0.875194
O O2 0.954551 0.282880 0.775950
O O3 0.945127 0.000000 0.881040
O O4 0.943996 0.275819 0.000000
O O5 0.682046 0.791493 0.211997
O O6 0.730641 0.730227 0.376680
O O7 0.674563 0.000000 0.376314
O O8 0.286925 0.500000 0.130721
O O9 0.307412 0.751201 0.000000
O O10 0.000000 0.844498 0.597442
O O11 0.500000 0.000000 0.147826
#
# Coordination Sequence:
#
# PCOD9521686 Si02
#       5
#    16  16  16   2   8
#     4  11  23  42  68 100 135 171 217 281 344 403
#     4  10  20  34  55  86 122 160 213 268 331 401
#     4   9  18  34  53  77 115 165 214 269 328 392
#     4  12  26  56  74 102 144 180 214 286 316 410
#     4  12  26  48  78 105 135 180 224 268 341 401
#
# _framework density 22.257126
#
# number of rings (size 3 to 8) (size 9 to 14) (size 15 to 20)
#    0.000    1.655    1.379    3.103    0.000    6.621 
#    2.483    0.000    0.000    0.000    0.000    0.000 
#    0.000    0.000    0.000    0.000    0.000    0.000 
#
# Total GULP energy -161674.636767 kJ/mol
# GULP energy per Si atom -5574.987475 kJ/mol
# Density = 2.220647 g / cm^3
# Si number density = 22.257126 Si / 1000 Ang^3
#
#
#
# Elastic Constant Matrix: (Units=GPa)
#
#
# Indices 1 2 3 4 5 6 
#
# 1 94.9447 16.8825 30.3387 0.0000 0.0000 0.0000
# 2 16.8825 110.4160 45.7919 0.0000 0.0000 0.0000
# 3 30.3387 45.7919 197.4297 0.0000 0.0000 0.0000
# 4 0.0000 0.0000 0.0000 9.1753 0.0000 0.0000
# 5 0.0000 0.0000 0.0000 0.0000 412.8339 0.0000
# 6 0.0000 0.0000 0.0000 0.0000 0.0000 9.1153
#
#
#
# Elastic Compliance Matrix: (Units=1/GPa)
#
#
# Indices 1 2 3 4 5 6 
#
# 1 0.011197 -0.001105 -0.001464 0.000000 0.000000 0.000000
# 2 -0.001105 0.010130 -0.002180 0.000000 0.000000 0.000000
# 3 -0.001464 -0.002180 0.005796 0.000000 0.000000 0.000000
# 4 0.000000 0.000000 0.000000 0.108988 0.000000 0.000000
# 5 0.000000 0.000000 0.000000 0.000000 0.002422 0.000000
# 6 0.000000 0.000000 0.000000 0.000000 0.000000 0.109705
#
#
# Mechanical properties :
#
#
# Convention : Reuss Voigt Hill
#
# Bulk Modulus (GPa) = 56.73909 65.42407 61.08158
# Shear Modulus (GPa) = 18.96741 106.87672 62.92207
#
# Velocity S-wave (km/s) = 2.92241 6.93710 5.32277
# Velocity P-wave (km/s) = 6.07743 9.67589 8.07955
#
# Compressibility (1/GPa) = 0.01762453
#
# Stress axis : x y z
#
# Youngs Moduli (GPa) = 89.31120 98.72126 172.54226
#
# Poissons Ratio (x) = 0.10905 0.25267
# Poissons Ratio (y) = 0.09866 0.37609
# Poissons Ratio (z) = 0.13079 0.21518
#
# Static dielectric constant tensor:
#      x y z
#    x 1.806420 0.000000 0.000000 
#    y 0.000000 1.845800 0.000000 
#    z 0.000000 0.000000 1.834300 
# 
# From -- ./inp_files/18284.got.cif
#   From: 2010.05.17/outbox.cif.g08.bks.cpg/sg71_10_cif.got.tgz:18284.got - 2010.06.03 16:22:01.
