data_PCOD9521240
_publ_section_title
;
Structure prediction by ZEFSAII (Michael W. Deem and Ramdas Pophale) SiO2 
 PCOD9521240
Probable space group: I M M M
;
_chemical_formula_sum "Si O2"
_cell_formula_units_Z 88
_cell_length_a 16.941403
_cell_length_b 27.220349
_cell_length_c 10.933590
_cell_angle_alpha 90.000000
_cell_angle_beta 90.000000
_cell_angle_gamma 90.000000
_cell_volume 5042.034893
_symmetry_space_group_name_H-M "I M M M"
_symmetry_group_IT_number 71
_symmetry_cell_setting 'orthorhombic'
loop_
_space_group_symop_operation_xyz
x,y,z
-x,-y,z
x,-y,-z
-x,y,-z
-x,-y,-z
x,y,-z
-x,y,z
x,-y,z
1/2+x,1/2+y,1/2+z
1/2-x,1/2-y,1/2+z
1/2+x,1/2-y,1/2-z
1/2-x,1/2+y,1/2-z
1/2-x,1/2-y,1/2-z
1/2+x,1/2+y,1/2-z
1/2-x,1/2+y,1/2+z
1/2+x,1/2-y,1/2+z
loop_
_atom_site_type_symbol
_atom_site_label
_atom_site_fract_x
_atom_site_fract_y
_atom_site_fract_z
Si Si1 0.338547 0.886852 0.853679
Si Si2 0.408641 0.442038 0.000000
Si Si3 0.692439 0.771547 0.856418
Si Si4 0.907813 0.178977 0.643230
Si Si5 0.586028 0.500000 0.357860
Si Si6 0.500000 0.057356 0.851757
Si Si7 0.173560 0.909739 0.745814
O O1 0.333088 0.827899 0.835655
O O2 0.420852 0.912594 0.817091
O O3 0.265092 0.908792 0.778854
O O4 0.327304 0.895527 0.000000
O O5 0.356414 0.427881 0.115264
O O6 0.416162 0.500000 0.000000
O O7 0.500000 0.423043 0.000000
O O8 0.750000 0.750000 0.750000
O O9 0.617757 0.735306 0.848551
O O10 0.722069 0.768160 0.000000
O O11 0.890961 0.165322 0.500000
O O12 0.859480 0.145996 0.740057
O O13 0.000000 0.172080 0.665203
O O14 0.500000 0.500000 0.293050
O O15 0.574933 0.500000 0.500000
O O16 0.631344 0.449803 0.329659
O O17 0.500000 0.000000 0.810741
O O18 0.500000 0.056143 0.000000
#
# Coordination Sequence:
#
# PCOD9521240 Si02
#       7
#    16   8  16  16   8   8  16
#     4  10  22  38  59  86 117 151 192 243 301 352
#     4  11  22  36  56  83 115 151 193 236 276 332
#     4  10  20  37  57  84 118 154 192 242 293 353
#     4  10  20  33  55  85 114 147 192 240 281 332
#     4  11  24  37  51  76 114 156 190 227 284 344
#     4   9  20  38  62  89 115 147 197 259 308 351
#     4  12  21  35  57  81 115 150 187 235 283 341
#
# _framework density 17.45327
#
# number of rings (size 3 to 8) (size 9 to 14) (size 15 to 20)
#    0.000    1.545    3.636    2.182    2.545    0.000 
#    0.000    0.000    0.000    2.182    0.000    1.273 
#    0.000    0.000    0.000    0.000    0.000    0.000 
#
# Total GULP energy -244938.235463 kJ/mol
# GULP energy per Si atom -5566.778079 kJ/mol
# Density = 1.741355 g / cm^3
# Si number density = 17.453270 Si / 1000 Ang^3
#
#
#
# Elastic Constant Matrix: (Units=GPa)
#
#
# Indices 1 2 3 4 5 6 
#
# 1 164.8006 76.9073 48.6541 0.0000 0.0000 0.0000
# 2 76.9073 123.9930 38.0575 0.0001 0.0000 0.0000
# 3 48.6541 38.0575 71.3406 0.0004 0.0000 0.0001
# 4 0.0000 0.0001 0.0004 77.5963 0.0001 0.0001
# 5 0.0000 0.0000 0.0000 0.0001 25.2875 0.0000
# 6 0.0000 0.0000 0.0001 0.0001 0.0000 30.2217
#
#
#
# Elastic Compliance Matrix: (Units=1/GPa)
#
#
# Indices 1 2 3 4 5 6 
#
# 1 0.009382 -0.004610 -0.003939 0.000000 0.000000 0.000000
# 2 -0.004610 0.011910 -0.003209 0.000000 0.000000 0.000000
# 3 -0.003939 -0.003209 0.018416 0.000000 0.000000 0.000000
# 4 0.000000 0.000000 0.000000 0.012887 0.000000 0.000000
# 5 0.000000 0.000000 0.000000 0.000000 0.039545 0.000000
# 6 0.000000 0.000000 0.000000 0.000000 0.000000 0.033089
#
#
# Mechanical properties :
#
#
# Convention : Reuss Voigt Hill
#
# Bulk Modulus (GPa) = 61.76548 76.37467 69.07008
# Shear Modulus (GPa) = 32.43735 39.72214 36.07974
#
# Velocity S-wave (km/s) = 4.31574 4.77583 4.55160
# Velocity P-wave (km/s) = 7.76531 8.61777 8.20262
#
# Compressibility (1/GPa) = 0.01619027
#
# Stress axis : x y z
#
# Youngs Moduli (GPa) = 106.58145 83.96617 54.30127
#
# Poissons Ratio (x) = 0.38712 0.21391
# Poissons Ratio (y) = 0.49139 0.17425
# Poissons Ratio (z) = 0.41986 0.26945
#
# Static dielectric constant tensor:
#      x y z
#    x 1.583130 0.000000 0.000000 
#    y 0.000000 1.667460 0.000000 
#    z 0.000000 0.000000 1.448910 
# 
# From -- ./inp_files/22384.got.cif
#   From: 2010.05.17/outbox.cif.g08.bks.cpg/sg71_12_cif.got.tgz:22384.got - 2010.06.03 16:22:01.
