data_PCOD9521971
_publ_section_title
;
Structure prediction by ZEFSAII (Michael W. Deem and Ramdas Pophale) SiO2 
 PCOD9521971
Probable space group: I M M M
;
_chemical_formula_sum "Si O2"
_cell_formula_units_Z 88
_cell_length_a 23.162641
_cell_length_b 8.629792
_cell_length_c 22.908216
_cell_angle_alpha 90.000000
_cell_angle_beta 90.000000
_cell_angle_gamma 90.000000
_cell_volume 4579.095211
_symmetry_space_group_name_H-M "I M M M"
_symmetry_group_IT_number 71
_symmetry_cell_setting 'orthorhombic'
loop_
_space_group_symop_operation_xyz
x,y,z
-x,-y,z
x,-y,-z
-x,y,-z
-x,-y,-z
x,y,-z
-x,y,z
x,-y,z
1/2+x,1/2+y,1/2+z
1/2-x,1/2-y,1/2+z
1/2+x,1/2-y,1/2-z
1/2-x,1/2+y,1/2-z
1/2-x,1/2-y,1/2-z
1/2+x,1/2+y,1/2-z
1/2-x,1/2+y,1/2+z
1/2+x,1/2-y,1/2+z
loop_
_atom_site_type_symbol
_atom_site_label
_atom_site_fract_x
_atom_site_fract_y
_atom_site_fract_z
Si Si1 0.295265 0.179561 0.000000
Si Si2 0.207514 0.686809 0.372959
Si Si3 0.591345 0.685128 0.160431
Si Si4 0.500000 0.186023 0.931257
Si Si5 0.562397 0.686402 0.291422
Si Si6 0.327691 0.182468 0.500000
Si Si7 0.663873 0.817367 0.630491
O O1 0.311698 0.246154 0.937747
O O2 0.226274 0.201115 0.000000
O O3 0.312429 0.000000 0.000000
O O4 0.206420 0.500000 0.372249
O O5 0.157140 0.756066 0.334181
O O6 0.272810 0.741078 0.361877
O O7 0.589816 0.500000 0.153743
O O8 0.555281 0.757317 0.106644
O O9 0.564249 0.726503 0.222943
O O10 0.500000 0.000000 0.931840
O O11 0.500000 0.236830 0.000000
O O12 0.500000 0.736944 0.315488
O O13 0.565666 0.500000 0.295076
O O14 0.616199 0.754255 0.325937
O O15 0.356286 0.207181 0.562911
O O16 0.308003 0.000000 0.500000
O O17 0.671326 0.000000 0.639050
#
# Coordination Sequence:
#
# PCOD9521971 Si02
#       7
#     8  16  16   8  16   8  16
#     4   8  16  30  50  76 112 150 186 224 277 341
#     4  10  20  35  56  86 120 155 192 240 297 350
#     4  11  23  41  62  86 117 156 200 247 294 344
#     4  11  25  43  63  89 123 160 201 248 293 345
#     4  10  22  42  62  81 112 153 196 243 295 351
#     4   8  16  32  53  81 117 146 178 229 282 335
#     4  10  20  36  60  89 118 152 194 239 291 352
#
# _framework density 19.217769000000001
#
# number of rings (size 3 to 8) (size 9 to 14) (size 15 to 20)
#    0.000    2.091    0.909    1.909    1.273    4.727 
#    0.000    0.455    0.000    2.727    0.000    0.000 
#    0.000    0.000    0.000    0.000    0.000    0.000 
#
# Total GULP energy -245198.279180 kJ/mol
# GULP energy per Si atom -5572.688163 kJ/mol
# Density = 1.917403 g / cm^3
# Si number density = 19.217769 Si / 1000 Ang^3
#
#
#
# Elastic Constant Matrix: (Units=GPa)
#
#
# Indices 1 2 3 4 5 6 
#
# 1 131.6514 34.5592 67.4488 0.0000 0.0000 0.0000
# 2 34.5592 40.0159 38.9925 0.0000 0.0000 0.0000
# 3 67.4488 38.9925 88.0300 0.0000 0.0000 0.0000
# 4 0.0000 0.0000 0.0000 23.6408 0.0000 0.0000
# 5 0.0000 0.0000 0.0000 0.0000 64.8966 0.0000
# 6 0.0000 0.0000 0.0000 0.0000 0.0000 27.8755
#
#
#
# Elastic Compliance Matrix: (Units=1/GPa)
#
#
# Indices 1 2 3 4 5 6 
#
# 1 0.012657 -0.002606 -0.008543 0.000000 0.000000 0.000000
# 2 -0.002606 0.044503 -0.017716 0.000000 0.000000 0.000000
# 3 -0.008543 -0.017716 0.025753 0.000000 0.000000 0.000000
# 4 0.000000 0.000000 0.000000 0.042300 0.000000 0.000000
# 5 0.000000 0.000000 0.000000 0.000000 0.015409 0.000000
# 6 0.000000 0.000000 0.000000 0.000000 0.000000 0.035874
#
#
# Mechanical properties :
#
#
# Convention : Reuss Voigt Hill
#
# Bulk Modulus (GPa) = 39.70986 60.18869 49.94928
# Shear Modulus (GPa) = 20.60827 31.19571 25.90199
#
# Velocity S-wave (km/s) = 3.27824 4.03336 3.67524
# Velocity P-wave (km/s) = 5.91921 7.28546 6.63758
#
# Compressibility (1/GPa) = 0.02518266
#
# Stress axis : x y z
#
# Youngs Moduli (GPa) = 79.00775 22.47015 38.83052
#
# Poissons Ratio (x) = 0.05856 0.33175
# Poissons Ratio (y) = 0.20590 0.68792
# Poissons Ratio (z) = 0.67500 0.39808
#
# Static dielectric constant tensor:
#      x y z
#    x 1.647310 0.000000 0.000000 
#    y 0.000000 1.655550 0.000000 
#    z 0.000000 0.000000 1.719920 
# 
# From -- ./inp_files/55596.got.cif
#   From: 2010.05.17/outbox.cif.g08.bks.cpg/sg71_28_cif.got.tgz:55596.got - 2010.06.03 16:22:01.
