data_PCOD9521791
_publ_section_title
;
Structure prediction by ZEFSAII (Michael W. Deem and Ramdas Pophale) SiO2 
 PCOD9521791
Probable space group: I M M M
;
_chemical_formula_sum "Si O2"
_cell_formula_units_Z 116
_cell_length_a 25.272333
_cell_length_b 30.262605
_cell_length_c 7.973096
_cell_angle_alpha 90.000000
_cell_angle_beta 90.000000
_cell_angle_gamma 90.000000
_cell_volume 6097.876690
_symmetry_space_group_name_H-M "I M M M"
_symmetry_group_IT_number 71
_symmetry_cell_setting 'orthorhombic'
loop_
_space_group_symop_operation_xyz
x,y,z
-x,-y,z
x,-y,-z
-x,y,-z
-x,-y,-z
x,y,-z
-x,y,z
x,-y,z
1/2+x,1/2+y,1/2+z
1/2-x,1/2-y,1/2+z
1/2+x,1/2-y,1/2-z
1/2-x,1/2+y,1/2-z
1/2-x,1/2-y,1/2-z
1/2+x,1/2+y,1/2-z
1/2-x,1/2+y,1/2+z
1/2+x,1/2-y,1/2+z
loop_
_atom_site_type_symbol
_atom_site_label
_atom_site_fract_x
_atom_site_fract_y
_atom_site_fract_z
Si Si1 0.132133 0.066688 0.702917
Si Si2 0.746053 0.801081 0.299284
Si Si3 0.242864 0.450721 0.200452
Si Si4 0.898442 0.000000 0.000000
Si Si5 0.059264 0.240268 0.300879
Si Si6 0.640616 0.667873 0.202930
Si Si7 0.940927 0.661403 0.196167
Si Si8 0.164340 0.627055 0.306113
O O1 0.122566 0.056945 0.500000
O O2 0.195269 0.059365 0.731970
O O3 0.121081 0.118383 0.732450
O O4 0.104235 0.037894 0.846855
O O5 0.744025 0.804204 0.500000
O O6 0.750000 0.750000 0.250000
O O7 0.799610 0.824726 0.235983
O O8 0.695826 0.827803 0.233710
O O9 0.231400 0.500000 0.267339
O O10 0.203499 0.413021 0.262063
O O11 0.237451 0.451581 0.000000
O O12 0.056623 0.231997 0.500000
O O13 0.102035 0.206069 0.231375
O O14 0.073240 0.291569 0.278497
O O15 0.000000 0.233963 0.230982
O O16 0.643774 0.672384 0.000000
O O17 0.892838 0.627833 0.219999
O O18 0.000000 0.648009 0.256052
O O19 0.944631 0.670472 0.000000
O O20 0.152903 0.625473 0.500000
#
# Coordination Sequence:
#
# PCOD9521791 Si02
#       8
#    16  16  16   4  16  16  16  16
#     4  10  20  35  53  77 111 149 184 233 281 340
#     4  11  21  34  50  73 109 150 185 219 270 337
#     4  10  20  36  56  77 108 146 182 226 279 328
#     4  12  22  32  56  82 109 142 195 230 290 336
#     4   9  17  32  56  83 110 142 186 234 278 327
#     4   9  18  33  51  73 110 148 179 221 279 332
#     4  10  21  38  58  79 106 144 188 231 277 330
#     4  12  24  35  54  81 111 144 185 229 276 331
#
# _framework density 19.023015000000001
#
# number of rings (size 3 to 8) (size 9 to 14) (size 15 to 20)
#    0.000    1.793    2.069    3.103    0.966    2.207 
#    2.483    0.000    0.000    0.414    0.000    3.862 
#    0.000    3.310    0.000    0.000    0.000    0.000 
#
# Total GULP energy -322967.180843 kJ/mol
# GULP energy per Si atom -5568.399670 kJ/mol
# Density = 1.897972 g / cm^3
# Si number density = 19.023015 Si / 1000 Ang^3
#
#
#
# Elastic Constant Matrix: (Units=GPa)
#
#
# Indices 1 2 3 4 5 6 
#
# 1 38.0753 -6.5649 -1.1777 0.0000 0.0000 0.0000
# 2 -6.5649 42.3681 -3.7624 0.0000 0.0000 0.0000
# 3 -1.1777 -3.7624 41.7925 0.0000 0.0000 0.0000
# 4 0.0000 0.0000 0.0000 32.7975 0.0000 0.0000
# 5 0.0000 0.0000 0.0000 0.0000 11.0833 0.0000
# 6 0.0000 0.0000 0.0000 0.0000 0.0000 19.6044
#
#
#
# Elastic Compliance Matrix: (Units=1/GPa)
#
#
# Indices 1 2 3 4 5 6 
#
# 1 0.027039 0.004292 0.001148 0.000000 0.000000 0.000000
# 2 0.004292 0.024474 0.002324 0.000000 0.000000 0.000000
# 3 0.001148 0.002324 0.024169 0.000000 0.000000 0.000000
# 4 0.000000 0.000000 0.000000 0.030490 0.000000 0.000000
# 5 0.000000 0.000000 0.000000 0.000000 0.090226 0.000000
# 6 0.000000 0.000000 0.000000 0.000000 0.000000 0.051009
#
#
# Mechanical properties :
#
#
# Convention : Reuss Voigt Hill
#
# Bulk Modulus (GPa) = 10.96358 11.02510 10.99434
# Shear Modulus (GPa) = 19.06339 21.61311 20.33825
#
# Velocity S-wave (km/s) = 3.16907 3.37435 3.27332
# Velocity P-wave (km/s) = 4.37795 4.58147 4.48087
#
# Compressibility (1/GPa) = 0.09121106
#
# Stress axis : x y z
#
# Youngs Moduli (GPa) = 36.98333 40.85964 41.37474
#
# Poissons Ratio (x) = -0.17536 -0.04751
# Poissons Ratio (y) = -0.15872 -0.09616
# Poissons Ratio (z) = -0.04247 -0.09497
#
# Static dielectric constant tensor:
#      x y z
#    x 1.689620 0.000000 0.000000 
#    y 0.000000 1.716260 0.000000 
#    z 0.000000 0.000000 1.683640 
# 
# From -- ./inp_files/13710.got.cif
#   From: 2010.05.17/outbox.cif.g08.bks.cpg/sg71_7_cif.got.tgz:13710.got - 2010.06.03 16:22:01.
