data_PCOD9521077
_publ_section_title
;
Structure prediction by ZEFSAII (Michael W. Deem and Ramdas Pophale) SiO2 
 PCOD9521077
Probable space group: I M M M
;
_chemical_formula_sum "Si O2"
_cell_formula_units_Z 80
_cell_length_a 18.906741
_cell_length_b 26.627861
_cell_length_c 7.524445
_cell_angle_alpha 90.000000
_cell_angle_beta 90.000000
_cell_angle_gamma 90.000000
_cell_volume 3788.152274
_symmetry_space_group_name_H-M "I M M M"
_symmetry_group_IT_number 71
_symmetry_cell_setting 'orthorhombic'
loop_
_space_group_symop_operation_xyz
x,y,z
-x,-y,z
x,-y,-z
-x,y,-z
-x,-y,-z
x,y,-z
-x,y,z
x,-y,z
1/2+x,1/2+y,1/2+z
1/2-x,1/2-y,1/2+z
1/2+x,1/2-y,1/2-z
1/2-x,1/2+y,1/2-z
1/2-x,1/2-y,1/2-z
1/2+x,1/2+y,1/2-z
1/2-x,1/2+y,1/2+z
1/2+x,1/2-y,1/2+z
loop_
_atom_site_type_symbol
_atom_site_label
_atom_site_fract_x
_atom_site_fract_y
_atom_site_fract_z
Si Si1 0.667187 0.056356 0.783387
Si Si2 0.169611 0.943429 0.217031
Si Si3 0.081376 0.653315 0.282273
Si Si4 0.833094 0.249766 0.289621
Si Si5 0.420521 0.349850 0.289161
O O1 0.748750 0.065405 0.730535
O O2 0.616957 0.101209 0.724159
O O3 0.646845 0.000000 0.726793
O O4 0.666277 0.056377 0.000000
O O5 0.119027 0.899243 0.282143
O O6 0.149332 0.000000 0.271175
O O7 0.169030 0.942824 0.000000
O O8 0.082350 0.653186 0.500000
O O9 0.127253 0.700744 0.219275
O O10 0.000000 0.657670 0.227617
O O11 0.840399 0.251767 0.500000
O O12 0.750000 0.250000 0.250000
O O13 0.872175 0.199096 0.232317
O O14 0.426829 0.357823 0.500000
O O15 0.500000 0.342565 0.217730
#
# Coordination Sequence:
#
# PCOD9521077 Si02
#       5
#    16  16  16  16  16
#     4   8  13  22  38  61  91 126 160 195 237 286
#     4   8  14  26  45  70 101 136 172 209 249 294
#     4   9  17  28  43  66  96 127 157 192 240 299
#     4  11  22  36  54  73  97 132 173 214 258 309
#     4  10  20  33  51  77 107 136 169 211 257 307
#
# _framework density 21.118475
#
# number of rings (size 3 to 8) (size 9 to 14) (size 15 to 20)
#    0.000    2.800    0.000    3.600    0.000    5.200 
#    0.000    4.000    0.000    0.600    0.000    1.400 
#    0.000    2.400    0.000   16.200    0.000   15.200 
#
# Total GULP energy -223332.445066 kJ/mol
# GULP energy per Si atom -5583.311127 kJ/mol
# Density = 2.107041 g / cm^3
# Si number density = 21.118475 Si / 1000 Ang^3
#
#
#
# Elastic Constant Matrix: (Units=GPa)
#
#
# Indices 1 2 3 4 5 6 
#
# 1 195.0231 151.2248 0.5570 0.0000 0.0000 0.0000
# 2 151.2248 216.2633 1.6705 0.0000 0.0000 0.0000
# 3 0.5570 1.6705 52.4910 0.0000 0.0000 0.0000
# 4 0.0000 0.0000 0.0000 13.0596 0.0000 0.0000
# 5 0.0000 0.0000 0.0000 0.0000 5.4022 0.0000
# 6 0.0000 0.0000 0.0000 0.0000 0.0000 -8.7529
#
#
#
# Elastic Compliance Matrix: (Units=1/GPa)
#
#
# Indices 1 2 3 4 5 6 
#
# 1 0.011202 -0.007834 0.000130 0.000000 0.000000 0.000000
# 2 -0.007834 0.010104 -0.000238 0.000000 0.000000 0.000000
# 3 0.000130 -0.000238 0.019057 0.000000 0.000000 0.000000
# 4 0.000000 0.000000 0.000000 0.076572 0.000000 0.000000
# 5 0.000000 0.000000 0.000000 0.000000 0.185111 0.000000
# 6 0.000000 0.000000 0.000000 0.000000 0.000000 -0.114248
#
#
# Mechanical properties :
#
#
# Convention : Reuss Voigt Hill
#
# Bulk Modulus (GPa) = 40.85163 85.63131 63.24147
# Shear Modulus (GPa) = 23.60253 22.63013 23.11633
#
# Velocity S-wave (km/s) = 3.34672 3.27705 3.31207
# Velocity P-wave (km/s) = 5.85833 7.41315 6.68113
#
# Compressibility (1/GPa) = 0.02447883
#
# Stress axis : x y z
#
# Youngs Moduli (GPa) = 89.27025 98.97141 52.47387
#
# Poissons Ratio (x) = 0.77535 -0.00685
# Poissons Ratio (y) = 0.69935 0.01251
# Poissons Ratio (z) = -0.01165 0.02360
#
# Static dielectric constant tensor:
#      x y z
#    x 1.714590 0.000000 0.000000 
#    y 0.000000 1.730490 0.000000 
#    z 0.000000 0.000000 1.850190 
# 
# From -- ./inp_files/8302.got.cif
#   From: 2010.05.17/outbox.cif.g08.bks.cpg/sg71_5_cif.got.tgz:8302.got - 2010.06.03 16:22:01.
