data_PCOD9521368
_publ_section_title
;
Structure prediction by ZEFSAII (Michael W. Deem and Ramdas Pophale) SiO2 
 PCOD9521368
Probable space group: I M M M
;
_chemical_formula_sum "Si O2"
_cell_formula_units_Z 74
_cell_length_a 14.305634
_cell_length_b 33.695441
_cell_length_c 9.202789
_cell_angle_alpha 90.000000
_cell_angle_beta 90.000000
_cell_angle_gamma 90.000000
_cell_volume 4436.063142
_symmetry_space_group_name_H-M "I M M M"
_symmetry_group_IT_number 71
_symmetry_cell_setting 'orthorhombic'
loop_
_space_group_symop_operation_xyz
x,y,z
-x,-y,z
x,-y,-z
-x,y,-z
-x,-y,-z
x,y,-z
-x,y,z
x,-y,z
1/2+x,1/2+y,1/2+z
1/2-x,1/2-y,1/2+z
1/2+x,1/2-y,1/2-z
1/2-x,1/2+y,1/2-z
1/2-x,1/2-y,1/2-z
1/2+x,1/2+y,1/2-z
1/2-x,1/2+y,1/2+z
1/2+x,1/2-y,1/2+z
loop_
_atom_site_type_symbol
_atom_site_label
_atom_site_fract_x
_atom_site_fract_y
_atom_site_fract_z
Si Si1 0.108630 0.642373 0.330726
Si Si2 0.891069 0.855317 0.673990
Si Si3 0.235177 0.419308 0.827154
Si Si4 0.500000 0.000000 0.000000
Si Si5 0.736046 0.708336 0.328841
Si Si6 0.196099 0.500000 0.339545
O O1 0.118575 0.629450 0.500000
O O2 0.151368 0.608739 0.228750
O O3 0.170358 0.681752 0.312727
O O4 0.000000 0.649411 0.302524
O O5 0.882539 0.848807 0.500000
O O6 0.828935 0.894157 0.708996
O O7 0.845257 0.818152 0.756615
O O8 0.000000 0.860225 0.709175
O O9 0.225938 0.460883 0.746488
O O10 0.231344 0.424537 0.000000
O O11 0.415387 0.000000 0.875346
O O12 0.718494 0.713912 0.500000
O O13 0.750000 0.750000 0.250000
O O14 0.240980 0.500000 0.500000
#
# Coordination Sequence:
#
# PCOD9521368 Si02
#       6
#    16  16  16   2  16   8
#     4   9  19  34  52  71  99 137 172 202 250 315
#     4   9  19  37  58  78 103 140 179 220 270 324
#     4  10  20  34  54  80 106 132 170 219 263 304
#     4   8  24  36  54  76 102 152 190 192 252 324
#     4  10  20  34  52  77 106 138 175 219 263 311
#     4  10  21  37  54  74 106 143 178 206 247 314
#
# _framework density 16.681457000000002
#
# number of rings (size 3 to 8) (size 9 to 14) (size 15 to 20)
#    0.324    2.162    0.000    1.622    1.514    3.459 
#    0.000    3.243    0.000    3.243    0.000    0.000 
#    0.000    0.000    0.000    0.000    0.000    0.000 
#
# Total GULP energy -206024.998781 kJ/mol
# GULP energy per Si atom -5568.243210 kJ/mol
# Density = 1.664349 g / cm^3
# Si number density = 16.681457 Si / 1000 Ang^3
#
#
#
# Elastic Constant Matrix: (Units=GPa)
#
#
# Indices 1 2 3 4 5 6 
#
# 1 129.8349 59.6202 60.2852 0.0000 0.0002 0.0000
# 2 59.6202 142.0584 87.0357 -0.0003 0.0001 0.0000
# 3 60.2852 87.0357 90.9051 0.0004 -0.0008 0.0003
# 4 0.0000 -0.0003 0.0004 32.9872 -0.0001 0.0000
# 5 0.0002 0.0001 -0.0008 -0.0001 26.5734 0.0000
# 6 0.0000 0.0000 0.0003 0.0000 0.0000 4.3614
#
#
#
# Elastic Compliance Matrix: (Units=1/GPa)
#
#
# Indices 1 2 3 4 5 6 
#
# 1 0.011137 -0.000361 -0.007040 0.000000 0.000000 0.000000
# 2 -0.000361 0.017039 -0.016075 0.000000 -0.000001 0.000001
# 3 -0.007040 -0.016075 0.031060 -0.000001 0.000001 -0.000002
# 4 0.000000 0.000000 -0.000001 0.030315 0.000000 0.000000
# 5 0.000000 -0.000001 0.000001 0.000000 0.037632 0.000000
# 6 0.000000 0.000001 -0.000002 0.000000 0.000000 0.229283
#
#
# Mechanical properties :
#
#
# Convention : Reuss Voigt Hill
#
# Bulk Modulus (GPa) = 81.40317 86.29787 83.85052
# Shear Modulus (GPa) = 12.26956 23.17488 17.72222
#
# Velocity S-wave (km/s) = 2.71499 3.73132 3.26297
# Velocity P-wave (km/s) = 7.66373 8.39099 8.03559
#
# Compressibility (1/GPa) = 0.01228453
#
# Stress axis : x y z
#
# Youngs Moduli (GPa) = 89.79425 58.68725 32.19556
#
# Poissons Ratio (x) = 0.02116 0.22666
# Poissons Ratio (y) = 0.03237 0.51755
# Poissons Ratio (z) = 0.63217 0.94340
#
# Static dielectric constant tensor:
#      x y z
#    x 1.546550 0.000000 0.000000 
#    y 0.000000 1.340250 0.000000 
#    z 0.000000 0.000000 1.562060 
# 
# From -- ./inp_files/6127.got.cif
#   From: 2010.05.17/outbox.cif.g08.bks.cpg/sg71_4_cif.got.tgz:6127.got - 2010.06.03 16:22:01.
