data_PCOD9521375
_publ_section_title
;
Structure prediction by ZEFSAII (Michael W. Deem and Ramdas Pophale) SiO2 
 PCOD9521375
Probable space group: I M M M
;
_chemical_formula_sum "Si O2"
_cell_formula_units_Z 84
_cell_length_a 13.030587
_cell_length_b 21.306550
_cell_length_c 13.914625
_cell_angle_alpha 90.000000
_cell_angle_beta 90.000000
_cell_angle_gamma 90.000000
_cell_volume 3863.212702
_symmetry_space_group_name_H-M "I M M M"
_symmetry_group_IT_number 71
_symmetry_cell_setting 'orthorhombic'
loop_
_space_group_symop_operation_xyz
x,y,z
-x,-y,z
x,-y,-z
-x,y,-z
-x,-y,-z
x,y,-z
-x,y,z
x,-y,z
1/2+x,1/2+y,1/2+z
1/2-x,1/2-y,1/2+z
1/2+x,1/2-y,1/2-z
1/2-x,1/2+y,1/2-z
1/2-x,1/2-y,1/2-z
1/2+x,1/2+y,1/2-z
1/2-x,1/2+y,1/2+z
1/2+x,1/2-y,1/2+z
loop_
_atom_site_type_symbol
_atom_site_label
_atom_site_fract_x
_atom_site_fract_y
_atom_site_fract_z
Si Si1 0.000000 0.000000 0.626526
Si Si2 0.330567 0.737950 0.395397
Si Si3 0.887215 0.752651 0.315222
Si Si4 0.618548 0.406963 0.603666
Si Si5 0.332894 0.399133 0.186066
Si Si6 0.111445 0.426233 0.884802
O O1 0.090570 0.054735 0.630312
O O2 0.349631 0.768301 0.500000
O O3 0.208746 0.729559 0.377363
O O4 0.371547 0.767282 0.296396
O O5 0.378310 0.668637 0.399252
O O6 0.877071 0.828555 0.315382
O O7 0.000000 0.734414 0.348832
O O8 0.659337 0.428422 0.500000
O O9 0.500000 0.426915 0.611512
O O10 0.670097 0.423751 0.703778
O O11 0.217442 0.396422 0.148602
O O12 0.117064 0.500000 0.858052
O O13 0.000000 0.401928 0.850409
O O14 0.110357 0.423469 0.000000
#
# Coordination Sequence:
#
# PCOD9521375 Si02
#       6
#     4  16  16  16  16  16
#     4  12  20  32  56  86 116 152 180 222 276 332
#     4   9  18  33  53  74  97 135 178 212 260 324
#     4  10  20  34  52  77 110 141 173 221 276 327
#     4   9  17  33  56  80 110 144 173 214 275 335
#     4  11  19  34  55  81 114 142 181 225 268 324
#     4   9  19  36  55  71  93 136 188 229 266 310
#
# _framework density 21.743559999999999
#
# number of rings (size 3 to 8) (size 9 to 14) (size 15 to 20)
#    0.000    2.286    2.857    2.286    0.000    2.286 
#    0.000   11.429    0.000    4.000    0.000    1.333 
#    0.000    0.000    0.000    0.000    0.000    0.000 
#
# Total GULP energy -233871.762536 kJ/mol
# GULP energy per Si atom -5568.375298 kJ/mol
# Density = 2.169407 g / cm^3
# Si number density = 21.743560 Si / 1000 Ang^3
#
#
#
# Elastic Constant Matrix: (Units=GPa)
#
#
# Indices 1 2 3 4 5 6 
#
# 1 162.1858 23.3380 11.2962 0.0000 0.0002 0.0003
# 2 23.3380 73.5659 2.1480 0.0002 -0.0006 -0.0011
# 3 11.2962 2.1480 57.4220 0.0001 -0.0009 -0.0011
# 4 0.0000 0.0002 0.0001 0.3339 -0.0005 -0.0009
# 5 0.0002 -0.0006 -0.0009 -0.0005 -353.4398 0.0053
# 6 0.0003 -0.0011 -0.0011 -0.0009 0.0053 -339.0776
#
#
#
# Elastic Compliance Matrix: (Units=1/GPa)
#
#
# Indices 1 2 3 4 5 6 
#
# 1 0.006544 -0.002041 -0.001211 0.000002 0.000000 0.000000
# 2 -0.002041 0.014244 -0.000131 -0.000009 0.000000 0.000000
# 3 -0.001211 -0.000131 0.017658 -0.000008 0.000000 0.000000
# 4 0.000002 -0.000009 -0.000008 2.995204 -0.000005 -0.000008
# 5 0.000000 0.000000 0.000000 -0.000005 -0.002829 0.000000
# 6 0.000000 0.000000 0.000000 -0.000008 0.000000 -0.002949
#
#
# Mechanical properties :
#
#
# Convention : Reuss Voigt Hill
#
# Bulk Modulus (GPa) = 31.56533 40.74867 36.15700
# Shear Modulus (GPa) = 1.64193 -121.34394 -59.85101
#
# Velocity S-wave (km/s) = 0.86993 -7.47850 -5.25220
# Velocity P-wave (km/s) = 3.94432 7.46923 4.48507
#
# Compressibility (1/GPa) = 0.03168033
#
# Stress axis : x y z
#
# Youngs Moduli (GPa) = 152.81776 70.20288 56.63134
#
# Poissons Ratio (x) = 0.14325 0.06858
# Poissons Ratio (y) = 0.31184 0.00744
# Poissons Ratio (z) = 0.18506 0.00923
#
# Static dielectric constant tensor:
#      x y z
#    x 1.778750 0.000000 0.000000 
#    y 0.000000 1.838120 0.000000 
#    z 0.000000 0.000000 1.849260 
# 
# From -- ./inp_files/32740.got.cif
#   From: 2010.05.17/outbox.cif.g08.bks.cpg/sg71_17_cif.got.tgz:32740.got - 2010.06.03 16:22:01.
