data_PCOD9521405
_publ_section_title
;
Structure prediction by ZEFSAII (Michael W. Deem and Ramdas Pophale) SiO2 
 PCOD9521405
Probable space group: I M M M
;
_chemical_formula_sum "Si O2"
_cell_formula_units_Z 80
_cell_length_a 7.608933
_cell_length_b 26.057922
_cell_length_c 23.804193
_cell_angle_alpha 90.000000
_cell_angle_beta 90.000000
_cell_angle_gamma 90.000000
_cell_volume 4719.728345
_symmetry_space_group_name_H-M "I M M M"
_symmetry_group_IT_number 71
_symmetry_cell_setting 'orthorhombic'
loop_
_space_group_symop_operation_xyz
x,y,z
-x,-y,z
x,-y,-z
-x,y,-z
-x,-y,-z
x,y,-z
-x,y,z
x,-y,z
1/2+x,1/2+y,1/2+z
1/2-x,1/2-y,1/2+z
1/2+x,1/2-y,1/2-z
1/2-x,1/2+y,1/2-z
1/2-x,1/2-y,1/2-z
1/2+x,1/2+y,1/2-z
1/2-x,1/2+y,1/2+z
1/2+x,1/2-y,1/2+z
loop_
_atom_site_type_symbol
_atom_site_label
_atom_site_fract_x
_atom_site_fract_y
_atom_site_fract_z
Si Si1 0.701826 0.057299 0.617806
Si Si2 0.793280 0.444097 0.252929
Si Si3 0.285618 0.829721 0.755339
Si Si4 0.000000 0.880213 0.437144
Si Si5 0.703348 0.242373 0.344829
Si Si6 0.000000 0.241724 0.435461
O O1 0.500000 0.067021 0.602657
O O2 0.713251 0.056351 0.685212
O O3 0.829664 0.099036 0.593778
O O4 0.750997 0.000000 0.598048
O O5 0.719524 0.500000 0.271248
O O6 0.723083 0.387651 0.268003
O O7 0.000000 0.444335 0.268818
O O8 0.500000 0.829303 0.756594
O O9 0.238271 0.806591 0.693790
O O10 0.217547 0.789882 0.801464
O O11 0.000000 0.819585 0.439413
O O12 0.000000 0.901314 0.500000
O O13 0.500000 0.234713 0.361206
O O14 0.829472 0.253720 0.397247
O O15 0.000000 0.261894 0.500000
#
# Coordination Sequence:
#
# PCOD9521405 Si02
#       6
#    16  16  16   8  16   8
#     4   9  18  33  49  66  92 127 166 204 244 292
#     4   8  14  26  46  71  99 132 161 189 240 302
#     4   9  16  29  51  77 106 133 166 213 253 303
#     4  11  23  34  47  66  88 121 170 218 255 287
#     4  10  20  34  53  76 100 133 174 212 260 306
#     4  11  24  39  52  71 101 134 172 219 261 308
#
# _framework density 16.950129
#
# number of rings (size 3 to 8) (size 9 to 14) (size 15 to 20)
#    0.000    2.600    1.000    2.700    1.400    4.000 
#    1.800    3.000    0.000    0.000    0.000    0.000 
#    0.000    1.600    0.000    1.800    0.000    0.000 
#
# Total GULP energy -222892.066930 kJ/mol
# GULP energy per Si atom -5572.301673 kJ/mol
# Density = 1.691155 g / cm^3
# Si number density = 16.950129 Si / 1000 Ang^3
#
#
#
# Elastic Constant Matrix: (Units=GPa)
#
#
# Indices 1 2 3 4 5 6 
#
# 1 51.2673 9.5020 31.9021 0.0000 0.0000 0.0000
# 2 9.5020 101.9258 12.6936 0.0000 0.0000 0.0000
# 3 31.9021 12.6936 69.0489 0.0000 0.0000 0.0000
# 4 0.0000 0.0000 0.0000 20.6487 0.0000 0.0000
# 5 0.0000 0.0000 0.0000 0.0000 17.4824 0.0000
# 6 0.0000 0.0000 0.0000 0.0000 0.0000 12.9473
#
#
#
# Elastic Compliance Matrix: (Units=1/GPa)
#
#
# Indices 1 2 3 4 5 6 
#
# 1 0.027476 -0.001003 -0.012510 0.000000 0.000000 0.000000
# 2 -0.001003 0.010078 -0.001389 0.000000 0.000000 0.000000
# 3 -0.012510 -0.001389 0.020518 0.000000 0.000000 0.000000
# 4 0.000000 0.000000 0.000000 0.048429 0.000000 0.000000
# 5 0.000000 0.000000 0.000000 0.000000 0.057200 0.000000
# 6 0.000000 0.000000 0.000000 0.000000 0.000000 0.077236
#
#
# Mechanical properties :
#
#
# Convention : Reuss Voigt Hill
#
# Bulk Modulus (GPa) = 35.37764 36.71525 36.04644
# Shear Modulus (GPa) = 17.84662 21.42530 19.63596
#
# Velocity S-wave (km/s) = 3.24835 3.55916 3.40730
# Velocity P-wave (km/s) = 5.91489 6.21273 6.06564
#
# Compressibility (1/GPa) = 0.02826644
#
# Stress axis : x y z
#
# Youngs Moduli (GPa) = 36.39501 99.23011 48.73818
#
# Poissons Ratio (x) = 0.09957 0.60972
# Poissons Ratio (y) = 0.03652 0.06770
# Poissons Ratio (z) = 0.45531 0.13783
#
# Static dielectric constant tensor:
#      x y z
#    x 1.599450 0.000000 0.000000 
#    y 0.000000 1.624010 0.000000 
#    z 0.000000 0.000000 1.555150 
# 
# From -- ./inp_files/57855.got.cif
#   From: 2010.05.17/outbox.cif.g08.bks.cpg/sg71_29_cif.got.tgz:57855.got - 2010.06.03 16:22:01.
