data_PCOD9521103
_publ_section_title
;
Structure prediction by ZEFSAII (Michael W. Deem and Ramdas Pophale) SiO2 
 PCOD9521103
Probable space group: I M M M
;
_chemical_formula_sum "Si O2"
_cell_formula_units_Z 104
_cell_length_a 26.542545
_cell_length_b 8.319940
_cell_length_c 23.857528
_cell_angle_alpha 90.000000
_cell_angle_beta 90.000000
_cell_angle_gamma 90.000000
_cell_volume 5268.514733
_symmetry_space_group_name_H-M "I M M M"
_symmetry_group_IT_number 71
_symmetry_cell_setting 'orthorhombic'
loop_
_space_group_symop_operation_xyz
x,y,z
-x,-y,z
x,-y,-z
-x,y,-z
-x,-y,-z
x,y,-z
-x,y,z
x,-y,z
1/2+x,1/2+y,1/2+z
1/2-x,1/2-y,1/2+z
1/2+x,1/2-y,1/2-z
1/2-x,1/2+y,1/2-z
1/2-x,1/2-y,1/2-z
1/2+x,1/2+y,1/2-z
1/2-x,1/2+y,1/2+z
1/2+x,1/2-y,1/2+z
loop_
_atom_site_type_symbol
_atom_site_label
_atom_site_fract_x
_atom_site_fract_y
_atom_site_fract_z
Si Si1 0.221501 0.683682 0.062045
Si Si2 0.648994 0.303887 0.714401
Si Si3 0.445278 0.500000 0.566602
Si Si4 0.058209 0.306692 0.435809
Si Si5 0.890327 0.676007 0.099370
Si Si6 0.257857 0.183270 0.826248
Si Si7 0.130352 0.188477 0.663969
O O1 0.238857 0.500000 0.074920
O O2 0.161204 0.676731 0.064083
O O3 0.236134 0.804998 0.110587
O O4 0.239336 0.727138 0.000000
O O5 0.646245 0.500000 0.706612
O O6 0.625817 0.205784 0.663495
O O7 0.709452 0.265019 0.711640
O O8 0.619984 0.260620 0.771614
O O9 0.500000 0.500000 0.593215
O O10 0.447944 0.500000 0.500000
O O11 0.419833 0.334082 0.583127
O O12 0.071075 0.251944 0.500000
O O13 0.057238 0.500000 0.437476
O O14 0.098118 0.261699 0.387069
O O15 0.000000 0.253181 0.423955
O O16 0.914440 0.500000 0.092289
O O17 0.309435 0.280526 0.834415
O O18 0.270387 0.000000 0.811305
O O19 0.121456 0.000000 0.660122
#
# Coordination Sequence:
#
# PCOD9521103 Si02
#       7
#    16  16   8  16  16  16  16
#     4   9  18  32  51  77 108 145 193 243 288 344
#     4   9  19  37  58  83 117 157 198 240 292 353
#     4  11  24  40  60  86 118 154 193 247 302 350
#     4   9  20  41  65  85 109 145 192 247 302 358
#     4  10  20  37  61  85 113 153 200 245 298 355
#     4  10  20  33  51  78 115 157 196 234 285 348
#     4  11  22  35  57  87 119 152 190 238 294 355
#
# _framework density 19.739908
#
# number of rings (size 3 to 8) (size 9 to 14) (size 15 to 20)
#    0.000    2.231    0.769    2.308    1.077    4.615 
#    0.000    2.308    0.000    0.000    0.000    0.000 
#    0.000    0.000    0.000    0.000    0.000    0.000 
#
# Total GULP energy -289530.469093 kJ/mol
# GULP energy per Si atom -5567.893636 kJ/mol
# Density = 1.969498 g / cm^3
# Si number density = 19.739908 Si / 1000 Ang^3
#
#
#
# Elastic Constant Matrix: (Units=GPa)
#
#
# Indices 1 2 3 4 5 6 
#
# 1 50.8730 17.1070 41.6270 0.0000 0.0000 0.0000
# 2 17.1070 60.6259 24.5577 0.0000 0.0000 0.0000
# 3 41.6270 24.5577 121.6782 0.0000 0.0000 0.0000
# 4 0.0000 0.0000 0.0000 16.7873 0.0000 0.0000
# 5 0.0000 0.0000 0.0000 0.0000 25.8909 0.0000
# 6 0.0000 0.0000 0.0000 0.0000 0.0000 0.5905
#
#
#
# Elastic Compliance Matrix: (Units=1/GPa)
#
#
# Indices 1 2 3 4 5 6 
#
# 1 0.028352 -0.004434 -0.008805 0.000000 0.000000 0.000000
# 2 -0.004434 0.018656 -0.002249 0.000000 0.000000 0.000000
# 3 -0.008805 -0.002249 0.011684 0.000000 0.000000 0.000000
# 4 0.000000 0.000000 0.000000 0.059569 0.000000 0.000000
# 5 0.000000 0.000000 0.000000 0.000000 0.038624 0.000000
# 6 0.000000 0.000000 0.000000 0.000000 0.000000 1.693433
#
#
# Mechanical properties :
#
#
# Convention : Reuss Voigt Hill
#
# Bulk Modulus (GPa) = 36.07609 44.41782 40.24696
# Shear Modulus (GPa) = 2.64476 18.64609 10.64542
#
# Velocity S-wave (km/s) = 1.15875 3.07675 2.32477
# Velocity P-wave (km/s) = 4.48393 5.93062 5.25728
#
# Compressibility (1/GPa) = 0.02771919
#
# Stress axis : x y z
#
# Youngs Moduli (GPa) = 35.27067 53.60068 85.58461
#
# Poissons Ratio (x) = 0.23765 0.75354
# Poissons Ratio (y) = 0.15638 0.19244
# Poissons Ratio (z) = 0.31055 0.12052
#
# Static dielectric constant tensor:
#      x y z
#    x 1.721150 0.000000 0.000000 
#    y 0.000000 1.931760 0.000000 
#    z 0.000000 0.000000 1.751450 
# 
# From -- ./inp_files/61962.got.cif
#   From: 2010.05.17/outbox.cif.g08.bks.cpg/sg71_31_cif.got.tgz:61962.got - 2010.06.03 16:22:01.
