data_PCOD9521269
_publ_section_title
;
Structure prediction by ZEFSAII (Michael W. Deem and Ramdas Pophale) SiO2 
 PCOD9521269
Probable space group: I M M M
;
_chemical_formula_sum "Si O2"
_cell_formula_units_Z 80
_cell_length_a 9.593071
_cell_length_b 18.794167
_cell_length_c 30.814122
_cell_angle_alpha 90.000000
_cell_angle_beta 90.000000
_cell_angle_gamma 90.000000
_cell_volume 5555.594484
_symmetry_space_group_name_H-M "I M M M"
_symmetry_group_IT_number 71
_symmetry_cell_setting 'orthorhombic'
loop_
_space_group_symop_operation_xyz
x,y,z
-x,-y,z
x,-y,-z
-x,y,-z
-x,-y,-z
x,y,-z
-x,y,z
x,-y,z
1/2+x,1/2+y,1/2+z
1/2-x,1/2-y,1/2+z
1/2+x,1/2-y,1/2-z
1/2-x,1/2+y,1/2-z
1/2-x,1/2-y,1/2-z
1/2+x,1/2+y,1/2-z
1/2-x,1/2+y,1/2+z
1/2+x,1/2-y,1/2+z
loop_
_atom_site_type_symbol
_atom_site_label
_atom_site_fract_x
_atom_site_fract_y
_atom_site_fract_z
Si Si1 0.163901 0.000000 0.331376
Si Si2 0.333909 0.731501 0.183380
Si Si3 0.169864 0.500000 0.742886
Si Si4 0.000000 0.083018 0.550925
Si Si5 0.000000 0.586253 0.051812
Si Si6 0.833658 0.857483 0.228491
Si Si7 0.236986 0.132420 0.607226
O O1 0.194377 0.931620 0.360551
O O2 0.273541 0.000000 0.292297
O O3 0.000000 0.000000 0.317035
O O4 0.500000 0.747904 0.179759
O O5 0.240247 0.797345 0.199227
O O6 0.322695 0.672416 0.221941
O O7 0.276010 0.700361 0.138253
O O8 0.243589 0.429290 0.723888
O O9 0.000000 0.500000 0.740133
O O10 0.873369 0.127179 0.569145
O O11 0.000000 0.078821 0.500000
O O12 0.000000 0.000000 0.566678
O O13 0.874406 0.615569 0.080712
O O14 0.000000 0.500000 0.052946
O O15 0.000000 0.605276 0.000000
O O16 0.000000 0.866567 0.219796
#
# Coordination Sequence:
#
# PCOD9521269 Si02
#       7
#     8  16   8   8   8  16  16
#     4  12  20  32  47  73  95 130 180 215 249 296
#     4  10  20  34  50  72  99 128 170 213 251 297
#     4  12  24  34  52  73 103 134 168 211 252 294
#     4  11  20  32  50  71  94 131 177 216 259 299
#     4  11  24  36  46  69 102 133 173 224 265 301
#     4  10  21  35  52  73 101 131 165 208 253 296
#     4  12  20  33  51  68  96 134 173 219 256 295
#
# _framework density 14.399899
#
# number of rings (size 3 to 8) (size 9 to 14) (size 15 to 20)
#    0.000    1.000    6.000    2.100    2.800    2.400 
#    0.000    0.000    0.000    0.000    0.000    0.000 
#    0.000    0.000    0.000    5.400    0.000    0.100 
#
# Total GULP energy -222834.856995 kJ/mol
# GULP energy per Si atom -5570.871425 kJ/mol
# Density = 1.436712 g / cm^3
# Si number density = 14.399899 Si / 1000 Ang^3
#
#
#
# Elastic Constant Matrix: (Units=GPa)
#
#
# Indices 1 2 3 4 5 6 
#
# 1 162.7422 58.2111 51.7496 0.0000 0.0000 0.0000
# 2 58.2111 85.5404 41.5276 0.0000 0.0000 0.0000
# 3 51.7496 41.5276 88.1080 0.0000 0.0000 0.0000
# 4 0.0000 0.0000 0.0000 69.9697 0.0000 0.0000
# 5 0.0000 0.0000 0.0000 0.0000 28.1242 0.0000
# 6 0.0000 0.0000 0.0000 0.0000 0.0000 21.0508
#
#
#
# Elastic Compliance Matrix: (Units=1/GPa)
#
#
# Indices 1 2 3 4 5 6 
#
# 1 0.008695 -0.004458 -0.003006 0.000000 0.000000 0.000000
# 2 -0.004458 0.017444 -0.005604 0.000000 0.000000 0.000000
# 3 -0.003006 -0.005604 0.015756 0.000000 0.000000 0.000000
# 4 0.000000 0.000000 0.000000 0.014292 0.000000 0.000000
# 5 0.000000 0.000000 0.000000 0.000000 0.035557 0.000000
# 6 0.000000 0.000000 0.000000 0.000000 0.000000 0.047504
#
#
# Mechanical properties :
#
#
# Convention : Reuss Voigt Hill
#
# Bulk Modulus (GPa) = 63.44786 71.04081 67.24434
# Shear Modulus (GPa) = 29.30198 36.15576 32.72887
#
# Velocity S-wave (km/s) = 4.51585 5.01626 4.77262
# Velocity P-wave (km/s) = 8.44675 9.10998 8.78463
#
# Compressibility (1/GPa) = 0.01576097
#
# Stress axis : x y z
#
# Youngs Moduli (GPa) = 115.00849 57.32488 63.46628
#
# Poissons Ratio (x) = 0.25554 0.19077
# Poissons Ratio (y) = 0.51268 0.35565
# Poissons Ratio (z) = 0.34570 0.32124
#
# Static dielectric constant tensor:
#      x y z
#    x 1.519990 0.000000 0.000000 
#    y 0.000000 1.468370 0.000000 
#    z 0.000000 0.000000 1.467620 
# 
# From -- ./inp_files/42412.got.cif
#   From: 2010.05.17/outbox.cif.g08.bks.cpg/sg71_22_cif.got.tgz:42412.got - 2010.06.03 16:22:01.
