data_PCOD9521724
_publ_section_title
;
Structure prediction by ZEFSAII (Michael W. Deem and Ramdas Pophale) SiO2 
 PCOD9521724
Probable space group: I M M M
;
_chemical_formula_sum "Si O2"
_cell_formula_units_Z 90
_cell_length_a 14.743344
_cell_length_b 15.142649
_cell_length_c 20.399227
_cell_angle_alpha 90.000000
_cell_angle_beta 90.000000
_cell_angle_gamma 90.000000
_cell_volume 4554.194404
_symmetry_space_group_name_H-M "I M M M"
_symmetry_group_IT_number 71
_symmetry_cell_setting 'orthorhombic'
loop_
_space_group_symop_operation_xyz
x,y,z
-x,-y,z
x,-y,-z
-x,y,-z
-x,-y,-z
x,y,-z
-x,y,z
x,-y,z
1/2+x,1/2+y,1/2+z
1/2-x,1/2-y,1/2+z
1/2+x,1/2-y,1/2-z
1/2-x,1/2+y,1/2-z
1/2-x,1/2-y,1/2-z
1/2+x,1/2+y,1/2-z
1/2-x,1/2+y,1/2+z
1/2+x,1/2-y,1/2+z
loop_
_atom_site_type_symbol
_atom_site_label
_atom_site_fract_x
_atom_site_fract_y
_atom_site_fract_z
Si Si1 0.000000 0.000000 0.000000
Si Si2 0.000000 0.098399 0.864677
Si Si3 0.631769 0.250397 0.321903
Si Si4 0.649947 0.753342 0.827165
Si Si5 0.108643 0.400336 0.570849
Si Si6 0.135538 0.398484 0.074824
Si Si7 0.356269 0.398635 0.074431
O O1 0.000000 0.924434 0.058483
O O2 0.913683 0.158602 0.845824
O O3 0.000000 0.000000 0.832447
O O4 0.609099 0.239980 0.245195
O O5 0.740914 0.249212 0.323169
O O6 0.604093 0.171245 0.370854
O O7 0.631959 0.839392 0.869553
O O8 0.615254 0.670086 0.869849
O O9 0.141693 0.365433 0.500000
O O10 0.143478 0.500000 0.578215
O O11 0.000000 0.404652 0.567723
O O12 0.108626 0.500000 0.088412
O O13 0.245971 0.397631 0.074831
O O14 0.108067 0.376249 0.000000
O O15 0.384374 0.500000 0.086491
O O16 0.384704 0.374091 0.000000
#
# Coordination Sequence:
#
# PCOD9521724 Si02
#       7
#     2   8  16  16  16  16  16
#     4   8  24  48  64  76 110 172 216 252 308 328
#     4  10  24  44  59  80 113 160 203 249 297 344
#     4  10  22  36  56  83 115 145 193 236 292 350
#     4  10  20  34  56  87 110 147 187 238 289 352
#     4   9  19  36  56  81 113 148 187 234 290 347
#     4   8  15  29  51  76 103 137 173 220 277 332
#     4   8  14  27  48  75 107 138 172 216 271 328
#
# _framework density 19.762003
#
# number of rings (size 3 to 8) (size 9 to 14) (size 15 to 20)
#    0.267    2.667    0.000    2.133    2.489    2.844 
#    0.000    4.000    0.000    1.067    0.000    2.489 
#    0.000    0.000    0.000    0.000    0.000    0.000 
#
# Total GULP energy -250563.100920 kJ/mol
# GULP energy per Si atom -5568.068909 kJ/mol
# Density = 1.971702 g / cm^3
# Si number density = 19.762003 Si / 1000 Ang^3
#
#
#
# Elastic Constant Matrix: (Units=GPa)
#
#
# Indices 1 2 3 4 5 6 
#
# 1 49.4188 12.9404 20.5813 0.0000 0.0000 0.0000
# 2 12.9404 142.6063 121.8419 0.0000 0.0000 0.0000
# 3 20.5813 121.8419 211.2585 0.0000 0.0000 0.0000
# 4 0.0000 0.0000 0.0000 146.0894 0.0000 0.0000
# 5 0.0000 0.0000 0.0000 0.0000 -15.3771 0.0000
# 6 0.0000 0.0000 0.0000 0.0000 0.0000 27.6426
#
#
#
# Elastic Compliance Matrix: (Units=1/GPa)
#
#
# Indices 1 2 3 4 5 6 
#
# 1 0.021098 -0.000312 -0.001875 0.000000 0.000000 0.000000
# 2 -0.000312 0.013829 -0.007945 0.000000 0.000000 0.000000
# 3 -0.001875 -0.007945 0.009499 0.000000 0.000000 0.000000
# 4 0.000000 0.000000 0.000000 0.006845 0.000000 0.000000
# 5 0.000000 0.000000 0.000000 0.000000 -0.065032 0.000000
# 6 0.000000 0.000000 0.000000 0.000000 0.000000 0.036176
#
#
# Mechanical properties :
#
#
# Convention : Reuss Voigt Hill
#
# Bulk Modulus (GPa) = 41.39093 79.33454 60.36273
# Shear Modulus (GPa) = 98.55142 48.19897 73.37519
#
# Velocity S-wave (km/s) = 7.06947 4.94395 6.10000
# Velocity P-wave (km/s) = 9.36091 8.53360 8.95682
#
# Compressibility (1/GPa) = 0.02415988
#
# Stress axis : x y z
#
# Youngs Moduli (GPa) = 47.39787 72.31065 105.27703
#
# Poissons Ratio (x) = 0.02257 0.19743
# Poissons Ratio (y) = 0.01480 0.83648
# Poissons Ratio (z) = 0.08889 0.57454
#
# Static dielectric constant tensor:
#      x y z
#    x 1.738920 0.000000 0.000000 
#    y 0.000000 1.676820 0.000000 
#    z 0.000000 0.000000 1.692350 
# 
# From -- ./inp_files/54099.got.cif
#   From: 2010.05.17/outbox.cif.g08.bks.cpg/sg71_28_cif.got.tgz:54099.got - 2010.06.03 16:22:01.
