data_PCOD9521981
_publ_section_title
;
Structure prediction by ZEFSAII (Michael W. Deem and Ramdas Pophale) SiO2 
 PCOD9521981
Probable space group: I M M M
;
_chemical_formula_sum "Si O2"
_cell_formula_units_Z 88
_cell_length_a 7.550781
_cell_length_b 17.194404
_cell_length_c 27.934757
_cell_angle_alpha 90.000000
_cell_angle_beta 90.000000
_cell_angle_gamma 90.000000
_cell_volume 3626.802437
_symmetry_space_group_name_H-M "I M M M"
_symmetry_group_IT_number 71
_symmetry_cell_setting 'orthorhombic'
loop_
_space_group_symop_operation_xyz
x,y,z
-x,-y,z
x,-y,-z
-x,y,-z
-x,-y,-z
x,y,-z
-x,y,z
x,-y,z
1/2+x,1/2+y,1/2+z
1/2-x,1/2-y,1/2+z
1/2+x,1/2-y,1/2-z
1/2-x,1/2+y,1/2-z
1/2-x,1/2-y,1/2-z
1/2+x,1/2+y,1/2-z
1/2-x,1/2+y,1/2+z
1/2+x,1/2-y,1/2+z
loop_
_atom_site_type_symbol
_atom_site_label
_atom_site_fract_x
_atom_site_fract_y
_atom_site_fract_z
Si Si1 0.293663 0.913422 0.607851
Si Si2 0.283033 0.751679 0.630403
Si Si3 0.199108 0.093724 0.500000
Si Si4 0.786614 0.139792 0.053354
Si Si5 0.202324 0.500000 0.624418
Si Si6 0.800402 0.000000 0.767866
Si Si7 0.712343 0.668760 0.723727
O O1 0.500000 0.919255 0.620578
O O2 0.218468 0.839934 0.636572
O O3 0.285981 0.890143 0.551393
O O4 0.215093 0.000000 0.613918
O O5 0.500000 0.753267 0.632382
O O6 0.229506 0.718910 0.578924
O O7 0.223909 0.690345 0.670348
O O8 0.000000 0.125078 0.500000
O O9 0.190942 0.000000 0.500000
O O10 0.000000 0.140916 0.050578
O O11 0.738916 0.072134 0.089844
O O12 0.717124 0.128595 0.000000
O O13 0.308887 0.500000 0.673866
O O14 0.000000 0.500000 0.640016
O O15 0.718385 0.914525 0.756921
O O16 0.000000 0.000000 0.747543
O O17 0.500000 0.659246 0.722168
O O18 0.750000 0.750000 0.750000
#
# Coordination Sequence:
#
# PCOD9521981 Si02
#       7
#    16  16   8  16   8   8  16
#     4   9  17  30  50  75 103 138 184 233 277 317
#     4   9  18  34  57  83 110 144 188 238 281 329
#     4   9  17  29  45  67  99 142 187 226 273 331
#     4  10  20  35  57  81 110 156 205 239 276 342
#     4  12  23  35  56  85 122 156 190 241 293 339
#     4  10  20  41  69  88 114 161 205 239 288 360
#     4  10  21  40  65  90 117 148 189 241 293 352
#
# _framework density 24.263797
#
# number of rings (size 3 to 8) (size 9 to 14) (size 15 to 20)
#    0.000    2.273    1.818    1.364    1.273    3.273 
#    1.636    1.818    0.000    0.000    0.000    0.000 
#    0.000    0.000    0.000    0.000    0.000    0.000 
#
# Total GULP energy -245506.168411 kJ/mol
# GULP energy per Si atom -5579.685646 kJ/mol
# Density = 2.420857 g / cm^3
# Si number density = 24.263797 Si / 1000 Ang^3
#
#
#
# Elastic Constant Matrix: (Units=GPa)
#
#
# Indices 1 2 3 4 5 6 
#
# 1 69.5852 -0.8620 -7.0393 0.0000 0.0000 0.0000
# 2 -0.8620 210.8971 20.7648 0.0000 0.0000 0.0000
# 3 -7.0393 20.7648 36.0501 0.0000 0.0000 0.0000
# 4 0.0000 0.0000 0.0000 32.7992 0.0000 0.0000
# 5 0.0000 0.0000 0.0000 0.0000 -14.7923 0.0000
# 6 0.0000 0.0000 0.0000 0.0000 0.0000 -4.8164
#
#
#
# Elastic Compliance Matrix: (Units=1/GPa)
#
#
# Indices 1 2 3 4 5 6 
#
# 1 0.014671 -0.000235 0.003000 0.000000 0.000000 0.000000
# 2 -0.000235 0.005031 -0.002944 0.000000 0.000000 0.000000
# 3 0.003000 -0.002944 0.030021 0.000000 0.000000 0.000000
# 4 0.000000 0.000000 0.000000 0.030489 0.000000 0.000000
# 5 0.000000 0.000000 0.000000 0.000000 -0.067603 0.000000
# 6 0.000000 0.000000 0.000000 0.000000 0.000000 -0.207625
#
#
# Mechanical properties :
#
#
# Convention : Reuss Voigt Hill
#
# Bulk Modulus (GPa) = 20.25708 38.02880 29.14294
# Shear Modulus (GPa) = -28.05774 22.88270 -2.58752
#
# Velocity S-wave (km/s) = -3.40422 3.07429 -1.03379
# Velocity P-wave (km/s) = 2.66173 5.32060 3.25760
#
# Compressibility (1/GPa) = 0.04936546
#
# Stress axis : x y z
#
# Youngs Moduli (GPa) = 68.15938 198.78720 33.31054
#
# Poissons Ratio (x) = 0.04681 -0.09995
# Poissons Ratio (y) = 0.01605 0.09805
# Poissons Ratio (z) = -0.20451 0.58514
#
# Static dielectric constant tensor:
#      x y z
#    x 1.950350 0.000000 0.000000 
#    y 0.000000 2.003260 0.000000 
#    z 0.000000 0.000000 1.969270 
# 
# From -- ./inp_files/68076.got.cif
#   From: 2010.05.17/outbox.cif.g08.bks.cpg/sg71_35_cif.got.tgz:68076.got - 2010.06.03 16:22:01.
