data_PCOD9521472
_publ_section_title
;
Structure prediction by ZEFSAII (Michael W. Deem and Ramdas Pophale) SiO2 
 PCOD9521472
Probable space group: I M M M
;
_chemical_formula_sum "Si O2"
_cell_formula_units_Z 80
_cell_length_a 18.642145
_cell_length_b 7.485559
_cell_length_c 29.966094
_cell_angle_alpha 90.000000
_cell_angle_beta 90.000000
_cell_angle_gamma 90.000000
_cell_volume 4181.674812
_symmetry_space_group_name_H-M "I M M M"
_symmetry_group_IT_number 71
_symmetry_cell_setting 'orthorhombic'
loop_
_space_group_symop_operation_xyz
x,y,z
-x,-y,z
x,-y,-z
-x,y,-z
-x,-y,-z
x,y,-z
-x,y,z
x,-y,z
1/2+x,1/2+y,1/2+z
1/2-x,1/2-y,1/2+z
1/2+x,1/2-y,1/2-z
1/2-x,1/2+y,1/2-z
1/2-x,1/2-y,1/2-z
1/2+x,1/2+y,1/2-z
1/2-x,1/2+y,1/2+z
1/2+x,1/2-y,1/2+z
loop_
_atom_site_type_symbol
_atom_site_label
_atom_site_fract_x
_atom_site_fract_y
_atom_site_fract_z
Si Si1 0.415757 0.282293 0.449842
Si Si2 0.084162 0.000000 0.307275
Si Si3 0.193961 0.205147 0.878684
Si Si4 0.079523 0.000000 0.586049
Si Si5 0.680121 0.201143 0.049928
Si Si6 0.208141 0.714228 0.704181
O O1 0.391234 0.225152 0.500000
O O2 0.500000 0.240956 0.446746
O O3 0.408220 0.500000 0.449617
O O4 0.373765 0.216172 0.405763
O O5 0.079339 0.000000 0.360714
O O6 0.134245 0.171797 0.295371
O O7 0.000000 0.000000 0.290894
O O8 0.252472 0.205194 0.917832
O O9 0.237755 0.276287 0.835817
O O10 0.175137 0.000000 0.866238
O O11 0.121081 0.829934 0.568713
O O12 0.000000 0.000000 0.568257
O O13 0.652391 0.000000 0.049464
O O14 0.701323 0.252082 0.000000
O O15 0.195006 0.500000 0.698411
O O16 0.250000 0.750000 0.750000
#
# Coordination Sequence:
#
# PCOD9521472 Si02
#       6
#    16   8  16   8  16  16
#     4   8  13  23  43  74 113 153 190 236 294 353
#     4  11  24  43  66  95 126 160 201 258 318 374
#     4   9  17  30  50  79 112 151 200 242 291 354
#     4  11  23  38  57  82 116 154 196 245 296 351
#     4  10  20  34  53  79 113 154 200 247 294 348
#     4  11  22  40  67  94 120 161 204 254 312 376
#
# _framework density 19.131091000000001
#
# number of rings (size 3 to 8) (size 9 to 14) (size 15 to 20)
#    0.000    2.200    3.000    1.500    0.000    4.000 
#    0.000    4.000    0.000    0.000    0.000    2.100 
#    0.000    8.000    0.000    1.000    0.000    0.000 
#
# Total GULP energy -222835.967097 kJ/mol
# GULP energy per Si atom -5570.899177 kJ/mol
# Density = 1.908755 g / cm^3
# Si number density = 19.131091 Si / 1000 Ang^3
#
#
#
# Elastic Constant Matrix: (Units=GPa)
#
#
# Indices 1 2 3 4 5 6 
#
# 1 117.9649 45.7216 54.3295 0.0000 0.0000 0.0000
# 2 45.7216 69.6738 15.8839 0.0000 0.0000 0.0000
# 3 54.3295 15.8839 86.9067 0.0000 0.0000 0.0000
# 4 0.0000 0.0000 0.0000 18.7221 0.0000 0.0000
# 5 0.0000 0.0000 0.0000 0.0000 116.7958 0.0000
# 6 0.0000 0.0000 0.0000 0.0000 0.0000 58.7031
#
#
#
# Elastic Compliance Matrix: (Units=1/GPa)
#
#
# Indices 1 2 3 4 5 6 
#
# 1 0.015429 -0.008270 -0.008134 0.000000 0.000000 0.000000
# 2 -0.008270 0.019410 0.001623 0.000000 0.000000 0.000000
# 3 -0.008134 0.001623 0.016295 0.000000 0.000000 0.000000
# 4 0.000000 0.000000 0.000000 0.053413 0.000000 0.000000
# 5 0.000000 0.000000 0.000000 0.000000 0.008562 0.000000
# 6 0.000000 0.000000 0.000000 0.000000 0.000000 0.017035
#
#
# Mechanical properties :
#
#
# Convention : Reuss Voigt Hill
#
# Bulk Modulus (GPa) = 46.35939 56.26840 51.31390
# Shear Modulus (GPa) = 29.95893 49.41824 39.68858
#
# Velocity S-wave (km/s) = 3.96154 5.08797 4.55967
# Velocity P-wave (km/s) = 6.72385 7.99953 7.38927
#
# Compressibility (1/GPa) = 0.02157060
#
# Stress axis : x y z
#
# Youngs Moduli (GPa) = 64.81511 51.52030 61.36972
#
# Poissons Ratio (x) = 0.42609 0.49915
# Poissons Ratio (y) = 0.53604 -0.09958
# Poissons Ratio (z) = 0.52718 -0.08360
#
# Static dielectric constant tensor:
#      x y z
#    x 1.698770 0.000000 0.000000 
#    y 0.000000 1.710900 0.000000 
#    z 0.000000 0.000000 1.665940 
# 
# From -- ./inp_files/70296.got.cif
#   From: 2010.05.17/outbox.cif.g08.bks.cpg/sg71_36_cif.got.tgz:70296.got - 2010.06.03 16:22:01.
