data_PCOD9521596
_publ_section_title
;
Structure prediction by ZEFSAII (Michael W. Deem and Ramdas Pophale) SiO2 
 PCOD9521596
Probable space group: I M M M
;
_chemical_formula_sum "Si O2"
_cell_formula_units_Z 116
_cell_length_a 24.573969
_cell_length_b 7.449395
_cell_length_c 27.473973
_cell_angle_alpha 90.000000
_cell_angle_beta 90.000000
_cell_angle_gamma 90.000000
_cell_volume 5029.418516
_symmetry_space_group_name_H-M "I M M M"
_symmetry_group_IT_number 71
_symmetry_cell_setting 'orthorhombic'
loop_
_space_group_symop_operation_xyz
x,y,z
-x,-y,z
x,-y,-z
-x,y,-z
-x,-y,-z
x,y,-z
-x,y,z
x,-y,z
1/2+x,1/2+y,1/2+z
1/2-x,1/2-y,1/2+z
1/2+x,1/2-y,1/2-z
1/2-x,1/2+y,1/2-z
1/2-x,1/2-y,1/2-z
1/2+x,1/2+y,1/2-z
1/2-x,1/2+y,1/2+z
1/2+x,1/2-y,1/2+z
loop_
_atom_site_type_symbol
_atom_site_label
_atom_site_fract_x
_atom_site_fract_y
_atom_site_fract_z
Si Si1 0.771783 0.214595 0.696559
Si Si2 0.661804 0.216947 0.055572
Si Si3 0.721293 0.790587 0.399946
Si Si4 0.891584 0.783867 0.715452
Si Si5 0.558753 0.787310 0.116037
Si Si6 0.563397 0.717317 0.681300
Si Si7 0.931623 0.000000 0.000000
Si Si8 0.894594 0.707603 0.074461
O O1 0.750000 0.250000 0.750000
O O2 0.733730 0.287629 0.653598
O O3 0.833382 0.284551 0.696199
O O4 0.774469 0.000000 0.689093
O O5 0.721526 0.276137 0.072466
O O6 0.612563 0.284749 0.089330
O O7 0.662608 0.000000 0.057956
O O8 0.652233 0.270347 0.000000
O O9 0.668239 0.721651 0.427709
O O10 0.707907 0.000000 0.393595
O O11 0.934350 0.737904 0.673737
O O12 0.906504 0.720510 0.769461
O O13 0.888491 0.000000 0.718180
O O14 0.500000 0.714359 0.100276
O O15 0.558210 0.000000 0.106081
O O16 0.500000 0.768239 0.683962
O O17 0.566136 0.500000 0.680423
O O18 0.589071 0.784190 0.631204
O O19 0.929497 0.157647 0.957684
O O20 0.898412 0.500000 0.058366
#
# Coordination Sequence:
#
# PCOD9521596 Si02
#       8
#    16  16  16  16  16  16   4  16
#     4  10  20  34  54  85 124 163 200 249 308 371
#     4  10  22  37  58  85 114 161 215 262 322 386
#     4  10  22  39  59  89 127 160 203 261 317 382
#     4  10  20  36  60  90 124 166 212 253 312 384
#     4  10  21  37  56  84 121 160 209 267 322 381
#     4  10  21  40  65  95 131 170 216 270 325 391
#     4  12  26  48  73 100 136 174 219 282 328 396
#     4  11  25  44  69 101 133 173 221 271 334 396
#
# _framework density 23.064295999999999
#
# number of rings (size 3 to 8) (size 9 to 14) (size 15 to 20)
#    0.000    1.793    2.069    1.448    1.931    3.310 
#    0.000    2.069    0.000    0.828    0.000    1.931 
#    0.000    0.000    0.000    0.000    0.000    0.000 
#
# Total GULP energy -323736.082029 kJ/mol
# GULP energy per Si atom -5581.656587 kJ/mol
# Density = 2.301180 g / cm^3
# Si number density = 23.064296 Si / 1000 Ang^3
#
#
#
# Elastic Constant Matrix: (Units=GPa)
#
#
# Indices 1 2 3 4 5 6 
#
# 1 70.3237 6.6455 3.6124 0.0000 0.0000 0.0000
# 2 6.6455 99.8300 7.7998 0.0000 0.0000 0.0000
# 3 3.6124 7.7998 107.0272 0.0000 0.0000 0.0000
# 4 0.0000 0.0000 0.0000 85.8166 0.0000 0.0000
# 5 0.0000 0.0000 0.0000 0.0000 -436.3083 0.0000
# 6 0.0000 0.0000 0.0000 0.0000 0.0000 -16.0735
#
#
#
# Elastic Compliance Matrix: (Units=1/GPa)
#
#
# Indices 1 2 3 4 5 6 
#
# 1 0.014328 -0.000921 -0.000416 0.000000 0.000000 0.000000
# 2 -0.000921 0.010134 -0.000707 0.000000 0.000000 0.000000
# 3 -0.000416 -0.000707 0.009409 0.000000 0.000000 0.000000
# 4 0.000000 0.000000 0.000000 0.011653 0.000000 0.000000
# 5 0.000000 0.000000 0.000000 0.000000 -0.002292 0.000000
# 6 0.000000 0.000000 0.000000 0.000000 0.000000 -0.062214
#
#
# Mechanical properties :
#
#
# Convention : Reuss Voigt Hill
#
# Bulk Modulus (GPa) = 33.57875 34.81071 34.19473
# Shear Modulus (GPa) = -1007.04538 -56.03817 -531.54178
#
# Velocity S-wave (km/s) = -20.91825 -4.93450 -15.19741
# Velocity P-wave (km/s) = 23.85038 4.16413 17.11988
#
# Compressibility (1/GPa) = 0.02978074
#
# Stress axis : x y z
#
# Youngs Moduli (GPa) = 69.79141 98.68139 106.28093
#
# Poissons Ratio (x) = 0.09091 0.04426
# Poissons Ratio (y) = 0.06430 0.07518
# Poissons Ratio (z) = 0.02907 0.06981
#
# Static dielectric constant tensor:
#      x y z
#    x 1.896220 0.000000 0.000000 
#    y 0.000000 1.881760 0.000000 
#    z 0.000000 0.000000 1.846180 
# 
# From -- ./inp_files/66920.got.cif
#   From: 2010.05.17/outbox.cif.g08.bks.cpg/sg71_34_cif.got.tgz:66920.got - 2010.06.03 16:22:01.
