data_PCOD9521410
_publ_section_title
;
Structure prediction by ZEFSAII (Michael W. Deem and Ramdas Pophale) SiO2 
 PCOD9521410
Probable space group: I M M M
;
_chemical_formula_sum "Si O2"
_cell_formula_units_Z 96
_cell_length_a 24.804758
_cell_length_b 20.459513
_cell_length_c 11.442803
_cell_angle_alpha 90.000000
_cell_angle_beta 90.000000
_cell_angle_gamma 90.000000
_cell_volume 5807.145498
_symmetry_space_group_name_H-M "I M M M"
_symmetry_group_IT_number 71
_symmetry_cell_setting 'orthorhombic'
loop_
_space_group_symop_operation_xyz
x,y,z
-x,-y,z
x,-y,-z
-x,y,-z
-x,-y,-z
x,y,-z
-x,y,z
x,-y,z
1/2+x,1/2+y,1/2+z
1/2-x,1/2-y,1/2+z
1/2+x,1/2-y,1/2-z
1/2-x,1/2+y,1/2-z
1/2-x,1/2-y,1/2-z
1/2+x,1/2+y,1/2-z
1/2-x,1/2+y,1/2+z
1/2+x,1/2-y,1/2+z
loop_
_atom_site_type_symbol
_atom_site_label
_atom_site_fract_x
_atom_site_fract_y
_atom_site_fract_z
Si Si1 0.937766 0.076665 0.139862
Si Si2 0.434929 0.882196 0.000000
Si Si3 0.435750 0.268917 0.000000
Si Si4 0.564699 0.926007 0.255739
Si Si5 0.243871 0.201836 0.636928
Si Si6 0.372077 0.680692 0.217622
Si Si7 0.863495 0.685774 0.133900
O O1 0.895801 0.122827 0.204696
O O2 0.000000 0.093812 0.170235
O O3 0.929972 0.000000 0.167485
O O4 0.932556 0.083898 0.000000
O O5 0.416273 0.806866 0.000000
O O6 0.419495 0.917490 0.119464
O O7 0.500000 0.880899 0.000000
O O8 0.412623 0.304419 0.887340
O O9 0.500000 0.268302 0.000000
O O10 0.500000 0.915689 0.264932
O O11 0.596924 0.870678 0.323612
O O12 0.576122 0.000000 0.294454
O O13 0.240657 0.227845 0.500000
O O14 0.250000 0.250000 0.750000
O O15 0.187218 0.167245 0.664228
O O16 0.300717 0.163966 0.640772
O O17 0.369477 0.748110 0.291452
O O18 0.875336 0.702113 0.000000
#
# Coordination Sequence:
#
# PCOD9521410 Si02
#       7
#    16   8   8  16  16  16  16
#     4   9  19  36  57  81 111 146 180 218 270 334
#     4   9  17  32  51  75 106 140 177 218 262 314
#     4  11  20  29  51  85 115 135 166 219 277 321
#     4  10  20  34  53  76 104 141 181 222 268 318
#     4   9  19  35  55  80 109 147 187 230 276 327
#     4  11  19  34  57  81 107 139 180 225 274 322
#     4  10  21  35  52  77 107 139 183 225 268 318
#
# _framework density 16.531357
#
# number of rings (size 3 to 8) (size 9 to 14) (size 15 to 20)
#    0.000    2.167    2.500    1.750    0.000    3.000 
#    0.000    2.083    0.000    2.500    0.000    0.000 
#    0.000    0.000    0.000    0.000    0.000    0.000 
#
# Total GULP energy -267237.803539 kJ/mol
# GULP energy per Si atom -5567.454240 kJ/mol
# Density = 1.649373 g / cm^3
# Si number density = 16.531357 Si / 1000 Ang^3
#
#
#
# Elastic Constant Matrix: (Units=GPa)
#
#
# Indices 1 2 3 4 5 6 
#
# 1 96.0538 49.3964 46.1760 0.0000 0.0000 0.0000
# 2 49.3964 68.6593 31.5829 0.0000 0.0000 0.0000
# 3 46.1760 31.5829 90.7269 0.0000 0.0000 0.0000
# 4 0.0000 0.0000 0.0000 29.8360 0.0000 0.0000
# 5 0.0000 0.0000 0.0000 0.0000 25.4770 0.0000
# 6 0.0000 0.0000 0.0000 0.0000 0.0000 16.7262
#
#
#
# Elastic Compliance Matrix: (Units=1/GPa)
#
#
# Indices 1 2 3 4 5 6 
#
# 1 0.018763 -0.010842 -0.005775 0.000000 0.000000 0.000000
# 2 -0.010842 0.023607 -0.002700 0.000000 0.000000 0.000000
# 3 -0.005775 -0.002700 0.014901 0.000000 0.000000 0.000000
# 4 0.000000 0.000000 0.000000 0.033517 0.000000 0.000000
# 5 0.000000 0.000000 0.000000 0.000000 0.039251 0.000000
# 6 0.000000 0.000000 0.000000 0.000000 0.000000 0.059786
#
#
# Mechanical properties :
#
#
# Convention : Reuss Voigt Hill
#
# Bulk Modulus (GPa) = 53.65701 56.63894 55.14797
# Shear Modulus (GPa) = 21.30642 22.96014 22.13328
#
# Velocity S-wave (km/s) = 3.59395 3.73082 3.66302
# Velocity P-wave (km/s) = 7.05338 7.27286 7.16396
#
# Compressibility (1/GPa) = 0.01863689
#
# Stress axis : x y z
#
# Youngs Moduli (GPa) = 53.29688 42.36071 67.10894
#
# Poissons Ratio (x) = 0.45928 0.38757
# Poissons Ratio (y) = 0.57786 0.18116
# Poissons Ratio (z) = 0.30780 0.11435
#
# Static dielectric constant tensor:
#      x y z
#    x 1.562780 0.000000 0.000000 
#    y 0.000000 1.537610 0.000000 
#    z 0.000000 0.000000 1.613080 
# 
# From -- ./inp_files/27598.got.cif
#   From: 2010.05.17/outbox.cif.g08.bks.cpg/sg71_14_cif.got.tgz:27598.got - 2010.06.03 16:22:01.
