data_PCOD9521423
_publ_section_title
;
Structure prediction by ZEFSAII (Michael W. Deem and Ramdas Pophale) SiO2 
 PCOD9521423
Probable space group: I M M M
;
_chemical_formula_sum "Si O2"
_cell_formula_units_Z 64
_cell_length_a 8.431355
_cell_length_b 14.642216
_cell_length_c 29.222810
_cell_angle_alpha 90.000000
_cell_angle_beta 90.000000
_cell_angle_gamma 90.000000
_cell_volume 3607.664635
_symmetry_space_group_name_H-M "I M M M"
_symmetry_group_IT_number 71
_symmetry_cell_setting 'orthorhombic'
loop_
_space_group_symop_operation_xyz
x,y,z
-x,-y,z
x,-y,-z
-x,y,-z
-x,-y,-z
x,y,-z
-x,y,z
x,-y,z
1/2+x,1/2+y,1/2+z
1/2-x,1/2-y,1/2+z
1/2+x,1/2-y,1/2-z
1/2-x,1/2+y,1/2-z
1/2-x,1/2-y,1/2-z
1/2+x,1/2+y,1/2-z
1/2-x,1/2+y,1/2+z
1/2+x,1/2-y,1/2+z
loop_
_atom_site_type_symbol
_atom_site_label
_atom_site_fract_x
_atom_site_fract_y
_atom_site_fract_z
Si Si1 0.808102 0.246220 0.052356
Si Si2 0.689983 0.251947 0.698434
Si Si3 0.309837 0.895184 0.874068
Si Si4 0.193317 0.604010 0.875154
O O1 0.749978 0.160016 0.081634
O O2 0.758489 0.336479 0.080667
O O3 0.000000 0.244770 0.052409
O O4 0.753281 0.245913 0.000000
O O5 0.500000 0.253317 0.698260
O O6 0.750000 0.250000 0.750000
O O7 0.750131 0.339120 0.669950
O O8 0.741910 0.162873 0.669191
O O9 0.500000 0.894227 0.873952
O O10 0.255049 0.000000 0.873904
O O11 0.250128 0.500000 0.875249
O O12 0.000000 0.601606 0.875173
#
# Coordination Sequence:
#
# PCOD9521423 Si02
#       4
#    16  16  16  16
#     4   9  18  32  51  76 103 131 165 207 257 310
#     4  10  20  34  53  77 104 134 168 207 254 304
#     4  10  21  36  53  73  99 134 175 215 254 299
#     4   8  15  29  49  73 100 129 163 203 244 292
#
# _framework density 17.740006999999999
#
# number of rings (size 3 to 8) (size 9 to 14) (size 15 to 20)
#    0.000    2.750    0.000    3.000    0.000    4.500 
#    0.000    7.500    0.000   18.000    0.000    7.000 
#    0.000    0.000    0.000    0.000    0.000    0.000 
#
# Total GULP energy -178443.821714 kJ/mol
# GULP energy per Si atom -5576.369429 kJ/mol
# Density = 1.769963 g / cm^3
# Si number density = 17.740007 Si / 1000 Ang^3
#
#
#
# Elastic Constant Matrix: (Units=GPa)
#
#
# Indices 1 2 3 4 5 6 
#
# 1 21.5527 25.6108 27.1766 0.0000 0.0000 0.0000
# 2 25.6108 205.4129 113.1099 0.0000 0.0000 0.0000
# 3 27.1766 113.1099 204.3782 0.0000 0.0000 0.0000
# 4 0.0000 0.0000 0.0000 5.5885 0.0000 0.0000
# 5 0.0000 0.0000 0.0000 0.0000 28.8375 0.0000
# 6 0.0000 0.0000 0.0000 0.0000 0.0000 12.6471
#
#
#
# Elastic Compliance Matrix: (Units=1/GPa)
#
#
# Indices 1 2 3 4 5 6 
#
# 1 0.058287 -0.004314 -0.005363 0.000000 0.000000 0.000000
# 2 -0.004314 0.007321 -0.003478 0.000000 0.000000 0.000000
# 3 -0.005363 -0.003478 0.007531 0.000000 0.000000 0.000000
# 4 0.000000 0.000000 0.000000 0.178940 0.000000 0.000000
# 5 0.000000 0.000000 0.000000 0.000000 0.034677 0.000000
# 6 0.000000 0.000000 0.000000 0.000000 0.000000 0.079070
#
#
# Mechanical properties :
#
#
# Convention : Reuss Voigt Hill
#
# Bulk Modulus (GPa) = 21.35451 84.79316 53.07383
# Shear Modulus (GPa) = 12.26253 27.11105 19.68679
#
# Velocity S-wave (km/s) = 2.63199 3.91352 3.33489
# Velocity P-wave (km/s) = 4.61520 8.26573 6.69412
#
# Compressibility (1/GPa) = 0.04682852
#
# Stress axis : x y z
#
# Youngs Moduli (GPa) = 17.15658 136.58553 132.78434
#
# Poissons Ratio (x) = 0.58924 0.71212
# Poissons Ratio (y) = 0.07401 0.46186
# Poissons Ratio (z) = 0.09201 0.47508
#
# Static dielectric constant tensor:
#      x y z
#    x 1.614950 0.000000 0.000000 
#    y 0.000000 1.596950 0.000000 
#    z 0.000000 0.000000 1.587680 
# 
# From -- ./inp_files/6323.got.cif
#   From: 2010.05.17/outbox.cif.g08.bks.cpg/sg71_4_cif.got.tgz:6323.got - 2010.06.03 16:22:01.
