data_PCOD9521009
_publ_section_title
;
Structure prediction by ZEFSAII (Michael W. Deem and Ramdas Pophale) SiO2 
 PCOD9521009
Probable space group: I M M M
;
_chemical_formula_sum "Si O2"
_cell_formula_units_Z 120
_cell_length_a 30.058013
_cell_length_b 8.131202
_cell_length_c 25.435601
_cell_angle_alpha 90.000000
_cell_angle_beta 90.000000
_cell_angle_gamma 90.000000
_cell_volume 6216.658657
_symmetry_space_group_name_H-M "I M M M"
_symmetry_group_IT_number 71
_symmetry_cell_setting 'orthorhombic'
loop_
_space_group_symop_operation_xyz
x,y,z
-x,-y,z
x,-y,-z
-x,y,-z
-x,-y,-z
x,y,-z
-x,y,z
x,-y,z
1/2+x,1/2+y,1/2+z
1/2-x,1/2-y,1/2+z
1/2+x,1/2-y,1/2-z
1/2-x,1/2+y,1/2-z
1/2-x,1/2-y,1/2-z
1/2+x,1/2+y,1/2-z
1/2-x,1/2+y,1/2+z
1/2+x,1/2-y,1/2+z
loop_
_atom_site_type_symbol
_atom_site_label
_atom_site_fract_x
_atom_site_fract_y
_atom_site_fract_z
Si Si1 0.158169 0.198748 0.557506
Si Si2 0.122143 0.197109 0.828368
Si Si3 0.918049 0.304455 0.367600
Si Si4 0.949277 0.802610 0.745785
Si Si5 0.718466 0.804638 0.702967
Si Si6 0.646171 0.695984 0.443233
Si Si7 0.000000 0.700994 0.439770
Si Si8 0.756764 0.302007 0.085355
O O1 0.140804 0.252036 0.500000
O O2 0.128317 0.261473 0.605010
O O3 0.209454 0.251229 0.562913
O O4 0.157580 0.000000 0.559087
O O5 0.081524 0.261376 0.793233
O O6 0.168992 0.230513 0.799313
O O7 0.126207 0.262838 0.888300
O O8 0.117492 0.000000 0.832205
O O9 0.922009 0.500000 0.363187
O O10 0.926350 0.233293 0.310016
O O11 0.956749 0.245060 0.407276
O O12 0.000000 0.738587 0.745763
O O13 0.951576 0.000000 0.751176
O O14 0.750000 0.750000 0.750000
O O15 0.741131 0.762624 0.647255
O O16 0.713286 0.000000 0.705158
O O17 0.630577 0.762185 0.500000
O O18 0.638405 0.500000 0.443332
O O19 0.699127 0.725560 0.439274
O O20 0.000000 0.500000 0.440766
O O21 0.000000 0.757616 0.500000
O O22 0.760046 0.500000 0.078881
#
# Coordination Sequence:
#
# PCOD9521009 Si02
#       8
#    16  16  16  16  16  16   8  16
#     4  10  21  36  52  73 103 138 176 215 257 307
#     4   9  19  35  54  77 106 140 175 215 265 316
#     4  11  22  36  54  76 102 132 170 218 269 318
#     4  10  21  38  59  79 103 136 176 220 267 325
#     4  10  20  33  50  75 107 141 178 217 260 309
#     4   9  17  31  53  80 108 137 172 213 255 304
#     4   9  18  34  53  71  95 125 158 205 266 322
#     4   9  19  34  51  72 102 141 178 212 252 301
#
# _framework density 19.302973000000001
#
# number of rings (size 3 to 8) (size 9 to 14) (size 15 to 20)
#    0.000    2.333    0.667    1.600    1.867    3.200 
#    0.000    0.000    0.000    2.000    0.000    2.800 
#    0.000    0.000    0.000    7.867    0.000    8.267 
#
# Total GULP energy -334801.842024 kJ/mol
# GULP energy per Si atom -5580.030700 kJ/mol
# Density = 1.925904 g / cm^3
# Si number density = 19.302973 Si / 1000 Ang^3
#
#
#
# Elastic Constant Matrix: (Units=GPa)
#
#
# Indices 1 2 3 4 5 6 
#
# 1 89.4194 5.8052 68.7248 0.0000 0.0000 0.0000
# 2 5.8052 6.7031 12.5632 0.0000 0.0000 0.0000
# 3 68.7248 12.5632 165.2851 0.0000 0.0000 0.0000
# 4 0.0000 0.0000 0.0000 12.0388 0.0000 0.0000
# 5 0.0000 0.0000 0.0000 0.0000 23.3350 0.0000
# 6 0.0000 0.0000 0.0000 0.0000 0.0000 16.3347
#
#
#
# Elastic Compliance Matrix: (Units=1/GPa)
#
#
# Indices 1 2 3 4 5 6 
#
# 1 0.016451 -0.001664 -0.006714 0.000000 0.000000 0.000000
# 2 -0.001664 0.174135 -0.012544 0.000000 0.000000 0.000000
# 3 -0.006714 -0.012544 0.009795 0.000000 0.000000 0.000000
# 4 0.000000 0.000000 0.000000 0.083065 0.000000 0.000000
# 5 0.000000 0.000000 0.000000 0.000000 0.042854 0.000000
# 6 0.000000 0.000000 0.000000 0.000000 0.000000 0.061220
#
#
# Mechanical properties :
#
#
# Convention : Reuss Voigt Hill
#
# Bulk Modulus (GPa) = 6.30765 48.39936 27.35350
# Shear Modulus (GPa) = 10.36893 21.96266 16.16580
#
# Velocity S-wave (km/s) = 2.32020 3.37677 2.89706
# Velocity P-wave (km/s) = 3.23305 6.35070 5.03905
#
# Compressibility (1/GPa) = 0.15853758
#
# Stress axis : x y z
#
# Youngs Moduli (GPa) = 60.78512 5.74267 102.09059
#
# Poissons Ratio (x) = 0.00956 0.68543
# Poissons Ratio (y) = 0.10116 1.28061
# Poissons Ratio (z) = 0.40811 0.07204
#
# Static dielectric constant tensor:
#      x y z
#    x 1.665090 0.000000 0.000000 
#    y 0.000000 1.687280 0.000000 
#    z 0.000000 0.000000 1.707360 
# 
# From -- ./inp_files/67204.got.cif
#   From: 2010.05.17/outbox.cif.g08.bks.cpg/sg71_34_cif.got.tgz:67204.got - 2010.06.03 16:22:01.
