data_PCOD9521243
_publ_section_title
;
Structure prediction by ZEFSAII (Michael W. Deem and Ramdas Pophale) SiO2 
 PCOD9521243
Probable space group: I M M M
;
_chemical_formula_sum "Si O2"
_cell_formula_units_Z 96
_cell_length_a 18.270119
_cell_length_b 12.149846
_cell_length_c 22.882773
_cell_angle_alpha 90.000000
_cell_angle_beta 90.000000
_cell_angle_gamma 90.000000
_cell_volume 5079.498094
_symmetry_space_group_name_H-M "I M M M"
_symmetry_group_IT_number 71
_symmetry_cell_setting 'orthorhombic'
loop_
_space_group_symop_operation_xyz
x,y,z
-x,-y,z
x,-y,-z
-x,y,-z
-x,-y,-z
x,y,-z
-x,y,z
x,-y,z
1/2+x,1/2+y,1/2+z
1/2-x,1/2-y,1/2+z
1/2+x,1/2-y,1/2-z
1/2-x,1/2+y,1/2-z
1/2-x,1/2-y,1/2-z
1/2+x,1/2+y,1/2-z
1/2-x,1/2+y,1/2+z
1/2+x,1/2-y,1/2+z
loop_
_atom_site_type_symbol
_atom_site_label
_atom_site_fract_x
_atom_site_fract_y
_atom_site_fract_z
Si Si1 0.168390 0.780714 0.324865
Si Si2 0.671284 0.872962 0.066706
Si Si3 0.345209 0.661060 0.563266
Si Si4 0.087056 0.000000 0.154091
Si Si5 0.415297 0.126141 0.400764
Si Si6 0.675473 0.128276 0.712193
Si Si7 0.587855 0.500000 0.210864
O O1 0.149732 0.713307 0.383407
O O2 0.253163 0.820845 0.320142
O O3 0.159657 0.699110 0.269625
O O4 0.119917 0.889594 0.317516
O O5 0.759813 0.866255 0.066340
O O6 0.650892 0.000000 0.080126
O O7 0.647072 0.848033 0.000000
O O8 0.372925 0.622062 0.500000
O O9 0.383841 0.603618 0.617747
O O10 0.362771 0.789446 0.567066
O O11 0.112510 0.000000 0.220934
O O12 0.000000 0.000000 0.154124
O O13 0.500000 0.157137 0.408982
O O14 0.391718 0.131916 0.332906
O O15 0.405790 0.000000 0.419658
O O16 0.690650 0.000000 0.726398
O O17 0.500000 0.500000 0.208973
#
# Coordination Sequence:
#
# PCOD9521243 Si02
#       7
#    16  16  16   8  16  16   8
#     4  11  21  36  62  86 117 155 193 246 301 361
#     4  10  21  38  61  89 121 152 194 249 298 352
#     4  11  21  34  54  79 114 162 209 245 280 334
#     4  11  23  36  53  81 122 162 198 241 293 339
#     4  10  21  36  51  73 116 161 200 246 289 334
#     4  10  20  33  55  87 115 154 208 247 289 349
#     4  11  26  43  63  93 122 153 193 250 317 372
#
# _framework density 18.899504
#
# number of rings (size 3 to 8) (size 9 to 14) (size 15 to 20)
#    0.000    1.500    3.333    2.250    2.333    4.000 
#    0.000    1.250    0.000    2.500    0.000    1.167 
#    0.000    0.000    0.000    0.000    0.000    0.000 
#
# Total GULP energy -268019.137035 kJ/mol
# GULP energy per Si atom -5583.732022 kJ/mol
# Density = 1.885649 g / cm^3
# Si number density = 18.899504 Si / 1000 Ang^3
#
#
#
# Elastic Constant Matrix: (Units=GPa)
#
#
# Indices 1 2 3 4 5 6 
#
# 1 19.9803 11.2482 19.8391 0.0000 0.0000 0.0000
# 2 11.2482 129.0688 77.7368 0.0000 0.0000 0.0000
# 3 19.8391 77.7368 128.6908 0.0000 0.0000 0.0000
# 4 0.0000 0.0000 0.0000 39.3098 0.0000 0.0000
# 5 0.0000 0.0000 0.0000 0.0000 7.5543 0.0000
# 6 0.0000 0.0000 0.0000 0.0000 0.0000 -8.6469
#
#
#
# Elastic Compliance Matrix: (Units=1/GPa)
#
#
# Indices 1 2 3 4 5 6 
#
# 1 0.059118 0.000530 -0.009434 0.000000 0.000000 0.000000
# 2 0.000530 0.012183 -0.007441 0.000000 0.000000 0.000000
# 3 -0.009434 -0.007441 0.013720 0.000000 0.000000 0.000000
# 4 0.000000 0.000000 0.000000 0.025439 0.000000 0.000000
# 5 0.000000 0.000000 0.000000 0.000000 0.132375 0.000000
# 6 0.000000 0.000000 0.000000 0.000000 0.000000 -0.115648
#
#
# Mechanical properties :
#
#
# Convention : Reuss Voigt Hill
#
# Bulk Modulus (GPa) = 19.10910 55.04314 37.07612
# Shear Modulus (GPa) = 28.19751 18.90449 23.55100
#
# Velocity S-wave (km/s) = 3.86679 3.16613 3.53387
# Velocity P-wave (km/s) = 5.48352 6.52328 6.02587
#
# Compressibility (1/GPa) = 0.05233110
#
# Stress axis : x y z
#
# Youngs Moduli (GPa) = 16.91526 82.07922 72.88763
#
# Poissons Ratio (x) = -0.04348 0.68760
# Poissons Ratio (y) = -0.00896 0.54237
# Poissons Ratio (z) = 0.15957 0.61076
#
# Static dielectric constant tensor:
#      x y z
#    x 1.629490 0.000000 0.000000 
#    y 0.000000 1.669170 0.000000 
#    z 0.000000 0.000000 1.670670 
# 
# From -- ./inp_files/54912.got.cif
#   From: 2010.05.17/outbox.cif.g08.bks.cpg/sg71_28_cif.got.tgz:54912.got - 2010.06.03 16:22:01.
