data_PCOD9521168
_publ_section_title
;
Structure prediction by ZEFSAII (Michael W. Deem and Ramdas Pophale) SiO2 
 PCOD9521168
Probable space group: I M M M
;
_chemical_formula_sum "Si O2"
_cell_formula_units_Z 104
_cell_length_a 28.797167
_cell_length_b 8.961523
_cell_length_c 24.393857
_cell_angle_alpha 90.000000
_cell_angle_beta 90.000000
_cell_angle_gamma 90.000000
_cell_volume 6295.236673
_symmetry_space_group_name_H-M "I M M M"
_symmetry_group_IT_number 71
_symmetry_cell_setting 'orthorhombic'
loop_
_space_group_symop_operation_xyz
x,y,z
-x,-y,z
x,-y,-z
-x,y,-z
-x,-y,-z
x,y,-z
-x,y,z
x,-y,z
1/2+x,1/2+y,1/2+z
1/2-x,1/2-y,1/2+z
1/2+x,1/2-y,1/2-z
1/2-x,1/2+y,1/2-z
1/2-x,1/2-y,1/2-z
1/2+x,1/2+y,1/2-z
1/2-x,1/2+y,1/2+z
1/2+x,1/2-y,1/2+z
loop_
_atom_site_type_symbol
_atom_site_label
_atom_site_fract_x
_atom_site_fract_y
_atom_site_fract_z
Si Si1 0.945672 0.322188 0.147992
Si Si2 0.625391 0.677028 0.435181
Si Si3 0.411788 0.821767 0.874970
Si Si4 0.555462 0.676521 0.765185
Si Si5 0.824871 0.179865 0.564926
Si Si6 0.500000 0.324293 0.934268
Si Si7 0.720689 0.171521 0.433522
O O1 0.940633 0.500000 0.153611
O O2 0.912833 0.260919 0.100492
O O3 0.933935 0.243126 0.205526
O O4 0.000000 0.289913 0.136190
O O5 0.620393 0.712352 0.500000
O O6 0.620607 0.500000 0.428534
O O7 0.676954 0.729058 0.417541
O O8 0.418082 0.761099 0.813420
O O9 0.364327 0.762459 0.901391
O O10 0.454474 0.752632 0.909484
O O11 0.414064 0.000000 0.876193
O O12 0.500000 0.697429 0.774403
O O13 0.564978 0.500000 0.766884
O O14 0.829832 0.213547 0.500000
O O15 0.772424 0.220151 0.583175
O O16 0.829483 0.000000 0.570494
O O17 0.500000 0.500000 0.919337
O O18 0.500000 0.312729 0.000000
O O19 0.722120 0.170577 0.500000
O O20 0.713212 0.000000 0.415937
#
# Coordination Sequence:
#
# PCOD9521168 Si02
#       7
#    16  16  16  16  16   8  16
#     4  10  21  36  55  79 107 137 173 216 257 301
#     4  10  20  33  52  80 112 143 173 207 252 307
#     4  12  23  33  50  75 104 135 172 219 265 313
#     4  10  20  36  57  75  97 133 177 217 258 310
#     4   9  18  33  52  74 102 137 176 216 261 314
#     4  11  23  37  51  69  99 139 178 217 266 319
#     4   8  15  30  52  75 100 134 175 215 254 302
#
# _framework density 16.520427999999999
#
# number of rings (size 3 to 8) (size 9 to 14) (size 15 to 20)
#    0.000    2.077    0.769    4.385    0.000    6.154 
#    0.000    3.077    0.000    0.923    0.000    0.000 
#    0.000    0.000    0.000    0.000    0.000    0.000 
#
# Total GULP energy -290215.107195 kJ/mol
# GULP energy per Si atom -5581.059754 kJ/mol
# Density = 1.648283 g / cm^3
# Si number density = 16.520428 Si / 1000 Ang^3
#
#
#
# Elastic Constant Matrix: (Units=GPa)
#
#
# Indices 1 2 3 4 5 6 
#
# 1 116.0559 70.6129 66.8085 0.0000 0.0000 0.0000
# 2 70.6129 96.3895 61.3177 0.0000 0.0000 0.0000
# 3 66.8085 61.3177 78.8089 0.0000 0.0000 0.0000
# 4 0.0000 0.0000 0.0000 24.6257 0.0000 0.0000
# 5 0.0000 0.0000 0.0000 0.0000 -0.1693 0.0000
# 6 0.0000 0.0000 0.0000 0.0000 0.0000 24.1273
#
#
#
# Elastic Compliance Matrix: (Units=1/GPa)
#
#
# Indices 1 2 3 4 5 6 
#
# 1 0.019124 -0.007320 -0.010517 0.000000 0.000000 0.000000
# 2 -0.007320 0.023343 -0.011957 0.000000 0.000000 0.000000
# 3 -0.010517 -0.011957 0.030908 0.000000 0.000000 0.000000
# 4 0.000000 0.000000 0.000000 0.040608 0.000000 0.000000
# 5 0.000000 0.000000 0.000000 0.000000 -5.906751 0.000000
# 6 0.000000 0.000000 0.000000 0.000000 0.000000 0.041447
#
#
# Mechanical properties :
#
#
# Convention : Reuss Voigt Hill
#
# Bulk Modulus (GPa) = 72.52953 76.52584 74.52768
# Shear Modulus (GPa) = -0.87918 15.88443 7.50263
#
# Velocity S-wave (km/s) = -0.73030 3.10417 2.13337
# Velocity P-wave (km/s) = 6.57930 7.69873 7.16092
#
# Compressibility (1/GPa) = 0.01378749
#
# Stress axis : x y z
#
# Youngs Moduli (GPa) = 52.28908 42.83857 32.35394
#
# Poissons Ratio (x) = 0.31357 0.34027
# Poissons Ratio (y) = 0.38274 0.38687
# Poissons Ratio (z) = 0.54993 0.51224
#
# Static dielectric constant tensor:
#      x y z
#    x 1.547980 0.000000 0.000000 
#    y 0.000000 1.546190 0.000000 
#    z 0.000000 0.000000 1.534410 
# 
# From -- ./inp_files/61951.got.cif
#   From: 2010.05.17/outbox.cif.g08.bks.cpg/sg71_31_cif.got.tgz:61951.got - 2010.06.03 16:22:01.
