data_PCOD9521936
_publ_section_title
;
Structure prediction by ZEFSAII (Michael W. Deem and Ramdas Pophale) SiO2 
 PCOD9521936
Probable space group: I M M M
;
_chemical_formula_sum "Si O2"
_cell_formula_units_Z 88
_cell_length_a 29.881733
_cell_length_b 17.131313
_cell_length_c 7.545648
_cell_angle_alpha 90.000000
_cell_angle_beta 90.000000
_cell_angle_gamma 90.000000
_cell_volume 3862.717727
_symmetry_space_group_name_H-M "I M M M"
_symmetry_group_IT_number 71
_symmetry_cell_setting 'orthorhombic'
loop_
_space_group_symop_operation_xyz
x,y,z
-x,-y,z
x,-y,-z
-x,y,-z
-x,-y,-z
x,y,-z
-x,y,z
x,-y,z
1/2+x,1/2+y,1/2+z
1/2-x,1/2-y,1/2+z
1/2+x,1/2-y,1/2-z
1/2-x,1/2+y,1/2-z
1/2-x,1/2-y,1/2-z
1/2+x,1/2+y,1/2-z
1/2-x,1/2+y,1/2+z
1/2+x,1/2-y,1/2+z
loop_
_atom_site_type_symbol
_atom_site_label
_atom_site_fract_x
_atom_site_fract_y
_atom_site_fract_z
Si Si1 0.878738 0.862215 0.301900
Si Si2 0.437620 0.083635 0.208237
Si Si3 0.952428 0.755635 0.797163
Si Si4 0.302611 0.252276 0.213486
Si Si5 0.446483 0.500000 0.216384
Si Si6 0.669271 0.915898 0.209234
O O1 0.867610 0.890759 0.500000
O O2 0.910135 0.785870 0.307678
O O3 0.832738 0.826245 0.220511
O O4 0.914448 0.926408 0.228858
O O5 0.453232 0.162599 0.294924
O O6 0.384120 0.082666 0.219475
O O7 0.452745 0.000000 0.278495
O O8 0.449184 0.087854 0.000000
O O9 0.000000 0.785360 0.725413
O O10 0.947891 0.781405 0.000000
O O11 0.250000 0.250000 0.250000
O O12 0.317771 0.167799 0.285461
O O13 0.309587 0.253484 0.000000
O O14 0.500000 0.500000 0.273691
O O15 0.448889 0.500000 0.000000
O O16 0.685865 0.000000 0.281374
O O17 0.681724 0.914947 0.000000
#
# Coordination Sequence:
#
# PCOD9521936 Si02
#       6
#    16  16  16  16   8  16
#     4  10  20  38  61  83 109 145 191 238 285 346
#     4   9  17  32  55  78 102 139 187 230 265 312
#     4  11  23  35  50  77 113 149 182 224 282 340
#     4  10  20  35  56  82 111 145 183 230 285 341
#     4   9  18  34  61  93 117 143 187 247 306 353
#     4   8  14  29  53  77 101 133 176 224 270 318
#
# _framework density 22.781886
#
# number of rings (size 3 to 8) (size 9 to 14) (size 15 to 20)
#    0.000    2.455    1.818    2.182    0.000    3.636 
#    1.636    2.273    0.000    1.636    0.000    0.000 
#    0.000    0.000    0.000    0.000    0.000    0.000 
#
# Total GULP energy -245005.465316 kJ/mol
# GULP energy per Si atom -5568.306030 kJ/mol
# Density = 2.273003 g / cm^3
# Si number density = 22.781886 Si / 1000 Ang^3
#
#
#
# Elastic Constant Matrix: (Units=GPa)
#
#
# Indices 1 2 3 4 5 6 
#
# 1 149.5047 66.3356 6.2192 0.0000 0.0000 0.0000
# 2 66.3356 146.0240 4.7387 0.0000 0.0000 0.0000
# 3 6.2192 4.7387 59.6387 0.0000 0.0000 0.0000
# 4 0.0000 0.0000 0.0000 -6.8934 0.0000 0.0000
# 5 0.0000 0.0000 0.0000 0.0000 21.5735 0.0000
# 6 0.0000 0.0000 0.0000 0.0000 0.0000 3.0079
#
#
#
# Elastic Compliance Matrix: (Units=1/GPa)
#
#
# Indices 1 2 3 4 5 6 
#
# 1 0.008397 -0.003796 -0.000574 0.000000 0.000000 0.000000
# 2 -0.003796 0.008582 -0.000286 0.000000 0.000000 0.000000
# 3 -0.000574 -0.000286 0.016850 0.000000 0.000000 0.000000
# 4 0.000000 0.000000 0.000000 -0.145066 0.000000 0.000000
# 5 0.000000 0.000000 0.000000 0.000000 0.046353 0.000000
# 6 0.000000 0.000000 0.000000 0.000000 0.000000 0.332458
#
#
# Mechanical properties :
#
#
# Convention : Reuss Voigt Hill
#
# Bulk Modulus (GPa) = 40.78795 56.63937 48.71366
# Shear Modulus (GPa) = 17.54026 22.06251 19.80139
#
# Velocity S-wave (km/s) = 2.77776 3.11533 2.95137
# Velocity P-wave (km/s) = 5.31323 6.15271 5.74832
#
# Compressibility (1/GPa) = 0.02451704
#
# Stress axis : x y z
#
# Youngs Moduli (GPa) = 119.09185 116.52469 59.34636
#
# Poissons Ratio (x) = 0.44232 0.03407
# Poissons Ratio (y) = 0.45206 0.01698
# Poissons Ratio (z) = 0.06836 0.03333
#
# Static dielectric constant tensor:
#      x y z
#    x 1.856950 0.000000 0.000000 
#    y 0.000000 1.913070 0.000000 
#    z 0.000000 0.000000 1.875000 
# 
# From -- ./inp_files/16669.got.cif
#   From: 2010.05.17/outbox.cif.g08.bks.cpg/sg71_9_cif.got.tgz:16669.got - 2010.06.03 16:22:01.
