data_PCOD9521170
_publ_section_title
;
Structure prediction by ZEFSAII (Michael W. Deem and Ramdas Pophale) SiO2 
 PCOD9521170
Probable space group: I M M M
;
_chemical_formula_sum "Si O2"
_cell_formula_units_Z 112
_cell_length_a 24.227723
_cell_length_b 15.445390
_cell_length_c 14.352999
_cell_angle_alpha 90.000000
_cell_angle_beta 90.000000
_cell_angle_gamma 90.000000
_cell_volume 5370.987394
_symmetry_space_group_name_H-M "I M M M"
_symmetry_group_IT_number 71
_symmetry_cell_setting 'orthorhombic'
loop_
_space_group_symop_operation_xyz
x,y,z
-x,-y,z
x,-y,-z
-x,y,-z
-x,-y,-z
x,y,-z
-x,y,z
x,-y,z
1/2+x,1/2+y,1/2+z
1/2-x,1/2-y,1/2+z
1/2+x,1/2-y,1/2-z
1/2-x,1/2+y,1/2-z
1/2-x,1/2-y,1/2-z
1/2+x,1/2+y,1/2-z
1/2-x,1/2+y,1/2+z
1/2+x,1/2-y,1/2+z
loop_
_atom_site_type_symbol
_atom_site_label
_atom_site_fract_x
_atom_site_fract_y
_atom_site_fract_z
Si Si1 0.063819 0.910630 0.290498
Si Si2 0.110640 0.129150 0.106446
Si Si3 0.132409 0.327217 0.102009
Si Si4 0.436412 0.098415 0.237170
Si Si5 0.567120 0.245973 0.103503
Si Si6 0.738821 0.724026 0.111764
Si Si7 0.274151 0.395645 0.286858
O O1 0.067140 0.905875 0.179756
O O2 0.087775 0.824899 0.334630
O O3 0.000000 0.912483 0.319033
O O4 0.090925 0.000000 0.322401
O O5 0.104384 0.232881 0.106964
O O6 0.169447 0.105223 0.152687
O O7 0.107503 0.100326 0.000000
O O8 0.105372 0.385923 0.179368
O O9 0.196640 0.304572 0.112773
O O10 0.123673 0.365410 0.000000
O O11 0.500000 0.122768 0.263664
O O12 0.417650 0.158042 0.152920
O O13 0.437115 0.000000 0.208277
O O14 0.500000 0.247228 0.100725
O O15 0.588032 0.253938 0.000000
O O16 0.715468 0.652880 0.186579
O O17 0.736672 0.822169 0.157067
O O18 0.722947 0.723279 0.000000
O O19 0.257708 0.500000 0.278829
#
# Coordination Sequence:
#
# PCOD9521170 Si02
#       7
#    16  16  16  16  16  16  16
#     4  10  20  33  52  81 114 146 183 225 269 321
#     4  10  20  35  57  83 111 146 184 221 271 335
#     4   9  18  34  56  79 108 147 184 222 274 330
#     4  10  20  33  52  80 112 146 187 231 273 323
#     4   9  18  34  53  71  98 139 184 229 274 316
#     4   9  20  38  59  85 113 146 191 236 282 339
#     4  10  20  35  58  85 114 148 186 233 283 335
#
# _framework density 20.852775999999999
#
# number of rings (size 3 to 8) (size 9 to 14) (size 15 to 20)
#    0.000    2.429    1.429    1.714    0.000    4.286 
#    0.000    7.857    0.000    2.571    0.000    4.000 
#    0.000    0.000    0.000    0.000    0.000    0.000 
#
# Total GULP energy -311842.030706 kJ/mol
# GULP energy per Si atom -5568.607691 kJ/mol
# Density = 2.080531 g / cm^3
# Si number density = 20.852776 Si / 1000 Ang^3
#
#
#
# Elastic Constant Matrix: (Units=GPa)
#
#
# Indices 1 2 3 4 5 6 
#
# 1 26.2535 18.7855 12.9344 0.0000 0.0000 0.0000
# 2 18.7855 145.9599 75.8960 0.0000 0.0000 0.0000
# 3 12.9344 75.8960 162.2325 0.0000 0.0000 0.0000
# 4 0.0000 0.0000 0.0000 -471.5768 0.0000 0.0000
# 5 0.0000 0.0000 0.0000 0.0000 13.0479 0.0000
# 6 0.0000 0.0000 0.0000 0.0000 0.0000 13.4616
#
#
#
# Elastic Compliance Matrix: (Units=1/GPa)
#
#
# Indices 1 2 3 4 5 6 
#
# 1 0.042098 -0.004854 -0.001086 0.000000 0.000000 0.000000
# 2 -0.004854 0.009613 -0.004110 0.000000 0.000000 0.000000
# 3 -0.001086 -0.004110 0.008173 0.000000 0.000000 0.000000
# 4 0.000000 0.000000 0.000000 -0.002121 0.000000 0.000000
# 5 0.000000 0.000000 0.000000 0.000000 0.076641 0.000000
# 6 0.000000 0.000000 0.000000 0.000000 0.000000 0.074285
#
#
# Mechanical properties :
#
#
# Convention : Reuss Voigt Hill
#
# Bulk Modulus (GPa) = 25.13491 61.07530 43.10510
# Shear Modulus (GPa) = 20.65680 -73.89146 -26.61733
#
# Velocity S-wave (km/s) = 3.15080 -5.95917 -3.57661
# Velocity P-wave (km/s) = 5.03154 4.24224 1.91308
#
# Compressibility (1/GPa) = 0.03978530
#
# Stress axis : x y z
#
# Youngs Moduli (GPa) = 23.75413 104.02456 122.34763
#
# Poissons Ratio (x) = 0.50489 0.13284
# Poissons Ratio (y) = 0.11529 0.50288
# Poissons Ratio (z) = 0.02579 0.42757
#
# Static dielectric constant tensor:
#      x y z
#    x 1.802040 0.000000 0.000000 
#    y 0.000000 1.818120 0.000000 
#    z 0.000000 0.000000 1.741550 
# 
# From -- ./inp_files/40353.got.cif
#   From: 2010.05.17/outbox.cif.g08.bks.cpg/sg71_21_cif.got.tgz:40353.got - 2010.06.03 16:22:01.
