data_PCOD9521284
_publ_section_title
;
Structure prediction by ZEFSAII (Michael W. Deem and Ramdas Pophale) SiO2 
 PCOD9521284
Probable space group: I M M M
;
_chemical_formula_sum "Si O2"
_cell_formula_units_Z 104
_cell_length_a 26.570233
_cell_length_b 24.300316
_cell_length_c 8.650141
_cell_angle_alpha 90.000000
_cell_angle_beta 90.000000
_cell_angle_gamma 90.000000
_cell_volume 5585.093791
_symmetry_space_group_name_H-M "I M M M"
_symmetry_group_IT_number 71
_symmetry_cell_setting 'orthorhombic'
loop_
_space_group_symop_operation_xyz
x,y,z
-x,-y,z
x,-y,-z
-x,y,-z
-x,-y,-z
x,y,-z
-x,y,z
x,-y,z
1/2+x,1/2+y,1/2+z
1/2-x,1/2-y,1/2+z
1/2+x,1/2-y,1/2-z
1/2-x,1/2+y,1/2-z
1/2-x,1/2-y,1/2-z
1/2+x,1/2+y,1/2-z
1/2-x,1/2+y,1/2+z
1/2+x,1/2-y,1/2+z
loop_
_atom_site_type_symbol
_atom_site_label
_atom_site_fract_x
_atom_site_fract_y
_atom_site_fract_z
Si Si1 0.441173 0.436075 0.686677
Si Si2 0.150558 0.722326 0.313677
Si Si3 0.196731 0.441439 0.814412
Si Si4 0.500000 0.062852 0.684192
Si Si5 0.101270 0.391675 0.315670
Si Si6 0.250634 0.171236 0.313549
Si Si7 0.867432 0.840607 0.686156
O O1 0.439743 0.435027 0.500000
O O2 0.500000 0.425188 0.732666
O O3 0.429369 0.500000 0.733959
O O4 0.401988 0.389460 0.745918
O O5 0.154658 0.722979 0.500000
O O6 0.121168 0.667959 0.263119
O O7 0.208027 0.714345 0.253241
O O8 0.119632 0.777275 0.270288
O O9 0.220193 0.500000 0.771912
O O10 0.142116 0.435434 0.741330
O O11 0.226920 0.387967 0.766072
O O12 0.192261 0.439330 0.000000
O O13 0.500000 0.061568 0.500000
O O14 0.451389 0.093615 0.744403
O O15 0.500000 0.000000 0.742230
O O16 0.098804 0.391587 0.500000
O O17 0.251629 0.177930 0.500000
O O18 0.192015 0.163581 0.270031
O O19 0.869808 0.846701 0.500000
#
# Coordination Sequence:
#
# PCOD9521284 Si02
#       7
#    16  16  16   8  16  16  16
#     4   9  20  40  61  80 107 141 177 222 275 328
#     4   9  19  35  52  75 109 144 176 214 263 312
#     4   9  17  30  47  68  99 136 170 209 258 305
#     4  11  23  37  53  73  97 127 168 217 264 309
#     4  10  20  34  51  71  98 133 171 213 259 305
#     4   9  18  31  50  77 108 142 180 218 258 309
#     4  10  20  34  55  84 111 139 177 218 262 315
#
# _framework density 18.620995000000001
#
# number of rings (size 3 to 8) (size 9 to 14) (size 15 to 20)
#    0.000    2.538    0.000    2.077    0.000    5.846 
#    1.385    2.308    0.000    0.000    0.000    0.000 
#    0.000    0.000    0.000    0.000    0.000    0.000 
#
# Total GULP energy -289510.387223 kJ/mol
# GULP energy per Si atom -5567.507447 kJ/mol
# Density = 1.857861 g / cm^3
# Si number density = 18.620995 Si / 1000 Ang^3
#
#
#
# Elastic Constant Matrix: (Units=GPa)
#
#
# Indices 1 2 3 4 5 6 
#
# 1 183.9997 88.4446 141.8654 0.0000 0.0000 0.0000
# 2 88.4446 153.6338 52.1610 0.0000 0.0000 0.0000
# 3 141.8654 52.1610 197.6528 0.0000 0.0000 0.0000
# 4 0.0000 0.0000 0.0000 21.1650 0.0000 0.0000
# 5 0.0000 0.0000 0.0000 0.0000 36.8456 0.0000
# 6 0.0000 0.0000 0.0000 0.0000 0.0000 25.7276
#
#
#
# Elastic Compliance Matrix: (Units=1/GPa)
#
#
# Indices 1 2 3 4 5 6 
#
# 1 0.015729 -0.005736 -0.009776 0.000000 0.000000 0.000000
# 2 -0.005736 0.009241 0.001678 0.000000 0.000000 0.000000
# 3 -0.009776 0.001678 0.011633 0.000000 0.000000 0.000000
# 4 0.000000 0.000000 0.000000 0.047248 0.000000 0.000000
# 5 0.000000 0.000000 0.000000 0.000000 0.027140 0.000000
# 6 0.000000 0.000000 0.000000 0.000000 0.000000 0.038869
#
#
# Mechanical properties :
#
#
# Convention : Reuss Voigt Hill
#
# Bulk Modulus (GPa) = 111.90308 122.24762 117.07535
# Shear Modulus (GPa) = 27.69973 33.60200 30.65086
#
# Velocity S-wave (km/s) = 3.86107 4.25258 4.06154
# Velocity P-wave (km/s) = 8.95001 9.48185 9.21977
#
# Compressibility (1/GPa) = 0.00893630
#
# Stress axis : x y z
#
# Youngs Moduli (GPa) = 63.57523 108.20922 85.96062
#
# Poissons Ratio (x) = 0.62069 0.84035
# Poissons Ratio (y) = 0.36467 -0.14426
# Poissons Ratio (z) = 0.62151 -0.18160
#
# Static dielectric constant tensor:
#      x y z
#    x 1.632480 0.000000 0.000000 
#    y 0.000000 1.658990 0.000000 
#    z 0.000000 0.000000 1.630100 
# 
# From -- ./inp_files/15264.got.cif
#   From: 2010.05.17/outbox.cif.g08.bks.cpg/sg71_8_cif.got.tgz:15264.got - 2010.06.03 16:22:01.
