data_PCOD9521098
_publ_section_title
;
Structure prediction by ZEFSAII (Michael W. Deem and Ramdas Pophale) SiO2 
 PCOD9521098
Probable space group: I M M M
;
_chemical_formula_sum "Si O2"
_cell_formula_units_Z 104
_cell_length_a 8.513817
_cell_length_b 20.610604
_cell_length_c 32.459631
_cell_angle_alpha 90.000000
_cell_angle_beta 90.000000
_cell_angle_gamma 90.000000
_cell_volume 5695.850852
_symmetry_space_group_name_H-M "I M M M"
_symmetry_group_IT_number 71
_symmetry_cell_setting 'orthorhombic'
loop_
_space_group_symop_operation_xyz
x,y,z
-x,-y,z
x,-y,-z
-x,y,-z
-x,-y,-z
x,y,-z
-x,y,z
x,-y,z
1/2+x,1/2+y,1/2+z
1/2-x,1/2-y,1/2+z
1/2+x,1/2-y,1/2-z
1/2-x,1/2+y,1/2-z
1/2-x,1/2-y,1/2-z
1/2+x,1/2+y,1/2-z
1/2-x,1/2+y,1/2+z
1/2+x,1/2-y,1/2+z
loop_
_atom_site_type_symbol
_atom_site_label
_atom_site_fract_x
_atom_site_fract_y
_atom_site_fract_z
Si Si1 0.190180 0.427154 0.174597
Si Si2 0.691210 0.500000 0.452469
Si Si3 0.688102 0.639193 0.578842
Si Si4 0.186305 0.638136 0.000000
Si Si5 0.688152 0.215990 0.000000
Si Si6 0.682433 0.202712 0.284670
Si Si7 0.816466 0.254588 0.367044
Si Si8 0.813912 0.122441 0.587363
O O1 0.236099 0.500000 0.186897
O O2 0.247609 0.369903 0.205309
O O3 0.249384 0.413351 0.128062
O O4 0.000000 0.423570 0.173535
O O5 0.500000 0.500000 0.454044
O O6 0.745883 0.500000 0.500000
O O7 0.738252 0.434462 0.429579
O O8 0.500000 0.641597 0.584222
O O9 0.736520 0.680374 0.538945
O O10 0.773805 0.675393 0.615817
O O11 0.236729 0.605957 0.956557
O O12 0.270285 0.708277 0.000000
O O13 0.000000 0.646748 0.000000
O O14 0.500000 0.208644 0.000000
O O15 0.500000 0.194892 0.275279
O O16 0.750000 0.250000 0.250000
O O17 0.710443 0.237649 0.328247
O O18 0.787836 0.198828 0.401513
O O19 0.000000 0.249884 0.355753
O O20 0.000000 0.111761 0.584277
#
# Coordination Sequence:
#
# PCOD9521098 Si02
#       8
#    16   8  16   8   8  16  16  16
#     4   9  19  37  60  85 114 148 185 222 266 326
#     4   9  18  32  48  70  98 136 186 234 276 326
#     4  11  20  33  52  72  99 138 183 229 279 332
#     4  12  22  32  50  74 104 144 188 231 277 324
#     4  12  22  31  45  71 104 136 177 232 283 327
#     4  10  20  36  61  90 116 142 178 221 274 329
#     4  10  20  34  53  78 109 138 173 222 275 327
#     4  10  20  33  51  78 112 143 179 227 274 319
#
# _framework density 18.258904999999999
#
# number of rings (size 3 to 8) (size 9 to 14) (size 15 to 20)
#    0.000    1.769    2.308    3.231    0.000    2.154 
#    0.000    2.308    1.692    2.308    0.000    0.000 
#    0.000    0.000    0.000    0.000    0.000    0.000 
#
# Total GULP energy -290074.124976 kJ/mol
# GULP energy per Si atom -5578.348557 kJ/mol
# Density = 1.821735 g / cm^3
# Si number density = 18.258905 Si / 1000 Ang^3
#
#
#
# Elastic Constant Matrix: (Units=GPa)
#
#
# Indices 1 2 3 4 5 6 
#
# 1 31.2509 5.3154 8.0456 0.0000 0.0000 0.0000
# 2 5.3154 113.2893 34.4582 0.0000 0.0000 0.0000
# 3 8.0456 34.4582 69.9272 0.0000 0.0000 0.0000
# 4 0.0000 0.0000 0.0000 20.1864 0.0000 0.0000
# 5 0.0000 0.0000 0.0000 0.0000 27.8057 0.0000
# 6 0.0000 0.0000 0.0000 0.0000 0.0000 15.7098
#
#
#
# Elastic Compliance Matrix: (Units=1/GPa)
#
#
# Indices 1 2 3 4 5 6 
#
# 1 0.032996 -0.000463 -0.003568 0.000000 0.000000 0.000000
# 2 -0.000463 0.010390 -0.005067 0.000000 0.000000 0.000000
# 3 -0.003568 -0.005067 0.017208 0.000000 0.000000 0.000000
# 4 0.000000 0.000000 0.000000 0.049538 0.000000 0.000000
# 5 0.000000 0.000000 0.000000 0.000000 0.035964 0.000000
# 6 0.000000 0.000000 0.000000 0.000000 0.000000 0.063654
#
#
# Mechanical properties :
#
#
# Convention : Reuss Voigt Hill
#
# Bulk Modulus (GPa) = 23.58573 34.45620 29.02096
# Shear Modulus (GPa) = 20.65443 23.85027 22.25235
#
# Velocity S-wave (km/s) = 3.36698 3.61810 3.49479
# Velocity P-wave (km/s) = 5.29725 6.03043 5.67569
#
# Compressibility (1/GPa) = 0.04239852
#
# Stress axis : x y z
#
# Youngs Moduli (GPa) = 30.30629 96.24904 58.11316
#
# Poissons Ratio (x) = 0.04454 0.20737
# Poissons Ratio (y) = 0.01402 0.29443
# Poissons Ratio (z) = 0.10815 0.48765
#
# Static dielectric constant tensor:
#      x y z
#    x 1.616510 0.000000 0.000000 
#    y 0.000000 1.654660 0.000000 
#    z 0.000000 0.000000 1.608830 
# 
# From -- ./inp_files/68318.got.cif
#   From: 2010.05.17/outbox.cif.g08.bks.cpg/sg71_35_cif.got.tgz:68318.got - 2010.06.03 16:22:01.
