data_PCOD9521727
_publ_section_title
;
Structure prediction by ZEFSAII (Michael W. Deem and Ramdas Pophale) SiO2 
 PCOD9521727
Probable space group: I M M M
;
_chemical_formula_sum "Si O2"
_cell_formula_units_Z 80
_cell_length_a 29.512465
_cell_length_b 8.759871
_cell_length_c 15.903535
_cell_angle_alpha 90.000000
_cell_angle_beta 90.000000
_cell_angle_gamma 90.000000
_cell_volume 4111.467529
_symmetry_space_group_name_H-M "I M M M"
_symmetry_group_IT_number 71
_symmetry_cell_setting 'orthorhombic'
loop_
_space_group_symop_operation_xyz
x,y,z
-x,-y,z
x,-y,-z
-x,y,-z
-x,-y,-z
x,y,-z
-x,y,z
x,-y,z
1/2+x,1/2+y,1/2+z
1/2-x,1/2-y,1/2+z
1/2+x,1/2-y,1/2-z
1/2-x,1/2+y,1/2-z
1/2-x,1/2-y,1/2-z
1/2+x,1/2+y,1/2-z
1/2-x,1/2+y,1/2+z
1/2+x,1/2-y,1/2+z
loop_
_atom_site_type_symbol
_atom_site_label
_atom_site_fract_x
_atom_site_fract_y
_atom_site_fract_z
Si Si1 0.644348 0.318070 0.406207
Si Si2 0.551045 0.818174 0.646231
Si Si3 0.854223 0.816374 0.406110
Si Si4 0.949757 0.818443 0.668375
Si Si5 0.699791 0.181667 0.749292
O O1 0.661009 0.278985 0.500000
O O2 0.646969 0.500000 0.395125
O O3 0.592171 0.266214 0.398487
O O4 0.672556 0.239343 0.332411
O O5 0.500000 0.775510 0.618460
O O6 0.554400 0.773413 0.744701
O O7 0.556059 0.000000 0.636310
O O8 0.840769 0.768828 0.500000
O O9 0.907425 0.783459 0.390568
O O10 0.826307 0.738557 0.332229
O O11 0.848578 0.000000 0.399732
O O12 0.000000 0.789766 0.632607
O O13 0.947172 0.000000 0.688602
O O14 0.750000 0.250000 0.750000
O O15 0.701742 0.000000 0.748357
#
# Coordination Sequence:
#
# PCOD9521727 Si02
#       5
#    16  16  16  16  16
#     4  11  24  42  65  93 125 161 205 255 308 369
#     4  10  20  34  56  88 126 167 208 251 302 360
#     4  10  21  38  62  93 129 166 206 251 299 358
#     4   9  17  31  55  86 123 167 209 248 292 349
#     4  12  26  45  69  92 120 158 200 254 314 372
#
# _framework density 19.457774000000001
#
# number of rings (size 3 to 8) (size 9 to 14) (size 15 to 20)
#    0.000    1.600    2.000    3.000    0.000    4.800 
#    0.000    4.000    0.000    0.000    0.000    4.200 
#    0.000    0.000    0.000    0.000    0.000    0.000 
#
# Total GULP energy -223515.283619 kJ/mol
# GULP energy per Si atom -5587.882090 kJ/mol
# Density = 1.941349 g / cm^3
# Si number density = 19.457774 Si / 1000 Ang^3
#
#
#
# Elastic Constant Matrix: (Units=GPa)
#
#
# Indices 1 2 3 4 5 6 
#
# 1 132.4577 57.7101 83.9802 0.0000 0.0000 0.0000
# 2 57.7101 76.0474 70.3437 0.0000 0.0000 0.0000
# 3 83.9802 70.3437 155.3250 0.0000 0.0000 0.0000
# 4 0.0000 0.0000 0.0000 -9.8519 0.0000 0.0000
# 5 0.0000 0.0000 0.0000 0.0000 -5.4377 0.0000
# 6 0.0000 0.0000 0.0000 0.0000 0.0000 33.3980
#
#
#
# Elastic Compliance Matrix: (Units=1/GPa)
#
#
# Indices 1 2 3 4 5 6 
#
# 1 0.012773 -0.005688 -0.004330 0.000000 0.000000 0.000000
# 2 -0.005688 0.025162 -0.008320 0.000000 0.000000 0.000000
# 3 -0.004330 -0.008320 0.012547 0.000000 0.000000 0.000000
# 4 0.000000 0.000000 0.000000 -0.101503 0.000000 0.000000
# 5 0.000000 0.000000 0.000000 0.000000 -0.183901 0.000000
# 6 0.000000 0.000000 0.000000 0.000000 0.000000 0.029942
#
#
# Mechanical properties :
#
#
# Convention : Reuss Voigt Hill
#
# Bulk Modulus (GPa) = 72.43058 87.54424 79.98741
# Shear Modulus (GPa) = -30.54353 13.74140 -8.40107
#
# Velocity S-wave (km/s) = -3.96629 2.66036 -2.08014
# Velocity P-wave (km/s) = 4.04105 7.38419 5.95216
#
# Compressibility (1/GPa) = 0.01380632
#
# Stress axis : x y z
#
# Youngs Moduli (GPa) = 78.28982 39.74229 79.69744
#
# Poissons Ratio (x) = 0.22604 0.34511
# Poissons Ratio (y) = 0.44528 0.66310
# Poissons Ratio (z) = 0.33901 0.33067
#
# Static dielectric constant tensor:
#      x y z
#    x 1.676280 0.000000 0.000000 
#    y 0.000000 1.649920 0.000000 
#    z 0.000000 0.000000 1.675120 
# 
# From -- ./inp_files/48590.got.cif
#   From: 2010.05.17/outbox.cif.g08.bks.cpg/sg71_25_cif.got.tgz:48590.got - 2010.06.03 16:22:01.
