data_PCOD9521132
_publ_section_title
;
Structure prediction by ZEFSAII (Michael W. Deem and Ramdas Pophale) SiO2 
 PCOD9521132
Probable space group: I M M M
;
_chemical_formula_sum "Si O2"
_cell_formula_units_Z 64
_cell_length_a 8.085123
_cell_length_b 15.288826
_cell_length_c 26.864899
_cell_angle_alpha 90.000000
_cell_angle_beta 90.000000
_cell_angle_gamma 90.000000
_cell_volume 3320.824936
_symmetry_space_group_name_H-M "I M M M"
_symmetry_group_IT_number 71
_symmetry_cell_setting 'orthorhombic'
loop_
_space_group_symop_operation_xyz
x,y,z
-x,-y,z
x,-y,-z
-x,y,-z
-x,-y,-z
x,y,-z
-x,y,z
x,-y,z
1/2+x,1/2+y,1/2+z
1/2-x,1/2-y,1/2+z
1/2+x,1/2-y,1/2-z
1/2-x,1/2+y,1/2-z
1/2-x,1/2-y,1/2-z
1/2+x,1/2+y,1/2-z
1/2-x,1/2+y,1/2+z
1/2+x,1/2-y,1/2+z
loop_
_atom_site_type_symbol
_atom_site_label
_atom_site_fract_x
_atom_site_fract_y
_atom_site_fract_z
Si Si1 0.297457 0.500000 0.672304
Si Si2 0.801736 0.000000 0.443559
Si Si3 0.303619 0.500000 0.214704
Si Si4 0.201820 0.897971 0.000000
Si Si5 0.702512 0.332726 0.392203
Si Si6 0.696901 0.141151 0.364517
O O1 0.500000 0.500000 0.672663
O O2 0.237577 0.500000 0.729150
O O3 0.246251 0.413600 0.642331
O O4 0.743766 0.915852 0.412727
O O5 0.740109 0.000000 0.500000
O O6 0.000000 0.000000 0.443823
O O7 0.500000 0.500000 0.217913
O O8 0.254976 0.414637 0.182914
O O9 0.254970 0.851243 0.050948
O O10 0.000000 0.897962 0.000000
O O11 0.252309 0.000000 0.000000
O O12 0.500000 0.331598 0.392463
O O13 0.760600 0.239632 0.371143
O O14 0.500000 0.145148 0.361531
#
# Coordination Sequence:
#
# PCOD9521132 Si02
#       6
#     8   8   8   8  16  16
#     4   9  17  31  49  72 102 137 172 208 252 307
#     4  10  21  36  52  71 100 139 176 207 247 304
#     4  10  20  35  54  71  99 140 178 211 251 304
#     4   9  14  24  44  69 103 136 158 197 253 310
#     4   9  17  28  46  75 106 133 164 205 257 305
#     4  10  20  33  52  77 105 131 166 216 259 297
#
# _framework density 19.272321000000002
#
# number of rings (size 3 to 8) (size 9 to 14) (size 15 to 20)
#    0.000    2.500    1.250    3.000    1.750    2.000 
#    0.000    0.000    0.000    4.500    0.000    0.000 
#    0.000    6.000    0.000    0.000    0.000    0.000 
#
# Total GULP energy -178561.790698 kJ/mol
# GULP energy per Si atom -5580.055959 kJ/mol
# Density = 1.922846 g / cm^3
# Si number density = 19.272321 Si / 1000 Ang^3
#
#
#
# Elastic Constant Matrix: (Units=GPa)
#
#
# Indices 1 2 3 4 5 6 
#
# 1 19.9465 10.9790 10.8324 0.0000 0.0000 0.0000
# 2 10.9790 210.6649 113.1646 0.0000 0.0000 0.0000
# 3 10.8324 113.1646 204.9346 0.0000 0.0000 0.0000
# 4 0.0000 0.0000 0.0000 2.4353 0.0000 0.0000
# 5 0.0000 0.0000 0.0000 0.0000 1.4983 0.0000
# 6 0.0000 0.0000 0.0000 0.0000 0.0000 -29.1252
#
#
#
# Elastic Compliance Matrix: (Units=1/GPa)
#
#
# Indices 1 2 3 4 5 6 
#
# 1 0.052069 -0.001756 -0.001783 0.000000 0.000000 0.000000
# 2 -0.001756 0.006808 -0.003667 0.000000 0.000000 0.000000
# 3 -0.001783 -0.003667 0.006998 0.000000 0.000000 0.000000
# 4 0.000000 0.000000 0.000000 0.410619 0.000000 0.000000
# 5 0.000000 0.000000 0.000000 0.000000 0.667434 0.000000
# 6 0.000000 0.000000 0.000000 0.000000 0.000000 -0.034335
#
#
# Mechanical properties :
#
#
# Convention : Reuss Voigt Hill
#
# Bulk Modulus (GPa) = 19.43075 78.38868 48.90971
# Shear Modulus (GPa) = 4.38151 14.99968 9.69059
#
# Velocity S-wave (km/s) = 1.50944 2.79283 2.24481
# Velocity P-wave (km/s) = 3.62519 7.15279 5.67029
#
# Compressibility (1/GPa) = 0.05146481
#
# Stress axis : x y z
#
# Youngs Moduli (GPa) = 19.20542 146.88649 142.88815
#
# Poissons Ratio (x) = 0.25794 0.25470
# Poissons Ratio (y) = 0.03373 0.52390
# Poissons Ratio (z) = 0.03423 0.53856
#
# Static dielectric constant tensor:
#      x y z
#    x 1.684030 0.000000 0.000000 
#    y 0.000000 1.660090 0.000000 
#    z 0.000000 0.000000 1.662400 
# 
# From -- ./inp_files/31390.got.cif
#   From: 2010.05.17/outbox.cif.g08.bks.cpg/sg71_16_cif.got.tgz:31390.got - 2010.06.03 16:22:01.
