data_PCOD9521406
_publ_section_title
;
Structure prediction by ZEFSAII (Michael W. Deem and Ramdas Pophale) SiO2 
 PCOD9521406
Probable space group: I M M M
;
_chemical_formula_sum "Si O2"
_cell_formula_units_Z 64
_cell_length_a 43.553408
_cell_length_b 9.330625
_cell_length_c 7.596803
_cell_angle_alpha 90.000000
_cell_angle_beta 90.000000
_cell_angle_gamma 90.000000
_cell_volume 3087.192735
_symmetry_space_group_name_H-M "I M M M"
_symmetry_group_IT_number 71
_symmetry_cell_setting 'orthorhombic'
loop_
_space_group_symop_operation_xyz
x,y,z
-x,-y,z
x,-y,-z
-x,y,-z
-x,-y,-z
x,y,-z
-x,y,z
x,-y,z
1/2+x,1/2+y,1/2+z
1/2-x,1/2-y,1/2+z
1/2+x,1/2-y,1/2-z
1/2-x,1/2+y,1/2-z
1/2-x,1/2-y,1/2-z
1/2+x,1/2+y,1/2-z
1/2-x,1/2+y,1/2+z
1/2+x,1/2-y,1/2+z
loop_
_atom_site_type_symbol
_atom_site_label
_atom_site_fract_x
_atom_site_fract_y
_atom_site_fract_z
Si Si1 0.659317 0.835241 0.215870
Si Si2 0.719223 0.337335 0.788705
Si Si3 0.533005 0.332952 0.711635
Si Si4 0.100002 0.163510 0.709301
O O1 0.689085 0.746541 0.274716
O O2 0.628045 0.758553 0.276030
O O3 0.660934 0.000000 0.271756
O O4 0.659307 0.835208 0.000000
O O5 0.720832 0.500000 0.720841
O O6 0.750000 0.250000 0.750000
O O7 0.716477 0.345310 0.000000
O O8 0.532467 0.333040 0.500000
O O9 0.500000 0.271707 0.771862
O O10 0.533549 0.500000 0.770527
O O11 0.565995 0.272135 0.763430
O O12 0.104220 0.152319 0.500000
O O13 0.100752 0.000000 0.781123
#
# Coordination Sequence:
#
# PCOD9521406 Si02
#       4
#    16  16  16  16
#     4   9  17  30  48  68  92 124 158 191 232 281
#     4  10  20  34  53  76 101 129 162 199 239 285
#     4   8  14  25  41  62  89 119 148 180 224 277
#     4   9  16  26  43  67  90 112 146 192 233 269
#
# _framework density 20.730809000000001
#
# number of rings (size 3 to 8) (size 9 to 14) (size 15 to 20)
#    0.000    3.000    0.000    2.250    0.000    5.000 
#    0.000    3.750    0.000    6.000    0.000    5.250 
#    0.000    0.000    0.000    0.000    0.000    0.000 
#
# Total GULP energy -178414.214138 kJ/mol
# GULP energy per Si atom -5575.444192 kJ/mol
# Density = 2.068363 g / cm^3
# Si number density = 20.730809 Si / 1000 Ang^3
#
#
#
# Elastic Constant Matrix: (Units=GPa)
#
#
# Indices 1 2 3 4 5 6 
#
# 1 258.1447 114.9749 2.1652 0.0000 0.0000 0.0000
# 2 114.9749 134.4385 6.4209 -0.0001 0.0000 0.0000
# 3 2.1652 6.4209 41.1282 -0.0001 0.0000 0.0000
# 4 0.0000 -0.0001 -0.0001 6.2501 0.0000 0.0000
# 5 0.0000 0.0000 0.0000 0.0000 21.3577 0.0000
# 6 0.0000 0.0000 0.0000 0.0000 0.0000 25.7011
#
#
#
# Elastic Compliance Matrix: (Units=1/GPa)
#
#
# Indices 1 2 3 4 5 6 
#
# 1 0.006268 -0.005385 0.000511 0.000000 0.000000 0.000000
# 2 -0.005385 0.012120 -0.001609 0.000000 0.000000 0.000000
# 3 0.000511 -0.001609 0.024538 0.000000 0.000000 0.000000
# 4 0.000000 0.000000 0.000000 0.159999 0.000000 0.000000
# 5 0.000000 0.000000 0.000000 0.000000 0.046821 0.000000
# 6 0.000000 0.000000 0.000000 0.000000 0.000000 0.038909
#
#
# Mechanical properties :
#
#
# Convention : Reuss Voigt Hill
#
# Bulk Modulus (GPa) = 33.37667 75.64815 54.51241
# Shear Modulus (GPa) = 16.04580 31.33848 23.69214
#
# Velocity S-wave (km/s) = 2.78512 3.89226 3.38427
# Velocity P-wave (km/s) = 5.14563 7.53455 6.45163
#
# Compressibility (1/GPa) = 0.02996105
#
# Stress axis : x y z
#
# Youngs Moduli (GPa) = 159.54457 82.50568 40.75231
#
# Poissons Ratio (x) = 0.44428 -0.02081
# Poissons Ratio (y) = 0.85911 0.06556
# Poissons Ratio (z) = -0.08148 0.13273
#
# Static dielectric constant tensor:
#      x y z
#    x 1.754360 0.000000 0.000000 
#    y 0.000000 1.716840 0.000000 
#    z 0.000000 0.000000 1.796040 
# 
# From -- ./inp_files/3688.got.cif
#   From: 2010.05.17/outbox.cif.g08.bks.cpg/sg71_2_cif.got.tgz:3688.got - 2010.06.03 16:22:01.
