data_PCOD9521228
_publ_section_title
;
Structure prediction by ZEFSAII (Michael W. Deem and Ramdas Pophale) SiO2 
 PCOD9521228
Probable space group: I M M M
;
_chemical_formula_sum "Si O2"
_cell_formula_units_Z 100
_cell_length_a 27.324046
_cell_length_b 9.276613
_cell_length_c 22.378141
_cell_angle_alpha 90.000000
_cell_angle_beta 90.000000
_cell_angle_gamma 90.000000
_cell_volume 5672.290346
_symmetry_space_group_name_H-M "I M M M"
_symmetry_group_IT_number 71
_symmetry_cell_setting 'orthorhombic'
loop_
_space_group_symop_operation_xyz
x,y,z
-x,-y,z
x,-y,-z
-x,y,-z
-x,-y,-z
x,y,-z
-x,y,z
x,-y,z
1/2+x,1/2+y,1/2+z
1/2-x,1/2-y,1/2+z
1/2+x,1/2-y,1/2-z
1/2-x,1/2+y,1/2-z
1/2-x,1/2-y,1/2-z
1/2+x,1/2+y,1/2-z
1/2-x,1/2+y,1/2+z
1/2+x,1/2-y,1/2+z
loop_
_atom_site_type_symbol
_atom_site_label
_atom_site_fract_x
_atom_site_fract_y
_atom_site_fract_z
Si Si1 0.117104 0.333524 0.000000
Si Si2 0.873954 0.673173 0.327937
Si Si3 0.091780 0.167146 0.210974
Si Si4 0.239327 0.674283 0.686348
Si Si5 0.829172 0.833105 0.892231
Si Si6 0.500000 0.228858 0.500000
Si Si7 0.500000 0.671835 0.635683
Si Si8 0.055271 0.324541 0.567971
O O1 0.141691 0.255634 0.057453
O O2 0.056990 0.331103 0.000000
O O3 0.131441 0.500000 0.000000
O O4 0.877942 0.500000 0.324060
O O5 0.897462 0.742187 0.269316
O O6 0.816557 0.707785 0.330502
O O7 0.904189 0.723766 0.385445
O O8 0.138181 0.168409 0.167487
O O9 0.047426 0.226136 0.170701
O O10 0.081868 0.000000 0.227121
O O11 0.244581 0.500000 0.693478
O O12 0.250000 0.750000 0.750000
O O13 0.276511 0.717456 0.632912
O O14 0.825185 0.000000 0.912797
O O15 0.500000 0.301129 0.565223
O O16 0.500000 0.500000 0.641416
O O17 0.064261 0.277422 0.500000
O O18 0.055914 0.500000 0.567544
O O19 0.000000 0.281614 0.585415
#
# Coordination Sequence:
#
# PCOD9521228 Si02
#       8
#     8  16  16  16  16   4   8  16
#     4  12  26  41  58  83 112 145 187 236 288 331
#     4  10  20  33  54  85 111 137 177 226 278 323
#     4  10  20  35  54  80 109 142 183 226 269 324
#     4  10  20  35  55  81 109 141 178 221 272 325
#     4  10  21  39  59  78 106 147 192 229 271 331
#     4  12  22  40  58  80 111 148 185 232 283 332
#     4  10  21  35  55  80 108 147 193 228 265 324
#     4   8  15  30  51  75 106 140 172 209 259 321
#
# _framework density 17.629563000000001
#
# number of rings (size 3 to 8) (size 9 to 14) (size 15 to 20)
#    0.000    2.080    3.200    0.960    1.120    1.920 
#    1.440    0.000    0.000    0.480    0.000    1.120 
#    0.000    0.000    0.000    0.000    0.000    0.000 
#
# Total GULP energy -278472.737647 kJ/mol
# GULP energy per Si atom -5569.454753 kJ/mol
# Density = 1.758944 g / cm^3
# Si number density = 17.629563 Si / 1000 Ang^3
#
#
#
# Elastic Constant Matrix: (Units=GPa)
#
#
# Indices 1 2 3 4 5 6 
#
# 1 142.2761 33.7808 89.1987 0.0000 0.0000 0.0000
# 2 33.7808 31.3215 34.3559 0.0000 0.0000 0.0000
# 3 89.1987 34.3559 111.8583 0.0000 0.0000 0.0000
# 4 0.0000 0.0000 0.0000 119.0649 0.0000 0.0000
# 5 0.0000 0.0000 0.0000 0.0000 32.2981 0.0000
# 6 0.0000 0.0000 0.0000 0.0000 0.0000 9.8968
#
#
#
# Elastic Compliance Matrix: (Units=1/GPa)
#
#
# Indices 1 2 3 4 5 6 
#
# 1 0.014454 -0.004443 -0.010161 0.000000 0.000000 0.000000
# 2 -0.004443 0.049513 -0.011664 0.000000 0.000000 0.000000
# 3 -0.010161 -0.011664 0.020625 0.000000 0.000000 0.000000
# 4 0.000000 0.000000 0.000000 0.008399 0.000000 0.000000
# 5 0.000000 0.000000 0.000000 0.000000 0.030962 0.000000
# 6 0.000000 0.000000 0.000000 0.000000 0.000000 0.101043
#
#
# Mechanical properties :
#
#
# Convention : Reuss Voigt Hill
#
# Bulk Modulus (GPa) = 31.19630 66.68075 48.93853
# Shear Modulus (GPa) = 17.34791 40.79333 29.07062
#
# Velocity S-wave (km/s) = 3.14032 4.81554 4.06516
# Velocity P-wave (km/s) = 5.55722 8.29606 7.06071
#
# Compressibility (1/GPa) = 0.03205508
#
# Stress axis : x y z
#
# Youngs Moduli (GPa) = 69.18414 20.19656 48.48379
#
# Poissons Ratio (x) = 0.08974 0.49267
# Poissons Ratio (y) = 0.30740 0.56553
# Poissons Ratio (z) = 0.70301 0.23558
#
# Static dielectric constant tensor:
#      x y z
#    x 1.647160 0.000000 0.000000 
#    y 0.000000 1.602600 0.000000 
#    z 0.000000 0.000000 1.568650 
# 
# From -- ./inp_files/56319.got.cif
#   From: 2010.05.17/outbox.cif.g08.bks.cpg/sg71_29_cif.got.tgz:56319.got - 2010.06.03 16:22:01.
