data_PCOD9521621
_publ_section_title
;
Structure prediction by ZEFSAII (Michael W. Deem and Ramdas Pophale) SiO2 
 PCOD9521621
Probable space group: I M M M
;
_chemical_formula_sum "Si O2"
_cell_formula_units_Z 88
_cell_length_a 18.573353
_cell_length_b 29.037225
_cell_length_c 8.924525
_cell_angle_alpha 90.000000
_cell_angle_beta 90.000000
_cell_angle_gamma 90.000000
_cell_volume 4813.162597
_symmetry_space_group_name_H-M "I M M M"
_symmetry_group_IT_number 71
_symmetry_cell_setting 'orthorhombic'
loop_
_space_group_symop_operation_xyz
x,y,z
-x,-y,z
x,-y,-z
-x,y,-z
-x,-y,-z
x,y,-z
-x,y,z
x,-y,z
1/2+x,1/2+y,1/2+z
1/2-x,1/2-y,1/2+z
1/2+x,1/2-y,1/2-z
1/2-x,1/2+y,1/2-z
1/2-x,1/2-y,1/2-z
1/2+x,1/2+y,1/2-z
1/2-x,1/2+y,1/2+z
1/2+x,1/2-y,1/2+z
loop_
_atom_site_type_symbol
_atom_site_label
_atom_site_fract_x
_atom_site_fract_y
_atom_site_fract_z
Si Si1 0.000000 0.556162 0.326498
Si Si2 0.714996 0.795303 0.322188
Si Si3 0.083382 0.858652 0.321548
Si Si4 0.774573 0.111855 0.178322
Si Si5 0.916379 0.761372 0.827552
Si Si6 0.649719 0.944501 0.327188
O O1 0.925983 0.570915 0.246280
O O2 0.000000 0.500000 0.322449
O O3 0.000000 0.570229 0.500000
O O4 0.730549 0.798909 0.500000
O O5 0.750000 0.750000 0.250000
O O6 0.741551 0.840089 0.237560
O O7 0.630954 0.783615 0.301030
O O8 0.088401 0.863299 0.500000
O O9 0.144405 0.889427 0.243903
O O10 0.099162 0.805499 0.275674
O O11 0.000000 0.867773 0.276127
O O12 0.719347 0.074014 0.240750
O O13 0.777054 0.110861 0.000000
O O14 0.000000 0.750854 0.813110
O O15 0.901478 0.776239 0.000000
O O16 0.652811 0.928982 0.500000
O O17 0.649952 0.000000 0.324787
#
# Coordination Sequence:
#
# PCOD9521621 Si02
#       6
#     8  16  16  16  16  16
#     4   9  17  33  59  89 119 149 183 225 275 333
#     4  11  21  34  53  77 110 147 185 231 279 328
#     4  10  20  34  55  81 108 141 185 234 279 331
#     4  12  24  37  56  82 114 151 188 230 282 337
#     4   9  18  33  52  73 100 139 185 228 274 325
#     4  10  21  39  63  88 114 147 188 233 280 331
#
# _framework density 18.283197999999999
#
# number of rings (size 3 to 8) (size 9 to 14) (size 15 to 20)
#    0.000    1.727    1.818    3.545    0.000    4.000 
#    1.636    0.000    0.000    0.545    0.000    3.818 
#    0.000    0.000    0.000    0.000    0.000    0.000 
#
# Total GULP energy -245573.787987 kJ/mol
# GULP energy per Si atom -5581.222454 kJ/mol
# Density = 1.824158 g / cm^3
# Si number density = 18.283198 Si / 1000 Ang^3
#
#
#
# Elastic Constant Matrix: (Units=GPa)
#
#
# Indices 1 2 3 4 5 6 
#
# 1 139.3263 25.3398 74.7785 0.0000 0.0000 0.0000
# 2 25.3398 19.8524 21.3865 0.0000 0.0000 0.0000
# 3 74.7785 21.3865 132.2130 -0.0002 -0.0002 -0.0001
# 4 0.0000 0.0000 -0.0002 25.7121 0.0000 0.0000
# 5 0.0000 0.0000 -0.0002 0.0000 31.4637 0.0000
# 6 0.0000 0.0000 -0.0001 0.0000 0.0000 29.9272
#
#
#
# Elastic Compliance Matrix: (Units=1/GPa)
#
#
# Indices 1 2 3 4 5 6 
#
# 1 0.011583 -0.009358 -0.005038 0.000000 0.000000 0.000000
# 2 -0.009358 0.068562 -0.005798 0.000000 0.000000 0.000000
# 3 -0.005038 -0.005798 0.011351 0.000000 0.000000 0.000000
# 4 0.000000 0.000000 0.000000 0.038892 0.000000 0.000000
# 5 0.000000 0.000000 0.000000 0.000000 0.031783 0.000000
# 6 0.000000 0.000000 0.000000 0.000000 0.000000 0.033414
#
#
# Mechanical properties :
#
#
# Convention : Reuss Voigt Hill
#
# Bulk Modulus (GPa) = 19.56594 59.37792 39.47193
# Shear Modulus (GPa) = 19.76226 28.74640 24.25433
#
# Velocity S-wave (km/s) = 3.29127 3.96951 3.64619
# Velocity P-wave (km/s) = 5.01678 7.31824 6.27394
#
# Compressibility (1/GPa) = 0.05110922
#
# Stress axis : x y z
#
# Youngs Moduli (GPa) = 86.33279 14.58537 88.10121
#
# Poissons Ratio (x) = 0.13649 0.44382
# Poissons Ratio (y) = 0.80789 0.51079
# Poissons Ratio (z) = 0.43491 0.08456
#
# Static dielectric constant tensor:
#      x y z
#    x 1.681630 0.000000 0.000000 
#    y 0.000000 1.611710 0.000000 
#    z 0.000000 0.000000 1.627990 
# 
# From -- ./inp_files/8764.got.cif
#   From: 2010.05.17/outbox.cif.g08.bks.cpg/sg71_5_cif.got.tgz:8764.got - 2010.06.03 16:22:01.
