data_PCOD9521447
_publ_section_title
;
Structure prediction by ZEFSAII (Michael W. Deem and Ramdas Pophale) SiO2 
 PCOD9521447
Probable space group: I M M M
;
_chemical_formula_sum "Si O2"
_cell_formula_units_Z 72
_cell_length_a 9.753043
_cell_length_b 29.162433
_cell_length_c 13.210893
_cell_angle_alpha 90.000000
_cell_angle_beta 90.000000
_cell_angle_gamma 90.000000
_cell_volume 3757.474726
_symmetry_space_group_name_H-M "I M M M"
_symmetry_group_IT_number 71
_symmetry_cell_setting 'orthorhombic'
loop_
_space_group_symop_operation_xyz
x,y,z
-x,-y,z
x,-y,-z
-x,y,-z
-x,-y,-z
x,y,-z
-x,y,z
x,-y,z
1/2+x,1/2+y,1/2+z
1/2-x,1/2-y,1/2+z
1/2+x,1/2-y,1/2-z
1/2-x,1/2+y,1/2-z
1/2-x,1/2-y,1/2-z
1/2+x,1/2+y,1/2-z
1/2-x,1/2+y,1/2+z
1/2+x,1/2-y,1/2+z
loop_
_atom_site_type_symbol
_atom_site_label
_atom_site_fract_x
_atom_site_fract_y
_atom_site_fract_z
Si Si1 0.840437 0.814162 0.305355
Si Si2 0.340174 0.892386 0.611332
Si Si3 0.658934 0.790673 0.881751
Si Si4 0.156681 0.056207 0.000000
Si Si5 0.344205 0.055108 0.815918
O O1 0.759716 0.849650 0.374977
O O2 0.761298 0.813737 0.197888
O O3 0.833362 0.763543 0.354748
O O4 0.000000 0.825999 0.293500
O O5 0.321815 0.913393 0.500000
O O6 0.500000 0.877695 0.618740
O O7 0.314010 0.925984 0.704825
O O8 0.500000 0.804879 0.864213
O O9 0.691141 0.797940 0.000000
O O10 0.238513 0.071386 0.900554
O O11 0.000000 0.071261 0.000000
O O12 0.157698 0.000000 0.000000
O O13 0.500000 0.068598 0.843813
O O14 0.339931 0.000000 0.813893
#
# Coordination Sequence:
#
# PCOD9521447 Si02
#       5
#    16  16  16   8  16
#     4  10  20  34  53  78 107 138 175 217 263 316
#     4  10  21  36  54  78 108 142 180 220 266 319
#     4   9  18  34  55  77 103 137 176 218 264 313
#     4   9  17  31  53  79 105 133 169 215 265 317
#     4   9  18  34  56  80 106 139 179 220 264 315
#
# _framework density 19.161805000000001
#
# number of rings (size 3 to 8) (size 9 to 14) (size 15 to 20)
#    0.000    2.556    0.000    1.667    0.000    5.333 
#    2.000    2.222    0.000    0.000    0.000    4.667 
#    0.000    0.000    0.000    0.000    0.000    0.000 
#
# Total GULP energy -200942.402090 kJ/mol
# GULP energy per Si atom -5581.733391 kJ/mol
# Density = 1.911819 g / cm^3
# Si number density = 19.161805 Si / 1000 Ang^3
#
#
#
# Elastic Constant Matrix: (Units=GPa)
#
#
# Indices 1 2 3 4 5 6 
#
# 1 105.7259 23.7440 95.5944 0.0001 0.0000 0.0000
# 2 23.7440 14.9224 19.2844 0.0000 0.0000 0.0000
# 3 95.5944 19.2844 172.8438 -0.0002 0.0001 0.0000
# 4 0.0001 0.0000 -0.0002 21.8465 0.0000 0.0000
# 5 0.0000 0.0000 0.0001 0.0000 16.4842 0.0000
# 6 0.0000 0.0000 0.0000 0.0000 0.0000 18.4909
#
#
#
# Elastic Compliance Matrix: (Units=1/GPa)
#
#
# Indices 1 2 3 4 5 6 
#
# 1 0.025341 -0.025951 -0.011120 0.000000 0.000000 0.000000
# 2 -0.025951 0.104879 0.002651 0.000000 0.000000 0.000000
# 3 -0.011120 0.002651 0.011640 0.000000 0.000000 0.000000
# 4 0.000000 0.000000 0.000000 0.045774 0.000000 0.000000
# 5 0.000000 0.000000 0.000000 0.000000 0.060664 0.000000
# 6 0.000000 0.000000 0.000000 0.000000 0.000000 0.054081
#
#
# Mechanical properties :
#
#
# Convention : Reuss Voigt Hill
#
# Bulk Modulus (GPa) = 13.69477 63.41532 38.55504
# Shear Modulus (GPa) = 12.64039 21.68896 17.16468
#
# Velocity S-wave (km/s) = 2.57118 3.36800 2.99620
# Velocity P-wave (km/s) = 3.99713 6.94918 5.66869
#
# Compressibility (1/GPa) = 0.07302058
#
# Stress axis : x y z
#
# Youngs Moduli (GPa) = 39.46231 9.53477 85.91249
#
# Poissons Ratio (x) = 0.24744 0.95532
# Poissons Ratio (y) = 1.02408 -0.22776
# Poissons Ratio (z) = 0.43881 -0.02528
#
# Static dielectric constant tensor:
#      x y z
#    x 1.646140 0.000000 0.000000 
#    y 0.000000 1.669480 0.000000 
#    z 0.000000 0.000000 1.659730 
# 
# From -- ./inp_files/16374.got.cif
#   From: 2010.05.17/outbox.cif.g08.bks.cpg/sg71_9_cif.got.tgz:16374.got - 2010.06.03 16:22:01.
