data_PCOD9521827
_publ_section_title
;
Structure prediction by ZEFSAII (Michael W. Deem and Ramdas Pophale) SiO2 
 PCOD9521827
Probable space group: I M M M
;
_chemical_formula_sum "Si O2"
_cell_formula_units_Z 72
_cell_length_a 30.938099
_cell_length_b 14.940283
_cell_length_c 8.145904
_cell_angle_alpha 90.000000
_cell_angle_beta 90.000000
_cell_angle_gamma 90.000000
_cell_volume 3765.231960
_symmetry_space_group_name_H-M "I M M M"
_symmetry_group_IT_number 71
_symmetry_cell_setting 'orthorhombic'
loop_
_space_group_symop_operation_xyz
x,y,z
-x,-y,z
x,-y,-z
-x,y,-z
-x,-y,-z
x,y,-z
-x,y,z
x,-y,z
1/2+x,1/2+y,1/2+z
1/2-x,1/2-y,1/2+z
1/2+x,1/2-y,1/2-z
1/2-x,1/2+y,1/2-z
1/2-x,1/2-y,1/2-z
1/2+x,1/2+y,1/2-z
1/2-x,1/2+y,1/2+z
1/2+x,1/2-y,1/2+z
loop_
_atom_site_type_symbol
_atom_site_label
_atom_site_fract_x
_atom_site_fract_y
_atom_site_fract_z
Si Si1 0.708185 0.193440 0.301605
Si Si2 0.950611 0.694450 0.698237
Si Si3 0.162991 0.000000 0.304212
Si Si4 0.736979 0.000000 0.299214
Si Si5 0.552695 0.000000 0.810223
Si Si6 0.127680 0.189951 0.804088
O O1 0.706790 0.192136 0.500000
O O2 0.750000 0.250000 0.250000
O O3 0.714115 0.091351 0.244756
O O4 0.665518 0.243968 0.240434
O O5 0.951765 0.687912 0.500000
O O6 0.935071 0.596426 0.762660
O O7 0.917958 0.771876 0.745986
O O8 0.000000 0.709434 0.753866
O O9 0.139083 0.089789 0.248958
O O10 0.164865 0.000000 0.500000
O O11 0.212877 0.000000 0.244163
O O12 0.737177 0.000000 0.500000
O O13 0.500000 0.000000 0.812155
O O14 0.567382 0.000000 0.000000
O O15 0.128441 0.192864 0.000000
#
# Coordination Sequence:
#
# PCOD9521827 Si02
#       6
#    16  16   8   8   8  16
#     4  10  20  35  54  78 108 142 181 223 269 321
#     4   9  18  35  59  84 112 149 192 232 272 328
#     4  11  21  37  61  79 102 148 196 232 272 336
#     4   9  18  34  56  79 106 145 186 224 267 320
#     4   7  12  27  53  81 107 138 178 225 268 309
#     4  11  23  36  55  84 117 146 180 233 289 338
#
# _framework density 19.122328
#
# number of rings (size 3 to 8) (size 9 to 14) (size 15 to 20)
#    0.000    2.333    2.222    2.333    0.000    2.222 
#    0.000    2.778    0.000    5.333    0.000    0.000 
#    0.000    0.000    0.000    0.000    0.000    0.000 
#
# Total GULP energy -200850.241079 kJ/mol
# GULP energy per Si atom -5579.173363 kJ/mol
# Density = 1.907880 g / cm^3
# Si number density = 19.122328 Si / 1000 Ang^3
#
#
#
# Elastic Constant Matrix: (Units=GPa)
#
#
# Indices 1 2 3 4 5 6 
#
# 1 112.0289 90.5242 14.6809 0.0000 0.0000 0.0000
# 2 90.5242 201.7446 16.5757 0.0000 0.0000 0.0000
# 3 14.6809 16.5757 18.3325 0.0000 0.0000 0.0000
# 4 0.0000 0.0000 0.0000 1.4984 0.0000 0.0000
# 5 0.0000 0.0000 0.0000 0.0000 18.3307 0.0000
# 6 0.0000 0.0000 0.0000 0.0000 0.0000 33.5182
#
#
#
# Elastic Compliance Matrix: (Units=1/GPa)
#
#
# Indices 1 2 3 4 5 6 
#
# 1 0.014637 -0.006055 -0.006247 0.000000 0.000000 0.000000
# 2 -0.006055 0.007859 -0.002257 0.000000 0.000000 0.000000
# 3 -0.006247 -0.002257 0.061592 0.000000 0.000000 0.000000
# 4 0.000000 0.000000 0.000000 0.667393 0.000000 0.000000
# 5 0.000000 0.000000 0.000000 0.000000 0.054553 0.000000
# 6 0.000000 0.000000 0.000000 0.000000 0.000000 0.029835
#
#
# Mechanical properties :
#
#
# Convention : Reuss Voigt Hill
#
# Bulk Modulus (GPa) = 18.19186 63.96306 41.07746
# Shear Modulus (GPa) = 5.66053 24.69113 15.17583
#
# Velocity S-wave (km/s) = 1.72238 3.59725 2.82018
# Velocity P-wave (km/s) = 3.67281 7.12570 5.66856
#
# Compressibility (1/GPa) = 0.05496963
#
# Stress axis : x y z
#
# Youngs Moduli (GPa) = 68.31863 127.24352 16.23595
#
# Poissons Ratio (x) = 0.77040 0.10143
# Poissons Ratio (y) = 0.41364 0.03665
# Poissons Ratio (z) = 0.42681 0.28722
#
# Static dielectric constant tensor:
#      x y z
#    x 1.652720 0.000000 0.000000 
#    y 0.000000 1.613750 0.000000 
#    z 0.000000 0.000000 1.668630 
# 
# From -- ./inp_files/6226.got.cif
#   From: 2010.05.17/outbox.cif.g08.bks.cpg/sg71_4_cif.got.tgz:6226.got - 2010.06.03 16:22:01.
