data_PCOD9521526
_publ_section_title
;
Structure prediction by ZEFSAII (Michael W. Deem and Ramdas Pophale) SiO2 
 PCOD9521526
Probable space group: I M M M
;
_chemical_formula_sum "Si O2"
_cell_formula_units_Z 72
_cell_length_a 24.093897
_cell_length_b 15.907217
_cell_length_c 9.173790
_cell_angle_alpha 90.000000
_cell_angle_beta 90.000000
_cell_angle_gamma 90.000000
_cell_volume 3516.009577
_symmetry_space_group_name_H-M "I M M M"
_symmetry_group_IT_number 71
_symmetry_cell_setting 'orthorhombic'
loop_
_space_group_symop_operation_xyz
x,y,z
-x,-y,z
x,-y,-z
-x,y,-z
-x,-y,-z
x,y,-z
-x,y,z
x,-y,z
1/2+x,1/2+y,1/2+z
1/2-x,1/2-y,1/2+z
1/2+x,1/2-y,1/2-z
1/2-x,1/2+y,1/2-z
1/2-x,1/2-y,1/2-z
1/2+x,1/2+y,1/2-z
1/2-x,1/2+y,1/2+z
1/2+x,1/2-y,1/2+z
loop_
_atom_site_type_symbol
_atom_site_label
_atom_site_fract_x
_atom_site_fract_y
_atom_site_fract_z
Si Si1 0.231363 0.164135 0.826457
Si Si2 0.832303 0.598265 0.162040
Si Si3 0.500000 0.402184 0.822883
Si Si4 0.621623 0.397712 0.828865
Si Si5 0.561796 0.897133 0.168721
O O1 0.250000 0.250000 0.750000
O O2 0.279416 0.103666 0.765990
O O3 0.171569 0.137078 0.766611
O O4 0.231986 0.168354 0.000000
O O5 0.844373 0.500000 0.145365
O O6 0.887235 0.635913 0.236242
O O7 0.821123 0.633341 0.000000
O O8 0.500000 0.500000 0.776118
O O9 0.560192 0.366807 0.781158
O O10 0.500000 0.402434 0.000000
O O11 0.621659 0.500000 0.821409
O O12 0.630137 0.375929 0.000000
O O13 0.500000 0.871777 0.217845
O O14 0.562595 0.000000 0.169702
O O15 0.568749 0.871840 0.000000
#
# Coordination Sequence:
#
# PCOD9521526 Si02
#       5
#    16  16   8  16  16
#     4  12  25  39  55  75 106 146 186 229 277 329
#     4  10  20  34  54  80 108 138 176 222 270 321
#     4   7  12  26  53  87 117 145 176 213 262 323
#     4   9  17  33  59  89 118 147 182 223 269 327
#     4   8  14  26  46  73 104 136 170 210 256 305
#
# _framework density 20.477758999999999
#
# number of rings (size 3 to 8) (size 9 to 14) (size 15 to 20)
#    0.000    2.556    0.000    5.333    0.000    4.889 
#    0.000    2.778    2.444    2.000    0.000    0.000 
#    0.000    0.000    0.000    0.000    0.000    0.000 
#
# Total GULP energy -200749.861265 kJ/mol
# GULP energy per Si atom -5576.385035 kJ/mol
# Density = 2.043115 g / cm^3
# Si number density = 20.477759 Si / 1000 Ang^3
#
#
#
# Elastic Constant Matrix: (Units=GPa)
#
#
# Indices 1 2 3 4 5 6 
#
# 1 217.5221 19.2003 111.4088 0.0000 0.0000 0.0000
# 2 19.2003 13.8112 19.6733 0.0000 0.0000 0.0000
# 3 111.4088 19.6733 146.9705 0.0000 0.0000 0.0000
# 4 0.0000 0.0000 0.0000 16.3590 0.0000 0.0000
# 5 0.0000 0.0000 0.0000 0.0000 34.4392 0.0000
# 6 0.0000 0.0000 0.0000 0.0000 0.0000 0.6107
#
#
#
# Elastic Compliance Matrix: (Units=1/GPa)
#
#
# Indices 1 2 3 4 5 6 
#
# 1 0.007609 -0.002918 -0.005377 0.000000 0.000000 0.000000
# 2 -0.002918 0.090583 -0.009913 0.000000 0.000000 0.000000
# 3 -0.005377 -0.009913 0.012207 0.000000 0.000000 0.000000
# 4 0.000000 0.000000 0.000000 0.061128 0.000000 0.000000
# 5 0.000000 0.000000 0.000000 0.000000 0.029037 0.000000
# 6 0.000000 0.000000 0.000000 0.000000 0.000000 1.637527
#
#
# Mechanical properties :
#
#
# Convention : Reuss Voigt Hill
#
# Bulk Modulus (GPa) = 13.51687 75.42983 44.47335
# Shear Modulus (GPa) = 2.63273 25.48320 14.05797
#
# Velocity S-wave (km/s) = 1.13510 3.53148 2.62296
# Velocity P-wave (km/s) = 2.88670 7.31734 5.56221
#
# Compressibility (1/GPa) = 0.07398163
#
# Stress axis : x y z
#
# Youngs Moduli (GPa) = 131.42602 11.03961 81.91962
#
# Poissons Ratio (x) = 0.03222 0.44049
# Poissons Ratio (y) = 0.38355 0.81208
# Poissons Ratio (z) = 0.70669 0.10944
#
# Static dielectric constant tensor:
#      x y z
#    x 1.769300 0.000000 0.000000 
#    y 0.000000 1.824260 0.000000 
#    z 0.000000 0.000000 1.713950 
# 
# From -- ./inp_files/12186.got.cif
#   From: 2010.05.17/outbox.cif.g08.bks.cpg/sg71_7_cif.got.tgz:12186.got - 2010.06.03 16:22:01.
