data_PCOD9521043
_publ_section_title
;
Structure prediction by ZEFSAII (Michael W. Deem and Ramdas Pophale) SiO2 
 PCOD9521043
Probable space group: I M M M
;
_chemical_formula_sum "Si O2"
_cell_formula_units_Z 96
_cell_length_a 23.899173
_cell_length_b 7.685541
_cell_length_c 24.519122
_cell_angle_alpha 90.000000
_cell_angle_beta 90.000000
_cell_angle_gamma 90.000000
_cell_volume 4503.625104
_symmetry_space_group_name_H-M "I M M M"
_symmetry_group_IT_number 71
_symmetry_cell_setting 'orthorhombic'
loop_
_space_group_symop_operation_xyz
x,y,z
-x,-y,z
x,-y,-z
-x,y,-z
-x,-y,-z
x,y,-z
-x,y,z
x,-y,z
1/2+x,1/2+y,1/2+z
1/2-x,1/2-y,1/2+z
1/2+x,1/2-y,1/2-z
1/2-x,1/2+y,1/2-z
1/2-x,1/2-y,1/2-z
1/2+x,1/2+y,1/2-z
1/2-x,1/2+y,1/2+z
1/2+x,1/2-y,1/2+z
loop_
_atom_site_type_symbol
_atom_site_label
_atom_site_fract_x
_atom_site_fract_y
_atom_site_fract_z
Si Si1 0.063730 0.794539 0.320423
Si Si2 0.059729 0.793622 0.933911
Si Si3 0.318187 0.285668 0.437393
Si Si4 0.934398 0.709452 0.440834
Si Si5 0.245122 0.200010 0.838479
Si Si6 0.166779 0.704168 0.747767
O O1 0.087801 0.763777 0.381648
O O2 0.104243 0.722858 0.273903
O O3 0.000000 0.723602 0.318683
O O4 0.060827 0.000000 0.312534
O O5 0.120333 0.724668 0.917502
O O6 0.000000 0.720035 0.914487
O O7 0.059253 0.000000 0.921267
O O8 0.059852 0.780561 0.000000
O O9 0.310055 0.235223 0.500000
O O10 0.319118 0.500000 0.436159
O O11 0.270498 0.223191 0.396613
O O12 0.910986 0.768487 0.500000
O O13 0.932694 0.500000 0.441271
O O14 0.000000 0.763450 0.440440
O O15 0.188298 0.205559 0.802482
O O16 0.293226 0.277226 0.800523
O O17 0.261943 0.000000 0.847721
O O18 0.179140 0.500000 0.755330
#
# Coordination Sequence:
#
# PCOD9521043 Si02
#       6
#    16  16  16  16  16  16
#     4  10  20  33  51  75 101 128 161 207 258 302
#     4   7   9  14  27  51  84 118 145 168 206 266
#     4   8  13  23  42  67  94 123 155 197 247 291
#     4   8  14  26  45  69  98 132 166 197 235 292
#     4   9  18  33  52  73  96 125 166 209 245 290
#     4  10  20  34  52  71  94 130 171 208 249 295
#
# _framework density 21.31616
#
# number of rings (size 3 to 8) (size 9 to 14) (size 15 to 20)
#    0.000    3.333    0.000    3.000    0.000    2.000 
#    0.000    3.333    0.000    6.500    0.000    0.000 
#    0.000    0.000    0.000    5.667    0.000    5.500 
#
# Total GULP energy -267211.916306 kJ/mol
# GULP energy per Si atom -5566.914923 kJ/mol
# Density = 2.126764 g / cm^3
# Si number density = 21.316160 Si / 1000 Ang^3
#
#
#
# Elastic Constant Matrix: (Units=GPa)
#
#
# Indices 1 2 3 4 5 6 
#
# 1 37.7320 -3.2459 23.0772 0.0000 0.0000 0.0000
# 2 -3.2459 42.5406 -10.4146 0.0000 0.0000 0.0000
# 3 23.0772 -10.4146 50.2113 0.0000 0.0000 0.0000
# 4 0.0000 0.0000 0.0000 6.0811 0.0000 0.0000
# 5 0.0000 0.0000 0.0000 0.0000 25.7272 0.0000
# 6 0.0000 0.0000 0.0000 0.0000 0.0000 5.9216
#
#
#
# Elastic Compliance Matrix: (Units=1/GPa)
#
#
# Indices 1 2 3 4 5 6 
#
# 1 0.036945 -0.001410 -0.017273 0.000000 0.000000 0.000000
# 2 -0.001410 0.024818 0.005795 0.000000 0.000000 0.000000
# 3 -0.017273 0.005795 0.029056 0.000000 0.000000 0.000000
# 4 0.000000 0.000000 0.000000 0.164443 0.000000 0.000000
# 5 0.000000 0.000000 0.000000 0.000000 0.038869 0.000000
# 6 0.000000 0.000000 0.000000 0.000000 0.000000 0.168874
#
#
# Mechanical properties :
#
#
# Convention : Reuss Voigt Hill
#
# Bulk Modulus (GPa) = 15.37354 16.59082 15.98218
# Shear Modulus (GPa) = 9.79504 15.61713 12.70609
#
# Velocity S-wave (km/s) = 2.14595 2.70967 2.44412
# Velocity P-wave (km/s) = 3.65622 4.19403 3.93433
#
# Compressibility (1/GPa) = 0.06504682
#
# Stress axis : x y z
#
# Youngs Moduli (GPa) = 27.06694 40.29300 34.41586
#
# Poissons Ratio (x) = 0.05679 0.59445
# Poissons Ratio (y) = 0.03815 -0.19946
# Poissons Ratio (z) = 0.46751 -0.23352
#
# Static dielectric constant tensor:
#      x y z
#    x 1.834360 0.000000 0.000000 
#    y 0.000000 1.806600 0.000000 
#    z 0.000000 0.000000 1.789110 
# 
# From -- ./inp_files/66319.got.cif
#   From: 2010.05.17/outbox.cif.g08.bks.cpg/sg71_34_cif.got.tgz:66319.got - 2010.06.03 16:22:01.
