data_PCOD9521073
_publ_section_title
;
Structure prediction by ZEFSAII (Michael W. Deem and Ramdas Pophale) SiO2 
 PCOD9521073
Probable space group: I M M M
;
_chemical_formula_sum "Si O2"
_cell_formula_units_Z 80
_cell_length_a 9.026685
_cell_length_b 19.406078
_cell_length_c 26.710512
_cell_angle_alpha 90.000000
_cell_angle_beta 90.000000
_cell_angle_gamma 90.000000
_cell_volume 4678.948584
_symmetry_space_group_name_H-M "I M M M"
_symmetry_group_IT_number 71
_symmetry_cell_setting 'orthorhombic'
loop_
_space_group_symop_operation_xyz
x,y,z
-x,-y,z
x,-y,-z
-x,y,-z
-x,-y,-z
x,y,-z
-x,y,z
x,-y,z
1/2+x,1/2+y,1/2+z
1/2-x,1/2-y,1/2+z
1/2+x,1/2-y,1/2-z
1/2-x,1/2+y,1/2-z
1/2-x,1/2-y,1/2-z
1/2+x,1/2+y,1/2-z
1/2-x,1/2+y,1/2+z
1/2+x,1/2-y,1/2+z
loop_
_atom_site_type_symbol
_atom_site_label
_atom_site_fract_x
_atom_site_fract_y
_atom_site_fract_z
Si Si1 0.677837 0.674139 0.247300
Si Si2 0.822923 0.333552 0.853980
Si Si3 0.321685 0.920092 0.943365
Si Si4 0.176776 0.918124 0.442629
Si Si5 0.823216 0.829141 0.141766
O O1 0.500000 0.679356 0.242812
O O2 0.750000 0.750000 0.250000
O O3 0.746372 0.641206 0.197545
O O4 0.712173 0.643556 0.302138
O O5 0.764143 0.375482 0.901325
O O6 0.784885 0.252277 0.860345
O O7 0.000000 0.338614 0.849212
O O8 0.500000 0.916910 0.941607
O O9 0.255360 0.871432 0.901375
O O10 0.278850 0.000000 0.935321
O O11 0.275819 0.900619 0.000000
O O12 0.216319 0.899419 0.500000
O O13 0.000000 0.906876 0.436815
O O14 0.203225 0.000000 0.436828
O O15 0.000000 0.833979 0.135571
#
# Coordination Sequence:
#
# PCOD9521073 Si02
#       5
#    16  16  16  16  16
#     4   9  17  31  50  73 102 133 165 204 250 298
#     4  10  20  33  51  77 105 132 166 207 249 297
#     4   9  19  35  52  71  97 129 165 204 245 290
#     4   9  19  36  55  74  99 133 171 209 252 302
#     4   9  19  33  50  75 102 128 162 203 245 291
#
# _framework density 17.097859
#
# number of rings (size 3 to 8) (size 9 to 14) (size 15 to 20)
#    0.000    2.800    0.000    3.600    0.000    7.200 
#    0.000    7.000    0.000    1.200    0.000    0.000 
#    0.000    0.000    0.000    0.000    0.000    0.000 
#
# Total GULP energy -222886.206468 kJ/mol
# GULP energy per Si atom -5572.155162 kJ/mol
# Density = 1.705894 g / cm^3
# Si number density = 17.097859 Si / 1000 Ang^3
#
#
#
# Elastic Constant Matrix: (Units=GPa)
#
#
# Indices 1 2 3 4 5 6 
#
# 1 49.2280 37.1571 73.9545 0.0000 0.0000 0.0000
# 2 37.1571 45.9018 75.6576 0.0000 0.0000 0.0000
# 3 73.9545 75.6576 191.2435 0.0000 0.0000 0.0000
# 4 0.0000 0.0000 0.0000 -87.2457 0.0000 0.0000
# 5 0.0000 0.0000 0.0000 0.0000 37.5100 0.0000
# 6 0.0000 0.0000 0.0000 0.0000 0.0000 27.7298
#
#
#
# Elastic Compliance Matrix: (Units=1/GPa)
#
#
# Indices 1 2 3 4 5 6 
#
# 1 0.059802 -0.029581 -0.011423 0.000000 0.000000 0.000000
# 2 -0.029581 0.077246 -0.019120 0.000000 0.000000 0.000000
# 3 -0.011423 -0.019120 0.017210 0.000000 0.000000 0.000000
# 4 0.000000 0.000000 0.000000 -0.011462 0.000000 0.000000
# 5 0.000000 0.000000 0.000000 0.000000 0.026660 0.000000
# 6 0.000000 0.000000 0.000000 0.000000 0.000000 0.036062
#
#
# Mechanical properties :
#
#
# Convention : Reuss Voigt Hill
#
# Bulk Modulus (GPa) = 29.40327 73.32352 51.36340
# Shear Modulus (GPa) = 14.83225 2.23908 8.53567
#
# Velocity S-wave (km/s) = 2.94852 1.14561 2.23676
# Velocity P-wave (km/s) = 5.36899 6.68787 6.06439
#
# Compressibility (1/GPa) = 0.03400982
#
# Stress axis : x y z
#
# Youngs Moduli (GPa) = 16.72183 12.94570 58.10451
#
# Poissons Ratio (x) = 0.38295 0.66374
# Poissons Ratio (y) = 0.49465 1.11096
# Poissons Ratio (z) = 0.19102 0.24752
#
# Static dielectric constant tensor:
#      x y z
#    x 1.568160 0.000000 0.000000 
#    y 0.000000 1.561310 0.000000 
#    z 0.000000 0.000000 1.597380 
# 
# From -- ./inp_files/8300.got.cif
#   From: 2010.05.17/outbox.cif.g08.bks.cpg/sg71_5_cif.got.tgz:8300.got - 2010.06.03 16:22:01.
