data_PCOD9521528
_publ_section_title
;
Structure prediction by ZEFSAII (Michael W. Deem and Ramdas Pophale) SiO2 
 PCOD9521528
Probable space group: I M M M
;
_chemical_formula_sum "Si O2"
_cell_formula_units_Z 80
_cell_length_a 12.209683
_cell_length_b 18.792766
_cell_length_c 19.665117
_cell_angle_alpha 90.000000
_cell_angle_beta 90.000000
_cell_angle_gamma 90.000000
_cell_volume 4512.234162
_symmetry_space_group_name_H-M "I M M M"
_symmetry_group_IT_number 71
_symmetry_cell_setting 'orthorhombic'
loop_
_space_group_symop_operation_xyz
x,y,z
-x,-y,z
x,-y,-z
-x,y,-z
-x,-y,-z
x,y,-z
-x,y,z
x,-y,z
1/2+x,1/2+y,1/2+z
1/2-x,1/2-y,1/2+z
1/2+x,1/2-y,1/2-z
1/2-x,1/2+y,1/2-z
1/2-x,1/2-y,1/2-z
1/2+x,1/2+y,1/2-z
1/2-x,1/2+y,1/2+z
1/2+x,1/2-y,1/2+z
loop_
_atom_site_type_symbol
_atom_site_label
_atom_site_fract_x
_atom_site_fract_y
_atom_site_fract_z
Si Si1 0.378751 0.863100 0.079874
Si Si2 0.735067 0.500000 0.417902
Si Si3 0.374541 0.500000 0.281653
Si Si4 0.500000 0.804653 0.580976
Si Si5 0.274775 0.747467 0.637419
Si Si6 0.500000 0.913322 0.704949
Si Si7 0.240981 0.636650 0.240905
O O1 0.500000 0.862844 0.110585
O O2 0.306145 0.930509 0.101280
O O3 0.315169 0.789815 0.090941
O O4 0.389885 0.874213 0.000000
O O5 0.711778 0.500000 0.500000
O O6 0.636815 0.500000 0.364185
O O7 0.500000 0.500000 0.262631
O O8 0.312912 0.567795 0.251641
O O9 0.500000 0.819453 0.500000
O O10 0.391411 0.759822 0.601570
O O11 0.500000 0.874597 0.630219
O O12 0.276790 0.691993 0.700425
O O13 0.240577 0.822333 0.670090
O O14 0.388185 0.884869 0.740656
O O15 0.500000 0.000000 0.702209
#
# Coordination Sequence:
#
# PCOD9521528 Si02
#       7
#    16   8   8   8  16   8  16
#     4  10  20  34  54  80 108 143 186 227 270 322
#     4  10  21  37  52  76 112 147 190 237 274 317
#     4  12  24  37  54  78 110 147 184 222 277 349
#     4  10  22  39  60  85 118 154 188 236 289 341
#     4  10  21  36  56  81 112 145 186 227 278 335
#     4  10  20  39  64  88 113 141 195 247 292 338
#     4  10  22  37  56  83 110 144 185 233 281 332
#
# _framework density 17.729576999999999
#
# number of rings (size 3 to 8) (size 9 to 14) (size 15 to 20)
#    0.000    1.800    3.000    0.900    2.800    2.400 
#    1.800    0.000    0.000    0.000    0.000    0.000 
#    0.000    6.400    0.000    0.000    0.000    0.000 
#
# Total GULP energy -222896.679749 kJ/mol
# GULP energy per Si atom -5572.416994 kJ/mol
# Density = 1.768922 g / cm^3
# Si number density = 17.729577 Si / 1000 Ang^3
#
#
#
# Elastic Constant Matrix: (Units=GPa)
#
#
# Indices 1 2 3 4 5 6 
#
# 1 98.3787 43.6022 36.3883 0.0000 0.0000 0.0000
# 2 43.6022 105.9852 26.8042 0.0000 0.0000 0.0000
# 3 36.3883 26.8042 69.8269 0.0000 0.0000 0.0000
# 4 0.0000 0.0000 0.0000 29.3001 0.0000 0.0000
# 5 0.0000 0.0000 0.0000 0.0000 28.7415 0.0000
# 6 0.0000 0.0000 0.0000 0.0000 0.0000 8.7816
#
#
#
# Elastic Compliance Matrix: (Units=1/GPa)
#
#
# Indices 1 2 3 4 5 6 
#
# 1 0.014237 -0.004409 -0.005727 0.000000 0.000000 0.000000
# 2 -0.004409 0.011815 -0.002238 0.000000 0.000000 0.000000
# 3 -0.005727 -0.002238 0.018165 0.000000 0.000000 0.000000
# 4 0.000000 0.000000 0.000000 0.034130 0.000000 0.000000
# 5 0.000000 0.000000 0.000000 0.000000 0.034793 0.000000
# 6 0.000000 0.000000 0.000000 0.000000 0.000000 0.113875
#
#
# Mechanical properties :
#
#
# Convention : Reuss Voigt Hill
#
# Bulk Modulus (GPa) = 51.36206 54.19779 52.77993
# Shear Modulus (GPa) = 19.36102 24.52439 21.94270
#
# Velocity S-wave (km/s) = 3.30815 3.72324 3.52182
# Velocity P-wave (km/s) = 6.60488 7.00848 6.80967
#
# Compressibility (1/GPa) = 0.01946962
#
# Stress axis : x y z
#
# Youngs Moduli (GPa) = 70.23928 84.63817 55.05225
#
# Poissons Ratio (x) = 0.37315 0.31528
# Poissons Ratio (y) = 0.30967 0.12320
# Poissons Ratio (z) = 0.40225 0.18941
#
# Static dielectric constant tensor:
#      x y z
#    x 1.618440 0.000000 0.000000 
#    y 0.000000 1.589920 0.000000 
#    z 0.000000 0.000000 1.658780 
# 
# From -- ./inp_files/51751.got.cif
#   From: 2010.05.17/outbox.cif.g08.bks.cpg/sg71_26_cif.got.tgz:51751.got - 2010.06.03 16:22:01.
