data_PCOD9521637
_publ_section_title
;
Structure prediction by ZEFSAII (Michael W. Deem and Ramdas Pophale) SiO2 
 PCOD9521637
Probable space group: I M M M
;
_chemical_formula_sum "Si O2"
_cell_formula_units_Z 88
_cell_length_a 12.677765
_cell_length_b 17.456813
_cell_length_c 23.341507
_cell_angle_alpha 90.000000
_cell_angle_beta 90.000000
_cell_angle_gamma 90.000000
_cell_volume 5165.787642
_symmetry_space_group_name_H-M "I M M M"
_symmetry_group_IT_number 71
_symmetry_cell_setting 'orthorhombic'
loop_
_space_group_symop_operation_xyz
x,y,z
-x,-y,z
x,-y,-z
-x,y,-z
-x,-y,-z
x,y,-z
-x,y,z
x,-y,z
1/2+x,1/2+y,1/2+z
1/2-x,1/2-y,1/2+z
1/2+x,1/2-y,1/2-z
1/2-x,1/2+y,1/2-z
1/2-x,1/2-y,1/2-z
1/2+x,1/2+y,1/2-z
1/2-x,1/2+y,1/2+z
1/2+x,1/2-y,1/2+z
loop_
_atom_site_type_symbol
_atom_site_label
_atom_site_fract_x
_atom_site_fract_y
_atom_site_fract_z
Si Si1 0.728604 0.202021 0.430743
Si Si2 0.625848 0.000000 0.068804
Si Si3 0.000000 0.695538 0.066063
Si Si4 0.122311 0.092402 0.768510
Si Si5 0.500000 0.381722 0.434448
Si Si6 0.625968 0.588681 0.135878
Si Si7 0.777055 0.872465 0.117971
O O1 0.728449 0.204978 0.500000
O O2 0.613074 0.172927 0.409699
O O3 0.815812 0.145737 0.406381
O O4 0.741027 0.288078 0.407245
O O5 0.683955 0.927224 0.097009
O O6 0.500000 0.000000 0.078496
O O7 0.643692 0.000000 0.000000
O O8 0.000000 0.788546 0.066502
O O9 0.000000 0.670263 0.000000
O O10 0.147573 0.109328 0.702360
O O11 0.202098 0.128198 0.814086
O O12 0.000000 0.116021 0.779699
O O13 0.125914 0.000000 0.774767
O O14 0.500000 0.406596 0.500000
O O15 0.610148 0.404205 0.405744
O O16 0.500000 0.592724 0.128562
O O17 0.657452 0.500000 0.126836
#
# Coordination Sequence:
#
# PCOD9521637 Si02
#       7
#    16   8   8  16   8  16  16
#     4  10  20  34  55  82 110 141 180 226 278 331
#     4  11  24  37  47  69 113 160 190 215 260 322
#     4   7  14  30  48  72 110 139 159 208 273 321
#     4   9  17  33  56  84 110 138 178 228 279 318
#     4   9  16  27  48  82 108 128 172 227 271 312
#     4   9  20  38  59  80 107 139 179 230 279 329
#     4  11  19  33  56  78 107 146 181 226 271 322
#
# _framework density 17.035156000000001
#
# number of rings (size 3 to 8) (size 9 to 14) (size 15 to 20)
#    0.000    2.455    1.818    3.818    0.000    2.545 
#    0.000    2.273    2.000    1.636    0.000    0.000 
#    0.000    0.000    0.000    0.000    0.000    0.000 
#
# Total GULP energy -245221.725884 kJ/mol
# GULP energy per Si atom -5573.221043 kJ/mol
# Density = 1.699638 g / cm^3
# Si number density = 17.035156 Si / 1000 Ang^3
#
#
#
# Elastic Constant Matrix: (Units=GPa)
#
#
# Indices 1 2 3 4 5 6 
#
# 1 79.4537 46.2976 35.8977 0.0000 0.0000 0.0000
# 2 46.2976 70.8658 51.3311 0.0000 0.0000 0.0000
# 3 35.8977 51.3311 67.3947 0.0000 0.0000 0.0000
# 4 0.0000 0.0000 0.0000 23.0588 0.0000 0.0000
# 5 0.0000 0.0000 0.0000 0.0000 29.6808 0.0000
# 6 0.0000 0.0000 0.0000 0.0000 0.0000 29.4821
#
#
#
# Elastic Compliance Matrix: (Units=1/GPa)
#
#
# Indices 1 2 3 4 5 6 
#
# 1 0.020399 -0.012172 -0.001595 0.000000 0.000000 0.000000
# 2 -0.012172 0.038739 -0.023023 0.000000 0.000000 0.000000
# 3 -0.001595 -0.023023 0.033223 0.000000 0.000000 0.000000
# 4 0.000000 0.000000 0.000000 0.043367 0.000000 0.000000
# 5 0.000000 0.000000 0.000000 0.000000 0.033692 0.000000
# 6 0.000000 0.000000 0.000000 0.000000 0.000000 0.033919
#
#
# Mechanical properties :
#
#
# Convention : Reuss Voigt Hill
#
# Bulk Modulus (GPa) = 53.24079 53.86300 53.55189
# Shear Modulus (GPa) = 17.65671 22.05686 19.85679
#
# Velocity S-wave (km/s) = 3.22294 3.60222 3.41784
# Velocity P-wave (km/s) = 6.72095 6.99919 6.86148
#
# Compressibility (1/GPa) = 0.01878259
#
# Stress axis : x y z
#
# Youngs Moduli (GPa) = 49.02205 25.81351 30.09993
#
# Poissons Ratio (x) = 0.31419 0.04801
# Poissons Ratio (y) = 0.59668 0.69298
# Poissons Ratio (z) = 0.07819 0.59429
#
# Static dielectric constant tensor:
#      x y z
#    x 1.584480 0.000000 0.000000 
#    y 0.000000 1.558420 0.000000 
#    z 0.000000 0.000000 1.587190 
# 
# From -- ./inp_files/51817.got.cif
#   From: 2010.05.17/outbox.cif.g08.bks.cpg/sg71_26_cif.got.tgz:51817.got - 2010.06.03 16:22:01.
