data_PCOD9521979
_publ_section_title
;
Structure prediction by ZEFSAII (Michael W. Deem and Ramdas Pophale) SiO2 
 PCOD9521979
Probable space group: I M M M
;
_chemical_formula_sum "Si O2"
_cell_formula_units_Z 72
_cell_length_a 29.613915
_cell_length_b 14.104567
_cell_length_c 9.342549
_cell_angle_alpha 90.000000
_cell_angle_beta 90.000000
_cell_angle_gamma 90.000000
_cell_volume 3902.302822
_symmetry_space_group_name_H-M "I M M M"
_symmetry_group_IT_number 71
_symmetry_cell_setting 'orthorhombic'
loop_
_space_group_symop_operation_xyz
x,y,z
-x,-y,z
x,-y,-z
-x,y,-z
-x,-y,-z
x,y,-z
-x,y,z
x,-y,z
1/2+x,1/2+y,1/2+z
1/2-x,1/2-y,1/2+z
1/2+x,1/2-y,1/2-z
1/2-x,1/2+y,1/2-z
1/2-x,1/2-y,1/2-z
1/2+x,1/2+y,1/2-z
1/2-x,1/2+y,1/2+z
1/2+x,1/2-y,1/2+z
loop_
_atom_site_type_symbol
_atom_site_label
_atom_site_fract_x
_atom_site_fract_y
_atom_site_fract_z
Si Si1 0.630742 0.892531 0.326025
Si Si2 0.769004 0.615809 0.835555
Si Si3 0.319178 0.614127 0.666155
Si Si4 0.500000 0.613286 0.829703
Si Si5 0.914711 0.795776 0.826969
O O1 0.633530 0.894866 0.500000
O O2 0.680979 0.860191 0.278732
O O3 0.593511 0.814662 0.290462
O O4 0.621985 0.000000 0.277283
O O5 0.768792 0.500000 0.835361
O O6 0.725271 0.647472 0.748945
O O7 0.765118 0.646578 0.000000
O O8 0.314177 0.640117 0.500000
O O9 0.320828 0.500000 0.676823
O O10 0.367471 0.653821 0.713215
O O11 0.500000 0.500000 0.807216
O O12 0.456126 0.658199 0.755076
O O13 0.500000 0.630973 0.000000
O O14 0.920561 0.804978 0.000000
#
# Coordination Sequence:
#
# PCOD9521979 Si02
#       5
#    16  16  16   8  16
#     4   8  15  30  52  78 107 138 175 216 251 290
#     4   8  14  26  45  69 101 141 176 205 244 294
#     4   9  17  28  43  69 104 136 170 214 257 298
#     4  11  25  43  60  79 104 130 159 205 264 319
#     4  10  20  35  57  80 101 133 176 216 257 306
#
# _framework density 18.450644
#
# number of rings (size 3 to 8) (size 9 to 14) (size 15 to 20)
#    0.000    3.000    0.000    2.333    0.000    3.556 
#    0.000    3.889    0.000    5.333    0.000    0.000 
#    0.000    0.000    0.000    0.000    0.000    0.000 
#
# Total GULP energy -200767.267881 kJ/mol
# GULP energy per Si atom -5576.868552 kJ/mol
# Density = 1.840865 g / cm^3
# Si number density = 18.450644 Si / 1000 Ang^3
#
#
#
# Elastic Constant Matrix: (Units=GPa)
#
#
# Indices 1 2 3 4 5 6 
#
# 1 150.3630 85.2586 62.9755 0.0000 0.0000 0.0000
# 2 85.2586 96.1197 42.2759 0.0000 0.0000 0.0000
# 3 62.9755 42.2759 42.7711 0.0000 0.0000 0.0000
# 4 0.0000 0.0000 0.0000 11.9915 0.0000 0.0000
# 5 0.0000 0.0000 0.0000 0.0000 -0.6429 0.0000
# 6 0.0000 0.0000 0.0000 0.0000 0.0000 36.3376
#
#
#
# Elastic Compliance Matrix: (Units=1/GPa)
#
#
# Indices 1 2 3 4 5 6 
#
# 1 0.020880 -0.008844 -0.022003 0.000000 0.000000 0.000000
# 2 -0.008844 0.022151 -0.008873 0.000000 0.000000 0.000000
# 3 -0.022003 -0.008873 0.064547 0.000000 0.000000 0.000000
# 4 0.000000 0.000000 0.000000 0.083392 0.000000 0.000000
# 5 0.000000 0.000000 0.000000 0.000000 -1.555530 0.000000
# 6 0.000000 0.000000 0.000000 0.000000 0.000000 0.027520
#
#
# Mechanical properties :
#
#
# Convention : Reuss Voigt Hill
#
# Bulk Modulus (GPa) = 35.53739 74.47487 55.00613
# Shear Modulus (GPa) = -4.00570 16.12017 6.05724
#
# Velocity S-wave (km/s) = -1.47504 2.95903 1.81385
# Velocity P-wave (km/s) = 4.04989 7.21987 5.85355
#
# Compressibility (1/GPa) = 0.02813938
#
# Stress axis : x y z
#
# Youngs Moduli (GPa) = 47.89218 45.14565 15.49264
#
# Poissons Ratio (x) = 0.39925 0.34088
# Poissons Ratio (y) = 0.42354 0.13747
# Poissons Ratio (z) = 1.05375 0.40057
#
# Static dielectric constant tensor:
#      x y z
#    x 1.614350 0.000000 0.000000 
#    y 0.000000 1.694620 0.000000 
#    z 0.000000 0.000000 1.616600 
# 
# From -- ./inp_files/14317.got.cif
#   From: 2010.05.17/outbox.cif.g08.bks.cpg/sg71_8_cif.got.tgz:14317.got - 2010.06.03 16:22:01.
