data_PCOD9521675
_publ_section_title
;
Structure prediction by ZEFSAII (Michael W. Deem and Ramdas Pophale) SiO2 
 PCOD9521675
Probable space group: I M M M
;
_chemical_formula_sum "Si O2"
_cell_formula_units_Z 80
_cell_length_a 19.201751
_cell_length_b 7.499482
_cell_length_c 27.358578
_cell_angle_alpha 90.000000
_cell_angle_beta 90.000000
_cell_angle_gamma 90.000000
_cell_volume 3939.722396
_symmetry_space_group_name_H-M "I M M M"
_symmetry_group_IT_number 71
_symmetry_cell_setting 'orthorhombic'
loop_
_space_group_symop_operation_xyz
x,y,z
-x,-y,z
x,-y,-z
-x,y,-z
-x,-y,-z
x,y,-z
-x,y,z
x,-y,z
1/2+x,1/2+y,1/2+z
1/2-x,1/2-y,1/2+z
1/2+x,1/2-y,1/2-z
1/2-x,1/2+y,1/2-z
1/2-x,1/2-y,1/2-z
1/2+x,1/2+y,1/2-z
1/2-x,1/2+y,1/2+z
1/2+x,1/2-y,1/2+z
loop_
_atom_site_type_symbol
_atom_site_label
_atom_site_fract_x
_atom_site_fract_y
_atom_site_fract_z
Si Si1 0.417705 0.500000 0.558344
Si Si2 0.175240 0.716524 0.112080
Si Si3 0.166011 0.217308 0.595181
Si Si4 0.921987 0.790050 0.312918
Si Si5 0.175748 0.710844 0.225064
Si Si6 0.580335 0.282189 0.000000
O O1 0.500000 0.500000 0.568813
O O2 0.407928 0.500000 0.500000
O O3 0.380928 0.673331 0.581715
O O4 0.167000 0.500000 0.108527
O O5 0.252986 0.765423 0.094032
O O6 0.171820 0.772429 0.169184
O O7 0.128444 0.281875 0.644662
O O8 0.121756 0.274347 0.548319
O O9 0.165716 0.000000 0.595913
O O10 0.884765 0.775338 0.260831
O O11 0.000000 0.714534 0.313571
O O12 0.928082 0.000000 0.323447
O O13 0.169602 0.500000 0.222661
O O14 0.250000 0.750000 0.250000
O O15 0.579653 0.500000 0.000000
O O16 0.500000 0.224467 0.000000
#
# Coordination Sequence:
#
# PCOD9521675 Si02
#       6
#     8  16  16  16  16   8
#     4  11  28  50  72 100 128 164 220 279 347 418
#     4  10  23  42  68  98 130 168 213 271 327 392
#     4   9  17  32  54  85 121 161 210 254 305 371
#     4  10  20  34  55  84 122 165 206 252 308 370
#     4  11  22  37  60  89 124 166 214 264 319 383
#     4   9  16  26  48  83 121 158 201 257 308 364
#
# _framework density 20.306000999999998
#
# number of rings (size 3 to 8) (size 9 to 14) (size 15 to 20)
#    0.000    2.000    2.000    1.200    4.200    4.400 
#    0.000    3.000    0.000    0.000    0.000    0.700 
#    0.000    0.000    0.000    0.000    0.000    0.000 
#
# Total GULP energy -223436.419411 kJ/mol
# GULP energy per Si atom -5585.910485 kJ/mol
# Density = 2.025978 g / cm^3
# Si number density = 20.306001 Si / 1000 Ang^3
#
#
#
# Elastic Constant Matrix: (Units=GPa)
#
#
# Indices 1 2 3 4 5 6 
#
# 1 194.8938 39.7600 105.3388 0.0000 0.0000 0.0000
# 2 39.7600 71.3507 27.9159 0.0000 0.0000 0.0000
# 3 105.3388 27.9159 149.8496 0.0000 0.0000 0.0000
# 4 0.0000 0.0000 0.0000 15.9367 0.0000 0.0000
# 5 0.0000 0.0000 0.0000 0.0000 20.7103 0.0000
# 6 0.0000 0.0000 0.0000 0.0000 0.0000 19.4494
#
#
#
# Elastic Compliance Matrix: (Units=1/GPa)
#
#
# Indices 1 2 3 4 5 6 
#
# 1 0.008717 -0.002654 -0.005634 0.000000 0.000000 0.000000
# 2 -0.002654 0.015925 -0.001101 0.000000 0.000000 0.000000
# 3 -0.005634 -0.001101 0.010839 0.000000 0.000000 0.000000
# 4 0.000000 0.000000 0.000000 0.062748 0.000000 0.000000
# 5 0.000000 0.000000 0.000000 0.000000 0.048285 0.000000
# 6 0.000000 0.000000 0.000000 0.000000 0.000000 0.051415
#
#
# Mechanical properties :
#
#
# Convention : Reuss Voigt Hill
#
# Bulk Modulus (GPa) = 59.86616 84.68038 72.27327
# Shear Modulus (GPa) = 22.49470 27.42458 24.95964
#
# Velocity S-wave (km/s) = 3.33195 3.67899 3.50976
# Velocity P-wave (km/s) = 6.65947 7.73559 7.21761
#
# Compressibility (1/GPa) = 0.01670393
#
# Stress axis : x y z
#
# Youngs Moduli (GPa) = 114.71507 62.79489 92.26175
#
# Poissons Ratio (x) = 0.16663 0.51976
# Poissons Ratio (y) = 0.30440 0.10161
# Poissons Ratio (z) = 0.64626 0.06916
#
# Static dielectric constant tensor:
#      x y z
#    x 1.683330 0.000000 0.000000 
#    y 0.000000 1.749400 0.000000 
#    z 0.000000 0.000000 1.705060 
# 
# From -- ./inp_files/65819.got.cif
#   From: 2010.05.17/outbox.cif.g08.bks.cpg/sg71_33_cif.got.tgz:65819.got - 2010.06.03 16:22:01.
