data_PCOD9521544
_publ_section_title
;
Structure prediction by ZEFSAII (Michael W. Deem and Ramdas Pophale) SiO2 
 PCOD9521544
Probable space group: I M M M
;
_chemical_formula_sum "Si O2"
_cell_formula_units_Z 72
_cell_length_a 27.722672
_cell_length_b 16.375576
_cell_length_c 8.597740
_cell_angle_alpha 90.000000
_cell_angle_beta 90.000000
_cell_angle_gamma 90.000000
_cell_volume 3903.156629
_symmetry_space_group_name_H-M "I M M M"
_symmetry_group_IT_number 71
_symmetry_cell_setting 'orthorhombic'
loop_
_space_group_symop_operation_xyz
x,y,z
-x,-y,z
x,-y,-z
-x,y,-z
-x,-y,-z
x,y,-z
-x,y,z
x,-y,z
1/2+x,1/2+y,1/2+z
1/2-x,1/2-y,1/2+z
1/2+x,1/2-y,1/2-z
1/2-x,1/2+y,1/2-z
1/2-x,1/2-y,1/2-z
1/2+x,1/2+y,1/2-z
1/2-x,1/2+y,1/2+z
1/2+x,1/2-y,1/2+z
loop_
_atom_site_type_symbol
_atom_site_label
_atom_site_fract_x
_atom_site_fract_y
_atom_site_fract_z
Si Si1 0.353989 0.907618 0.184045
Si Si2 0.943986 0.671374 0.185709
Si Si3 0.803702 0.749859 0.816490
Si Si4 0.104471 0.834602 0.314017
Si Si5 0.443009 0.500000 0.312751
O O1 0.409587 0.892505 0.228370
O O2 0.325409 0.839209 0.278262
O O3 0.339537 0.000000 0.220071
O O4 0.347351 0.893064 0.000000
O O5 0.927110 0.760735 0.242605
O O6 0.000000 0.659091 0.219118
O O7 0.936477 0.666163 0.000000
O O8 0.750000 0.750000 0.750000
O O9 0.840739 0.814105 0.738290
O O10 0.803298 0.764420 0.000000
O O11 0.101671 0.832036 0.500000
O O12 0.083563 0.919630 0.251774
O O13 0.500000 0.500000 0.268844
O O14 0.440541 0.500000 0.500000
#
# Coordination Sequence:
#
# PCOD9521544 Si02
#       5
#    16  16  16  16   8
#     4  10  21  37  57  83 114 146 185 231 280 333
#     4  10  20  34  54  80 112 152 193 231 278 335
#     4  11  22  40  64  86 113 148 189 235 289 346
#     4  11  22  37  58  85 116 150 194 241 289 346
#     4  11  23  39  59  85 121 161 199 243 296 351
#
# _framework density 18.446608000000001
#
# number of rings (size 3 to 8) (size 9 to 14) (size 15 to 20)
#    0.000    1.444    0.000    9.000    0.000    7.556 
#    2.000    2.222    0.000    0.000    0.000    0.000 
#    0.000    0.000    0.000    0.000    0.000    0.000 
#
# Total GULP energy -201159.430718 kJ/mol
# GULP energy per Si atom -5587.761964 kJ/mol
# Density = 1.840462 g / cm^3
# Si number density = 18.446608 Si / 1000 Ang^3
#
#
#
# Elastic Constant Matrix: (Units=GPa)
#
#
# Indices 1 2 3 4 5 6 
#
# 1 108.0311 20.1872 14.5015 0.0000 0.0000 0.0000
# 2 20.1872 71.8953 4.3065 0.0000 0.0000 0.0000
# 3 14.5015 4.3065 57.2651 0.0000 0.0000 0.0000
# 4 0.0000 0.0000 0.0000 27.0937 0.0000 0.0000
# 5 0.0000 0.0000 0.0000 0.0000 34.1110 0.0000
# 6 0.0000 0.0000 0.0000 0.0000 0.0000 11.4360
#
#
#
# Elastic Compliance Matrix: (Units=1/GPa)
#
#
# Indices 1 2 3 4 5 6 
#
# 1 0.010074 -0.002688 -0.002349 0.000000 0.000000 0.000000
# 2 -0.002688 0.014689 -0.000424 0.000000 0.000000 0.000000
# 3 -0.002349 -0.000424 0.018089 0.000000 0.000000 0.000000
# 4 0.000000 0.000000 0.000000 0.036909 0.000000 0.000000
# 5 0.000000 0.000000 0.000000 0.000000 0.029316 0.000000
# 6 0.000000 0.000000 0.000000 0.000000 0.000000 0.087443
#
#
# Mechanical properties :
#
#
# Convention : Reuss Voigt Hill
#
# Bulk Modulus (GPa) = 31.31764 35.02022 33.16893
# Shear Modulus (GPa) = 22.92667 27.74122 25.33395
#
# Velocity S-wave (km/s) = 3.52926 3.88218 3.70992
# Velocity P-wave (km/s) = 5.79843 6.25467 6.03087
#
# Compressibility (1/GPa) = 0.03193089
#
# Stress axis : x y z
#
# Youngs Moduli (GPa) = 99.26342 68.07692 55.28107
#
# Poissons Ratio (x) = 0.18299 0.12985
# Poissons Ratio (y) = 0.26682 0.02344
# Poissons Ratio (z) = 0.23317 0.02886
#
# Static dielectric constant tensor:
#      x y z
#    x 1.636190 0.000000 0.000000 
#    y 0.000000 1.615720 0.000000 
#    z 0.000000 0.000000 1.618120 
# 
# From -- ./inp_files/6494.got.cif
#   From: 2010.05.17/outbox.cif.g08.bks.cpg/sg71_4_cif.got.tgz:6494.got - 2010.06.03 16:22:01.
