data_PCOD9521093
_publ_section_title
;
Structure prediction by ZEFSAII (Michael W. Deem and Ramdas Pophale) SiO2 
 PCOD9521093
Probable space group: I M M M
;
_chemical_formula_sum "Si O2"
_cell_formula_units_Z 104
_cell_length_a 20.229770
_cell_length_b 8.061201
_cell_length_c 31.370117
_cell_angle_alpha 90.000000
_cell_angle_beta 90.000000
_cell_angle_gamma 90.000000
_cell_volume 5115.720796
_symmetry_space_group_name_H-M "I M M M"
_symmetry_group_IT_number 71
_symmetry_cell_setting 'orthorhombic'
loop_
_space_group_symop_operation_xyz
x,y,z
-x,-y,z
x,-y,-z
-x,y,-z
-x,-y,-z
x,y,-z
-x,y,z
x,-y,z
1/2+x,1/2+y,1/2+z
1/2-x,1/2-y,1/2+z
1/2+x,1/2-y,1/2-z
1/2-x,1/2+y,1/2-z
1/2-x,1/2-y,1/2-z
1/2+x,1/2+y,1/2-z
1/2-x,1/2+y,1/2+z
1/2+x,1/2-y,1/2+z
loop_
_atom_site_type_symbol
_atom_site_label
_atom_site_fract_x
_atom_site_fract_y
_atom_site_fract_z
Si Si1 0.426876 0.698487 0.242996
Si Si2 0.301811 0.688784 0.099627
Si Si3 0.799227 0.311274 0.692439
Si Si4 0.162641 0.200405 0.919499
Si Si5 0.926886 0.301988 0.449338
Si Si6 0.345799 0.296800 0.321497
Si Si7 0.923872 0.203131 0.000000
O O1 0.500000 0.763320 0.230974
O O2 0.431817 0.500000 0.244794
O O3 0.364677 0.733773 0.212500
O O4 0.403841 0.756245 0.289956
O O5 0.293731 0.500000 0.114357
O O6 0.305656 0.802600 0.141291
O O7 0.237513 0.740674 0.072943
O O8 0.368104 0.708961 0.073284
O O9 0.797485 0.500000 0.707414
O O10 0.724941 0.239541 0.698224
O O11 0.146715 0.255003 0.870799
O O12 0.161698 0.000000 0.919444
O O13 0.114229 0.256818 0.957079
O O14 0.924170 0.275406 0.500000
O O15 0.919739 0.500000 0.442244
O O16 0.000000 0.252181 0.434184
O O17 0.343314 0.500000 0.321801
O O18 0.000000 0.255950 0.000000
O O19 0.923229 0.000000 0.000000
#
# Coordination Sequence:
#
# PCOD9521093 Si02
#       7
#    16  16  16  16  16  16   8
#     4  10  20  33  51  78 109 139 173 219 276 329
#     4  11  22  35  54  80 109 141 180 225 271 320
#     4  10  20  36  56  76 102 138 180 223 266 318
#     4   9  18  34  55  81 111 145 186 228 271 322
#     4   9  19  36  56  77 103 138 178 218 266 323
#     4   8  16  32  53  76 103 138 180 221 265 316
#     4   9  18  32  55  87 116 145 184 229 271 312
#
# _framework density 20.329491000000001
#
# number of rings (size 3 to 8) (size 9 to 14) (size 15 to 20)
#    0.000    2.538    0.000    3.692    1.077    2.154 
#    0.000    6.923    0.000    0.923    0.000    0.000 
#    0.000    0.000    0.000    0.000    0.000    0.000 
#
# Total GULP energy -289993.389286 kJ/mol
# GULP energy per Si atom -5576.795948 kJ/mol
# Density = 2.028322 g / cm^3
# Si number density = 20.329491 Si / 1000 Ang^3
#
#
#
# Elastic Constant Matrix: (Units=GPa)
#
#
# Indices 1 2 3 4 5 6 
#
# 1 152.2861 13.1285 70.5871 0.0000 0.0000 0.0000
# 2 13.1285 19.3373 8.5960 0.0000 0.0000 0.0000
# 3 70.5871 8.5960 67.5011 0.0000 0.0000 0.0000
# 4 0.0000 0.0000 0.0000 6.3635 0.0000 0.0000
# 5 0.0000 0.0000 0.0000 0.0000 20.6063 0.0000
# 6 0.0000 0.0000 0.0000 0.0000 0.0000 11.1192
#
#
#
# Elastic Compliance Matrix: (Units=1/GPa)
#
#
# Indices 1 2 3 4 5 6 
#
# 1 0.012898 -0.002927 -0.013115 0.000000 0.000000 0.000000
# 2 -0.002927 0.055481 -0.004005 0.000000 0.000000 0.000000
# 3 -0.013115 -0.004005 0.029039 0.000000 0.000000 0.000000
# 4 0.000000 0.000000 0.000000 0.157145 0.000000 0.000000
# 5 0.000000 0.000000 0.000000 0.000000 0.048529 0.000000
# 6 0.000000 0.000000 0.000000 0.000000 0.000000 0.089934
#
#
# Mechanical properties :
#
#
# Convention : Reuss Voigt Hill
#
# Bulk Modulus (GPa) = 17.44439 47.08308 32.26373
# Shear Modulus (GPa) = 11.05640 17.40534 14.23087
#
# Velocity S-wave (km/s) = 2.33461 2.92920 2.64864
# Velocity P-wave (km/s) = 3.98330 5.88647 5.02579
#
# Compressibility (1/GPa) = 0.05732503
#
# Stress axis : x y z
#
# Youngs Moduli (GPa) = 77.53272 18.02425 34.43660
#
# Poissons Ratio (x) = 0.05275 0.45163
# Poissons Ratio (y) = 0.22691 0.13791
# Poissons Ratio (z) = 1.01682 0.07218
#
# Static dielectric constant tensor:
#      x y z
#    x 1.733480 0.000000 0.000000 
#    y 0.000000 1.730850 0.000000 
#    z 0.000000 0.000000 1.718130 
# 
# From -- ./inp_files/70741.got.cif
#   From: 2010.05.17/outbox.cif.g08.bks.cpg/sg71_36_cif.got.tgz:70741.got - 2010.06.03 16:22:01.
