data_PCOD9521288
_publ_section_title
;
Structure prediction by ZEFSAII (Michael W. Deem and Ramdas Pophale) SiO2 
 PCOD9521288
Probable space group: I M M M
;
_chemical_formula_sum "Si O2"
_cell_formula_units_Z 80
_cell_length_a 8.732309
_cell_length_b 23.070415
_cell_length_c 22.773341
_cell_angle_alpha 90.000000
_cell_angle_beta 90.000000
_cell_angle_gamma 90.000000
_cell_volume 4587.871561
_symmetry_space_group_name_H-M "I M M M"
_symmetry_group_IT_number 71
_symmetry_cell_setting 'orthorhombic'
loop_
_space_group_symop_operation_xyz
x,y,z
-x,-y,z
x,-y,-z
-x,y,-z
-x,-y,-z
x,y,-z
-x,y,z
x,-y,z
1/2+x,1/2+y,1/2+z
1/2-x,1/2-y,1/2+z
1/2+x,1/2-y,1/2-z
1/2-x,1/2+y,1/2-z
1/2-x,1/2-y,1/2-z
1/2+x,1/2+y,1/2-z
1/2-x,1/2+y,1/2+z
1/2+x,1/2-y,1/2+z
loop_
_atom_site_type_symbol
_atom_site_label
_atom_site_fract_x
_atom_site_fract_y
_atom_site_fract_z
Si Si1 0.683173 0.067338 0.875328
Si Si2 0.323727 0.570311 0.500000
Si Si3 0.682724 0.666132 0.704298
Si Si4 0.815223 0.212949 0.668158
Si Si5 0.324076 0.500000 0.071420
Si Si6 0.812459 0.126149 0.567394
O O1 0.500000 0.068732 0.875956
O O2 0.743389 0.087678 0.939267
O O3 0.745364 0.109679 0.825292
O O4 0.731775 0.000000 0.866839
O O5 0.319648 0.500000 0.500000
O O6 0.500000 0.589056 0.500000
O O7 0.500000 0.662078 0.700504
O O8 0.740613 0.724014 0.671638
O O9 0.724472 0.677644 0.772447
O O10 0.766767 0.176137 0.611812
O O11 0.000000 0.219650 0.667403
O O12 0.500000 0.500000 0.092827
O O13 0.256184 0.562315 0.087437
O O14 0.329469 0.500000 0.000000
O O15 0.766187 0.136207 0.500000
O O16 0.000000 0.123522 0.567644
#
# Coordination Sequence:
#
# PCOD9521288 Si02
#       6
#    16   8  16  16   8  16
#     4  10  20  35  55  78 104 135 172 212 255 307
#     4   9  17  31  53  79 107 135 161 200 255 308
#     4  10  20  34  51  71  99 138 174 211 260 307
#     4   9  18  33  51  72  98 134 175 213 257 311
#     4   7  10  18  36  64  97 125 145 180 243 302
#     4   8  13  24  44  71 100 126 157 203 255 302
#
# _framework density 17.437280000000001
#
# number of rings (size 3 to 8) (size 9 to 14) (size 15 to 20)
#    0.000    3.000    0.000    2.700    0.000    3.200 
#    3.600    0.000    0.000    0.000    0.000    0.000 
#    0.000    2.400    0.000    0.000    0.000    0.000 
#
# Total GULP energy -222806.925068 kJ/mol
# GULP energy per Si atom -5570.173127 kJ/mol
# Density = 1.739759 g / cm^3
# Si number density = 17.437280 Si / 1000 Ang^3
#
#
#
# Elastic Constant Matrix: (Units=GPa)
#
#
# Indices 1 2 3 4 5 6 
#
# 1 28.5956 30.0269 23.7620 0.0000 0.0000 0.0000
# 2 30.0269 105.9070 73.6103 0.0000 0.0000 0.0000
# 3 23.7620 73.6103 83.0790 0.0000 0.0000 0.0000
# 4 0.0000 0.0000 0.0000 28.1747 0.0000 0.0000
# 5 0.0000 0.0000 0.0000 0.0000 20.8298 0.0000
# 6 0.0000 0.0000 0.0000 0.0000 0.0000 22.1364
#
#
#
# Elastic Compliance Matrix: (Units=1/GPa)
#
#
# Indices 1 2 3 4 5 6 
#
# 1 0.050453 -0.011127 -0.004572 0.000000 0.000000 0.000000
# 2 -0.011127 0.027032 -0.020769 0.000000 0.000000 0.000000
# 3 -0.004572 -0.020769 0.031746 0.000000 0.000000 0.000000
# 4 0.000000 0.000000 0.000000 0.035493 0.000000 0.000000
# 5 0.000000 0.000000 0.000000 0.000000 0.048008 0.000000
# 6 0.000000 0.000000 0.000000 0.000000 0.000000 0.045175
#
#
# Mechanical properties :
#
#
# Convention : Reuss Voigt Hill
#
# Bulk Modulus (GPa) = 27.55075 52.48667 40.01871
# Shear Modulus (GPa) = 15.48268 20.24033 17.86151
#
# Velocity S-wave (km/s) = 2.98301 3.41067 3.20399
# Velocity P-wave (km/s) = 5.26295 6.75839 6.05700
#
# Compressibility (1/GPa) = 0.03629666
#
# Stress axis : x y z
#
# Youngs Moduli (GPa) = 19.82027 36.99270 31.50001
#
# Poissons Ratio (x) = 0.41163 0.14400
# Poissons Ratio (y) = 0.22054 0.65422
# Poissons Ratio (z) = 0.09061 0.76830
#
# Static dielectric constant tensor:
#      x y z
#    x 1.589670 0.000000 0.000000 
#    y 0.000000 1.595200 0.000000 
#    z 0.000000 0.000000 1.586590 
# 
# From -- ./inp_files/50413.got.cif
#   From: 2010.05.17/outbox.cif.g08.bks.cpg/sg71_26_cif.got.tgz:50413.got - 2010.06.03 16:22:01.
