data_PCOD9521031
_publ_section_title
;
Structure prediction by ZEFSAII (Michael W. Deem and Ramdas Pophale) SiO2 
 PCOD9521031
Probable space group: I M M M
;
_chemical_formula_sum "Si O2"
_cell_formula_units_Z 80
_cell_length_a 26.514309
_cell_length_b 7.474807
_cell_length_c 18.822249
_cell_angle_alpha 90.000000
_cell_angle_beta 90.000000
_cell_angle_gamma 90.000000
_cell_volume 3730.369154
_symmetry_space_group_name_H-M "I M M M"
_symmetry_group_IT_number 71
_symmetry_cell_setting 'orthorhombic'
loop_
_space_group_symop_operation_xyz
x,y,z
-x,-y,z
x,-y,-z
-x,y,-z
-x,-y,-z
x,y,-z
-x,y,z
x,-y,z
1/2+x,1/2+y,1/2+z
1/2-x,1/2-y,1/2+z
1/2+x,1/2-y,1/2-z
1/2-x,1/2+y,1/2-z
1/2-x,1/2-y,1/2-z
1/2+x,1/2+y,1/2-z
1/2-x,1/2+y,1/2+z
1/2+x,1/2-y,1/2+z
loop_
_atom_site_type_symbol
_atom_site_label
_atom_site_fract_x
_atom_site_fract_y
_atom_site_fract_z
Si Si1 0.596367 0.719088 0.918353
Si Si2 0.193552 0.288577 0.181654
Si Si3 0.500000 0.281129 0.663379
Si Si4 0.195480 0.205464 0.658140
Si Si5 0.000000 0.218456 0.326996
Si Si6 0.899972 0.215534 0.919059
O O1 0.596774 0.500000 0.916297
O O2 0.649809 0.783409 0.887207
O O3 0.549980 0.775835 0.868975
O O4 0.589283 0.771574 0.000000
O O5 0.199838 0.500000 0.194446
O O6 0.180692 0.208294 0.258566
O O7 0.248020 0.216595 0.155974
O O8 0.149794 0.261318 0.125148
O O9 0.500000 0.500000 0.663369
O O10 0.500000 0.223838 0.745247
O O11 0.449812 0.222272 0.622315
O O12 0.200407 0.000000 0.634102
O O13 0.000000 0.000000 0.326809
O O14 0.902865 0.000000 0.921620
O O15 0.898241 0.281109 0.000000
#
# Coordination Sequence:
#
# PCOD9521031 Si02
#       6
#    16  16   8  16   8  16
#     4   9  16  26  43  70 101 128 156 195 244 294
#     4  10  20  33  51  74 100 132 170 212 255 299
#     4   9  17  31  52  75  98 129 170 210 250 301
#     4   9  18  33  52  72  98 135 174 208 244 294
#     4   9  15  23  41  70 100 125 152 198 252 291
#     4  10  20  34  53  76 102 132 167 209 256 307
#
# _framework density 21.445599000000001
#
# number of rings (size 3 to 8) (size 9 to 14) (size 15 to 20)
#    0.000    2.600    0.000    2.400    0.000    7.600 
#    0.000    2.500    0.000    1.800    0.000    0.000 
#    0.000    3.200    0.000    0.000    0.000    0.000 
#
# Total GULP energy -223418.903287 kJ/mol
# GULP energy per Si atom -5585.472582 kJ/mol
# Density = 2.139679 g / cm^3
# Si number density = 21.445599 Si / 1000 Ang^3
#
#
#
# Elastic Constant Matrix: (Units=GPa)
#
#
# Indices 1 2 3 4 5 6 
#
# 1 163.8894 -2.2545 115.9632 0.0000 0.0000 0.0000
# 2 -2.2545 63.4716 -9.8056 0.0000 0.0000 0.0000
# 3 115.9632 -9.8056 157.2271 0.0000 0.0000 0.0000
# 4 0.0000 0.0000 0.0000 5.9105 0.0000 0.0000
# 5 0.0000 0.0000 0.0000 0.0000 -24.0011 0.0000
# 6 0.0000 0.0000 0.0000 0.0000 0.0000 2.2894
#
#
#
# Elastic Compliance Matrix: (Units=1/GPa)
#
#
# Indices 1 2 3 4 5 6 
#
# 1 0.012826 -0.001016 -0.009523 0.000000 0.000000 0.000000
# 2 -0.001016 0.015989 0.001746 0.000000 0.000000 0.000000
# 3 -0.009523 0.001746 0.013493 0.000000 0.000000 0.000000
# 4 0.000000 0.000000 0.000000 0.169190 0.000000 0.000000
# 5 0.000000 0.000000 0.000000 0.000000 -0.041665 0.000000
# 6 0.000000 0.000000 0.000000 0.000000 0.000000 0.436787
#
#
# Mechanical properties :
#
#
# Convention : Reuss Voigt Hill
#
# Bulk Modulus (GPa) = 40.44882 65.82159 53.13520
# Shear Modulus (GPa) = 7.90582 15.55209 11.72896
#
# Velocity S-wave (km/s) = 1.92210 2.69585 2.34116
# Velocity P-wave (km/s) = 4.88139 6.35996 5.66909
#
# Compressibility (1/GPa) = 0.02472260
#
# Stress axis : x y z
#
# Youngs Moduli (GPa) = 77.96625 62.54382 74.11241
#
# Poissons Ratio (x) = 0.06352 0.70579
# Poissons Ratio (y) = 0.07919 -0.12942
# Poissons Ratio (z) = 0.74249 -0.10922
#
# Static dielectric constant tensor:
#      x y z
#    x 1.753230 0.000000 0.000000 
#    y 0.000000 1.856320 0.000000 
#    z 0.000000 0.000000 1.717640 
# 
# From -- ./inp_files/48623.got.cif
#   From: 2010.05.17/outbox.cif.g08.bks.cpg/sg71_25_cif.got.tgz:48623.got - 2010.06.03 16:22:01.
