data_PCOD9521974
_publ_section_title
;
Structure prediction by ZEFSAII (Michael W. Deem and Ramdas Pophale) SiO2 
 PCOD9521974
Probable space group: I M M M
;
_chemical_formula_sum "Si O2"
_cell_formula_units_Z 96
_cell_length_a 19.935897
_cell_length_b 22.629814
_cell_length_c 11.534036
_cell_angle_alpha 90.000000
_cell_angle_beta 90.000000
_cell_angle_gamma 90.000000
_cell_volume 5203.530065
_symmetry_space_group_name_H-M "I M M M"
_symmetry_group_IT_number 71
_symmetry_cell_setting 'orthorhombic'
loop_
_space_group_symop_operation_xyz
x,y,z
-x,-y,z
x,-y,-z
-x,y,-z
-x,-y,-z
x,y,-z
-x,y,z
x,-y,z
1/2+x,1/2+y,1/2+z
1/2-x,1/2-y,1/2+z
1/2+x,1/2-y,1/2-z
1/2-x,1/2+y,1/2-z
1/2-x,1/2-y,1/2-z
1/2+x,1/2+y,1/2-z
1/2-x,1/2+y,1/2+z
1/2+x,1/2-y,1/2+z
loop_
_atom_site_type_symbol
_atom_site_label
_atom_site_fract_x
_atom_site_fract_y
_atom_site_fract_z
Si Si1 0.329970 0.118606 0.752420
Si Si2 0.785686 0.570175 0.500000
Si Si3 0.316491 0.628583 0.861714
Si Si4 0.343168 0.000000 0.360598
Si Si5 0.422051 0.203362 0.628081
Si Si6 0.423386 0.662564 0.694004
Si Si7 0.312184 0.500000 0.861743
Si Si8 0.623339 0.429328 0.500000
O O1 0.258603 0.131422 0.688925
O O2 0.366258 0.061915 0.692103
O O3 0.377008 0.174045 0.726635
O O4 0.313886 0.101140 0.884328
O O5 0.802303 0.500000 0.500000
O O6 0.704550 0.574264 0.500000
O O7 0.369813 0.668334 0.797149
O O8 0.342595 0.562147 0.830409
O O9 0.314410 0.635675 0.000000
O O10 0.347594 0.000000 0.500000
O O11 0.264617 0.000000 0.321098
O O12 0.398658 0.183017 0.500000
O O13 0.500000 0.186648 0.641904
O O14 0.419595 0.274300 0.630671
O O15 0.500000 0.654249 0.734149
O O16 0.403999 0.608592 0.608865
O O17 0.307792 0.500000 0.000000
O O18 0.606224 0.500000 0.500000
#
# Coordination Sequence:
#
# PCOD9521974 Si02
#       8
#    16   8  16   8  16  16   8   8
#     4  11  20  37  62  90 119 158 199 245 308 368
#     4  11  22  39  63  97 131 157 195 263 321 368
#     4  10  20  35  56  87 116 151 197 252 300 359
#     4   9  16  29  56  88 116 145 186 236 291 355
#     4  10  22  42  64  85 118 160 202 250 308 368
#     4  11  23  40  59  83 120 162 203 254 309 359
#     4   7  14  28  48  74 110 143 178 222 289 346
#     4  11  23  40  63  91 122 161 209 253 305 373
#
# _framework density 18.449013999999998
#
# number of rings (size 3 to 8) (size 9 to 14) (size 15 to 20)
#    0.000    1.833    3.333    2.750    1.167    1.667 
#    1.500    0.833    0.000    3.500    0.000    0.000 
#    0.000    0.000    0.000    0.000    0.000    0.000 
#
# Total GULP energy -267461.673149 kJ/mol
# GULP energy per Si atom -5572.118191 kJ/mol
# Density = 1.840702 g / cm^3
# Si number density = 18.449014 Si / 1000 Ang^3
#
#
#
# Elastic Constant Matrix: (Units=GPa)
#
#
# Indices 1 2 3 4 5 6 
#
# 1 66.2580 38.5016 47.8426 0.0000 0.0000 0.0000
# 2 38.5016 78.9121 32.0889 0.0000 0.0000 0.0000
# 3 47.8426 32.0889 115.3667 0.0000 0.0000 0.0000
# 4 0.0000 0.0000 0.0000 27.6408 0.0000 0.0000
# 5 0.0000 0.0000 0.0000 0.0000 17.9373 0.0000
# 6 0.0000 0.0000 0.0000 0.0000 0.0000 12.3086
#
#
#
# Elastic Compliance Matrix: (Units=1/GPa)
#
#
# Indices 1 2 3 4 5 6 
#
# 1 0.026775 -0.009639 -0.008423 0.000000 0.000000 0.000000
# 2 -0.009639 0.017758 -0.000942 0.000000 0.000000 0.000000
# 3 -0.008423 -0.000942 0.012423 0.000000 0.000000 0.000000
# 4 0.000000 0.000000 0.000000 0.036178 0.000000 0.000000
# 5 0.000000 0.000000 0.000000 0.000000 0.055750 0.000000
# 6 0.000000 0.000000 0.000000 0.000000 0.000000 0.081244
#
#
# Mechanical properties :
#
#
# Convention : Reuss Voigt Hill
#
# Bulk Modulus (GPa) = 52.77284 55.26698 54.01991
# Shear Modulus (GPa) = 18.21811 21.05092 19.63451
#
# Velocity S-wave (km/s) = 3.14584 3.38158 3.26584
# Velocity P-wave (km/s) = 6.47007 6.72818 6.60039
#
# Compressibility (1/GPa) = 0.01894914
#
# Stress axis : x y z
#
# Youngs Moduli (GPa) = 37.34800 56.31182 80.49602
#
# Poissons Ratio (x) = 0.54277 0.67799
# Poissons Ratio (y) = 0.35999 0.07584
# Poissons Ratio (z) = 0.31457 0.05306
#
# Static dielectric constant tensor:
#      x y z
#    x 1.618180 0.000000 0.000000 
#    y 0.000000 1.692970 0.000000 
#    z 0.000000 0.000000 1.635300 
# 
# From -- ./inp_files/26048.got.cif
#   From: 2010.05.17/outbox.cif.g08.bks.cpg/sg71_14_cif.got.tgz:26048.got - 2010.06.03 16:22:01.
