data_PCOD9521761
_publ_section_title
;
Structure prediction by ZEFSAII (Michael W. Deem and Ramdas Pophale) SiO2 
 PCOD9521761
Probable space group: I M M M
;
_chemical_formula_sum "Si O2"
_cell_formula_units_Z 72
_cell_length_a 14.374478
_cell_length_b 12.040861
_cell_length_c 24.974243
_cell_angle_alpha 90.000000
_cell_angle_beta 90.000000
_cell_angle_gamma 90.000000
_cell_volume 4322.569239
_symmetry_space_group_name_H-M "I M M M"
_symmetry_group_IT_number 71
_symmetry_cell_setting 'orthorhombic'
loop_
_space_group_symop_operation_xyz
x,y,z
-x,-y,z
x,-y,-z
-x,y,-z
-x,-y,-z
x,y,-z
-x,y,z
x,-y,z
1/2+x,1/2+y,1/2+z
1/2-x,1/2-y,1/2+z
1/2+x,1/2-y,1/2-z
1/2-x,1/2+y,1/2-z
1/2-x,1/2-y,1/2-z
1/2+x,1/2+y,1/2-z
1/2-x,1/2+y,1/2+z
1/2+x,1/2-y,1/2+z
loop_
_atom_site_type_symbol
_atom_site_label
_atom_site_fract_x
_atom_site_fract_y
_atom_site_fract_z
Si Si1 0.185108 0.777389 0.402700
Si Si2 0.312976 0.761899 0.302917
Si Si3 0.500000 0.629920 0.720494
Si Si4 0.500000 0.630222 0.151087
Si Si5 0.790115 0.500000 0.060910
Si Si6 0.611555 0.132850 0.000000
Si Si7 0.109062 0.500000 0.169151
O O1 0.254745 0.734975 0.356520
O O2 0.229585 0.889024 0.428311
O O3 0.158596 0.689365 0.448199
O O4 0.091116 0.813904 0.372984
O O5 0.250000 0.750000 0.250000
O O6 0.406309 0.689233 0.299465
O O7 0.343438 0.890244 0.307599
O O8 0.500000 0.500000 0.706408
O O9 0.500000 0.639386 0.784951
O O10 0.500000 0.500000 0.137050
O O11 0.870324 0.500000 0.105590
O O12 0.823185 0.500000 0.000000
O O13 0.500000 0.156804 0.000000
O O14 0.622949 0.000000 0.000000
O O15 0.000000 0.500000 0.180259
#
# Coordination Sequence:
#
# PCOD9521761 Si02
#       7
#    16  16   8   8   8   8   8
#     4  11  21  36  60  85 119 151 192 239 298 346
#     4  11  23  39  60  88 120 155 195 243 295 353
#     4  11  24  39  60  85 120 159 199 237 287 352
#     4  11  20  33  57  92 118 148 190 245 292 347
#     4  10  20  34  60  90 109 149 195 239 296 350
#     4  11  24  39  55  82 119 159 200 237 281 354
#     4  10  22  39  59  87 120 153 195 249 298 351
#
# _framework density 16.656760999999999
#
# number of rings (size 3 to 8) (size 9 to 14) (size 15 to 20)
#    0.000    1.222    6.667    0.000    1.556    1.111 
#    0.000    1.667    2.444    0.667    0.000    1.556 
#    0.000    0.000    0.000    0.000    0.000    0.000 
#
# Total GULP energy -201003.249919 kJ/mol
# GULP energy per Si atom -5583.423609 kJ/mol
# Density = 1.661885 g / cm^3
# Si number density = 16.656761 Si / 1000 Ang^3
#
#
#
# Elastic Constant Matrix: (Units=GPa)
#
#
# Indices 1 2 3 4 5 6 
#
# 1 127.8116 63.8230 75.2917 0.0000 0.0000 0.0000
# 2 63.8230 118.9032 75.6721 0.0000 0.0000 0.0000
# 3 75.2917 75.6721 132.9443 0.0000 0.0000 0.0000
# 4 0.0000 0.0000 0.0000 31.1110 0.0000 0.0000
# 5 0.0000 0.0000 0.0000 0.0000 26.9660 0.0000
# 6 0.0000 0.0000 0.0000 0.0000 0.0000 25.5214
#
#
#
# Elastic Compliance Matrix: (Units=1/GPa)
#
#
# Indices 1 2 3 4 5 6 
#
# 1 0.012599 -0.003483 -0.005152 0.000000 0.000000 0.000000
# 2 -0.003483 0.014150 -0.006082 0.000000 0.000000 0.000000
# 3 -0.005152 -0.006082 0.013902 0.000000 0.000000 0.000000
# 4 0.000000 0.000000 0.000000 0.032143 0.000000 0.000000
# 5 0.000000 0.000000 0.000000 0.000000 0.037084 0.000000
# 6 0.000000 0.000000 0.000000 0.000000 0.000000 0.039183
#
#
# Mechanical properties :
#
#
# Convention : Reuss Voigt Hill
#
# Bulk Modulus (GPa) = 89.15963 89.91476 89.53719
# Shear Modulus (GPa) = 27.43730 27.71117 27.57424
#
# Velocity S-wave (km/s) = 4.06300 4.08322 4.07312
# Velocity P-wave (km/s) = 8.69795 8.73661 8.71730
#
# Compressibility (1/GPa) = 0.01121584
#
# Stress axis : x y z
#
# Youngs Moduli (GPa) = 79.37364 70.66903 71.93422
#
# Poissons Ratio (x) = 0.24617 0.37063
# Poissons Ratio (y) = 0.27650 0.43748
# Poissons Ratio (z) = 0.40896 0.42978
#
# Static dielectric constant tensor:
#      x y z
#    x 1.548630 0.000000 0.000000 
#    y 0.000000 1.540540 0.000000 
#    z 0.000000 0.000000 1.544910 
# 
# From -- ./inp_files/59611.got.cif
#   From: 2010.05.17/outbox.cif.g08.bks.cpg/sg71_30_cif.got.tgz:59611.got - 2010.06.03 16:22:01.
