data_PCOD9521510
_publ_section_title
;
Structure prediction by ZEFSAII (Michael W. Deem and Ramdas Pophale) SiO2 
 PCOD9521510
Probable space group: I M M M
;
_chemical_formula_sum "Si O2"
_cell_formula_units_Z 96
_cell_length_a 20.846437
_cell_length_b 7.912319
_cell_length_c 28.728590
_cell_angle_alpha 90.000000
_cell_angle_beta 90.000000
_cell_angle_gamma 90.000000
_cell_volume 4738.598769
_symmetry_space_group_name_H-M "I M M M"
_symmetry_group_IT_number 71
_symmetry_cell_setting 'orthorhombic'
loop_
_space_group_symop_operation_xyz
x,y,z
-x,-y,z
x,-y,-z
-x,y,-z
-x,-y,-z
x,y,-z
-x,y,z
x,-y,z
1/2+x,1/2+y,1/2+z
1/2-x,1/2-y,1/2+z
1/2+x,1/2-y,1/2-z
1/2-x,1/2+y,1/2-z
1/2-x,1/2-y,1/2-z
1/2+x,1/2+y,1/2-z
1/2-x,1/2+y,1/2+z
1/2+x,1/2-y,1/2+z
loop_
_atom_site_type_symbol
_atom_site_label
_atom_site_fract_x
_atom_site_fract_y
_atom_site_fract_z
Si Si1 0.299642 0.198945 0.447910
Si Si2 0.572948 0.795461 0.292202
Si Si3 0.314001 0.201293 0.118685
Si Si4 0.927280 0.293467 0.446802
Si Si5 0.072792 0.798805 0.898581
Si Si6 0.815202 0.295857 0.724063
O O1 0.289269 0.269625 0.500000
O O2 0.251304 0.272385 0.409778
O O3 0.372570 0.225933 0.431568
O O4 0.287023 0.000000 0.449427
O O5 0.500000 0.739342 0.282259
O O6 0.589115 0.739754 0.344684
O O7 0.624385 0.734958 0.254536
O O8 0.573397 0.000000 0.291924
O O9 0.373225 0.268972 0.088238
O O10 0.313239 0.269194 0.171145
O O11 0.323480 0.000000 0.122486
O O12 0.913763 0.241517 0.500000
O O13 0.926276 0.500000 0.446526
O O14 0.000000 0.242700 0.434780
O O15 0.000000 0.735096 0.906842
O O16 0.072429 0.000000 0.904710
O O17 0.819384 0.500000 0.722526
O O18 0.750000 0.250000 0.750000
#
# Coordination Sequence:
#
# PCOD9521510 Si02
#       6
#    16  16  16  16  16  16
#     4  11  24  39  55  77 106 140 177 217 264 321
#     4   9  18  34  55  78 108 145 179 212 257 313
#     4  10  20  34  54  79 106 138 178 222 264 307
#     4   8  14  26  47  76 106 133 163 204 255 306
#     4  10  21  37  58  83 108 135 172 218 264 312
#     4  10  21  34  50  75 104 136 174 215 258 303
#
# _framework density 20.259153999999999
#
# number of rings (size 3 to 8) (size 9 to 14) (size 15 to 20)
#    0.000    2.333    0.000    3.000    0.000    8.000 
#    0.000    5.000    0.000    0.500    0.000    4.667 
#    0.000    0.000    0.000    0.000    0.000    0.000 
#
# Total GULP energy -268018.854559 kJ/mol
# GULP energy per Si atom -5583.726137 kJ/mol
# Density = 2.021304 g / cm^3
# Si number density = 20.259154 Si / 1000 Ang^3
#
#
#
# Elastic Constant Matrix: (Units=GPa)
#
#
# Indices 1 2 3 4 5 6 
#
# 1 77.4675 -7.6572 40.3021 0.0000 0.0000 0.0000
# 2 -7.6572 17.7122 -4.8297 0.0000 0.0000 0.0000
# 3 40.3021 -4.8297 73.8690 0.0000 0.0000 0.0000
# 4 0.0000 0.0000 0.0000 17.8556 0.0000 0.0000
# 5 0.0000 0.0000 0.0000 0.0000 42.3338 0.0000
# 6 0.0000 0.0000 0.0000 0.0000 0.0000 9.9836
#
#
#
# Elastic Compliance Matrix: (Units=1/GPa)
#
#
# Indices 1 2 3 4 5 6 
#
# 1 0.018509 0.005343 -0.009749 0.000000 0.000000 0.000000
# 2 0.005343 0.059025 0.000944 0.000000 0.000000 0.000000
# 3 -0.009749 0.000944 0.018918 0.000000 0.000000 0.000000
# 4 0.000000 0.000000 0.000000 0.056005 0.000000 0.000000
# 5 0.000000 0.000000 0.000000 0.000000 0.023622 0.000000
# 6 0.000000 0.000000 0.000000 0.000000 0.000000 0.100164
#
#
# Mechanical properties :
#
#
# Convention : Reuss Voigt Hill
#
# Bulk Modulus (GPa) = 11.16957 24.96436 18.06697
# Shear Modulus (GPa) = 15.97400 23.45016 19.71208
#
# Velocity S-wave (km/s) = 2.81104 3.40591 3.12267
# Velocity P-wave (km/s) = 4.00765 5.27411 4.68388
#
# Compressibility (1/GPa) = 0.08952894
#
# Stress axis : x y z
#
# Youngs Moduli (GPa) = 54.02923 16.94184 52.85974
#
# Poissons Ratio (x) = -0.09052 0.51531
# Poissons Ratio (y) = -0.28869 -0.04990
# Poissons Ratio (z) = 0.52671 -0.01599
#
# Static dielectric constant tensor:
#      x y z
#    x 1.703810 0.000000 0.000000 
#    y 0.000000 1.744830 0.000000 
#    z 0.000000 0.000000 1.674080 
# 
# From -- ./inp_files/10856.got.cif
#   From: 2010.05.17/outbox.cif.g08.bks.cpg/sg71_6_cif.got.tgz:10856.got - 2010.06.03 16:22:01.
