data_PCOD9521224
_publ_section_title
;
Structure prediction by ZEFSAII (Michael W. Deem and Ramdas Pophale) SiO2 
 PCOD9521224
Probable space group: I M M M
;
_chemical_formula_sum "Si O2"
_cell_formula_units_Z 82
_cell_length_a 20.872169
_cell_length_b 7.693374
_cell_length_c 24.444189
_cell_angle_alpha 90.000000
_cell_angle_beta 90.000000
_cell_angle_gamma 90.000000
_cell_volume 3925.184371
_symmetry_space_group_name_H-M "I M M M"
_symmetry_group_IT_number 71
_symmetry_cell_setting 'orthorhombic'
loop_
_space_group_symop_operation_xyz
x,y,z
-x,-y,z
x,-y,-z
-x,y,-z
-x,-y,-z
x,y,-z
-x,y,z
x,-y,z
1/2+x,1/2+y,1/2+z
1/2-x,1/2-y,1/2+z
1/2+x,1/2-y,1/2-z
1/2-x,1/2+y,1/2-z
1/2-x,1/2-y,1/2-z
1/2+x,1/2+y,1/2-z
1/2-x,1/2+y,1/2+z
1/2+x,1/2-y,1/2+z
loop_
_atom_site_type_symbol
_atom_site_label
_atom_site_fract_x
_atom_site_fract_y
_atom_site_fract_z
Si Si1 0.734588 0.789549 0.438110
Si Si2 0.000000 0.686999 0.913438
Si Si3 0.500000 0.712577 0.936293
Si Si4 0.323895 0.291088 0.237938
Si Si5 0.500000 0.500000 0.500000
Si Si6 0.366198 0.287511 0.882259
Si Si7 0.876189 0.205330 0.147917
O O1 0.719048 0.731126 0.500000
O O2 0.806272 0.736694 0.420506
O O3 0.684147 0.728259 0.392790
O O4 0.732642 0.000000 0.437863
O O5 0.063286 0.701765 0.877326
O O6 0.000000 0.500000 0.941000
O O7 0.000000 0.848366 0.953415
O O8 0.500000 0.500000 0.935879
O O9 0.565182 0.768713 0.905796
O O10 0.500000 0.765575 0.000000
O O11 0.329412 0.500000 0.236420
O O12 0.250000 0.250000 0.250000
O O13 0.349567 0.227808 0.179393
O O14 0.360941 0.227954 0.291481
O O15 0.367102 0.500000 0.881745
O O16 0.889796 0.000000 0.151311
#
# Coordination Sequence:
#
# PCOD9521224 Si02
#       7
#    16   8   8  16   2  16  16
#     4  10  20  33  54  83 115 153 204 261 320 389
#     4  12  27  46  70  97 130 179 217 264 334 391
#     4   9  16  27  48  79 118 154 187 243 317 384
#     4  10  20  35  59  85 118 161 206 264 323 377
#     4  12  26  52  72  98 140 168 222 274 314 402
#     4   9  17  31  51  81 115 155 203 253 315 388
#     4  11  23  40  59  88 125 164 212 271 323 385
#
# _framework density 20.890739
#
# number of rings (size 3 to 8) (size 9 to 14) (size 15 to 20)
#    0.000    1.854    2.927    1.317    1.366    4.293 
#    0.000    2.927    0.000    0.000    0.000    2.049 
#    0.000    4.683    0.000    0.000    0.000    0.000 
#
# Total GULP energy -228815.991765 kJ/mol
# GULP energy per Si atom -5580.877848 kJ/mol
# Density = 2.084319 g / cm^3
# Si number density = 20.890739 Si / 1000 Ang^3
#
#
#
# Elastic Constant Matrix: (Units=GPa)
#
#
# Indices 1 2 3 4 5 6 
#
# 1 134.5977 6.8153 54.7755 0.0000 0.0000 0.0000
# 2 6.8153 72.7281 17.5004 0.0000 0.0000 0.0000
# 3 54.7755 17.5004 163.4812 0.0000 0.0000 0.0000
# 4 0.0000 0.0000 0.0000 45.4362 0.0000 0.0000
# 5 0.0000 0.0000 0.0000 0.0000 58.3739 0.0000
# 6 0.0000 0.0000 0.0000 0.0000 0.0000 16.9390
#
#
#
# Elastic Compliance Matrix: (Units=1/GPa)
#
#
# Indices 1 2 3 4 5 6 
#
# 1 0.008603 -0.000116 -0.002870 0.000000 0.000000 0.000000
# 2 -0.000116 0.014115 -0.001472 0.000000 0.000000 0.000000
# 3 -0.002870 -0.001472 0.007236 0.000000 0.000000 0.000000
# 4 0.000000 0.000000 0.000000 0.022009 0.000000 0.000000
# 5 0.000000 0.000000 0.000000 0.000000 0.017131 0.000000
# 6 0.000000 0.000000 0.000000 0.000000 0.000000 0.059035
#
#
# Mechanical properties :
#
#
# Convention : Reuss Voigt Hill
#
# Bulk Modulus (GPa) = 47.53206 58.77659 53.15432
# Shear Modulus (GPa) = 34.70803 43.59753 39.15278
#
# Velocity S-wave (km/s) = 4.08046 4.57325 4.33386
# Velocity P-wave (km/s) = 6.70837 7.48882 7.10932
#
# Compressibility (1/GPa) = 0.02103843
#
# Stress axis : x y z
#
# Youngs Moduli (GPa) = 116.23202 70.84697 138.19359
#
# Poissons Ratio (x) = 0.00819 0.39666
# Poissons Ratio (y) = 0.01343 0.20346
# Poissons Ratio (z) = 0.33362 0.10431
#
# Static dielectric constant tensor:
#      x y z
#    x 1.709540 0.000000 0.000000 
#    y 0.000000 1.784260 0.000000 
#    z 0.000000 0.000000 1.792200 
# 
# From -- ./inp_files/61072.got.cif
#   From: 2010.05.17/outbox.cif.g08.bks.cpg/sg71_31_cif.got.tgz:61072.got - 2010.06.03 16:22:01.
