data_PCOD9521270
_publ_section_title
;
Structure prediction by ZEFSAII (Michael W. Deem and Ramdas Pophale) SiO2 
 PCOD9521270
Probable space group: I M M M
;
_chemical_formula_sum "Si O2"
_cell_formula_units_Z 120
_cell_length_a 27.233046
_cell_length_b 28.701308
_cell_length_c 8.741968
_cell_angle_alpha 90.000000
_cell_angle_beta 90.000000
_cell_angle_gamma 90.000000
_cell_volume 6832.932355
_symmetry_space_group_name_H-M "I M M M"
_symmetry_group_IT_number 71
_symmetry_cell_setting 'orthorhombic'
loop_
_space_group_symop_operation_xyz
x,y,z
-x,-y,z
x,-y,-z
-x,y,-z
-x,-y,-z
x,y,-z
-x,y,z
x,-y,z
1/2+x,1/2+y,1/2+z
1/2-x,1/2-y,1/2+z
1/2+x,1/2-y,1/2-z
1/2-x,1/2+y,1/2-z
1/2-x,1/2-y,1/2-z
1/2+x,1/2+y,1/2-z
1/2-x,1/2+y,1/2+z
1/2+x,1/2-y,1/2+z
loop_
_atom_site_type_symbol
_atom_site_label
_atom_site_fract_x
_atom_site_fract_y
_atom_site_fract_z
Si Si1 0.000000 0.054969 0.682888
Si Si2 0.697759 0.387835 0.816567
Si Si3 0.558558 0.290073 0.320566
Si Si4 0.593405 0.608927 0.316034
Si Si5 0.293610 0.053152 0.684163
Si Si6 0.754417 0.698182 0.683697
Si Si7 0.944304 0.308799 0.683767
Si Si8 0.150154 0.637537 0.684241
O O1 0.048514 0.078863 0.751714
O O2 0.000000 0.061203 0.500000
O O3 0.000000 0.000000 0.716891
O O4 0.646245 0.404510 0.748898
O O5 0.741274 0.423697 0.774657
O O6 0.713898 0.337653 0.749269
O O7 0.694952 0.384733 0.000000
O O8 0.569083 0.282502 0.500000
O O9 0.500000 0.297985 0.305573
O O10 0.584685 0.337139 0.269542
O O11 0.570771 0.243469 0.229916
O O12 0.592667 0.606799 0.500000
O O13 0.296617 0.053449 0.500000
O O14 0.334281 0.087904 0.749752
O O15 0.297564 0.000000 0.737528
O O16 0.750469 0.699664 0.500000
O O17 0.750000 0.750000 0.750000
O O18 0.806913 0.674574 0.725090
O O19 0.945749 0.311432 0.500000
O O20 0.902547 0.344038 0.738657
O O21 0.000000 0.316874 0.741478
O O22 0.149575 0.634796 0.500000
#
# Coordination Sequence:
#
# PCOD9521270 Si02
#       8
#     8  16  16  16  16  16  16  16
#     4  11  25  43  61  81 105 141 189 237 286 339
#     4  10  21  36  54  79 108 141 181 226 276 331
#     4   9  18  33  50  72 103 140 178 216 257 307
#     4  11  22  38  57  80 110 142 180 230 282 332
#     4   9  19  37  59  80 103 134 175 223 273 325
#     4  10  20  34  50  74 109 146 183 225 274 328
#     4   9  18  32  51  78 110 144 179 216 258 310
#     4   9  19  34  52  78 109 139 176 220 263 318
#
# _framework density 17.562007000000001
#
# number of rings (size 3 to 8) (size 9 to 14) (size 15 to 20)
#    0.000    2.333    0.667    1.400    1.867    4.000 
#    0.000    1.333    0.000    0.400    0.000    2.800 
#    0.000    0.000    0.000    0.000    0.000    0.000 
#
# Total GULP energy -334811.938195 kJ/mol
# GULP energy per Si atom -5580.198970 kJ/mol
# Density = 1.752203 g / cm^3
# Si number density = 17.562007 Si / 1000 Ang^3
#
#
#
# Elastic Constant Matrix: (Units=GPa)
#
#
# Indices 1 2 3 4 5 6 
#
# 1 115.4930 72.0825 35.8940 0.0000 0.0000 0.0000
# 2 72.0825 139.8429 37.6514 0.0000 0.0000 0.0000
# 3 35.8940 37.6514 28.0221 0.0000 0.0000 0.0000
# 4 0.0000 0.0000 0.0000 29.1096 0.0000 0.0000
# 5 0.0000 0.0000 0.0000 0.0000 24.6282 0.0000
# 6 0.0000 0.0000 0.0000 0.0000 0.0000 12.9521
#
#
#
# Elastic Compliance Matrix: (Units=1/GPa)
#
#
# Indices 1 2 3 4 5 6 
#
# 1 0.015838 -0.004233 -0.014599 0.000000 0.000000 0.000000
# 2 -0.004233 0.012335 -0.011152 0.000000 0.000000 0.000000
# 3 -0.014599 -0.011152 0.069371 0.000000 0.000000 0.000000
# 4 0.000000 0.000000 0.000000 0.034353 0.000000 0.000000
# 5 0.000000 0.000000 0.000000 0.000000 0.040604 0.000000
# 6 0.000000 0.000000 0.000000 0.000000 0.000000 0.077207
#
#
# Mechanical properties :
#
#
# Convention : Reuss Voigt Hill
#
# Bulk Modulus (GPa) = 26.61326 63.84596 45.22961
# Shear Modulus (GPa) = 15.51820 22.52000 19.01910
#
# Velocity S-wave (km/s) = 2.97581 3.58483 3.29442
# Velocity P-wave (km/s) = 5.19558 7.31903 6.34674
#
# Compressibility (1/GPa) = 0.03757525
#
# Stress axis : x y z
#
# Youngs Moduli (GPa) = 63.14052 81.06784 14.41524
#
# Poissons Ratio (x) = 0.34315 0.21045
# Poissons Ratio (y) = 0.26726 0.16076
# Poissons Ratio (z) = 0.92181 0.90409
#
# Static dielectric constant tensor:
#      x y z
#    x 1.603470 0.000000 0.000000 
#    y 0.000000 1.574650 0.000000 
#    z 0.000000 0.000000 1.592430 
# 
# From -- ./inp_files/15631.got.cif
#   From: 2010.05.17/outbox.cif.g08.bks.cpg/sg71_8_cif.got.tgz:15631.got - 2010.06.03 16:22:01.
