data_PCOD9521976
_publ_section_title
;
Structure prediction by ZEFSAII (Michael W. Deem and Ramdas Pophale) SiO2 
 PCOD9521976
Probable space group: I M M M
;
_chemical_formula_sum "Si O2"
_cell_formula_units_Z 64
_cell_length_a 14.932614
_cell_length_b 11.315620
_cell_length_c 15.987587
_cell_angle_alpha 90.000000
_cell_angle_beta 90.000000
_cell_angle_gamma 90.000000
_cell_volume 2701.451123
_symmetry_space_group_name_H-M "I M M M"
_symmetry_group_IT_number 71
_symmetry_cell_setting 'orthorhombic'
loop_
_space_group_symop_operation_xyz
x,y,z
-x,-y,z
x,-y,-z
-x,y,-z
-x,-y,-z
x,y,-z
-x,y,z
x,-y,z
1/2+x,1/2+y,1/2+z
1/2-x,1/2-y,1/2+z
1/2+x,1/2-y,1/2-z
1/2-x,1/2+y,1/2-z
1/2-x,1/2-y,1/2-z
1/2+x,1/2+y,1/2-z
1/2-x,1/2+y,1/2+z
1/2+x,1/2-y,1/2+z
loop_
_atom_site_type_symbol
_atom_site_label
_atom_site_fract_x
_atom_site_fract_y
_atom_site_fract_z
Si Si1 0.131275 0.000000 0.182676
Si Si2 0.105602 0.360350 0.000000
Si Si3 0.391510 0.242970 0.140719
Si Si4 0.399290 0.760185 0.668030
Si Si5 0.192229 0.500000 0.409198
Si Si6 0.603178 0.500000 0.119469
O O1 0.096380 0.878049 0.146649
O O2 0.236623 0.000000 0.165335
O O3 0.105114 0.000000 0.279534
O O4 0.146362 0.318176 0.912121
O O5 0.105665 0.500000 0.000000
O O6 0.000000 0.319754 0.000000
O O7 0.500000 0.250442 0.142013
O O8 0.360532 0.233279 0.238301
O O9 0.360004 0.368283 0.100789
O O10 0.363031 0.121282 0.098014
O O11 0.500000 0.811308 0.675128
O O12 0.238720 0.500000 0.500000
O O13 0.500000 0.500000 0.091396
#
# Coordination Sequence:
#
# PCOD9521976 Si02
#       6
#     8   8  16  16   8   8
#     4  10  20  35  57  77 120 145 185 226 275 331
#     4   9  18  29  47  83 121 142 177 226 271 336
#     4   9  19  38  62  83 107 142 189 244 291 333
#     4   9  18  33  59  87 111 145 184 227 283 341
#     4  12  27  38  52  80 119 158 196 234 274 331
#     4   8  16  36  66  94 110 132 182 238 288 349
#
# _framework density 23.690971000000001
#
# number of rings (size 3 to 8) (size 9 to 14) (size 15 to 20)
#    0.000    2.625    0.000    3.000    3.500    5.000 
#    0.000    2.500    2.750    2.250    0.000    0.000 
#    0.000    0.000    0.000    0.000    0.000    0.000 
#
# Total GULP energy -178423.057785 kJ/mol
# GULP energy per Si atom -5575.720556 kJ/mol
# Density = 2.363705 g / cm^3
# Si number density = 23.690971 Si / 1000 Ang^3
#
#
#
# Elastic Constant Matrix: (Units=GPa)
#
#
# Indices 1 2 3 4 5 6 
#
# 1 65.5455 18.1746 6.1498 0.0000 0.0000 0.0000
# 2 18.1746 168.8195 50.9185 0.0000 0.0000 0.0000
# 3 6.1498 50.9185 122.8703 0.0000 0.0000 0.0000
# 4 0.0000 0.0000 0.0000 48.6385 0.0000 0.0000
# 5 0.0000 0.0000 0.0000 0.0000 29.7959 0.0000
# 6 0.0000 0.0000 0.0000 0.0000 0.0000 -387.7450
#
#
#
# Elastic Compliance Matrix: (Units=1/GPa)
#
#
# Indices 1 2 3 4 5 6 
#
# 1 0.015727 -0.001664 -0.000098 0.000000 0.000000 0.000000
# 2 -0.001664 0.006946 -0.002795 0.000000 0.000000 0.000000
# 3 -0.000098 -0.002795 0.009302 0.000000 0.000000 0.000000
# 4 0.000000 0.000000 0.000000 0.020560 0.000000 0.000000
# 5 0.000000 0.000000 0.000000 0.000000 0.033562 0.000000
# 6 0.000000 0.000000 0.000000 0.000000 0.000000 -0.002579
#
#
# Mechanical properties :
#
#
# Convention : Reuss Voigt Hill
#
# Bulk Modulus (GPa) = 43.74135 56.41344 50.07739
# Shear Modulus (GPa) = 49.87513 -43.06261 3.40626
#
# Velocity S-wave (km/s) = 4.59326 -4.26805 1.20038
# Velocity P-wave (km/s) = 6.82892 0.65150 4.80675
#
# Compressibility (1/GPa) = 0.02286166
#
# Stress axis : x y z
#
# Youngs Moduli (GPa) = 63.58470 143.97561 107.50551
#
# Poissons Ratio (x) = 0.23952 0.01051
# Poissons Ratio (y) = 0.10578 0.30048
# Poissons Ratio (z) = 0.00621 0.40242
#
# Static dielectric constant tensor:
#      x y z
#    x 1.936260 0.000000 0.000000 
#    y 0.000000 1.888780 0.000000 
#    z 0.000000 0.000000 1.900420 
# 
# From -- ./inp_files/35849.got.cif
#   From: 2010.05.17/outbox.cif.g08.bks.cpg/sg71_18_cif.got.tgz:35849.got - 2010.06.03 16:22:01.
