data_PCOD9521941
_publ_section_title
;
Structure prediction by ZEFSAII (Michael W. Deem and Ramdas Pophale) SiO2 
 PCOD9521941
Probable space group: I M M M
;
_chemical_formula_sum "Si O2"
_cell_formula_units_Z 88
_cell_length_a 8.312635
_cell_length_b 18.028900
_cell_length_c 28.191670
_cell_angle_alpha 90.000000
_cell_angle_beta 90.000000
_cell_angle_gamma 90.000000
_cell_volume 4225.019760
_symmetry_space_group_name_H-M "I M M M"
_symmetry_group_IT_number 71
_symmetry_cell_setting 'orthorhombic'
loop_
_space_group_symop_operation_xyz
x,y,z
-x,-y,z
x,-y,-z
-x,y,-z
-x,-y,-z
x,y,-z
-x,y,z
x,-y,z
1/2+x,1/2+y,1/2+z
1/2-x,1/2-y,1/2+z
1/2+x,1/2-y,1/2-z
1/2-x,1/2+y,1/2-z
1/2-x,1/2-y,1/2-z
1/2+x,1/2+y,1/2-z
1/2-x,1/2+y,1/2+z
1/2+x,1/2-y,1/2+z
loop_
_atom_site_type_symbol
_atom_site_label
_atom_site_fract_x
_atom_site_fract_y
_atom_site_fract_z
Si Si1 0.803268 0.000000 0.556137
Si Si2 0.310750 0.413758 0.633688
Si Si3 0.806263 0.305176 0.446644
Si Si4 0.804403 0.844640 0.603692
Si Si5 0.320048 0.911881 0.233434
Si Si6 0.181026 0.799264 0.706573
O O1 0.751002 0.925042 0.584133
O O2 0.755645 0.000000 0.500000
O O3 0.000000 0.000000 0.555977
O O4 0.500000 0.411436 0.644752
O O5 0.267255 0.500000 0.624378
O O6 0.271143 0.361686 0.590042
O O7 0.216312 0.386192 0.680048
O O8 0.756392 0.322086 0.500000
O O9 0.767357 0.220391 0.433456
O O10 0.000000 0.312379 0.443118
O O11 0.743270 0.812777 0.654599
O O12 0.000000 0.849890 0.608169
O O13 0.500000 0.889566 0.248218
O O14 0.192248 0.879994 0.269603
O O15 0.312117 0.000000 0.232096
O O16 0.250000 0.750000 0.750000
O O17 0.000000 0.773556 0.698838
#
# Coordination Sequence:
#
# PCOD9521941 Si02
#       6
#     8  16  16  16  16  16
#     4   9  16  30  54  82 113 147 187 239 296 343
#     4  10  21  37  57  82 111 146 190 237 286 342
#     4  10  20  35  56  82 113 148 188 234 286 343
#     4   9  19  33  52  81 114 148 188 236 286 342
#     4  10  21  37  57  80 110 146 185 229 282 343
#     4  11  22  35  55  82 116 153 193 238 286 344
#
# _framework density 20.828305
#
# number of rings (size 3 to 8) (size 9 to 14) (size 15 to 20)
#    0.000    2.091    0.000    3.273    1.273    6.545 
#    0.000    2.727    0.000    0.000    0.000    0.000 
#    0.000    5.091    0.000    0.000    0.000    0.000 
#
# Total GULP energy -245451.534259 kJ/mol
# GULP energy per Si atom -5578.443960 kJ/mol
# Density = 2.078090 g / cm^3
# Si number density = 20.828305 Si / 1000 Ang^3
#
#
#
# Elastic Constant Matrix: (Units=GPa)
#
#
# Indices 1 2 3 4 5 6 
#
# 1 17.4966 9.4574 3.9737 0.0000 0.0000 0.0000
# 2 9.4574 58.1371 9.1428 0.0000 0.0000 0.0000
# 3 3.9737 9.1428 75.3036 0.0000 0.0000 0.0000
# 4 0.0000 0.0000 0.0000 33.7987 0.0000 0.0000
# 5 0.0000 0.0000 0.0000 0.0000 17.8924 0.0000
# 6 0.0000 0.0000 0.0000 0.0000 0.0000 19.1830
#
#
#
# Elastic Compliance Matrix: (Units=1/GPa)
#
#
# Indices 1 2 3 4 5 6 
#
# 1 0.062994 -0.009914 -0.002120 0.000000 0.000000 0.000000
# 2 -0.009914 0.019096 -0.001795 0.000000 0.000000 0.000000
# 3 -0.002120 -0.001795 0.013609 0.000000 0.000000 0.000000
# 4 0.000000 0.000000 0.000000 0.029587 0.000000 0.000000
# 5 0.000000 0.000000 0.000000 0.000000 0.055890 0.000000
# 6 0.000000 0.000000 0.000000 0.000000 0.000000 0.052129
#
#
# Mechanical properties :
#
#
# Convention : Reuss Voigt Hill
#
# Bulk Modulus (GPa) = 14.69728 21.78724 18.24226
# Shear Modulus (GPa) = 17.62766 22.73239 20.18002
#
# Velocity S-wave (km/s) = 2.91233 3.30725 3.11605
# Velocity P-wave (km/s) = 4.28726 5.00669 4.66088
#
# Compressibility (1/GPa) = 0.06803980
#
# Stress axis : x y z
#
# Youngs Moduli (GPa) = 15.87446 52.36740 73.47836
#
# Poissons Ratio (x) = 0.51918 0.15581
# Poissons Ratio (y) = 0.15738 0.13192
# Poissons Ratio (z) = 0.03366 0.09402
#
# Static dielectric constant tensor:
#      x y z
#    x 1.772060 0.000000 0.000000 
#    y 0.000000 1.768760 0.000000 
#    z 0.000000 0.000000 1.738580 
# 
# From -- ./inp_files/57533.got.cif
#   From: 2010.05.17/outbox.cif.g08.bks.cpg/sg71_29_cif.got.tgz:57533.got - 2010.06.03 16:22:01.
