data_PCOD9521777
_publ_section_title
;
Structure prediction by ZEFSAII (Michael W. Deem and Ramdas Pophale) SiO2 
 PCOD9521777
Probable space group: I M M M
;
_chemical_formula_sum "Si O2"
_cell_formula_units_Z 96
_cell_length_a 25.928610
_cell_length_b 11.347895
_cell_length_c 19.868797
_cell_angle_alpha 90.000000
_cell_angle_beta 90.000000
_cell_angle_gamma 90.000000
_cell_volume 5846.098342
_symmetry_space_group_name_H-M "I M M M"
_symmetry_group_IT_number 71
_symmetry_cell_setting 'orthorhombic'
loop_
_space_group_symop_operation_xyz
x,y,z
-x,-y,z
x,-y,-z
-x,y,-z
-x,-y,-z
x,y,-z
-x,y,z
x,-y,z
1/2+x,1/2+y,1/2+z
1/2-x,1/2-y,1/2+z
1/2+x,1/2-y,1/2-z
1/2-x,1/2+y,1/2-z
1/2-x,1/2-y,1/2-z
1/2+x,1/2+y,1/2-z
1/2-x,1/2+y,1/2+z
1/2+x,1/2-y,1/2+z
loop_
_atom_site_type_symbol
_atom_site_label
_atom_site_fract_x
_atom_site_fract_y
_atom_site_fract_z
Si Si1 0.824534 0.356696 0.257056
Si Si2 0.124874 0.634438 0.000000
Si Si3 0.555054 0.759593 0.390963
Si Si4 0.074450 0.000000 0.078360
Si Si5 0.057051 0.640732 0.257755
Si Si6 0.751947 0.634868 0.000000
Si Si7 0.697290 0.500000 0.577449
Si Si8 0.740133 0.739380 0.360400
O O1 0.820897 0.500000 0.258305
O O2 0.883948 0.322681 0.275812
O O3 0.786841 0.296120 0.311107
O O4 0.802075 0.312083 0.184368
O O5 0.102032 0.700280 0.063799
O O6 0.106775 0.500000 0.000000
O O7 0.185808 0.636456 0.000000
O O8 0.500000 0.790591 0.423351
O O9 0.557208 0.618909 0.385727
O O10 0.556451 0.823767 0.320300
O O11 0.135891 0.000000 0.076449
O O12 0.057138 0.000000 0.000000
O O13 0.056461 0.500000 0.265903
O O14 0.000000 0.682958 0.284968
O O15 0.739830 0.695518 0.071839
O O16 0.733738 0.500000 0.000000
O O17 0.715990 0.500000 0.500000
O O18 0.715597 0.382714 0.614461
#
# Coordination Sequence:
#
# PCOD9521777 Si02
#       8
#    16   8  16   8  16   8   8  16
#     4  10  20  35  52  77 107 133 169 209 252 303
#     4  11  21  31  45  64  88 124 158 206 247 276
#     4  11  21  31  43  62  88 124 168 206 239 279
#     4  11  21  30  43  58  88 131 163 201 242 279
#     4   9  18  33  52  70  92 124 160 202 248 293
#     4  11  22  36  53  73 101 132 168 204 251 303
#     4  11  20  33  50  73  99 131 172 208 249 306
#     4  11  21  33  53  76 105 136 168 208 256 300
#
# _framework density 16.421208
#
# number of rings (size 3 to 8) (size 9 to 14) (size 15 to 20)
#    0.000    1.500    2.500    4.500    0.000    4.333 
#    0.000    0.000    0.000    0.000    0.000    0.583 
#    0.000    4.000    0.000    0.000    0.000    0.000 
#
# Total GULP energy -267386.517145 kJ/mol
# GULP energy per Si atom -5570.552441 kJ/mol
# Density = 1.638383 g / cm^3
# Si number density = 16.421208 Si / 1000 Ang^3
#
#
#
# Elastic Constant Matrix: (Units=GPa)
#
#
# Indices 1 2 3 4 5 6 
#
# 1 107.8406 18.1173 28.7410 0.0000 0.0000 0.0000
# 2 18.1173 56.3297 23.9574 0.0000 0.0000 0.0000
# 3 28.7410 23.9574 70.4357 0.0000 0.0000 0.0000
# 4 0.0000 0.0000 0.0000 24.2452 0.0000 0.0000
# 5 0.0000 0.0000 0.0000 0.0000 31.9662 0.0000
# 6 0.0000 0.0000 0.0000 0.0000 0.0000 38.7728
#
#
#
# Elastic Compliance Matrix: (Units=1/GPa)
#
#
# Indices 1 2 3 4 5 6 
#
# 1 0.010563 -0.001829 -0.003688 0.000000 0.000000 0.000000
# 2 -0.001829 0.021072 -0.006421 0.000000 0.000000 0.000000
# 3 -0.003688 -0.006421 0.017886 0.000000 0.000000 0.000000
# 4 0.000000 0.000000 0.000000 0.041245 0.000000 0.000000
# 5 0.000000 0.000000 0.000000 0.000000 0.031283 0.000000
# 6 0.000000 0.000000 0.000000 0.000000 0.000000 0.025791
#
#
# Mechanical properties :
#
#
# Convention : Reuss Voigt Hill
#
# Bulk Modulus (GPa) = 38.99360 41.80415 40.39887
# Shear Modulus (GPa) = 27.73694 29.91619 28.82656
#
# Velocity S-wave (km/s) = 4.11432 4.27289 4.19435
# Velocity P-wave (km/s) = 6.80937 7.06089 6.93627
#
# Compressibility (1/GPa) = 0.02564524
#
# Stress axis : x y z
#
# Youngs Moduli (GPa) = 94.66879 47.45702 55.90883
#
# Poissons Ratio (x) = 0.08679 0.20620
# Poissons Ratio (y) = 0.17313 0.35899
# Poissons Ratio (z) = 0.34916 0.30472
#
# Static dielectric constant tensor:
#      x y z
#    x 1.606810 0.000000 0.000000 
#    y 0.000000 1.570400 0.000000 
#    z 0.000000 0.000000 1.539080 
# 
# From -- ./inp_files/55754.got.cif
#   From: 2010.05.17/outbox.cif.g08.bks.cpg/sg71_28_cif.got.tgz:55754.got - 2010.06.03 16:22:01.
