data_PCOD9521335
_publ_section_title
;
Structure prediction by ZEFSAII (Michael W. Deem and Ramdas Pophale) SiO2 
 PCOD9521335
Probable space group: I M M M
;
_chemical_formula_sum "Si O2"
_cell_formula_units_Z 88
_cell_length_a 18.413575
_cell_length_b 27.591121
_cell_length_c 9.165194
_cell_angle_alpha 90.000000
_cell_angle_beta 90.000000
_cell_angle_gamma 90.000000
_cell_volume 4656.387589
_symmetry_space_group_name_H-M "I M M M"
_symmetry_group_IT_number 71
_symmetry_cell_setting 'orthorhombic'
loop_
_space_group_symop_operation_xyz
x,y,z
-x,-y,z
x,-y,-z
-x,y,-z
-x,-y,-z
x,y,-z
-x,y,z
x,-y,z
1/2+x,1/2+y,1/2+z
1/2-x,1/2-y,1/2+z
1/2+x,1/2-y,1/2-z
1/2-x,1/2+y,1/2-z
1/2-x,1/2-y,1/2-z
1/2+x,1/2+y,1/2-z
1/2-x,1/2+y,1/2+z
1/2+x,1/2-y,1/2+z
loop_
_atom_site_type_symbol
_atom_site_label
_atom_site_fract_x
_atom_site_fract_y
_atom_site_fract_z
Si Si1 0.000000 0.940727 0.831332
Si Si2 0.585155 0.752349 0.166866
Si Si3 0.415294 0.144160 0.326128
Si Si4 0.220004 0.604611 0.669736
Si Si5 0.795838 0.209014 0.831656
Si Si6 0.146523 0.941750 0.666565
O O1 0.073763 0.924904 0.750372
O O2 0.000000 0.000000 0.830291
O O3 0.000000 0.925283 0.000000
O O4 0.500000 0.742339 0.164656
O O5 0.595343 0.802710 0.254221
O O6 0.628372 0.710086 0.246914
O O7 0.610930 0.758933 0.000000
O O8 0.403331 0.146797 0.500000
O O9 0.500000 0.130822 0.300752
O O10 0.357017 0.108742 0.251575
O O11 0.210996 0.591070 0.500000
O O12 0.254787 0.658390 0.675288
O O13 0.280050 0.572245 0.749780
O O14 0.750000 0.250000 0.750000
O O15 0.806772 0.222101 0.000000
O O16 0.147907 0.923356 0.500000
O O17 0.142159 0.000000 0.661315
#
# Coordination Sequence:
#
# PCOD9521335 Si02
#       6
#     8  16  16  16  16  16
#     4   9  17  33  59  87 115 147 183 225 273 327
#     4  10  20  34  52  74 103 142 186 228 272 322
#     4  10  20  34  55  81 108 143 186 230 275 326
#     4  11  23  37  56  83 112 147 186 227 280 334
#     4  11  22  35  53  77 108 146 184 226 274 324
#     4  10  21  38  61  87 114 146 185 229 277 329
#
# _framework density 18.898769000000001
#
# number of rings (size 3 to 8) (size 9 to 14) (size 15 to 20)
#    0.000    1.727    1.818    3.000    0.000    6.545 
#    1.636    0.000    0.000    0.545    0.000    3.818 
#    0.000    0.000    0.000    0.000    0.000    0.000 
#
# Total GULP energy -245703.605744 kJ/mol
# GULP energy per Si atom -5584.172858 kJ/mol
# Density = 1.885575 g / cm^3
# Si number density = 18.898769 Si / 1000 Ang^3
#
#
#
# Elastic Constant Matrix: (Units=GPa)
#
#
# Indices 1 2 3 4 5 6 
#
# 1 136.1699 11.9389 85.8178 0.0000 0.0000 0.0000
# 2 11.9389 8.5542 19.9057 0.0000 0.0000 0.0000
# 3 85.8178 19.9057 176.0022 0.0000 0.0000 0.0000
# 4 0.0000 0.0000 0.0000 22.4233 0.0000 0.0000
# 5 0.0000 0.0000 0.0000 0.0000 38.3908 0.0000
# 6 0.0000 0.0000 0.0000 0.0000 0.0000 33.1518
#
#
#
# Elastic Compliance Matrix: (Units=1/GPa)
#
#
# Indices 1 2 3 4 5 6 
#
# 1 0.010691 -0.003788 -0.004785 0.000000 0.000000 0.000000
# 2 -0.003788 0.159999 -0.016249 0.000000 0.000000 0.000000
# 3 -0.004785 -0.016249 0.009852 0.000000 0.000000 0.000000
# 4 0.000000 0.000000 0.000000 0.044597 0.000000 0.000000
# 5 0.000000 0.000000 0.000000 0.000000 0.026048 0.000000
# 6 0.000000 0.000000 0.000000 0.000000 0.000000 0.030164
#
#
# Mechanical properties :
#
#
# Convention : Reuss Voigt Hill
#
# Bulk Modulus (GPa) = 7.63939 61.78345 34.71142
# Shear Modulus (GPa) = 13.34659 32.33077 22.83868
#
# Velocity S-wave (km/s) = 2.66035 4.14059 3.48008
# Velocity P-wave (km/s) = 3.67256 7.45802 5.87834
#
# Compressibility (1/GPa) = 0.13090048
#
# Stress axis : x y z
#
# Youngs Moduli (GPa) = 93.53440 6.25003 101.49757
#
# Poissons Ratio (x) = 0.02367 0.48563
# Poissons Ratio (y) = 0.35427 1.64923
# Poissons Ratio (z) = 0.44753 0.10156
#
# Static dielectric constant tensor:
#      x y z
#    x 1.700800 0.000000 0.000000 
#    y 0.000000 1.641510 0.000000 
#    z 0.000000 0.000000 1.658920 
# 
# From -- ./inp_files/8767.got.cif
#   From: 2010.05.17/outbox.cif.g08.bks.cpg/sg71_5_cif.got.tgz:8767.got - 2010.06.03 16:22:01.
