data_PCOD9521876
_publ_section_title
;
Structure prediction by ZEFSAII (Michael W. Deem and Ramdas Pophale) SiO2 
 PCOD9521876
Probable space group: I M M M
;
_chemical_formula_sum "Si O2"
_cell_formula_units_Z 88
_cell_length_a 8.771925
_cell_length_b 23.191992
_cell_length_c 24.925621
_cell_angle_alpha 90.000000
_cell_angle_beta 90.000000
_cell_angle_gamma 90.000000
_cell_volume 5070.828815
_symmetry_space_group_name_H-M "I M M M"
_symmetry_group_IT_number 71
_symmetry_cell_setting 'orthorhombic'
loop_
_space_group_symop_operation_xyz
x,y,z
-x,-y,z
x,-y,-z
-x,y,-z
-x,-y,-z
x,y,-z
-x,y,z
x,-y,z
1/2+x,1/2+y,1/2+z
1/2-x,1/2-y,1/2+z
1/2+x,1/2-y,1/2-z
1/2-x,1/2+y,1/2-z
1/2-x,1/2-y,1/2-z
1/2+x,1/2+y,1/2-z
1/2-x,1/2+y,1/2+z
1/2+x,1/2-y,1/2+z
loop_
_atom_site_type_symbol
_atom_site_label
_atom_site_fract_x
_atom_site_fract_y
_atom_site_fract_z
Si Si1 0.682251 0.567899 0.736209
Si Si2 0.814590 0.500000 0.438432
Si Si3 0.817538 0.218878 0.062576
Si Si4 0.316774 0.886779 0.128190
Si Si5 0.182488 0.155171 0.437637
Si Si6 0.182504 0.432621 0.147825
O O1 0.500000 0.573798 0.736625
O O2 0.719565 0.500000 0.727175
O O3 0.753851 0.603810 0.687850
O O4 0.749416 0.583621 0.794175
O O5 0.761686 0.500000 0.500000
O O6 0.767335 0.557437 0.406871
O O7 0.000000 0.500000 0.439230
O O8 0.746875 0.170162 0.100113
O O9 0.750980 0.281951 0.074944
O O10 0.000000 0.219759 0.067827
O O11 0.779816 0.206236 0.000000
O O12 0.500000 0.885286 0.129081
O O13 0.220345 0.142471 0.500000
O O14 0.250222 0.107637 0.398181
O O15 0.000000 0.157111 0.432638
O O16 0.221720 0.500000 0.138404
O O17 0.000000 0.427669 0.149353
#
# Coordination Sequence:
#
# PCOD9521876 Si02
#       6
#    16   8  16  16  16  16
#     4  10  20  35  55  79 111 148 187 230 278 329
#     4   9  18  30  47  75 109 143 182 231 278 321
#     4  10  21  37  56  79 110 148 188 230 278 331
#     4  11  20  33  54  79 110 147 190 233 278 330
#     4  10  21  38  60  85 113 146 183 223 272 330
#     4  10  21  37  59  86 115 146 182 223 272 329
#
# _framework density 17.354164999999998
#
# number of rings (size 3 to 8) (size 9 to 14) (size 15 to 20)
#    0.000    1.909    0.909    3.273    0.000    5.091 
#    0.000    2.727    0.000    2.182    0.000    0.000 
#    0.000    0.000    0.000    0.000    0.000    0.000 
#
# Total GULP energy -245761.349166 kJ/mol
# GULP energy per Si atom -5585.485208 kJ/mol
# Density = 1.731467 g / cm^3
# Si number density = 17.354165 Si / 1000 Ang^3
#
#
#
# Elastic Constant Matrix: (Units=GPa)
#
#
# Indices 1 2 3 4 5 6 
#
# 1 66.5052 58.7922 65.1090 0.0000 0.0000 0.0000
# 2 58.7922 127.2472 117.8789 0.0000 0.0000 0.0000
# 3 65.1090 117.8789 158.7747 0.0000 0.0000 0.0000
# 4 0.0000 0.0000 0.0000 24.1683 0.0000 0.0000
# 5 0.0000 0.0000 0.0000 0.0000 30.5823 0.0000
# 6 0.0000 0.0000 0.0000 0.0000 0.0000 30.6380
#
#
#
# Elastic Compliance Matrix: (Units=1/GPa)
#
#
# Indices 1 2 3 4 5 6 
#
# 1 0.026987 -0.007100 -0.005795 0.000000 0.000000 0.000000
# 2 -0.007100 0.027038 -0.017162 0.000000 0.000000 0.000000
# 3 -0.005795 -0.017162 0.021416 0.000000 0.000000 0.000000
# 4 0.000000 0.000000 0.000000 0.041377 0.000000 0.000000
# 5 0.000000 0.000000 0.000000 0.000000 0.032699 0.000000
# 6 0.000000 0.000000 0.000000 0.000000 0.000000 0.032639
#
#
# Mechanical properties :
#
#
# Convention : Reuss Voigt Hill
#
# Bulk Modulus (GPa) = 65.24883 92.89859 79.07371
# Shear Modulus (GPa) = 20.21200 24.46085 22.33643
#
# Velocity S-wave (km/s) = 3.41644 3.75842 3.59150
# Velocity P-wave (km/s) = 7.29676 8.51360 7.92856
#
# Compressibility (1/GPa) = 0.01532595
#
# Stress axis : x y z
#
# Youngs Moduli (GPa) = 37.05552 36.98533 46.69393
#
# Poissons Ratio (x) = 0.26261 0.27059
# Poissons Ratio (y) = 0.26311 0.80136
# Poissons Ratio (z) = 0.21473 0.63474
#
# Static dielectric constant tensor:
#      x y z
#    x 1.574550 0.000000 0.000000 
#    y 0.000000 1.560200 0.000000 
#    z 0.000000 0.000000 1.567910 
# 
# From -- ./inp_files/10375.got.cif
#   From: 2010.05.17/outbox.cif.g08.bks.cpg/sg71_6_cif.got.tgz:10375.got - 2010.06.03 16:22:01.
