data_PCOD9521480
_publ_section_title
;
Structure prediction by ZEFSAII (Michael W. Deem and Ramdas Pophale) SiO2 
 PCOD9521480
Probable space group: I M M M
;
_chemical_formula_sum "Si O2"
_cell_formula_units_Z 96
_cell_length_a 13.713703
_cell_length_b 15.261799
_cell_length_c 21.547791
_cell_angle_alpha 90.000000
_cell_angle_beta 90.000000
_cell_angle_gamma 90.000000
_cell_volume 4509.861697
_symmetry_space_group_name_H-M "I M M M"
_symmetry_group_IT_number 71
_symmetry_cell_setting 'orthorhombic'
loop_
_space_group_symop_operation_xyz
x,y,z
-x,-y,z
x,-y,-z
-x,y,-z
-x,-y,-z
x,y,-z
-x,y,z
x,-y,z
1/2+x,1/2+y,1/2+z
1/2-x,1/2-y,1/2+z
1/2+x,1/2-y,1/2-z
1/2-x,1/2+y,1/2-z
1/2-x,1/2-y,1/2-z
1/2+x,1/2+y,1/2-z
1/2-x,1/2+y,1/2+z
1/2+x,1/2-y,1/2+z
loop_
_atom_site_type_symbol
_atom_site_label
_atom_site_fract_x
_atom_site_fract_y
_atom_site_fract_z
Si Si1 0.883603 0.904027 0.730766
Si Si2 0.112319 0.661745 0.068705
Si Si3 0.383168 0.769472 0.299336
Si Si4 0.618936 0.101647 0.810812
Si Si5 0.117227 0.288962 0.432346
Si Si6 0.686935 0.593627 0.091911
O O1 0.852063 0.823402 0.772497
O O2 0.828159 0.902485 0.665772
O O3 0.000000 0.893807 0.716748
O O4 0.871417 0.000000 0.759712
O O5 0.138241 0.720481 0.128176
O O6 0.199909 0.593362 0.072682
O O7 0.000000 0.629823 0.076423
O O8 0.116802 0.702966 0.000000
O O9 0.500000 0.769641 0.296084
O O10 0.353903 0.847824 0.252789
O O11 0.500000 0.100933 0.812439
O O12 0.651130 0.157412 0.871490
O O13 0.650179 0.000000 0.811739
O O14 0.150698 0.323396 0.500000
O O15 0.143967 0.186039 0.430077
O O16 0.000000 0.294392 0.431018
O O17 0.642346 0.500000 0.072081
#
# Coordination Sequence:
#
# PCOD9521480 Si02
#       6
#    16  16  16  16  16  16
#     4   9  17  32  58  92 126 154 182 223 280 349
#     4  10  23  41  59  80 108 148 199 252 301 343
#     4   9  17  34  60  84 111 149 189 234 289 340
#     4   9  17  31  52  79 111 149 192 231 273 333
#     4  10  20  34  53  80 117 156 190 230 283 342
#     4  11  22  36  57  84 115 152 192 233 282 343
#
# _framework density 21.286683
#
# number of rings (size 3 to 8) (size 9 to 14) (size 15 to 20)
#    0.000    2.333    1.667    1.000    0.000    4.333 
#    0.000    5.000    0.000    0.500    0.000    3.500 
#    0.000    0.000    0.000    0.000    0.000    0.167 
#
# Total GULP energy -267680.711555 kJ/mol
# GULP energy per Si atom -5576.681491 kJ/mol
# Density = 2.123823 g / cm^3
# Si number density = 21.286683 Si / 1000 Ang^3
#
#
#
# Elastic Constant Matrix: (Units=GPa)
#
#
# Indices 1 2 3 4 5 6 
#
# 1 71.7694 5.7887 24.1512 0.0000 0.0000 0.0000
# 2 5.7887 148.7333 95.1383 0.0000 0.0000 0.0000
# 3 24.1512 95.1383 189.2418 0.0000 0.0000 0.0000
# 4 0.0000 0.0000 0.0000 -131.1373 0.0000 0.0000
# 5 0.0000 0.0000 0.0000 0.0000 18.2135 0.0000
# 6 0.0000 0.0000 0.0000 0.0000 0.0000 3.2589
#
#
#
# Elastic Compliance Matrix: (Units=1/GPa)
#
#
# Indices 1 2 3 4 5 6 
#
# 1 0.014644 0.000922 -0.002332 0.000000 0.000000 0.000000
# 2 0.000922 0.009968 -0.005129 0.000000 0.000000 0.000000
# 3 -0.002332 -0.005129 0.008161 0.000000 0.000000 0.000000
# 4 0.000000 0.000000 0.000000 -0.007626 0.000000 0.000000
# 5 0.000000 0.000000 0.000000 0.000000 0.054904 0.000000
# 6 0.000000 0.000000 0.000000 0.000000 0.000000 0.306852
#
#
# Mechanical properties :
#
#
# Convention : Reuss Voigt Hill
#
# Bulk Modulus (GPa) = 50.77724 73.32235 62.04980
# Shear Modulus (GPa) = 12.29869 -2.95523 4.67173
#
# Velocity S-wave (km/s) = 2.40628 -1.17954 1.48305
# Velocity P-wave (km/s) = 5.62370 5.71532 5.66970
#
# Compressibility (1/GPa) = 0.01969386
#
# Stress axis : x y z
#
# Youngs Moduli (GPa) = 68.28726 100.31646 122.54144
#
# Poissons Ratio (x) = -0.09249 0.28582
# Poissons Ratio (y) = -0.06296 0.62853
# Poissons Ratio (z) = 0.15927 0.51454
#
# Static dielectric constant tensor:
#      x y z
#    x 1.814080 0.000000 0.000000 
#    y 0.000000 1.761350 0.000000 
#    z 0.000000 0.000000 1.790930 
# 
# From -- ./inp_files/52999.got.cif
#   From: 2010.05.17/outbox.cif.g08.bks.cpg/sg71_27_cif.got.tgz:52999.got - 2010.06.03 16:22:01.
