data_PCOD9521935
_publ_section_title
;
Structure prediction by ZEFSAII (Michael W. Deem and Ramdas Pophale) SiO2 
 PCOD9521935
Probable space group: I M M M
;
_chemical_formula_sum "Si O2"
_cell_formula_units_Z 72
_cell_length_a 7.834444
_cell_length_b 15.692075
_cell_length_c 27.583536
_cell_angle_alpha 90.000000
_cell_angle_beta 90.000000
_cell_angle_gamma 90.000000
_cell_volume 3391.083584
_symmetry_space_group_name_H-M "I M M M"
_symmetry_group_IT_number 71
_symmetry_cell_setting 'orthorhombic'
loop_
_space_group_symop_operation_xyz
x,y,z
-x,-y,z
x,-y,-z
-x,y,-z
-x,-y,-z
x,y,-z
-x,y,z
x,-y,z
1/2+x,1/2+y,1/2+z
1/2-x,1/2-y,1/2+z
1/2+x,1/2-y,1/2-z
1/2-x,1/2+y,1/2-z
1/2-x,1/2-y,1/2-z
1/2+x,1/2+y,1/2-z
1/2-x,1/2+y,1/2+z
1/2+x,1/2-y,1/2+z
loop_
_atom_site_type_symbol
_atom_site_label
_atom_site_fract_x
_atom_site_fract_y
_atom_site_fract_z
Si Si1 0.295489 0.500000 0.055676
Si Si2 0.297690 0.850544 0.946039
Si Si3 0.794455 0.326505 0.785841
Si Si4 0.790802 0.500000 0.735279
Si Si5 0.297253 0.821369 0.604344
Si Si6 0.790652 0.500000 0.376209
O O1 0.500000 0.500000 0.054531
O O2 0.238527 0.585440 0.082952
O O3 0.232470 0.500000 0.000000
O O4 0.500000 0.866980 0.949049
O O5 0.274589 0.753925 0.928768
O O6 0.232305 0.916844 0.905946
O O7 0.225392 0.863582 0.000000
O O8 0.750000 0.250000 0.750000
O O9 0.733661 0.415312 0.762996
O O10 0.729881 0.313976 0.840594
O O11 0.000000 0.331536 0.788724
O O12 0.734477 0.500000 0.679434
O O13 0.000000 0.500000 0.735302
O O14 0.500000 0.809167 0.605530
O O15 0.000000 0.500000 0.374694
#
# Coordination Sequence:
#
# PCOD9521935 Si02
#       6
#     8  16  16   8  16   8
#     4  11  24  41  61  85 112 147 194 241 283 337
#     4  10  20  35  56  82 111 144 186 233 278 331
#     4  10  21  37  57  82 112 146 184 226 273 328
#     4   9  17  32  54  77 104 139 176 216 267 323
#     4  11  23  38  57  83 116 151 186 230 286 341
#     4   9  17  31  55  83 108 139 180 227 276 323
#
# _framework density 21.232150000000001
#
# number of rings (size 3 to 8) (size 9 to 14) (size 15 to 20)
#    0.000    1.889    0.000    4.000    0.000   10.667 
#    0.000    1.111    0.000    5.333    0.000    0.000 
#    0.000    0.000    0.000    0.000    0.000    0.000 
#
# Total GULP energy -201243.542088 kJ/mol
# GULP energy per Si atom -5590.098391 kJ/mol
# Density = 2.118382 g / cm^3
# Si number density = 21.232150 Si / 1000 Ang^3
#
#
#
# Elastic Constant Matrix: (Units=GPa)
#
#
# Indices 1 2 3 4 5 6 
#
# 1 23.0379 -17.1985 0.6083 0.0000 0.0000 0.0000
# 2 -17.1985 58.3018 -16.6621 0.0000 0.0000 0.0000
# 3 0.6083 -16.6621 100.9947 0.0000 0.0000 0.0000
# 4 0.0000 0.0000 0.0000 43.0737 0.0000 0.0000
# 5 0.0000 0.0000 0.0000 0.0000 17.7885 0.0000
# 6 0.0000 0.0000 0.0000 0.0000 0.0000 7.1855
#
#
#
# Elastic Compliance Matrix: (Units=1/GPa)
#
#
# Indices 1 2 3 4 5 6 
#
# 1 0.056269 0.017319 0.002518 0.000000 0.000000 0.000000
# 2 0.017319 0.023331 0.003745 0.000000 0.000000 0.000000
# 3 0.002518 0.003745 0.010504 0.000000 0.000000 0.000000
# 4 0.000000 0.000000 0.000000 0.023216 0.000000 0.000000
# 5 0.000000 0.000000 0.000000 0.000000 0.056216 0.000000
# 6 0.000000 0.000000 0.000000 0.000000 0.000000 0.139169
#
#
# Mechanical properties :
#
#
# Convention : Reuss Voigt Hill
#
# Bulk Modulus (GPa) = 7.28502 12.86997 10.07749
# Shear Modulus (GPa) = 16.27086 27.98200 22.12643
#
# Velocity S-wave (km/s) = 2.77127 3.63424 3.23169
# Velocity P-wave (km/s) = 3.69845 4.86672 4.32224
#
# Compressibility (1/GPa) = 0.13726792
#
# Stress axis : x y z
#
# Youngs Moduli (GPa) = 17.77176 42.86107 95.20025
#
# Poissons Ratio (x) = -0.74229 -0.23975
# Poissons Ratio (y) = -0.30778 -0.35651
# Poissons Ratio (z) = -0.04476 -0.16051
#
# Static dielectric constant tensor:
#      x y z
#    x 1.788990 0.000000 0.000000 
#    y 0.000000 0.899000 0.000000 
#    z 0.000000 0.000000 1.756580 
# 
# From -- ./inp_files/6121.got.cif
#   From: 2010.05.17/outbox.cif.g08.bks.cpg/sg71_4_cif.got.tgz:6121.got - 2010.06.03 16:22:01.
