data_PCOD9521853
_publ_section_title
;
Structure prediction by ZEFSAII (Michael W. Deem and Ramdas Pophale) SiO2 
 PCOD9521853
Probable space group: I M M M
;
_chemical_formula_sum "Si O2"
_cell_formula_units_Z 88
_cell_length_a 13.832876
_cell_length_b 28.620269
_cell_length_c 11.128473
_cell_angle_alpha 90.000000
_cell_angle_beta 90.000000
_cell_angle_gamma 90.000000
_cell_volume 4405.769496
_symmetry_space_group_name_H-M "I M M M"
_symmetry_group_IT_number 71
_symmetry_cell_setting 'orthorhombic'
loop_
_space_group_symop_operation_xyz
x,y,z
-x,-y,z
x,-y,-z
-x,y,-z
-x,-y,-z
x,y,-z
-x,y,z
x,-y,z
1/2+x,1/2+y,1/2+z
1/2-x,1/2-y,1/2+z
1/2+x,1/2-y,1/2-z
1/2-x,1/2+y,1/2-z
1/2-x,1/2-y,1/2-z
1/2+x,1/2+y,1/2-z
1/2-x,1/2+y,1/2+z
1/2+x,1/2-y,1/2+z
loop_
_atom_site_type_symbol
_atom_site_label
_atom_site_fract_x
_atom_site_fract_y
_atom_site_fract_z
Si Si1 0.610376 0.500000 0.855319
Si Si2 0.117051 0.551200 0.862939
Si Si3 0.117102 0.103689 0.639524
Si Si4 0.109584 0.263298 0.861959
Si Si5 0.611102 0.857440 0.792127
Si Si6 0.312720 0.664094 0.633734
O O1 0.500000 0.500000 0.807036
O O2 0.652984 0.448974 0.827784
O O3 0.604313 0.500000 0.000000
O O4 0.147862 0.500000 0.816402
O O5 0.136120 0.596996 0.786562
O O6 0.000000 0.549754 0.868828
O O7 0.152147 0.555719 0.000000
O O8 0.146698 0.115474 0.500000
O O9 0.146140 0.137502 0.748939
O O10 0.000000 0.101849 0.635946
O O11 0.115532 0.310151 0.786098
O O12 0.177763 0.219316 0.838825
O O13 0.000000 0.244680 0.846980
O O14 0.122908 0.277372 0.000000
O O15 0.500000 0.862062 0.836934
O O16 0.701615 0.850944 0.877307
O O17 0.358712 0.656557 0.500000
#
# Coordination Sequence:
#
# PCOD9521853 Si02
#       6
#     8  16  16  16  16  16
#     4   7  12  28  55  83 110 141 178 226 283 339
#     4   8  14  27  50  79 106 132 172 232 293 338
#     4   9  18  35  60  87 114 145 185 234 288 346
#     4   9  18  34  57  83 110 143 185 236 296 354
#     4  10  20  35  55  77 107 151 200 241 280 333
#     4  11  23  37  54  81 118 156 191 233 284 339
#
# _framework density 19.97381
#
# number of rings (size 3 to 8) (size 9 to 14) (size 15 to 20)
#    0.000    2.818    0.000    3.273    0.000    5.091 
#    1.636    1.364    0.000    2.727    0.000    2.545 
#    0.000    0.000    0.000    0.000    0.000    0.000 
#
# Total GULP energy -245004.184780 kJ/mol
# GULP energy per Si atom -5568.276927 kJ/mol
# Density = 1.992835 g / cm^3
# Si number density = 19.973810 Si / 1000 Ang^3
#
#
#
# Elastic Constant Matrix: (Units=GPa)
#
#
# Indices 1 2 3 4 5 6 
#
# 1 64.0912 27.3197 29.2393 -0.0001 0.0000 0.0000
# 2 27.3197 112.3492 66.0558 -0.0001 0.0000 0.0000
# 3 29.2393 66.0558 103.0940 0.0009 0.0000 0.0000
# 4 -0.0001 -0.0001 0.0009 55.7171 0.0001 0.0001
# 5 0.0000 0.0000 0.0000 0.0001 18.9815 0.0000
# 6 0.0000 0.0000 0.0000 0.0001 0.0000 32.7415
#
#
#
# Elastic Compliance Matrix: (Units=1/GPa)
#
#
# Indices 1 2 3 4 5 6 
#
# 1 0.018266 -0.002239 -0.003746 0.000000 0.000000 0.000000
# 2 -0.002239 0.014555 -0.008691 0.000000 0.000000 0.000000
# 3 -0.003746 -0.008691 0.016331 0.000000 0.000000 0.000000
# 4 0.000000 0.000000 0.000000 0.017948 0.000000 0.000000
# 5 0.000000 0.000000 0.000000 0.000000 0.052683 0.000000
# 6 0.000000 0.000000 0.000000 0.000000 0.000000 0.030542
#
#
# Mechanical properties :
#
#
# Convention : Reuss Voigt Hill
#
# Bulk Modulus (GPa) = 50.50478 58.30710 54.40594
# Shear Modulus (GPa) = 26.84171 31.94932 29.39552
#
# Velocity S-wave (km/s) = 3.66983 4.00379 3.84044
# Velocity P-wave (km/s) = 6.58006 7.11540 6.85296
#
# Compressibility (1/GPa) = 0.01980011
#
# Stress axis : x y z
#
# Youngs Moduli (GPa) = 54.74583 68.70416 61.23414
#
# Poissons Ratio (x) = 0.15386 0.22937
# Poissons Ratio (y) = 0.12260 0.53218
# Poissons Ratio (z) = 0.20506 0.59710
#
# Static dielectric constant tensor:
#      x y z
#    x 1.807980 0.000000 0.000000 
#    y 0.000000 1.706070 0.000000 
#    z 0.000000 0.000000 1.706300 
# 
# From -- ./inp_files/22293.got.cif
#   From: 2010.05.17/outbox.cif.g08.bks.cpg/sg71_12_cif.got.tgz:22293.got - 2010.06.03 16:22:01.
