data_PCOD9521171
_publ_section_title
;
Structure prediction by ZEFSAII (Michael W. Deem and Ramdas Pophale) SiO2 
 PCOD9521171
Probable space group: I M M M
;
_chemical_formula_sum "Si O2"
_cell_formula_units_Z 96
_cell_length_a 27.421658
_cell_length_b 7.802577
_cell_length_c 20.392272
_cell_angle_alpha 90.000000
_cell_angle_beta 90.000000
_cell_angle_gamma 90.000000
_cell_volume 4363.122320
_symmetry_space_group_name_H-M "I M M M"
_symmetry_group_IT_number 71
_symmetry_cell_setting 'orthorhombic'
loop_
_space_group_symop_operation_xyz
x,y,z
-x,-y,z
x,-y,-z
-x,y,-z
-x,-y,-z
x,y,-z
-x,y,z
x,-y,z
1/2+x,1/2+y,1/2+z
1/2-x,1/2-y,1/2+z
1/2+x,1/2-y,1/2-z
1/2-x,1/2+y,1/2-z
1/2-x,1/2-y,1/2-z
1/2+x,1/2+y,1/2-z
1/2-x,1/2+y,1/2+z
1/2+x,1/2-y,1/2+z
loop_
_atom_site_type_symbol
_atom_site_label
_atom_site_fract_x
_atom_site_fract_y
_atom_site_fract_z
Si Si1 0.053147 0.799931 0.841729
Si Si2 0.253956 0.791861 0.924595
Si Si3 0.557517 0.208228 0.071862
Si Si4 0.356992 0.291645 0.424326
Si Si5 0.701936 0.696348 0.789970
Si Si6 0.095209 0.302747 0.709269
O O1 0.099802 0.724168 0.879073
O O2 0.064558 0.790129 0.764885
O O3 0.000000 0.723762 0.856092
O O4 0.051190 0.000000 0.860807
O O5 0.198223 0.735971 0.909680
O O6 0.287138 0.720506 0.867021
O O7 0.256145 0.000000 0.921519
O O8 0.265419 0.743902 0.000000
O O9 0.500000 0.247991 0.078675
O O10 0.585862 0.267849 0.136221
O O11 0.561632 0.000000 0.070338
O O12 0.574131 0.270146 0.000000
O O13 0.367148 0.250543 0.500000
O O14 0.355363 0.500000 0.418845
O O15 0.691993 0.500000 0.773759
O O16 0.750000 0.750000 0.750000
O O17 0.652361 0.794494 0.774077
O O18 0.079026 0.500000 0.709886
#
# Coordination Sequence:
#
# PCOD9521171 Si02
#       6
#    16  16  16  16  16  16
#     4  10  20  33  52  80 113 147 183 227 276 324
#     4   9  18  35  59  84 112 149 191 231 273 328
#     4   8  15  30  53  80 108 139 178 222 264 310
#     4   8  15  30  53  79 106 139 180 223 264 311
#     4  12  25  40  58  81 111 146 187 236 288 342
#     4  11  22  36  56  81 108 142 184 230 281 335
#
# _framework density 22.002592
#
# number of rings (size 3 to 8) (size 9 to 14) (size 15 to 20)
#    0.000    2.333    0.000    5.000    0.000    3.667 
#    0.000    3.333    0.000    3.000    0.000    7.000 
#    0.000    0.000    0.000    0.000    0.000    0.000 
#
# Total GULP energy -268057.390624 kJ/mol
# GULP energy per Si atom -5584.528971 kJ/mol
# Density = 2.195251 g / cm^3
# Si number density = 22.002592 Si / 1000 Ang^3
#
#
#
# Elastic Constant Matrix: (Units=GPa)
#
#
# Indices 1 2 3 4 5 6 
#
# 1 45.4487 -9.3600 7.6369 0.0000 0.0000 0.0000
# 2 -9.3600 33.1769 -8.0978 0.0000 0.0000 0.0000
# 3 7.6369 -8.0978 36.1218 0.0000 0.0000 0.0000
# 4 0.0000 0.0000 0.0000 20.8463 0.0000 0.0000
# 5 0.0000 0.0000 0.0000 0.0000 36.7278 0.0000
# 6 0.0000 0.0000 0.0000 0.0000 0.0000 8.8358
#
#
#
# Elastic Compliance Matrix: (Units=1/GPa)
#
#
# Indices 1 2 3 4 5 6 
#
# 1 0.023827 0.005811 -0.003735 0.000000 0.000000 0.000000
# 2 0.005811 0.033303 0.006237 0.000000 0.000000 0.000000
# 3 -0.003735 0.006237 0.029872 0.000000 0.000000 0.000000
# 4 0.000000 0.000000 0.000000 0.047970 0.000000 0.000000
# 5 0.000000 0.000000 0.000000 0.000000 0.027227 0.000000
# 6 0.000000 0.000000 0.000000 0.000000 0.000000 0.113176
#
#
# Mechanical properties :
#
#
# Convention : Reuss Voigt Hill
#
# Bulk Modulus (GPa) = 9.64985 10.56729 10.10857
# Shear Modulus (GPa) = 17.04781 21.58653 19.31717
#
# Velocity S-wave (km/s) = 2.78656 3.13563 2.96624
# Velocity P-wave (km/s) = 3.84038 4.23353 4.04174
#
# Compressibility (1/GPa) = 0.10362858
#
# Stress axis : x y z
#
# Youngs Moduli (GPa) = 41.96904 30.02712 33.47608
#
# Poissons Ratio (x) = -0.17448 0.12503
# Poissons Ratio (y) = -0.24386 -0.20881
# Poissons Ratio (z) = 0.15675 -0.18729
#
# Static dielectric constant tensor:
#      x y z
#    x 1.808040 0.000000 0.000000 
#    y 0.000000 1.845150 0.000000 
#    z 0.000000 0.000000 1.804850 
# 
# From -- ./inp_files/14851.got.cif
#   From: 2010.05.17/outbox.cif.g08.bks.cpg/sg71_8_cif.got.tgz:14851.got - 2010.06.03 16:22:01.
