data_PCOD9521611
_publ_section_title
;
Structure prediction by ZEFSAII (Michael W. Deem and Ramdas Pophale) SiO2 
 PCOD9521611
Probable space group: I M M M
;
_chemical_formula_sum "Si O2"
_cell_formula_units_Z 104
_cell_length_a 28.360972
_cell_length_b 20.995459
_cell_length_c 7.462432
_cell_angle_alpha 90.000000
_cell_angle_beta 90.000000
_cell_angle_gamma 90.000000
_cell_volume 4443.517260
_symmetry_space_group_name_H-M "I M M M"
_symmetry_group_IT_number 71
_symmetry_cell_setting 'orthorhombic'
loop_
_space_group_symop_operation_xyz
x,y,z
-x,-y,z
x,-y,-z
-x,y,-z
-x,-y,-z
x,y,-z
-x,y,z
x,-y,z
1/2+x,1/2+y,1/2+z
1/2-x,1/2-y,1/2+z
1/2+x,1/2-y,1/2-z
1/2-x,1/2+y,1/2-z
1/2-x,1/2-y,1/2-z
1/2+x,1/2+y,1/2-z
1/2-x,1/2+y,1/2+z
1/2+x,1/2-y,1/2+z
loop_
_atom_site_type_symbol
_atom_site_label
_atom_site_fract_x
_atom_site_fract_y
_atom_site_fract_z
Si Si1 0.902953 0.297356 0.793369
Si Si2 0.415239 0.335008 0.288308
Si Si3 0.000000 0.928227 0.286054
Si Si4 0.268284 0.068427 0.782171
Si Si5 0.341479 0.430991 0.718231
Si Si6 0.555653 0.928901 0.717545
Si Si7 0.796332 0.706711 0.286364
O O1 0.927598 0.234497 0.713334
O O2 0.914777 0.367332 0.717027
O O3 0.847950 0.276710 0.786222
O O4 0.918061 0.303310 0.000000
O O5 0.407310 0.325078 0.500000
O O6 0.455325 0.387348 0.270909
O O7 0.369256 0.370267 0.212486
O O8 0.000000 0.931493 0.500000
O O9 0.000000 0.000000 0.214645
O O10 0.213179 0.070434 0.733235
O O11 0.289260 0.134454 0.718473
O O12 0.288163 0.000000 0.722017
O O13 0.270584 0.068873 0.000000
O O14 0.343292 0.429792 0.500000
O O15 0.361448 0.500000 0.774437
O O16 0.559049 0.931394 0.500000
O O17 0.500000 0.919984 0.760416
O O18 0.570031 0.000000 0.781369
O O19 0.800763 0.705566 0.500000
O O20 0.750000 0.750000 0.250000
#
# Coordination Sequence:
#
# PCOD9521611 Si02
#       7
#    16  16   8  16  16  16  16
#     4  10  21  35  56  85 113 143 189 240 284 333
#     4  10  20  34  55  80 105 137 183 233 270 316
#     4  11  25  41  55  77 112 147 174 212 271 329
#     4   8  15  29  50  76 104 137 179 225 269 314
#     4   8  13  24  45  71  96 124 166 220 268 306
#     4   8  15  30  54  83 115 150 187 232 289 349
#     4  11  22  36  55  79 114 154 191 232 284 341
#
# _framework density 23.404882000000001
#
# number of rings (size 3 to 8) (size 9 to 14) (size 15 to 20)
#    0.000    2.692    0.000    3.462    1.077    4.923 
#    0.000    0.000    0.000    1.385    0.000    3.231 
#    0.000    0.000    0.000    0.000    0.000    0.000 
#
# Total GULP energy -290065.791649 kJ/mol
# GULP energy per Si atom -5578.188301 kJ/mol
# Density = 2.335161 g / cm^3
# Si number density = 23.404882 Si / 1000 Ang^3
#
#
#
# Elastic Constant Matrix: (Units=GPa)
#
#
# Indices 1 2 3 4 5 6 
#
# 1 40.9909 49.5671 -9.7386 0.0000 0.0000 0.0000
# 2 49.5671 225.8787 10.2952 0.0000 0.0000 0.0000
# 3 -9.7386 10.2952 78.2393 0.0000 0.0000 0.0000
# 4 0.0000 0.0000 0.0000 -3.5456 0.0000 0.0000
# 5 0.0000 0.0000 0.0000 0.0000 -49.9881 0.0000
# 6 0.0000 0.0000 0.0000 0.0000 0.0000 38.4807
#
#
#
# Elastic Compliance Matrix: (Units=1/GPa)
#
#
# Indices 1 2 3 4 5 6 
#
# 1 0.035382 -0.008013 0.005458 0.000000 0.000000 0.000000
# 2 -0.008013 0.006269 -0.001822 0.000000 0.000000 0.000000
# 3 0.005458 -0.001822 0.013701 0.000000 0.000000 0.000000
# 4 0.000000 0.000000 0.000000 -0.282038 0.000000 0.000000
# 5 0.000000 0.000000 0.000000 0.000000 -0.020005 0.000000
# 6 0.000000 0.000000 0.000000 0.000000 0.000000 0.025987
#
#
# Mechanical properties :
#
#
# Convention : Reuss Voigt Hill
#
# Bulk Modulus (GPa) = 21.46038 49.48404 35.47221
# Shear Modulus (GPa) = -25.45590 16.65507 -4.40042
#
# Velocity S-wave (km/s) = -3.30150 2.67049 -1.37267
# Velocity P-wave (km/s) = 2.31174 5.54051 3.56041
#
# Compressibility (1/GPa) = 0.04659749
#
# Stress axis : x y z
#
# Youngs Moduli (GPa) = 28.26289 159.52500 72.98996
#
# Poissons Ratio (x) = 1.27829 -0.39841
# Poissons Ratio (y) = 0.22647 0.13301
# Poissons Ratio (z) = -0.15427 0.29070
#
# Static dielectric constant tensor:
#      x y z
#    x 2.802500 0.000000 0.000000 
#    y 0.000000 1.975300 0.000000 
#    z 0.000000 0.000000 1.873670 
# 
# From -- ./inp_files/15034.got.cif
#   From: 2010.05.17/outbox.cif.g08.bks.cpg/sg71_8_cif.got.tgz:15034.got - 2010.06.03 16:22:01.
