data_PCOD9521482
_publ_section_title
;
Structure prediction by ZEFSAII (Michael W. Deem and Ramdas Pophale) SiO2 
 PCOD9521482
Probable space group: I M M M
;
_chemical_formula_sum "Si O2"
_cell_formula_units_Z 96
_cell_length_a 13.966274
_cell_length_b 17.801311
_cell_length_c 22.422639
_cell_angle_alpha 90.000000
_cell_angle_beta 90.000000
_cell_angle_gamma 90.000000
_cell_volume 5574.671371
_symmetry_space_group_name_H-M "I M M M"
_symmetry_group_IT_number 71
_symmetry_cell_setting 'orthorhombic'
loop_
_space_group_symop_operation_xyz
x,y,z
-x,-y,z
x,-y,-z
-x,y,-z
-x,-y,-z
x,y,-z
-x,y,z
x,-y,z
1/2+x,1/2+y,1/2+z
1/2-x,1/2-y,1/2+z
1/2+x,1/2-y,1/2-z
1/2-x,1/2+y,1/2-z
1/2-x,1/2-y,1/2-z
1/2+x,1/2+y,1/2-z
1/2-x,1/2+y,1/2+z
1/2+x,1/2-y,1/2+z
loop_
_atom_site_type_symbol
_atom_site_label
_atom_site_fract_x
_atom_site_fract_y
_atom_site_fract_z
Si Si1 0.884288 0.850688 0.636977
Si Si2 0.616271 0.801760 0.931708
Si Si3 0.383875 0.500000 0.933143
Si Si4 0.222895 0.163391 0.759714
Si Si5 0.388717 0.088832 0.824903
Si Si6 0.388614 0.408911 0.500000
Si Si7 0.883983 0.088710 0.131732
O O1 0.854806 0.775540 0.601166
O O2 0.835534 0.857571 0.700926
O O3 0.000000 0.848156 0.643587
O O4 0.856910 0.924114 0.599953
O O5 0.500000 0.799637 0.935336
O O6 0.638891 0.869282 0.886401
O O7 0.651196 0.808377 0.000000
O O8 0.500000 0.500000 0.935255
O O9 0.346959 0.500000 0.000000
O O10 0.250000 0.250000 0.750000
O O11 0.320759 0.118688 0.772763
O O12 0.159156 0.141157 0.817176
O O13 0.500000 0.107114 0.812993
O O14 0.379497 0.000000 0.831942
O O15 0.387183 0.500000 0.500000
O O16 0.500000 0.385667 0.500000
O O17 0.350422 0.387342 0.434849
O O18 0.000000 0.091606 0.132766
O O19 0.858234 0.000000 0.141472
#
# Coordination Sequence:
#
# PCOD9521482 Si02
#       7
#    16  16   8  16  16   8  16
#     4  10  20  34  53  81 114 143 174 217 269 326
#     4   9  17  33  56  77 103 141 178 217 268 322
#     4   9  18  32  54  84 113 142 172 211 269 332
#     4  12  23  35  51  76 108 143 183 219 266 318
#     4  10  22  39  55  74 104 142 186 231 266 310
#     4   7  12  28  52  78 107 135 162 197 255 317
#     4   9  18  33  56  83 109 136 167 212 264 319
#
# _framework density 17.220745999999998
#
# number of rings (size 3 to 8) (size 9 to 14) (size 15 to 20)
#    0.000    2.333    1.667    2.500    2.333    3.000 
#    1.500    1.667    0.000    0.000    0.000    0.000 
#    0.000    0.667    0.000    0.000    0.000    1.000 
#
# Total GULP energy -267607.607923 kJ/mol
# GULP energy per Si atom -5575.158498 kJ/mol
# Density = 1.718155 g / cm^3
# Si number density = 17.220746 Si / 1000 Ang^3
#
#
#
# Elastic Constant Matrix: (Units=GPa)
#
#
# Indices 1 2 3 4 5 6 
#
# 1 59.8114 21.0695 34.8518 0.0000 0.0000 0.0000
# 2 21.0695 98.3777 65.0709 0.0000 0.0000 0.0000
# 3 34.8518 65.0709 155.7573 0.0000 0.0000 0.0000
# 4 0.0000 0.0000 0.0000 25.7164 0.0000 0.0000
# 5 0.0000 0.0000 0.0000 0.0000 21.7368 0.0000
# 6 0.0000 0.0000 0.0000 0.0000 0.0000 14.6858
#
#
#
# Elastic Compliance Matrix: (Units=1/GPa)
#
#
# Indices 1 2 3 4 5 6 
#
# 1 0.019448 -0.001778 -0.003609 0.000000 0.000000 0.000000
# 2 -0.001778 0.014209 -0.005538 0.000000 0.000000 0.000000
# 3 -0.003609 -0.005538 0.009541 0.000000 0.000000 0.000000
# 4 0.000000 0.000000 0.000000 0.038886 0.000000 0.000000
# 5 0.000000 0.000000 0.000000 0.000000 0.046005 0.000000
# 6 0.000000 0.000000 0.000000 0.000000 0.000000 0.068093
#
#
# Mechanical properties :
#
#
# Convention : Reuss Voigt Hill
#
# Bulk Modulus (GPa) = 46.84208 61.77008 54.30608
# Shear Modulus (GPa) = 22.20751 25.29142 23.74946
#
# Velocity S-wave (km/s) = 3.59497 3.83647 3.71768
# Velocity P-wave (km/s) = 6.67021 7.45467 7.07332
#
# Compressibility (1/GPa) = 0.02134833
#
# Stress axis : x y z
#
# Youngs Moduli (GPa) = 51.41787 70.37832 104.80597
#
# Poissons Ratio (x) = 0.12515 0.37823
# Poissons Ratio (y) = 0.09143 0.58043
# Poissons Ratio (z) = 0.18556 0.38977
#
# Static dielectric constant tensor:
#      x y z
#    x 1.617550 0.000000 0.000000 
#    y 0.000000 1.593530 0.000000 
#    z 0.000000 0.000000 1.587030 
# 
# From -- ./inp_files/34549.got.cif
#   From: 2010.05.17/outbox.cif.g08.bks.cpg/sg71_18_cif.got.tgz:34549.got - 2010.06.03 16:22:01.
