data_PCOD9521182
_publ_section_title
;
Structure prediction by ZEFSAII (Michael W. Deem and Ramdas Pophale) SiO2 
 PCOD9521182
Probable space group: I M M M
;
_chemical_formula_sum "Si O2"
_cell_formula_units_Z 104
_cell_length_a 32.035194
_cell_length_b 23.077221
_cell_length_c 7.368952
_cell_angle_alpha 90.000000
_cell_angle_beta 90.000000
_cell_angle_gamma 90.000000
_cell_volume 5447.742796
_symmetry_space_group_name_H-M "I M M M"
_symmetry_group_IT_number 71
_symmetry_cell_setting 'orthorhombic'
loop_
_space_group_symop_operation_xyz
x,y,z
-x,-y,z
x,-y,-z
-x,y,-z
-x,-y,-z
x,y,-z
-x,y,z
x,-y,z
1/2+x,1/2+y,1/2+z
1/2-x,1/2-y,1/2+z
1/2+x,1/2-y,1/2-z
1/2-x,1/2+y,1/2-z
1/2-x,1/2-y,1/2-z
1/2+x,1/2+y,1/2-z
1/2-x,1/2+y,1/2+z
1/2+x,1/2-y,1/2+z
loop_
_atom_site_type_symbol
_atom_site_label
_atom_site_fract_x
_atom_site_fract_y
_atom_site_fract_z
Si Si1 0.951398 0.161804 0.000000
Si Si2 0.580081 0.140888 0.792199
Si Si3 0.390323 0.432185 0.500000
Si Si4 0.397681 0.269286 0.781856
Si Si5 0.000000 0.432216 0.722365
Si Si6 0.745732 0.432957 0.220337
Si Si7 0.335280 0.635363 0.782701
Si Si8 0.839527 0.566804 0.781088
O O1 0.935865 0.095965 0.000000
O O2 0.930908 0.191952 0.824588
O O3 0.000000 0.168912 0.000000
O O4 0.593247 0.203817 0.718292
O O5 0.541356 0.103307 0.716821
O O6 0.622174 0.103725 0.788415
O O7 0.567625 0.152023 0.000000
O O8 0.390178 0.500000 0.500000
O O9 0.365953 0.407029 0.325825
O O10 0.352746 0.299886 0.740825
O O11 0.402223 0.271959 0.000000
O O12 0.000000 0.500000 0.779754
O O13 0.000000 0.434104 0.500000
O O14 0.736598 0.500000 0.277586
O O15 0.710813 0.386217 0.272738
O O16 0.792671 0.417030 0.278533
O O17 0.746204 0.434561 0.000000
O O18 0.338452 0.627907 0.000000
O O19 0.845680 0.500000 0.729975
O O20 0.840384 0.570338 0.000000
#
# Coordination Sequence:
#
# PCOD9521182 Si02
#       8
#     8  16   8  16   8  16  16  16
#     4  10  22  37  56  80 106 142 178 214 267 319
#     4  10  20  34  52  74  99 131 171 216 266 318
#     4  10  20  33  52  82 112 138 176 221 262 310
#     4   9  20  36  55  79 106 136 177 225 263 309
#     4   9  18  32  51  73  97 129 167 210 264 320
#     4   8  14  27  49  73  98 135 176 209 253 312
#     4   9  17  33  54  76 107 143 178 219 263 306
#     4   9  18  32  49  72 103 135 168 211 264 319
#
# _framework density 19.090475000000001
#
# number of rings (size 3 to 8) (size 9 to 14) (size 15 to 20)
#    0.000    2.846    0.000    1.846    2.154    2.308 
#    1.385    1.154    0.000    1.385    0.000    4.308 
#    0.000    0.000    0.000    0.000    0.000    0.000 
#
# Total GULP energy -289658.277644 kJ/mol
# GULP energy per Si atom -5570.351493 kJ/mol
# Density = 1.904702 g / cm^3
# Si number density = 19.090475 Si / 1000 Ang^3
#
#
#
# Elastic Constant Matrix: (Units=GPa)
#
#
# Indices 1 2 3 4 5 6 
#
# 1 150.2573 87.8656 8.0895 0.0000 0.0000 0.0000
# 2 87.8656 149.8645 15.4516 0.0000 0.0000 0.0000
# 3 8.0895 15.4516 59.4040 0.0000 0.0000 0.0000
# 4 0.0000 0.0000 0.0000 12.8810 0.0000 0.0000
# 5 0.0000 0.0000 0.0000 0.0000 8.9014 0.0000
# 6 0.0000 0.0000 0.0000 0.0000 0.0000 27.2371
#
#
#
# Elastic Compliance Matrix: (Units=1/GPa)
#
#
# Indices 1 2 3 4 5 6 
#
# 1 0.010129 -0.005956 0.000170 0.000000 0.000000 0.000000
# 2 -0.005956 0.010359 -0.001883 0.000000 0.000000 0.000000
# 3 0.000170 -0.001883 0.017301 0.000000 0.000000 0.000000
# 4 0.000000 0.000000 0.000000 0.077634 0.000000 0.000000
# 5 0.000000 0.000000 0.000000 0.000000 0.112343 0.000000
# 6 0.000000 0.000000 0.000000 0.000000 0.000000 0.036715
#
#
# Mechanical properties :
#
#
# Convention : Reuss Voigt Hill
#
# Bulk Modulus (GPa) = 44.54465 64.70435 54.62450
# Shear Modulus (GPa) = 17.40327 26.34515 21.87421
#
# Velocity S-wave (km/s) = 3.02258 3.71889 3.38867
# Velocity P-wave (km/s) = 5.96368 7.23929 6.63222
#
# Compressibility (1/GPa) = 0.02244939
#
# Stress axis : x y z
#
# Youngs Moduli (GPa) = 98.72548 96.53441 57.80135
#
# Poissons Ratio (x) = 0.57498 -0.00982
# Poissons Ratio (y) = 0.58803 0.10886
# Poissons Ratio (z) = -0.01677 0.18181
#
# Static dielectric constant tensor:
#      x y z
#    x 1.658150 0.000000 0.000000 
#    y 0.000000 1.664910 0.000000 
#    z 0.000000 0.000000 1.685660 
# 
# From -- ./inp_files/17105.got.cif
#   From: 2010.05.17/outbox.cif.g08.bks.cpg/sg71_9_cif.got.tgz:17105.got - 2010.06.03 16:22:01.
