data_PCOD9521172
_publ_section_title
;
Structure prediction by ZEFSAII (Michael W. Deem and Ramdas Pophale) SiO2 
 PCOD9521172
Probable space group: I M M M
;
_chemical_formula_sum "Si O2"
_cell_formula_units_Z 100
_cell_length_a 29.505530
_cell_length_b 21.428655
_cell_length_c 7.366481
_cell_angle_alpha 90.000000
_cell_angle_beta 90.000000
_cell_angle_gamma 90.000000
_cell_volume 4657.559439
_symmetry_space_group_name_H-M "I M M M"
_symmetry_group_IT_number 71
_symmetry_cell_setting 'orthorhombic'
loop_
_space_group_symop_operation_xyz
x,y,z
-x,-y,z
x,-y,-z
-x,y,-z
-x,-y,-z
x,y,-z
-x,y,z
x,-y,z
1/2+x,1/2+y,1/2+z
1/2-x,1/2-y,1/2+z
1/2+x,1/2-y,1/2-z
1/2-x,1/2+y,1/2-z
1/2-x,1/2-y,1/2-z
1/2+x,1/2+y,1/2-z
1/2-x,1/2+y,1/2+z
1/2+x,1/2-y,1/2+z
loop_
_atom_site_type_symbol
_atom_site_label
_atom_site_fract_x
_atom_site_fract_y
_atom_site_fract_z
Si Si1 0.807299 0.108990 0.717512
Si Si2 0.553260 0.431815 0.220394
Si Si3 0.392147 0.311648 0.784273
Si Si4 0.948335 0.428564 0.778510
Si Si5 0.223522 0.685525 0.783433
Si Si6 0.170717 0.000000 0.000000
Si Si7 0.378234 0.826274 0.289712
O O1 0.809193 0.095041 0.500000
O O2 0.840378 0.168081 0.747906
O O3 0.756882 0.129579 0.772689
O O4 0.825530 0.054109 0.840654
O O5 0.500000 0.428569 0.263174
O O6 0.570455 0.500000 0.285629
O O7 0.578295 0.369928 0.285686
O O8 0.557271 0.432713 0.000000
O O9 0.400329 0.242472 0.714773
O O10 0.399475 0.308991 0.000000
O O11 0.937829 0.500000 0.726288
O O12 0.911735 0.378458 0.712511
O O13 0.000000 0.414220 0.721876
O O14 0.948565 0.427001 0.000000
O O15 0.250000 0.750000 0.750000
O O16 0.172460 0.680368 0.709823
O O17 0.220478 0.681462 0.000000
O O18 0.372162 0.843634 0.500000
#
# Coordination Sequence:
#
# PCOD9521172 Si02
#       7
#    16  16  16  16  16   4  16
#     4  10  23  41  59  88 120 158 203 250 298 353
#     4   8  15  29  49  71  98 139 188 234 283 340
#     4  10  20  33  52  80 113 148 191 244 290 349
#     4   8  15  31  55  82 112 147 190 242 303 371
#     4  10  20  35  57  79 112 152 195 249 297 356
#     4  12  26  40  64  86 121 166 201 248 302 356
#     4  10  20  33  55  85 111 145 194 240 295 360
#
# _framework density 21.470471
#
# number of rings (size 3 to 8) (size 9 to 14) (size 15 to 20)
#    0.000    2.560    1.600    1.200    3.360    0.640 
#    1.440    0.000    0.000    0.480    0.000    2.800 
#    0.000    0.000    0.000    0.000    0.000    0.000 
#
# Total GULP energy -278546.650434 kJ/mol
# GULP energy per Si atom -5570.933009 kJ/mol
# Density = 2.142160 g / cm^3
# Si number density = 21.470471 Si / 1000 Ang^3
#
#
#
# Elastic Constant Matrix: (Units=GPa)
#
#
# Indices 1 2 3 4 5 6 
#
# 1 129.9033 89.2261 10.4219 0.0000 0.0000 0.0000
# 2 89.2261 142.2329 18.9061 0.0000 0.0000 0.0000
# 3 10.4219 18.9061 78.2051 0.0000 0.0000 0.0000
# 4 0.0000 0.0000 0.0000 31.7946 0.0000 0.0000
# 5 0.0000 0.0000 0.0000 0.0000 -2.9205 0.0000
# 6 0.0000 0.0000 0.0000 0.0000 0.0000 15.9006
#
#
#
# Elastic Compliance Matrix: (Units=1/GPa)
#
#
# Indices 1 2 3 4 5 6 
#
# 1 0.013531 -0.008523 0.000257 0.000000 0.000000 0.000000
# 2 -0.008523 0.012632 -0.001918 0.000000 0.000000 0.000000
# 3 0.000257 -0.001918 0.013216 0.000000 0.000000 0.000000
# 4 0.000000 0.000000 0.000000 0.031452 0.000000 0.000000
# 5 0.000000 0.000000 0.000000 0.000000 -0.342407 0.000000
# 6 0.000000 0.000000 0.000000 0.000000 0.000000 0.062891
#
#
# Mechanical properties :
#
#
# Convention : Reuss Voigt Hill
#
# Bulk Modulus (GPa) = 52.59685 65.27218 58.93452
# Shear Modulus (GPa) = -27.47567 24.40742 -1.53413
#
# Velocity S-wave (km/s) = -3.58116 3.37529 -0.84621
# Velocity P-wave (km/s) = 2.72962 6.75700 5.15305
#
# Compressibility (1/GPa) = 0.01901254
#
# Stress axis : x y z
#
# Youngs Moduli (GPa) = 73.90227 79.16280 75.66409
#
# Poissons Ratio (x) = 0.67468 -0.01946
# Poissons Ratio (y) = 0.62985 0.14513
# Poissons Ratio (z) = -0.01900 0.15184
#
# Static dielectric constant tensor:
#      x y z
#    x 1.813920 0.000000 0.000000 
#    y 0.000000 1.753520 0.000000 
#    z 0.000000 0.000000 1.841990 
# 
# From -- ./inp_files/16976.got.cif
#   From: 2010.05.17/outbox.cif.g08.bks.cpg/sg71_9_cif.got.tgz:16976.got - 2010.06.03 16:22:01.
