data_PCOD9521826
_publ_section_title
;
Structure prediction by ZEFSAII (Michael W. Deem and Ramdas Pophale) SiO2 
 PCOD9521826
Probable space group: I M M M
;
_chemical_formula_sum "Si O2"
_cell_formula_units_Z 104
_cell_length_a 26.887514
_cell_length_b 8.206105
_cell_length_c 20.087780
_cell_angle_alpha 90.000000
_cell_angle_beta 90.000000
_cell_angle_gamma 90.000000
_cell_volume 4432.203195
_symmetry_space_group_name_H-M "I M M M"
_symmetry_group_IT_number 71
_symmetry_cell_setting 'orthorhombic'
loop_
_space_group_symop_operation_xyz
x,y,z
-x,-y,z
x,-y,-z
-x,y,-z
-x,-y,-z
x,y,-z
-x,y,z
x,-y,z
1/2+x,1/2+y,1/2+z
1/2-x,1/2-y,1/2+z
1/2+x,1/2-y,1/2-z
1/2-x,1/2+y,1/2-z
1/2-x,1/2-y,1/2-z
1/2+x,1/2+y,1/2-z
1/2-x,1/2+y,1/2+z
1/2+x,1/2-y,1/2+z
loop_
_atom_site_type_symbol
_atom_site_label
_atom_site_fract_x
_atom_site_fract_y
_atom_site_fract_z
Si Si1 0.798378 0.694444 0.103965
Si Si2 0.418064 0.693639 0.927023
Si Si3 0.098500 0.174214 0.075573
Si Si4 0.309124 0.804073 0.894095
Si Si5 0.054021 0.305563 0.718267
Si Si6 0.837754 0.302983 0.247069
Si Si7 0.941415 0.500000 0.922858
O O1 0.806358 0.500000 0.095491
O O2 0.842927 0.793273 0.070738
O O3 0.743662 0.741033 0.080792
O O4 0.807291 0.740608 0.181615
O O5 0.426417 0.500000 0.921087
O O6 0.358860 0.729633 0.924959
O O7 0.440203 0.777776 0.861484
O O8 0.436621 0.747129 0.000000
O O9 0.077212 0.334912 0.109843
O O10 0.087933 0.000000 0.106688
O O11 0.077638 0.170319 0.000000
O O12 0.312061 0.755916 0.816011
O O13 0.311508 0.000000 0.900228
O O14 0.053568 0.500000 0.730188
O O15 0.105449 0.238990 0.749252
O O16 0.000000 0.239874 0.739760
O O17 0.840578 0.500000 0.247347
O O18 0.000000 0.500000 0.924565
O O19 0.922336 0.500000 0.000000
#
# Coordination Sequence:
#
# PCOD9521826 Si02
#       7
#    16  16  16  16  16  16   8
#     4  11  20  33  55  80 113 149 187 226 281 341
#     4  10  21  36  53  77 110 145 184 231 280 333
#     4  10  21  37  56  82 115 147 184 230 279 335
#     4  10  20  35  54  78 107 142 186 231 281 337
#     4   9  18  35  58  81 108 144 184 227 278 332
#     4   8  17  33  53  78 109 141 183 230 278 332
#     4   9  18  36  60  82 106 140 180 222 272 326
#
# _framework density 23.464627
#
# number of rings (size 3 to 8) (size 9 to 14) (size 15 to 20)
#    0.000    2.385    0.769    2.769    0.000    2.769 
#    0.000   10.769    0.000    0.000    0.000    0.000 
#    0.000    0.000    0.000    0.000    0.000    0.000 
#
# Total GULP energy -290491.510512 kJ/mol
# GULP energy per Si atom -5586.375202 kJ/mol
# Density = 2.341122 g / cm^3
# Si number density = 23.464627 Si / 1000 Ang^3
#
#
#
# Elastic Constant Matrix: (Units=GPa)
#
#
# Indices 1 2 3 4 5 6 
#
# 1 112.7017 14.0143 -7.8344 0.0000 0.0000 0.0000
# 2 14.0143 99.0331 -0.7495 0.0000 0.0000 0.0000
# 3 -7.8344 -0.7495 78.4642 0.0000 0.0000 0.0000
# 4 0.0000 0.0000 0.0000 46.5574 0.0000 0.0000
# 5 0.0000 0.0000 0.0000 0.0000 11.5211 0.0000
# 6 0.0000 0.0000 0.0000 0.0000 0.0000 11.5051
#
#
#
# Elastic Compliance Matrix: (Units=1/GPa)
#
#
# Indices 1 2 3 4 5 6 
#
# 1 0.009094 -0.001280 0.000896 0.000000 0.000000 0.000000
# 2 -0.001280 0.010279 -0.000030 0.000000 0.000000 0.000000
# 3 0.000896 -0.000030 0.012834 0.000000 0.000000 0.000000
# 4 0.000000 0.000000 0.000000 0.021479 0.000000 0.000000
# 5 0.000000 0.000000 0.000000 0.000000 0.086797 0.000000
# 6 0.000000 0.000000 0.000000 0.000000 0.000000 0.086918
#
#
# Mechanical properties :
#
#
# Convention : Reuss Voigt Hill
#
# Bulk Modulus (GPa) = 31.86863 33.45109 32.65986
# Shear Modulus (GPa) = 20.94780 32.90130 26.92455
#
# Velocity S-wave (km/s) = 2.99112 3.74861 3.39108
# Velocity P-wave (km/s) = 5.05372 5.74657 5.41124
#
# Compressibility (1/GPa) = 0.03137882
#
# Stress axis : x y z
#
# Youngs Moduli (GPa) = 109.95727 97.28976 77.91911
#
# Poissons Ratio (x) = 0.12455 -0.06980
# Poissons Ratio (y) = 0.14077 0.00231
# Poissons Ratio (z) = -0.09850 0.00288
#
# Static dielectric constant tensor:
#      x y z
#    x 1.861950 0.000000 0.000000 
#    y 0.000000 1.872580 0.000000 
#    z 0.000000 0.000000 1.943090 
# 
# From -- ./inp_files/61953.got.cif
#   From: 2010.05.17/outbox.cif.g08.bks.cpg/sg71_31_cif.got.tgz:61953.got - 2010.06.03 16:22:01.
