data_PCOD9521257
_publ_section_title
;
Structure prediction by ZEFSAII (Michael W. Deem and Ramdas Pophale) SiO2 
 PCOD9521257
Probable space group: I M M M
;
_chemical_formula_sum "Si O2"
_cell_formula_units_Z 96
_cell_length_a 26.213342
_cell_length_b 11.076213
_cell_length_c 24.012430
_cell_angle_alpha 90.000000
_cell_angle_beta 90.000000
_cell_angle_gamma 90.000000
_cell_volume 6971.878409
_symmetry_space_group_name_H-M "I M M M"
_symmetry_group_IT_number 71
_symmetry_cell_setting 'orthorhombic'
loop_
_space_group_symop_operation_xyz
x,y,z
-x,-y,z
x,-y,-z
-x,y,-z
-x,-y,-z
x,y,-z
-x,y,z
x,-y,z
1/2+x,1/2+y,1/2+z
1/2-x,1/2-y,1/2+z
1/2+x,1/2-y,1/2-z
1/2-x,1/2+y,1/2-z
1/2-x,1/2-y,1/2-z
1/2+x,1/2+y,1/2-z
1/2-x,1/2+y,1/2+z
1/2+x,1/2-y,1/2+z
loop_
_atom_site_type_symbol
_atom_site_label
_atom_site_fract_x
_atom_site_fract_y
_atom_site_fract_z
Si Si1 0.214734 0.145693 0.779226
Si Si2 0.853247 0.140184 0.321323
Si Si3 0.692854 0.000000 0.936578
Si Si4 0.259465 0.762008 0.886545
Si Si5 0.233769 0.855459 0.500000
Si Si6 0.442305 0.260514 0.109618
Si Si7 0.071186 0.500000 0.435320
Si Si8 0.385219 0.643219 0.000000
O O1 0.250000 0.250000 0.750000
O O2 0.163036 0.152204 0.743196
O O3 0.217005 0.192723 0.842641
O O4 0.230197 0.000000 0.776435
O O5 0.803194 0.182115 0.356131
O O6 0.903053 0.211749 0.340738
O O7 0.862241 0.000000 0.334260
O O8 0.712309 0.882686 0.905661
O O9 0.632246 0.000000 0.937084
O O10 0.711813 0.000000 0.000000
O O11 0.242626 0.694534 0.942753
O O12 0.173736 0.813538 0.500000
O O13 0.234584 0.000000 0.500000
O O14 0.500000 0.307464 0.117322
O O15 0.445115 0.119205 0.096515
O O16 0.415229 0.314232 0.054479
O O17 0.054604 0.500000 0.500000
O O18 0.383134 0.500000 0.000000
#
# Coordination Sequence:
#
# PCOD9521257 Si02
#       8
#    16  16   8  16   8  16   8   8
#     4   9  19  32  48  66  87 115 148 188 229 271
#     4  10  20  34  46  61  86 113 145 188 228 264
#     4  11  18  27  46  67  86 112 145 180 219 265
#     4  11  18  30  47  67  86 113 149 178 220 274
#     4  11  20  30  47  67  94 123 144 182 229 269
#     4  12  23  33  46  62  81 113 154 194 232 267
#     4  11  21  34  45  58  86 116 146 189 234 267
#     4  11  21  33  43  58  86 117 148 187 231 267
#
# _framework density 13.769603
#
# number of rings (size 3 to 8) (size 9 to 14) (size 15 to 20)
#    0.000    1.333    5.833    1.500    0.000    2.667 
#    0.000    0.000    0.000    0.000    0.000    0.000 
#    0.000    0.000    0.000    0.750    0.000    9.000 
#
# Total GULP energy -267366.782122 kJ/mol
# GULP energy per Si atom -5570.141294 kJ/mol
# Density = 1.373826 g / cm^3
# Si number density = 13.769603 Si / 1000 Ang^3
#
#
#
# Elastic Constant Matrix: (Units=GPa)
#
#
# Indices 1 2 3 4 5 6 
#
# 1 46.1102 22.4679 42.3356 0.0000 0.0000 0.0000
# 2 22.4679 84.7690 33.1186 0.0000 0.0000 0.0000
# 3 42.3356 33.1186 97.7893 0.0000 0.0000 0.0000
# 4 0.0000 0.0000 0.0000 21.9048 0.0000 0.0000
# 5 0.0000 0.0000 0.0000 0.0000 -83.9058 0.0000
# 6 0.0000 0.0000 0.0000 0.0000 0.0000 25.9156
#
#
#
# Elastic Compliance Matrix: (Units=1/GPa)
#
#
# Indices 1 2 3 4 5 6 
#
# 1 0.037198 -0.004112 -0.014711 0.000000 0.000000 0.000000
# 2 -0.004112 0.014050 -0.002978 0.000000 0.000000 0.000000
# 3 -0.014711 -0.002978 0.017604 0.000000 0.000000 0.000000
# 4 0.000000 0.000000 0.000000 0.045652 0.000000 0.000000
# 5 0.000000 0.000000 0.000000 0.000000 -0.011918 0.000000
# 6 0.000000 0.000000 0.000000 0.000000 0.000000 0.038587
#
#
# Mechanical properties :
#
#
# Convention : Reuss Voigt Hill
#
# Bulk Modulus (GPa) = 39.60571 47.16807 43.38689
# Shear Modulus (GPa) = 25.88102 1.49933 13.69018
#
# Velocity S-wave (km/s) = 4.34011 1.04462 3.15657
# Velocity P-wave (km/s) = 7.34445 5.98202 6.69797
#
# Compressibility (1/GPa) = 0.02524889
#
# Stress axis : x y z
#
# Youngs Moduli (GPa) = 26.88331 71.17353 56.80602
#
# Poissons Ratio (x) = 0.29263 0.83570
# Poissons Ratio (y) = 0.11053 0.16919
# Poissons Ratio (z) = 0.39549 0.21198
#
# Static dielectric constant tensor:
#      x y z
#    x 1.434780 0.000000 0.000000 
#    y 0.000000 1.494820 0.000000 
#    z 0.000000 0.000000 1.482740 
# 
# From -- ./inp_files/27940.got.cif
#   From: 2010.05.17/outbox.cif.g08.bks.cpg/sg71_14_cif.got.tgz:27940.got - 2010.06.03 16:22:01.
