data_PCOD9521772
_publ_section_title
;
Structure prediction by ZEFSAII (Michael W. Deem and Ramdas Pophale) SiO2 
 PCOD9521772
Probable space group: I M M M
;
_chemical_formula_sum "Si O2"
_cell_formula_units_Z 116
_cell_length_a 7.775476
_cell_length_b 30.708900
_cell_length_c 25.022955
_cell_angle_alpha 90.000000
_cell_angle_beta 90.000000
_cell_angle_gamma 90.000000
_cell_volume 5974.888984
_symmetry_space_group_name_H-M "I M M M"
_symmetry_group_IT_number 71
_symmetry_cell_setting 'orthorhombic'
loop_
_space_group_symop_operation_xyz
x,y,z
-x,-y,z
x,-y,-z
-x,y,-z
-x,-y,-z
x,y,-z
-x,y,z
x,-y,z
1/2+x,1/2+y,1/2+z
1/2-x,1/2-y,1/2+z
1/2+x,1/2-y,1/2-z
1/2-x,1/2+y,1/2-z
1/2-x,1/2-y,1/2-z
1/2+x,1/2+y,1/2-z
1/2-x,1/2+y,1/2+z
1/2+x,1/2-y,1/2+z
loop_
_atom_site_type_symbol
_atom_site_label
_atom_site_fract_x
_atom_site_fract_y
_atom_site_fract_z
Si Si1 0.694055 0.700430 0.255163
Si Si2 0.791593 0.431644 0.129033
Si Si3 0.794810 0.841447 0.940321
Si Si4 0.293593 0.258261 0.938808
Si Si5 0.000000 0.000000 0.596321
Si Si6 0.207148 0.126874 0.830741
Si Si7 0.800730 0.333243 0.143044
Si Si8 0.205681 0.451592 0.253481
O O1 0.500000 0.703921 0.273717
O O2 0.750000 0.750000 0.250000
O O3 0.780894 0.668050 0.297465
O O4 0.702268 0.677767 0.197394
O O5 0.655275 0.462194 0.099065
O O6 0.758570 0.380474 0.119028
O O7 0.753084 0.439097 0.192297
O O8 0.000000 0.440443 0.120762
O O9 0.764813 0.790749 0.925856
O O10 0.727580 0.870460 0.891471
O O11 0.000000 0.847878 0.943820
O O12 0.722409 0.848657 0.000000
O O13 0.500000 0.259259 0.936595
O O14 0.224902 0.294436 0.898679
O O15 0.238885 0.267102 0.000000
O O16 0.240477 0.084022 0.796315
O O17 0.000000 0.130389 0.833694
O O18 0.000000 0.335442 0.159278
O O19 0.275769 0.500000 0.263919
O O20 0.000000 0.453474 0.255491
#
# Coordination Sequence:
#
# PCOD9521772 Si02
#       8
#    16  16  16  16   4  16  16  16
#     4  11  22  33  49  75 111 148 186 223 274 343
#     4  10  22  36  53  84 114 147 191 234 278 346
#     4   9  18  35  56  78 107 143 184 231 279 329
#     4  10  21  36  56  82 110 141 186 235 275 327
#     4  12  22  32  64  78 113 158 187 228 300 324
#     4  10  21  33  51  78 105 138 185 225 271 340
#     4  11  22  36  54  77 113 148 184 230 278 332
#     4  10  20  35  52  74 108 140 177 229 280 331
#
# _framework density 19.414587000000001
#
# number of rings (size 3 to 8) (size 9 to 14) (size 15 to 20)
#    0.000    1.793    2.069    2.276    2.897    3.310 
#    0.000    0.000    0.000    0.414    0.000    3.862 
#    0.000    2.207    0.000    0.000    0.000    0.000 
#
# Total GULP energy -323040.520907 kJ/mol
# GULP energy per Si atom -5569.664154 kJ/mol
# Density = 1.937040 g / cm^3
# Si number density = 19.414587 Si / 1000 Ang^3
#
#
#
# Elastic Constant Matrix: (Units=GPa)
#
#
# Indices 1 2 3 4 5 6 
#
# 1 43.2434 -4.4313 -12.5579 0.0000 0.0000 0.0000
# 2 -4.4313 31.6948 -5.0651 0.0000 0.0000 0.0000
# 3 -12.5579 -5.0651 32.2433 0.0000 0.0000 0.0000
# 4 0.0000 0.0000 0.0000 17.3666 0.0000 0.0000
# 5 0.0000 0.0000 0.0000 0.0000 7.2208 0.0000
# 6 0.0000 0.0000 0.0000 0.0000 0.0000 31.4436
#
#
#
# Elastic Compliance Matrix: (Units=1/GPa)
#
#
# Indices 1 2 3 4 5 6 
#
# 1 0.027009 0.005598 0.011398 0.000000 0.000000 0.000000
# 2 0.005598 0.033524 0.007446 0.000000 0.000000 0.000000
# 3 0.011398 0.007446 0.036623 0.000000 0.000000 0.000000
# 4 0.000000 0.000000 0.000000 0.057582 0.000000 0.000000
# 5 0.000000 0.000000 0.000000 0.000000 0.138489 0.000000
# 6 0.000000 0.000000 0.000000 0.000000 0.000000 0.031803
#
#
# Mechanical properties :
#
#
# Convention : Reuss Voigt Hill
#
# Bulk Modulus (GPa) = 6.84742 7.00811 6.92776
# Shear Modulus (GPa) = 15.39292 19.82192 17.60742
#
# Velocity S-wave (km/s) = 2.81882 3.19875 3.01477
# Velocity P-wave (km/s) = 3.75885 4.15454 3.96164
#
# Compressibility (1/GPa) = 0.14604044
#
# Stress axis : x y z
#
# Youngs Moduli (GPa) = 37.02516 29.82981 27.30503
#
# Poissons Ratio (x) = -0.16698 -0.31124
# Poissons Ratio (y) = -0.20725 -0.20332
# Poissons Ratio (z) = -0.42203 -0.22212
#
# Static dielectric constant tensor:
#      x y z
#    x 1.700080 0.000000 0.000000 
#    y 0.000000 1.822100 0.000000 
#    z 0.000000 0.000000 1.708700 
# 
# From -- ./inp_files/58283.got.cif
#   From: 2010.05.17/outbox.cif.g08.bks.cpg/sg71_30_cif.got.tgz:58283.got - 2010.06.03 16:22:01.
