data_PCOD9521610
_publ_section_title
;
Structure prediction by ZEFSAII (Michael W. Deem and Ramdas Pophale) SiO2 
 PCOD9521610
Probable space group: I M M M
;
_chemical_formula_sum "Si O2"
_cell_formula_units_Z 88
_cell_length_a 18.749446
_cell_length_b 8.904742
_cell_length_c 29.353290
_cell_angle_alpha 90.000000
_cell_angle_beta 90.000000
_cell_angle_gamma 90.000000
_cell_volume 4900.795337
_symmetry_space_group_name_H-M "I M M M"
_symmetry_group_IT_number 71
_symmetry_cell_setting 'orthorhombic'
loop_
_space_group_symop_operation_xyz
x,y,z
-x,-y,z
x,-y,-z
-x,y,-z
-x,-y,-z
x,y,-z
-x,y,z
x,-y,z
1/2+x,1/2+y,1/2+z
1/2-x,1/2-y,1/2+z
1/2+x,1/2-y,1/2-z
1/2-x,1/2+y,1/2-z
1/2-x,1/2-y,1/2-z
1/2+x,1/2+y,1/2-z
1/2-x,1/2+y,1/2+z
1/2+x,1/2-y,1/2+z
loop_
_atom_site_type_symbol
_atom_site_label
_atom_site_fract_x
_atom_site_fract_y
_atom_site_fract_z
Si Si1 0.917624 0.825653 0.259437
Si Si2 0.000000 0.182719 0.053369
Si Si3 0.715102 0.678300 0.294798
Si Si4 0.656805 0.676103 0.445045
Si Si5 0.277076 0.321711 0.886054
Si Si6 0.417617 0.178977 0.856320
O O1 0.868313 0.798867 0.216025
O O2 0.901863 0.726138 0.303867
O O3 0.000000 0.805788 0.248042
O O4 0.905674 0.000000 0.273372
O O5 0.922108 0.229133 0.071726
O O6 0.000000 0.000000 0.054690
O O7 0.000000 0.225881 0.000000
O O8 0.729795 0.500000 0.297868
O O9 0.750000 0.750000 0.250000
O O10 0.742662 0.760050 0.339310
O O11 0.656349 0.683971 0.500000
O O12 0.664387 0.500000 0.432313
O O13 0.723110 0.765299 0.424801
O O14 0.281286 0.500000 0.885382
O O15 0.356939 0.254091 0.887125
O O16 0.500000 0.225530 0.865486
O O17 0.413323 0.000000 0.860341
#
# Coordination Sequence:
#
# PCOD9521610 Si02
#       6
#    16   8  16  16  16  16
#     4   9  18  33  52  73  99 135 179 224 271 321
#     4   7  12  28  57  87 109 135 175 221 269 319
#     4  11  21  34  53  76 107 143 181 226 271 318
#     4   9  18  36  62  87 110 139 179 227 273 320
#     4  12  24  36  53  79 113 150 183 219 268 327
#     4  10  20  34  55  80 104 135 180 231 275 320
#
# _framework density 17.956268999999999
#
# number of rings (size 3 to 8) (size 9 to 14) (size 15 to 20)
#    0.000    2.091    1.818    3.818    0.000    2.182 
#    1.636    0.455    0.000    2.182    0.000    3.818 
#    0.000    0.000    0.000    0.000    0.000    0.000 
#
# Total GULP energy -245343.461424 kJ/mol
# GULP energy per Si atom -5575.987760 kJ/mol
# Density = 1.791540 g / cm^3
# Si number density = 17.956269 Si / 1000 Ang^3
#
#
#
# Elastic Constant Matrix: (Units=GPa)
#
#
# Indices 1 2 3 4 5 6 
#
# 1 142.7042 61.8484 29.3366 0.0000 0.0000 0.0000
# 2 61.8484 82.3948 20.9255 0.0000 0.0000 0.0000
# 3 29.3366 20.9255 22.6721 0.0000 0.0000 0.0000
# 4 0.0000 0.0000 0.0000 22.8865 0.0000 0.0000
# 5 0.0000 0.0000 0.0000 0.0000 29.6768 0.0000
# 6 0.0000 0.0000 0.0000 0.0000 0.0000 21.1905
#
#
#
# Elastic Compliance Matrix: (Units=1/GPa)
#
#
# Indices 1 2 3 4 5 6 
#
# 1 0.011685 -0.006441 -0.009175 0.000000 0.000000 0.000000
# 2 -0.006441 0.019403 -0.009574 0.000000 0.000000 0.000000
# 3 -0.009175 -0.009574 0.064816 0.000000 0.000000 0.000000
# 4 0.000000 0.000000 0.000000 0.043694 0.000000 0.000000
# 5 0.000000 0.000000 0.000000 0.000000 0.033696 0.000000
# 6 0.000000 0.000000 0.000000 0.000000 0.000000 0.047191
#
#
# Mechanical properties :
#
#
# Convention : Reuss Voigt Hill
#
# Bulk Modulus (GPa) = 21.96662 52.44358 37.20510
# Shear Modulus (GPa) = 17.48006 23.79480 20.63743
#
# Velocity S-wave (km/s) = 3.12345 3.64421 3.39383
# Velocity P-wave (km/s) = 5.02671 6.85396 6.01018
#
# Compressibility (1/GPa) = 0.04552362
#
# Stress axis : x y z
#
# Youngs Moduli (GPa) = 85.57714 51.53807 15.42839
#
# Poissons Ratio (x) = 0.33197 0.14156
# Poissons Ratio (y) = 0.55122 0.14771
# Poissons Ratio (z) = 0.78519 0.49341
#
# Static dielectric constant tensor:
#      x y z
#    x 1.685560 0.000000 0.000000 
#    y 0.000000 1.608740 0.000000 
#    z 0.000000 0.000000 1.595540 
# 
# From -- ./inp_files/8876.got.cif
#   From: 2010.05.17/outbox.cif.g08.bks.cpg/sg71_5_cif.got.tgz:8876.got - 2010.06.03 16:22:01.
