data_PCOD9521078
_publ_section_title
;
Structure prediction by ZEFSAII (Michael W. Deem and Ramdas Pophale) SiO2 
 PCOD9521078
Probable space group: I M M M
;
_chemical_formula_sum "Si O2"
_cell_formula_units_Z 120
_cell_length_a 26.628748
_cell_length_b 7.606744
_cell_length_c 27.811591
_cell_angle_alpha 90.000000
_cell_angle_beta 90.000000
_cell_angle_gamma 90.000000
_cell_volume 5633.462171
_symmetry_space_group_name_H-M "I M M M"
_symmetry_group_IT_number 71
_symmetry_cell_setting 'orthorhombic'
loop_
_space_group_symop_operation_xyz
x,y,z
-x,-y,z
x,-y,-z
-x,y,-z
-x,-y,-z
x,y,-z
-x,y,z
x,-y,z
1/2+x,1/2+y,1/2+z
1/2-x,1/2-y,1/2+z
1/2+x,1/2-y,1/2-z
1/2-x,1/2+y,1/2-z
1/2-x,1/2-y,1/2-z
1/2+x,1/2+y,1/2-z
1/2-x,1/2+y,1/2+z
1/2+x,1/2-y,1/2+z
loop_
_atom_site_type_symbol
_atom_site_label
_atom_site_fract_x
_atom_site_fract_y
_atom_site_fract_z
Si Si1 0.753664 0.215188 0.651065
Si Si2 0.695304 0.712779 0.947346
Si Si3 0.557538 0.790975 0.393832
Si Si4 0.142928 0.711450 0.177974
Si Si5 0.942610 0.209608 0.000000
Si Si6 0.577978 0.795173 0.052621
Si Si7 0.553411 0.296058 0.842326
Si Si8 0.848865 0.789202 0.289659
O O1 0.773177 0.269606 0.598581
O O2 0.697452 0.277018 0.660941
O O3 0.795178 0.274597 0.690173
O O4 0.752593 0.000000 0.652058
O O5 0.692501 0.500000 0.945746
O O6 0.638332 0.779325 0.944084
O O7 0.715445 0.763603 0.000000
O O8 0.500000 0.719705 0.391266
O O9 0.596490 0.721239 0.354157
O O10 0.578294 0.764578 0.448156
O O11 0.553661 0.000000 0.386533
O O12 0.143023 0.500000 0.172499
O O13 0.140222 0.750979 0.234359
O O14 0.000000 0.279984 0.000000
O O15 0.943968 0.000000 0.000000
O O16 0.556740 0.708428 0.100110
O O17 0.564112 0.000000 0.054102
O O18 0.563466 0.724177 0.000000
O O19 0.500000 0.215855 0.827298
O O20 0.552690 0.500000 0.827205
O O21 0.604415 0.218394 0.820848
O O22 0.847121 0.000000 0.296223
#
# Coordination Sequence:
#
# PCOD9521078 Si02
#       8
#    16  16  16  16   8  16  16  16
#     4   9  17  33  54  78 105 133 173 221 261 305
#     4   9  16  30  54  78 102 137 175 213 259 310
#     4   9  18  34  54  77 109 144 173 208 257 310
#     4  10  21  35  53  80 107 136 179 219 256 309
#     4   9  17  31  55  83 107 137 177 213 250 305
#     4  10  20  33  51  77 108 139 171 212 263 318
#     4  10  21  37  56  77 101 134 178 222 263 311
#     4  10  20  36  55  74 102 137 172 219 271 310
#
# _framework density 21.301289000000001
#
# number of rings (size 3 to 8) (size 9 to 14) (size 15 to 20)
#    0.000    2.467    1.333    1.000    0.000    3.733 
#    1.200    2.000    0.000    0.000    0.000    0.000 
#    0.000    0.000    0.000    0.000    0.000    0.000 
#
# Total GULP energy -334788.045409 kJ/mol
# GULP energy per Si atom -5579.800757 kJ/mol
# Density = 2.125281 g / cm^3
# Si number density = 21.301289 Si / 1000 Ang^3
#
#
#
# Elastic Constant Matrix: (Units=GPa)
#
#
# Indices 1 2 3 4 5 6 
#
# 1 144.9991 8.4435 86.4903 0.0000 0.0000 0.0000
# 2 8.4435 45.5178 -5.0849 0.0000 0.0000 0.0000
# 3 86.4903 -5.0849 153.3430 0.0000 0.0000 0.0000
# 4 0.0000 0.0000 0.0000 13.0019 0.0000 0.0000
# 5 0.0000 0.0000 0.0000 0.0000 -10.4948 0.0000
# 6 0.0000 0.0000 0.0000 0.0000 0.0000 -8.5250
#
#
#
# Elastic Compliance Matrix: (Units=1/GPa)
#
#
# Indices 1 2 3 4 5 6 
#
# 1 0.010707 -0.002671 -0.006128 0.000000 0.000000 0.000000
# 2 -0.002671 0.022717 0.002260 0.000000 0.000000 0.000000
# 3 -0.006128 0.002260 0.010053 0.000000 0.000000 0.000000
# 4 0.000000 0.000000 0.000000 0.076912 0.000000 0.000000
# 5 0.000000 0.000000 0.000000 0.000000 -0.095285 0.000000
# 6 0.000000 0.000000 0.000000 0.000000 0.000000 -0.117301
#
#
# Mechanical properties :
#
#
# Convention : Reuss Voigt Hill
#
# Bulk Modulus (GPa) = 32.89539 58.17307 45.53423
# Shear Modulus (GPa) = -72.47779 15.73047 -28.37366
#
# Velocity S-wave (km/s) = -5.83943 2.72044 -3.65364
# Velocity P-wave (km/s) = 5.47620 6.10218 1.90366
#
# Compressibility (1/GPa) = 0.03039940
#
# Stress axis : x y z
#
# Youngs Moduli (GPa) = 93.39434 44.01934 99.47735
#
# Poissons Ratio (x) = 0.11756 0.60958
# Poissons Ratio (y) = 0.24943 -0.22479
# Poissons Ratio (z) = 0.57230 -0.09947
#
# Static dielectric constant tensor:
#      x y z
#    x 1.783540 0.000000 0.000000 
#    y 0.000000 1.782140 0.000000 
#    z 0.000000 0.000000 1.757430 
# 
# From -- ./inp_files/67177.got.cif
#   From: 2010.05.17/outbox.cif.g08.bks.cpg/sg71_34_cif.got.tgz:67177.got - 2010.06.03 16:22:01.
