data_PCOD9521890
_publ_section_title
;
Structure prediction by ZEFSAII (Michael W. Deem and Ramdas Pophale) SiO2 
 PCOD9521890
Probable space group: I M M M
;
_chemical_formula_sum "Si O2"
_cell_formula_units_Z 72
_cell_length_a 10.932123
_cell_length_b 32.585658
_cell_length_c 11.112319
_cell_angle_alpha 90.000000
_cell_angle_beta 90.000000
_cell_angle_gamma 90.000000
_cell_volume 3958.546079
_symmetry_space_group_name_H-M "I M M M"
_symmetry_group_IT_number 71
_symmetry_cell_setting 'orthorhombic'
loop_
_space_group_symop_operation_xyz
x,y,z
-x,-y,z
x,-y,-z
-x,y,-z
-x,-y,-z
x,y,-z
-x,y,z
x,-y,z
1/2+x,1/2+y,1/2+z
1/2-x,1/2-y,1/2+z
1/2+x,1/2-y,1/2-z
1/2-x,1/2+y,1/2-z
1/2-x,1/2-y,1/2-z
1/2+x,1/2+y,1/2-z
1/2-x,1/2+y,1/2+z
1/2+x,1/2-y,1/2+z
loop_
_atom_site_type_symbol
_atom_site_label
_atom_site_fract_x
_atom_site_fract_y
_atom_site_fract_z
Si Si1 0.639240 0.224118 0.500000
Si Si2 0.732806 0.310683 0.500000
Si Si3 0.856917 0.685135 0.756044
Si Si4 0.354684 0.595596 0.500000
Si Si5 0.642999 0.549058 0.253887
Si Si6 0.361819 0.904829 0.359630
O O1 0.500000 0.207681 0.500000
O O2 0.637938 0.273223 0.500000
O O3 0.696183 0.207858 0.625282
O O4 0.802573 0.305041 0.373675
O O5 0.691913 0.357988 0.500000
O O6 0.845212 0.636629 0.783056
O O7 0.000000 0.695594 0.750049
O O8 0.500000 0.598452 0.500000
O O9 0.322988 0.570121 0.619147
O O10 0.500000 0.560042 0.224154
O O11 0.647051 0.500000 0.263430
O O12 0.748358 0.565225 0.165300
O O13 0.360548 0.893136 0.500000
O O14 0.500000 0.921277 0.333855
#
# Coordination Sequence:
#
# PCOD9521890 Si02
#       6
#     8   8  16   8  16  16
#     4  10  21  37  56  80 113 152 189 228 286 353
#     4  12  20  33  58  87 109 141 191 247 279 329
#     4  10  20  36  56  80 113 150 188 233 289 349
#     4  10  20  35  55  81 113 149 187 229 285 352
#     4  10  21  38  59  83 115 153 191 237 295 352
#     4  10  20  37  61  84 111 153 197 237 288 349
#
# _framework density 18.188497000000002
#
# number of rings (size 3 to 8) (size 9 to 14) (size 15 to 20)
#    0.000    1.778    3.333    1.667    0.000    2.667 
#    0.000    2.778    0.000    2.667    0.000    0.000 
#    0.000    0.000    0.000    0.000    0.000    0.000 
#
# Total GULP energy -200491.960907 kJ/mol
# GULP energy per Si atom -5569.221136 kJ/mol
# Density = 1.814710 g / cm^3
# Si number density = 18.188497 Si / 1000 Ang^3
#
#
#
# Elastic Constant Matrix: (Units=GPa)
#
#
# Indices 1 2 3 4 5 6 
#
# 1 34.5226 17.8106 27.9929 0.0001 0.0000 0.0000
# 2 17.8106 63.5009 20.4690 -0.0004 0.0002 0.0001
# 3 27.9929 20.4690 122.0983 -0.0010 0.0009 0.0001
# 4 0.0001 -0.0004 -0.0010 22.4727 0.0005 0.0001
# 5 0.0000 0.0002 0.0009 0.0005 24.0168 -0.0001
# 6 0.0000 0.0001 0.0001 0.0001 -0.0001 25.8551
#
#
#
# Elastic Compliance Matrix: (Units=1/GPa)
#
#
# Indices 1 2 3 4 5 6 
#
# 1 0.039619 -0.008652 -0.007633 -0.000001 0.000000 0.000000
# 2 -0.008652 0.018537 -0.001124 0.000000 0.000000 0.000000
# 3 -0.007633 -0.001124 0.010129 0.000000 0.000000 0.000000
# 4 -0.000001 0.000000 0.000000 0.044498 -0.000001 0.000000
# 5 0.000000 0.000000 0.000000 -0.000001 0.041637 0.000000
# 6 0.000000 0.000000 0.000000 0.000000 0.000000 0.038677
#
#
# Mechanical properties :
#
#
# Convention : Reuss Voigt Hill
#
# Bulk Modulus (GPa) = 29.88015 39.18520 34.53267
# Shear Modulus (GPa) = 20.91429 24.72556 22.81993
#
# Velocity S-wave (km/s) = 3.39464 3.69101 3.54593
# Velocity P-wave (km/s) = 5.64168 6.30520 5.98264
#
# Compressibility (1/GPa) = 0.03346703
#
# Stress axis : x y z
#
# Youngs Moduli (GPa) = 25.24014 53.94683 98.73113
#
# Poissons Ratio (x) = 0.46674 0.75361
# Poissons Ratio (y) = 0.21838 0.11097
# Poissons Ratio (z) = 0.19266 0.06063
#
# Static dielectric constant tensor:
#      x y z
#    x 1.623120 0.000000 0.000000 
#    y 0.000000 1.629870 0.000000 
#    z 0.000000 0.000000 1.659870 
# 
# From -- ./inp_files/19902.got.cif
#   From: 2010.05.17/outbox.cif.g08.bks.cpg/sg71_10_cif.got.tgz:19902.got - 2010.06.03 16:22:01.
