data_PCOD9521837
_publ_section_title
;
Structure prediction by ZEFSAII (Michael W. Deem and Ramdas Pophale) SiO2 
 PCOD9521837
Probable space group: I M M M
;
_chemical_formula_sum "Si O2"
_cell_formula_units_Z 80
_cell_length_a 7.596414
_cell_length_b 26.127317
_cell_length_c 19.084986
_cell_angle_alpha 90.000000
_cell_angle_beta 90.000000
_cell_angle_gamma 90.000000
_cell_volume 3787.871920
_symmetry_space_group_name_H-M "I M M M"
_symmetry_group_IT_number 71
_symmetry_cell_setting 'orthorhombic'
loop_
_space_group_symop_operation_xyz
x,y,z
-x,-y,z
x,-y,-z
-x,y,-z
-x,-y,-z
x,y,-z
-x,y,z
x,-y,z
1/2+x,1/2+y,1/2+z
1/2-x,1/2-y,1/2+z
1/2+x,1/2-y,1/2-z
1/2-x,1/2+y,1/2-z
1/2-x,1/2-y,1/2-z
1/2+x,1/2+y,1/2-z
1/2-x,1/2+y,1/2+z
1/2+x,1/2-y,1/2+z
loop_
_atom_site_type_symbol
_atom_site_label
_atom_site_fract_x
_atom_site_fract_y
_atom_site_fract_z
Si Si1 0.714479 0.558167 0.419824
Si Si2 0.295285 0.656909 0.166894
Si Si3 0.283620 0.347151 0.325778
Si Si4 0.287153 0.942140 0.419587
Si Si5 0.793820 0.754303 0.921482
O O1 0.767454 0.570380 0.500000
O O2 0.500000 0.558244 0.419462
O O3 0.770460 0.500000 0.403686
O O4 0.772047 0.600984 0.365075
O O5 0.500000 0.670188 0.171871
O O6 0.222492 0.656809 0.245694
O O7 0.276896 0.601356 0.132246
O O8 0.216684 0.699651 0.116094
O O9 0.500000 0.347637 0.324108
O O10 0.222248 0.298631 0.371156
O O11 0.231942 0.931669 0.500000
O O12 0.500000 0.941281 0.418848
O O13 0.231153 0.000000 0.401497
O O14 0.000000 0.766617 0.928488
O O15 0.717978 0.753205 0.000000
#
# Coordination Sequence:
#
# PCOD9521837 Si02
#       5
#    16  16  16  16  16
#     4   8  13  23  42  67  94 125 161 201 243 287
#     4  11  22  33  49  76 108 135 159 200 259 311
#     4   9  18  31  46  69 101 133 165 202 247 299
#     4   9  19  37  58  76  97 131 174 212 243 285
#     4  10  20  35  55  73  93 130 177 216 247 289
#
# _framework density 21.120039999999999
#
# number of rings (size 3 to 8) (size 9 to 14) (size 15 to 20)
#    0.000    2.600    0.000    3.600    0.000    6.800 
#    0.000    4.000    0.000    0.000    0.000    0.000 
#    0.000    0.000    0.000   17.200    0.000   15.200 
#
# Total GULP energy -223356.115811 kJ/mol
# GULP energy per Si atom -5583.902895 kJ/mol
# Density = 2.107197 g / cm^3
# Si number density = 21.120040 Si / 1000 Ang^3
#
#
#
# Elastic Constant Matrix: (Units=GPa)
#
#
# Indices 1 2 3 4 5 6 
#
# 1 41.0548 -10.1022 0.1284 0.0001 0.0000 0.0000
# 2 -10.1022 125.4065 104.5798 0.0000 0.0000 0.0000
# 3 0.1284 104.5798 186.4859 0.0010 0.0000 0.0000
# 4 0.0001 0.0000 0.0010 -318.7367 -0.0001 0.0000
# 5 0.0000 0.0000 0.0000 -0.0001 10.0142 0.0000
# 6 0.0000 0.0000 0.0000 0.0000 0.0000 3.1196
#
#
#
# Elastic Compliance Matrix: (Units=1/GPa)
#
#
# Indices 1 2 3 4 5 6 
#
# 1 0.025314 0.003858 -0.002181 0.000000 0.000000 0.000000
# 2 0.003858 0.015567 -0.008733 0.000000 0.000000 0.000000
# 3 -0.002181 -0.008733 0.010261 0.000000 0.000000 0.000000
# 4 0.000000 0.000000 0.000000 -0.003137 0.000000 0.000000
# 5 0.000000 0.000000 0.000000 0.000000 0.099858 0.000000
# 6 0.000000 0.000000 0.000000 0.000000 0.000000 0.320550
#
#
# Mechanical properties :
#
#
# Convention : Reuss Voigt Hill
#
# Bulk Modulus (GPa) = 27.00459 60.23991 43.62225
# Shear Modulus (GPa) = 10.10371 -43.89784 -16.89706
#
# Velocity S-wave (km/s) = 2.18960 -4.56399 -2.83158
# Velocity P-wave (km/s) = 4.38251 0.90065 3.16367
#
# Compressibility (1/GPa) = 0.03703074
#
# Stress axis : x y z
#
# Youngs Moduli (GPa) = 39.50415 64.23754 97.45609
#
# Poissons Ratio (x) = -0.24782 0.21254
# Poissons Ratio (y) = -0.15240 0.85105
# Poissons Ratio (z) = 0.08615 0.56096
#
# Static dielectric constant tensor:
#      x y z
#    x 1.829840 0.000000 0.000000 
#    y 0.000000 1.716980 0.000000 
#    z 0.000000 0.000000 1.740300 
# 
# From -- ./inp_files/14542.got.cif
#   From: 2010.05.17/outbox.cif.g08.bks.cpg/sg71_8_cif.got.tgz:14542.got - 2010.06.03 16:22:01.
