data_PCOD9521359
_publ_section_title
;
Structure prediction by ZEFSAII (Michael W. Deem and Ramdas Pophale) SiO2 
 PCOD9521359
Probable space group: I M M M
;
_chemical_formula_sum "Si O2"
_cell_formula_units_Z 104
_cell_length_a 25.876493
_cell_length_b 8.260195
_cell_length_c 22.037442
_cell_angle_alpha 90.000000
_cell_angle_beta 90.000000
_cell_angle_gamma 90.000000
_cell_volume 4710.390354
_symmetry_space_group_name_H-M "I M M M"
_symmetry_group_IT_number 71
_symmetry_cell_setting 'orthorhombic'
loop_
_space_group_symop_operation_xyz
x,y,z
-x,-y,z
x,-y,-z
-x,y,-z
-x,-y,-z
x,y,-z
-x,y,z
x,-y,z
1/2+x,1/2+y,1/2+z
1/2-x,1/2-y,1/2+z
1/2+x,1/2-y,1/2-z
1/2-x,1/2+y,1/2-z
1/2-x,1/2-y,1/2-z
1/2+x,1/2+y,1/2-z
1/2-x,1/2+y,1/2+z
1/2+x,1/2-y,1/2+z
loop_
_atom_site_type_symbol
_atom_site_label
_atom_site_fract_x
_atom_site_fract_y
_atom_site_fract_z
Si Si1 0.797258 0.802769 0.793505
Si Si2 0.944523 0.801549 0.375562
Si Si3 0.162925 0.183162 0.571479
Si Si4 0.275992 0.690179 0.430330
Si Si5 0.059684 0.825535 0.113748
Si Si6 0.591911 0.309543 0.748337
Si Si7 0.941131 0.500000 0.070749
O O1 0.750000 0.750000 0.750000
O O2 0.797083 0.748335 0.864703
O O3 0.850853 0.743043 0.763371
O O4 0.797211 0.000000 0.795137
O O5 0.890614 0.747887 0.404016
O O6 0.939277 0.748531 0.305623
O O7 0.000000 0.747541 0.400648
O O8 0.944694 0.000000 0.380278
O O9 0.155975 0.167815 0.500000
O O10 0.214481 0.285287 0.579947
O O11 0.171233 0.000000 0.596936
O O12 0.287205 0.755965 0.500000
O O13 0.288302 0.500000 0.433160
O O14 0.061186 0.803156 0.185668
O O15 0.085541 0.667082 0.087402
O O16 0.000000 0.830335 0.092258
O O17 0.083548 0.000000 0.099028
O O18 0.599662 0.500000 0.761086
O O19 0.000000 0.500000 0.098780
O O20 0.947484 0.500000 0.000000
#
# Coordination Sequence:
#
# PCOD9521359 Si02
#       7
#    16  16  16  16  16  16   8
#     4  10  20  34  52  76 104 133 171 217 265 316
#     4   9  16  26  44  71 102 134 166 204 251 304
#     4   9  17  29  48  74 101 130 166 208 251 298
#     4   9  18  33  52  72  98 135 175 212 255 310
#     4   9  17  31  52  75 100 134 174 213 259 315
#     4   9  17  30  48  71  98 129 169 212 256 308
#     4   9  18  32  50  74 104 134 167 211 257 305
#
# _framework density 22.078851
#
# number of rings (size 3 to 8) (size 9 to 14) (size 15 to 20)
#    0.000    2.846    0.000    1.385    0.000    4.308 
#    1.385    3.846    1.692    3.231    0.000    2.154 
#    0.000    0.000    0.000    0.000    0.000    0.000 
#
# Total GULP energy -289500.057962 kJ/mol
# GULP energy per Si atom -5567.308807 kJ/mol
# Density = 2.202860 g / cm^3
# Si number density = 22.078851 Si / 1000 Ang^3
#
#
#
# Elastic Constant Matrix: (Units=GPa)
#
#
# Indices 1 2 3 4 5 6 
#
# 1 80.7414 -3.6562 13.0737 0.0000 0.0000 0.0000
# 2 -3.6562 55.2880 8.3462 0.0000 0.0000 0.0000
# 3 13.0737 8.3462 32.5655 0.0000 0.0000 0.0000
# 4 0.0000 0.0000 0.0000 18.2766 0.0000 0.0000
# 5 0.0000 0.0000 0.0000 0.0000 22.0791 0.0000
# 6 0.0000 0.0000 0.0000 0.0000 0.0000 27.0890
#
#
#
# Elastic Compliance Matrix: (Units=1/GPa)
#
#
# Indices 1 2 3 4 5 6 
#
# 1 0.013410 0.001768 -0.005837 0.000000 0.000000 0.000000
# 2 0.001768 0.019048 -0.005592 0.000000 0.000000 0.000000
# 3 -0.005837 -0.005592 0.034484 0.000000 0.000000 0.000000
# 4 0.000000 0.000000 0.000000 0.054715 0.000000 0.000000
# 5 0.000000 0.000000 0.000000 0.000000 0.045292 0.000000
# 6 0.000000 0.000000 0.000000 0.000000 0.000000 0.036915
#
#
# Mechanical properties :
#
#
# Convention : Reuss Voigt Hill
#
# Bulk Modulus (GPa) = 20.99906 22.68027 21.83966
# Shear Modulus (GPa) = 20.91536 23.54435 22.22985
#
# Velocity S-wave (km/s) = 3.08117 3.26908 3.17652
# Velocity P-wave (km/s) = 4.71060 4.95418 4.83392
#
# Compressibility (1/GPa) = 0.04762119
#
# Stress axis : x y z
#
# Youngs Moduli (GPa) = 74.56905 52.49862 28.99923
#
# Poissons Ratio (x) = -0.09282 0.16926
# Poissons Ratio (y) = -0.13183 0.16215
# Poissons Ratio (z) = 0.43525 0.29355
#
# Static dielectric constant tensor:
#      x y z
#    x 1.865520 0.000000 0.000000 
#    y 0.000000 1.862880 0.000000 
#    z 0.000000 0.000000 1.825560 
# 
# From -- ./inp_files/61988.got.cif
#   From: 2010.05.17/outbox.cif.g08.bks.cpg/sg71_31_cif.got.tgz:61988.got - 2010.06.03 16:22:01.
