data_PCOD9521321
_publ_section_title
;
Structure prediction by ZEFSAII (Michael W. Deem and Ramdas Pophale) SiO2 
 PCOD9521321
Probable space group: I M M M
;
_chemical_formula_sum "Si O2"
_cell_formula_units_Z 120
_cell_length_a 8.684683
_cell_length_b 28.832160
_cell_length_c 27.294699
_cell_angle_alpha 90.000000
_cell_angle_beta 90.000000
_cell_angle_gamma 90.000000
_cell_volume 6834.542675
_symmetry_space_group_name_H-M "I M M M"
_symmetry_group_IT_number 71
_symmetry_cell_setting 'orthorhombic'
loop_
_space_group_symop_operation_xyz
x,y,z
-x,-y,z
x,-y,-z
-x,y,-z
-x,-y,-z
x,y,-z
-x,y,z
x,-y,z
1/2+x,1/2+y,1/2+z
1/2-x,1/2-y,1/2+z
1/2+x,1/2-y,1/2-z
1/2-x,1/2+y,1/2-z
1/2-x,1/2-y,1/2-z
1/2+x,1/2+y,1/2-z
1/2-x,1/2+y,1/2+z
1/2+x,1/2-y,1/2+z
loop_
_atom_site_type_symbol
_atom_site_label
_atom_site_fract_x
_atom_site_fract_y
_atom_site_fract_z
Si Si1 0.187769 0.447656 0.295937
Si Si2 0.316236 0.304198 0.443343
Si Si3 0.814267 0.358609 0.355428
Si Si4 0.320413 0.295702 0.941037
Si Si5 0.187669 0.608902 0.798836
Si Si6 0.685381 0.199125 0.240808
Si Si7 0.816819 0.390590 0.091668
Si Si8 0.184166 0.053497 0.500000
O O1 0.241284 0.500000 0.304139
O O2 0.233109 0.409369 0.336058
O O3 0.235294 0.427371 0.243011
O O4 0.000000 0.448123 0.295818
O O5 0.272188 0.313340 0.500000
O O6 0.500000 0.299634 0.441276
O O7 0.259354 0.342943 0.405996
O O8 0.240824 0.255184 0.428356
O O9 0.500000 0.201307 0.242391
O O10 0.771988 0.322330 0.312150
O O11 0.500000 0.300126 0.928210
O O12 0.224696 0.336863 0.917095
O O13 0.306360 0.300563 0.000000
O O14 0.234948 0.660287 0.780616
O O15 0.238454 0.597177 0.853590
O O16 0.000000 0.609115 0.799244
O O17 0.500000 0.142110 0.140378
O O18 0.750000 0.250000 0.250000
O O19 0.742391 0.420217 0.048338
O O20 0.000000 0.396751 0.089139
O O21 0.000000 0.054818 0.500000
O O22 0.235877 0.000000 0.500000
#
# Coordination Sequence:
#
# PCOD9521321 Si02
#       8
#    16  16  16  16  16  16  16   8
#     4   8  14  29  54  79 104 134 168 210 262 318
#     4  10  21  35  52  76 106 141 181 217 255 305
#     4   9  18  32  51  78 108 135 172 215 258 311
#     4  10  20  34  52  73 102 139 176 212 259 312
#     4   8  17  31  47  74 107 133 164 213 265 312
#     4   9  18  32  47  70 104 139 171 205 253 310
#     4  11  21  34  55  80 105 133 174 225 270 319
#     4  11  25  43  57  71  99 141 183 227 282 329
#
# _framework density 17.557869
#
# number of rings (size 3 to 8) (size 9 to 14) (size 15 to 20)
#    0.000    2.600    0.667    3.000    1.867    2.933 
#    0.000    2.000    0.000    2.400    0.000    2.800 
#    0.000    0.000    0.000    0.000    0.000    0.000 
#
# Total GULP energy -334656.698704 kJ/mol
# GULP energy per Si atom -5577.611645 kJ/mol
# Density = 1.751791 g / cm^3
# Si number density = 17.557869 Si / 1000 Ang^3
#
#
#
# Elastic Constant Matrix: (Units=GPa)
#
#
# Indices 1 2 3 4 5 6 
#
# 1 15.4269 13.1796 17.6393 0.0000 0.0000 0.0000
# 2 13.1796 130.5583 60.2486 0.0000 0.0000 0.0000
# 3 17.6393 60.2486 99.9180 0.0000 0.0000 0.0000
# 4 0.0000 0.0000 0.0000 13.2280 0.0000 0.0000
# 5 0.0000 0.0000 0.0000 0.0000 12.5547 0.0000
# 6 0.0000 0.0000 0.0000 0.0000 0.0000 14.1772
#
#
#
# Elastic Compliance Matrix: (Units=1/GPa)
#
#
# Indices 1 2 3 4 5 6 
#
# 1 0.081671 -0.002204 -0.013089 0.000000 0.000000 0.000000
# 2 -0.002204 0.010672 -0.006046 0.000000 0.000000 0.000000
# 3 -0.013089 -0.006046 0.015964 0.000000 0.000000 0.000000
# 4 0.000000 0.000000 0.000000 0.075597 0.000000 0.000000
# 5 0.000000 0.000000 0.000000 0.000000 0.079651 0.000000
# 6 0.000000 0.000000 0.000000 0.000000 0.000000 0.070536
#
#
# Mechanical properties :
#
#
# Convention : Reuss Voigt Hill
#
# Bulk Modulus (GPa) = 15.23711 47.55981 31.39846
# Shear Modulus (GPa) = 12.54245 18.31435 15.42840
#
# Velocity S-wave (km/s) = 2.67563 3.23319 2.96753
# Velocity P-wave (km/s) = 4.27111 6.40970 5.44641
#
# Compressibility (1/GPa) = 0.06562922
#
# Stress axis : x y z
#
# Youngs Moduli (GPa) = 12.24424 93.70411 62.63957
#
# Poissons Ratio (x) = 0.20657 0.81987
# Poissons Ratio (y) = 0.02699 0.37870
# Poissons Ratio (z) = 0.16026 0.56651
#
# Static dielectric constant tensor:
#      x y z
#    x 1.596300 0.000000 0.000000 
#    y 0.000000 1.584410 0.000000 
#    z 0.000000 0.000000 1.602610 
# 
# From -- ./inp_files/63857.got.cif
#   From: 2010.05.17/outbox.cif.g08.bks.cpg/sg71_32_cif.got.tgz:63857.got - 2010.06.03 16:22:01.
