data_PCOD9521467
_publ_section_title
;
Structure prediction by ZEFSAII (Michael W. Deem and Ramdas Pophale) SiO2 
 PCOD9521467
Probable space group: I M M M
;
_chemical_formula_sum "Si O2"
_cell_formula_units_Z 88
_cell_length_a 29.306474
_cell_length_b 10.283228
_cell_length_c 15.597598
_cell_angle_alpha 90.000000
_cell_angle_beta 90.000000
_cell_angle_gamma 90.000000
_cell_volume 4700.572524
_symmetry_space_group_name_H-M "I M M M"
_symmetry_group_IT_number 71
_symmetry_cell_setting 'orthorhombic'
loop_
_space_group_symop_operation_xyz
x,y,z
-x,-y,z
x,-y,-z
-x,y,-z
-x,-y,-z
x,y,-z
-x,y,z
x,-y,z
1/2+x,1/2+y,1/2+z
1/2-x,1/2-y,1/2+z
1/2+x,1/2-y,1/2-z
1/2-x,1/2+y,1/2-z
1/2-x,1/2-y,1/2-z
1/2+x,1/2+y,1/2-z
1/2-x,1/2+y,1/2+z
1/2+x,1/2-y,1/2+z
loop_
_atom_site_type_symbol
_atom_site_label
_atom_site_fract_x
_atom_site_fract_y
_atom_site_fract_z
Si Si1 0.383044 0.658049 0.093791
Si Si2 0.717230 0.349052 0.142375
Si Si3 0.947316 0.500000 0.102877
Si Si4 0.203454 0.849060 0.848907
Si Si5 0.898941 0.229524 0.898993
Si Si6 0.050275 0.850084 0.261303
O O1 0.381285 0.500000 0.099208
O O2 0.330399 0.696737 0.102355
O O3 0.413762 0.708840 0.171657
O O4 0.401348 0.692819 0.000000
O O5 0.726924 0.500000 0.118295
O O6 0.757918 0.251133 0.120023
O O7 0.708188 0.348402 0.245204
O O8 0.917200 0.626184 0.123066
O O9 0.000000 0.500000 0.136145
O O10 0.951766 0.500000 0.000000
O O11 0.153697 0.798681 0.876928
O O12 0.209027 0.000000 0.876506
O O13 0.929465 0.147734 0.833787
O O14 0.906389 0.205158 0.000000
O O15 0.000000 0.789740 0.263113
O O16 0.045813 0.000000 0.288291
#
# Coordination Sequence:
#
# PCOD9521467 Si02
#       6
#    16  16   8  16  16  16
#     4   9  17  32  54  79 106 139 181 229 278 326
#     4   9  18  34  55  78 110 150 192 234 276 332
#     4   9  20  38  56  78 109 145 191 239 271 317
#     4  10  20  34  53  81 116 150 186 231 282 338
#     4  11  22  36  56  80 111 148 185 227 278 333
#     4  10  20  34  53  79 111 143 178 223 276 335
#
# _framework density 18.721124
#
# number of rings (size 3 to 8) (size 9 to 14) (size 15 to 20)
#    0.000    2.273    1.818    1.091    1.273    3.636 
#    0.000    2.727    0.000    0.000    0.000    0.000 
#    0.000    2.182    0.000    0.000    0.000    0.000 
#
# Total GULP energy -245115.070082 kJ/mol
# GULP energy per Si atom -5570.797047 kJ/mol
# Density = 1.867851 g / cm^3
# Si number density = 18.721124 Si / 1000 Ang^3
#
#
#
# Elastic Constant Matrix: (Units=GPa)
#
#
# Indices 1 2 3 4 5 6 
#
# 1 159.4234 58.1557 45.2877 0.0000 0.0000 0.0000
# 2 58.1557 81.7237 17.8397 0.0000 0.0000 0.0000
# 3 45.2877 17.8397 58.2982 0.0000 0.0000 0.0000
# 4 0.0000 0.0000 0.0000 3.0781 0.0000 0.0000
# 5 0.0000 0.0000 0.0000 0.0000 2.3351 0.0000
# 6 0.0000 0.0000 0.0000 0.0000 0.0000 17.0994
#
#
#
# Elastic Compliance Matrix: (Units=1/GPa)
#
#
# Indices 1 2 3 4 5 6 
#
# 1 0.010151 -0.005896 -0.006081 0.000000 0.000000 0.000000
# 2 -0.005896 0.016537 -0.000480 0.000000 0.000000 0.000000
# 3 -0.006081 -0.000480 0.022024 0.000000 0.000000 0.000000
# 4 0.000000 0.000000 0.000000 0.324880 0.000000 0.000000
# 5 0.000000 0.000000 0.000000 0.000000 0.428248 0.000000
# 6 0.000000 0.000000 0.000000 0.000000 0.000000 0.058482
#
#
# Mechanical properties :
#
#
# Convention : Reuss Voigt Hill
#
# Bulk Modulus (GPa) = 42.02212 60.22349 51.12281
# Shear Modulus (GPa) = 5.59804 16.37998 10.98901
#
# Velocity S-wave (km/s) = 1.73110 2.96116 2.42540
# Velocity P-wave (km/s) = 5.14691 6.62796 5.93383
#
# Compressibility (1/GPa) = 0.02379699
#
# Stress axis : x y z
#
# Youngs Moduli (GPa) = 98.51307 60.47089 45.40449
#
# Poissons Ratio (x) = 0.35654 0.27612
# Poissons Ratio (y) = 0.58084 0.02180
# Poissons Ratio (z) = 0.59909 0.02904
#
# Static dielectric constant tensor:
#      x y z
#    x 1.657640 0.000000 0.000000 
#    y 0.000000 1.720620 0.000000 
#    z 0.000000 0.000000 1.671230 
# 
# From -- ./inp_files/40165.got.cif
#   From: 2010.05.17/outbox.cif.g08.bks.cpg/sg71_21_cif.got.tgz:40165.got - 2010.06.03 16:22:01.
