data_PCOD9521543
_publ_section_title
;
Structure prediction by ZEFSAII (Michael W. Deem and Ramdas Pophale) SiO2 
 PCOD9521543
Probable space group: I M M M
;
_chemical_formula_sum "Si O2"
_cell_formula_units_Z 112
_cell_length_a 33.424644
_cell_length_b 11.752368
_cell_length_c 13.647320
_cell_angle_alpha 90.000000
_cell_angle_beta 90.000000
_cell_angle_gamma 90.000000
_cell_volume 5360.922727
_symmetry_space_group_name_H-M "I M M M"
_symmetry_group_IT_number 71
_symmetry_cell_setting 'orthorhombic'
loop_
_space_group_symop_operation_xyz
x,y,z
-x,-y,z
x,-y,-z
-x,y,-z
-x,-y,-z
x,y,-z
-x,y,z
x,-y,z
1/2+x,1/2+y,1/2+z
1/2-x,1/2-y,1/2+z
1/2+x,1/2-y,1/2-z
1/2-x,1/2+y,1/2-z
1/2-x,1/2-y,1/2-z
1/2+x,1/2+y,1/2-z
1/2-x,1/2+y,1/2+z
1/2+x,1/2-y,1/2+z
loop_
_atom_site_type_symbol
_atom_site_label
_atom_site_fract_x
_atom_site_fract_y
_atom_site_fract_z
Si Si1 0.877939 0.133626 0.612057
Si Si2 0.770749 0.200212 0.109022
Si Si3 0.072339 0.375036 0.193710
Si Si4 0.954530 0.288722 0.387928
Si Si5 0.952042 0.125236 0.114438
Si Si6 0.793245 0.127498 0.316317
Si Si7 0.656540 0.125193 0.610145
O O1 0.865219 0.159455 0.500000
O O2 0.919750 0.196182 0.628003
O O3 0.840110 0.160523 0.680332
O O4 0.885335 0.000000 0.619612
O O5 0.775766 0.125708 0.206169
O O6 0.732395 0.280745 0.124714
O O7 0.809522 0.281639 0.115446
O O8 0.769807 0.148315 0.000000
O O9 0.061732 0.500000 0.147418
O O10 0.054644 0.376784 0.302647
O O11 0.059276 0.250974 0.153019
O O12 0.120381 0.368452 0.185865
O O13 0.951087 0.330616 0.500000
O O14 0.000000 0.244616 0.376272
O O15 0.000000 0.121071 0.121720
O O16 0.937381 0.000000 0.154924
O O17 0.940560 0.124895 0.000000
O O18 0.790451 0.000000 0.358598
O O19 0.638368 0.132503 0.500000
O O20 0.675499 0.000000 0.619383
#
# Coordination Sequence:
#
# PCOD9521543 Si02
#       7
#    16  16  16  16  16  16  16
#     4   9  18  34  57  83 109 140 185 241 294 348
#     4  10  20  34  54  80 112 152 192 228 274 335
#     4  11  22  36  57  83 111 147 193 242 289 338
#     4  10  22  38  54  76 110 151 193 239 293 349
#     4   9  19  36  56  79 109 143 178 222 283 352
#     4  10  20  34  55  83 113 146 187 235 285 337
#     4   9  18  33  54  82 115 148 185 231 280 334
#
# _framework density 20.891926000000002
#
# number of rings (size 3 to 8) (size 9 to 14) (size 15 to 20)
#    0.000    2.286    0.000    3.000    0.000    4.857 
#    0.000    3.571    0.000    0.857    0.000    4.000 
#    0.000    0.000    0.000    0.000    0.000    0.000 
#
# Total GULP energy -311877.258723 kJ/mol
# GULP energy per Si atom -5569.236763 kJ/mol
# Density = 2.084437 g / cm^3
# Si number density = 20.891926 Si / 1000 Ang^3
#
#
#
# Elastic Constant Matrix: (Units=GPa)
#
#
# Indices 1 2 3 4 5 6 
#
# 1 88.3537 34.0815 21.2870 0.0000 0.0000 0.0000
# 2 34.0815 134.5129 28.1088 0.0000 0.0000 0.0000
# 3 21.2870 28.1088 66.7603 0.0000 0.0000 0.0000
# 4 0.0000 0.0000 0.0000 -47.7289 0.0000 0.0000
# 5 0.0000 0.0000 0.0000 0.0000 32.7090 0.0000
# 6 0.0000 0.0000 0.0000 0.0000 0.0000 34.1877
#
#
#
# Elastic Compliance Matrix: (Units=1/GPa)
#
#
# Indices 1 2 3 4 5 6 
#
# 1 0.013085 -0.002679 -0.003044 0.000000 0.000000 0.000000
# 2 -0.002679 0.008700 -0.002809 0.000000 0.000000 0.000000
# 3 -0.003044 -0.002809 0.017132 0.000000 0.000000 0.000000
# 4 0.000000 0.000000 0.000000 -0.020952 0.000000 0.000000
# 5 0.000000 0.000000 0.000000 0.000000 0.030573 0.000000
# 6 0.000000 0.000000 0.000000 0.000000 0.000000 0.029250
#
#
# Mechanical properties :
#
#
# Convention : Reuss Voigt Hill
#
# Bulk Modulus (GPa) = 45.76049 50.73128 48.24588
# Shear Modulus (GPa) = 48.95378 17.57688 33.26533
#
# Velocity S-wave (km/s) = 4.84590 2.90371 3.99464
# Velocity P-wave (km/s) = 7.29804 5.96468 6.66479
#
# Compressibility (1/GPa) = 0.02185291
#
# Stress axis : x y z
#
# Youngs Moduli (GPa) = 76.42306 114.94246 58.36954
#
# Poissons Ratio (x) = 0.30796 0.17769
# Poissons Ratio (y) = 0.20475 0.16395
# Poissons Ratio (z) = 0.23265 0.32285
#
# Static dielectric constant tensor:
#      x y z
#    x 1.719660 0.000000 0.000000 
#    y 0.000000 1.765130 0.000000 
#    z 0.000000 0.000000 1.822620 
# 
# From -- ./inp_files/40940.got.cif
#   From: 2010.05.17/outbox.cif.g08.bks.cpg/sg71_21_cif.got.tgz:40940.got - 2010.06.03 16:22:01.
