data_PCOD9521188
_publ_section_title
;
Structure prediction by ZEFSAII (Michael W. Deem and Ramdas Pophale) SiO2 
 PCOD9521188
Probable space group: I M M M
;
_chemical_formula_sum "Si O2"
_cell_formula_units_Z 116
_cell_length_a 23.933795
_cell_length_b 7.605634
_cell_length_c 32.470146
_cell_angle_alpha 90.000000
_cell_angle_beta 90.000000
_cell_angle_gamma 90.000000
_cell_volume 5910.595389
_symmetry_space_group_name_H-M "I M M M"
_symmetry_group_IT_number 71
_symmetry_cell_setting 'orthorhombic'
loop_
_space_group_symop_operation_xyz
x,y,z
-x,-y,z
x,-y,-z
-x,y,-z
-x,-y,-z
x,y,-z
-x,y,z
x,-y,z
1/2+x,1/2+y,1/2+z
1/2-x,1/2-y,1/2+z
1/2+x,1/2-y,1/2-z
1/2-x,1/2+y,1/2-z
1/2-x,1/2-y,1/2-z
1/2+x,1/2+y,1/2-z
1/2-x,1/2+y,1/2+z
1/2+x,1/2-y,1/2+z
loop_
_atom_site_type_symbol
_atom_site_label
_atom_site_fract_x
_atom_site_fract_y
_atom_site_fract_z
Si Si1 0.561781 0.212596 0.317893
Si Si2 0.902592 0.790084 0.549554
Si Si3 0.717878 0.206302 0.184497
Si Si4 0.331330 0.786477 0.269200
Si Si5 0.287663 0.299614 0.909245
Si Si6 0.000000 0.500000 0.564909
Si Si7 0.324685 0.291621 0.545796
Si Si8 0.937805 0.209115 0.913945
O O1 0.500000 0.272835 0.305584
O O2 0.610764 0.274879 0.288343
O O3 0.570927 0.265885 0.365129
O O4 0.562318 0.000000 0.316949
O O5 0.898056 0.780280 0.500000
O O6 0.844229 0.729032 0.570231
O O7 0.951273 0.656518 0.562718
O O8 0.912508 0.000000 0.559747
O O9 0.680855 0.274672 0.222718
O O10 0.780852 0.229618 0.201186
O O11 0.709392 0.289378 0.140106
O O12 0.706544 0.000000 0.179380
O O13 0.330396 0.000000 0.268355
O O14 0.286132 0.500000 0.922944
O O15 0.228644 0.226495 0.924745
O O16 0.312440 0.222405 0.500000
O O17 0.333501 0.500000 0.542492
O O18 0.383175 0.217829 0.563262
O O19 0.000000 0.280593 0.924213
O O20 0.940262 0.000000 0.921790
#
# Coordination Sequence:
#
# PCOD9521188 Si02
#       8
#    16  16  16  16  16   4  16  16
#     4   9  17  30  50  73  99 132 170 213 259 311
#     4  10  22  39  60  89 120 150 191 239 285 342
#     4  10  20  33  53  78 106 137 178 225 268 323
#     4   9  18  33  52  76 105 136 175 220 274 326
#     4  11  23  38  56  79 113 149 180 223 283 338
#     4  12  23  38  68  94 114 152 192 236 288 338
#     4  10  21  35  53  78 107 141 184 231 277 330
#     4   9  18  32  49  73 106 143 184 228 273 320
#
# _framework density 19.625772999999999
#
# number of rings (size 3 to 8) (size 9 to 14) (size 15 to 20)
#    0.000    2.207    0.000    2.897    1.931    5.517 
#    0.000    1.379    1.517    0.000    0.000    2.897 
#    0.000    0.000    0.000    0.000    0.000    0.000 
#
# Total GULP energy -322970.758376 kJ/mol
# GULP energy per Si atom -5568.461351 kJ/mol
# Density = 1.958110 g / cm^3
# Si number density = 19.625773 Si / 1000 Ang^3
#
#
#
# Elastic Constant Matrix: (Units=GPa)
#
#
# Indices 1 2 3 4 5 6 
#
# 1 124.7724 26.8723 49.3141 0.0000 0.0000 0.0000
# 2 26.8723 61.4166 7.6585 0.0000 0.0000 0.0000
# 3 49.3141 7.6585 50.4583 0.0000 0.0000 0.0000
# 4 0.0000 0.0000 0.0000 -14.1884 0.0000 0.0000
# 5 0.0000 0.0000 0.0000 0.0000 1389.6915 0.0000
# 6 0.0000 0.0000 0.0000 0.0000 0.0000 10.2137
#
#
#
# Elastic Compliance Matrix: (Units=1/GPa)
#
#
# Indices 1 2 3 4 5 6 
#
# 1 0.014217 -0.004574 -0.013200 0.000000 0.000000 0.000000
# 2 -0.004574 0.018068 0.001728 0.000000 0.000000 0.000000
# 3 -0.013200 0.001728 0.032457 0.000000 0.000000 0.000000
# 4 0.000000 0.000000 0.000000 -0.070480 0.000000 0.000000
# 5 0.000000 0.000000 0.000000 0.000000 0.000720 0.000000
# 6 0.000000 0.000000 0.000000 0.000000 0.000000 0.097908
#
#
# Mechanical properties :
#
#
# Convention : Reuss Voigt Hill
#
# Bulk Modulus (GPa) = 30.62845 44.92634 37.77739
# Shear Modulus (GPa) = 36.80107 287.33019 162.06563
#
# Velocity S-wave (km/s) = 4.33499 12.11290 9.09710
# Velocity P-wave (km/s) = 6.37936 14.78415 11.38568
#
# Compressibility (1/GPa) = 0.03264939
#
# Stress axis : x y z
#
# Youngs Moduli (GPa) = 70.33847 55.34580 30.81000
#
# Poissons Ratio (x) = 0.25318 0.40670
# Poissons Ratio (y) = 0.32176 -0.05325
# Poissons Ratio (z) = 0.92849 -0.09566
#
# Static dielectric constant tensor:
#      x y z
#    x 1.707850 0.000000 0.000000 
#    y 0.000000 1.740190 0.000000 
#    z 0.000000 0.000000 1.662360 
# 
# From -- ./inp_files/71051.got.cif
#   From: 2010.05.17/outbox.cif.g08.bks.cpg/sg71_36_cif.got.tgz:71051.got - 2010.06.03 16:22:01.
