data_PCOD9521343
_publ_section_title
;
Structure prediction by ZEFSAII (Michael W. Deem and Ramdas Pophale) SiO2 
 PCOD9521343
Probable space group: I M M M
;
_chemical_formula_sum "Si O2"
_cell_formula_units_Z 96
_cell_length_a 9.056058
_cell_length_b 28.737423
_cell_length_c 21.246579
_cell_angle_alpha 90.000000
_cell_angle_beta 90.000000
_cell_angle_gamma 90.000000
_cell_volume 5529.374793
_symmetry_space_group_name_H-M "I M M M"
_symmetry_group_IT_number 71
_symmetry_cell_setting 'orthorhombic'
loop_
_space_group_symop_operation_xyz
x,y,z
-x,-y,z
x,-y,-z
-x,y,-z
-x,-y,-z
x,y,-z
-x,y,z
x,-y,z
1/2+x,1/2+y,1/2+z
1/2-x,1/2-y,1/2+z
1/2+x,1/2-y,1/2-z
1/2-x,1/2+y,1/2-z
1/2-x,1/2-y,1/2-z
1/2+x,1/2+y,1/2-z
1/2-x,1/2+y,1/2+z
1/2+x,1/2-y,1/2+z
loop_
_atom_site_type_symbol
_atom_site_label
_atom_site_fract_x
_atom_site_fract_y
_atom_site_fract_z
Si Si1 0.823006 0.737081 0.183081
Si Si2 0.824245 0.326212 0.354025
Si Si3 0.329927 0.000000 0.923131
Si Si4 0.831838 0.093551 0.924488
Si Si5 0.823950 0.363852 0.213450
Si Si6 0.830813 0.943613 0.500000
Si Si7 0.179041 0.945863 0.360896
O O1 0.750000 0.750000 0.250000
O O2 0.755356 0.776488 0.138674
O O3 0.788763 0.682676 0.172634
O O4 0.000000 0.741483 0.187146
O O5 0.763829 0.362759 0.403753
O O6 0.789273 0.348922 0.285369
O O7 0.000000 0.320163 0.356948
O O8 0.245378 0.046158 0.901933
O O9 0.500000 0.000000 0.902808
O O10 0.329781 0.000000 0.000000
O O11 0.000000 0.097248 0.901118
O O12 0.836677 0.091202 0.000000
O O13 0.740769 0.409072 0.188713
O O14 0.000000 0.371647 0.210195
O O15 0.766491 0.931737 0.568453
O O16 0.000000 0.926370 0.500000
O O17 0.837058 0.000000 0.500000
O O18 0.000000 0.944513 0.361589
O O19 0.220788 0.000000 0.349152
#
# Coordination Sequence:
#
# PCOD9521343 Si02
#       7
#    16  16   8  16  16   8  16
#     4   9  17  31  51  73  97 126 165 207 249 300
#     4  10  20  34  52  75 100 131 171 210 255 305
#     4   9  17  31  51  73  97 129 169 208 247 298
#     4  10  20  34  53  76 102 133 170 214 260 304
#     4   9  19  33  49  73 103 132 161 201 252 299
#     4   7  12  26  47  69  93 123 161 201 235 272
#     4   9  17  30  50  74  99 130 167 204 242 288
#
# _framework density 17.361818
#
# number of rings (size 3 to 8) (size 9 to 14) (size 15 to 20)
#    0.000    2.833    0.000    3.750    0.000    6.333 
#    1.500    0.417    1.833    1.500    0.000    0.000 
#    0.000    0.000    0.000    0.000    0.000    0.000 
#
# Total GULP energy -267253.237627 kJ/mol
# GULP energy per Si atom -5567.775784 kJ/mol
# Density = 1.732230 g / cm^3
# Si number density = 17.361818 Si / 1000 Ang^3
#
#
#
# Elastic Constant Matrix: (Units=GPa)
#
#
# Indices 1 2 3 4 5 6 
#
# 1 60.2255 42.7733 17.4792 0.0000 0.0000 0.0000
# 2 42.7733 107.7046 15.7962 0.0000 0.0000 0.0000
# 3 17.4792 15.7962 14.6208 0.0000 0.0000 0.0000
# 4 0.0000 0.0000 0.0000 16.2012 0.0000 0.0000
# 5 0.0000 0.0000 0.0000 0.0000 20.4391 0.0000
# 6 0.0000 0.0000 0.0000 0.0000 0.0000 30.8219
#
#
#
# Elastic Compliance Matrix: (Units=1/GPa)
#
#
# Indices 1 2 3 4 5 6 
#
# 1 0.030273 -0.007979 -0.027571 0.000000 0.000000 0.000000
# 2 -0.007979 0.013136 -0.004653 0.000000 0.000000 0.000000
# 3 -0.027571 -0.004653 0.106384 0.000000 0.000000 0.000000
# 4 0.000000 0.000000 0.000000 0.061724 0.000000 0.000000
# 5 0.000000 0.000000 0.000000 0.000000 0.048926 0.000000
# 6 0.000000 0.000000 0.000000 0.000000 0.000000 0.032444
#
#
# Mechanical properties :
#
#
# Convention : Reuss Voigt Hill
#
# Bulk Modulus (GPa) = 14.41198 37.18314 25.79756
# Shear Modulus (GPa) = 12.61285 20.59259 16.60272
#
# Velocity S-wave (km/s) = 2.69824 3.44769 3.09573
# Velocity P-wave (km/s) = 4.24574 6.10835 5.26014
#
# Compressibility (1/GPa) = 0.06938673
#
# Stress axis : x y z
#
# Youngs Moduli (GPa) = 33.03294 76.12819 9.39993
#
# Poissons Ratio (x) = 0.60741 0.25916
# Poissons Ratio (y) = 0.26356 0.04374
# Poissons Ratio (z) = 0.91075 0.35423
#
# Static dielectric constant tensor:
#      x y z
#    x 1.585920 0.000000 0.000000 
#    y 0.000000 1.607390 0.000000 
#    z 0.000000 0.000000 1.633630 
# 
# From -- ./inp_files/57925.got.cif
#   From: 2010.05.17/outbox.cif.g08.bks.cpg/sg71_29_cif.got.tgz:57925.got - 2010.06.03 16:22:01.
