data_PCOD9521221
_publ_section_title
;
Structure prediction by ZEFSAII (Michael W. Deem and Ramdas Pophale) SiO2 
 PCOD9521221
Probable space group: I M M M
;
_chemical_formula_sum "Si O2"
_cell_formula_units_Z 90
_cell_length_a 11.656665
_cell_length_b 20.250682
_cell_length_c 23.365384
_cell_angle_alpha 90.000000
_cell_angle_beta 90.000000
_cell_angle_gamma 90.000000
_cell_volume 5515.525442
_symmetry_space_group_name_H-M "I M M M"
_symmetry_group_IT_number 71
_symmetry_cell_setting 'orthorhombic'
loop_
_space_group_symop_operation_xyz
x,y,z
-x,-y,z
x,-y,-z
-x,y,-z
-x,-y,-z
x,y,-z
-x,y,z
x,-y,z
1/2+x,1/2+y,1/2+z
1/2-x,1/2-y,1/2+z
1/2+x,1/2-y,1/2-z
1/2-x,1/2+y,1/2-z
1/2-x,1/2-y,1/2-z
1/2+x,1/2+y,1/2-z
1/2-x,1/2+y,1/2+z
1/2+x,1/2-y,1/2+z
loop_
_atom_site_type_symbol
_atom_site_label
_atom_site_fract_x
_atom_site_fract_y
_atom_site_fract_z
Si Si1 0.500000 0.922667 0.283400
Si Si2 0.860722 0.000000 0.935896
Si Si3 0.794266 0.346311 0.733331
Si Si4 0.500000 0.000000 0.500000
Si Si5 0.635333 0.365070 0.375144
Si Si6 0.500000 0.128128 0.413019
Si Si7 0.709938 0.229721 0.566584
Si Si8 0.367445 0.711618 0.825510
O O1 0.388991 0.899948 0.247961
O O2 0.500000 0.887121 0.345238
O O3 0.500000 0.000000 0.292922
O O4 0.827532 0.067695 0.905812
O O5 0.000000 0.000000 0.937426
O O6 0.816617 0.000000 0.000000
O O7 0.705629 0.361129 0.683073
O O8 0.719343 0.334102 0.790014
O O9 0.857706 0.280145 0.710462
O O10 0.500000 0.939779 0.449955
O O11 0.500000 0.367600 0.363360
O O12 0.658738 0.300479 0.413658
O O13 0.388121 0.173487 0.426287
O O14 0.743777 0.231618 0.500000
O O15 0.814109 0.218247 0.611078
O O16 0.500000 0.690816 0.826552
#
# Coordination Sequence:
#
# PCOD9521221 Si02
#       8
#     8   8  16   2  16   8  16  16
#     4  12  24  38  58  84 113 152 192 234 288 359
#     4   9  18  32  49  75 112 147 189 228 275 326
#     4  10  21  35  55  82 113 145 189 232 289 342
#     4  12  24  40  60  88 122 142 168 260 290 342
#     4  10  20  33  54  82 113 154 188 234 282 332
#     4  12  22  38  58  89 111 142 188 237 303 333
#     4  11  21  34  57  83 113 147 194 238 281 343
#     4  10  20  35  57  82 114 147 183 237 293 339
#
# _framework density 16.317575000000001
#
# number of rings (size 3 to 8) (size 9 to 14) (size 15 to 20)
#    0.000    1.511    4.889    1.067    1.244    1.067 
#    0.000    0.000    0.000    0.000    0.000    1.244 
#    0.000    0.000    0.000    0.000    0.000    0.000 
#
# Total GULP energy -250652.574861 kJ/mol
# GULP energy per Si atom -5570.057219 kJ/mol
# Density = 1.628044 g / cm^3
# Si number density = 16.317575 Si / 1000 Ang^3
#
#
#
# Elastic Constant Matrix: (Units=GPa)
#
#
# Indices 1 2 3 4 5 6 
#
# 1 90.3796 25.2745 40.6616 0.0000 0.0000 0.0000
# 2 25.2745 96.9115 29.3360 0.0000 0.0000 0.0000
# 3 40.6616 29.3360 108.8671 0.0000 0.0000 0.0000
# 4 0.0000 0.0000 0.0000 25.8674 0.0000 0.0000
# 5 0.0000 0.0000 0.0000 0.0000 2.7415 0.0000
# 6 0.0000 0.0000 0.0000 0.0000 0.0000 14.5282
#
#
#
# Elastic Compliance Matrix: (Units=1/GPa)
#
#
# Indices 1 2 3 4 5 6 
#
# 1 0.013719 -0.002207 -0.004529 0.000000 0.000000 0.000000
# 2 -0.002207 0.011590 -0.002299 0.000000 0.000000 0.000000
# 3 -0.004529 -0.002299 0.011497 0.000000 0.000000 0.000000
# 4 0.000000 0.000000 0.000000 0.038659 0.000000 0.000000
# 5 0.000000 0.000000 0.000000 0.000000 0.364770 0.000000
# 6 0.000000 0.000000 0.000000 0.000000 0.000000 0.068832
#
#
# Mechanical properties :
#
#
# Convention : Reuss Voigt Hill
#
# Bulk Modulus (GPa) = 53.37388 54.07805 53.72597
# Shear Modulus (GPa) = 9.37413 22.01981 15.69697
#
# Velocity S-wave (km/s) = 2.39943 3.67748 3.10492
# Velocity P-wave (km/s) = 6.36057 7.15854 6.77132
#
# Compressibility (1/GPa) = 0.01873575
#
# Stress axis : x y z
#
# Youngs Moduli (GPa) = 72.88948 86.28023 86.98127
#
# Poissons Ratio (x) = 0.19041 0.39398
# Poissons Ratio (y) = 0.16086 0.19996
# Poissons Ratio (z) = 0.33015 0.19835
#
# Static dielectric constant tensor:
#      x y z
#    x 1.521320 0.000000 0.000000 
#    y 0.000000 1.579220 0.000000 
#    z 0.000000 0.000000 1.547290 
# 
# From -- ./inp_files/47177.got.cif
#   From: 2010.05.17/outbox.cif.g08.bks.cpg/sg71_24_cif.got.tgz:47177.got - 2010.06.03 16:22:01.
