data_PCOD9521412
_publ_section_title
;
Structure prediction by ZEFSAII (Michael W. Deem and Ramdas Pophale) SiO2 
 PCOD9521412
Probable space group: I M M M
;
_chemical_formula_sum "Si O2"
_cell_formula_units_Z 120
_cell_length_a 28.664521
_cell_length_b 8.808186
_cell_length_c 28.041386
_cell_angle_alpha 90.000000
_cell_angle_beta 90.000000
_cell_angle_gamma 90.000000
_cell_volume 7079.957350
_symmetry_space_group_name_H-M "I M M M"
_symmetry_group_IT_number 71
_symmetry_cell_setting 'orthorhombic'
loop_
_space_group_symop_operation_xyz
x,y,z
-x,-y,z
x,-y,-z
-x,y,-z
-x,-y,-z
x,y,-z
-x,y,z
x,-y,z
1/2+x,1/2+y,1/2+z
1/2-x,1/2-y,1/2+z
1/2+x,1/2-y,1/2-z
1/2-x,1/2+y,1/2-z
1/2-x,1/2-y,1/2-z
1/2+x,1/2+y,1/2-z
1/2-x,1/2+y,1/2+z
1/2+x,1/2-y,1/2+z
loop_
_atom_site_type_symbol
_atom_site_label
_atom_site_fract_x
_atom_site_fract_y
_atom_site_fract_z
Si Si1 0.712011 0.823200 0.555842
Si Si2 0.790397 0.825812 0.309769
Si Si3 0.094335 0.318666 0.443897
Si Si4 0.555054 0.817122 0.555082
Si Si5 0.819967 0.676360 0.785786
Si Si6 0.805334 0.678863 0.408138
Si Si7 0.500000 0.320155 0.943648
Si Si8 0.134317 0.819796 0.121921
O O1 0.700882 0.809364 0.500000
O O2 0.764584 0.769367 0.565322
O O3 0.677446 0.723625 0.587457
O O4 0.706737 0.000000 0.569821
O O5 0.817922 0.773891 0.262609
O O6 0.734446 0.820032 0.301982
O O7 0.800159 0.711459 0.352435
O O8 0.802017 0.000000 0.322235
O O9 0.096564 0.282714 0.500000
O O10 0.090512 0.500000 0.438892
O O11 0.143222 0.268760 0.422445
O O12 0.047842 0.244682 0.422998
O O13 0.566939 0.772802 0.500000
O O14 0.500000 0.782772 0.562340
O O15 0.588698 0.742595 0.594211
O O16 0.560456 0.000000 0.557707
O O17 0.831717 0.500000 0.776669
O O18 0.852709 0.742917 0.827394
O O19 0.800751 0.500000 0.419111
O O20 0.500000 0.500000 0.941253
O O21 0.500000 0.274720 0.000000
O O22 0.131086 0.000000 0.127890
#
# Coordination Sequence:
#
# PCOD9521412 Si02
#       8
#    16  16  16  16  16  16   8  16
#     4  11  23  36  49  69 103 145 182 215 254 304
#     4  10  20  34  53  76 105 137 172 215 261 307
#     4   9  18  32  49  70  99 135 171 208 250 299
#     4   9  19  37  59  81 108 144 184 225 270 322
#     4  10  20  35  55  76 103 136 174 216 259 307
#     4  11  21  33  51  75 104 137 174 211 256 311
#     4   9  17  29  47  71  95 123 165 213 253 289
#     4  12  23  34  53  80 109 140 177 220 266 316
#
# _framework density 16.949254
#
# number of rings (size 3 to 8) (size 9 to 14) (size 15 to 20)
#    0.000    1.800    1.333    4.200    0.000    6.667 
#    0.000    2.000    0.000    0.000    1.733    0.000 
#    0.000    0.000    0.000    0.000    0.000    0.000 
#
# Total GULP energy -334809.198474 kJ/mol
# GULP energy per Si atom -5580.153308 kJ/mol
# Density = 1.691068 g / cm^3
# Si number density = 16.949254 Si / 1000 Ang^3
#
#
#
# Elastic Constant Matrix: (Units=GPa)
#
#
# Indices 1 2 3 4 5 6 
#
# 1 52.6348 9.8290 0.3512 0.0000 0.0000 0.0000
# 2 9.8290 41.3543 7.9013 0.0000 0.0000 0.0000
# 3 0.3512 7.9013 26.8176 0.0000 0.0000 0.0000
# 4 0.0000 0.0000 0.0000 22.4910 0.0000 0.0000
# 5 0.0000 0.0000 0.0000 0.0000 64.4003 0.0000
# 6 0.0000 0.0000 0.0000 0.0000 0.0000 25.3073
#
#
#
# Elastic Compliance Matrix: (Units=1/GPa)
#
#
# Indices 1 2 3 4 5 6 
#
# 1 0.019918 -0.004964 0.001202 0.000000 0.000000 0.000000
# 2 -0.004964 0.026861 -0.007849 0.000000 0.000000 0.000000
# 3 0.001202 -0.007849 0.039586 0.000000 0.000000 0.000000
# 4 0.000000 0.000000 0.000000 0.044462 0.000000 0.000000
# 5 0.000000 0.000000 0.000000 0.000000 0.015528 0.000000
# 6 0.000000 0.000000 0.000000 0.000000 0.000000 0.039514
#
#
# Mechanical properties :
#
#
# Convention : Reuss Voigt Hill
#
# Bulk Modulus (GPa) = 15.83726 17.44106 16.63916
# Shear Modulus (GPa) = 21.72611 29.28806 25.50709
#
# Velocity S-wave (km/s) = 3.58415 4.16141 3.88352
# Velocity P-wave (km/s) = 5.14708 5.77947 5.47242
#
# Compressibility (1/GPa) = 0.06314223
#
# Stress axis : x y z
#
# Youngs Moduli (GPa) = 50.20660 37.22919 25.26162
#
# Poissons Ratio (x) = 0.18479 -0.03035
# Poissons Ratio (y) = 0.24920 0.19828
# Poissons Ratio (z) = -0.06033 0.29221
#
# Static dielectric constant tensor:
#      x y z
#    x 1.573500 0.000000 0.000000 
#    y 0.000000 1.565650 0.000000 
#    z 0.000000 0.000000 1.578900 
# 
# From -- ./inp_files/67155.got.cif
#   From: 2010.05.17/outbox.cif.g08.bks.cpg/sg71_34_cif.got.tgz:67155.got - 2010.06.03 16:22:01.
