data_PCOD9521919
_publ_section_title
;
Structure prediction by ZEFSAII (Michael W. Deem and Ramdas Pophale) SiO2 
 PCOD9521919
Probable space group: I M M M
;
_chemical_formula_sum "Si O2"
_cell_formula_units_Z 64
_cell_length_a 26.774412
_cell_length_b 15.277300
_cell_length_c 7.601898
_cell_angle_alpha 90.000000
_cell_angle_beta 90.000000
_cell_angle_gamma 90.000000
_cell_volume 3109.485865
_symmetry_space_group_name_H-M "I M M M"
_symmetry_group_IT_number 71
_symmetry_cell_setting 'orthorhombic'
loop_
_space_group_symop_operation_xyz
x,y,z
-x,-y,z
x,-y,-z
-x,y,-z
-x,-y,-z
x,y,-z
-x,y,z
x,-y,z
1/2+x,1/2+y,1/2+z
1/2-x,1/2-y,1/2+z
1/2+x,1/2-y,1/2-z
1/2-x,1/2+y,1/2-z
1/2-x,1/2-y,1/2-z
1/2+x,1/2+y,1/2-z
1/2-x,1/2+y,1/2+z
1/2+x,1/2-y,1/2+z
loop_
_atom_site_type_symbol
_atom_site_label
_atom_site_fract_x
_atom_site_fract_y
_atom_site_fract_z
Si Si1 0.329480 0.500000 0.789813
Si Si2 0.442876 0.000000 0.788788
Si Si3 0.284634 0.000000 0.716400
Si Si4 0.394097 0.670494 0.709215
Si Si5 0.638213 0.856524 0.707769
Si Si6 0.000000 0.898145 0.215592
O O1 0.272442 0.500000 0.725367
O O2 0.359129 0.586579 0.734008
O O3 0.327974 0.500000 0.000000
O O4 0.411366 0.915526 0.729208
O O5 0.500000 0.000000 0.725795
O O6 0.443282 0.000000 0.000000
O O7 0.316014 0.084858 0.776960
O O8 0.285357 0.000000 0.500000
O O9 0.400036 0.683675 0.500000
O O10 0.370865 0.760068 0.782554
O O11 0.449365 0.647988 0.777403
O O12 0.647977 0.847011 0.500000
O O13 0.000000 0.000000 0.267883
O O14 0.000000 0.897647 0.000000
#
# Coordination Sequence:
#
# PCOD9521919 Si02
#       6
#     8   8   8  16  16   8
#     4  11  22  35  53  75 109 148 178 213 273 336
#     4  10  21  35  51  77 116 149 172 212 268 322
#     4   8  17  36  54  76 108 139 173 227 276 306
#     4  10  20  35  56  81 106 135 180 228 269 311
#     4   9  19  36  59  80 102 137 185 230 263 308
#     4   9  16  30  52  75 106 135 161 220 276 304
#
# _framework density 20.582180999999999
#
# number of rings (size 3 to 8) (size 9 to 14) (size 15 to 20)
#    0.000    2.500    1.250    1.500    1.750    3.000 
#    0.000    6.250    0.000    0.000    0.000    0.000 
#    0.000    0.000    0.000    0.000    0.000    0.000 
#
# Total GULP energy -178626.867372 kJ/mol
# GULP energy per Si atom -5582.089605 kJ/mol
# Density = 2.053534 g / cm^3
# Si number density = 20.582181 Si / 1000 Ang^3
#
#
#
# Elastic Constant Matrix: (Units=GPa)
#
#
# Indices 1 2 3 4 5 6 
#
# 1 198.4908 103.0950 -8.8934 0.0000 0.0000 0.0000
# 2 103.0950 206.2842 -5.3030 0.0000 0.0000 0.0000
# 3 -8.8934 -5.3030 40.7554 0.0000 0.0000 0.0000
# 4 0.0000 0.0000 0.0000 22.8973 0.0000 0.0000
# 5 0.0000 0.0000 0.0000 0.0000 -34.9239 0.0000
# 6 0.0000 0.0000 0.0000 0.0000 0.0000 7.8740
#
#
#
# Elastic Compliance Matrix: (Units=1/GPa)
#
#
# Indices 1 2 3 4 5 6 
#
# 1 0.006849 -0.003396 0.001053 0.000000 0.000000 0.000000
# 2 -0.003396 0.006548 0.000111 0.000000 0.000000 0.000000
# 3 0.001053 0.000111 0.024781 0.000000 0.000000 0.000000
# 4 0.000000 0.000000 0.000000 0.043673 0.000000 0.000000
# 5 0.000000 0.000000 0.000000 0.000000 -0.028634 0.000000
# 6 0.000000 0.000000 0.000000 0.000000 0.000000 0.127000
#
#
# Mechanical properties :
#
#
# Convention : Reuss Voigt Hill
#
# Bulk Modulus (GPa) = 29.66221 69.25864 49.46042
# Shear Modulus (GPa) = 25.52068 22.94492 24.23280
#
# Velocity S-wave (km/s) = 3.52510 3.34248 3.43500
# Velocity P-wave (km/s) = 5.56878 6.97274 6.30993
#
# Compressibility (1/GPa) = 0.03371293
#
# Stress axis : x y z
#
# Youngs Moduli (GPa) = 146.00723 152.72561 40.35390
#
# Poissons Ratio (x) = 0.51864 -0.04248
# Poissons Ratio (y) = 0.49582 -0.00448
# Poissons Ratio (z) = -0.15370 -0.01694
#
# Static dielectric constant tensor:
#      x y z
#    x 1.711000 0.000000 0.000000 
#    y 0.000000 1.776570 0.000000 
#    z 0.000000 0.000000 1.755850 
# 
# From -- ./inp_files/5629.got.cif
#   From: 2010.05.17/outbox.cif.g08.bks.cpg/sg71_3_cif.got.tgz:5629.got - 2010.06.03 16:22:01.
