data_PCOD9521381
_publ_section_title
;
Structure prediction by ZEFSAII (Michael W. Deem and Ramdas Pophale) SiO2 
 PCOD9521381
Probable space group: I M M M
;
_chemical_formula_sum "Si O2"
_cell_formula_units_Z 120
_cell_length_a 29.996311
_cell_length_b 8.856085
_cell_length_c 25.014149
_cell_angle_alpha 90.000000
_cell_angle_beta 90.000000
_cell_angle_gamma 90.000000
_cell_volume 6645.005678
_symmetry_space_group_name_H-M "I M M M"
_symmetry_group_IT_number 71
_symmetry_cell_setting 'orthorhombic'
loop_
_space_group_symop_operation_xyz
x,y,z
-x,-y,z
x,-y,-z
-x,y,-z
-x,-y,-z
x,y,-z
-x,y,z
x,-y,z
1/2+x,1/2+y,1/2+z
1/2-x,1/2-y,1/2+z
1/2+x,1/2-y,1/2-z
1/2-x,1/2+y,1/2-z
1/2-x,1/2-y,1/2-z
1/2+x,1/2+y,1/2-z
1/2-x,1/2+y,1/2+z
1/2+x,1/2-y,1/2+z
loop_
_atom_site_type_symbol
_atom_site_label
_atom_site_fract_x
_atom_site_fract_y
_atom_site_fract_z
Si Si1 0.158236 0.181839 0.560236
Si Si2 0.123686 0.181421 0.824727
Si Si3 0.918250 0.319134 0.371983
Si Si4 0.947858 0.681911 0.747228
Si Si5 0.716562 0.823674 0.707933
Si Si6 0.648482 0.681247 0.442209
Si Si7 0.000000 0.818893 0.437440
Si Si8 0.758771 0.323680 0.084798
O O1 0.142602 0.218957 0.500000
O O2 0.128156 0.260389 0.604518
O O3 0.210061 0.224376 0.565825
O O4 0.155438 0.000000 0.566512
O O5 0.081189 0.243648 0.793555
O O6 0.168729 0.242575 0.796651
O O7 0.125776 0.233680 0.886945
O O8 0.124195 0.000000 0.823548
O O9 0.920610 0.500000 0.375375
O O10 0.927440 0.275850 0.310532
O O11 0.956883 0.247531 0.408216
O O12 0.945249 0.500000 0.751789
O O13 0.000000 0.724377 0.748687
O O14 0.750000 0.750000 0.750000
O O15 0.738162 0.813166 0.648962
O O16 0.709645 0.000000 0.720561
O O17 0.630941 0.735293 0.500000
O O18 0.645937 0.500000 0.441902
O O19 0.700022 0.730139 0.437740
O O20 0.000000 0.779073 0.500000
O O21 0.000000 0.000000 0.433066
O O22 0.764814 0.500000 0.070001
#
# Coordination Sequence:
#
# PCOD9521381 Si02
#       8
#    16  16  16  16  16  16   8  16
#     4  10  21  36  52  75 109 145 182 227 275 319
#     4  10  21  36  57  86 114 145 186 227 275 334
#     4  11  23  39  57  79 104 137 181 227 279 332
#     4  10  22  42  62  82 110 141 179 232 289 338
#     4  10  20  34  52  78 112 149 189 231 277 325
#     4   9  18  34  56  83 116 149 181 221 267 318
#     4  11  23  39  59  81 105 135 174 225 282 335
#     4   9  19  34  52  76 107 146 189 227 265 314
#
# _framework density 18.058675999999998
#
# number of rings (size 3 to 8) (size 9 to 14) (size 15 to 20)
#    0.000    2.067    0.667    2.200    1.867    6.133 
#    0.000    0.000    0.000    0.400    0.000    2.800 
#    0.000    0.000    0.000    0.000    0.000    0.000 
#
# Total GULP energy -334979.721088 kJ/mol
# GULP energy per Si atom -5582.995351 kJ/mol
# Density = 1.801757 g / cm^3
# Si number density = 18.058676 Si / 1000 Ang^3
#
#
#
# Elastic Constant Matrix: (Units=GPa)
#
#
# Indices 1 2 3 4 5 6 
#
# 1 91.1369 28.3149 71.5055 0.0000 0.0000 0.0000
# 2 28.3149 33.9669 44.0420 0.0000 0.0000 0.0000
# 3 71.5055 44.0420 144.1106 0.0000 0.0000 0.0000
# 4 0.0000 0.0000 0.0000 20.6649 0.0000 0.0000
# 5 0.0000 0.0000 0.0000 0.0000 21.7387 0.0000
# 6 0.0000 0.0000 0.0000 0.0000 0.0000 30.9088
#
#
#
# Elastic Compliance Matrix: (Units=1/GPa)
#
#
# Indices 1 2 3 4 5 6 
#
# 1 0.018649 -0.005877 -0.007458 0.000000 0.000000 0.000000
# 2 -0.005877 0.050615 -0.012553 0.000000 0.000000 0.000000
# 3 -0.007458 -0.012553 0.014476 0.000000 0.000000 0.000000
# 4 0.000000 0.000000 0.000000 0.048391 0.000000 0.000000
# 5 0.000000 0.000000 0.000000 0.000000 0.046001 0.000000
# 6 0.000000 0.000000 0.000000 0.000000 0.000000 0.032353
#
#
# Mechanical properties :
#
#
# Convention : Reuss Voigt Hill
#
# Bulk Modulus (GPa) = 31.28268 61.88211 46.58240
# Shear Modulus (GPa) = 18.32070 23.01930 20.67000
#
# Velocity S-wave (km/s) = 3.18859 3.57416 3.38687
# Velocity P-wave (km/s) = 5.56027 7.16760 6.41448
#
# Compressibility (1/GPa) = 0.03196657
#
# Stress axis : x y z
#
# Youngs Moduli (GPa) = 53.62080 19.75687 69.08099
#
# Poissons Ratio (x) = 0.11610 0.51518
# Poissons Ratio (y) = 0.31511 0.86716
# Poissons Ratio (z) = 0.39988 0.24800
#
# Static dielectric constant tensor:
#      x y z
#    x 1.593290 0.000000 0.000000 
#    y 0.000000 1.609470 0.000000 
#    z 0.000000 0.000000 1.637380 
# 
# From -- ./inp_files/67202.got.cif
#   From: 2010.05.17/outbox.cif.g08.bks.cpg/sg71_34_cif.got.tgz:67202.got - 2010.06.03 16:22:01.
