data_PCOD9521022
_publ_section_title
;
Structure prediction by ZEFSAII (Michael W. Deem and Ramdas Pophale) SiO2 
 PCOD9521022
Probable space group: I M M M
;
_chemical_formula_sum "Si O2"
_cell_formula_units_Z 116
_cell_length_a 17.640448
_cell_length_b 20.203523
_cell_length_c 19.031628
_cell_angle_alpha 90.000000
_cell_angle_beta 90.000000
_cell_angle_gamma 90.000000
_cell_volume 6782.856935
_symmetry_space_group_name_H-M "I M M M"
_symmetry_group_IT_number 71
_symmetry_cell_setting 'orthorhombic'
loop_
_space_group_symop_operation_xyz
x,y,z
-x,-y,z
x,-y,-z
-x,y,-z
-x,-y,-z
x,y,-z
-x,y,z
x,-y,z
1/2+x,1/2+y,1/2+z
1/2-x,1/2-y,1/2+z
1/2+x,1/2-y,1/2-z
1/2-x,1/2+y,1/2-z
1/2-x,1/2-y,1/2-z
1/2+x,1/2+y,1/2-z
1/2-x,1/2+y,1/2+z
1/2+x,1/2-y,1/2+z
loop_
_atom_site_type_symbol
_atom_site_label
_atom_site_fract_x
_atom_site_fract_y
_atom_site_fract_z
Si Si1 0.729816 0.688974 0.917245
Si Si2 0.625126 0.383434 0.282433
Si Si3 0.413465 0.729053 0.170597
Si Si4 0.087053 0.379282 0.716276
Si Si5 0.692667 0.671525 0.419650
Si Si6 0.000000 0.000000 0.782143
Si Si7 0.771400 0.577108 0.806299
Si Si8 0.837661 0.424628 0.421260
O O1 0.647676 0.712122 0.888956
O O2 0.784268 0.752428 0.906164
O O3 0.756164 0.626731 0.870942
O O4 0.727441 0.674415 0.000000
O O5 0.597297 0.325326 0.231032
O O6 0.637117 0.355274 0.360409
O O7 0.566071 0.442467 0.281436
O O8 0.706193 0.407066 0.251242
O O9 0.500000 0.727929 0.144431
O O10 0.399041 0.801174 0.203621
O O11 0.147943 0.407389 0.770712
O O12 0.103579 0.412101 0.640689
O O13 0.000000 0.389417 0.737411
O O14 0.664954 0.665383 0.500000
O O15 0.769005 0.627178 0.414501
O O16 0.766445 0.500000 0.825982
O O17 0.869890 0.416772 0.500000
O O18 0.808348 0.500000 0.415243
#
# Coordination Sequence:
#
# PCOD9521022 Si02
#       8
#    16  16  16  16  16   4  16  16
#     4  10  21  38  61  87 111 148 200 241 288 358
#     4  11  21  38  57  83 115 153 198 231 286 346
#     4  10  20  35  57  84 118 150 184 240 292 339
#     4  11  22  35  57  89 116 148 196 238 279 345
#     4  10  20  36  59  82 111 151 194 239 281 335
#     4  12  24  36  61  88 115 156 192 244 280 348
#     4  11  22  37  60  83 117 156 188 240 297 343
#     4  10  20  33  50  77 115 154 185 221 280 342
#
# _framework density 17.101938000000001
#
# number of rings (size 3 to 8) (size 9 to 14) (size 15 to 20)
#    0.000    1.517    4.138    1.241    0.966    4.138 
#    0.000    2.759    0.000    0.414    0.000    4.828 
#    0.000    0.000    0.000    0.000    0.000    0.000 
#
# Total GULP energy -323235.094527 kJ/mol
# GULP energy per Si atom -5573.018871 kJ/mol
# Density = 1.706301 g / cm^3
# Si number density = 17.101938 Si / 1000 Ang^3
#
#
#
# Elastic Constant Matrix: (Units=GPa)
#
#
# Indices 1 2 3 4 5 6 
#
# 1 60.7191 25.6891 29.6713 0.0000 0.0000 0.0000
# 2 25.6891 122.6997 50.3419 0.0000 0.0000 0.0000
# 3 29.6713 50.3419 83.1583 0.0000 0.0000 0.0000
# 4 0.0000 0.0000 0.0000 7.6282 0.0000 0.0000
# 5 0.0000 0.0000 0.0000 0.0000 10.9992 0.0000
# 6 0.0000 0.0000 0.0000 0.0000 0.0000 19.3173
#
#
#
# Elastic Compliance Matrix: (Units=1/GPa)
#
#
# Indices 1 2 3 4 5 6 
#
# 1 0.020208 -0.001693 -0.006185 0.000000 0.000000 0.000000
# 2 -0.001693 0.010985 -0.006046 0.000000 0.000000 0.000000
# 3 -0.006185 -0.006046 0.017892 0.000000 0.000000 0.000000
# 4 0.000000 0.000000 0.000000 0.131093 0.000000 0.000000
# 5 0.000000 0.000000 0.000000 0.000000 0.090915 0.000000
# 6 0.000000 0.000000 0.000000 0.000000 0.000000 0.051767
#
#
# Mechanical properties :
#
#
# Convention : Reuss Voigt Hill
#
# Bulk Modulus (GPa) = 47.08857 53.10908 50.09882
# Shear Modulus (GPa) = 13.97471 18.31393 16.14432
#
# Velocity S-wave (km/s) = 2.86167 3.27596 3.07580
# Velocity P-wave (km/s) = 6.20586 6.74026 6.47857
#
# Compressibility (1/GPa) = 0.02123658
#
# Stress axis : x y z
#
# Youngs Moduli (GPa) = 49.48486 91.03303 55.88995
#
# Poissons Ratio (x) = 0.15413 0.34570
# Poissons Ratio (y) = 0.08378 0.33791
# Poissons Ratio (z) = 0.30608 0.55038
#
# Static dielectric constant tensor:
#      x y z
#    x 1.568700 0.000000 0.000000 
#    y 0.000000 1.576540 0.000000 
#    z 0.000000 0.000000 1.565020 
# 
# From -- ./inp_files/46216.got.cif
#   From: 2010.05.17/outbox.cif.g08.bks.cpg/sg71_24_cif.got.tgz:46216.got - 2010.06.03 16:22:01.
