data_PCOD9521982
_publ_section_title
;
Structure prediction by ZEFSAII (Michael W. Deem and Ramdas Pophale) SiO2 
 PCOD9521982
Probable space group: I M M M
;
_chemical_formula_sum "Si O2"
_cell_formula_units_Z 88
_cell_length_a 20.773365
_cell_length_b 8.551513
_cell_length_c 25.342088
_cell_angle_alpha 90.000000
_cell_angle_beta 90.000000
_cell_angle_gamma 90.000000
_cell_volume 4501.862300
_symmetry_space_group_name_H-M "I M M M"
_symmetry_group_IT_number 71
_symmetry_cell_setting 'orthorhombic'
loop_
_space_group_symop_operation_xyz
x,y,z
-x,-y,z
x,-y,-z
-x,y,-z
-x,-y,-z
x,y,-z
-x,y,z
x,-y,z
1/2+x,1/2+y,1/2+z
1/2-x,1/2-y,1/2+z
1/2+x,1/2-y,1/2-z
1/2-x,1/2+y,1/2-z
1/2-x,1/2-y,1/2-z
1/2+x,1/2+y,1/2-z
1/2-x,1/2+y,1/2+z
1/2+x,1/2-y,1/2+z
loop_
_atom_site_type_symbol
_atom_site_label
_atom_site_fract_x
_atom_site_fract_y
_atom_site_fract_z
Si Si1 0.806679 0.180261 0.059429
Si Si2 0.198602 0.684831 0.706842
Si Si3 0.326210 0.315941 0.088754
Si Si4 0.930208 0.184894 0.883596
Si Si5 0.069764 0.318339 0.770086
Si Si6 0.423586 0.812029 0.000000
O O1 0.741036 0.274627 0.060777
O O2 0.864370 0.251336 0.093414
O O3 0.792589 0.000000 0.076493
O O4 0.831258 0.173020 0.000000
O O5 0.211705 0.500000 0.701353
O O6 0.250000 0.750000 0.750000
O O7 0.189729 0.755403 0.648268
O O8 0.129138 0.709923 0.732905
O O9 0.337630 0.500000 0.091078
O O10 0.383644 0.243693 0.052410
O O11 0.927581 0.210810 0.821204
O O12 0.000000 0.247964 0.901720
O O13 0.929399 0.000000 0.895933
O O14 0.073327 0.500000 0.787998
O O15 0.000000 0.297192 0.743873
O O16 0.500000 0.763873 0.000000
O O17 0.422219 0.000000 0.000000
#
# Coordination Sequence:
#
# PCOD9521982 Si02
#       6
#    16  16  16  16  16   8
#     4  10  20  35  57  81 112 155 199 243 293 351
#     4  11  23  39  61  90 124 162 207 260 314 376
#     4  12  25  41  63  92 126 162 203 257 316 380
#     4   9  18  32  52  81 115 152 195 243 292 342
#     4   9  19  36  56  78 107 146 190 234 286 349
#     4  11  25  47  73  97 124 163 212 267 329 394
#
# _framework density 19.547466
#
# number of rings (size 3 to 8) (size 9 to 14) (size 15 to 20)
#    0.000    1.727    0.909    3.545    0.000    6.909 
#    0.000    3.636    0.000    0.000    0.000    3.818 
#    0.000    0.000    0.000    0.000    0.000    0.000 
#
# Total GULP energy -245148.936361 kJ/mol
# GULP energy per Si atom -5571.566735 kJ/mol
# Density = 1.950297 g / cm^3
# Si number density = 19.547466 Si / 1000 Ang^3
#
#
#
# Elastic Constant Matrix: (Units=GPa)
#
#
# Indices 1 2 3 4 5 6 
#
# 1 112.3453 54.7268 60.0506 0.0000 0.0000 0.0000
# 2 54.7268 57.8931 44.5537 0.0000 0.0000 0.0000
# 3 60.0506 44.5537 105.9484 0.0000 0.0000 0.0000
# 4 0.0000 0.0000 0.0000 26.8880 0.0000 0.0000
# 5 0.0000 0.0000 0.0000 0.0000 539.6450 0.0000
# 6 0.0000 0.0000 0.0000 0.0000 0.0000 18.9390
#
#
#
# Elastic Compliance Matrix: (Units=1/GPa)
#
#
# Indices 1 2 3 4 5 6 
#
# 1 0.017818 -0.013412 -0.004459 0.000000 0.000000 0.000000
# 2 -0.013412 0.035633 -0.007383 0.000000 0.000000 0.000000
# 3 -0.004459 -0.007383 0.015071 0.000000 0.000000 0.000000
# 4 0.000000 0.000000 0.000000 0.037191 0.000000 0.000000
# 5 0.000000 0.000000 0.000000 0.000000 0.001853 0.000000
# 6 0.000000 0.000000 0.000000 0.000000 0.000000 0.052801
#
#
# Mechanical properties :
#
#
# Convention : Reuss Voigt Hill
#
# Bulk Modulus (GPa) = 55.51166 66.09433 60.80300
# Shear Modulus (GPa) = 23.05432 124.88478 73.96955
#
# Velocity S-wave (km/s) = 3.43797 8.00167 6.15818
# Velocity P-wave (km/s) = 6.64978 10.92037 9.04085
#
# Compressibility (1/GPa) = 0.01801423
#
# Stress axis : x y z
#
# Youngs Moduli (GPa) = 56.12365 28.06377 66.35429
#
# Poissons Ratio (x) = 0.37638 0.29588
# Poissons Ratio (y) = 0.75271 0.48989
# Poissons Ratio (z) = 0.25026 0.20719
#
# Static dielectric constant tensor:
#      x y z
#    x 1.705690 0.000000 0.000000 
#    y 0.000000 1.691420 0.000000 
#    z 0.000000 0.000000 1.727150 
# 
# From -- ./inp_files/50502.got.cif
#   From: 2010.05.17/outbox.cif.g08.bks.cpg/sg71_26_cif.got.tgz:50502.got - 2010.06.03 16:22:01.
