data_PCOD9521248
_publ_section_title
;
Structure prediction by ZEFSAII (Michael W. Deem and Ramdas Pophale) SiO2 
 PCOD9521248
Probable space group: I M M M
;
_chemical_formula_sum "Si O2"
_cell_formula_units_Z 100
_cell_length_a 29.425247
_cell_length_b 21.189964
_cell_length_c 7.717469
_cell_angle_alpha 90.000000
_cell_angle_beta 90.000000
_cell_angle_gamma 90.000000
_cell_volume 4811.995689
_symmetry_space_group_name_H-M "I M M M"
_symmetry_group_IT_number 71
_symmetry_cell_setting 'orthorhombic'
loop_
_space_group_symop_operation_xyz
x,y,z
-x,-y,z
x,-y,-z
-x,y,-z
-x,-y,-z
x,y,-z
-x,y,z
x,-y,z
1/2+x,1/2+y,1/2+z
1/2-x,1/2-y,1/2+z
1/2+x,1/2-y,1/2-z
1/2-x,1/2+y,1/2-z
1/2-x,1/2-y,1/2-z
1/2+x,1/2+y,1/2-z
1/2-x,1/2+y,1/2+z
1/2+x,1/2-y,1/2+z
loop_
_atom_site_type_symbol
_atom_site_label
_atom_site_fract_x
_atom_site_fract_y
_atom_site_fract_z
Si Si1 0.760612 0.500000 0.500000
Si Si2 0.147280 0.931592 0.699701
Si Si3 0.449650 0.749553 0.795519
Si Si4 0.644216 0.804925 0.292139
Si Si5 0.298021 0.312659 0.301424
Si Si6 0.949207 0.105567 0.799718
Si Si7 0.780516 0.396941 0.199910
O O1 0.763700 0.445180 0.345088
O O2 0.162612 0.928341 0.500000
O O3 0.168327 0.872834 0.797429
O O4 0.092980 0.925385 0.704808
O O5 0.160630 0.000000 0.772837
O O6 0.500000 0.773069 0.744846
O O7 0.407794 0.795476 0.760501
O O8 0.442770 0.681413 0.707657
O O9 0.450119 0.736391 0.000000
O O10 0.645274 0.800102 0.500000
O O11 0.673735 0.745548 0.224505
O O12 0.670118 0.869284 0.248393
O O13 0.285651 0.298867 0.500000
O O14 0.253523 0.336818 0.204237
O O15 0.000000 0.092209 0.732208
O O16 0.947359 0.085614 0.000000
O O17 0.781542 0.420275 0.000000
#
# Coordination Sequence:
#
# PCOD9521248 Si02
#       7
#     4  16  16  16  16  16  16
#     4  12  26  48  68  98 129 174 213 264 314 384
#     4  11  24  37  51  76 109 155 207 258 314 371
#     4  10  20  33  56  89 123 159 201 251 313 380
#     4  10  22  39  63  95 129 164 208 261 317 374
#     4  11  22  39  61  90 124 165 212 264 316 368
#     4  10  20  35  53  74 104 147 200 257 314 373
#     4  11  25  44  67  96 129 169 215 260 314 382
#
# _framework density 20.781397999999999
#
# number of rings (size 3 to 8) (size 9 to 14) (size 15 to 20)
#    0.000    1.440    2.400    2.640    2.240    4.160 
#    0.000    1.600    0.000    0.000    0.000    1.120 
#    0.000    2.560    0.000    0.000    0.000    0.000 
#
# Total GULP energy -278972.222909 kJ/mol
# GULP energy per Si atom -5579.444458 kJ/mol
# Density = 2.073410 g / cm^3
# Si number density = 20.781398 Si / 1000 Ang^3
#
#
#
# Elastic Constant Matrix: (Units=GPa)
#
#
# Indices 1 2 3 4 5 6 
#
# 1 111.0776 34.1825 3.2008 0.0000 0.0000 0.0000
# 2 34.1825 41.6430 16.3137 0.0000 0.0000 0.0000
# 3 3.2008 16.3137 80.3941 0.0000 0.0000 0.0000
# 4 0.0000 0.0000 0.0000 36.9579 0.0000 0.0000
# 5 0.0000 0.0000 0.0000 0.0000 24.0599 0.0000
# 6 0.0000 0.0000 0.0000 0.0000 0.0000 13.8791
#
#
#
# Elastic Compliance Matrix: (Units=1/GPa)
#
#
# Indices 1 2 3 4 5 6 
#
# 1 0.012253 -0.010718 0.001687 0.000000 0.000000 0.000000
# 2 -0.010718 0.035464 -0.006770 0.000000 0.000000 0.000000
# 3 0.001687 -0.006770 0.013745 0.000000 0.000000 0.000000
# 4 0.000000 0.000000 0.000000 0.027058 0.000000 0.000000
# 5 0.000000 0.000000 0.000000 0.000000 0.041563 0.000000
# 6 0.000000 0.000000 0.000000 0.000000 0.000000 0.072051
#
#
# Mechanical properties :
#
#
# Convention : Reuss Voigt Hill
#
# Bulk Modulus (GPa) = 33.48975 37.83430 35.66203
# Shear Modulus (GPa) = 20.51804 26.94056 23.72930
#
# Velocity S-wave (km/s) = 3.14559 3.60443 3.38280
# Velocity P-wave (km/s) = 5.41693 5.96389 5.69698
#
# Compressibility (1/GPa) = 0.02985988
#
# Stress axis : x y z
#
# Youngs Moduli (GPa) = 81.61583 28.19780 72.75238
#
# Poissons Ratio (x) = 0.30224 -0.12275
# Poissons Ratio (y) = 0.87479 0.49251
# Poissons Ratio (z) = -0.13770 0.19089
#
# Static dielectric constant tensor:
#      x y z
#    x 1.793460 0.000000 0.000000 
#    y 0.000000 1.744480 0.000000 
#    z 0.000000 0.000000 1.753320 
# 
# From -- ./inp_files/15015.got.cif
#   From: 2010.05.17/outbox.cif.g08.bks.cpg/sg71_8_cif.got.tgz:15015.got - 2010.06.03 16:22:01.
