data_PCOD9521473
_publ_section_title
;
Structure prediction by ZEFSAII (Michael W. Deem and Ramdas Pophale) SiO2 
 PCOD9521473
Probable space group: I M M M
;
_chemical_formula_sum "Si O2"
_cell_formula_units_Z 72
_cell_length_a 9.129088
_cell_length_b 13.864904
_cell_length_c 29.359614
_cell_angle_alpha 90.000000
_cell_angle_beta 90.000000
_cell_angle_gamma 90.000000
_cell_volume 3716.161690
_symmetry_space_group_name_H-M "I M M M"
_symmetry_group_IT_number 71
_symmetry_cell_setting 'orthorhombic'
loop_
_space_group_symop_operation_xyz
x,y,z
-x,-y,z
x,-y,-z
-x,y,-z
-x,-y,-z
x,y,-z
-x,y,z
x,-y,z
1/2+x,1/2+y,1/2+z
1/2-x,1/2-y,1/2+z
1/2+x,1/2-y,1/2-z
1/2-x,1/2+y,1/2-z
1/2-x,1/2-y,1/2-z
1/2+x,1/2+y,1/2-z
1/2-x,1/2+y,1/2+z
1/2+x,1/2-y,1/2+z
loop_
_atom_site_type_symbol
_atom_site_label
_atom_site_fract_x
_atom_site_fract_y
_atom_site_fract_z
Si Si1 0.332292 0.116538 0.323909
Si Si2 0.674921 0.114354 0.500000
Si Si3 0.326240 0.701481 0.088674
Si Si4 0.826689 0.611391 0.639428
Si Si5 0.167485 0.882321 0.232769
O O1 0.500000 0.149472 0.329325
O O2 0.234256 0.149784 0.366070
O O3 0.264739 0.148658 0.275696
O O4 0.333637 0.000000 0.323620
O O5 0.500000 0.126239 0.500000
O O6 0.743789 0.161869 0.544815
O O7 0.706878 0.000000 0.500000
O O8 0.500000 0.685541 0.084147
O O9 0.299819 0.814755 0.098550
O O10 0.792576 0.500000 0.628751
O O11 0.736195 0.642126 0.683954
O O12 0.000000 0.616981 0.650788
O O13 0.000000 0.849802 0.237465
O O14 0.166793 0.000000 0.233830
#
# Coordination Sequence:
#
# PCOD9521473 Si02
#       5
#    16   8  16  16  16
#     4  10  20  34  53  79 114 154 191 230 280 336
#     4  11  25  45  66  87 114 146 177 217 276 339
#     4  11  23  38  60  87 111 142 186 233 280 329
#     4   9  19  37  58  81 113 151 188 227 274 328
#     4   9  17  30  51  80 113 150 192 235 276 321
#
# _framework density 19.374829999999999
#
# number of rings (size 3 to 8) (size 9 to 14) (size 15 to 20)
#    0.000    2.111    0.000    3.000    0.000   10.222 
#    0.000    0.556    0.000    3.333    0.000    0.000 
#    0.000    0.000    0.000    0.000    0.000    0.000 
#
# Total GULP energy -201245.438316 kJ/mol
# GULP energy per Si atom -5590.151064 kJ/mol
# Density = 1.933073 g / cm^3
# Si number density = 19.374830 Si / 1000 Ang^3
#
#
#
# Elastic Constant Matrix: (Units=GPa)
#
#
# Indices 1 2 3 4 5 6 
#
# 1 103.3182 60.1756 75.8719 0.0000 0.0000 0.0000
# 2 60.1756 91.3276 61.5149 0.0000 0.0000 0.0000
# 3 75.8719 61.5149 144.6907 0.0000 0.0000 0.0000
# 4 0.0000 0.0000 0.0000 33.0967 0.0000 0.0000
# 5 0.0000 0.0000 0.0000 0.0000 32.2920 0.0000
# 6 0.0000 0.0000 0.0000 0.0000 0.0000 21.6580
#
#
#
# Elastic Compliance Matrix: (Units=1/GPa)
#
#
# Indices 1 2 3 4 5 6 
#
# 1 0.019390 -0.008306 -0.006636 0.000000 0.000000 0.000000
# 2 -0.008306 0.018901 -0.003680 0.000000 0.000000 0.000000
# 3 -0.006636 -0.003680 0.011956 0.000000 0.000000 0.000000
# 4 0.000000 0.000000 0.000000 0.030214 0.000000 0.000000
# 5 0.000000 0.000000 0.000000 0.000000 0.030967 0.000000
# 6 0.000000 0.000000 0.000000 0.000000 0.000000 0.046172
#
#
# Mechanical properties :
#
#
# Convention : Reuss Voigt Hill
#
# Bulk Modulus (GPa) = 76.91256 81.60680 79.25968
# Shear Modulus (GPa) = 25.10283 26.86094 25.98189
#
# Velocity S-wave (km/s) = 3.60341 3.72746 3.66596
# Velocity P-wave (km/s) = 7.55619 7.79337 7.67570
#
# Compressibility (1/GPa) = 0.01300178
#
# Stress axis : x y z
#
# Youngs Moduli (GPa) = 51.57342 52.90605 83.64093
#
# Poissons Ratio (x) = 0.43944 0.55506
# Poissons Ratio (y) = 0.42837 0.30784
# Poissons Ratio (z) = 0.34225 0.19472
#
# Static dielectric constant tensor:
#      x y z
#    x 1.651950 0.000000 0.000000 
#    y 0.000000 1.741430 0.000000 
#    z 0.000000 0.000000 1.611420 
# 
# From -- ./inp_files/6002.got.cif
#   From: 2010.05.17/outbox.cif.g08.bks.cpg/sg71_4_cif.got.tgz:6002.got - 2010.06.03 16:22:01.
