data_PCOD9521588
_publ_section_title
;
Structure prediction by ZEFSAII (Michael W. Deem and Ramdas Pophale) SiO2 
 PCOD9521588
Probable space group: I M M M
;
_chemical_formula_sum "Si O2"
_cell_formula_units_Z 112
_cell_length_a 11.184943
_cell_length_b 23.508504
_cell_length_c 23.193320
_cell_angle_alpha 90.000000
_cell_angle_beta 90.000000
_cell_angle_gamma 90.000000
_cell_volume 6098.481185
_symmetry_space_group_name_H-M "I M M M"
_symmetry_group_IT_number 71
_symmetry_cell_setting 'orthorhombic'
loop_
_space_group_symop_operation_xyz
x,y,z
-x,-y,z
x,-y,-z
-x,y,-z
-x,-y,-z
x,y,-z
-x,y,z
x,-y,z
1/2+x,1/2+y,1/2+z
1/2-x,1/2-y,1/2+z
1/2+x,1/2-y,1/2-z
1/2-x,1/2+y,1/2-z
1/2-x,1/2-y,1/2-z
1/2+x,1/2+y,1/2-z
1/2-x,1/2+y,1/2+z
1/2+x,1/2-y,1/2+z
loop_
_atom_site_type_symbol
_atom_site_label
_atom_site_fract_x
_atom_site_fract_y
_atom_site_fract_z
Si Si1 0.785197 0.245909 0.066306
Si Si2 0.366281 0.632308 0.376527
Si Si3 0.863197 0.431688 0.431053
Si Si4 0.359934 0.874964 0.436914
Si Si5 0.144343 0.565651 0.179269
Si Si6 0.632866 0.742157 0.174263
Si Si7 0.242582 0.657841 0.738583
O O1 0.859595 0.193333 0.091467
O O2 0.849792 0.306921 0.069865
O O3 0.673014 0.251680 0.108615
O O4 0.754984 0.234931 0.000000
O O5 0.500000 0.607875 0.386005
O O6 0.250185 0.597528 0.399732
O O7 0.343479 0.643960 0.308749
O O8 0.853353 0.420874 0.500000
O O9 0.856672 0.500000 0.422608
O O10 0.000000 0.413909 0.413551
O O11 0.307124 0.889561 0.500000
O O12 0.500000 0.889672 0.439124
O O13 0.310834 0.906539 0.380780
O O14 0.178751 0.500000 0.182319
O O15 0.191642 0.601555 0.232864
O O16 0.000000 0.569274 0.179553
O O17 0.500000 0.721018 0.179216
O O18 0.714907 0.698598 0.209576
O O19 0.648149 0.803723 0.203723
#
# Coordination Sequence:
#
# PCOD9521588 Si02
#       7
#    16  16  16  16  16  16  16
#     4  10  20  34  54  83 115 146 180 227 289 346
#     4  11  23  36  56  87 120 153 194 241 289 347
#     4   9  20  40  62  82 110 151 195 239 292 353
#     4   9  17  31  52  78 110 145 180 224 283 344
#     4  10  20  34  55  82 111 146 191 240 288 344
#     4  10  20  35  56  77 104 145 190 235 283 335
#     4  10  21  37  52  77 110 149 187 234 283 340
#
# _framework density 18.365228999999999
#
# number of rings (size 3 to 8) (size 9 to 14) (size 15 to 20)
#    0.000    2.143    1.429    2.143    0.000    6.000 
#    0.000    3.571    0.000    1.286    0.000    0.000 
#    0.000    2.286    0.000    0.000    0.000    0.000 
#
# Total GULP energy -312096.440865 kJ/mol
# GULP energy per Si atom -5573.150730 kJ/mol
# Density = 1.832343 g / cm^3
# Si number density = 18.365229 Si / 1000 Ang^3
#
#
#
# Elastic Constant Matrix: (Units=GPa)
#
#
# Indices 1 2 3 4 5 6 
#
# 1 60.2847 27.1227 23.3955 0.0000 0.0000 0.0000
# 2 27.1227 90.5963 53.9945 0.0000 0.0000 0.0000
# 3 23.3955 53.9945 127.4104 0.0000 0.0000 0.0000
# 4 0.0000 0.0000 0.0000 25.1895 0.0000 0.0000
# 5 0.0000 0.0000 0.0000 0.0000 6.1031 0.0000
# 6 0.0000 0.0000 0.0000 0.0000 0.0000 121.7970
#
#
#
# Elastic Compliance Matrix: (Units=1/GPa)
#
#
# Indices 1 2 3 4 5 6 
#
# 1 0.019374 -0.004923 -0.001471 0.000000 0.000000 0.000000
# 2 -0.004923 0.016019 -0.005885 0.000000 0.000000 0.000000
# 3 -0.001471 -0.005885 0.010613 0.000000 0.000000 0.000000
# 4 0.000000 0.000000 0.000000 0.039699 0.000000 0.000000
# 5 0.000000 0.000000 0.000000 0.000000 0.163852 0.000000
# 6 0.000000 0.000000 0.000000 0.000000 0.000000 0.008210
#
#
# Mechanical properties :
#
#
# Convention : Reuss Voigt Hill
#
# Bulk Modulus (GPa) = 46.62546 54.14630 50.38588
# Shear Modulus (GPa) = 17.27271 42.20317 29.73794
#
# Velocity S-wave (km/s) = 3.07010 4.79894 4.02836
# Velocity P-wave (km/s) = 6.16526 7.76231 7.00942
#
# Compressibility (1/GPa) = 0.02144751
#
# Stress axis : x y z
#
# Youngs Moduli (GPa) = 51.61567 62.42545 94.22802
#
# Poissons Ratio (x) = 0.30735 0.13861
# Poissons Ratio (y) = 0.25413 0.55449
# Poissons Ratio (z) = 0.07593 0.36735
#
# Static dielectric constant tensor:
#      x y z
#    x 1.633470 0.000000 0.000000 
#    y 0.000000 1.625510 0.000000 
#    z 0.000000 0.000000 1.651100 
# 
# From -- ./inp_files/26269.got.cif
#   From: 2010.05.17/outbox.cif.g08.bks.cpg/sg71_14_cif.got.tgz:26269.got - 2010.06.03 16:22:01.
