data_PCOD9521619
_publ_section_title
;
Structure prediction by ZEFSAII (Michael W. Deem and Ramdas Pophale) SiO2 
 PCOD9521619
Probable space group: I M M M
;
_chemical_formula_sum "Si O2"
_cell_formula_units_Z 80
_cell_length_a 7.662460
_cell_length_b 24.503118
_cell_length_c 20.023775
_cell_angle_alpha 90.000000
_cell_angle_beta 90.000000
_cell_angle_gamma 90.000000
_cell_volume 3759.547086
_symmetry_space_group_name_H-M "I M M M"
_symmetry_group_IT_number 71
_symmetry_cell_setting 'orthorhombic'
loop_
_space_group_symop_operation_xyz
x,y,z
-x,-y,z
x,-y,-z
-x,y,-z
-x,-y,-z
x,y,-z
-x,y,z
x,-y,z
1/2+x,1/2+y,1/2+z
1/2-x,1/2-y,1/2+z
1/2+x,1/2-y,1/2-z
1/2-x,1/2+y,1/2-z
1/2-x,1/2-y,1/2-z
1/2+x,1/2+y,1/2-z
1/2-x,1/2+y,1/2+z
1/2+x,1/2-y,1/2+z
loop_
_atom_site_type_symbol
_atom_site_label
_atom_site_fract_x
_atom_site_fract_y
_atom_site_fract_z
Si Si1 0.214173 0.335586 0.922419
Si Si2 0.703050 0.065009 0.071385
Si Si3 0.696931 0.619425 0.700550
Si Si4 0.704667 0.937810 0.336710
Si Si5 0.209165 0.762847 0.173296
O O1 0.274875 0.392405 0.888448
O O2 0.273693 0.284087 0.877022
O O3 0.000000 0.335827 0.920373
O O4 0.264992 0.330999 0.000000
O O5 0.500000 0.081401 0.078591
O O6 0.803949 0.081028 0.136886
O O7 0.704998 0.000000 0.067687
O O8 0.769058 0.086850 0.000000
O O9 0.500000 0.631795 0.723323
O O10 0.783128 0.589860 0.763440
O O11 0.776423 0.675164 0.670449
O O12 0.500000 0.942924 0.352263
O O13 0.777561 0.000000 0.337340
O O14 0.250000 0.750000 0.250000
O O15 0.000000 0.763947 0.162892
#
# Coordination Sequence:
#
# PCOD9521619 Si02
#       5
#    16  16  16  16  16
#     4   9  18  34  56  81 108 138 175 224 275 318
#     4   9  19  36  55  75 104 144 186 225 267 317
#     4  11  22  33  52  82 111 142 180 222 270 325
#     4  10  20  34  55  81 107 142 185 225 268 322
#     4  10  20  35  56  79 105 141 178 216 264 320
#
# _framework density 21.279160000000001
#
# number of rings (size 3 to 8) (size 9 to 14) (size 15 to 20)
#    0.000    2.200    2.000    1.800    0.000    5.600 
#    0.000    5.000    0.000    2.400    0.000    1.400 
#    0.000    0.000    0.000    0.000    0.000    0.000 
#
# Total GULP energy -222901.211449 kJ/mol
# GULP energy per Si atom -5572.530286 kJ/mol
# Density = 2.123073 g / cm^3
# Si number density = 21.279160 Si / 1000 Ang^3
#
#
#
# Elastic Constant Matrix: (Units=GPa)
#
#
# Indices 1 2 3 4 5 6 
#
# 1 31.2037 11.8089 -0.1735 0.0000 -0.0001 0.0000
# 2 11.8089 164.8031 83.6880 0.0000 -0.0001 0.0000
# 3 -0.1735 83.6880 166.3875 0.0000 -0.0004 0.0000
# 4 0.0000 0.0000 0.0000 35.9390 -0.0001 0.0000
# 5 -0.0001 -0.0001 -0.0004 -0.0001 864.3847 0.0000
# 6 0.0000 0.0000 0.0000 0.0000 0.0000 10.9078
#
#
#
# Elastic Compliance Matrix: (Units=1/GPa)
#
#
# Indices 1 2 3 4 5 6 
#
# 1 0.033278 -0.003226 0.001657 0.000000 0.000000 0.000000
# 2 -0.003226 0.008462 -0.004260 0.000000 0.000000 0.000000
# 3 0.001657 -0.004260 0.008154 0.000000 0.000000 0.000000
# 4 0.000000 0.000000 0.000000 0.027825 0.000000 0.000000
# 5 0.000000 0.000000 0.000000 0.000000 0.001157 0.000000
# 6 0.000000 0.000000 0.000000 0.000000 0.000000 0.091678
#
#
# Mechanical properties :
#
#
# Convention : Reuss Voigt Hill
#
# Bulk Modulus (GPa) = 26.15246 61.44901 43.80074
# Shear Modulus (GPa) = 25.64687 200.05101 112.84894
#
# Velocity S-wave (km/s) = 3.47545 9.70653 7.29025
# Velocity P-wave (km/s) = 5.33121 12.43232 9.56516
#
# Compressibility (1/GPa) = 0.03823731
#
# Stress axis : x y z
#
# Youngs Moduli (GPa) = 30.05020 118.17515 122.63613
#
# Poissons Ratio (x) = 0.38124 -0.20325
# Poissons Ratio (y) = 0.09694 0.52237
# Poissons Ratio (z) = -0.04980 0.50337
#
# Static dielectric constant tensor:
#      x y z
#    x 1.867970 0.000000 0.000000 
#    y 0.000000 2.335610 0.000000 
#    z 0.000000 0.000000 1.795680 
# 
# From -- ./inp_files/8628.got.cif
#   From: 2010.05.17/outbox.cif.g08.bks.cpg/sg71_5_cif.got.tgz:8628.got - 2010.06.03 16:22:01.
