data_PCOD9521025
_publ_section_title
;
Structure prediction by ZEFSAII (Michael W. Deem and Ramdas Pophale) SiO2 
 PCOD9521025
Probable space group: I M M M
;
_chemical_formula_sum "Si O2"
_cell_formula_units_Z 104
_cell_length_a 17.545171
_cell_length_b 26.322048
_cell_length_c 14.143338
_cell_angle_alpha 90.000000
_cell_angle_beta 90.000000
_cell_angle_gamma 90.000000
_cell_volume 6531.744713
_symmetry_space_group_name_H-M "I M M M"
_symmetry_group_IT_number 71
_symmetry_cell_setting 'orthorhombic'
loop_
_space_group_symop_operation_xyz
x,y,z
-x,-y,z
x,-y,-z
-x,y,-z
-x,-y,-z
x,y,-z
-x,y,z
x,-y,z
1/2+x,1/2+y,1/2+z
1/2-x,1/2-y,1/2+z
1/2+x,1/2-y,1/2-z
1/2-x,1/2+y,1/2-z
1/2-x,1/2-y,1/2-z
1/2+x,1/2+y,1/2-z
1/2-x,1/2+y,1/2+z
1/2+x,1/2-y,1/2+z
loop_
_atom_site_type_symbol
_atom_site_label
_atom_site_fract_x
_atom_site_fract_y
_atom_site_fract_z
Si Si1 0.592353 0.000000 0.393750
Si Si2 0.292514 0.650475 0.388199
Si Si3 0.911712 0.213268 0.780345
Si Si4 0.149654 0.694383 0.109611
Si Si5 0.185001 0.559618 0.388386
Si Si6 0.809669 0.748860 0.609081
Si Si7 0.590853 0.099491 0.723238
O O1 0.613893 0.050805 0.339337
O O2 0.500000 0.000000 0.396533
O O3 0.621616 0.000000 0.500000
O O4 0.312864 0.654470 0.500000
O O5 0.362012 0.666946 0.321929
O O6 0.258582 0.594892 0.369431
O O7 0.226095 0.692923 0.372967
O O8 0.901097 0.257963 0.857697
O O9 0.871902 0.234902 0.685429
O O10 0.000000 0.201559 0.766115
O O11 0.236676 0.713778 0.118448
O O12 0.130943 0.648148 0.178276
O O13 0.135162 0.681246 0.000000
O O14 0.169253 0.563310 0.500000
O O15 0.194384 0.500000 0.365098
O O16 0.118130 0.584854 0.327544
O O17 0.836161 0.750548 0.500000
O O18 0.500000 0.106513 0.719150
#
# Coordination Sequence:
#
# PCOD9521025 Si02
#       7
#     8  16  16  16  16  16  16
#     4   9  18  30  41  57  87 125 157 188 232 274
#     4   9  18  33  51  69  95 129 161 199 242 283
#     4  11  20  30  49  76 102 127 157 196 243 291
#     4  10  20  33  51  72  97 132 168 198 229 280
#     4  10  20  34  52  71  91 124 170 208 240 285
#     4   9  18  33  50  70  99 132 162 193 235 285
#     4  11  20  31  46  68  98 129 160 199 242 278
#
# _framework density 15.922238999999999
#
# number of rings (size 3 to 8) (size 9 to 14) (size 15 to 20)
#    0.000    2.077    0.769    6.000    0.000    3.385 
#    0.000    0.769    0.000    5.077    0.000    2.154 
#    0.000    0.000    0.000    5.231    0.000    0.000 
#
# Total GULP energy -290058.380901 kJ/mol
# GULP energy per Si atom -5578.045787 kJ/mol
# Density = 1.588600 g / cm^3
# Si number density = 15.922239 Si / 1000 Ang^3
#
#
#
# Elastic Constant Matrix: (Units=GPa)
#
#
# Indices 1 2 3 4 5 6 
#
# 1 56.1079 15.7150 43.7721 0.0000 0.0000 0.0000
# 2 15.7150 88.6432 32.3500 0.0000 0.0000 0.0000
# 3 43.7721 32.3500 77.9735 0.0000 0.0000 0.0000
# 4 0.0000 0.0000 0.0000 26.9974 0.0000 0.0000
# 5 0.0000 0.0000 0.0000 0.0000 9.2915 0.0000
# 6 0.0000 0.0000 0.0000 0.0000 0.0000 10.8389
#
#
#
# Elastic Compliance Matrix: (Units=1/GPa)
#
#
# Indices 1 2 3 4 5 6 
#
# 1 0.031790 0.001033 -0.018275 0.000000 0.000000 0.000000
# 2 0.001033 0.013328 -0.006110 0.000000 0.000000 0.000000
# 3 -0.018275 -0.006110 0.025619 0.000000 0.000000 0.000000
# 4 0.000000 0.000000 0.000000 0.037041 0.000000 0.000000
# 5 0.000000 0.000000 0.000000 0.000000 0.107626 0.000000
# 6 0.000000 0.000000 0.000000 0.000000 0.000000 0.092261
#
#
# Mechanical properties :
#
#
# Convention : Reuss Voigt Hill
#
# Bulk Modulus (GPa) = 41.60682 45.15542 43.38112
# Shear Modulus (GPa) = 13.79777 18.15138 15.97458
#
# Velocity S-wave (km/s) = 2.94695 3.38005 3.17091
# Velocity P-wave (km/s) = 6.14552 6.60716 6.38051
#
# Compressibility (1/GPa) = 0.02403452
#
# Stress axis : x y z
#
# Youngs Moduli (GPa) = 31.45604 75.03214 39.03404
#
# Poissons Ratio (x) = -0.07754 0.71335
# Poissons Ratio (y) = -0.03251 0.23848
# Poissons Ratio (z) = 0.57486 0.45841
#
# Static dielectric constant tensor:
#      x y z
#    x 1.513070 0.000000 0.000000 
#    y 0.000000 1.532630 0.000000 
#    z 0.000000 0.000000 1.559550 
# 
# From -- ./inp_files/34909.got.cif
#   From: 2010.05.17/outbox.cif.g08.bks.cpg/sg71_18_cif.got.tgz:34909.got - 2010.06.03 16:22:01.
