data_PCOD9521453
_publ_section_title
;
Structure prediction by ZEFSAII (Michael W. Deem and Ramdas Pophale) SiO2 
 PCOD9521453
Probable space group: I M M M
;
_chemical_formula_sum "Si O2"
_cell_formula_units_Z 72
_cell_length_a 9.337896
_cell_length_b 22.774909
_cell_length_c 18.015485
_cell_angle_alpha 90.000000
_cell_angle_beta 90.000000
_cell_angle_gamma 90.000000
_cell_volume 3831.348361
_symmetry_space_group_name_H-M "I M M M"
_symmetry_group_IT_number 71
_symmetry_cell_setting 'orthorhombic'
loop_
_space_group_symop_operation_xyz
x,y,z
-x,-y,z
x,-y,-z
-x,y,-z
-x,-y,-z
x,y,-z
-x,y,z
x,-y,z
1/2+x,1/2+y,1/2+z
1/2-x,1/2-y,1/2+z
1/2+x,1/2-y,1/2-z
1/2-x,1/2+y,1/2-z
1/2-x,1/2-y,1/2-z
1/2+x,1/2+y,1/2-z
1/2-x,1/2+y,1/2+z
1/2+x,1/2-y,1/2+z
loop_
_atom_site_type_symbol
_atom_site_label
_atom_site_fract_x
_atom_site_fract_y
_atom_site_fract_z
Si Si1 0.159338 0.889864 0.913464
Si Si2 0.336776 0.000000 0.908817
Si Si3 0.332094 0.200592 0.840145
Si Si4 0.330178 0.663729 0.809504
Si Si5 0.171289 0.568942 0.911941
O O1 0.247756 0.830638 0.905608
O O2 0.000000 0.885661 0.881375
O O3 0.252366 0.942969 0.881634
O O4 0.144568 0.903523 0.000000
O O5 0.500000 0.000000 0.883729
O O6 0.340527 0.000000 0.000000
O O7 0.500000 0.186407 0.839345
O O8 0.317364 0.270678 0.843799
O O9 0.254905 0.172973 0.767650
O O10 0.500000 0.652544 0.798479
O O11 0.258811 0.613902 0.860545
O O12 0.203099 0.500000 0.896172
O O13 0.000000 0.577315 0.900954
O O14 0.200512 0.578721 0.000000
#
# Coordination Sequence:
#
# PCOD9521453 Si02
#       5
#    16   8  16  16  16
#     4  10  20  34  53  78 108 141 180 226 271 317
#     4   9  17  31  51  73 101 137 172 211 262 313
#     4  10  21  37  56  78 108 146 185 227 275 330
#     4  10  21  37  57  81 110 143 181 228 280 330
#     4   9  19  37  60  85 114 148 185 226 275 335
#
# _framework density 18.792338999999998
#
# number of rings (size 3 to 8) (size 9 to 14) (size 15 to 20)
#    0.000    2.333    0.000    3.000    0.000    7.111 
#    2.000    5.556    0.000    0.000    0.000    0.000 
#    0.000    0.000    0.000    0.000    0.000    0.000 
#
# Total GULP energy -200672.659785 kJ/mol
# GULP energy per Si atom -5574.240550 kJ/mol
# Density = 1.874957 g / cm^3
# Si number density = 18.792339 Si / 1000 Ang^3
#
#
#
# Elastic Constant Matrix: (Units=GPa)
#
#
# Indices 1 2 3 4 5 6 
#
# 1 159.4531 86.8104 38.2865 0.0000 0.0000 0.0000
# 2 86.8104 98.3896 46.8245 0.0000 0.0000 0.0000
# 3 38.2865 46.8245 34.7817 0.0000 0.0000 0.0000
# 4 0.0000 0.0000 0.0000 29.8945 0.0000 0.0000
# 5 0.0000 0.0000 0.0000 0.0000 26.0280 0.0000
# 6 0.0000 0.0000 0.0000 0.0000 0.0000 36.9754
#
#
#
# Elastic Compliance Matrix: (Units=1/GPa)
#
#
# Indices 1 2 3 4 5 6 
#
# 1 0.012176 -0.012147 0.002950 0.000000 0.000000 0.000000
# 2 -0.012147 0.040404 -0.041023 0.000000 0.000000 0.000000
# 3 0.002950 -0.041023 0.080731 0.000000 0.000000 0.000000
# 4 0.000000 0.000000 0.000000 0.033451 0.000000 0.000000
# 5 0.000000 0.000000 0.000000 0.000000 0.038420 0.000000
# 6 0.000000 0.000000 0.000000 0.000000 0.000000 0.027045
#
#
# Mechanical properties :
#
#
# Convention : Reuss Voigt Hill
#
# Bulk Modulus (GPa) = 30.42240 70.71859 50.57050
# Shear Modulus (GPa) = 14.55073 26.62645 20.58859
#
# Velocity S-wave (km/s) = 2.78563 3.76823 3.31355
# Velocity P-wave (km/s) = 5.15462 7.52635 6.45043
#
# Compressibility (1/GPa) = 0.03287051
#
# Stress axis : x y z
#
# Youngs Moduli (GPa) = 82.12580 24.74973 12.38688
#
# Poissons Ratio (x) = 0.30064 -0.03654
# Poissons Ratio (y) = 0.99760 0.50815
# Poissons Ratio (z) = -0.24224 1.01531
#
# Static dielectric constant tensor:
#      x y z
#    x 1.648650 0.000000 0.000000 
#    y 0.000000 1.654280 0.000000 
#    z 0.000000 0.000000 1.702370 
# 
# From -- ./inp_files/9914.got.cif
#   From: 2010.05.17/outbox.cif.g08.bks.cpg/sg71_5_cif.got.tgz:9914.got - 2010.06.03 16:22:01.
