data_PCOD9521959
_publ_section_title
;
Structure prediction by ZEFSAII (Michael W. Deem and Ramdas Pophale) SiO2 
 PCOD9521959
Probable space group: I M M M
;
_chemical_formula_sum "Si O2"
_cell_formula_units_Z 88
_cell_length_a 22.866706
_cell_length_b 8.263357
_cell_length_c 23.325258
_cell_angle_alpha 90.000000
_cell_angle_beta 90.000000
_cell_angle_gamma 90.000000
_cell_volume 4407.441738
_symmetry_space_group_name_H-M "I M M M"
_symmetry_group_IT_number 71
_symmetry_cell_setting 'orthorhombic'
loop_
_space_group_symop_operation_xyz
x,y,z
-x,-y,z
x,-y,-z
-x,y,-z
-x,-y,-z
x,y,-z
-x,y,z
x,-y,z
1/2+x,1/2+y,1/2+z
1/2-x,1/2-y,1/2+z
1/2+x,1/2-y,1/2-z
1/2-x,1/2+y,1/2-z
1/2-x,1/2-y,1/2-z
1/2+x,1/2+y,1/2-z
1/2-x,1/2+y,1/2+z
1/2+x,1/2-y,1/2+z
loop_
_atom_site_type_symbol
_atom_site_label
_atom_site_fract_x
_atom_site_fract_y
_atom_site_fract_z
Si Si1 0.207140 0.193898 0.438604
Si Si2 0.665563 0.309460 0.412402
Si Si3 0.500000 0.308137 0.825385
Si Si4 0.869515 0.806547 0.334350
Si Si5 0.627082 0.194555 0.704178
Si Si6 0.568254 0.806375 0.500000
Si Si7 0.500000 0.814807 0.299252
O O1 0.184168 0.255011 0.500000
O O2 0.275800 0.229514 0.436311
O O3 0.174068 0.258855 0.382559
O O4 0.199089 0.000000 0.437688
O O5 0.668228 0.500000 0.421529
O O6 0.666794 0.268126 0.344878
O O7 0.607497 0.246556 0.445185
O O8 0.500000 0.500000 0.807798
O O9 0.437108 0.279604 0.853635
O O10 0.500000 0.194368 0.769737
O O11 0.861177 0.738496 0.270139
O O12 0.861566 0.000000 0.329084
O O13 0.562253 0.259340 0.686613
O O14 0.627127 0.000000 0.699624
O O15 0.500000 0.748130 0.500000
O O16 0.565826 0.000000 0.500000
O O17 0.500000 0.000000 0.319931
#
# Coordination Sequence:
#
# PCOD9521959 Si02
#       7
#    16  16   8  16  16   8   8
#     4  10  21  39  61  81 110 156 201 239 290 355
#     4  12  25  40  60  87 118 152 195 245 290 336
#     4   8  14  28  51  80 115 145 176 229 287 334
#     4   9  18  34  57  86 117 151 192 241 295 349
#     4  10  20  35  56  84 115 152 192 237 294 352
#     4  11  25  45  67  89 119 158 197 238 285 343
#     4   8  16  30  50  76 108 145 186 221 269 343
#
# _framework density 19.966232000000002
#
# number of rings (size 3 to 8) (size 9 to 14) (size 15 to 20)
#    0.000    2.091    0.909    2.455    1.273    2.909 
#    0.000    0.455    0.000    2.727    0.000    0.000 
#    0.000    8.727    0.000    0.000    0.000    0.000 
#
# Total GULP energy -245197.203812 kJ/mol
# GULP energy per Si atom -5572.663723 kJ/mol
# Density = 1.992079 g / cm^3
# Si number density = 19.966232 Si / 1000 Ang^3
#
#
#
# Elastic Constant Matrix: (Units=GPa)
#
#
# Indices 1 2 3 4 5 6 
#
# 1 60.2013 -10.5898 46.8873 0.0000 0.0000 0.0000
# 2 -10.5898 12.2927 0.7150 0.0000 0.0000 0.0000
# 3 46.8873 0.7150 124.2667 0.0000 0.0000 0.0000
# 4 0.0000 0.0000 0.0000 18.5444 0.0000 0.0000
# 5 0.0000 0.0000 0.0000 0.0000 28.3250 0.0000
# 6 0.0000 0.0000 0.0000 0.0000 0.0000 13.4198
#
#
#
# Elastic Compliance Matrix: (Units=1/GPa)
#
#
# Indices 1 2 3 4 5 6 
#
# 1 0.030383 0.026849 -0.011618 0.000000 0.000000 0.000000
# 2 0.026849 0.105104 -0.010735 0.000000 0.000000 0.000000
# 3 -0.011618 -0.010735 0.012493 0.000000 0.000000 0.000000
# 4 0.000000 0.000000 0.000000 0.053925 0.000000 0.000000
# 5 0.000000 0.000000 0.000000 0.000000 0.035305 0.000000
# 6 0.000000 0.000000 0.000000 0.000000 0.000000 0.074517
#
#
# Mechanical properties :
#
#
# Convention : Reuss Voigt Hill
#
# Bulk Modulus (GPa) = 6.37061 30.08730 18.22895
# Shear Modulus (GPa) = 14.08226 22.70772 18.39499
#
# Velocity S-wave (km/s) = 2.65864 3.37606 3.03859
# Velocity P-wave (km/s) = 3.55276 5.50444 4.63254
#
# Compressibility (1/GPa) = 0.15697083
#
# Stress axis : x y z
#
# Youngs Moduli (GPa) = 32.91347 9.51442 80.04696
#
# Poissons Ratio (x) = -0.25546 0.93000
# Poissons Ratio (y) = -0.88371 0.85933
# Poissons Ratio (z) = 0.38240 0.10214
#
# Static dielectric constant tensor:
#      x y z
#    x 1.748450 0.000000 0.000000 
#    y 0.000000 1.698280 0.000000 
#    z 0.000000 0.000000 1.926880 
# 
# From -- ./inp_files/12604.got.cif
#   From: 2010.05.17/outbox.cif.g08.bks.cpg/sg71_7_cif.got.tgz:12604.got - 2010.06.03 16:22:01.
