data_PCOD9521477
_publ_section_title
;
Structure prediction by ZEFSAII (Michael W. Deem and Ramdas Pophale) SiO2 
 PCOD9521477
Probable space group: I M M M
;
_chemical_formula_sum "Si O2"
_cell_formula_units_Z 104
_cell_length_a 28.367407
_cell_length_b 23.652711
_cell_length_c 8.591622
_cell_angle_alpha 90.000000
_cell_angle_beta 90.000000
_cell_angle_gamma 90.000000
_cell_volume 5764.686931
_symmetry_space_group_name_H-M "I M M M"
_symmetry_group_IT_number 71
_symmetry_cell_setting 'orthorhombic'
loop_
_space_group_symop_operation_xyz
x,y,z
-x,-y,z
x,-y,-z
-x,y,-z
-x,-y,-z
x,y,-z
-x,y,z
x,-y,z
1/2+x,1/2+y,1/2+z
1/2-x,1/2-y,1/2+z
1/2+x,1/2-y,1/2-z
1/2-x,1/2+y,1/2-z
1/2-x,1/2-y,1/2-z
1/2+x,1/2+y,1/2-z
1/2-x,1/2+y,1/2+z
1/2+x,1/2-y,1/2+z
loop_
_atom_site_type_symbol
_atom_site_label
_atom_site_fract_x
_atom_site_fract_y
_atom_site_fract_z
Si Si1 0.000000 0.568621 0.320942
Si Si2 0.900329 0.432415 0.181809
Si Si3 0.302849 0.258520 0.315723
Si Si4 0.856039 0.127657 0.812136
Si Si5 0.764064 0.937013 0.810656
Si Si6 0.054112 0.065206 0.687748
Si Si7 0.320392 0.857753 0.816898
O O1 0.952673 0.585459 0.232445
O O2 0.000000 0.500000 0.323042
O O3 0.000000 0.587822 0.500000
O O4 0.896415 0.500000 0.203730
O O5 0.862619 0.400659 0.286352
O O6 0.892194 0.420267 0.000000
O O7 0.297933 0.265563 0.500000
O O8 0.250000 0.250000 0.250000
O O9 0.332962 0.312665 0.259211
O O10 0.328411 0.200362 0.272535
O O11 0.816705 0.081036 0.767727
O O12 0.906433 0.108153 0.748724
O O13 0.858999 0.129356 0.000000
O O14 0.726860 0.889698 0.759838
O O15 0.752061 0.000000 0.755454
O O16 0.761723 0.937495 0.000000
O O17 0.055164 0.065976 0.500000
O O18 0.000000 0.078224 0.735699
O O19 0.064343 0.000000 0.737157
O O20 0.315064 0.845690 0.000000
#
# Coordination Sequence:
#
# PCOD9521477 Si02
#       7
#     8  16  16  16  16  16  16
#     4   9  17  31  53  79 105 139 181 219 262 323
#     4  10  20  34  53  80 113 145 178 223 278 329
#     4  11  22  38  57  79 107 143 187 231 274 325
#     4  10  20  35  56  81 109 144 187 229 272 325
#     4   9  17  30  49  76 110 142 173 215 267 321
#     4   9  19  36  57  84 118 150 180 222 280 340
#     4  11  21  35  54  78 108 146 186 226 275 328
#
# _framework density 18.040876000000001
#
# number of rings (size 3 to 8) (size 9 to 14) (size 15 to 20)
#    0.000    2.077    1.538    3.000    0.000    4.923 
#    0.000    0.769    1.692    2.769    0.000    0.000 
#    0.000    0.000    0.000    0.000    0.000    0.000 
#
# Total GULP energy -290069.524443 kJ/mol
# GULP energy per Si atom -5578.260085 kJ/mol
# Density = 1.799981 g / cm^3
# Si number density = 18.040876 Si / 1000 Ang^3
#
#
#
# Elastic Constant Matrix: (Units=GPa)
#
#
# Indices 1 2 3 4 5 6 
#
# 1 116.0849 45.2913 14.4485 0.0000 0.0000 0.0000
# 2 45.2913 95.5010 18.7431 0.0000 0.0000 0.0000
# 3 14.4485 18.7431 23.9337 0.0000 0.0000 0.0000
# 4 0.0000 0.0000 0.0000 24.2147 0.0000 0.0000
# 5 0.0000 0.0000 0.0000 0.0000 29.3523 0.0000
# 6 0.0000 0.0000 0.0000 0.0000 0.0000 18.8434
#
#
#
# Elastic Compliance Matrix: (Units=1/GPa)
#
#
# Indices 1 2 3 4 5 6 
#
# 1 0.010744 -0.004516 -0.002949 0.000000 0.000000 0.000000
# 2 -0.004516 0.014271 -0.008450 0.000000 0.000000 0.000000
# 3 -0.002949 -0.008450 0.050180 0.000000 0.000000 0.000000
# 4 0.000000 0.000000 0.000000 0.041297 0.000000 0.000000
# 5 0.000000 0.000000 0.000000 0.000000 0.034069 0.000000
# 6 0.000000 0.000000 0.000000 0.000000 0.000000 0.053069
#
#
# Mechanical properties :
#
#
# Convention : Reuss Voigt Hill
#
# Bulk Modulus (GPa) = 23.06037 43.60947 33.33492
# Shear Modulus (GPa) = 20.00686 24.95119 22.47902
#
# Velocity S-wave (km/s) = 3.33374 3.72295 3.53371
# Velocity P-wave (km/s) = 5.25628 6.53495 5.93018
#
# Compressibility (1/GPa) = 0.04336444
#
# Stress axis : x y z
#
# Youngs Moduli (GPa) = 93.07947 70.07053 19.92843
#
# Poissons Ratio (x) = 0.31646 0.05877
# Poissons Ratio (y) = 0.42038 0.16839
# Poissons Ratio (z) = 0.27448 0.59208
#
# Static dielectric constant tensor:
#      x y z
#    x 1.617590 0.000000 0.000000 
#    y 0.000000 1.627620 0.000000 
#    z 0.000000 0.000000 1.625540 
# 
# From -- ./inp_files/11517.got.cif
#   From: 2010.05.17/outbox.cif.g08.bks.cpg/sg71_6_cif.got.tgz:11517.got - 2010.06.03 16:22:01.
