data_PCOD9521904
_publ_section_title
;
Structure prediction by ZEFSAII (Michael W. Deem and Ramdas Pophale) SiO2 
 PCOD9521904
Probable space group: I M M M
;
_chemical_formula_sum "Si O2"
_cell_formula_units_Z 112
_cell_length_a 20.849274
_cell_length_b 15.749066
_cell_length_c 15.359876
_cell_angle_alpha 90.000000
_cell_angle_beta 90.000000
_cell_angle_gamma 90.000000
_cell_volume 5043.516541
_symmetry_space_group_name_H-M "I M M M"
_symmetry_group_IT_number 71
_symmetry_cell_setting 'orthorhombic'
loop_
_space_group_symop_operation_xyz
x,y,z
-x,-y,z
x,-y,-z
-x,y,-z
-x,-y,-z
x,y,-z
-x,y,z
x,-y,z
1/2+x,1/2+y,1/2+z
1/2-x,1/2-y,1/2+z
1/2+x,1/2-y,1/2-z
1/2-x,1/2+y,1/2-z
1/2-x,1/2-y,1/2-z
1/2+x,1/2+y,1/2-z
1/2-x,1/2+y,1/2+z
1/2+x,1/2-y,1/2+z
loop_
_atom_site_type_symbol
_atom_site_label
_atom_site_fract_x
_atom_site_fract_y
_atom_site_fract_z
Si Si1 0.573333 0.734972 0.160626
Si Si2 0.190892 0.096710 0.096524
Si Si3 0.239087 0.350986 0.763514
Si Si4 0.127763 0.401020 0.898638
Si Si5 0.340785 0.405108 0.094461
Si Si6 0.071814 0.220745 0.866535
Si Si7 0.922978 0.589996 0.604074
O O1 0.500000 0.742175 0.133344
O O2 0.605371 0.664712 0.102568
O O3 0.575348 0.713786 0.261966
O O4 0.605134 0.826645 0.147146
O O5 0.244813 0.111390 0.169164
O O6 0.131841 0.163617 0.102736
O O7 0.166114 0.000000 0.106343
O O8 0.219181 0.105487 0.000000
O O9 0.250000 0.250000 0.750000
O O10 0.177853 0.377932 0.821385
O O11 0.294709 0.386207 0.826167
O O12 0.105912 0.500000 0.885964
O O13 0.079896 0.320335 0.891377
O O14 0.151809 0.397977 0.000000
O O15 0.366770 0.500000 0.101963
O O16 0.308167 0.398161 0.000000
O O17 0.000000 0.192861 0.893704
O O18 0.916236 0.595893 0.500000
O O19 0.895897 0.500000 0.634439
O O20 0.000000 0.587414 0.621949
#
# Coordination Sequence:
#
# PCOD9521904 Si02
#       7
#    16  16  16  16  16  16  16
#     4  10  20  35  55  84 124 173 223 267 317 378
#     4  11  24  43  69 100 135 175 218 272 337 396
#     4  12  23  42  69  97 131 168 211 272 332 396
#     4  11  24  43  69  99 133 176 222 273 337 401
#     4  11  23  38  60  92 129 169 211 261 322 387
#     4  11  24  42  64  95 135 177 225 280 330 385
#     4   8  14  26  46  72 104 148 205 265 316 364
#
# _framework density 22.206727999999998
#
# number of rings (size 3 to 8) (size 9 to 14) (size 15 to 20)
#    0.000    1.429    2.857    3.000    0.000    5.143 
#    0.000    5.000    0.000    0.000    0.000    4.000 
#    0.000    0.000    0.000    0.000    0.000    0.143 
#
# Total GULP energy -312595.892986 kJ/mol
# GULP energy per Si atom -5582.069518 kJ/mol
# Density = 2.215618 g / cm^3
# Si number density = 22.206728 Si / 1000 Ang^3
#
#
#
# Elastic Constant Matrix: (Units=GPa)
#
#
# Indices 1 2 3 4 5 6 
#
# 1 54.5686 13.0964 30.3837 0.0000 0.0000 0.0000
# 2 13.0964 131.0299 46.9564 0.0000 0.0000 0.0000
# 3 30.3837 46.9564 120.5512 0.0000 0.0000 0.0000
# 4 0.0000 0.0000 0.0000 35.7275 0.0000 0.0000
# 5 0.0000 0.0000 0.0000 0.0000 -7.6945 0.0000
# 6 0.0000 0.0000 0.0000 0.0000 0.0000 17.8068
#
#
#
# Elastic Compliance Matrix: (Units=1/GPa)
#
#
# Indices 1 2 3 4 5 6 
#
# 1 0.021323 -0.000239 -0.005281 0.000000 0.000000 0.000000
# 2 -0.000239 0.008873 -0.003396 0.000000 0.000000 0.000000
# 3 -0.005281 -0.003396 0.010949 0.000000 0.000000 0.000000
# 4 0.000000 0.000000 0.000000 0.027990 0.000000 0.000000
# 5 0.000000 0.000000 0.000000 0.000000 -0.129963 0.000000
# 6 0.000000 0.000000 0.000000 0.000000 0.000000 0.056158
#
#
# Mechanical properties :
#
#
# Convention : Reuss Voigt Hill
#
# Bulk Modulus (GPa) = 42.89374 54.11363 48.50369
# Shear Modulus (GPa) = 238.85997 23.54886 131.20441
#
# Velocity S-wave (km/s) = 10.38246 3.25997 7.69490
# Velocity P-wave (km/s) = 12.77047 6.21216 10.04181
#
# Compressibility (1/GPa) = 0.02331342
#
# Stress axis : x y z
#
# Youngs Moduli (GPa) = 46.89663 112.70580 91.33159
#
# Poissons Ratio (x) = 0.02689 0.48236
# Poissons Ratio (y) = 0.01119 0.31015
# Poissons Ratio (z) = 0.24768 0.38274
#
# Static dielectric constant tensor:
#      x y z
#    x 1.711200 0.000000 0.000000 
#    y 0.000000 1.850060 0.000000 
#    z 0.000000 0.000000 1.799650 
# 
# From -- ./inp_files/40346.got.cif
#   From: 2010.05.17/outbox.cif.g08.bks.cpg/sg71_21_cif.got.tgz:40346.got - 2010.06.03 16:22:01.
