data_PCOD9521276
_publ_section_title
;
Structure prediction by ZEFSAII (Michael W. Deem and Ramdas Pophale) SiO2 
 PCOD9521276
Probable space group: I M M M
;
_chemical_formula_sum "Si O2"
_cell_formula_units_Z 88
_cell_length_a 13.719599
_cell_length_b 12.380073
_cell_length_c 22.832327
_cell_angle_alpha 90.000000
_cell_angle_beta 90.000000
_cell_angle_gamma 90.000000
_cell_volume 3878.062456
_symmetry_space_group_name_H-M "I M M M"
_symmetry_group_IT_number 71
_symmetry_cell_setting 'orthorhombic'
loop_
_space_group_symop_operation_xyz
x,y,z
-x,-y,z
x,-y,-z
-x,y,-z
-x,-y,-z
x,y,-z
-x,y,z
x,-y,z
1/2+x,1/2+y,1/2+z
1/2-x,1/2-y,1/2+z
1/2+x,1/2-y,1/2-z
1/2-x,1/2+y,1/2-z
1/2-x,1/2-y,1/2-z
1/2+x,1/2+y,1/2-z
1/2-x,1/2+y,1/2+z
1/2+x,1/2-y,1/2+z
loop_
_atom_site_type_symbol
_atom_site_label
_atom_site_fract_x
_atom_site_fract_y
_atom_site_fract_z
Si Si1 0.247362 0.299449 0.101188
Si Si2 0.890076 0.500000 0.068445
Si Si3 0.886086 0.127046 0.931214
Si Si4 0.888038 0.622324 0.412103
Si Si5 0.320442 0.383738 0.221535
Si Si6 0.392632 0.843757 0.228942
O O1 0.175352 0.393619 0.079855
O O2 0.173801 0.199902 0.113638
O O3 0.327170 0.226405 0.066810
O O4 0.305005 0.356023 0.153354
O O5 0.000000 0.500000 0.096048
O O6 0.905081 0.500000 0.000000
O O7 0.000000 0.150560 0.925791
O O8 0.871615 0.000000 0.921833
O O9 0.860560 0.151173 0.000000
O O10 0.852766 0.500000 0.427132
O O11 0.888000 0.632339 0.340815
O O12 0.000000 0.629156 0.430681
O O13 0.365110 0.500000 0.231713
O O14 0.382841 0.283349 0.242982
O O15 0.209279 0.385263 0.245387
O O16 0.500000 0.880627 0.249223
#
# Coordination Sequence:
#
# PCOD9521276 Si02
#       6
#    16   8  16  16  16  16
#     4  11  20  34  54  80 109 144 181 224 276 325
#     4  11  24  40  57  79 111 149 186 224 271 337
#     4   9  18  33  53  76 102 135 176 221 271 328
#     4   9  18  34  57  83 108 139 184 231 275 325
#     4  10  20  34  50  76 108 139 180 223 269 320
#     4   9  19  34  53  75 104 144 183 222 268 319
#
# _framework density 22.691744
#
# number of rings (size 3 to 8) (size 9 to 14) (size 15 to 20)
#    0.000    2.273    0.909    2.727    0.000    4.364 
#    0.000    1.364    0.000    2.727    0.000    6.364 
#    0.000    0.000    0.000    0.000    0.000    0.000 
#
# Total GULP energy -245105.562252 kJ/mol
# GULP energy per Si atom -5570.580960 kJ/mol
# Density = 2.264010 g / cm^3
# Si number density = 22.691744 Si / 1000 Ang^3
#
#
#
# Elastic Constant Matrix: (Units=GPa)
#
#
# Indices 1 2 3 4 5 6 
#
# 1 119.6186 36.8589 -0.9118 0.0000 0.0000 0.0000
# 2 36.8589 150.0172 5.0862 0.0000 0.0000 0.0000
# 3 -0.9118 5.0862 28.2357 0.0000 0.0000 0.0000
# 4 0.0000 0.0000 0.0000 17.1001 0.0000 0.0000
# 5 0.0000 0.0000 0.0000 0.0000 -7.5805 0.0000
# 6 0.0000 0.0000 0.0000 0.0000 0.0000 -21.9745
#
#
#
# Elastic Compliance Matrix: (Units=1/GPa)
#
#
# Indices 1 2 3 4 5 6 
#
# 1 0.009058 -0.002249 0.000698 0.000000 0.000000 0.000000
# 2 -0.002249 0.007265 -0.001381 0.000000 0.000000 0.000000
# 3 0.000698 -0.001381 0.035688 0.000000 0.000000 0.000000
# 4 0.000000 0.000000 0.000000 0.058479 0.000000 0.000000
# 5 0.000000 0.000000 0.000000 0.000000 -0.131917 0.000000
# 6 0.000000 0.000000 0.000000 0.000000 0.000000 -0.045507
#
#
# Mechanical properties :
#
#
# Convention : Reuss Voigt Hill
#
# Bulk Modulus (GPa) = 21.67068 42.21533 31.94300
# Shear Modulus (GPa) = -109.44211 14.63157 -47.40527
#
# Velocity S-wave (km/s) = -6.95231 2.54204 -4.57562
# Velocity P-wave (km/s) = 7.40779 5.22113 3.71586
#
# Compressibility (1/GPa) = 0.04614530
#
# Stress axis : x y z
#
# Youngs Moduli (GPa) = 110.39599 137.63921 28.02101
#
# Poissons Ratio (x) = 0.30959 -0.01955
# Poissons Ratio (y) = 0.24831 0.03871
# Poissons Ratio (z) = -0.07702 0.19013
#
# Static dielectric constant tensor:
#      x y z
#    x 1.873350 0.000000 0.000000 
#    y 0.000000 1.876250 0.000000 
#    z 0.000000 0.000000 1.906570 
# 
# From -- ./inp_files/22528.got.cif
#   From: 2010.05.17/outbox.cif.g08.bks.cpg/sg71_12_cif.got.tgz:22528.got - 2010.06.03 16:22:01.
