data_PCOD9521279
_publ_section_title
;
Structure prediction by ZEFSAII (Michael W. Deem and Ramdas Pophale) SiO2 
 PCOD9521279
Probable space group: I M M M
;
_chemical_formula_sum "Si O2"
_cell_formula_units_Z 112
_cell_length_a 9.896615
_cell_length_b 16.722278
_cell_length_c 37.609805
_cell_angle_alpha 90.000000
_cell_angle_beta 90.000000
_cell_angle_gamma 90.000000
_cell_volume 6224.195086
_symmetry_space_group_name_H-M "I M M M"
_symmetry_group_IT_number 71
_symmetry_cell_setting 'orthorhombic'
loop_
_space_group_symop_operation_xyz
x,y,z
-x,-y,z
x,-y,-z
-x,y,-z
-x,-y,-z
x,y,-z
-x,y,z
x,-y,z
1/2+x,1/2+y,1/2+z
1/2-x,1/2-y,1/2+z
1/2+x,1/2-y,1/2-z
1/2-x,1/2+y,1/2-z
1/2-x,1/2-y,1/2-z
1/2+x,1/2+y,1/2-z
1/2-x,1/2+y,1/2+z
1/2+x,1/2-y,1/2+z
loop_
_atom_site_type_symbol
_atom_site_label
_atom_site_fract_x
_atom_site_fract_y
_atom_site_fract_z
Si Si1 0.155707 0.402411 0.040029
Si Si2 0.343739 0.402475 0.460123
Si Si3 0.843125 0.403373 0.604611
Si Si4 0.155178 0.096271 0.396294
Si Si5 0.656739 0.595004 0.743284
Si Si6 0.343883 0.837489 0.818499
Si Si7 0.156389 0.853627 0.680009
O O1 0.157881 0.500000 0.040425
O O2 0.254409 0.374137 0.071048
O O3 0.000000 0.378510 0.046035
O O4 0.195379 0.377828 0.000000
O O5 0.302236 0.377190 0.500000
O O6 0.500000 0.379160 0.454661
O O7 0.340414 0.500000 0.460007
O O8 0.248545 0.375332 0.428150
O O9 0.836064 0.500000 0.606205
O O10 0.800415 0.369598 0.642857
O O11 0.000000 0.381029 0.599025
O O12 0.214254 0.118490 0.357673
O O13 0.000000 0.126222 0.398736
O O14 0.150461 0.000000 0.398226
O O15 0.500000 0.623951 0.741270
O O16 0.655360 0.500000 0.738904
O O17 0.747725 0.632498 0.712676
O O18 0.712253 0.615041 0.782666
O O19 0.500000 0.863972 0.812885
O O20 0.342598 0.741785 0.819099
O O21 0.000000 0.882931 0.679394
#
# Coordination Sequence:
#
# PCOD9521279 Si02
#       7
#    16  16  16  16  16  16  16
#     4   8  14  25  41  63  93 125 154 190 239 287
#     4   8  14  25  42  65  91 117 147 186 230 271
#     4   9  17  28  43  65  91 118 150 188 228 269
#     4   9  16  27  46  70  93 119 156 200 239 278
#     4  10  20  34  53  75  97 122 155 194 235 280
#     4  10  20  34  51  70  96 128 159 192 231 278
#     4   9  18  33  51  70  95 127 158 190 234 283
#
# _framework density 17.994294
#
# number of rings (size 3 to 8) (size 9 to 14) (size 15 to 20)
#    0.000    3.000    0.000    2.143    0.000    3.714 
#    0.000    5.714    0.000    2.571    0.000    6.000 
#    0.000    0.000    0.000    0.000    0.000    0.000 
#
# Total GULP energy -312015.491122 kJ/mol
# GULP energy per Si atom -5571.705199 kJ/mol
# Density = 1.795334 g / cm^3
# Si number density = 17.994294 Si / 1000 Ang^3
#
#
#
# Elastic Constant Matrix: (Units=GPa)
#
#
# Indices 1 2 3 4 5 6 
#
# 1 59.1762 8.3024 80.3208 0.0000 0.0000 0.0000
# 2 8.3024 7.8479 9.9311 0.0000 0.0000 0.0000
# 3 80.3208 9.9311 170.8270 0.0000 0.0000 0.0000
# 4 0.0000 0.0000 0.0000 -31.4258 0.0000 0.0000
# 5 0.0000 0.0000 0.0000 0.0000 22.1006 0.0000
# 6 0.0000 0.0000 0.0000 0.0000 0.0000 10.8050
#
#
#
# Elastic Compliance Matrix: (Units=1/GPa)
#
#
# Indices 1 2 3 4 5 6 
#
# 1 0.051033 -0.025499 -0.022513 0.000000 0.000000 0.000000
# 2 -0.025499 0.150282 0.003253 0.000000 0.000000 0.000000
# 3 -0.022513 0.003253 0.016250 0.000000 0.000000 0.000000
# 4 0.000000 0.000000 0.000000 -0.031821 0.000000 0.000000
# 5 0.000000 0.000000 0.000000 0.000000 0.045248 0.000000
# 6 0.000000 0.000000 0.000000 0.000000 0.000000 0.092550
#
#
# Mechanical properties :
#
#
# Convention : Reuss Voigt Hill
#
# Bulk Modulus (GPa) = 7.80970 48.32884 28.06927
# Shear Modulus (GPa) = 10.97114 9.58243 10.27678
#
# Velocity S-wave (km/s) = 2.47189 2.31016 2.39239
# Velocity P-wave (km/s) = 3.53504 5.83369 4.82330
#
# Compressibility (1/GPa) = 0.12804594
#
# Stress axis : x y z
#
# Youngs Moduli (GPa) = 19.59518 6.65418 61.53870
#
# Poissons Ratio (x) = 0.16968 1.38540
# Poissons Ratio (y) = 0.49967 -0.20018
# Poissons Ratio (z) = 0.44114 -0.02165
#
# Static dielectric constant tensor:
#      x y z
#    x 1.614690 0.000000 0.000000 
#    y 0.000000 1.602570 0.000000 
#    z 0.000000 0.000000 1.618350 
# 
# From -- ./inp_files/69326.got.cif
#   From: 2010.05.17/outbox.cif.g08.bks.cpg/sg71_35_cif.got.tgz:69326.got - 2010.06.03 16:22:01.
