data_PCOD9521411
_publ_section_title
;
Structure prediction by ZEFSAII (Michael W. Deem and Ramdas Pophale) SiO2 
 PCOD9521411
Probable space group: I M M M
;
_chemical_formula_sum "Si O2"
_cell_formula_units_Z 88
_cell_length_a 18.611975
_cell_length_b 8.916701
_cell_length_c 29.643916
_cell_angle_alpha 90.000000
_cell_angle_beta 90.000000
_cell_angle_gamma 90.000000
_cell_volume 4919.627702
_symmetry_space_group_name_H-M "I M M M"
_symmetry_group_IT_number 71
_symmetry_cell_setting 'orthorhombic'
loop_
_space_group_symop_operation_xyz
x,y,z
-x,-y,z
x,-y,-z
-x,y,-z
-x,-y,-z
x,y,-z
-x,y,z
x,-y,z
1/2+x,1/2+y,1/2+z
1/2-x,1/2-y,1/2+z
1/2+x,1/2-y,1/2-z
1/2-x,1/2+y,1/2-z
1/2-x,1/2-y,1/2-z
1/2+x,1/2+y,1/2-z
1/2-x,1/2+y,1/2+z
1/2+x,1/2-y,1/2+z
loop_
_atom_site_type_symbol
_atom_site_label
_atom_site_fract_x
_atom_site_fract_y
_atom_site_fract_z
Si Si1 0.350179 0.824452 0.445823
Si Si2 0.767686 0.679376 0.615646
Si Si3 0.915401 0.172940 0.747785
Si Si4 0.791134 0.321881 0.792549
Si Si5 0.918254 0.679610 0.649840
Si Si6 0.500000 0.326725 0.445021
O O1 0.346760 0.809653 0.500000
O O2 0.281566 0.746457 0.423495
O O3 0.425923 0.752008 0.430532
O O4 0.350298 0.000000 0.434333
O O5 0.760511 0.500000 0.615915
O O6 0.737437 0.747320 0.662080
O O7 0.853051 0.715687 0.616038
O O8 0.872795 0.274521 0.782829
O O9 0.904816 0.236036 0.697113
O O10 0.000000 0.176735 0.756489
O O11 0.890650 0.000000 0.750156
O O12 0.782315 0.500000 0.793707
O O13 0.750000 0.250000 0.750000
O O14 0.915171 0.500000 0.658478
O O15 0.000000 0.714978 0.634976
O O16 0.500000 0.500000 0.431117
O O17 0.500000 0.321632 0.500000
#
# Coordination Sequence:
#
# PCOD9521411 Si02
#       6
#    16  16  16  16  16   8
#     4  10  21  38  60  85 114 147 184 227 275 330
#     4  11  22  36  57  84 112 144 184 230 280 333
#     4  10  20  34  53  76 104 141 185 229 272 322
#     4  12  23  36  54  77 110 148 185 227 275 327
#     4   9  18  33  54  79 107 142 184 228 274 326
#     4   9  17  33  59  87 113 143 181 225 273 327
#
# _framework density 17.887532
#
# number of rings (size 3 to 8) (size 9 to 14) (size 15 to 20)
#    0.000    1.727    1.818    3.545    0.000    4.000 
#    1.636    0.000    0.000    0.545    0.000    3.818 
#    0.000    0.000    0.000    0.000    0.000    0.000 
#
# Total GULP energy -245605.788551 kJ/mol
# GULP energy per Si atom -5581.949740 kJ/mol
# Density = 1.784682 g / cm^3
# Si number density = 17.887532 Si / 1000 Ang^3
#
#
#
# Elastic Constant Matrix: (Units=GPa)
#
#
# Indices 1 2 3 4 5 6 
#
# 1 142.1738 67.5296 33.0301 0.0000 0.0000 0.0000
# 2 67.5296 109.4438 33.9053 0.0000 0.0000 0.0000
# 3 33.0301 33.9053 20.5794 0.0000 0.0000 0.0000
# 4 0.0000 0.0000 0.0000 27.5060 0.0000 0.0000
# 5 0.0000 0.0000 0.0000 0.0000 29.6865 0.0000
# 6 0.0000 0.0000 0.0000 0.0000 0.0000 26.8705
#
#
#
# Elastic Compliance Matrix: (Units=1/GPa)
#
#
# Indices 1 2 3 4 5 6 
#
# 1 0.011634 -0.002847 -0.013983 0.000000 0.000000 0.000000
# 2 -0.002847 0.019359 -0.027326 0.000000 0.000000 0.000000
# 3 -0.013983 -0.027326 0.116055 0.000000 0.000000 0.000000
# 4 0.000000 0.000000 0.000000 0.036356 0.000000 0.000000
# 5 0.000000 0.000000 0.000000 0.000000 0.033685 0.000000
# 6 0.000000 0.000000 0.000000 0.000000 0.000000 0.037215
#
#
# Mechanical properties :
#
#
# Convention : Reuss Voigt Hill
#
# Bulk Modulus (GPa) = 17.02481 60.12520 38.57500
# Shear Modulus (GPa) = 13.80470 25.99473 19.89972
#
# Velocity S-wave (km/s) = 2.78105 3.81626 3.33902
# Velocity P-wave (km/s) = 4.45541 7.28727 6.03966
#
# Compressibility (1/GPa) = 0.05873779
#
# Stress axis : x y z
#
# Youngs Moduli (GPa) = 85.95203 51.65552 8.61658
#
# Poissons Ratio (x) = 0.14705 0.12049
# Poissons Ratio (y) = 0.24469 0.23545
# Poissons Ratio (z) = 1.20188 1.41152
#
# Static dielectric constant tensor:
#      x y z
#    x 1.667230 0.000000 0.000000 
#    y 0.000000 1.602160 0.000000 
#    z 0.000000 0.000000 1.581680 
# 
# From -- ./inp_files/49208.got.cif
#   From: 2010.05.17/outbox.cif.g08.bks.cpg/sg71_25_cif.got.tgz:49208.got - 2010.06.03 16:22:01.
