data_PCOD9521638
_publ_section_title
;
Structure prediction by ZEFSAII (Michael W. Deem and Ramdas Pophale) SiO2 
 PCOD9521638
Probable space group: I M M M
;
_chemical_formula_sum "Si O2"
_cell_formula_units_Z 64
_cell_length_a 8.085681
_cell_length_b 15.455037
_cell_length_c 24.390945
_cell_angle_alpha 90.000000
_cell_angle_beta 90.000000
_cell_angle_gamma 90.000000
_cell_volume 3048.002223
_symmetry_space_group_name_H-M "I M M M"
_symmetry_group_IT_number 71
_symmetry_cell_setting 'orthorhombic'
loop_
_space_group_symop_operation_xyz
x,y,z
-x,-y,z
x,-y,-z
-x,y,-z
-x,-y,-z
x,y,-z
-x,y,z
x,-y,z
1/2+x,1/2+y,1/2+z
1/2-x,1/2-y,1/2+z
1/2+x,1/2-y,1/2-z
1/2-x,1/2+y,1/2-z
1/2-x,1/2-y,1/2-z
1/2+x,1/2+y,1/2-z
1/2-x,1/2+y,1/2+z
1/2+x,1/2-y,1/2+z
loop_
_atom_site_type_symbol
_atom_site_label
_atom_site_fract_x
_atom_site_fract_y
_atom_site_fract_z
Si Si1 0.179840 0.397849 0.128242
Si Si2 0.803445 0.849137 0.254534
Si Si3 0.500000 0.606186 0.936417
Si Si4 0.186192 0.898271 0.868728
Si Si5 0.500000 0.893747 0.936433
O O1 0.173736 0.500000 0.116079
O O2 0.213190 0.387960 0.192912
O O3 0.335779 0.362581 0.094802
O O4 0.000000 0.359990 0.114675
O O5 0.750000 0.750000 0.250000
O O6 0.768057 0.890023 0.195366
O O7 0.000000 0.857417 0.263878
O O8 0.500000 0.500000 0.933708
O O9 0.500000 0.630185 0.000000
O O10 0.334435 0.862600 0.905595
O O11 0.000000 0.861330 0.875859
O O12 0.174910 0.000000 0.881575
O O13 0.500000 0.000000 0.933630
O O14 0.500000 0.869673 0.000000
#
# Coordination Sequence:
#
# PCOD9521638 Si02
#       5
#    16  16   8  16   8
#     4  10  20  34  55  82 110 143 180 221 271 326
#     4  11  22  35  53  79 111 143 181 226 273 325
#     4   9  18  34  55  81 113 145 180 223 268 319
#     4   9  19  34  53  78 107 140 175 216 265 318
#     4   9  18  32  53  81 109 139 176 217 262 315
#
# _framework density 20.997357999999998
#
# number of rings (size 3 to 8) (size 9 to 14) (size 15 to 20)
#    0.000    2.250    1.250    1.500    3.500    2.000 
#    0.000    5.000    0.000    3.000    0.000    3.500 
#    0.000    0.000    0.000    0.000    0.000    0.000 
#
# Total GULP energy -178650.828719 kJ/mol
# GULP energy per Si atom -5582.838397 kJ/mol
# Density = 2.094957 g / cm^3
# Si number density = 20.997358 Si / 1000 Ang^3
#
#
#
# Elastic Constant Matrix: (Units=GPa)
#
#
# Indices 1 2 3 4 5 6 
#
# 1 200.0980 5.9651 121.8590 0.0000 0.0000 0.0000
# 2 5.9651 31.3192 -10.2570 0.0000 0.0000 0.0000
# 3 121.8590 -10.2570 138.7585 0.0000 0.0000 0.0000
# 4 0.0000 0.0000 0.0000 -35.7009 0.0000 0.0000
# 5 0.0000 0.0000 0.0000 0.0000 -9.6192 0.0000
# 6 0.0000 0.0000 0.0000 0.0000 0.0000 1.0785
#
#
#
# Elastic Compliance Matrix: (Units=1/GPa)
#
#
# Indices 1 2 3 4 5 6 
#
# 1 0.011663 -0.005714 -0.010665 0.000000 0.000000 0.000000
# 2 -0.005714 0.035521 0.007644 0.000000 0.000000 0.000000
# 3 -0.010665 0.007644 0.017137 0.000000 0.000000 0.000000
# 4 0.000000 0.000000 0.000000 -0.028010 0.000000 0.000000
# 5 0.000000 0.000000 0.000000 0.000000 -0.103959 0.000000
# 6 0.000000 0.000000 0.000000 0.000000 0.000000 0.927201
#
#
# Mechanical properties :
#
#
# Convention : Reuss Voigt Hill
#
# Bulk Modulus (GPa) = 21.34405 67.25665 44.30035
# Shear Modulus (GPa) = 5.60137 7.99226 6.79681
#
# Velocity S-wave (km/s) = 1.63507 1.95309 1.80111
# Velocity P-wave (km/s) = 3.70834 6.09809 5.04670
#
# Compressibility (1/GPa) = 0.04685147
#
# Stress axis : x y z
#
# Youngs Moduli (GPa) = 85.74457 28.15243 58.35168
#
# Poissons Ratio (x) = 0.16086 0.62229
# Poissons Ratio (y) = 0.48994 -0.44602
# Poissons Ratio (z) = 0.91442 -0.21519
#
# Static dielectric constant tensor:
#      x y z
#    x 1.771390 0.000000 0.000000 
#    y 0.000000 1.750900 0.000000 
#    z 0.000000 0.000000 1.703720 
# 
# From -- ./inp_files/53679.got.cif
#   From: 2010.05.17/outbox.cif.g08.bks.cpg/sg71_27_cif.got.tgz:53679.got - 2010.06.03 16:22:01.
