data_PCOD9521351
_publ_section_title
;
Structure prediction by ZEFSAII (Michael W. Deem and Ramdas Pophale) SiO2 
 PCOD9521351
Probable space group: I M M M
;
_chemical_formula_sum "Si O2"
_cell_formula_units_Z 88
_cell_length_a 23.486207
_cell_length_b 8.752757
_cell_length_c 24.966104
_cell_angle_alpha 90.000000
_cell_angle_beta 90.000000
_cell_angle_gamma 90.000000
_cell_volume 5132.258599
_symmetry_space_group_name_H-M "I M M M"
_symmetry_group_IT_number 71
_symmetry_cell_setting 'orthorhombic'
loop_
_space_group_symop_operation_xyz
x,y,z
-x,-y,z
x,-y,-z
-x,y,-z
-x,-y,-z
x,y,-z
-x,y,z
x,-y,z
1/2+x,1/2+y,1/2+z
1/2-x,1/2-y,1/2+z
1/2+x,1/2-y,1/2-z
1/2-x,1/2+y,1/2-z
1/2-x,1/2-y,1/2-z
1/2+x,1/2+y,1/2-z
1/2-x,1/2+y,1/2+z
1/2+x,1/2-y,1/2+z
loop_
_atom_site_type_symbol
_atom_site_label
_atom_site_fract_x
_atom_site_fract_y
_atom_site_fract_z
Si Si1 0.932745 0.182205 0.765602
Si Si2 0.656764 0.815620 0.061479
Si Si3 0.720479 0.816134 0.562113
Si Si4 0.565878 0.184522 0.149942
Si Si5 0.891767 0.683447 0.125729
Si Si6 0.000000 0.182927 0.936835
O O1 0.917411 0.245657 0.707172
O O2 0.898526 0.257904 0.813863
O O3 0.000000 0.217824 0.774008
O O4 0.926315 0.000000 0.767043
O O5 0.718904 0.754755 0.077323
O O6 0.608051 0.766042 0.102712
O O7 0.657986 0.000000 0.061752
O O8 0.645762 0.766103 0.000000
O O9 0.708992 0.773919 0.500000
O O10 0.667764 0.768416 0.598880
O O11 0.724924 0.000000 0.564523
O O12 0.500000 0.227320 0.139187
O O13 0.568056 0.000000 0.153777
O O14 0.894983 0.500000 0.124599
O O15 0.944167 0.749970 0.091567
O O16 0.000000 0.000000 0.930349
O O17 0.000000 0.219355 0.000000
#
# Coordination Sequence:
#
# PCOD9521351 Si02
#       6
#    16  16  16  16  16   8
#     4  10  20  34  52  75 105 137 173 217 265 313
#     4   9  18  33  54  80 107 136 170 210 259 313
#     4   9  19  35  53  74 102 137 175 214 258 310
#     4   9  18  33  54  79 107 137 171 210 256 313
#     4  11  21  34  54  76 101 137 180 220 262 312
#     4  11  23  35  49  75 109 139 172 219 268 309
#
# _framework density 17.146446999999998
#
# number of rings (size 3 to 8) (size 9 to 14) (size 15 to 20)
#    0.000    2.273    0.909    1.909    0.000    4.727 
#    0.000    4.545    0.000    0.000    0.000    5.091 
#    0.000    0.000    0.000    0.000    0.000    0.000 
#
# Total GULP energy -245543.242075 kJ/mol
# GULP energy per Si atom -5580.528229 kJ/mol
# Density = 1.710742 g / cm^3
# Si number density = 17.146447 Si / 1000 Ang^3
#
#
#
# Elastic Constant Matrix: (Units=GPa)
#
#
# Indices 1 2 3 4 5 6 
#
# 1 136.2582 35.0998 115.0890 0.0000 0.0000 0.0000
# 2 35.0998 22.1238 40.6528 0.0000 0.0000 0.0000
# 3 115.0890 40.6528 146.5798 0.0000 0.0000 0.0000
# 4 0.0000 0.0000 0.0000 24.1686 0.0000 0.0000
# 5 0.0000 0.0000 0.0000 0.0000 24.5373 0.0000
# 6 0.0000 0.0000 0.0000 0.0000 0.0000 27.2532
#
#
#
# Elastic Compliance Matrix: (Units=1/GPa)
#
#
# Indices 1 2 3 4 5 6 
#
# 1 0.022241 -0.006521 -0.015654 0.000000 0.000000 0.000000
# 2 -0.006521 0.094086 -0.020974 0.000000 0.000000 0.000000
# 3 -0.015654 -0.020974 0.024931 0.000000 0.000000 0.000000
# 4 0.000000 0.000000 0.000000 0.041376 0.000000 0.000000
# 5 0.000000 0.000000 0.000000 0.000000 0.040754 0.000000
# 6 0.000000 0.000000 0.000000 0.000000 0.000000 0.036693
#
#
# Mechanical properties :
#
#
# Convention : Reuss Voigt Hill
#
# Bulk Modulus (GPa) = 18.19542 76.29389 47.24465
# Shear Modulus (GPa) = 13.70995 22.79984 18.25489
#
# Velocity S-wave (km/s) = 2.83075 3.65048 3.26643
# Velocity P-wave (km/s) = 4.61725 7.89684 6.46835
#
# Compressibility (1/GPa) = 0.05495889
#
# Stress axis : x y z
#
# Youngs Moduli (GPa) = 44.96208 10.62858 40.11148
#
# Poissons Ratio (x) = 0.06930 0.62792
# Poissons Ratio (y) = 0.29318 0.84131
# Poissons Ratio (z) = 0.70385 0.22293
#
# Static dielectric constant tensor:
#      x y z
#    x 1.556930 0.000000 0.000000 
#    y 0.000000 1.577080 0.000000 
#    z 0.000000 0.000000 1.570080 
# 
# From -- ./inp_files/10424.got.cif
#   From: 2010.05.17/outbox.cif.g08.bks.cpg/sg71_6_cif.got.tgz:10424.got - 2010.06.03 16:22:01.
