data_PCOD9521951
_publ_section_title
;
Structure prediction by ZEFSAII (Michael W. Deem and Ramdas Pophale) SiO2 
 PCOD9521951
Probable space group: I M M M
;
_chemical_formula_sum "Si O2"
_cell_formula_units_Z 88
_cell_length_a 22.487184
_cell_length_b 23.997573
_cell_length_c 8.277246
_cell_angle_alpha 90.000000
_cell_angle_beta 90.000000
_cell_angle_gamma 90.000000
_cell_volume 4466.715149
_symmetry_space_group_name_H-M "I M M M"
_symmetry_group_IT_number 71
_symmetry_cell_setting 'orthorhombic'
loop_
_space_group_symop_operation_xyz
x,y,z
-x,-y,z
x,-y,-z
-x,y,-z
-x,-y,-z
x,y,-z
-x,y,z
x,-y,z
1/2+x,1/2+y,1/2+z
1/2-x,1/2-y,1/2+z
1/2+x,1/2-y,1/2-z
1/2-x,1/2+y,1/2-z
1/2-x,1/2-y,1/2-z
1/2+x,1/2+y,1/2-z
1/2-x,1/2+y,1/2+z
1/2+x,1/2-y,1/2+z
loop_
_atom_site_type_symbol
_atom_site_label
_atom_site_fract_x
_atom_site_fract_y
_atom_site_fract_z
Si Si1 0.817137 0.233966 0.194033
Si Si2 0.876721 0.118512 0.692769
Si Si3 0.659328 0.147315 0.689333
Si Si4 0.070698 0.561209 0.309231
Si Si5 0.500000 0.564819 0.692508
Si Si6 0.242557 0.938117 0.697652
O O1 0.750000 0.250000 0.250000
O O2 0.849600 0.179079 0.260709
O O3 0.850414 0.290392 0.249995
O O4 0.816683 0.227955 0.000000
O O5 0.880542 0.117032 0.500000
O O6 0.824814 0.075640 0.744901
O O7 0.940517 0.098592 0.757304
O O8 0.672652 0.153749 0.500000
O O9 0.602545 0.109408 0.714431
O O10 0.714184 0.111021 0.758480
O O11 0.084546 0.565917 0.500000
O O12 0.090503 0.500000 0.252455
O O13 0.000000 0.563836 0.293223
O O14 0.500000 0.500000 0.755178
O O15 0.500000 0.561511 0.500000
O O16 0.245216 0.937687 0.500000
O O17 0.260318 0.000000 0.751257
#
# Coordination Sequence:
#
# PCOD9521951 Si02
#       6
#    16  16  16  16   8  16
#     4  11  22  39  61  87 120 158 199 249 305 363
#     4  11  22  40  64  91 122 163 210 252 308 375
#     4  10  20  35  56  83 114 150 193 239 291 352
#     4   9  19  36  55  78 112 150 187 232 286 342
#     4  11  25  45  67  95 131 167 208 263 322 377
#     4   9  17  31  54  85 118 148 186 240 296 354
#
# _framework density 19.701279
#
# number of rings (size 3 to 8) (size 9 to 14) (size 15 to 20)
#    0.000    1.909    1.818    3.000    0.000    4.364 
#    1.636    0.909    0.000    3.273    0.000    0.000 
#    0.000    0.000    0.000    0.000    0.000    0.000 
#
# Total GULP energy -245353.131864 kJ/mol
# GULP energy per Si atom -5576.207542 kJ/mol
# Density = 1.965644 g / cm^3
# Si number density = 19.701279 Si / 1000 Ang^3
#
#
#
# Elastic Constant Matrix: (Units=GPa)
#
#
# Indices 1 2 3 4 5 6 
#
# 1 80.2729 49.3266 18.4751 0.0000 0.0000 0.0000
# 2 49.3266 140.7947 14.5959 0.0000 0.0000 0.0000
# 3 18.4751 14.5959 25.0811 0.0000 0.0000 0.0000
# 4 0.0000 0.0000 0.0000 20.2470 0.0000 0.0000
# 5 0.0000 0.0000 0.0000 0.0000 21.4686 0.0000
# 6 0.0000 0.0000 0.0000 0.0000 0.0000 10.7978
#
#
#
# Elastic Compliance Matrix: (Units=1/GPa)
#
#
# Indices 1 2 3 4 5 6 
#
# 1 0.018045 -0.005261 -0.010230 0.000000 0.000000 0.000000
# 2 -0.005261 0.009093 -0.001416 0.000000 0.000000 0.000000
# 3 -0.010230 -0.001416 0.048230 0.000000 0.000000 0.000000
# 4 0.000000 0.000000 0.000000 0.049390 0.000000 0.000000
# 5 0.000000 0.000000 0.000000 0.000000 0.046580 0.000000
# 6 0.000000 0.000000 0.000000 0.000000 0.000000 0.092612
#
#
# Mechanical properties :
#
#
# Convention : Reuss Voigt Hill
#
# Bulk Modulus (GPa) = 24.06571 45.66045 34.86308
# Shear Modulus (GPa) = 16.04538 21.41941 18.73239
#
# Velocity S-wave (km/s) = 2.85692 3.30086 3.08688
# Velocity P-wave (km/s) = 4.80880 6.14445 5.51719
#
# Compressibility (1/GPa) = 0.04155290
#
# Stress axis : x y z
#
# Youngs Moduli (GPa) = 55.41650 109.97918 20.73379
#
# Poissons Ratio (x) = 0.57865 0.21212
# Poissons Ratio (y) = 0.29157 0.02935
# Poissons Ratio (z) = 0.56694 0.15571
#
# Static dielectric constant tensor:
#      x y z
#    x 1.701550 0.000000 0.000000 
#    y 0.000000 1.738870 0.000000 
#    z 0.000000 0.000000 1.707690 
# 
# From -- ./inp_files/10509.got.cif
#   From: 2010.05.17/outbox.cif.g08.bks.cpg/sg71_6_cif.got.tgz:10509.got - 2010.06.03 16:22:01.
