data_PCOD9521793
_publ_section_title
;
Structure prediction by ZEFSAII (Michael W. Deem and Ramdas Pophale) SiO2 
 PCOD9521793
Probable space group: I M M M
;
_chemical_formula_sum "Si O2"
_cell_formula_units_Z 80
_cell_length_a 7.392043
_cell_length_b 26.875026
_cell_length_c 17.902382
_cell_angle_alpha 90.000000
_cell_angle_beta 90.000000
_cell_angle_gamma 90.000000
_cell_volume 3556.511337
_symmetry_space_group_name_H-M "I M M M"
_symmetry_group_IT_number 71
_symmetry_cell_setting 'orthorhombic'
loop_
_space_group_symop_operation_xyz
x,y,z
-x,-y,z
x,-y,-z
-x,y,-z
-x,-y,-z
x,y,-z
-x,y,z
x,-y,z
1/2+x,1/2+y,1/2+z
1/2-x,1/2-y,1/2+z
1/2+x,1/2-y,1/2-z
1/2-x,1/2+y,1/2-z
1/2-x,1/2-y,1/2-z
1/2+x,1/2+y,1/2-z
1/2-x,1/2+y,1/2+z
1/2+x,1/2-y,1/2+z
loop_
_atom_site_type_symbol
_atom_site_label
_atom_site_fract_x
_atom_site_fract_y
_atom_site_fract_z
Si Si1 0.720662 0.815338 0.416307
Si Si2 0.279317 0.000000 0.585246
Si Si3 0.721087 0.941628 0.000000
Si Si4 0.714654 0.278070 0.328573
Si Si5 0.278480 0.906659 0.316158
Si Si6 0.291913 0.106987 0.153107
O O1 0.777756 0.828421 0.500000
O O2 0.500000 0.815796 0.415719
O O3 0.778189 0.760497 0.391656
O O4 0.778955 0.855241 0.354747
O O5 0.223655 0.048571 0.630565
O O6 0.500000 0.000000 0.583690
O O7 0.218000 0.000000 0.500000
O O8 0.784393 0.913633 0.924588
O O9 0.500000 0.939270 0.000000
O O10 0.770506 0.000000 0.000000
O O11 0.500000 0.283859 0.334940
O O12 0.750000 0.250000 0.250000
O O13 0.791091 0.333121 0.338770
O O14 0.500000 0.905819 0.314022
O O15 0.212430 0.911847 0.231526
O O16 0.500000 0.089999 0.153112
#
# Coordination Sequence:
#
# PCOD9521793 Si02
#       6
#    16   8   8  16  16  16
#     4   9  17  29  46  70 101 135 169 208 258 317
#     4   9  16  24  40  71 104 130 161 213 269 311
#     4   9  20  36  57  83 113 149 191 244 293 340
#     4  11  21  35  55  79 108 144 183 224 273 329
#     4   9  16  27  45  69 100 135 169 210 261 317
#     4  10  20  35  53  78 109 143 184 226 276 329
#
# _framework density 22.493955
#
# number of rings (size 3 to 8) (size 9 to 14) (size 15 to 20)
#    0.000    2.400    2.000    1.200    2.800    2.400 
#    0.000    0.000    0.000    1.200    0.000    0.000 
#    0.000    0.800    0.000    0.000    0.000    0.000 
#
# Total GULP energy -223448.323379 kJ/mol
# GULP energy per Si atom -5586.208084 kJ/mol
# Density = 2.244276 g / cm^3
# Si number density = 22.493955 Si / 1000 Ang^3
#
#
#
# Elastic Constant Matrix: (Units=GPa)
#
#
# Indices 1 2 3 4 5 6 
#
# 1 79.2154 -9.8467 3.9202 0.0000 0.0000 0.0000
# 2 -9.8467 122.3112 92.4567 0.0000 0.0000 0.0000
# 3 3.9202 92.4567 241.1308 0.0001 0.0000 0.0000
# 4 0.0000 0.0000 0.0001 39.4990 0.0000 0.0000
# 5 0.0000 0.0000 0.0000 0.0000 -4.5881 0.0000
# 6 0.0000 0.0000 0.0000 0.0000 0.0000 10.4314
#
#
#
# Elastic Compliance Matrix: (Units=1/GPa)
#
#
# Indices 1 2 3 4 5 6 
#
# 1 0.012875 0.001682 -0.000854 0.000000 0.000000 0.000000
# 2 0.001682 0.011733 -0.004526 0.000000 0.000000 0.000000
# 3 -0.000854 -0.004526 0.005896 0.000000 0.000000 0.000000
# 4 0.000000 0.000000 0.000000 0.025317 0.000000 0.000000
# 5 0.000000 0.000000 0.000000 0.000000 -0.217954 0.000000
# 6 0.000000 0.000000 0.000000 0.000000 0.000000 0.095864
#
#
# Mechanical properties :
#
#
# Convention : Reuss Voigt Hill
#
# Bulk Modulus (GPa) = 43.27467 68.41310 55.84388
# Shear Modulus (GPa) = -97.71373 32.81027 -32.45173
#
# Velocity S-wave (km/s) = -6.59805 3.82334 -3.80239
# Velocity P-wave (km/s) = 6.22620 7.06899 2.36696
#
# Compressibility (1/GPa) = 0.02310821
#
# Stress axis : x y z
#
# Youngs Moduli (GPa) = 77.66860 85.23304 169.59491
#
# Poissons Ratio (x) = -0.14339 0.14490
# Poissons Ratio (y) = -0.13067 0.76758
# Poissons Ratio (z) = 0.06636 0.38576
#
# Static dielectric constant tensor:
#      x y z
#    x 1.884470 0.000000 0.000000 
#    y 0.000000 1.801170 0.000000 
#    z 0.000000 0.000000 1.821060 
# 
# From -- ./inp_files/14593.got.cif
#   From: 2010.05.17/outbox.cif.g08.bks.cpg/sg71_8_cif.got.tgz:14593.got - 2010.06.03 16:22:01.
