data_PCOD9521021
_publ_section_title
;
Structure prediction by ZEFSAII (Michael W. Deem and Ramdas Pophale) SiO2 
 PCOD9521021
Probable space group: I M M M
;
_chemical_formula_sum "Si O2"
_cell_formula_units_Z 104
_cell_length_a 15.595613
_cell_length_b 9.375979
_cell_length_c 33.802561
_cell_angle_alpha 90.000000
_cell_angle_beta 90.000000
_cell_angle_gamma 90.000000
_cell_volume 4942.750411
_symmetry_space_group_name_H-M "I M M M"
_symmetry_group_IT_number 71
_symmetry_cell_setting 'orthorhombic'
loop_
_space_group_symop_operation_xyz
x,y,z
-x,-y,z
x,-y,-z
-x,y,-z
-x,-y,-z
x,y,-z
-x,y,z
x,-y,z
1/2+x,1/2+y,1/2+z
1/2-x,1/2-y,1/2+z
1/2+x,1/2-y,1/2-z
1/2-x,1/2+y,1/2-z
1/2-x,1/2-y,1/2-z
1/2+x,1/2+y,1/2-z
1/2-x,1/2+y,1/2+z
1/2+x,1/2-y,1/2+z
loop_
_atom_site_type_symbol
_atom_site_label
_atom_site_fract_x
_atom_site_fract_y
_atom_site_fract_z
Si Si1 0.164486 0.336892 0.573834
Si Si2 0.400477 0.842625 0.619440
Si Si3 0.895957 0.168431 0.649989
Si Si4 0.138391 0.160470 0.953430
Si Si5 0.894836 0.837007 0.806993
Si Si6 0.104588 0.335937 0.270548
Si Si7 0.100477 0.841621 0.500000
O O1 0.132376 0.500000 0.576993
O O2 0.148189 0.251986 0.614111
O O3 0.263132 0.343960 0.560457
O O4 0.122297 0.248070 0.538662
O O5 0.500000 0.857621 0.630810
O O6 0.400235 0.775258 0.576045
O O7 0.364157 0.735143 0.652232
O O8 0.360396 0.000000 0.620229
O O9 0.871415 0.243655 0.691180
O O10 0.000000 0.181250 0.645510
O O11 0.875918 0.000000 0.649954
O O12 0.103056 0.000000 0.947503
O O13 0.131949 0.193857 0.000000
O O14 0.867839 0.742020 0.769691
O O15 0.000000 0.841366 0.806826
O O16 0.865630 0.000000 0.803871
O O17 0.133644 0.500000 0.272772
O O18 0.000000 0.338593 0.269775
O O19 0.000000 0.860337 0.500000
O O20 0.141932 0.000000 0.500000
#
# Coordination Sequence:
#
# PCOD9521021 Si02
#       7
#    16  16  16  16  16  16   8
#     4  11  22  38  57  78 106 142 185 230 274 325
#     4  10  21  36  56  85 115 141 176 222 269 322
#     4  10  20  33  50  77 112 147 186 230 274 323
#     4  10  22  41  60  79 106 141 182 224 272 332
#     4   9  16  28  49  77 109 144 179 218 267 320
#     4   9  16  27  46  74 108 145 183 224 270 318
#     4  11  23  37  55  81 110 141 180 227 277 326
#
# _framework density 21.040915999999999
#
# number of rings (size 3 to 8) (size 9 to 14) (size 15 to 20)
#    0.000    2.077    0.769    3.000    0.000    9.846 
#    0.000    1.538    0.000    0.923    0.000    0.000 
#    0.000    0.000    0.000    0.000    0.000    0.000 
#
# Total GULP energy -290428.323454 kJ/mol
# GULP energy per Si atom -5585.160066 kJ/mol
# Density = 2.099303 g / cm^3
# Si number density = 21.040916 Si / 1000 Ang^3
#
#
#
# Elastic Constant Matrix: (Units=GPa)
#
#
# Indices 1 2 3 4 5 6 
#
# 1 25.3040 16.0420 6.6612 0.0000 0.0000 0.0000
# 2 16.0420 210.9434 110.1344 0.0000 0.0000 0.0000
# 3 6.6612 110.1344 173.7974 0.0000 0.0000 0.0000
# 4 0.0000 0.0000 0.0000 46.2911 0.0000 0.0000
# 5 0.0000 0.0000 0.0000 0.0000 35.3445 0.0000
# 6 0.0000 0.0000 0.0000 0.0000 0.0000 36.0390
#
#
#
# Elastic Compliance Matrix: (Units=1/GPa)
#
#
# Indices 1 2 3 4 5 6 
#
# 1 0.041565 -0.003481 0.000613 0.000000 0.000000 0.000000
# 2 -0.003481 0.007376 -0.004541 0.000000 0.000000 0.000000
# 3 0.000613 -0.004541 0.008608 0.000000 0.000000 0.000000
# 4 0.000000 0.000000 0.000000 0.021602 0.000000 0.000000
# 5 0.000000 0.000000 0.000000 0.000000 0.028293 0.000000
# 6 0.000000 0.000000 0.000000 0.000000 0.000000 0.027748
#
#
# Mechanical properties :
#
#
# Convention : Reuss Voigt Hill
#
# Bulk Modulus (GPa) = 23.40226 75.08000 49.24113
# Shear Modulus (GPa) = 30.44080 42.01539 36.22809
#
# Velocity S-wave (km/s) = 3.80773 4.47345 4.15395
# Velocity P-wave (km/s) = 5.52071 7.90207 6.81619
#
# Compressibility (1/GPa) = 0.04273091
#
# Stress axis : x y z
#
# Youngs Moduli (GPa) = 24.05880 135.57348 116.17378
#
# Poissons Ratio (x) = 0.47191 -0.07118
# Poissons Ratio (y) = 0.08375 0.52752
# Poissons Ratio (z) = -0.01474 0.61561
#
# Static dielectric constant tensor:
#      x y z
#    x 2.044210 0.000000 0.000000 
#    y 0.000000 1.757110 0.000000 
#    z 0.000000 0.000000 1.703670 
# 
# From -- ./inp_files/70726.got.cif
#   From: 2010.05.17/outbox.cif.g08.bks.cpg/sg71_36_cif.got.tgz:70726.got - 2010.06.03 16:22:01.
