data_PCOD9521802
_publ_section_title
;
Structure prediction by ZEFSAII (Michael W. Deem and Ramdas Pophale) SiO2 
 PCOD9521802
Probable space group: I M M M
;
_chemical_formula_sum "Si O2"
_cell_formula_units_Z 80
_cell_length_a 7.592594
_cell_length_b 27.153505
_cell_length_c 19.545124
_cell_angle_alpha 90.000000
_cell_angle_beta 90.000000
_cell_angle_gamma 90.000000
_cell_volume 4029.531027
_symmetry_space_group_name_H-M "I M M M"
_symmetry_group_IT_number 71
_symmetry_cell_setting 'orthorhombic'
loop_
_space_group_symop_operation_xyz
x,y,z
-x,-y,z
x,-y,-z
-x,y,-z
-x,-y,-z
x,y,-z
-x,y,z
x,-y,z
1/2+x,1/2+y,1/2+z
1/2-x,1/2-y,1/2+z
1/2+x,1/2-y,1/2-z
1/2-x,1/2+y,1/2-z
1/2-x,1/2-y,1/2-z
1/2+x,1/2+y,1/2-z
1/2-x,1/2+y,1/2+z
1/2+x,1/2-y,1/2+z
loop_
_atom_site_type_symbol
_atom_site_label
_atom_site_fract_x
_atom_site_fract_y
_atom_site_fract_z
Si Si1 0.213737 0.445118 0.861803
Si Si2 0.789885 0.197095 0.718715
Si Si3 0.294841 0.095345 0.782281
Si Si4 0.791806 0.158567 0.574977
Si Si5 0.713792 0.941823 0.925536
O O1 0.269540 0.500000 0.882435
O O2 0.277408 0.432918 0.784437
O O3 0.270905 0.399445 0.908294
O O4 0.000000 0.444253 0.861383
O O5 0.750000 0.250000 0.750000
O O6 0.716835 0.152838 0.764744
O O7 0.721458 0.187714 0.641303
O O8 0.000000 0.190665 0.716982
O O9 0.500000 0.080573 0.785319
O O10 0.218375 0.083186 0.856443
O O11 0.716436 0.169670 0.500000
O O12 0.000000 0.169067 0.572130
O O13 0.500000 0.936585 0.926681
O O14 0.750911 0.000000 0.921012
O O15 0.777507 0.923913 0.000000
#
# Coordination Sequence:
#
# PCOD9521802 Si02
#       5
#    16  16  16  16  16
#     4   9  17  28  44  69  99 129 159 189 223 266
#     4  10  20  35  54  72  90 115 150 192 235 278
#     4   9  16  28  47  69  94 124 157 193 231 271
#     4   9  19  35  52  70  93 121 153 189 228 270
#     4   8  13  22  40  68  98 126 158 194 227 261
#
# _framework density 19.853425999999999
#
# number of rings (size 3 to 8) (size 9 to 14) (size 15 to 20)
#    0.000    3.000    0.000    1.800    0.000    4.400 
#    0.000    3.000    0.000    8.400    0.000    1.400 
#    0.000    0.000    0.000    0.000    0.000    0.000 
#
# Total GULP energy -222951.274804 kJ/mol
# GULP energy per Si atom -5573.781870 kJ/mol
# Density = 1.980824 g / cm^3
# Si number density = 19.853426 Si / 1000 Ang^3
#
#
#
# Elastic Constant Matrix: (Units=GPa)
#
#
# Indices 1 2 3 4 5 6 
#
# 1 43.0996 -15.6215 2.7016 0.0000 0.0000 0.0000
# 2 -15.6215 67.8736 43.1621 0.0000 0.0000 0.0000
# 3 2.7016 43.1621 171.3523 0.0000 0.0000 0.0000
# 4 0.0000 0.0000 0.0000 10.7606 0.0000 0.0000
# 5 0.0000 0.0000 0.0000 0.0000 9.5495 0.0000
# 6 0.0000 0.0000 0.0000 0.0000 0.0000 11.2812
#
#
#
# Elastic Compliance Matrix: (Units=1/GPa)
#
#
# Indices 1 2 3 4 5 6 
#
# 1 0.026045 0.007449 -0.002287 0.000000 0.000000 0.000000
# 2 0.007449 0.019674 -0.005073 0.000000 0.000000 0.000000
# 3 -0.002287 -0.005073 0.007150 0.000000 0.000000 0.000000
# 4 0.000000 0.000000 0.000000 0.092932 0.000000 0.000000
# 5 0.000000 0.000000 0.000000 0.000000 0.104718 0.000000
# 6 0.000000 0.000000 0.000000 0.000000 0.000000 0.088643
#
#
# Mechanical properties :
#
#
# Convention : Reuss Voigt Hill
#
# Bulk Modulus (GPa) = 18.85143 38.08997 28.47070
# Shear Modulus (GPa) = 14.01870 23.12379 18.57125
#
# Velocity S-wave (km/s) = 2.66016 3.41651 3.06178
# Velocity P-wave (km/s) = 4.35329 5.89836 5.18371
#
# Compressibility (1/GPa) = 0.05304637
#
# Stress axis : x y z
#
# Youngs Moduli (GPa) = 38.39473 50.82923 139.86312
#
# Poissons Ratio (x) = -0.37861 0.31985
# Poissons Ratio (y) = -0.28599 0.70954
# Poissons Ratio (z) = 0.08781 0.25786
#
# Static dielectric constant tensor:
#      x y z
#    x 1.777940 0.000000 0.000000 
#    y 0.000000 1.651940 0.000000 
#    z 0.000000 0.000000 1.763010 
# 
# From -- ./inp_files/8263.got.cif
#   From: 2010.05.17/outbox.cif.g08.bks.cpg/sg71_5_cif.got.tgz:8263.got - 2010.06.03 16:22:01.
