data_PCOD9521748
_publ_section_title
;
Structure prediction by ZEFSAII (Michael W. Deem and Ramdas Pophale) SiO2 
 PCOD9521748
Probable space group: I M M M
;
_chemical_formula_sum "Si O2"
_cell_formula_units_Z 90
_cell_length_a 22.744038
_cell_length_b 23.567451
_cell_length_c 7.559232
_cell_angle_alpha 90.000000
_cell_angle_beta 90.000000
_cell_angle_gamma 90.000000
_cell_volume 4051.891986
_symmetry_space_group_name_H-M "I M M M"
_symmetry_group_IT_number 71
_symmetry_cell_setting 'orthorhombic'
loop_
_space_group_symop_operation_xyz
x,y,z
-x,-y,z
x,-y,-z
-x,y,-z
-x,-y,-z
x,y,-z
-x,y,z
x,-y,z
1/2+x,1/2+y,1/2+z
1/2-x,1/2-y,1/2+z
1/2+x,1/2-y,1/2-z
1/2-x,1/2+y,1/2-z
1/2-x,1/2-y,1/2-z
1/2+x,1/2+y,1/2-z
1/2-x,1/2+y,1/2+z
1/2+x,1/2-y,1/2+z
loop_
_atom_site_type_symbol
_atom_site_label
_atom_site_fract_x
_atom_site_fract_y
_atom_site_fract_z
Si Si1 0.000000 0.787815 0.783221
Si Si2 0.000000 0.919012 0.296435
Si Si3 0.500000 0.000000 0.000000
Si Si4 0.880920 0.731020 0.793171
Si Si5 0.130669 0.060869 0.204066
Si Si6 0.824238 0.382649 0.215881
Si Si7 0.889381 0.500000 0.218316
Si Si8 0.298619 0.667136 0.199999
O O1 0.000000 0.851478 0.717416
O O2 0.940725 0.757420 0.720531
O O3 0.000000 0.790416 0.000000
O O4 0.060339 0.938866 0.211010
O O5 0.000000 0.936379 0.500000
O O6 0.552446 0.000000 0.841398
O O7 0.864718 0.669485 0.721438
O O8 0.828206 0.776872 0.780448
O O9 0.892052 0.722230 0.000000
O O10 0.153716 0.116752 0.298377
O O11 0.151881 0.000000 0.276070
O O12 0.149031 0.065227 0.000000
O O13 0.850770 0.443687 0.261752
O O14 0.759378 0.362932 0.277310
O O15 0.821842 0.383008 0.000000
O O16 0.900637 0.500000 0.000000
O O17 0.284122 0.684011 0.000000
#
# Coordination Sequence:
#
# PCOD9521748 Si02
#       8
#     8   8   2  16  16  16   8  16
#     4  10  20  34  58  83 119 160 207 260 308 380
#     4  12  23  37  59  84 119 154 202 265 317 370
#     4  12  26  48  76 118 136 176 234 282 350 426
#     4  10  20  38  62  92 124 170 220 266 329 394
#     4  11  24  40  58  84 117 167 216 259 315 376
#     4   9  21  41  67  96 129 174 220 262 332 400
#     4  10  23  49  77 104 143 182 221 284 349 409
#     4  11  22  37  60  93 131 168 216 270 324 389
#
# _framework density 22.211845
#
# number of rings (size 3 to 8) (size 9 to 14) (size 15 to 20)
#    0.000    1.600    1.778    2.800    1.244    3.200 
#    4.800    2.667    1.956    0.000    0.000    0.000 
#    0.000    0.000    0.000    0.000    0.000    0.000 
#
# Total GULP energy -250994.050216 kJ/mol
# GULP energy per Si atom -5577.645560 kJ/mol
# Density = 2.216129 g / cm^3
# Si number density = 22.211845 Si / 1000 Ang^3
#
#
#
# Elastic Constant Matrix: (Units=GPa)
#
#
# Indices 1 2 3 4 5 6 
#
# 1 129.9855 73.5692 7.8348 0.0000 0.0000 0.0000
# 2 73.5692 200.7586 5.3415 0.0000 0.0000 0.0000
# 3 7.8348 5.3415 72.3960 0.0000 0.0000 0.0000
# 4 0.0000 0.0000 0.0000 37.9865 0.0000 0.0000
# 5 0.0000 0.0000 0.0000 0.0000 16.9871 0.0000
# 6 0.0000 0.0000 0.0000 0.0000 0.0000 14.8720
#
#
#
# Elastic Compliance Matrix: (Units=1/GPa)
#
#
# Indices 1 2 3 4 5 6 
#
# 1 0.009752 -0.003552 -0.000793 0.000000 0.000000 0.000000
# 2 -0.003552 0.006285 -0.000079 0.000000 0.000000 0.000000
# 3 -0.000793 -0.000079 0.013905 0.000000 0.000000 0.000000
# 4 0.000000 0.000000 0.000000 0.026325 0.000000 0.000000
# 5 0.000000 0.000000 0.000000 0.000000 0.058868 0.000000
# 6 0.000000 0.000000 0.000000 0.000000 0.000000 0.067240
#
#
# Mechanical properties :
#
#
# Convention : Reuss Voigt Hill
#
# Bulk Modulus (GPa) = 47.41276 64.07013 55.74144
# Shear Modulus (GPa) = 25.22005 35.06211 30.14108
#
# Velocity S-wave (km/s) = 3.37327 3.97738 3.68772
# Velocity P-wave (km/s) = 6.04682 7.07110 6.57892
#
# Compressibility (1/GPa) = 0.02109137
#
# Stress axis : x y z
#
# Youngs Moduli (GPa) = 102.54747 159.10843 71.91860
#
# Poissons Ratio (x) = 0.56522 0.05705
# Poissons Ratio (y) = 0.36429 0.00570
# Poissons Ratio (z) = 0.08134 0.01261
#
# Static dielectric constant tensor:
#      x y z
#    x 1.830350 0.000000 0.000000 
#    y 0.000000 1.799310 0.000000 
#    z 0.000000 0.000000 1.832190 
# 
# From -- ./inp_files/10594.got.cif
#   From: 2010.05.17/outbox.cif.g08.bks.cpg/sg71_6_cif.got.tgz:10594.got - 2010.06.03 16:22:01.
