data_PCOD9521223
_publ_section_title
;
Structure prediction by ZEFSAII (Michael W. Deem and Ramdas Pophale) SiO2 
 PCOD9521223
Probable space group: I M M M
;
_chemical_formula_sum "Si O2"
_cell_formula_units_Z 80
_cell_length_a 18.622916
_cell_length_b 32.160165
_cell_length_c 7.552798
_cell_angle_alpha 90.000000
_cell_angle_beta 90.000000
_cell_angle_gamma 90.000000
_cell_volume 4523.491955
_symmetry_space_group_name_H-M "I M M M"
_symmetry_group_IT_number 71
_symmetry_cell_setting 'orthorhombic'
loop_
_space_group_symop_operation_xyz
x,y,z
-x,-y,z
x,-y,-z
-x,y,-z
-x,-y,-z
x,y,-z
-x,y,z
x,-y,z
1/2+x,1/2+y,1/2+z
1/2-x,1/2-y,1/2+z
1/2+x,1/2-y,1/2-z
1/2-x,1/2+y,1/2-z
1/2-x,1/2-y,1/2-z
1/2+x,1/2+y,1/2-z
1/2-x,1/2+y,1/2+z
1/2+x,1/2-y,1/2+z
loop_
_atom_site_type_symbol
_atom_site_label
_atom_site_fract_x
_atom_site_fract_y
_atom_site_fract_z
Si Si1 0.645203 0.839004 0.788715
Si Si2 0.724013 0.950674 0.500000
Si Si3 0.917296 0.840627 0.285713
Si Si4 0.417152 0.752584 0.785133
Si Si5 0.281967 0.607129 0.299042
Si Si6 0.081140 0.398098 0.000000
O O1 0.631424 0.791479 0.732685
O O2 0.725696 0.855589 0.756970
O O3 0.595637 0.869009 0.671219
O O4 0.630268 0.842334 0.000000
O O5 0.763501 0.930019 0.332320
O O6 0.642349 0.933344 0.500000
O O7 0.726362 0.000000 0.500000
O O8 0.915141 0.841104 0.500000
O O9 0.896834 0.793785 0.225838
O O10 0.861114 0.874335 0.220353
O O11 0.000000 0.847862 0.232962
O O12 0.500000 0.760337 0.731618
O O13 0.416679 0.751427 0.000000
O O14 0.268679 0.594253 0.500000
O O15 0.000000 0.413671 0.000000
#
# Coordination Sequence:
#
# PCOD9521223 Si02
#       6
#    16   8  16  16  16   8
#     4   9  18  32  49  73 108 148 183 219 254 293
#     4  10  22  41  61  80 106 135 167 218 274 324
#     4   9  17  31  52  76 105 143 180 217 262 310
#     4   8  14  26  45  69 102 146 187 217 250 294
#     4  10  20  35  56  80 104 135 176 215 266 324
#     4  10  20  33  54  83 109 140 180 215 256 310
#
# _framework density 17.685451
#
# number of rings (size 3 to 8) (size 9 to 14) (size 15 to 20)
#    0.000    2.800    1.000    1.800    0.000    3.000 
#    1.800    0.000    0.000    1.200    0.000    7.000 
#    0.000    0.000    0.000    0.000    0.000    0.000 
#
# Total GULP energy -223056.584984 kJ/mol
# GULP energy per Si atom -5576.414625 kJ/mol
# Density = 1.764520 g / cm^3
# Si number density = 17.685451 Si / 1000 Ang^3
#
#
#
# Elastic Constant Matrix: (Units=GPa)
#
#
# Indices 1 2 3 4 5 6 
#
# 1 85.6025 71.8085 33.1442 -0.0013 -0.0040 -0.0007
# 2 71.8085 124.4117 38.1644 -0.0017 0.0053 0.0005
# 3 33.1442 38.1644 63.2510 -0.0573 0.0313 0.0020
# 4 -0.0013 -0.0017 -0.0573 10.1973 0.0096 0.0007
# 5 -0.0040 0.0053 0.0313 0.0096 1.3829 -0.0052
# 6 -0.0007 0.0005 0.0020 0.0007 -0.0052 7.5445
#
#
#
# Elastic Compliance Matrix: (Units=1/GPa)
#
#
# Indices 1 2 3 4 5 6 
#
# 1 0.023947 -0.012238 -0.005165 -0.000028 0.000233 0.000004
# 2 -0.012238 0.016117 -0.003312 -0.000017 -0.000022 -0.000001
# 3 -0.005165 -0.003312 0.020515 0.000115 -0.000467 -0.000006
# 4 -0.000028 -0.000017 0.000115 0.098066 -0.000683 -0.000010
# 5 0.000233 -0.000022 -0.000467 -0.000683 0.723131 0.000497
# 6 0.000004 -0.000001 -0.000006 -0.000010 0.000497 0.132547
#
#
# Mechanical properties :
#
#
# Convention : Reuss Voigt Hill
#
# Bulk Modulus (GPa) = 52.21787 62.16662 57.19224
# Shear Modulus (GPa) = 4.70749 12.50149 8.60449
#
# Velocity S-wave (km/s) = 1.63327 2.66161 2.20813
# Velocity P-wave (km/s) = 5.75732 6.68379 6.23778
#
# Compressibility (1/GPa) = 0.01915053
#
# Stress axis : x y z
#
# Youngs Moduli (GPa) = 41.75825 62.04527 48.74411
#
# Poissons Ratio (x) = 0.75929 0.25176
# Poissons Ratio (y) = 0.51102 0.16145
# Poissons Ratio (z) = 0.21567 0.20550
#
# Static dielectric constant tensor:
#      x y z
#    x 1.599820 0.000000 0.000000 
#    y 0.000000 1.564100 0.000000 
#    z 0.000000 0.000000 1.644850 
# 
# From -- ./inp_files/8655.got.cif
#   From: 2010.05.17/outbox.cif.g08.bks.cpg/sg71_5_cif.got.tgz:8655.got - 2010.06.03 16:22:01.
