data_PCOD9521783
_publ_section_title
;
Structure prediction by ZEFSAII (Michael W. Deem and Ramdas Pophale) SiO2 
 PCOD9521783
Probable space group: I M M M
;
_chemical_formula_sum "Si O2"
_cell_formula_units_Z 96
_cell_length_a 23.704324
_cell_length_b 24.727922
_cell_length_c 8.221859
_cell_angle_alpha 90.000000
_cell_angle_beta 90.000000
_cell_angle_gamma 90.000000
_cell_volume 4819.313977
_symmetry_space_group_name_H-M "I M M M"
_symmetry_group_IT_number 71
_symmetry_cell_setting 'orthorhombic'
loop_
_space_group_symop_operation_xyz
x,y,z
-x,-y,z
x,-y,-z
-x,y,-z
-x,-y,-z
x,y,-z
-x,y,z
x,-y,z
1/2+x,1/2+y,1/2+z
1/2-x,1/2-y,1/2+z
1/2+x,1/2-y,1/2-z
1/2-x,1/2+y,1/2-z
1/2-x,1/2-y,1/2-z
1/2+x,1/2+y,1/2-z
1/2-x,1/2+y,1/2+z
1/2+x,1/2-y,1/2+z
loop_
_atom_site_type_symbol
_atom_site_label
_atom_site_fract_x
_atom_site_fract_y
_atom_site_fract_z
Si Si1 0.231504 0.168205 0.186830
Si Si2 0.175146 0.060390 0.303110
Si Si3 0.934735 0.438644 0.801548
Si Si4 0.357914 0.160771 0.691075
Si Si5 0.437049 0.616691 0.197973
Si Si6 0.624050 0.273903 0.190790
O O1 0.211295 0.107287 0.222904
O O2 0.297074 0.168867 0.228338
O O3 0.189085 0.206709 0.286521
O O4 0.222622 0.182692 0.000000
O O5 0.180055 0.065569 0.500000
O O6 0.110178 0.072881 0.258722
O O7 0.191649 0.000000 0.257225
O O8 0.918462 0.500000 0.752439
O O9 0.893519 0.390620 0.746228
O O10 0.000000 0.429608 0.752326
O O11 0.934182 0.437799 0.000000
O O12 0.348441 0.152332 0.500000
O O13 0.388282 0.218066 0.719538
O O14 0.500000 0.606465 0.257323
O O15 0.413217 0.675282 0.249132
O O16 0.438525 0.617709 0.000000
O O17 0.613814 0.265926 0.000000
#
# Coordination Sequence:
#
# PCOD9521783 Si02
#       6
#    16  16  16  16  16  16
#     4  11  22  36  53  74 104 139 175 218 263 306
#     4   9  18  33  53  77 106 140 177 216 258 306
#     4   8  16  33  55  78 105 136 169 206 249 300
#     4  11  21  33  54  82 106 132 170 213 257 310
#     4   8  15  29  50  76 104 135 172 213 255 300
#     4  10  20  35  53  75 106 140 173 212 259 311
#
# _framework density 19.919847000000001
#
# number of rings (size 3 to 8) (size 9 to 14) (size 15 to 20)
#    0.000    2.500    0.000    4.500    0.000    2.000 
#    0.000    3.333    0.000   15.000    0.000    9.333 
#    0.000    0.000    0.000    0.000    0.000    0.000 
#
# Total GULP energy -267818.576476 kJ/mol
# GULP energy per Si atom -5579.553677 kJ/mol
# Density = 1.987451 g / cm^3
# Si number density = 19.919847 Si / 1000 Ang^3
#
#
#
# Elastic Constant Matrix: (Units=GPa)
#
#
# Indices 1 2 3 4 5 6 
#
# 1 16.0097 1.6627 -0.9974 0.0000 0.0000 0.0000
# 2 1.6627 94.0353 -2.1138 0.0000 0.0000 0.0000
# 3 -0.9974 -2.1138 15.1798 0.0000 0.0000 0.0000
# 4 0.0000 0.0000 0.0000 23.8874 0.0000 0.0000
# 5 0.0000 0.0000 0.0000 0.0000 0.8759 0.0000
# 6 0.0000 0.0000 0.0000 0.0000 0.0000 8.9217
#
#
#
# Elastic Compliance Matrix: (Units=1/GPa)
#
#
# Indices 1 2 3 4 5 6 
#
# 1 0.062817 -0.001021 0.003985 0.000000 0.000000 0.000000
# 2 -0.001021 0.010684 0.001421 0.000000 0.000000 0.000000
# 3 0.003985 0.001421 0.066337 0.000000 0.000000 0.000000
# 4 0.000000 0.000000 0.000000 0.041863 0.000000 0.000000
# 5 0.000000 0.000000 0.000000 0.000000 1.141651 0.000000
# 6 0.000000 0.000000 0.000000 0.000000 0.000000 0.112086
#
#
# Mechanical properties :
#
#
# Convention : Reuss Voigt Hill
#
# Bulk Modulus (GPa) = 6.72913 13.59195 10.16054
# Shear Modulus (GPa) = 3.38707 15.18190 9.28448
#
# Velocity S-wave (km/s) = 1.30539 2.76370 2.16126
# Velocity P-wave (km/s) = 2.37855 4.12580 3.36747
#
# Compressibility (1/GPa) = 0.14860758
#
# Stress axis : x y z
#
# Youngs Moduli (GPa) = 15.91937 93.59530 15.07461
#
# Poissons Ratio (x) = 0.09557 -0.06008
# Poissons Ratio (y) = 0.01626 -0.02142
# Poissons Ratio (z) = -0.06345 -0.13297
#
# Static dielectric constant tensor:
#      x y z
#    x 1.703160 0.000000 0.000000 
#    y 0.000000 1.698410 0.000000 
#    z 0.000000 0.000000 1.703470 
# 
# From -- ./inp_files/12800.got.cif
#   From: 2010.05.17/outbox.cif.g08.bks.cpg/sg71_7_cif.got.tgz:12800.got - 2010.06.03 16:22:01.
