data_PCOD9521068
_publ_section_title
;
Structure prediction by ZEFSAII (Michael W. Deem and Ramdas Pophale) SiO2 
 PCOD9521068
Probable space group: I M M M
;
_chemical_formula_sum "Si O2"
_cell_formula_units_Z 120
_cell_length_a 19.928218
_cell_length_b 18.692708
_cell_length_c 17.774130
_cell_angle_alpha 90.000000
_cell_angle_beta 90.000000
_cell_angle_gamma 90.000000
_cell_volume 6621.083114
_symmetry_space_group_name_H-M "I M M M"
_symmetry_group_IT_number 71
_symmetry_cell_setting 'orthorhombic'
loop_
_space_group_symop_operation_xyz
x,y,z
-x,-y,z
x,-y,-z
-x,y,-z
-x,-y,-z
x,y,-z
-x,y,z
x,-y,z
1/2+x,1/2+y,1/2+z
1/2-x,1/2-y,1/2+z
1/2+x,1/2-y,1/2-z
1/2-x,1/2+y,1/2-z
1/2-x,1/2-y,1/2-z
1/2+x,1/2+y,1/2-z
1/2-x,1/2+y,1/2+z
1/2+x,1/2-y,1/2+z
loop_
_atom_site_type_symbol
_atom_site_label
_atom_site_fract_x
_atom_site_fract_y
_atom_site_fract_z
Si Si1 0.290322 0.081944 0.270950
Si Si2 0.924740 0.221126 0.702167
Si Si3 0.080934 0.586342 0.500000
Si Si4 0.380116 0.079986 0.586120
Si Si5 0.072700 0.730160 0.873238
Si Si6 0.164874 0.331768 0.628259
Si Si7 0.138574 0.916828 0.763958
Si Si8 0.179945 0.843621 0.083739
O O1 0.321488 0.088309 0.353013
O O2 0.326558 0.129485 0.208768
O O3 0.211580 0.097090 0.272226
O O4 0.297870 0.000000 0.245426
O O5 0.920895 0.261143 0.783216
O O6 0.870895 0.256599 0.646634
O O7 0.910602 0.139095 0.724433
O O8 0.000000 0.230407 0.672475
O O9 0.090765 0.500000 0.500000
O O10 0.118197 0.622327 0.428143
O O11 0.000000 0.599300 0.500000
O O12 0.357063 0.083624 0.500000
O O13 0.425909 0.147967 0.602383
O O14 0.409741 0.000000 0.597188
O O15 0.134720 0.772518 0.908795
O O16 0.000000 0.761846 0.894548
O O17 0.241338 0.327317 0.598121
O O18 0.151256 0.895129 0.851089
O O19 0.120625 0.000000 0.757069
O O20 0.173201 0.873671 0.000000
#
# Coordination Sequence:
#
# PCOD9521068 Si02
#       8
#    16  16   8  16  16  16  16  16
#     4   9  18  33  54  81 110 146 184 228 285 341
#     4  10  21  36  58  82 110 149 193 239 293 349
#     4  11  24  40  60  90 126 158 190 235 290 348
#     4  10  20  33  51  76 108 146 187 230 277 333
#     4  10  21  37  55  78 112 150 191 238 285 344
#     4  11  20  37  60  83 118 153 193 239 282 349
#     4   9  20  36  57  82 112 148 189 244 296 345
#     4  10  21  35  56  88 115 153 194 236 294 354
#
# _framework density 18.123923000000001
#
# number of rings (size 3 to 8) (size 9 to 14) (size 15 to 20)
#    0.000    2.067    2.000    1.200    1.867    4.000 
#    0.000    0.667    0.000    0.000    0.000    3.733 
#    0.000    1.600    0.000    0.000    0.000    0.000 
#
# Total GULP energy -334429.901897 kJ/mol
# GULP energy per Si atom -5573.831698 kJ/mol
# Density = 1.808267 g / cm^3
# Si number density = 18.123923 Si / 1000 Ang^3
#
#
#
# Elastic Constant Matrix: (Units=GPa)
#
#
# Indices 1 2 3 4 5 6 
#
# 1 79.8926 40.5713 21.9582 0.0000 0.0000 0.0000
# 2 40.5713 81.0532 31.2351 0.0000 0.0000 0.0000
# 3 21.9582 31.2351 49.6145 0.0000 0.0000 0.0000
# 4 0.0000 0.0000 0.0000 19.4867 0.0000 0.0000
# 5 0.0000 0.0000 0.0000 0.0000 9.6049 0.0000
# 6 0.0000 0.0000 0.0000 0.0000 0.0000 10.9501
#
#
#
# Elastic Compliance Matrix: (Units=1/GPa)
#
#
# Indices 1 2 3 4 5 6 
#
# 1 0.017088 -0.007445 -0.002875 0.000000 0.000000 0.000000
# 2 -0.007445 0.019533 -0.009002 0.000000 0.000000 0.000000
# 3 -0.002875 -0.009002 0.027095 0.000000 0.000000 0.000000
# 4 0.000000 0.000000 0.000000 0.051317 0.000000 0.000000
# 5 0.000000 0.000000 0.000000 0.000000 0.104114 0.000000
# 6 0.000000 0.000000 0.000000 0.000000 0.000000 0.091324
#
#
# Mechanical properties :
#
#
# Convention : Reuss Voigt Hill
#
# Bulk Modulus (GPa) = 39.88713 44.23215 42.05964
# Shear Modulus (GPa) = 13.98700 15.79471 14.89085
#
# Velocity S-wave (km/s) = 2.78104 2.95529 2.86949
# Velocity P-wave (km/s) = 5.68929 6.00861 5.85113
#
# Compressibility (1/GPa) = 0.02507075
#
# Stress axis : x y z
#
# Youngs Moduli (GPa) = 58.52053 51.19411 36.90656
#
# Poissons Ratio (x) = 0.38116 0.10612
# Poissons Ratio (y) = 0.43570 0.33224
# Poissons Ratio (z) = 0.16828 0.46087
#
# Static dielectric constant tensor:
#      x y z
#    x 1.642230 0.000000 0.000000 
#    y 0.000000 1.627780 0.000000 
#    z 0.000000 0.000000 1.616260 
# 
# From -- ./inp_files/47559.got.cif
#   From: 2010.05.17/outbox.cif.g08.bks.cpg/sg71_24_cif.got.tgz:47559.got - 2010.06.03 16:22:01.
