data_PCOD9521213
_publ_section_title
;
Structure prediction by ZEFSAII (Michael W. Deem and Ramdas Pophale) SiO2 
 PCOD9521213
Probable space group: I M M M
;
_chemical_formula_sum "Si O2"
_cell_formula_units_Z 112
_cell_length_a 25.070394
_cell_length_b 15.934525
_cell_length_c 14.116339
_cell_angle_alpha 90.000000
_cell_angle_beta 90.000000
_cell_angle_gamma 90.000000
_cell_volume 5639.263144
_symmetry_space_group_name_H-M "I M M M"
_symmetry_group_IT_number 71
_symmetry_cell_setting 'orthorhombic'
loop_
_space_group_symop_operation_xyz
x,y,z
-x,-y,z
x,-y,-z
-x,y,-z
-x,-y,-z
x,y,-z
-x,y,z
x,-y,z
1/2+x,1/2+y,1/2+z
1/2-x,1/2-y,1/2+z
1/2+x,1/2-y,1/2-z
1/2-x,1/2+y,1/2-z
1/2-x,1/2-y,1/2-z
1/2+x,1/2+y,1/2-z
1/2-x,1/2+y,1/2+z
1/2+x,1/2-y,1/2+z
loop_
_atom_site_type_symbol
_atom_site_label
_atom_site_fract_x
_atom_site_fract_y
_atom_site_fract_z
Si Si1 0.798549 0.130298 0.608456
Si Si2 0.229577 0.323385 0.390460
Si Si3 0.153301 0.243774 0.112565
Si Si4 0.078004 0.906655 0.611242
Si Si5 0.805896 0.590575 0.210048
Si Si6 0.560231 0.251085 0.757046
Si Si7 0.435060 0.903061 0.892015
O O1 0.781827 0.114349 0.500000
O O2 0.795771 0.230779 0.622116
O O3 0.857943 0.098346 0.620295
O O4 0.755381 0.090296 0.675799
O O5 0.225181 0.347724 0.500000
O O6 0.292793 0.310310 0.367696
O O7 0.199308 0.383796 0.319360
O O8 0.168057 0.337584 0.146323
O O9 0.101919 0.223265 0.175596
O O10 0.144004 0.240087 0.000000
O O11 0.065223 0.896815 0.500000
O O12 0.057548 0.828597 0.670464
O O13 0.060904 0.000000 0.641237
O O14 0.830762 0.500000 0.196316
O O15 0.500000 0.234523 0.721280
O O16 0.579338 0.168411 0.815720
O O17 0.500000 0.901916 0.894034
O O18 0.419646 0.000000 0.871084
O O19 0.417076 0.882338 0.000000
#
# Coordination Sequence:
#
# PCOD9521213 Si02
#       7
#    16  16  16  16  16  16  16
#     4   9  17  31  52  76 105 143 181 213 253 316
#     4   9  18  34  55  78 108 143 174 209 260 326
#     4  10  22  39  56  76 105 143 188 233 274 317
#     4  10  20  33  53  85 121 149 175 216 273 338
#     4  11  20  31  54  84 112 140 170 212 270 334
#     4  11  22  36  56  78 104 145 195 241 282 323
#     4   8  15  30  52  76 100 128 169 223 280 336
#
# _framework density 19.860749999999999
#
# number of rings (size 3 to 8) (size 9 to 14) (size 15 to 20)
#    0.000    2.286    0.000    6.000    0.000    4.000 
#    0.000    1.429    0.000    1.286    0.000    4.000 
#    0.000    0.000    0.000    0.000    0.000    0.000 
#
# Total GULP energy -312771.774658 kJ/mol
# GULP energy per Si atom -5585.210262 kJ/mol
# Density = 1.981555 g / cm^3
# Si number density = 19.860750 Si / 1000 Ang^3
#
#
#
# Elastic Constant Matrix: (Units=GPa)
#
#
# Indices 1 2 3 4 5 6 
#
# 1 81.8344 11.1601 24.3098 0.0000 0.0000 0.0000
# 2 11.1601 63.2100 26.2166 0.0000 0.0000 0.0000
# 3 24.3098 26.2166 70.4743 0.0000 0.0000 0.0000
# 4 0.0000 0.0000 0.0000 -3.4854 0.0000 0.0000
# 5 0.0000 0.0000 0.0000 0.0000 19.1067 0.0000
# 6 0.0000 0.0000 0.0000 0.0000 0.0000 -2.1089
#
#
#
# Elastic Compliance Matrix: (Units=1/GPa)
#
#
# Indices 1 2 3 4 5 6 
#
# 1 0.013630 -0.000540 -0.004501 0.000000 0.000000 0.000000
# 2 -0.000540 0.018728 -0.006781 0.000000 0.000000 0.000000
# 3 -0.004501 -0.006781 0.018265 0.000000 0.000000 0.000000
# 4 0.000000 0.000000 0.000000 -0.286911 0.000000 0.000000
# 5 0.000000 0.000000 0.000000 0.000000 0.052338 0.000000
# 6 0.000000 0.000000 0.000000 0.000000 0.000000 -0.474176
#
#
# Mechanical properties :
#
#
# Convention : Reuss Voigt Hill
#
# Bulk Modulus (GPa) = 37.06422 37.65465 37.35944
# Shear Modulus (GPa) = -7.99374 12.95794 2.48210
#
# Velocity S-wave (km/s) = -2.00839 2.55706 1.11914
# Velocity P-wave (km/s) = 3.65026 5.26484 4.53006
#
# Compressibility (1/GPa) = 0.02698020
#
# Stress axis : x y z
#
# Youngs Moduli (GPa) = 73.36504 53.39632 54.75077
#
# Poissons Ratio (x) = 0.02882 0.24643
# Poissons Ratio (y) = 0.03960 0.37125
# Poissons Ratio (z) = 0.33022 0.36206
#
# Static dielectric constant tensor:
#      x y z
#    x 1.748420 0.000000 0.000000 
#    y 0.000000 1.707250 0.000000 
#    z 0.000000 0.000000 1.683660 
# 
# From -- ./inp_files/34855.got.cif
#   From: 2010.05.17/outbox.cif.g08.bks.cpg/sg71_18_cif.got.tgz:34855.got - 2010.06.03 16:22:01.
