data_PCOD9521524
_publ_section_title
;
Structure prediction by ZEFSAII (Michael W. Deem and Ramdas Pophale) SiO2 
 PCOD9521524
Probable space group: I M M M
;
_chemical_formula_sum "Si O2"
_cell_formula_units_Z 80
_cell_length_a 26.788337
_cell_length_b 9.340974
_cell_length_c 15.157070
_cell_angle_alpha 90.000000
_cell_angle_beta 90.000000
_cell_angle_gamma 90.000000
_cell_volume 3792.740885
_symmetry_space_group_name_H-M "I M M M"
_symmetry_group_IT_number 71
_symmetry_cell_setting 'orthorhombic'
loop_
_space_group_symop_operation_xyz
x,y,z
-x,-y,z
x,-y,-z
-x,y,-z
-x,-y,-z
x,y,-z
-x,y,z
x,-y,z
1/2+x,1/2+y,1/2+z
1/2-x,1/2-y,1/2+z
1/2+x,1/2-y,1/2-z
1/2-x,1/2+y,1/2-z
1/2-x,1/2-y,1/2-z
1/2+x,1/2+y,1/2-z
1/2-x,1/2+y,1/2+z
1/2+x,1/2-y,1/2+z
loop_
_atom_site_type_symbol
_atom_site_label
_atom_site_fract_x
_atom_site_fract_y
_atom_site_fract_z
Si Si1 0.300732 0.337748 0.853449
Si Si2 0.107347 0.662218 0.894137
Si Si3 0.000000 0.834568 0.392150
Si Si4 0.000000 0.674575 0.898085
Si Si5 0.598985 0.164254 0.893447
Si Si6 0.205902 0.838622 0.857659
O O1 0.305630 0.500000 0.887574
O O2 0.350828 0.247505 0.868108
O O3 0.252434 0.255541 0.890333
O O4 0.291729 0.346871 0.748520
O O5 0.117320 0.500000 0.861962
O O6 0.053597 0.714947 0.858393
O O7 0.153618 0.763350 0.876968
O O8 0.101501 0.652990 0.000000
O O9 0.049716 0.749988 0.364334
O O10 0.000000 0.835884 0.500000
O O11 0.000000 0.000000 0.363236
O O12 0.000000 0.500000 0.899681
O O13 0.000000 0.725372 0.000000
O O14 0.599026 0.000000 0.861408
O O15 0.597436 0.159674 0.000000
O O16 0.208246 0.000000 0.892293
#
# Coordination Sequence:
#
# PCOD9521524 Si02
#       6
#    16  16   8   8  16  16
#     4  10  21  37  55  73  97 134 175 211 253 307
#     4   9  17  31  53  78 102 132 170 208 246 294
#     4   9  17  31  52  77 106 139 171 205 250 303
#     4   7  12  26  48  73 100 129 163 201 238 281
#     4  10  20  34  54  80 107 134 168 212 258 303
#     4  10  21  36  53  74 101 133 168 210 259 305
#
# _framework density 21.092925000000001
#
# number of rings (size 3 to 8) (size 9 to 14) (size 15 to 20)
#    0.000    2.600    0.000    3.300    0.000    6.000 
#    0.000    1.500    0.000    6.600    0.000    0.000 
#    0.000    0.000    0.000    0.000    0.000    0.000 
#
# Total GULP energy -223290.126459 kJ/mol
# GULP energy per Si atom -5582.253161 kJ/mol
# Density = 2.104492 g / cm^3
# Si number density = 21.092925 Si / 1000 Ang^3
#
#
#
# Elastic Constant Matrix: (Units=GPa)
#
#
# Indices 1 2 3 4 5 6 
#
# 1 235.5558 136.1962 -0.8137 0.0000 0.0000 0.0000
# 2 136.1962 202.6805 9.1217 0.0000 0.0000 0.0000
# 3 -0.8137 9.1217 43.1358 0.0000 0.0000 0.0000
# 4 0.0000 0.0000 0.0000 17.1673 0.0000 0.0000
# 5 0.0000 0.0000 0.0000 0.0000 32.3872 0.0000
# 6 0.0000 0.0000 0.0000 0.0000 0.0000 18.3433
#
#
#
# Elastic Compliance Matrix: (Units=1/GPa)
#
#
# Indices 1 2 3 4 5 6 
#
# 1 0.006998 -0.004753 0.001137 0.000000 0.000000 0.000000
# 2 -0.004753 0.008210 -0.001826 0.000000 0.000000 0.000000
# 3 0.001137 -0.001826 0.023590 0.000000 0.000000 0.000000
# 4 0.000000 0.000000 0.000000 0.058250 0.000000 0.000000
# 5 0.000000 0.000000 0.000000 0.000000 0.030876 0.000000
# 6 0.000000 0.000000 0.000000 0.000000 0.000000 0.054516
#
#
# Mechanical properties :
#
#
# Convention : Reuss Voigt Hill
#
# Bulk Modulus (GPa) = 35.82450 85.59784 60.71117
# Shear Modulus (GPa) = 24.67562 36.03740 30.35651
#
# Velocity S-wave (km/s) = 3.42402 4.13789 3.79777
# Velocity P-wave (km/s) = 5.71427 7.96862 6.93368
#
# Compressibility (1/GPa) = 0.02791386
#
# Stress axis : x y z
#
# Youngs Moduli (GPa) = 142.90702 121.79992 42.39053
#
# Poissons Ratio (x) = 0.57896 -0.04821
# Poissons Ratio (y) = 0.67929 0.07740
# Poissons Ratio (z) = -0.16251 0.22239
#
# Static dielectric constant tensor:
#      x y z
#    x 1.740650 0.000000 0.000000 
#    y 0.000000 1.735230 0.000000 
#    z 0.000000 0.000000 1.808200 
# 
# From -- ./inp_files/10242.got.cif
#   From: 2010.05.17/outbox.cif.g08.bks.cpg/sg71_6_cif.got.tgz:10242.got - 2010.06.03 16:22:01.
