data_PCOD9521042
_publ_section_title
;
Structure prediction by ZEFSAII (Michael W. Deem and Ramdas Pophale) SiO2 
 PCOD9521042
Probable space group: I M M M
;
_chemical_formula_sum "Si O2"
_cell_formula_units_Z 88
_cell_length_a 13.587891
_cell_length_b 11.662987
_cell_length_c 27.169171
_cell_angle_alpha 90.000000
_cell_angle_beta 90.000000
_cell_angle_gamma 90.000000
_cell_volume 4305.645136
_symmetry_space_group_name_H-M "I M M M"
_symmetry_group_IT_number 71
_symmetry_cell_setting 'orthorhombic'
loop_
_space_group_symop_operation_xyz
x,y,z
-x,-y,z
x,-y,-z
-x,y,-z
-x,-y,-z
x,y,-z
-x,y,z
x,-y,z
1/2+x,1/2+y,1/2+z
1/2-x,1/2-y,1/2+z
1/2+x,1/2-y,1/2-z
1/2-x,1/2+y,1/2-z
1/2-x,1/2-y,1/2-z
1/2+x,1/2+y,1/2-z
1/2-x,1/2+y,1/2+z
1/2+x,1/2-y,1/2+z
loop_
_atom_site_type_symbol
_atom_site_label
_atom_site_fract_x
_atom_site_fract_y
_atom_site_fract_z
Si Si1 0.119433 0.132046 0.500000
Si Si2 0.881204 0.371937 0.941801
Si Si3 0.613370 0.327740 0.713261
Si Si4 0.746891 0.872236 0.696167
Si Si5 0.882933 0.123991 0.099754
Si Si6 0.386316 0.359867 0.891404
O O1 0.145745 0.179262 0.446210
O O2 0.000000 0.131014 0.500000
O O3 0.151986 0.000000 0.500000
O O4 0.845461 0.500000 0.925078
O O5 0.849435 0.250063 0.918488
O O6 0.000000 0.375322 0.935706
O O7 0.860253 0.365547 0.000000
O O8 0.500000 0.341898 0.727586
O O9 0.648660 0.197453 0.706531
O O10 0.685497 0.373304 0.755155
O O11 0.627267 0.377554 0.658841
O O12 0.815178 0.822370 0.652536
O O13 0.720656 0.000000 0.682502
O O14 0.000000 0.122713 0.088651
O O15 0.842815 0.000000 0.080869
O O16 0.500000 0.324705 0.882917
O O17 0.387405 0.500000 0.891723
#
# Coordination Sequence:
#
# PCOD9521042 Si02
#       6
#     8  16  16  16  16  16
#     4   7  10  18  36  66  99 125 154 199 257 317
#     4   8  14  25  42  66  95 124 158 208 268 320
#     4  10  21  35  50  71 101 135 176 229 281 330
#     4  10  20  33  51  74  99 134 179 223 276 340
#     4   9  17  29  47  69  92 126 173 220 265 318
#     4   8  13  23  43  71 100 129 164 211 267 329
#
# _framework density 20.438285
#
# number of rings (size 3 to 8) (size 9 to 14) (size 15 to 20)
#    0.000    3.182    0.000    2.727    0.000    3.273 
#    0.000    3.636    2.000    0.000    0.000    0.000 
#    0.000    0.000    0.000    0.000    0.000   72.091 
#
# Total GULP energy -245131.976906 kJ/mol
# GULP energy per Si atom -5571.181293 kJ/mol
# Density = 2.039177 g / cm^3
# Si number density = 20.438285 Si / 1000 Ang^3
#
#
#
# Elastic Constant Matrix: (Units=GPa)
#
#
# Indices 1 2 3 4 5 6 
#
# 1 41.2019 25.1388 -3.5814 0.0000 0.0000 0.0000
# 2 25.1388 133.3426 38.2939 0.0000 0.0000 0.0000
# 3 -3.5814 38.2939 53.9592 0.0000 0.0000 0.0000
# 4 0.0000 0.0000 0.0000 810.2889 0.0000 0.0000
# 5 0.0000 0.0000 0.0000 0.0000 31.8580 0.0000
# 6 0.0000 0.0000 0.0000 0.0000 0.0000 -19.1317
#
#
#
# Elastic Compliance Matrix: (Units=1/GPa)
#
#
# Indices 1 2 3 4 5 6 
#
# 1 0.029632 -0.007726 0.007450 0.000000 0.000000 0.000000
# 2 -0.007726 0.011434 -0.008627 0.000000 0.000000 0.000000
# 3 0.007450 -0.008627 0.025149 0.000000 0.000000 0.000000
# 4 0.000000 0.000000 0.000000 0.001234 0.000000 0.000000
# 5 0.000000 0.000000 0.000000 0.000000 0.031389 0.000000
# 6 0.000000 0.000000 0.000000 0.000000 0.000000 -0.052269
#
#
# Mechanical properties :
#
#
# Convention : Reuss Voigt Hill
#
# Bulk Modulus (GPa) = 20.65747 38.68961 29.67354
# Shear Modulus (GPa) = 62.10268 175.84653 118.97460
#
# Velocity S-wave (km/s) = 5.51828 9.28572 7.63793
# Velocity P-wave (km/s) = 7.12258 11.57312 9.60907
#
# Compressibility (1/GPa) = 0.04840864
#
# Stress axis : x y z
#
# Youngs Moduli (GPa) = 33.74717 87.46174 39.76238
#
# Poissons Ratio (x) = 0.67572 -0.29622
# Poissons Ratio (y) = 0.26073 0.34303
# Poissons Ratio (z) = -0.25141 0.75453
#
# Static dielectric constant tensor:
#      x y z
#    x 1.737890 0.000000 0.000000 
#    y 0.000000 1.947870 0.000000 
#    z 0.000000 0.000000 1.760740 
# 
# From -- ./inp_files/65323.got.cif
#   From: 2010.05.17/outbox.cif.g08.bks.cpg/sg71_33_cif.got.tgz:65323.got - 2010.06.03 16:22:01.
