data_PCOD9521965
_publ_section_title
;
Structure prediction by ZEFSAII (Michael W. Deem and Ramdas Pophale) SiO2 
 PCOD9521965
Probable space group: I M M M
;
_chemical_formula_sum "Si O2"
_cell_formula_units_Z 108
_cell_length_a 12.678836
_cell_length_b 24.955622
_cell_length_c 19.750806
_cell_angle_alpha 90.000000
_cell_angle_beta 90.000000
_cell_angle_gamma 90.000000
_cell_volume 6249.317738
_symmetry_space_group_name_H-M "I M M M"
_symmetry_group_IT_number 71
_symmetry_cell_setting 'orthorhombic'
loop_
_space_group_symop_operation_xyz
x,y,z
-x,-y,z
x,-y,-z
-x,y,-z
-x,-y,-z
x,y,-z
-x,y,z
x,-y,z
1/2+x,1/2+y,1/2+z
1/2-x,1/2-y,1/2+z
1/2+x,1/2-y,1/2-z
1/2-x,1/2+y,1/2-z
1/2-x,1/2-y,1/2-z
1/2+x,1/2+y,1/2-z
1/2-x,1/2+y,1/2+z
1/2+x,1/2-y,1/2+z
loop_
_atom_site_type_symbol
_atom_site_label
_atom_site_fract_x
_atom_site_fract_y
_atom_site_fract_z
Si Si1 0.874602 0.909105 0.885600
Si Si2 0.380073 0.719654 0.920017
Si Si3 0.769596 0.800783 0.841447
Si Si4 0.172040 0.000000 0.000000
Si Si5 0.881006 0.699764 0.783702
Si Si6 0.881536 0.937206 0.271728
Si Si7 0.376399 0.935946 0.500000
Si Si8 0.265095 0.877379 0.376654
O O1 0.817433 0.851197 0.881339
O O2 0.833806 0.952323 0.940216
O O3 0.863140 0.930260 0.808488
O O4 0.000000 0.902597 0.898990
O O5 0.500000 0.719799 0.893408
O O6 0.309136 0.765504 0.886633
O O7 0.321901 0.663778 0.905458
O O8 0.383449 0.728016 0.000000
O O9 0.856358 0.759490 0.811484
O O10 0.700589 0.815442 0.775520
O O11 0.856470 0.658995 0.844059
O O12 0.000000 0.696151 0.759632
O O13 0.794189 0.909850 0.317918
O O14 0.000000 0.915323 0.285624
O O15 0.882207 0.000000 0.287000
O O16 0.500000 0.919476 0.500000
O O17 0.315625 0.913413 0.434635
O O18 0.373005 0.000000 0.500000
#
# Coordination Sequence:
#
# PCOD9521965 Si02
#       8
#    16  16  16   4  16  16   8  16
#     4  11  21  37  58  85 120 155 191 238 293 348
#     4  10  21  37  57  82 114 150 189 233 289 356
#     4  10  21  35  56  85 115 150 188 237 290 348
#     4  12  25  40  62  90 121 158 199 240 296 366
#     4  10  20  35  56  85 114 145 190 237 287 348
#     4  10  20  35  57  86 117 149 191 240 288 338
#     4  11  24  40  58  82 115 156 195 237 283 335
#     4  11  20  38  59  83 114 153 190 236 290 341
#
# _framework density 17.281886
#
# number of rings (size 3 to 8) (size 9 to 14) (size 15 to 20)
#    0.000    1.556    2.963    2.889    1.037    0.000 
#    0.000    0.000    0.000    1.778    0.000    3.630 
#    0.000    0.000    0.000    0.000    0.000    0.000 
#
# Total GULP energy -300681.134800 kJ/mol
# GULP energy per Si atom -5568.169163 kJ/mol
# Density = 1.724255 g / cm^3
# Si number density = 17.281886 Si / 1000 Ang^3
#
#
#
# Elastic Constant Matrix: (Units=GPa)
#
#
# Indices 1 2 3 4 5 6 
#
# 1 71.8986 45.2718 34.0293 0.0000 0.0000 0.0000
# 2 45.2718 100.1612 45.5078 0.0000 0.0000 0.0000
# 3 34.0293 45.5078 95.8150 0.0000 0.0000 0.0000
# 4 0.0000 0.0000 0.0000 34.6525 0.0000 0.0000
# 5 0.0000 0.0000 0.0000 0.0000 -37.0338 0.0000
# 6 0.0000 0.0000 0.0000 0.0000 0.0000 9.6636
#
#
#
# Elastic Compliance Matrix: (Units=1/GPa)
#
#
# Indices 1 2 3 4 5 6 
#
# 1 0.020398 -0.007559 -0.003654 0.000000 0.000000 0.000000
# 2 -0.007559 0.015533 -0.004693 0.000000 0.000000 0.000000
# 3 -0.003654 -0.004693 0.013963 0.000000 0.000000 0.000000
# 4 0.000000 0.000000 0.000000 0.028858 0.000000 0.000000
# 5 0.000000 0.000000 0.000000 0.000000 -0.027002 0.000000
# 6 0.000000 0.000000 0.000000 0.000000 0.000000 0.103481
#
#
# Mechanical properties :
#
#
# Convention : Reuss Voigt Hill
#
# Bulk Modulus (GPa) = 55.30424 57.49919 56.40172
# Shear Modulus (GPa) = 25.89737 10.99418 18.44578
#
# Velocity S-wave (km/s) = 3.87528 2.52497 3.27057
# Velocity P-wave (km/s) = 7.21765 6.46871 6.85342
#
# Compressibility (1/GPa) = 0.01808179
#
# Stress axis : x y z
#
# Youngs Moduli (GPa) = 49.02499 64.38016 71.61630
#
# Poissons Ratio (x) = 0.48667 0.26169
# Poissons Ratio (y) = 0.37060 0.33607
# Poissons Ratio (z) = 0.17914 0.30211
#
# Static dielectric constant tensor:
#      x y z
#    x 1.576130 0.000000 0.000000 
#    y 0.000000 1.589290 0.000000 
#    z 0.000000 0.000000 1.586320 
# 
# From -- ./inp_files/52234.got.cif
#   From: 2010.05.17/outbox.cif.g08.bks.cpg/sg71_27_cif.got.tgz:52234.got - 2010.06.03 16:22:01.
