data_PCOD9521199
_publ_section_title
;
Structure prediction by ZEFSAII (Michael W. Deem and Ramdas Pophale) SiO2 
 PCOD9521199
Probable space group: I M M M
;
_chemical_formula_sum "Si O2"
_cell_formula_units_Z 88
_cell_length_a 19.783237
_cell_length_b 28.083392
_cell_length_c 8.140235
_cell_angle_alpha 90.000000
_cell_angle_beta 90.000000
_cell_angle_gamma 90.000000
_cell_volume 4522.555015
_symmetry_space_group_name_H-M "I M M M"
_symmetry_group_IT_number 71
_symmetry_cell_setting 'orthorhombic'
loop_
_space_group_symop_operation_xyz
x,y,z
-x,-y,z
x,-y,-z
-x,y,-z
-x,-y,-z
x,y,-z
-x,y,z
x,-y,z
1/2+x,1/2+y,1/2+z
1/2-x,1/2-y,1/2+z
1/2+x,1/2-y,1/2-z
1/2-x,1/2+y,1/2-z
1/2-x,1/2-y,1/2-z
1/2+x,1/2+y,1/2-z
1/2-x,1/2+y,1/2+z
1/2+x,1/2-y,1/2+z
loop_
_atom_site_type_symbol
_atom_site_label
_atom_site_fract_x
_atom_site_fract_y
_atom_site_fract_z
Si Si1 0.190652 0.182669 0.799006
Si Si2 0.157395 0.341017 0.305787
Si Si3 0.427587 0.555865 0.500000
Si Si4 0.424539 0.756742 0.305333
Si Si5 0.841164 0.920704 0.315895
Si Si6 0.813978 0.552601 0.805527
O O1 0.270680 0.183871 0.757661
O O2 0.138414 0.223922 0.748192
O O3 0.167541 0.135614 0.704740
O O4 0.187096 0.176577 0.000000
O O5 0.151173 0.335947 0.500000
O O6 0.097761 0.311035 0.224686
O O7 0.159137 0.397435 0.266136
O O8 0.435749 0.500000 0.500000
O O9 0.500000 0.581175 0.500000
O O10 0.388760 0.566386 0.333339
O O11 0.428073 0.748566 0.500000
O O12 0.500000 0.746870 0.237130
O O13 0.863939 0.933287 0.500000
O O14 0.767287 0.943481 0.288181
O O15 0.835247 0.500000 0.741262
O O16 0.828672 0.553488 0.000000
#
# Coordination Sequence:
#
# PCOD9521199 Si02
#       6
#    16  16   8  16  16  16
#     4   9  18  35  56  83 112 144 188 233 284 341
#     4  10  20  33  53  81 115 148 182 231 285 339
#     4  11  24  38  52  72 106 152 191 233 288 342
#     4  10  21  36  55  78 109 152 194 232 278 336
#     4  10  20  36  57  82 110 142 187 238 290 337
#     4   9  18  33  56  84 110 139 179 230 283 337
#
# _framework density 19.458027999999999
#
# number of rings (size 3 to 8) (size 9 to 14) (size 15 to 20)
#    0.000    2.273    0.909    1.636    1.273    4.364 
#    0.000    0.909    0.000    0.545    0.000    3.818 
#    0.000    0.000    0.000    0.000    0.000    0.000 
#
# Total GULP energy -245126.847865 kJ/mol
# GULP energy per Si atom -5571.064724 kJ/mol
# Density = 1.941374 g / cm^3
# Si number density = 19.458028 Si / 1000 Ang^3
#
#
#
# Elastic Constant Matrix: (Units=GPa)
#
#
# Indices 1 2 3 4 5 6 
#
# 1 41.3181 31.2755 9.5699 0.0000 0.0000 0.0000
# 2 31.2755 99.4412 -11.6342 0.0000 0.0000 0.0000
# 3 9.5699 -11.6342 29.6795 0.0000 0.0000 0.0000
# 4 0.0000 0.0000 0.0000 -14.1498 0.0000 0.0000
# 5 0.0000 0.0000 0.0000 0.0000 14.6967 0.0000
# 6 0.0000 0.0000 0.0000 0.0000 0.0000 7.6910
#
#
#
# Elastic Compliance Matrix: (Units=1/GPa)
#
#
# Indices 1 2 3 4 5 6 
#
# 1 0.039523 -0.014591 -0.018463 0.000000 0.000000 0.000000
# 2 -0.014591 0.015926 0.010947 0.000000 0.000000 0.000000
# 3 -0.018463 0.010947 0.043938 0.000000 0.000000 0.000000
# 4 0.000000 0.000000 0.000000 -0.070672 0.000000 0.000000
# 5 0.000000 0.000000 0.000000 0.000000 0.068042 0.000000
# 6 0.000000 0.000000 0.000000 0.000000 0.000000 0.130022
#
#
# Mechanical properties :
#
#
# Convention : Reuss Voigt Hill
#
# Bulk Modulus (GPa) = 18.12447 25.42904 21.77676
# Shear Modulus (GPa) = 17.27811 11.06276 14.17044
#
# Velocity S-wave (km/s) = 2.98311 2.38700 2.70155
# Velocity P-wave (km/s) = 4.60436 4.54908 4.57680
#
# Compressibility (1/GPa) = 0.05517402
#
# Stress axis : x y z
#
# Youngs Moduli (GPa) = 25.30161 62.79062 22.75938
#
# Poissons Ratio (x) = 0.91616 0.42021
# Poissons Ratio (y) = 0.36917 -0.24916
# Poissons Ratio (z) = 0.46715 -0.68740
#
# Static dielectric constant tensor:
#      x y z
#    x 1.808450 0.000000 0.000000 
#    y 0.000000 1.713070 0.000000 
#    z 0.000000 0.000000 1.644710 
# 
# From -- ./inp_files/11342.got.cif
#   From: 2010.05.17/outbox.cif.g08.bks.cpg/sg71_6_cif.got.tgz:11342.got - 2010.06.03 16:22:01.
