data_PCOD9521376
_publ_section_title
;
Structure prediction by ZEFSAII (Michael W. Deem and Ramdas Pophale) SiO2 
 PCOD9521376
Probable space group: I M M M
;
_chemical_formula_sum "Si O2"
_cell_formula_units_Z 120
_cell_length_a 23.971628
_cell_length_b 20.504291
_cell_length_c 13.160895
_cell_angle_alpha 90.000000
_cell_angle_beta 90.000000
_cell_angle_gamma 90.000000
_cell_volume 6468.859381
_symmetry_space_group_name_H-M "I M M M"
_symmetry_group_IT_number 71
_symmetry_cell_setting 'orthorhombic'
loop_
_space_group_symop_operation_xyz
x,y,z
-x,-y,z
x,-y,-z
-x,y,-z
-x,-y,-z
x,y,-z
-x,y,z
x,-y,z
1/2+x,1/2+y,1/2+z
1/2-x,1/2-y,1/2+z
1/2+x,1/2-y,1/2-z
1/2-x,1/2+y,1/2-z
1/2-x,1/2-y,1/2-z
1/2+x,1/2+y,1/2-z
1/2-x,1/2+y,1/2+z
1/2+x,1/2-y,1/2+z
loop_
_atom_site_type_symbol
_atom_site_label
_atom_site_fract_x
_atom_site_fract_y
_atom_site_fract_z
Si Si1 0.063567 0.425347 0.731306
Si Si2 0.567945 0.575307 0.500000
Si Si3 0.747817 0.648629 0.228223
Si Si4 0.436981 0.196496 0.379107
Si Si5 0.819773 0.759599 0.121497
Si Si6 0.935624 0.080091 0.780669
Si Si7 0.326821 0.077361 0.113454
Si Si8 0.847425 0.921607 0.385581
O O1 0.072157 0.500000 0.768865
O O2 0.070250 0.371100 0.818255
O O3 0.108748 0.413588 0.644114
O O4 0.000000 0.420935 0.693995
O O5 0.586683 0.500000 0.500000
O O6 0.500000 0.574892 0.500000
O O7 0.584754 0.604026 0.608200
O O8 0.782230 0.697427 0.155763
O O9 0.705548 0.685421 0.305150
O O10 0.790496 0.611340 0.300857
O O11 0.710915 0.601461 0.159515
O O12 0.434778 0.184504 0.500000
O O13 0.500000 0.221906 0.356339
O O14 0.384446 0.242509 0.355270
O O15 0.814389 0.772126 0.000000
O O16 0.896356 0.100888 0.689713
O O17 0.000000 0.098915 0.766432
O O18 0.934999 0.000000 0.785237
O O19 0.315406 0.000000 0.114393
O O20 0.315286 0.102391 0.000000
O O21 0.855419 0.897525 0.500000
O O22 0.849151 0.000000 0.386826
#
# Coordination Sequence:
#
# PCOD9521376 Si02
#       8
#    16   8  16  16  16  16  16  16
#     4   9  17  30  50  79 114 146 177 217 268 330
#     4   7  10  20  40  66  96 128 164 204 243 293
#     4  11  21  37  56  76 105 142 182 224 267 321
#     4   9  17  32  55  81 109 139 173 219 273 326
#     4  10  21  37  58  80 101 134 182 227 269 319
#     4   8  14  27  48  73 102 136 172 209 254 310
#     4  10  20  34  52  77 111 147 184 227 274 325
#     4  10  21  36  54  79 110 141 176 219 270 329
#
# _framework density 18.550411
#
# number of rings (size 3 to 8) (size 9 to 14) (size 15 to 20)
#    0.000    2.600    1.333    2.000    0.000    0.800 
#    2.400    4.667    0.000    0.000    0.000    0.000 
#    0.000    0.000    0.000    0.267    0.000    0.000 
#
# Total GULP energy -334499.407074 kJ/mol
# GULP energy per Si atom -5574.990118 kJ/mol
# Density = 1.850819 g / cm^3
# Si number density = 18.550411 Si / 1000 Ang^3
#
#
#
# Elastic Constant Matrix: (Units=GPa)
#
#
# Indices 1 2 3 4 5 6 
#
# 1 85.3024 18.8000 49.2911 0.0000 0.0000 0.0000
# 2 18.8000 23.3669 19.1337 0.0000 0.0000 0.0000
# 3 49.2911 19.1337 115.9508 0.0000 0.0000 0.0000
# 4 0.0000 0.0000 0.0000 14.4508 0.0000 0.0000
# 5 0.0000 0.0000 0.0000 0.0000 31.1798 0.0000
# 6 0.0000 0.0000 0.0000 0.0000 0.0000 21.2480
#
#
#
# Elastic Compliance Matrix: (Units=1/GPa)
#
#
# Indices 1 2 3 4 5 6 
#
# 1 0.017030 -0.008988 -0.005756 0.000000 0.000000 0.000000
# 2 -0.008988 0.054225 -0.005127 0.000000 0.000000 0.000000
# 3 -0.005756 -0.005127 0.011917 0.000000 0.000000 0.000000
# 4 0.000000 0.000000 0.000000 0.069200 0.000000 0.000000
# 5 0.000000 0.000000 0.000000 0.000000 0.032072 0.000000
# 6 0.000000 0.000000 0.000000 0.000000 0.000000 0.047063
#
#
# Mechanical properties :
#
#
# Convention : Reuss Voigt Hill
#
# Bulk Modulus (GPa) = 23.02576 44.34106 33.68341
# Shear Modulus (GPa) = 17.49913 22.53543 20.01728
#
# Velocity S-wave (km/s) = 3.07470 3.48921 3.28849
# Velocity P-wave (km/s) = 5.00445 6.33937 5.71105
#
# Compressibility (1/GPa) = 0.04342962
#
# Stress axis : x y z
#
# Youngs Moduli (GPa) = 58.71919 18.44154 83.91049
#
# Poissons Ratio (x) = 0.16576 0.48302
# Poissons Ratio (y) = 0.52778 0.43022
# Poissons Ratio (z) = 0.33801 0.09455
#
# Static dielectric constant tensor:
#      x y z
#    x 1.639860 0.000000 0.000000 
#    y 0.000000 1.646090 0.000000 
#    z 0.000000 0.000000 1.622780 
# 
# From -- ./inp_files/27708.got.cif
#   From: 2010.05.17/outbox.cif.g08.bks.cpg/sg71_14_cif.got.tgz:27708.got - 2010.06.03 16:22:01.
