data_PCOD9521255
_publ_section_title
;
Structure prediction by ZEFSAII (Michael W. Deem and Ramdas Pophale) SiO2 
 PCOD9521255
Probable space group: I M M M
;
_chemical_formula_sum "Si O2"
_cell_formula_units_Z 72
_cell_length_a 14.281753
_cell_length_b 18.627196
_cell_length_c 14.201273
_cell_angle_alpha 90.000000
_cell_angle_beta 90.000000
_cell_angle_gamma 90.000000
_cell_volume 3777.950630
_symmetry_space_group_name_H-M "I M M M"
_symmetry_group_IT_number 71
_symmetry_cell_setting 'orthorhombic'
loop_
_space_group_symop_operation_xyz
x,y,z
-x,-y,z
x,-y,-z
-x,y,-z
-x,-y,-z
x,y,-z
-x,y,z
x,-y,z
1/2+x,1/2+y,1/2+z
1/2-x,1/2-y,1/2+z
1/2+x,1/2-y,1/2-z
1/2-x,1/2+y,1/2-z
1/2-x,1/2-y,1/2-z
1/2+x,1/2+y,1/2-z
1/2-x,1/2+y,1/2+z
1/2+x,1/2-y,1/2+z
loop_
_atom_site_type_symbol
_atom_site_label
_atom_site_fract_x
_atom_site_fract_y
_atom_site_fract_z
Si Si1 0.294266 0.420969 0.209832
Si Si2 0.392426 0.187503 0.000000
Si Si3 0.607446 0.864973 0.793189
Si Si4 0.390428 0.287364 0.690728
Si Si5 0.736591 0.079754 0.500000
Si Si6 0.203078 0.262938 0.000000
O O1 0.328551 0.500000 0.237700
O O2 0.186547 0.411888 0.243640
O O3 0.349729 0.356015 0.256266
O O4 0.294424 0.416017 0.096741
O O5 0.379878 0.140744 0.905587
O O6 0.500000 0.214460 0.000000
O O7 0.314757 0.249746 0.000000
O O8 0.500000 0.886648 0.773121
O O9 0.620825 0.783930 0.754116
O O10 0.500000 0.296735 0.672098
O O11 0.337119 0.273177 0.593480
O O12 0.676628 0.152792 0.500000
O O13 0.690820 0.000000 0.500000
#
# Coordination Sequence:
#
# PCOD9521255 Si02
#       6
#    16   8  16  16   8   8
#     4  11  22  40  61  88 128 162 195 249 315 372
#     4  10  20  33  59  93 117 148 200 256 299 352
#     4  10  20  37  60  87 117 153 205 252 299 362
#     4  11  23  38  61  91 119 162 214 253 298 362
#     4  10  22  37  63  96 123 157 201 252 316 379
#     4  12  19  38  68  86 128 159 206 261 305 354
#
# _framework density 19.057952
#
# number of rings (size 3 to 8) (size 9 to 14) (size 15 to 20)
#    0.000    1.333    4.444    2.333    0.000    0.889 
#    0.000    3.333    0.000   10.333    0.000    0.000 
#    0.000    0.000    0.000    0.000    0.000    0.000 
#
# Total GULP energy -201018.302663 kJ/mol
# GULP energy per Si atom -5583.841741 kJ/mol
# Density = 1.901458 g / cm^3
# Si number density = 19.057952 Si / 1000 Ang^3
#
#
#
# Elastic Constant Matrix: (Units=GPa)
#
#
# Indices 1 2 3 4 5 6 
#
# 1 77.5957 28.0109 32.2646 0.0000 0.0000 0.0000
# 2 28.0109 90.7013 36.7566 0.0000 0.0000 0.0000
# 3 32.2646 36.7566 129.1752 0.0000 0.0000 0.0000
# 4 0.0000 0.0000 0.0000 -0.4333 0.0000 0.0000
# 5 0.0000 0.0000 0.0000 0.0000 9.8302 0.0000
# 6 0.0000 0.0000 0.0000 0.0000 0.0000 14.6903
#
#
#
# Elastic Compliance Matrix: (Units=1/GPa)
#
#
# Indices 1 2 3 4 5 6 
#
# 1 0.015357 -0.003604 -0.002810 0.000000 0.000000 0.000000
# 2 -0.003604 0.013308 -0.002887 0.000000 0.000000 0.000000
# 3 -0.002810 -0.002887 0.009265 0.000000 0.000000 0.000000
# 4 0.000000 0.000000 0.000000 -2.308046 0.000002 0.000001
# 5 0.000000 0.000000 0.000000 0.000002 0.101727 0.000000
# 6 0.000000 0.000000 0.000000 0.000001 0.000000 0.068072
#
#
# Mechanical properties :
#
#
# Convention : Reuss Voigt Hill
#
# Bulk Modulus (GPa) = 51.73798 54.61516 53.17657
# Shear Modulus (GPa) = -2.40932 18.18013 7.88540
#
# Velocity S-wave (km/s) = -1.12559 3.09194 2.03631
# Velocity P-wave (km/s) = 5.05147 6.43944 5.78722
#
# Compressibility (1/GPa) = 0.01932816
#
# Stress axis : x y z
#
# Youngs Moduli (GPa) = 65.11813 75.14326 107.93601
#
# Poissons Ratio (x) = 0.27079 0.30333
# Poissons Ratio (y) = 0.23466 0.31157
# Poissons Ratio (z) = 0.18300 0.21691
#
# Static dielectric constant tensor:
#      x y z
#    x 1.662400 0.000000 0.000000 
#    y 0.000000 1.654390 0.000000 
#    z 0.000000 0.000000 1.653330 
# 
# From -- ./inp_files/34121.got.cif
#   From: 2010.05.17/outbox.cif.g08.bks.cpg/sg71_18_cif.got.tgz:34121.got - 2010.06.03 16:22:01.
