data_PCOD9521431
_publ_section_title
;
Structure prediction by ZEFSAII (Michael W. Deem and Ramdas Pophale) SiO2 
 PCOD9521431
Probable space group: I M M M
;
_chemical_formula_sum "Si O2"
_cell_formula_units_Z 112
_cell_length_a 14.242909
_cell_length_b 17.836459
_cell_length_c 24.320278
_cell_angle_alpha 90.000000
_cell_angle_beta 90.000000
_cell_angle_gamma 90.000000
_cell_volume 6178.397902
_symmetry_space_group_name_H-M "I M M M"
_symmetry_group_IT_number 71
_symmetry_cell_setting 'orthorhombic'
loop_
_space_group_symop_operation_xyz
x,y,z
-x,-y,z
x,-y,-z
-x,y,-z
-x,-y,-z
x,y,-z
-x,y,z
x,-y,z
1/2+x,1/2+y,1/2+z
1/2-x,1/2-y,1/2+z
1/2+x,1/2-y,1/2-z
1/2-x,1/2+y,1/2-z
1/2-x,1/2-y,1/2-z
1/2+x,1/2+y,1/2-z
1/2-x,1/2+y,1/2+z
1/2+x,1/2-y,1/2+z
loop_
_atom_site_type_symbol
_atom_site_label
_atom_site_fract_x
_atom_site_fract_y
_atom_site_fract_z
Si Si1 0.772883 0.416222 0.166247
Si Si2 0.394719 0.198745 0.734022
Si Si3 0.100581 0.584040 0.333998
Si Si4 0.110594 0.797523 0.939805
Si Si5 0.109292 0.618533 0.935672
Si Si6 0.810122 0.917175 0.141902
Si Si7 0.387319 0.372105 0.759571
O O1 0.796606 0.500000 0.187433
O O2 0.828331 0.347519 0.194127
O O3 0.811166 0.414628 0.103942
O O4 0.665990 0.400716 0.185780
O O5 0.500000 0.201635 0.709900
O O6 0.396953 0.148115 0.788487
O O7 0.369301 0.283266 0.750084
O O8 0.100975 0.500000 0.308826
O O9 0.198032 0.588205 0.365384
O O10 0.000000 0.591020 0.363977
O O11 0.121004 0.708630 0.931873
O O12 0.148386 0.848329 0.891342
O O13 0.000000 0.811401 0.941839
O O14 0.151284 0.817155 0.000000
O O15 0.000000 0.600381 0.919730
O O16 0.119187 0.597927 0.000000
O O17 0.839829 0.909837 0.205927
O O18 0.841396 0.000000 0.122960
O O19 0.500000 0.384310 0.760676
#
# Coordination Sequence:
#
# PCOD9521431 Si02
#       7
#    16  16  16  16  16  16  16
#     4  12  23  34  54  83 112 144 179 220 271 327
#     4  10  20  34  53  77 105 140 180 222 265 315
#     4   9  18  32  49  74 108 138 169 216 272 324
#     4   9  19  36  57  80 107 142 183 226 269 315
#     4   9  20  39  60  82 108 138 173 218 276 333
#     4  11  21  33  53  78 107 148 185 219 270 322
#     4  11  24  38  52  76 111 151 189 223 263 315
#
# _framework density 18.127678
#
# number of rings (size 3 to 8) (size 9 to 14) (size 15 to 20)
#    0.000    1.857    1.429    3.857    2.000    6.571 
#    0.000    1.429    0.000    0.857    0.000    5.000 
#    0.000    0.000    0.000    0.000    0.000    0.000 
#
# Total GULP energy -312050.604689 kJ/mol
# GULP energy per Si atom -5572.332227 kJ/mol
# Density = 1.808642 g / cm^3
# Si number density = 18.127678 Si / 1000 Ang^3
#
#
#
# Elastic Constant Matrix: (Units=GPa)
#
#
# Indices 1 2 3 4 5 6 
#
# 1 92.6746 31.0349 40.8319 0.0000 0.0000 0.0000
# 2 31.0349 75.4769 21.1258 0.0000 0.0000 0.0000
# 3 40.8319 21.1258 61.2664 0.0000 0.0000 0.0000
# 4 0.0000 0.0000 0.0000 6.7470 0.0000 0.0000
# 5 0.0000 0.0000 0.0000 0.0000 22.7778 0.0000
# 6 0.0000 0.0000 0.0000 0.0000 0.0000 1.6592
#
#
#
# Elastic Compliance Matrix: (Units=1/GPa)
#
#
# Indices 1 2 3 4 5 6 
#
# 1 0.016328 -0.004060 -0.009482 0.000000 0.000000 0.000000
# 2 -0.004060 0.015674 -0.002699 0.000000 0.000000 0.000000
# 3 -0.009482 -0.002699 0.023572 0.000000 0.000000 0.000000
# 4 0.000000 0.000000 0.000000 0.148215 0.000000 0.000000
# 5 0.000000 0.000000 0.000000 0.000000 0.043902 0.000000
# 6 0.000000 0.000000 0.000000 0.000000 0.000000 0.602697
#
#
# Mechanical properties :
#
#
# Convention : Reuss Voigt Hill
#
# Bulk Modulus (GPa) = 43.30423 46.15588 44.73006
# Shear Modulus (GPa) = 5.61440 15.33182 10.47311
#
# Velocity S-wave (km/s) = 1.76178 2.91136 2.40623
# Velocity P-wave (km/s) = 5.29894 6.06780 5.69636
#
# Compressibility (1/GPa) = 0.02309243
#
# Stress axis : x y z
#
# Youngs Moduli (GPa) = 61.24579 63.80070 42.42284
#
# Poissons Ratio (x) = 0.25901 0.40225
# Poissons Ratio (y) = 0.24864 0.11450
# Poissons Ratio (z) = 0.58073 0.17220
#
# Static dielectric constant tensor:
#      x y z
#    x 1.660700 0.000000 0.000000 
#    y 0.000000 1.650420 0.000000 
#    z 0.000000 0.000000 1.635540 
# 
# From -- ./inp_files/59944.got.cif
#   From: 2010.05.17/outbox.cif.g08.bks.cpg/sg71_30_cif.got.tgz:59944.got - 2010.06.03 16:22:01.
