data_PCOD9521547
_publ_section_title
;
Structure prediction by ZEFSAII (Michael W. Deem and Ramdas Pophale) SiO2 
 PCOD9521547
Probable space group: I M M M
;
_chemical_formula_sum "Si O2"
_cell_formula_units_Z 116
_cell_length_a 10.050784
_cell_length_b 24.956140
_cell_length_c 24.285669
_cell_angle_alpha 90.000000
_cell_angle_beta 90.000000
_cell_angle_gamma 90.000000
_cell_volume 6091.544547
_symmetry_space_group_name_H-M "I M M M"
_symmetry_group_IT_number 71
_symmetry_cell_setting 'orthorhombic'
loop_
_space_group_symop_operation_xyz
x,y,z
-x,-y,z
x,-y,-z
-x,y,-z
-x,-y,-z
x,y,-z
-x,y,z
x,-y,z
1/2+x,1/2+y,1/2+z
1/2-x,1/2-y,1/2+z
1/2+x,1/2-y,1/2-z
1/2-x,1/2+y,1/2-z
1/2-x,1/2-y,1/2-z
1/2+x,1/2+y,1/2-z
1/2-x,1/2+y,1/2+z
1/2+x,1/2-y,1/2+z
loop_
_atom_site_type_symbol
_atom_site_label
_atom_site_fract_x
_atom_site_fract_y
_atom_site_fract_z
Si Si1 0.348613 0.150988 0.376462
Si Si2 0.147049 0.062808 0.102615
Si Si3 0.153193 0.300946 0.247148
Si Si4 0.849628 0.759693 0.065947
Si Si5 0.849895 0.650069 0.434061
Si Si6 0.000000 0.500000 0.715014
Si Si7 0.844755 0.937967 0.658026
Si Si8 0.745364 0.085133 0.780683
O O1 0.500000 0.132513 0.386414
O O2 0.345775 0.177445 0.315711
O O3 0.316578 0.199125 0.417701
O O4 0.247171 0.102217 0.376073
O O5 0.266515 0.096632 0.077229
O O6 0.161574 0.071153 0.167996
O O7 0.000000 0.080985 0.083935
O O8 0.160148 0.000000 0.090092
O O9 0.250000 0.250000 0.250000
O O10 0.203201 0.352373 0.281741
O O11 0.000000 0.287378 0.261402
O O12 0.739974 0.800966 0.087584
O O13 0.000000 0.771042 0.087000
O O14 0.853525 0.764595 0.000000
O O15 0.859358 0.656402 0.500000
O O16 0.000000 0.648290 0.411728
O O17 0.116667 0.453036 0.715729
O O18 0.814945 0.926527 0.722380
O O19 0.000000 0.929041 0.647215
O O20 0.812116 0.000000 0.647343
#
# Coordination Sequence:
#
# PCOD9521547 Si02
#       8
#    16  16  16  16  16   4  16  16
#     4   9  20  35  54  81 109 142 186 227 273 331
#     4  11  24  39  58  82 110 144 187 234 282 331
#     4  10  22  36  50  76 114 149 184 221 274 333
#     4   9  18  37  62  85 110 142 182 230 281 336
#     4  10  23  40  59  83 109 139 179 229 285 342
#     4  12  20  36  62  84 113 146 203 246 280 326
#     4  10  20  34  54  80 114 148 186 229 272 323
#     4  11  22  36  58  82 110 149 194 233 277 327
#
# _framework density 19.04279
#
# number of rings (size 3 to 8) (size 9 to 14) (size 15 to 20)
#    0.000    1.931    2.069    0.828    3.862    6.069 
#    0.000    1.379    0.000    0.414    0.000    2.897 
#    0.000    0.000    0.000    0.000    0.000    0.000 
#
# Total GULP energy -323302.474493 kJ/mol
# GULP energy per Si atom -5574.180595 kJ/mol
# Density = 1.899945 g / cm^3
# Si number density = 19.042790 Si / 1000 Ang^3
#
#
#
# Elastic Constant Matrix: (Units=GPa)
#
#
# Indices 1 2 3 4 5 6 
#
# 1 157.2503 109.4993 12.1925 0.0000 0.0000 0.0000
# 2 109.4993 150.6466 5.4423 0.0000 0.0000 0.0000
# 3 12.1925 5.4423 5.3241 0.0000 0.0000 0.0000
# 4 0.0000 0.0000 0.0000 22.7402 0.0000 0.0000
# 5 0.0000 0.0000 0.0000 0.0000 8.0490 0.0000
# 6 0.0000 0.0000 0.0000 0.0000 0.0000 36.5551
#
#
#
# Elastic Compliance Matrix: (Units=1/GPa)
#
#
# Indices 1 2 3 4 5 6 
#
# 1 0.015521 -0.010381 -0.024933 0.000000 0.000000 0.000000
# 2 -0.010381 0.013836 0.009630 0.000000 0.000000 0.000000
# 3 -0.024933 0.009630 0.235079 0.000000 0.000000 0.000000
# 4 0.000000 0.000000 0.000000 0.043975 0.000000 0.000000
# 5 0.000000 0.000000 0.000000 0.000000 0.124239 0.000000
# 6 0.000000 0.000000 0.000000 0.000000 0.000000 0.027356
#
#
# Mechanical properties :
#
#
# Convention : Reuss Voigt Hill
#
# Bulk Modulus (GPa) = 4.69333 63.05433 33.87383
# Shear Modulus (GPa) = 8.58524 25.87467 17.22996
#
# Velocity S-wave (km/s) = 2.12560 3.69014 3.01126
# Velocity P-wave (km/s) = 2.91448 7.16519 5.46965
#
# Compressibility (1/GPa) = 0.21306841
#
# Stress axis : x y z
#
# Youngs Moduli (GPa) = 64.42822 72.27673 4.25390
#
# Poissons Ratio (x) = 0.75031 0.10606
# Poissons Ratio (y) = 0.66883 -0.04097
# Poissons Ratio (z) = 1.60638 -0.69604
#
# Static dielectric constant tensor:
#      x y z
#    x 1.622270 0.000000 0.000000 
#    y 0.000000 1.647230 0.000000 
#    z 0.000000 0.000000 1.684590 
# 
# From -- ./inp_files/13442.got.cif
#   From: 2010.05.17/outbox.cif.g08.bks.cpg/sg71_7_cif.got.tgz:13442.got - 2010.06.03 16:22:01.
