data_PCOD9521443
_publ_section_title
;
Structure prediction by ZEFSAII (Michael W. Deem and Ramdas Pophale) SiO2 
 PCOD9521443
Probable space group: I M M M
;
_chemical_formula_sum "Si O2"
_cell_formula_units_Z 80
_cell_length_a 9.305661
_cell_length_b 15.825519
_cell_length_c 27.263605
_cell_angle_alpha 90.000000
_cell_angle_beta 90.000000
_cell_angle_gamma 90.000000
_cell_volume 4015.026999
_symmetry_space_group_name_H-M "I M M M"
_symmetry_group_IT_number 71
_symmetry_cell_setting 'orthorhombic'
loop_
_space_group_symop_operation_xyz
x,y,z
-x,-y,z
x,-y,-z
-x,y,-z
-x,-y,-z
x,y,-z
-x,y,z
x,-y,z
1/2+x,1/2+y,1/2+z
1/2-x,1/2-y,1/2+z
1/2+x,1/2-y,1/2-z
1/2-x,1/2+y,1/2-z
1/2-x,1/2-y,1/2-z
1/2+x,1/2+y,1/2-z
1/2-x,1/2+y,1/2+z
1/2+x,1/2-y,1/2+z
loop_
_atom_site_type_symbol
_atom_site_label
_atom_site_fract_x
_atom_site_fract_y
_atom_site_fract_z
Si Si1 0.837073 0.899281 0.500000
Si Si2 0.827566 0.163556 0.800114
Si Si3 0.341015 0.100576 0.000000
Si Si4 0.170524 0.843799 0.692924
Si Si5 0.838704 0.147760 0.094489
Si Si6 0.164187 0.648257 0.097422
O O1 0.751801 0.873493 0.451256
O O2 0.000000 0.864946 0.500000
O O3 0.845248 0.000000 0.500000
O O4 0.804188 0.119484 0.747594
O O5 0.728966 0.247394 0.801961
O O6 0.798490 0.115613 0.851085
O O7 0.000000 0.186184 0.801264
O O8 0.261399 0.126366 0.950500
O O9 0.500000 0.137801 0.000000
O O10 0.348521 0.000000 0.000000
O O11 0.256090 0.881561 0.646936
O O12 0.000000 0.844830 0.683024
O O13 0.840891 0.249556 0.099435
O O14 0.000000 0.118540 0.083066
O O15 0.000000 0.617514 0.094957
#
# Coordination Sequence:
#
# PCOD9521443 Si02
#       6
#     8  16   8  16  16  16
#     4  11  24  39  54  74 100 131 170 213 254 298
#     4   8  15  27  44  71 104 131 161 203 247 293
#     4  11  24  37  48  68  98 129 164 209 256 298
#     4   9  15  25  45  73 104 134 162 198 246 294
#     4   9  18  33  53  76 100 129 166 204 242 291
#     4  10  20  34  53  78 106 133 165 205 247 297
#
# _framework density 19.925146999999999
#
# number of rings (size 3 to 8) (size 9 to 14) (size 15 to 20)
#    0.000    2.600    0.000    3.600    0.000    8.800 
#    0.000    0.000    0.000    1.200    0.000    2.800 
#    0.000    0.000    0.000    0.000    0.000    0.000 
#
# Total GULP energy -222942.657342 kJ/mol
# GULP energy per Si atom -5573.566434 kJ/mol
# Density = 1.987980 g / cm^3
# Si number density = 19.925147 Si / 1000 Ang^3
#
#
#
# Elastic Constant Matrix: (Units=GPa)
#
#
# Indices 1 2 3 4 5 6 
#
# 1 141.9618 5.1422 124.9589 0.0000 0.0000 0.0000
# 2 5.1422 17.6061 10.6302 0.0000 0.0000 0.0000
# 3 124.9589 10.6302 245.3943 0.0000 0.0000 0.0000
# 4 0.0000 0.0000 0.0000 -32.7426 0.0000 0.0000
# 5 0.0000 0.0000 0.0000 0.0000 36.1888 0.0000
# 6 0.0000 0.0000 0.0000 0.0000 0.0000 -1.4861
#
#
#
# Elastic Compliance Matrix: (Units=1/GPa)
#
#
# Indices 1 2 3 4 5 6 
#
# 1 0.012767 0.000202 -0.006510 0.000000 0.000000 0.000000
# 2 0.000202 0.058327 -0.002629 0.000000 0.000000 0.000000
# 3 -0.006510 -0.002629 0.007504 0.000000 0.000000 0.000000
# 4 0.000000 0.000000 0.000000 -0.030541 0.000000 0.000000
# 5 0.000000 0.000000 0.000000 0.000000 0.027633 0.000000
# 6 0.000000 0.000000 0.000000 0.000000 0.000000 -0.672908
#
#
# Mechanical properties :
#
#
# Convention : Reuss Voigt Hill
#
# Bulk Modulus (GPa) = 16.46823 76.26941 46.36882
# Shear Modulus (GPa) = -8.94291 18.00742 4.53226
#
# Velocity S-wave (km/s) = -2.12085 3.00951 1.50983
# Velocity P-wave (km/s) = 1.51184 7.10192 5.13434
#
# Compressibility (1/GPa) = 0.06072298
#
# Stress axis : x y z
#
# Youngs Moduli (GPa) = 78.32644 17.14467 133.26315
#
# Poissons Ratio (x) = -0.00346 0.86754
# Poissons Ratio (y) = -0.01580 0.35040
# Poissons Ratio (z) = 0.50990 0.04508
#
# Static dielectric constant tensor:
#      x y z
#    x 1.696450 0.000000 0.000000 
#    y 0.000000 1.695150 0.000000 
#    z 0.000000 0.000000 1.754890 
# 
# From -- ./inp_files/63062.got.cif
#   From: 2010.05.17/outbox.cif.g08.bks.cpg/sg71_32_cif.got.tgz:63062.got - 2010.06.03 16:22:01.
