data_PCOD9521688
_publ_section_title
;
Structure prediction by ZEFSAII (Michael W. Deem and Ramdas Pophale) SiO2 
 PCOD9521688
Probable space group: I M M M
;
_chemical_formula_sum "Si O2"
_cell_formula_units_Z 60
_cell_length_a 13.141217
_cell_length_b 11.057982
_cell_length_c 21.014445
_cell_angle_alpha 90.000000
_cell_angle_beta 90.000000
_cell_angle_gamma 90.000000
_cell_volume 3053.721242
_symmetry_space_group_name_H-M "I M M M"
_symmetry_group_IT_number 71
_symmetry_cell_setting 'orthorhombic'
loop_
_space_group_symop_operation_xyz
x,y,z
-x,-y,z
x,-y,-z
-x,y,-z
-x,-y,-z
x,y,-z
-x,y,z
x,-y,z
1/2+x,1/2+y,1/2+z
1/2-x,1/2-y,1/2+z
1/2+x,1/2-y,1/2-z
1/2-x,1/2+y,1/2-z
1/2-x,1/2-y,1/2-z
1/2+x,1/2+y,1/2-z
1/2-x,1/2+y,1/2+z
1/2+x,1/2-y,1/2+z
loop_
_atom_site_type_symbol
_atom_site_label
_atom_site_fract_x
_atom_site_fract_y
_atom_site_fract_z
Si Si1 0.829177 0.250497 0.190252
Si Si2 0.000000 0.250551 0.575054
Si Si3 0.889281 0.000000 0.236463
Si Si4 0.217364 0.142265 0.574671
Si Si5 0.150968 0.500000 0.766433
Si Si6 0.000000 0.500000 0.347208
O O1 0.750000 0.250000 0.250000
O O2 0.776851 0.270725 0.122508
O O3 0.886102 0.376469 0.202062
O O4 0.885551 0.123871 0.196458
O O5 0.900501 0.171229 0.588115
O O6 0.000000 0.279621 0.500000
O O7 0.000000 0.376038 0.613105
O O8 0.776182 0.000000 0.269393
O O9 0.000000 0.000000 0.271350
O O10 0.236944 0.166460 0.500000
O O11 0.238857 0.000000 0.585776
O O12 0.102063 0.500000 0.696230
#
# Coordination Sequence:
#
# PCOD9521688 Si02
#       6
#    16   8   8  16   8   4
#     4  10  20  39  56  87 120 161 205 254 301 369
#     4  10  20  34  55  89 130 165 206 252 318 399
#     4  10  22  38  60  87 124 155 203 256 314 369
#     4  10  20  37  61  89 124 166 209 261 318 381
#     4  10  22  39  59  86 126 161 211 251 309 366
#     4  12  23  38  60  90 129 174 208 260 322 372
#
# _framework density 19.648159
#
# number of rings (size 3 to 8) (size 9 to 14) (size 15 to 20)
#    0.000    1.867    1.333    3.800    1.867    1.600 
#    9.600    2.000    0.000    1.600    0.000    2.800 
#    0.000    0.000    0.000    0.000    0.000    0.000 
#
# Total GULP energy -167144.678255 kJ/mol
# GULP energy per Si atom -5571.489275 kJ/mol
# Density = 1.960344 g / cm^3
# Si number density = 19.648159 Si / 1000 Ang^3
#
#
#
# Elastic Constant Matrix: (Units=GPa)
#
#
# Indices 1 2 3 4 5 6 
#
# 1 97.3608 21.0207 32.7031 0.0000 0.0000 0.0000
# 2 21.0207 148.5658 31.6978 0.0000 0.0000 0.0000
# 3 32.7031 31.6978 66.4083 0.0000 0.0000 0.0000
# 4 0.0000 0.0000 0.0000 28.9948 0.0000 0.0000
# 5 0.0000 0.0000 0.0000 0.0000 5.3124 0.0000
# 6 0.0000 0.0000 0.0000 0.0000 0.0000 10.1149
#
#
#
# Elastic Compliance Matrix: (Units=1/GPa)
#
#
# Indices 1 2 3 4 5 6 
#
# 1 0.012340 -0.000500 -0.005838 0.000000 0.000000 0.000000
# 2 -0.000500 0.007515 -0.003340 0.000000 0.000000 0.000000
# 3 -0.005838 -0.003340 0.019528 0.000000 0.000000 0.000000
# 4 0.000000 0.000000 0.000000 0.034489 0.000000 0.000000
# 5 0.000000 0.000000 0.000000 0.000000 0.188240 0.000000
# 6 0.000000 0.000000 0.000000 0.000000 0.000000 0.098864
#
#
# Mechanical properties :
#
#
# Convention : Reuss Voigt Hill
#
# Bulk Modulus (GPa) = 49.93847 53.68646 51.81246
# Shear Modulus (GPa) = 12.91963 24.01198 18.46580
#
# Velocity S-wave (km/s) = 2.56705 3.49964 3.06898
# Velocity P-wave (km/s) = 5.85302 6.61160 6.24384
#
# Compressibility (1/GPa) = 0.02002464
#
# Stress axis : x y z
#
# Youngs Moduli (GPa) = 81.03655 133.07558 51.20913
#
# Poissons Ratio (x) = 0.06659 0.29896
# Poissons Ratio (y) = 0.04055 0.17106
# Poissons Ratio (z) = 0.47310 0.44452
#
# Static dielectric constant tensor:
#      x y z
#    x 1.768460 0.000000 0.000000 
#    y 0.000000 1.710730 0.000000 
#    z 0.000000 0.000000 1.688310 
# 
# From -- ./inp_files/51473.got.cif
#   From: 2010.05.17/outbox.cif.g08.bks.cpg/sg71_26_cif.got.tgz:51473.got - 2010.06.03 16:22:01.
