data_PCOD9521559
_publ_section_title
;
Structure prediction by ZEFSAII (Michael W. Deem and Ramdas Pophale) SiO2 
 PCOD9521559
Probable space group: I M M M
;
_chemical_formula_sum "Si O2"
_cell_formula_units_Z 104
_cell_length_a 28.434312
_cell_length_b 8.938125
_cell_length_c 23.133927
_cell_angle_alpha 90.000000
_cell_angle_beta 90.000000
_cell_angle_gamma 90.000000
_cell_volume 5879.474475
_symmetry_space_group_name_H-M "I M M M"
_symmetry_group_IT_number 71
_symmetry_cell_setting 'orthorhombic'
loop_
_space_group_symop_operation_xyz
x,y,z
-x,-y,z
x,-y,-z
-x,y,-z
-x,-y,-z
x,y,-z
-x,y,z
x,-y,z
1/2+x,1/2+y,1/2+z
1/2-x,1/2-y,1/2+z
1/2+x,1/2-y,1/2-z
1/2-x,1/2+y,1/2-z
1/2-x,1/2-y,1/2-z
1/2+x,1/2+y,1/2-z
1/2-x,1/2+y,1/2+z
1/2+x,1/2-y,1/2+z
loop_
_atom_site_type_symbol
_atom_site_label
_atom_site_fract_x
_atom_site_fract_y
_atom_site_fract_z
Si Si1 0.853026 0.179488 0.131192
Si Si2 0.053558 0.181985 0.066802
Si Si3 0.730184 0.176648 0.433508
Si Si4 0.500000 0.827801 0.070362
Si Si5 0.816492 0.325533 0.371221
Si Si6 0.903574 0.172465 0.569692
Si Si7 0.198729 0.323760 0.240476
O O1 0.905078 0.228762 0.110469
O O2 0.816490 0.232856 0.082258
O O3 0.831947 0.249157 0.190008
O O4 0.852413 0.000000 0.136131
O O5 0.000000 0.229167 0.081349
O O6 0.053758 0.000000 0.066957
O O7 0.063303 0.227511 0.000000
O O8 0.744277 0.202419 0.500000
O O9 0.771573 0.231444 0.391775
O O10 0.721961 0.000000 0.425775
O O11 0.453186 0.741631 0.088589
O O12 0.500000 0.000000 0.089361
O O13 0.500000 0.828446 0.000000
O O14 0.806560 0.500000 0.382422
O O15 0.861231 0.269365 0.406086
O O16 0.825212 0.307793 0.303089
O O17 0.902260 0.175720 0.500000
O O18 0.898931 0.000000 0.587911
O O19 0.204775 0.500000 0.227792
O O20 0.250000 0.250000 0.250000
#
# Coordination Sequence:
#
# PCOD9521559 Si02
#       7
#    16  16  16   8  16  16  16
#     4  11  21  34  57  85 111 146 188 230 278 333
#     4   8  15  30  54  85 118 148 182 229 281 332
#     4  11  23  36  52  78 113 148 179 220 276 332
#     4   9  17  31  53  79 107 141 179 217 260 317
#     4  11  23  37  55  78 104 141 186 230 277 328
#     4  10  20  34  54  81 112 143 176 220 277 333
#     4  11  23  39  58  79 106 144 189 231 275 325
#
# _framework density 17.688656999999999
#
# number of rings (size 3 to 8) (size 9 to 14) (size 15 to 20)
#    0.000    1.769    1.538    3.923    0.000    7.385 
#    0.000    0.000    1.692    1.846    0.000    5.385 
#    0.000    0.000    0.000    0.000    0.000    0.000 
#
# Total GULP energy -290220.046902 kJ/mol
# GULP energy per Si atom -5581.154748 kJ/mol
# Density = 1.764840 g / cm^3
# Si number density = 17.688657 Si / 1000 Ang^3
#
#
#
# Elastic Constant Matrix: (Units=GPa)
#
#
# Indices 1 2 3 4 5 6 
#
# 1 120.2387 23.6838 43.3526 0.0000 0.0000 0.0000
# 2 23.6838 68.0160 40.3790 0.0000 0.0000 0.0000
# 3 43.3526 40.3790 77.6223 0.0000 0.0000 0.0000
# 4 0.0000 0.0000 0.0000 28.2045 0.0000 0.0000
# 5 0.0000 0.0000 0.0000 0.0000 17.9905 0.0000
# 6 0.0000 0.0000 0.0000 0.0000 0.0000 18.7962
#
#
#
# Elastic Compliance Matrix: (Units=1/GPa)
#
#
# Indices 1 2 3 4 5 6 
#
# 1 0.010417 -0.000251 -0.005687 0.000000 0.000000 0.000000
# 2 -0.000251 0.021278 -0.010929 0.000000 0.000000 0.000000
# 3 -0.005687 -0.010929 0.021744 0.000000 0.000000 0.000000
# 4 0.000000 0.000000 0.000000 0.035455 0.000000 0.000000
# 5 0.000000 0.000000 0.000000 0.000000 0.055585 0.000000
# 6 0.000000 0.000000 0.000000 0.000000 0.000000 0.053202
#
#
# Mechanical properties :
#
#
# Convention : Reuss Voigt Hill
#
# Bulk Modulus (GPa) = 50.74758 53.41199 52.07978
# Shear Modulus (GPa) = 21.00985 23.56232 22.28609
#
# Velocity S-wave (km/s) = 3.45013 3.65370 3.55337
# Velocity P-wave (km/s) = 6.68003 6.93257 6.80747
#
# Compressibility (1/GPa) = 0.01970537
#
# Stress axis : x y z
#
# Youngs Moduli (GPa) = 95.99863 46.99748 45.98884
#
# Poissons Ratio (x) = 0.01179 0.26156
# Poissons Ratio (y) = 0.02408 0.50259
# Poissons Ratio (z) = 0.54598 0.51362
#
# Static dielectric constant tensor:
#      x y z
#    x 1.595400 0.000000 0.000000 
#    y 0.000000 1.599390 0.000000 
#    z 0.000000 0.000000 1.609400 
# 
# From -- ./inp_files/13327.got.cif
#   From: 2010.05.17/outbox.cif.g08.bks.cpg/sg71_7_cif.got.tgz:13327.got - 2010.06.03 16:22:01.
