data_PCOD9521806
_publ_section_title
;
Structure prediction by ZEFSAII (Michael W. Deem and Ramdas Pophale) SiO2 
 PCOD9521806
Probable space group: I M M M
;
_chemical_formula_sum "Si O2"
_cell_formula_units_Z 88
_cell_length_a 7.603587
_cell_length_b 18.551457
_cell_length_c 31.653556
_cell_angle_alpha 90.000000
_cell_angle_beta 90.000000
_cell_angle_gamma 90.000000
_cell_volume 4464.975188
_symmetry_space_group_name_H-M "I M M M"
_symmetry_group_IT_number 71
_symmetry_cell_setting 'orthorhombic'
loop_
_space_group_symop_operation_xyz
x,y,z
-x,-y,z
x,-y,-z
-x,y,-z
-x,-y,-z
x,y,-z
-x,y,z
x,-y,z
1/2+x,1/2+y,1/2+z
1/2-x,1/2-y,1/2+z
1/2+x,1/2-y,1/2-z
1/2-x,1/2+y,1/2-z
1/2-x,1/2-y,1/2-z
1/2+x,1/2+y,1/2-z
1/2-x,1/2+y,1/2+z
1/2+x,1/2-y,1/2+z
loop_
_atom_site_type_symbol
_atom_site_label
_atom_site_fract_x
_atom_site_fract_y
_atom_site_fract_z
Si Si1 0.206326 0.078132 0.174274
Si Si2 0.785227 0.916565 0.548103
Si Si3 0.714914 0.917583 0.000000
Si Si4 0.290812 0.699592 0.116429
Si Si5 0.213702 0.356818 0.411504
Si Si6 0.291567 0.733605 0.298285
O O1 0.222374 0.088170 0.123999
O O2 0.283636 0.153648 0.191296
O O3 0.000000 0.077004 0.185815
O O4 0.281422 0.000000 0.186800
O O5 0.733492 0.894227 0.500000
O O6 0.723805 0.864864 0.586366
O O7 0.000000 0.916000 0.548360
O O8 0.731559 0.000000 0.554130
O O9 0.772240 0.878797 0.957657
O O10 0.500000 0.916908 0.000000
O O11 0.771002 0.000000 0.000000
O O12 0.500000 0.698828 0.110297
O O13 0.223643 0.776720 0.099911
O O14 0.264402 0.706568 0.167043
O O15 0.000000 0.357318 0.410127
O O16 0.500000 0.729001 0.303212
O O17 0.250000 0.750000 0.250000
#
# Coordination Sequence:
#
# PCOD9521806 Si02
#       6
#    16  16   8  16  16  16
#     4   9  18  33  51  69  90 118 152 189 230 276
#     4   8  14  25  44  72 103 133 167 208 248 286
#     4   9  16  24  35  57  90 122 150 183 223 261
#     4   9  17  29  48  72  96 125 162 200 240 285
#     4   9  17  27  42  65  92 123 157 192 228 267
#     4  10  20  35  54  73  96 123 155 197 245 294
#
# _framework density 19.708956000000001
#
# number of rings (size 3 to 8) (size 9 to 14) (size 15 to 20)
#    0.000    3.000    0.000    1.636    1.273    1.818 
#    0.000    1.364    0.000    8.182    0.000    1.273 
#    0.000    0.000    0.000    0.000    0.000    0.000 
#
# Total GULP energy -245089.507707 kJ/mol
# GULP energy per Si atom -5570.216084 kJ/mol
# Density = 1.966410 g / cm^3
# Si number density = 19.708956 Si / 1000 Ang^3
#
#
#
# Elastic Constant Matrix: (Units=GPa)
#
#
# Indices 1 2 3 4 5 6 
#
# 1 41.8605 4.7346 -8.5942 0.0000 0.0000 0.0000
# 2 4.7346 111.5992 74.9958 0.0000 0.0000 0.0000
# 3 -8.5942 74.9958 150.0832 0.0000 0.0000 0.0000
# 4 0.0000 0.0000 0.0000 16.0823 0.0000 0.0000
# 5 0.0000 0.0000 0.0000 0.0000 10.0275 0.0000
# 6 0.0000 0.0000 0.0000 0.0000 0.0000 8.3482
#
#
#
# Elastic Compliance Matrix: (Units=1/GPa)
#
#
# Indices 1 2 3 4 5 6 
#
# 1 0.024833 -0.003025 0.002934 0.000000 0.000000 0.000000
# 2 -0.003025 0.013859 -0.007099 0.000000 0.000000 0.000000
# 3 0.002934 -0.007099 0.010378 0.000000 0.000000 0.000000
# 4 0.000000 0.000000 0.000000 0.062180 0.000000 0.000000
# 5 0.000000 0.000000 0.000000 0.000000 0.099726 0.000000
# 6 0.000000 0.000000 0.000000 0.000000 0.000000 0.119786
#
#
# Mechanical properties :
#
#
# Convention : Reuss Voigt Hill
#
# Bulk Modulus (GPa) = 28.82618 49.53503 39.18061
# Shear Modulus (GPa) = 14.01713 22.38539 18.20126
#
# Velocity S-wave (km/s) = 2.66974 3.37382 3.04221
# Velocity P-wave (km/s) = 4.91539 6.35332 5.68004
#
# Compressibility (1/GPa) = 0.03469068
#
# Stress axis : x y z
#
# Youngs Moduli (GPa) = 40.26855 72.15353 96.35658
#
# Poissons Ratio (x) = 0.21826 -0.28267
# Poissons Ratio (y) = 0.12181 0.68400
# Poissons Ratio (z) = -0.11813 0.51219
#
# Static dielectric constant tensor:
#      x y z
#    x 1.751380 0.000000 0.000000 
#    y 0.000000 1.709440 0.000000 
#    z 0.000000 0.000000 1.685570 
# 
# From -- ./inp_files/68042.got.cif
#   From: 2010.05.17/outbox.cif.g08.bks.cpg/sg71_35_cif.got.tgz:68042.got - 2010.06.03 16:22:01.
