data_PCOD9521125
_publ_section_title
;
Structure prediction by ZEFSAII (Michael W. Deem and Ramdas Pophale) SiO2 
 PCOD9521125
Probable space group: I M M M
;
_chemical_formula_sum "Si O2"
_cell_formula_units_Z 88
_cell_length_a 9.211126
_cell_length_b 18.491543
_cell_length_c 29.281963
_cell_angle_alpha 90.000000
_cell_angle_beta 90.000000
_cell_angle_gamma 90.000000
_cell_volume 4987.536218
_symmetry_space_group_name_H-M "I M M M"
_symmetry_group_IT_number 71
_symmetry_cell_setting 'orthorhombic'
loop_
_space_group_symop_operation_xyz
x,y,z
-x,-y,z
x,-y,-z
-x,y,-z
-x,-y,-z
x,y,-z
-x,y,z
x,-y,z
1/2+x,1/2+y,1/2+z
1/2-x,1/2-y,1/2+z
1/2+x,1/2-y,1/2-z
1/2-x,1/2+y,1/2-z
1/2-x,1/2-y,1/2-z
1/2+x,1/2+y,1/2-z
1/2-x,1/2+y,1/2+z
1/2+x,1/2-y,1/2+z
loop_
_atom_site_type_symbol
_atom_site_label
_atom_site_fract_x
_atom_site_fract_y
_atom_site_fract_z
Si Si1 0.171316 0.853622 0.054674
Si Si2 0.172786 0.083958 0.349747
Si Si3 0.167603 0.500000 0.444258
Si Si4 0.666552 0.915066 0.747454
Si Si5 0.829028 0.717517 0.886576
Si Si6 0.830205 0.204608 0.789114
O O1 0.254110 0.925876 0.070421
O O2 0.220117 0.778655 0.077625
O O3 0.000000 0.862014 0.065352
O O4 0.186418 0.848529 0.000000
O O5 0.250563 0.095142 0.300690
O O6 0.239523 0.143413 0.383623
O O7 0.000000 0.093888 0.344888
O O8 0.199516 0.000000 0.362975
O O9 0.173323 0.500000 0.500000
O O10 0.000000 0.500000 0.430391
O O11 0.500000 0.889354 0.742697
O O12 0.750626 0.872102 0.786429
O O13 0.664972 0.000000 0.756813
O O14 0.815711 0.755950 0.837266
O O15 0.000000 0.701701 0.894365
O O16 0.750000 0.250000 0.750000
O O17 0.000000 0.196829 0.778634
#
# Coordination Sequence:
#
# PCOD9521125 Si02
#       6
#    16  16   8  16  16  16
#     4   9  18  35  58  80 104 136 174 215 258 307
#     4  10  20  33  52  77 102 133 174 215 256 307
#     4   9  17  31  53  81 109 137 171 211 257 307
#     4  10  20  34  51  70  97 135 176 215 254 299
#     4  10  21  35  53  78 104 134 172 214 261 309
#     4  11  21  33  50  73 103 137 172 212 257 305
#
# _framework density 17.643982999999999
#
# number of rings (size 3 to 8) (size 9 to 14) (size 15 to 20)
#    0.000    2.091    1.818    1.909    0.000    4.727 
#    1.636    0.000    0.000    0.545    0.000    3.818 
#    0.000    0.000    0.000    0.000    0.000    0.000 
#
# Total GULP energy -245480.222171 kJ/mol
# GULP energy per Si atom -5579.095958 kJ/mol
# Density = 1.760382 g / cm^3
# Si number density = 17.643983 Si / 1000 Ang^3
#
#
#
# Elastic Constant Matrix: (Units=GPa)
#
#
# Indices 1 2 3 4 5 6 
#
# 1 107.1115 77.2745 27.4495 0.0000 0.0000 0.0000
# 2 77.2745 137.6922 25.2483 0.0000 0.0000 0.0000
# 3 27.4495 25.2483 12.9658 0.0000 0.0000 0.0000
# 4 0.0000 0.0000 0.0000 32.7538 0.0000 0.0000
# 5 0.0000 0.0000 0.0000 0.0000 15.8378 0.0000
# 6 0.0000 0.0000 0.0000 0.0000 0.0000 36.8936
#
#
#
# Elastic Compliance Matrix: (Units=1/GPa)
#
#
# Indices 1 2 3 4 5 6 
#
# 1 0.023480 -0.006319 -0.037406 0.000000 0.000000 0.000000
# 2 -0.006319 0.012996 -0.011931 0.000000 0.000000 0.000000
# 3 -0.037406 -0.011931 0.179550 0.000000 0.000000 0.000000
# 4 0.000000 0.000000 0.000000 0.030531 0.000000 0.000000
# 5 0.000000 0.000000 0.000000 0.000000 0.063140 0.000000
# 6 0.000000 0.000000 0.000000 0.000000 0.000000 0.027105
#
#
# Mechanical properties :
#
#
# Convention : Reuss Voigt Hill
#
# Bulk Modulus (GPa) = 9.54963 57.52377 33.53670
# Shear Modulus (GPa) = 10.35158 25.61686 17.98422
#
# Velocity S-wave (km/s) = 2.42480 3.81448 3.19609
# Velocity P-wave (km/s) = 3.64194 7.21621 5.71565
#
# Compressibility (1/GPa) = 0.10471605
#
# Stress axis : x y z
#
# Youngs Moduli (GPa) = 42.58867 76.94458 5.56949
#
# Poissons Ratio (x) = 0.48618 0.20833
# Poissons Ratio (y) = 0.26910 0.06645
# Poissons Ratio (z) = 1.59306 0.91803
#
# Static dielectric constant tensor:
#      x y z
#    x 1.600830 0.000000 0.000000 
#    y 0.000000 1.649380 0.000000 
#    z 0.000000 0.000000 1.581000 
# 
# From -- ./inp_files/49250.got.cif
#   From: 2010.05.17/outbox.cif.g08.bks.cpg/sg71_25_cif.got.tgz:49250.got - 2010.06.03 16:22:01.
