data_PCOD9521769
_publ_section_title
;
Structure prediction by ZEFSAII (Michael W. Deem and Ramdas Pophale) SiO2 
 PCOD9521769
Probable space group: I M M M
;
_chemical_formula_sum "Si O2"
_cell_formula_units_Z 120
_cell_length_a 23.073517
_cell_length_b 15.535470
_cell_length_c 19.496567
_cell_angle_alpha 90.000000
_cell_angle_beta 90.000000
_cell_angle_gamma 90.000000
_cell_volume 6988.699071
_symmetry_space_group_name_H-M "I M M M"
_symmetry_group_IT_number 71
_symmetry_cell_setting 'orthorhombic'
loop_
_space_group_symop_operation_xyz
x,y,z
-x,-y,z
x,-y,-z
-x,y,-z
-x,-y,-z
x,y,-z
-x,y,z
x,-y,z
1/2+x,1/2+y,1/2+z
1/2-x,1/2-y,1/2+z
1/2+x,1/2-y,1/2-z
1/2-x,1/2+y,1/2-z
1/2-x,1/2-y,1/2-z
1/2+x,1/2+y,1/2-z
1/2-x,1/2+y,1/2+z
1/2+x,1/2-y,1/2+z
loop_
_atom_site_type_symbol
_atom_site_label
_atom_site_fract_x
_atom_site_fract_y
_atom_site_fract_z
Si Si1 0.770029 0.104104 0.423295
Si Si2 0.296445 0.895236 0.222501
Si Si3 0.172798 0.104885 0.287985
Si Si4 0.435880 0.399394 0.296097
Si Si5 0.645688 0.848462 0.641032
Si Si6 0.869757 0.162600 0.079982
Si Si7 0.569191 0.000000 0.581659
Si Si8 0.263968 0.896052 0.075998
O O1 0.779646 0.136634 0.500000
O O2 0.815999 0.132320 0.366070
O O3 0.706632 0.129732 0.396498
O O4 0.771065 0.000000 0.424805
O O5 0.231020 0.871741 0.246447
O O6 0.339869 0.855430 0.278134
O O7 0.299879 0.868290 0.143017
O O8 0.301515 0.000000 0.227752
O O9 0.114663 0.137618 0.252478
O O10 0.171367 0.000000 0.286513
O O11 0.500000 0.360629 0.289871
O O12 0.440230 0.500000 0.278237
O O13 0.411702 0.393808 0.373217
O O14 0.627085 0.756298 0.613776
O O15 0.598995 0.918076 0.616982
O O16 0.803088 0.131263 0.084918
O O17 0.885232 0.163617 0.000000
O O18 0.500000 0.000000 0.589455
O O19 0.582638 0.000000 0.500000
O O20 0.264821 0.000000 0.076502
O O21 0.282927 0.866783 0.000000
#
# Coordination Sequence:
#
# PCOD9521769 Si02
#       8
#    16  16  16  16  16  16   8  16
#     4   9  15  26  48  71  96 124 152 191 236 290
#     4   9  15  29  52  73  96 125 162 201 238 292
#     4   8  14  26  44  69  91 116 156 196 239 282
#     4  10  20  35  52  66  88 126 170 208 242 289
#     4  11  20  33  50  72  99 129 164 204 241 283
#     4  11  22  32  46  70 100 127 161 207 244 289
#     4  11  22  36  52  68  95 137 174 200 238 287
#     4   9  17  30  48  70 101 134 157 191 250 302
#
# _framework density 17.170577000000002
#
# number of rings (size 3 to 8) (size 9 to 14) (size 15 to 20)
#    0.000    2.333    2.667    2.400    0.000    2.133 
#    0.000    0.667    0.000    0.400    0.000    2.800 
#    0.000    1.067    0.000    0.000    0.000    0.000 
#
# Total GULP energy -334543.947503 kJ/mol
# GULP energy per Si atom -5575.732458 kJ/mol
# Density = 1.713150 g / cm^3
# Si number density = 17.170577 Si / 1000 Ang^3
#
#
#
# Elastic Constant Matrix: (Units=GPa)
#
#
# Indices 1 2 3 4 5 6 
#
# 1 67.1715 13.2661 39.2946 0.0000 0.0000 0.0000
# 2 13.2661 22.0314 13.9209 0.0000 0.0000 0.0000
# 3 39.2946 13.9209 130.9767 0.0000 0.0000 0.0000
# 4 0.0000 0.0000 0.0000 13.6876 0.0000 0.0000
# 5 0.0000 0.0000 0.0000 0.0000 14.7995 0.0000
# 6 0.0000 0.0000 0.0000 0.0000 0.0000 -5.7833
#
#
#
# Elastic Compliance Matrix: (Units=1/GPa)
#
#
# Indices 1 2 3 4 5 6 
#
# 1 0.019469 -0.008611 -0.004926 0.000000 0.000000 0.000000
# 2 -0.008611 0.052466 -0.002993 0.000000 0.000000 0.000000
# 3 -0.004926 -0.002993 0.009431 0.000000 0.000000 0.000000
# 4 0.000000 0.000000 0.000000 0.073059 0.000000 0.000000
# 5 0.000000 0.000000 0.000000 0.000000 0.067570 0.000000
# 6 0.000000 0.000000 0.000000 0.000000 0.000000 -0.172911
#
#
# Mechanical properties :
#
#
# Convention : Reuss Voigt Hill
#
# Bulk Modulus (GPa) = 20.70109 39.23811 29.96960
# Shear Modulus (GPa) = 50.89258 14.78727 32.83993
#
# Velocity S-wave (km/s) = 5.45012 2.93780 4.37804
# Velocity P-wave (km/s) = 7.18939 5.86593 6.56111
#
# Compressibility (1/GPa) = 0.04830664
#
# Stress axis : x y z
#
# Youngs Moduli (GPa) = 51.36241 19.06000 106.03471
#
# Poissons Ratio (x) = 0.16413 0.52231
# Poissons Ratio (y) = 0.44228 0.31736
# Poissons Ratio (z) = 0.25300 0.05705
#
# Static dielectric constant tensor:
#      x y z
#    x 1.560790 0.000000 0.000000 
#    y 0.000000 1.626720 0.000000 
#    z 0.000000 0.000000 1.621180 
# 
# From -- ./inp_files/55135.got.cif
#   From: 2010.05.17/outbox.cif.g08.bks.cpg/sg71_28_cif.got.tgz:55135.got - 2010.06.03 16:22:01.
