data_PCOD9521430
_publ_section_title
;
Structure prediction by ZEFSAII (Michael W. Deem and Ramdas Pophale) SiO2 
 PCOD9521430
Probable space group: I M M M
;
_chemical_formula_sum "Si O2"
_cell_formula_units_Z 104
_cell_length_a 9.683237
_cell_length_b 25.373265
_cell_length_c 21.390465
_cell_angle_alpha 90.000000
_cell_angle_beta 90.000000
_cell_angle_gamma 90.000000
_cell_volume 5255.537538
_symmetry_space_group_name_H-M "I M M M"
_symmetry_group_IT_number 71
_symmetry_cell_setting 'orthorhombic'
loop_
_space_group_symop_operation_xyz
x,y,z
-x,-y,z
x,-y,-z
-x,y,-z
-x,-y,-z
x,y,-z
-x,y,z
x,-y,z
1/2+x,1/2+y,1/2+z
1/2-x,1/2-y,1/2+z
1/2+x,1/2-y,1/2-z
1/2-x,1/2+y,1/2-z
1/2-x,1/2-y,1/2-z
1/2+x,1/2+y,1/2-z
1/2-x,1/2+y,1/2+z
1/2+x,1/2-y,1/2+z
loop_
_atom_site_type_symbol
_atom_site_label
_atom_site_fract_x
_atom_site_fract_y
_atom_site_fract_z
Si Si1 0.832874 0.272246 0.570134
Si Si2 0.342304 0.064619 0.000000
Si Si3 0.655905 0.649201 0.073818
Si Si4 0.155887 0.062980 0.114640
Si Si5 0.161604 0.709277 0.709301
Si Si6 0.661162 0.942201 0.370168
Si Si7 0.155475 0.588803 0.270872
O O1 0.782808 0.288175 0.500000
O O2 0.800013 0.210111 0.579402
O O3 0.790188 0.297171 0.636618
O O4 0.000000 0.277066 0.567379
O O5 0.257991 0.082778 0.939447
O O6 0.500000 0.083456 0.000000
O O7 0.346801 0.000000 0.000000
O O8 0.500000 0.645126 0.099465
O O9 0.753590 0.606512 0.104291
O O10 0.650929 0.638538 0.000000
O O11 0.228837 0.072307 0.180446
O O12 0.000000 0.084293 0.110901
O O13 0.146646 0.000000 0.105203
O O14 0.250000 0.750000 0.750000
O O15 0.166825 0.651449 0.739282
O O16 0.000000 0.726099 0.707824
O O17 0.500000 0.936983 0.387453
O O18 0.668471 0.939518 0.295109
O O19 0.710400 0.000000 0.391503
O O20 0.000000 0.578245 0.296405
#
# Coordination Sequence:
#
# PCOD9521430 Si02
#       7
#    16   8  16  16  16  16  16
#     4   8  15  31  54  78 105 136 170 210 260 317
#     4   9  17  31  53  77 101 135 175 213 257 309
#     4   9  18  33  54  78 102 131 168 211 260 315
#     4  10  20  34  53  77 105 138 177 220 266 315
#     4  10  20  34  55  81 106 137 178 222 269 321
#     4  10  21  35  50  70 102 142 176 213 262 313
#     4  10  21  36  52  76 106 138 179 221 266 319
#
# _framework density 19.788651000000002
#
# number of rings (size 3 to 8) (size 9 to 14) (size 15 to 20)
#    0.000    2.538    0.000    3.000    0.000    4.615 
#    1.385    1.538    0.000    1.385    0.000    0.000 
#    0.000    0.000    0.000    0.000    0.000    0.000 
#
# Total GULP energy -290059.785240 kJ/mol
# GULP energy per Si atom -5578.072793 kJ/mol
# Density = 1.974361 g / cm^3
# Si number density = 19.788651 Si / 1000 Ang^3
#
#
#
# Elastic Constant Matrix: (Units=GPa)
#
#
# Indices 1 2 3 4 5 6 
#
# 1 74.6043 8.4604 6.7207 0.0000 0.0000 0.0000
# 2 8.4604 41.7653 12.1637 0.0000 0.0000 0.0000
# 3 6.7207 12.1637 30.9815 0.0000 0.0000 0.0000
# 4 0.0000 0.0000 0.0000 30.7793 0.0000 0.0000
# 5 0.0000 0.0000 0.0000 0.0000 27.9234 0.0000
# 6 0.0000 0.0000 0.0000 0.0000 0.0000 19.5387
#
#
#
# Elastic Compliance Matrix: (Units=1/GPa)
#
#
# Indices 1 2 3 4 5 6 
#
# 1 0.013845 -0.002179 -0.002148 0.000000 0.000000 0.000000
# 2 -0.002179 0.027377 -0.010276 0.000000 0.000000 0.000000
# 3 -0.002148 -0.010276 0.036778 0.000000 0.000000 0.000000
# 4 0.000000 0.000000 0.000000 0.032489 0.000000 0.000000
# 5 0.000000 0.000000 0.000000 0.000000 0.035812 0.000000
# 6 0.000000 0.000000 0.000000 0.000000 0.000000 0.051181
#
#
# Mechanical properties :
#
#
# Convention : Reuss Voigt Hill
#
# Bulk Modulus (GPa) = 20.49421 22.44897 21.47159
# Shear Modulus (GPa) = 20.58017 23.64870 22.11444
#
# Velocity S-wave (km/s) = 3.22840 3.46072 3.34658
# Velocity P-wave (km/s) = 4.92705 5.22855 5.08004
#
# Compressibility (1/GPa) = 0.04879426
#
# Stress axis : x y z
#
# Youngs Moduli (GPa) = 72.23014 36.52636 27.19039
#
# Poissons Ratio (x) = 0.07959 0.05840
# Poissons Ratio (y) = 0.15739 0.27941
# Poissons Ratio (z) = 0.15513 0.37535
#
# Static dielectric constant tensor:
#      x y z
#    x 1.687960 0.000000 0.000000 
#    y 0.000000 1.715510 0.000000 
#    z 0.000000 0.000000 1.706260 
# 
# From -- ./inp_files/50928.got.cif
#   From: 2010.05.17/outbox.cif.g08.bks.cpg/sg71_26_cif.got.tgz:50928.got - 2010.06.03 16:22:01.
