data_PCOD9521689
_publ_section_title
;
Structure prediction by ZEFSAII (Michael W. Deem and Ramdas Pophale) SiO2 
 PCOD9521689
Probable space group: I M M M
;
_chemical_formula_sum "Si O2"
_cell_formula_units_Z 116
_cell_length_a 10.358375
_cell_length_b 27.481221
_cell_length_c 20.901747
_cell_angle_alpha 90.000000
_cell_angle_beta 90.000000
_cell_angle_gamma 90.000000
_cell_volume 5949.907867
_symmetry_space_group_name_H-M "I M M M"
_symmetry_group_IT_number 71
_symmetry_cell_setting 'orthorhombic'
loop_
_space_group_symop_operation_xyz
x,y,z
-x,-y,z
x,-y,-z
-x,y,-z
-x,-y,-z
x,y,-z
-x,y,z
x,-y,z
1/2+x,1/2+y,1/2+z
1/2-x,1/2-y,1/2+z
1/2+x,1/2-y,1/2-z
1/2-x,1/2+y,1/2-z
1/2-x,1/2-y,1/2-z
1/2+x,1/2+y,1/2-z
1/2-x,1/2+y,1/2+z
1/2+x,1/2-y,1/2+z
loop_
_atom_site_type_symbol
_atom_site_label
_atom_site_fract_x
_atom_site_fract_y
_atom_site_fract_z
Si Si1 0.781879 0.081891 0.799327
Si Si2 0.858798 0.819276 0.259848
Si Si3 0.354682 0.779537 0.924428
Si Si4 0.641743 0.058986 0.325033
Si Si5 0.852983 0.940682 0.426917
Si Si6 0.352074 0.228164 0.663590
Si Si7 0.348072 0.103727 0.072884
Si Si8 0.500000 0.500000 0.282146
O O1 0.838686 0.135240 0.786588
O O2 0.669544 0.075057 0.747095
O O3 0.731340 0.078048 0.871478
O O4 0.888000 0.042130 0.783145
O O5 0.735461 0.814354 0.305977
O O6 0.861414 0.770438 0.217364
O O7 0.000000 0.824068 0.291686
O O8 0.500000 0.767788 0.899288
O O9 0.238822 0.751235 0.890951
O O10 0.337836 0.837832 0.917067
O O11 0.354382 0.769602 0.000000
O O12 0.500000 0.074821 0.346301
O O13 0.752926 0.076005 0.373571
O O14 0.644886 0.000000 0.326030
O O15 0.821571 0.926079 0.500000
O O16 0.000000 0.925780 0.412308
O O17 0.852300 0.000000 0.426204
O O18 0.500000 0.215446 0.645985
O O19 0.500000 0.091749 0.077906
O O20 0.306189 0.092971 0.000000
#
# Coordination Sequence:
#
# PCOD9521689 Si02
#       8
#    16  16  16  16  16  16  16   4
#     4  12  22  40  60  85 119 159 214 272 320 381
#     4  10  21  36  57  81 118 154 193 246 311 370
#     4   9  17  32  57  89 125 166 209 249 299 375
#     4  10  21  33  51  79 110 146 192 247 305 360
#     4   8  15  28  49  75 102 135 175 223 283 354
#     4  10  20  34  55  90 122 155 196 243 306 379
#     4   9  19  37  62  88 117 162 216 271 328 380
#     4  12  28  40  63  86 117 174 222 268 350 378
#
# _framework density 19.496100999999999
#
# number of rings (size 3 to 8) (size 9 to 14) (size 15 to 20)
#    0.000    2.207    2.759    2.069    0.966    2.207 
#    0.000    2.414    0.000    1.655    0.000    3.862 
#    0.000    0.000    0.000    0.000    0.000    0.000 
#
# Total GULP energy -322981.080231 kJ/mol
# GULP energy per Si atom -5568.639314 kJ/mol
# Density = 1.945173 g / cm^3
# Si number density = 19.496101 Si / 1000 Ang^3
#
#
#
# Elastic Constant Matrix: (Units=GPa)
#
#
# Indices 1 2 3 4 5 6 
#
# 1 136.5562 10.1719 46.9423 0.0000 0.0000 0.0000
# 2 10.1719 26.4110 -6.3189 0.0000 0.0000 0.0000
# 3 46.9423 -6.3189 60.3530 0.0000 0.0000 0.0000
# 4 0.0000 0.0000 0.0000 14.5054 0.0000 0.0000
# 5 0.0000 0.0000 0.0000 0.0000 13.9357 0.0000
# 6 0.0000 0.0000 0.0000 0.0000 0.0000 37.6418
#
#
#
# Elastic Compliance Matrix: (Units=1/GPa)
#
#
# Indices 1 2 3 4 5 6 
#
# 1 0.010964 -0.006424 -0.009201 0.000000 0.000000 0.000000
# 2 -0.006424 0.042600 0.009457 0.000000 0.000000 0.000000
# 3 -0.009201 0.009457 0.024715 0.000000 0.000000 0.000000
# 4 0.000000 0.000000 0.000000 0.068940 0.000000 0.000000
# 5 0.000000 0.000000 0.000000 0.000000 0.071758 0.000000
# 6 0.000000 0.000000 0.000000 0.000000 0.000000 0.026566
#
#
# Mechanical properties :
#
#
# Convention : Reuss Voigt Hill
#
# Bulk Modulus (GPa) = 15.16444 36.10119 25.63281
# Shear Modulus (GPa) = 17.86602 24.71823 21.29212
#
# Velocity S-wave (km/s) = 3.03048 3.56456 3.30831
# Velocity P-wave (km/s) = 4.47662 5.95808 5.26967
#
# Compressibility (1/GPa) = 0.06594375
#
# Stress axis : x y z
#
# Youngs Moduli (GPa) = 91.20533 23.47432 40.46057
#
# Poissons Ratio (x) = 0.15080 0.37226
# Poissons Ratio (y) = 0.58590 -0.38262
# Poissons Ratio (z) = 0.83914 -0.22199
#
# Static dielectric constant tensor:
#      x y z
#    x 1.722500 0.000000 0.000000 
#    y 0.000000 1.680900 0.000000 
#    z 0.000000 0.000000 1.676200 
# 
# From -- ./inp_files/58079.got.cif
#   From: 2010.05.17/outbox.cif.g08.bks.cpg/sg71_30_cif.got.tgz:58079.got - 2010.06.03 16:22:01.
