data_PCOD9521394
_publ_section_title
;
Structure prediction by ZEFSAII (Michael W. Deem and Ramdas Pophale) SiO2 
 PCOD9521394
Probable space group: I M M M
;
_chemical_formula_sum "Si O2"
_cell_formula_units_Z 88
_cell_length_a 20.164750
_cell_length_b 8.872722
_cell_length_c 30.767240
_cell_angle_alpha 90.000000
_cell_angle_beta 90.000000
_cell_angle_gamma 90.000000
_cell_volume 5504.758310
_symmetry_space_group_name_H-M "I M M M"
_symmetry_group_IT_number 71
_symmetry_cell_setting 'orthorhombic'
loop_
_space_group_symop_operation_xyz
x,y,z
-x,-y,z
x,-y,-z
-x,y,-z
-x,-y,-z
x,y,-z
-x,y,z
x,-y,z
1/2+x,1/2+y,1/2+z
1/2-x,1/2-y,1/2+z
1/2+x,1/2-y,1/2-z
1/2-x,1/2+y,1/2-z
1/2-x,1/2-y,1/2-z
1/2+x,1/2+y,1/2-z
1/2-x,1/2+y,1/2+z
1/2+x,1/2-y,1/2+z
loop_
_atom_site_type_symbol
_atom_site_label
_atom_site_fract_x
_atom_site_fract_y
_atom_site_fract_z
Si Si1 0.713034 0.679490 0.207488
Si Si2 0.858888 0.679677 0.051019
Si Si3 0.072535 0.172463 0.818016
Si Si4 0.425037 0.177933 0.773426
Si Si5 0.000000 0.171787 0.947285
Si Si6 0.793367 0.823623 0.870874
O O1 0.718592 0.500000 0.210691
O O2 0.750000 0.750000 0.250000
O O3 0.636518 0.731215 0.207411
O O4 0.746502 0.739856 0.163408
O O5 0.859879 0.500000 0.056338
O O6 0.803135 0.751158 0.081916
O O7 0.931488 0.744653 0.063413
O O8 0.848076 0.714410 0.000000
O O9 0.077748 0.285936 0.777997
O O10 0.133635 0.188723 0.849577
O O11 0.000000 0.191659 0.838746
O O12 0.075380 0.000000 0.800459
O O13 0.500000 0.220482 0.787677
O O14 0.416162 0.000000 0.780780
O O15 0.000000 0.000000 0.930562
O O16 0.000000 0.164666 0.000000
O O17 0.775768 0.000000 0.873560
#
# Coordination Sequence:
#
# PCOD9521394 Si02
#       6
#    16  16  16  16   8  16
#     4  12  23  36  53  74 104 138 173 211 255 304
#     4  10  21  36  51  70  98 130 168 215 264 311
#     4   9  18  31  46  67  96 130 170 213 255 299
#     4  10  20  34  53  75 100 132 170 211 254 300
#     4   9  17  31  51  71  93 127 171 217 263 307
#     4  11  22  34  52  75  99 132 172 215 261 308
#
# _framework density 15.98617
#
# number of rings (size 3 to 8) (size 9 to 14) (size 15 to 20)
#    0.000    1.727    1.818    3.545    1.273    4.000 
#    0.000    0.000    0.000    0.000    0.000    0.000 
#    0.000    0.727    0.000    7.636    0.000    3.273 
#
# Total GULP energy -245564.606004 kJ/mol
# GULP energy per Si atom -5581.013773 kJ/mol
# Density = 1.594978 g / cm^3
# Si number density = 15.986170 Si / 1000 Ang^3
#
#
#
# Elastic Constant Matrix: (Units=GPa)
#
#
# Indices 1 2 3 4 5 6 
#
# 1 85.5892 58.8154 47.0292 0.0000 0.0000 0.0000
# 2 58.8154 111.1032 57.7522 0.0000 0.0000 0.0000
# 3 47.0292 57.7522 82.1921 0.0000 0.0000 0.0000
# 4 0.0000 0.0000 0.0000 24.3190 0.0000 0.0000
# 5 0.0000 0.0000 0.0000 0.0000 27.3983 0.0000
# 6 0.0000 0.0000 0.0000 0.0000 0.0000 25.8296
#
#
#
# Elastic Compliance Matrix: (Units=1/GPa)
#
#
# Indices 1 2 3 4 5 6 
#
# 1 0.020299 -0.007418 -0.006403 0.000000 0.000000 0.000000
# 2 -0.007418 0.016890 -0.007624 0.000000 0.000000 0.000000
# 3 -0.006403 -0.007624 0.021187 0.000000 0.000000 0.000000
# 4 0.000000 0.000000 0.000000 0.041120 0.000000 0.000000
# 5 0.000000 0.000000 0.000000 0.000000 0.036499 0.000000
# 6 0.000000 0.000000 0.000000 0.000000 0.000000 0.038715
#
#
# Mechanical properties :
#
#
# Convention : Reuss Voigt Hill
#
# Bulk Modulus (GPa) = 64.56587 67.34200 65.95394
# Shear Modulus (GPa) = 22.44552 23.19522 22.82037
#
# Velocity S-wave (km/s) = 3.75114 3.81327 3.78234
# Velocity P-wave (km/s) = 7.69660 7.84887 7.77311
#
# Compressibility (1/GPa) = 0.01548806
#
# Stress axis : x y z
#
# Youngs Moduli (GPa) = 49.26289 59.20606 47.19866
#
# Poissons Ratio (x) = 0.43917 0.30221
# Poissons Ratio (y) = 0.36541 0.35982
# Poissons Ratio (z) = 0.31543 0.45136
#
# Static dielectric constant tensor:
#      x y z
#    x 1.541470 0.000000 0.000000 
#    y 0.000000 1.547010 0.000000 
#    z 0.000000 0.000000 1.548040 
# 
# From -- ./inp_files/16633.got.cif
#   From: 2010.05.17/outbox.cif.g08.bks.cpg/sg71_9_cif.got.tgz:16633.got - 2010.06.03 16:22:01.
