data_PCOD9521683
_publ_section_title
;
Structure prediction by ZEFSAII (Michael W. Deem and Ramdas Pophale) SiO2 
 PCOD9521683
Probable space group: I M M M
;
_chemical_formula_sum "Si O2"
_cell_formula_units_Z 96
_cell_length_a 22.819825
_cell_length_b 25.056705
_cell_length_c 8.709520
_cell_angle_alpha 90.000000
_cell_angle_beta 90.000000
_cell_angle_gamma 90.000000
_cell_volume 4980.013159
_symmetry_space_group_name_H-M "I M M M"
_symmetry_group_IT_number 71
_symmetry_cell_setting 'orthorhombic'
loop_
_space_group_symop_operation_xyz
x,y,z
-x,-y,z
x,-y,-z
-x,y,-z
-x,-y,-z
x,y,-z
-x,y,z
x,-y,z
1/2+x,1/2+y,1/2+z
1/2-x,1/2-y,1/2+z
1/2+x,1/2-y,1/2-z
1/2-x,1/2+y,1/2-z
1/2-x,1/2-y,1/2-z
1/2+x,1/2+y,1/2-z
1/2-x,1/2+y,1/2+z
1/2+x,1/2-y,1/2+z
loop_
_atom_site_type_symbol
_atom_site_label
_atom_site_fract_x
_atom_site_fract_y
_atom_site_fract_z
Si Si1 0.936158 0.086535 0.687233
Si Si2 0.432198 0.184990 0.316715
Si Si3 0.342975 0.500000 0.812511
Si Si4 0.099526 0.799113 0.320393
Si Si5 0.762211 0.807680 0.678607
Si Si6 0.169803 0.388094 0.317502
Si Si7 0.207124 0.500000 0.184580
O O1 0.933639 0.087238 0.500000
O O2 0.932226 0.147844 0.737528
O O3 0.000000 0.064412 0.729838
O O4 0.881278 0.051048 0.737584
O O5 0.427467 0.180168 0.500000
O O6 0.500000 0.176090 0.272106
O O7 0.414233 0.244952 0.267963
O O8 0.387427 0.143679 0.240050
O O9 0.275569 0.500000 0.763300
O O10 0.342089 0.500000 0.000000
O O11 0.084367 0.790119 0.500000
O O12 0.168101 0.814013 0.313790
O O13 0.744353 0.808540 0.500000
O O14 0.750000 0.750000 0.750000
O O15 0.725437 0.852585 0.764904
O O16 0.168698 0.391846 0.500000
O O17 0.176679 0.446453 0.244919
O O18 0.206589 0.500000 0.000000
#
# Coordination Sequence:
#
# PCOD9521683 Si02
#       7
#    16  16   8  16  16  16   8
#     4   9  16  27  47  78 116 156 199 244 288 342
#     4  11  24  41  62  88 119 156 198 247 306 371
#     4   9  17  31  52  80 113 154 197 242 298 351
#     4  10  20  34  55  85 121 161 203 249 303 362
#     4  11  21  35  58  90 125 162 204 252 306 361
#     4  12  25  42  64  92 124 160 202 251 305 367
#     4  11  23  42  66  89 120 158 197 253 308 367
#
# _framework density 19.277056999999999
#
# number of rings (size 3 to 8) (size 9 to 14) (size 15 to 20)
#    0.000    1.500    1.667    4.500    0.000    6.333 
#    0.000    0.417    0.000    2.500    0.000    0.000 
#    0.000    6.667    0.000    0.000    0.000    0.000 
#
# Total GULP energy -268217.000397 kJ/mol
# GULP energy per Si atom -5587.854175 kJ/mol
# Density = 1.923318 g / cm^3
# Si number density = 19.277057 Si / 1000 Ang^3
#
#
#
# Elastic Constant Matrix: (Units=GPa)
#
#
# Indices 1 2 3 4 5 6 
#
# 1 108.7780 68.5216 43.1265 0.0000 0.0000 0.0000
# 2 68.5216 168.4348 48.0315 0.0000 0.0000 0.0000
# 3 43.1265 48.0315 78.5893 0.0000 0.0000 0.0000
# 4 0.0000 0.0000 0.0000 29.7893 0.0000 0.0000
# 5 0.0000 0.0000 0.0000 0.0000 18.2613 0.0000
# 6 0.0000 0.0000 0.0000 0.0000 0.0000 14.6947
#
#
#
# Elastic Compliance Matrix: (Units=1/GPa)
#
#
# Indices 1 2 3 4 5 6 
#
# 1 0.013826 -0.004191 -0.005025 0.000000 0.000000 0.000000
# 2 -0.004191 0.008461 -0.002871 0.000000 0.000000 0.000000
# 3 -0.005025 -0.002871 0.017237 0.000000 0.000000 0.000000
# 4 0.000000 0.000000 0.000000 0.033569 0.000000 0.000000
# 5 0.000000 0.000000 0.000000 0.000000 0.054761 0.000000
# 6 0.000000 0.000000 0.000000 0.000000 0.000000 0.068052
#
#
# Mechanical properties :
#
#
# Convention : Reuss Voigt Hill
#
# Bulk Modulus (GPa) = 65.15549 75.01790 70.08670
# Shear Modulus (GPa) = 22.20288 25.62388 23.91338
#
# Velocity S-wave (km/s) = 3.39747 3.64983 3.52591
# Velocity P-wave (km/s) = 7.01878 7.53404 7.28097
#
# Compressibility (1/GPa) = 0.01534790
#
# Stress axis : x y z
#
# Youngs Moduli (GPa) = 72.32943 118.19166 58.01592
#
# Poissons Ratio (x) = 0.49539 0.29154
# Poissons Ratio (y) = 0.30316 0.16656
# Poissons Ratio (z) = 0.36347 0.33932
#
# Static dielectric constant tensor:
#      x y z
#    x 1.709220 0.000000 0.000000 
#    y 0.000000 1.650870 0.000000 
#    z 0.000000 0.000000 1.657720 
# 
# From -- ./inp_files/12891.got.cif
#   From: 2010.05.17/outbox.cif.g08.bks.cpg/sg71_7_cif.got.tgz:12891.got - 2010.06.03 16:22:01.
