data_PCOD9521301
_publ_section_title
;
Structure prediction by ZEFSAII (Michael W. Deem and Ramdas Pophale) SiO2 
 PCOD9521301
Probable space group: I M M M
;
_chemical_formula_sum "Si O2"
_cell_formula_units_Z 116
_cell_length_a 23.396197
_cell_length_b 28.039496
_cell_length_c 9.534365
_cell_angle_alpha 90.000000
_cell_angle_beta 90.000000
_cell_angle_gamma 90.000000
_cell_volume 6254.710980
_symmetry_space_group_name_H-M "I M M M"
_symmetry_group_IT_number 71
_symmetry_cell_setting 'orthorhombic'
loop_
_space_group_symop_operation_xyz
x,y,z
-x,-y,z
x,-y,-z
-x,y,-z
-x,-y,-z
x,y,-z
-x,y,z
x,-y,z
1/2+x,1/2+y,1/2+z
1/2-x,1/2-y,1/2+z
1/2+x,1/2-y,1/2-z
1/2-x,1/2+y,1/2-z
1/2-x,1/2-y,1/2-z
1/2+x,1/2+y,1/2-z
1/2-x,1/2+y,1/2+z
1/2+x,1/2-y,1/2+z
loop_
_atom_site_type_symbol
_atom_site_label
_atom_site_fract_x
_atom_site_fract_y
_atom_site_fract_z
Si Si1 0.500000 0.500000 0.210726
Si Si2 0.637808 0.320553 0.165051
Si Si3 0.931048 0.553994 0.334277
Si Si4 0.260397 0.139728 0.335369
Si Si5 0.606668 0.571124 0.165881
Si Si6 0.278759 0.447092 0.335372
Si Si7 0.610630 0.145013 0.334538
Si Si8 0.435308 0.754416 0.668061
O O1 0.550258 0.541710 0.203639
O O2 0.704646 0.329226 0.201674
O O3 0.605891 0.371576 0.185643
O O4 0.608716 0.279996 0.255628
O O5 0.634629 0.309021 0.000000
O O6 0.918011 0.558504 0.500000
O O7 0.914357 0.500000 0.290172
O O8 0.902978 0.597073 0.249435
O O9 0.000000 0.557322 0.319046
O O10 0.252969 0.127150 0.500000
O O11 0.257739 0.092577 0.242030
O O12 0.323189 0.160850 0.318201
O O13 0.659625 0.554291 0.259974
O O14 0.618096 0.562826 0.000000
O O15 0.285220 0.436729 0.500000
O O16 0.254220 0.500000 0.320408
O O17 0.600863 0.135892 0.500000
O O18 0.573350 0.190412 0.290417
O O19 0.427051 0.752145 0.500000
O O20 0.500000 0.739392 0.700408
#
# Coordination Sequence:
#
# PCOD9521301 Si02
#       8
#     4  16  16  16  16  16  16  16
#     4  12  21  32  57  86 109 148 197 238 285 332
#     4   9  20  37  57  81 109 142 186 235 278 328
#     4   9  19  36  57  84 121 159 189 223 274 332
#     4   9  20  38  58  80 107 141 183 234 283 328
#     4  10  20  34  54  79 108 143 187 234 279 329
#     4  10  20  34  51  74 107 145 183 223 273 331
#     4  10  21  38  60  86 114 145 188 234 276 330
#     4  10  22  39  58  82 113 148 181 222 281 338
#
# _framework density 18.546019999999999
#
# number of rings (size 3 to 8) (size 9 to 14) (size 15 to 20)
#    0.000    2.345    0.690    2.690    0.966    6.621 
#    0.000    4.138    0.000    0.000    0.000    0.000 
#    0.000    0.000    0.000    0.000    0.000    0.000 
#
# Total GULP energy -322964.140292 kJ/mol
# GULP energy per Si atom -5568.347246 kJ/mol
# Density = 1.850381 g / cm^3
# Si number density = 18.546020 Si / 1000 Ang^3
#
#
#
# Elastic Constant Matrix: (Units=GPa)
#
#
# Indices 1 2 3 4 5 6 
#
# 1 53.2650 31.5044 23.4557 0.0000 0.0000 0.0000
# 2 31.5044 100.2774 40.6275 0.0000 0.0000 0.0000
# 3 23.4557 40.6275 32.8862 0.0000 0.0000 0.0000
# 4 0.0000 0.0000 0.0000 34.7934 0.0000 0.0000
# 5 0.0000 0.0000 0.0000 0.0000 16.4391 0.0000
# 6 0.0000 0.0000 0.0000 0.0000 0.0000 8.5942
#
#
#
# Elastic Compliance Matrix: (Units=1/GPa)
#
#
# Indices 1 2 3 4 5 6 
#
# 1 0.027467 -0.001386 -0.017878 0.000000 0.000000 0.000000
# 2 -0.001386 0.020035 -0.023763 0.000000 0.000000 0.000000
# 3 -0.017878 -0.023763 0.072516 0.000000 0.000000 0.000000
# 4 0.000000 0.000000 0.000000 0.028741 0.000000 0.000000
# 5 0.000000 0.000000 0.000000 0.000000 0.060831 0.000000
# 6 0.000000 0.000000 0.000000 0.000000 0.000000 0.116357
#
#
# Mechanical properties :
#
#
# Convention : Reuss Voigt Hill
#
# Bulk Modulus (GPa) = 29.44310 41.95598 35.69954
# Shear Modulus (GPa) = 11.81133 18.02142 14.91637
#
# Velocity S-wave (km/s) = 2.52636 3.12061 2.83908
# Velocity P-wave (km/s) = 4.94167 5.97127 5.48070
#
# Compressibility (1/GPa) = 0.03396382
#
# Stress axis : x y z
#
# Youngs Moduli (GPa) = 36.40787 49.91160 13.79002
#
# Poissons Ratio (x) = 0.06917 0.24654
# Poissons Ratio (y) = 0.05046 0.32769
# Poissons Ratio (z) = 0.65090 1.18606
#
# Static dielectric constant tensor:
#      x y z
#    x 1.638190 0.000000 0.000000 
#    y 0.000000 1.634760 0.000000 
#    z 0.000000 0.000000 1.619470 
# 
# From -- ./inp_files/13426.got.cif
#   From: 2010.05.17/outbox.cif.g08.bks.cpg/sg71_7_cif.got.tgz:13426.got - 2010.06.03 16:22:01.
