data_PCOD9521521
_publ_section_title
;
Structure prediction by ZEFSAII (Michael W. Deem and Ramdas Pophale) SiO2 
 PCOD9521521
Probable space group: I M M M
;
_chemical_formula_sum "Si O2"
_cell_formula_units_Z 88
_cell_length_a 7.742881
_cell_length_b 18.483330
_cell_length_c 28.096945
_cell_angle_alpha 90.000000
_cell_angle_beta 90.000000
_cell_angle_gamma 90.000000
_cell_volume 4021.072499
_symmetry_space_group_name_H-M "I M M M"
_symmetry_group_IT_number 71
_symmetry_cell_setting 'orthorhombic'
loop_
_space_group_symop_operation_xyz
x,y,z
-x,-y,z
x,-y,-z
-x,y,-z
-x,-y,-z
x,y,-z
-x,y,z
x,-y,z
1/2+x,1/2+y,1/2+z
1/2-x,1/2-y,1/2+z
1/2+x,1/2-y,1/2-z
1/2-x,1/2+y,1/2-z
1/2-x,1/2-y,1/2-z
1/2+x,1/2+y,1/2-z
1/2-x,1/2+y,1/2+z
1/2+x,1/2-y,1/2+z
loop_
_atom_site_type_symbol
_atom_site_label
_atom_site_fract_x
_atom_site_fract_y
_atom_site_fract_z
Si Si1 0.797324 0.500000 0.945231
Si Si2 0.300066 0.363322 0.121276
Si Si3 0.288154 0.580992 0.420384
Si Si4 0.196952 0.084945 0.813843
Si Si5 0.709174 0.672560 0.773185
Si Si6 0.708929 0.261629 0.551408
O O1 0.760821 0.428718 0.912921
O O2 0.000000 0.500000 0.951957
O O3 0.721315 0.500000 0.000000
O O4 0.500000 0.379810 0.128692
O O5 0.223791 0.348530 0.174199
O O6 0.279438 0.288332 0.092840
O O7 0.500000 0.578495 0.420672
O O8 0.233465 0.500000 0.435983
O O9 0.226658 0.593842 0.366163
O O10 0.238023 0.654224 0.446623
O O11 0.277768 0.119127 0.767523
O O12 0.000000 0.114341 0.817704
O O13 0.185764 0.000000 0.806293
O O14 0.500000 0.667556 0.776255
O O15 0.750000 0.750000 0.750000
O O16 0.758907 0.230931 0.500000
O O17 0.500000 0.260146 0.554874
#
# Coordination Sequence:
#
# PCOD9521521 Si02
#       6
#     8  16  16  16  16  16
#     4  11  25  45  67  89 115 153 205 263 318 371
#     4  11  24  39  59  87 118 154 195 243 302 363
#     4   8  14  26  47  78 110 141 181 228 278 328
#     4   8  14  26  47  71  98 134 171 207 254 315
#     4  10  21  35  55  82 113 149 186 228 277 336
#     4  10  20  34  54  79 109 147 190 239 293 347
#
# _framework density 21.884706999999999
#
# number of rings (size 3 to 8) (size 9 to 14) (size 15 to 20)
#    0.000    2.455    0.000    3.545    1.273    6.545 
#    0.000    1.818    0.000    0.545    0.000    6.364 
#    0.000    0.000    0.000    0.000    0.000    0.000 
#
# Total GULP energy -245140.405017 kJ/mol
# GULP energy per Si atom -5571.372841 kJ/mol
# Density = 2.183490 g / cm^3
# Si number density = 21.884707 Si / 1000 Ang^3
#
#
#
# Elastic Constant Matrix: (Units=GPa)
#
#
# Indices 1 2 3 4 5 6 
#
# 1 37.8880 2.1312 6.0253 0.0000 0.0000 0.0000
# 2 2.1312 92.1170 64.3351 0.0000 0.0000 0.0000
# 3 6.0253 64.3351 127.0394 0.0000 0.0000 0.0000
# 4 0.0000 0.0000 0.0000 -3.1789 0.0000 0.0000
# 5 0.0000 0.0000 0.0000 0.0000 20.5724 0.0000
# 6 0.0000 0.0000 0.0000 0.0000 0.0000 -20.4163
#
#
#
# Elastic Compliance Matrix: (Units=1/GPa)
#
#
# Indices 1 2 3 4 5 6 
#
# 1 0.026604 0.000411 -0.001470 0.000000 0.000000 0.000000
# 2 0.000411 0.016803 -0.008529 0.000000 0.000000 0.000000
# 3 -0.001470 -0.008529 0.012260 0.000000 0.000000 0.000000
# 4 0.000000 0.000000 0.000000 -0.314571 0.000000 0.000000
# 5 0.000000 0.000000 0.000000 0.000000 0.048609 0.000000
# 6 0.000000 0.000000 0.000000 0.000000 0.000000 -0.048980
#
#
# Mechanical properties :
#
#
# Convention : Reuss Voigt Hill
#
# Bulk Modulus (GPa) = 27.40307 44.66971 36.03639
# Shear Modulus (GPa) = -21.93600 11.69895 -5.11852
#
# Velocity S-wave (km/s) = -3.16942 2.31459 -1.53099
# Velocity P-wave (km/s) = 0.91916 5.25346 3.65745
#
# Compressibility (1/GPa) = 0.03649226
#
# Stress axis : x y z
#
# Youngs Moduli (GPa) = 37.58797 59.51406 81.56345
#
# Poissons Ratio (x) = -0.02447 0.11990
# Poissons Ratio (y) = -0.01545 0.69563
# Poissons Ratio (z) = 0.05526 0.50758
#
# Static dielectric constant tensor:
#      x y z
#    x 1.889340 0.000000 0.000000 
#    y 0.000000 1.855380 0.000000 
#    z 0.000000 0.000000 1.739360 
# 
# From -- ./inp_files/68044.got.cif
#   From: 2010.05.17/outbox.cif.g08.bks.cpg/sg71_35_cif.got.tgz:68044.got - 2010.06.03 16:22:01.
