data_PCOD9521650
_publ_section_title
;
Structure prediction by ZEFSAII (Michael W. Deem and Ramdas Pophale) SiO2 
 PCOD9521650
Probable space group: I M M M
;
_chemical_formula_sum "Si O2"
_cell_formula_units_Z 116
_cell_length_a 27.649585
_cell_length_b 29.175506
_cell_length_c 8.024639
_cell_angle_alpha 90.000000
_cell_angle_beta 90.000000
_cell_angle_gamma 90.000000
_cell_volume 6473.401115
_symmetry_space_group_name_H-M "I M M M"
_symmetry_group_IT_number 71
_symmetry_cell_setting 'orthorhombic'
loop_
_space_group_symop_operation_xyz
x,y,z
-x,-y,z
x,-y,-z
-x,y,-z
-x,-y,-z
x,y,-z
-x,y,z
x,-y,z
1/2+x,1/2+y,1/2+z
1/2-x,1/2-y,1/2+z
1/2+x,1/2-y,1/2-z
1/2-x,1/2+y,1/2-z
1/2-x,1/2-y,1/2-z
1/2+x,1/2+y,1/2-z
1/2-x,1/2+y,1/2+z
1/2+x,1/2-y,1/2+z
loop_
_atom_site_type_symbol
_atom_site_label
_atom_site_fract_x
_atom_site_fract_y
_atom_site_fract_z
Si Si1 0.700578 0.051268 0.803393
Si Si2 0.141243 0.855669 0.799961
Si Si3 0.075076 0.306353 0.805605
Si Si4 0.311383 0.448628 0.800918
Si Si5 0.944241 0.794144 0.697458
Si Si6 0.231933 0.200941 0.810394
Si Si7 0.000000 0.675249 0.500000
Si Si8 0.321565 0.852279 0.690933
O O1 0.758027 0.058065 0.775708
O O2 0.673695 0.093464 0.718651
O O3 0.688875 0.000000 0.740537
O O4 0.690797 0.052678 0.000000
O O5 0.154138 0.907494 0.751833
O O6 0.091146 0.836059 0.732315
O O7 0.184964 0.823271 0.731543
O O8 0.140178 0.853397 0.000000
O O9 0.074114 0.251160 0.791314
O O10 0.128656 0.326126 0.777032
O O11 0.041482 0.322852 0.652158
O O12 0.061460 0.318220 0.000000
O O13 0.327891 0.500000 0.753514
O O14 0.305621 0.447280 0.000000
O O15 0.944072 0.783474 0.500000
O O16 0.000000 0.802655 0.745133
O O17 0.250000 0.250000 0.750000
O O18 0.277206 0.166672 0.797835
O O19 0.218074 0.208364 0.000000
O O20 0.307483 0.843466 0.500000
#
# Coordination Sequence:
#
# PCOD9521650 Si02
#       8
#    16  16  16  16  16  16   4  16
#     4  10  20  34  55  82 115 152 190 236 286 343
#     4  11  23  36  54  82 112 152 192 235 292 345
#     4  11  23  39  60  89 119 154 199 250 295 348
#     4  10  20  35  56  81 110 148 192 236 285 347
#     4  11  22  39  60  84 113 151 197 245 296 345
#     4  11  23  36  51  75 115 156 190 228 275 348
#     4  12  22  40  64  86 117 158 203 244 302 340
#     4  11  23  36  56  84 117 153 191 234 289 346
#
# _framework density 17.919484000000001
#
# number of rings (size 3 to 8) (size 9 to 14) (size 15 to 20)
#    0.000    1.241    2.759    3.517    1.931    7.448 
#    0.000    0.000    0.000    0.414    0.000    3.862 
#    0.000    2.207    0.000    0.000    0.000    0.000 
#
# Total GULP energy -323209.324134 kJ/mol
# GULP energy per Si atom -5572.574554 kJ/mol
# Density = 1.787870 g / cm^3
# Si number density = 17.919484 Si / 1000 Ang^3
#
#
#
# Elastic Constant Matrix: (Units=GPa)
#
#
# Indices 1 2 3 4 5 6 
#
# 1 84.1127 60.9343 14.1562 0.0000 0.0000 0.0000
# 2 60.9343 112.3863 13.7167 0.0000 0.0000 0.0000
# 3 14.1562 13.7167 58.4686 0.0000 0.0000 0.0000
# 4 0.0000 0.0000 0.0000 27.2656 0.0000 0.0000
# 5 0.0000 0.0000 0.0000 0.0000 28.3181 0.0000
# 6 0.0000 0.0000 0.0000 0.0000 0.0000 11.9310
#
#
#
# Elastic Compliance Matrix: (Units=1/GPa)
#
#
# Indices 1 2 3 4 5 6 
#
# 1 0.019889 -0.010496 -0.002353 0.000000 0.000000 0.000000
# 2 -0.010496 0.014699 -0.000907 0.000000 0.000000 0.000000
# 3 -0.002353 -0.000907 0.017886 0.000000 0.000000 0.000000
# 4 0.000000 0.000000 0.000000 0.036676 0.000000 0.000000
# 5 0.000000 0.000000 0.000000 0.000000 0.035313 0.000000
# 6 0.000000 0.000000 0.000000 0.000000 0.000000 0.083815
#
#
# Mechanical properties :
#
#
# Convention : Reuss Voigt Hill
#
# Bulk Modulus (GPa) = 40.06222 48.06467 44.06344
# Shear Modulus (GPa) = 20.48244 24.58029 22.53137
#
# Velocity S-wave (km/s) = 3.38454 3.70768 3.54978
# Velocity P-wave (km/s) = 6.13830 6.72383 6.43773
#
# Compressibility (1/GPa) = 0.02496117
#
# Stress axis : x y z
#
# Youngs Moduli (GPa) = 50.27999 68.02963 55.91053
#
# Poissons Ratio (x) = 0.71405 0.13156
# Poissons Ratio (y) = 0.52775 0.05072
# Poissons Ratio (z) = 0.11831 0.06172
#
# Static dielectric constant tensor:
#      x y z
#    x 1.483740 0.000000 0.000000 
#    y 0.000000 1.629560 0.000000 
#    z 0.000000 0.000000 1.652760 
# 
# From -- ./inp_files/15611.got.cif
#   From: 2010.05.17/outbox.cif.g08.bks.cpg/sg71_8_cif.got.tgz:15611.got - 2010.06.03 16:22:01.
