data_PCOD9521258
_publ_section_title
;
Structure prediction by ZEFSAII (Michael W. Deem and Ramdas Pophale) SiO2 
 PCOD9521258
Probable space group: I M M M
;
_chemical_formula_sum "Si O2"
_cell_formula_units_Z 96
_cell_length_a 14.577343
_cell_length_b 25.041226
_cell_length_c 13.776228
_cell_angle_alpha 90.000000
_cell_angle_beta 90.000000
_cell_angle_gamma 90.000000
_cell_volume 5028.799058
_symmetry_space_group_name_H-M "I M M M"
_symmetry_group_IT_number 71
_symmetry_cell_setting 'orthorhombic'
loop_
_space_group_symop_operation_xyz
x,y,z
-x,-y,z
x,-y,-z
-x,y,-z
-x,-y,-z
x,y,-z
-x,y,z
x,-y,z
1/2+x,1/2+y,1/2+z
1/2-x,1/2-y,1/2+z
1/2+x,1/2-y,1/2-z
1/2-x,1/2+y,1/2-z
1/2-x,1/2-y,1/2-z
1/2+x,1/2+y,1/2-z
1/2-x,1/2+y,1/2+z
1/2+x,1/2-y,1/2+z
loop_
_atom_site_type_symbol
_atom_site_label
_atom_site_fract_x
_atom_site_fract_y
_atom_site_fract_z
Si Si1 0.159453 0.500000 0.612218
Si Si2 0.101963 0.181975 0.117470
Si Si3 0.899181 0.500000 0.819800
Si Si4 0.722887 0.784728 0.383834
Si Si5 0.727335 0.882044 0.115959
Si Si6 0.393032 0.885022 0.617014
Si Si7 0.896072 0.716127 0.618457
O O1 0.124879 0.500000 0.500000
O O2 0.093131 0.500000 0.703782
O O3 0.213655 0.444783 0.627534
O O4 0.144863 0.240228 0.132004
O O5 0.177336 0.140563 0.156323
O O6 0.000000 0.176133 0.157193
O O7 0.096132 0.175483 0.000000
O O8 0.858462 0.556450 0.851640
O O9 0.000000 0.500000 0.866570
O O10 0.734760 0.789596 0.500000
O O11 0.679282 0.840171 0.349964
O O12 0.819259 0.759321 0.348613
O O13 0.643364 0.842822 0.143628
O O14 0.732716 0.873785 0.000000
O O15 0.396486 0.882672 0.500000
O O16 0.500000 0.877390 0.650477
O O17 0.898628 0.718774 0.500000
O O18 0.000000 0.724202 0.653363
#
# Coordination Sequence:
#
# PCOD9521258 Si02
#       7
#     8  16   8  16  16  16  16
#     4  10  20  34  48  62  86 120 159 199 229 261
#     4   8  12  20  37  63  92 117 145 185 229 274
#     4  10  21  33  46  68  94 121 154 188 226 268
#     4   8  13  21  38  66  94 120 149 178 218 272
#     4   8  15  26  40  60  86 117 153 191 232 272
#     4   9  16  28  47  71  99 125 147 176 217 270
#     4   8  13  22  37  60  90 120 152 190 225 261
#
# _framework density 19.090045
#
# number of rings (size 3 to 8) (size 9 to 14) (size 15 to 20)
#    0.000    3.500    0.000    2.750    0.000    3.833 
#    0.000    2.083    0.000    6.500    0.000    5.250 
#    0.000    4.000    0.000    0.000    0.000    0.000 
#
# Total GULP energy -267338.991742 kJ/mol
# GULP energy per Si atom -5569.562328 kJ/mol
# Density = 1.904659 g / cm^3
# Si number density = 19.090045 Si / 1000 Ang^3
#
#
#
# Elastic Constant Matrix: (Units=GPa)
#
#
# Indices 1 2 3 4 5 6 
#
# 1 157.5633 85.5365 7.5323 0.0000 0.0000 0.0000
# 2 85.5365 165.2413 4.1560 0.0003 0.0000 0.0001
# 3 7.5323 4.1560 49.7684 0.0006 0.0000 0.0001
# 4 0.0000 0.0003 0.0006 -35.6567 0.0000 0.0001
# 5 0.0000 0.0000 0.0000 0.0000 9.8233 0.0002
# 6 0.0000 0.0001 0.0001 0.0001 0.0002 63.2590
#
#
#
# Elastic Compliance Matrix: (Units=1/GPa)
#
#
# Indices 1 2 3 4 5 6 
#
# 1 0.008873 -0.004569 -0.000961 0.000000 0.000000 0.000000
# 2 -0.004569 0.008417 -0.000011 0.000000 0.000000 0.000000
# 3 -0.000961 -0.000011 0.020240 0.000000 0.000000 0.000000
# 4 0.000000 0.000000 0.000000 -0.028045 0.000000 0.000000
# 5 0.000000 0.000000 0.000000 0.000000 0.101799 0.000000
# 6 0.000000 0.000000 0.000000 0.000000 0.000000 0.015808
#
#
# Mechanical properties :
#
#
# Convention : Reuss Voigt Hill
#
# Bulk Modulus (GPa) = 37.81245 63.00251 50.40748
# Shear Modulus (GPa) = 34.01598 25.84166 29.92882
#
# Velocity S-wave (km/s) = 4.22580 3.68322 3.96380
# Velocity P-wave (km/s) = 6.60759 7.15280 6.88560
#
# Compressibility (1/GPa) = 0.02644632
#
# Stress axis : x y z
#
# Youngs Moduli (GPa) = 112.70262 118.80597 49.40824
#
# Poissons Ratio (x) = 0.54281 0.04750
# Poissons Ratio (y) = 0.51492 0.00056
# Poissons Ratio (z) = 0.10835 0.00136
#
# Static dielectric constant tensor:
#      x y z
#    x 1.667260 0.000000 0.000000 
#    y 0.000000 1.680020 0.000000 
#    z 0.000000 0.000000 1.720820 
# 
# From -- ./inp_files/34767.got.cif
#   From: 2010.05.17/outbox.cif.g08.bks.cpg/sg71_18_cif.got.tgz:34767.got - 2010.06.03 16:22:01.
