data_PCOD9521746
_publ_section_title
;
Structure prediction by ZEFSAII (Michael W. Deem and Ramdas Pophale) SiO2 
 PCOD9521746
Probable space group: I M M M
;
_chemical_formula_sum "Si O2"
_cell_formula_units_Z 72
_cell_length_a 20.908174
_cell_length_b 8.423961
_cell_length_c 20.662869
_cell_angle_alpha 90.000000
_cell_angle_beta 90.000000
_cell_angle_gamma 90.000000
_cell_volume 3639.343727
_symmetry_space_group_name_H-M "I M M M"
_symmetry_group_IT_number 71
_symmetry_cell_setting 'orthorhombic'
loop_
_space_group_symop_operation_xyz
x,y,z
-x,-y,z
x,-y,-z
-x,y,-z
-x,-y,-z
x,y,-z
-x,y,z
x,-y,z
1/2+x,1/2+y,1/2+z
1/2-x,1/2-y,1/2+z
1/2+x,1/2-y,1/2-z
1/2-x,1/2+y,1/2-z
1/2-x,1/2-y,1/2-z
1/2+x,1/2+y,1/2-z
1/2-x,1/2+y,1/2+z
1/2+x,1/2-y,1/2+z
loop_
_atom_site_type_symbol
_atom_site_label
_atom_site_fract_x
_atom_site_fract_y
_atom_site_fract_z
Si Si1 0.622127 0.807526 0.360860
Si Si2 0.241780 0.684948 0.322543
Si Si3 0.071021 0.692572 0.000000
Si Si4 0.861724 0.191797 0.573842
Si Si5 0.000000 0.691561 0.772924
Si Si6 0.500000 0.308672 0.874205
O O1 0.688254 0.721207 0.349449
O O2 0.603159 0.764671 0.433443
O O3 0.564178 0.763292 0.312457
O O4 0.630326 0.000000 0.355846
O O5 0.227268 0.500000 0.318294
O O6 0.250000 0.750000 0.250000
O O7 0.188340 0.757893 0.370467
O O8 0.067773 0.500000 0.000000
O O9 0.000000 0.757185 0.000000
O O10 0.845624 0.244353 0.500000
O O11 0.933744 0.245955 0.592623
O O12 0.861966 0.000000 0.573151
O O13 0.000000 0.500000 0.769505
O O14 0.000000 0.759685 0.700925
O O15 0.500000 0.500000 0.878195
#
# Coordination Sequence:
#
# PCOD9521746 Si02
#       6
#    16  16   8  16   8   8
#     4  10  20  36  60  89 120 158 204 248 299 357
#     4  12  26  43  62  88 124 163 207 254 304 360
#     4   9  16  32  59  89 119 156 199 244 291 357
#     4  10  22  42  67  93 122 159 201 247 305 369
#     4  10  20  34  57  89 122 157 202 250 297 356
#     4  10  21  38  63  91 119 151 196 247 301 363
#
# _framework density 19.783787
#
# number of rings (size 3 to 8) (size 9 to 14) (size 15 to 20)
#    0.000    1.667    1.111    3.667    1.556    7.111 
#    0.000    0.000    0.000    2.667    0.000    0.000 
#    0.000    0.000    0.000    0.000    0.000    0.000 
#
# Total GULP energy -200944.033246 kJ/mol
# GULP energy per Si atom -5581.778701 kJ/mol
# Density = 1.973876 g / cm^3
# Si number density = 19.783787 Si / 1000 Ang^3
#
#
#
# Elastic Constant Matrix: (Units=GPa)
#
#
# Indices 1 2 3 4 5 6 
#
# 1 137.3769 23.9035 80.9060 0.0000 0.0000 0.0000
# 2 23.9035 29.4255 30.7003 0.0000 0.0000 0.0000
# 3 80.9060 30.7003 182.4413 0.0000 0.0000 0.0000
# 4 0.0000 0.0000 0.0000 30.5375 0.0000 0.0000
# 5 0.0000 0.0000 0.0000 0.0000 53.1571 0.0000
# 6 0.0000 0.0000 0.0000 0.0000 0.0000 -1.7592
#
#
#
# Elastic Compliance Matrix: (Units=1/GPa)
#
#
# Indices 1 2 3 4 5 6 
#
# 1 0.010295 -0.004366 -0.003831 0.000000 0.000000 0.000000
# 2 -0.004366 0.043073 -0.005312 0.000000 0.000000 0.000000
# 3 -0.003831 -0.005312 0.008074 0.000000 0.000000 0.000000
# 4 0.000000 0.000000 0.000000 0.032747 0.000000 0.000000
# 5 0.000000 0.000000 0.000000 0.000000 0.018812 0.000000
# 6 0.000000 0.000000 0.000000 0.000000 0.000000 -0.568427
#
#
# Mechanical properties :
#
#
# Convention : Reuss Voigt Hill
#
# Bulk Modulus (GPa) = 29.04939 68.91815 48.98377
# Shear Modulus (GPa) = -11.99230 30.63598 9.32184
#
# Velocity S-wave (km/s) = -2.46472 3.93942 2.17304
# Velocity P-wave (km/s) = 2.57207 7.45676 5.57758
#
# Compressibility (1/GPa) = 0.03442413
#
# Stress axis : x y z
#
# Youngs Moduli (GPa) = 97.13415 23.21638 123.85683
#
# Poissons Ratio (x) = 0.10137 0.47446
# Poissons Ratio (y) = 0.42413 0.65790
# Poissons Ratio (z) = 0.37209 0.12332
#
# Static dielectric constant tensor:
#      x y z
#    x 1.703750 0.000000 0.000000 
#    y 0.000000 1.694420 0.000000 
#    z 0.000000 0.000000 1.891970 
# 
# From -- ./inp_files/60389.got.cif
#   From: 2010.05.17/outbox.cif.g08.bks.cpg/sg71_31_cif.got.tgz:60389.got - 2010.06.03 16:22:01.
