data_PCOD9521399
_publ_section_title
;
Structure prediction by ZEFSAII (Michael W. Deem and Ramdas Pophale) SiO2 
 PCOD9521399
Probable space group: I M M M
;
_chemical_formula_sum "Si O2"
_cell_formula_units_Z 88
_cell_length_a 16.122264
_cell_length_b 25.379262
_cell_length_c 12.274315
_cell_angle_alpha 90.000000
_cell_angle_beta 90.000000
_cell_angle_gamma 90.000000
_cell_volume 5022.295732
_symmetry_space_group_name_H-M "I M M M"
_symmetry_group_IT_number 71
_symmetry_cell_setting 'orthorhombic'
loop_
_space_group_symop_operation_xyz
x,y,z
-x,-y,z
x,-y,-z
-x,y,-z
-x,-y,-z
x,y,-z
-x,y,z
x,-y,z
1/2+x,1/2+y,1/2+z
1/2-x,1/2-y,1/2+z
1/2+x,1/2-y,1/2-z
1/2-x,1/2+y,1/2-z
1/2-x,1/2-y,1/2-z
1/2+x,1/2+y,1/2-z
1/2-x,1/2+y,1/2+z
1/2+x,1/2-y,1/2+z
loop_
_atom_site_type_symbol
_atom_site_label
_atom_site_fract_x
_atom_site_fract_y
_atom_site_fract_z
Si Si1 0.324783 0.155424 0.626165
Si Si2 0.903785 0.298660 0.500000
Si Si3 0.097032 0.258717 0.271642
Si Si4 0.127050 0.850042 0.628191
Si Si5 0.899851 0.557894 0.257841
Si Si6 0.000000 0.940199 0.368877
Si Si7 0.096005 0.424071 0.500000
O O1 0.350020 0.153779 0.500000
O O2 0.352614 0.210920 0.679102
O O3 0.226017 0.147524 0.632311
O O4 0.365865 0.107458 0.692298
O O5 0.866876 0.279007 0.612605
O O6 0.903701 0.361132 0.500000
O O7 0.000000 0.280303 0.500000
O O8 0.100613 0.196156 0.289045
O O9 0.000000 0.274721 0.261511
O O10 0.104551 0.837538 0.500000
O O11 0.079975 0.904056 0.657488
O O12 0.879373 0.500000 0.211248
O O13 0.868943 0.559272 0.383382
O O14 0.000000 0.562606 0.261019
O O15 0.000000 0.944630 0.500000
O O16 0.000000 0.000000 0.325032
O O17 0.000000 0.441706 0.500000
#
# Coordination Sequence:
#
# PCOD9521399 Si02
#       7
#    16   8  16  16  16   8   8
#     4  11  24  36  48  76 115 150 180 215 265 328
#     4   9  16  25  52  83  98 128 168 219 267 313
#     4  11  19  33  57  80 107 139 180 220 267 330
#     4  10  20  35  56  80 108 139 175 224 277 329
#     4  10  20  34  53  75 103 142 184 225 266 316
#     4   9  18  34  58  86 109 135 178 231 283 328
#     4   9  15  30  51  80 102 124 178 228 271 299
#
# _framework density 17.521865999999999
#
# number of rings (size 3 to 8) (size 9 to 14) (size 15 to 20)
#    0.000    1.909    3.636    1.364    0.000    3.636 
#    0.000    2.727    0.000    0.000    0.000    0.000 
#    0.000    0.727    0.000    0.000    0.000    0.000 
#
# Total GULP energy -245180.685733 kJ/mol
# GULP energy per Si atom -5572.288312 kJ/mol
# Density = 1.748199 g / cm^3
# Si number density = 17.521866 Si / 1000 Ang^3
#
#
#
# Elastic Constant Matrix: (Units=GPa)
#
#
# Indices 1 2 3 4 5 6 
#
# 1 60.1420 36.2614 24.0207 0.0000 0.0000 0.0000
# 2 36.2614 146.1645 47.2706 0.0000 0.0000 0.0000
# 3 24.0207 47.2706 92.2800 -0.0001 0.0000 0.0000
# 4 0.0000 0.0000 -0.0001 -6.0487 0.0000 0.0000
# 5 0.0000 0.0000 0.0000 0.0000 14.9747 0.0000
# 6 0.0000 0.0000 0.0000 0.0000 0.0000 11.6133
#
#
#
# Elastic Compliance Matrix: (Units=1/GPa)
#
#
# Indices 1 2 3 4 5 6 
#
# 1 0.020332 -0.003994 -0.003246 0.000000 0.000000 0.000000
# 2 -0.003994 0.008985 -0.003563 0.000000 0.000000 0.000000
# 3 -0.003246 -0.003563 0.013507 0.000000 0.000000 0.000000
# 4 0.000000 0.000000 0.000000 -0.165324 0.000000 0.000000
# 5 0.000000 0.000000 0.000000 0.000000 0.066779 0.000000
# 6 0.000000 0.000000 0.000000 0.000000 0.000000 0.086109
#
#
# Mechanical properties :
#
#
# Convention : Reuss Voigt Hill
#
# Bulk Modulus (GPa) = 47.13260 57.07687 52.10474
# Shear Modulus (GPa) = 84.65003 16.84344 50.74673
#
# Velocity S-wave (km/s) = 6.95816 3.10382 5.38747
# Velocity P-wave (km/s) = 9.56621 6.74465 8.27655
#
# Compressibility (1/GPa) = 0.02121674
#
# Stress axis : x y z
#
# Youngs Moduli (GPa) = 49.18314 111.30006 74.03750
#
# Poissons Ratio (x) = 0.44455 0.24036
# Poissons Ratio (y) = 0.19645 0.26378
# Poissons Ratio (z) = 0.15967 0.39653
#
# Static dielectric constant tensor:
#      x y z
#    x 1.599500 0.000000 0.000000 
#    y 0.000000 1.631060 0.000000 
#    z 0.000000 0.000000 1.604930 
# 
# From -- ./inp_files/22381.got.cif
#   From: 2010.05.17/outbox.cif.g08.bks.cpg/sg71_12_cif.got.tgz:22381.got - 2010.06.03 16:22:01.
