data_PCOD9521000
_publ_section_title
;
Structure prediction by ZEFSAII (Michael W. Deem and Ramdas Pophale) SiO2 
 PCOD9521000
Probable space group: I M M M
;
_chemical_formula_sum "Si O2"
_cell_formula_units_Z 88
_cell_length_a 18.943409
_cell_length_b 27.417755
_cell_length_c 9.611240
_cell_angle_alpha 90.000000
_cell_angle_beta 90.000000
_cell_angle_gamma 90.000000
_cell_volume 4991.941065
_symmetry_space_group_name_H-M "I M M M"
_symmetry_group_IT_number 71
_symmetry_cell_setting 'orthorhombic'
loop_
_space_group_symop_operation_xyz
x,y,z
-x,-y,z
x,-y,-z
-x,y,-z
-x,-y,-z
x,y,-z
-x,y,z
x,-y,z
1/2+x,1/2+y,1/2+z
1/2-x,1/2-y,1/2+z
1/2+x,1/2-y,1/2-z
1/2-x,1/2+y,1/2-z
1/2-x,1/2-y,1/2-z
1/2+x,1/2+y,1/2-z
1/2-x,1/2+y,1/2+z
1/2+x,1/2-y,1/2+z
loop_
_atom_site_type_symbol
_atom_site_label
_atom_site_fract_x
_atom_site_fract_y
_atom_site_fract_z
Si Si1 0.578969 0.355764 0.669009
Si Si2 0.082654 0.740952 0.161776
Si Si3 0.000000 0.443040 0.830479
Si Si4 0.346048 0.941127 0.339775
Si Si5 0.705149 0.212167 0.840447
Si Si6 0.775059 0.105817 0.160258
O O1 0.579324 0.357780 0.500000
O O2 0.500000 0.369623 0.716086
O O3 0.590242 0.298371 0.701018
O O4 0.644815 0.388450 0.715655
O O5 0.130218 0.709596 0.263703
O O6 0.000000 0.729083 0.169338
O O7 0.105093 0.735884 0.000000
O O8 0.076626 0.422657 0.787891
O O9 0.000000 0.500000 0.788404
O O10 0.000000 0.442025 0.000000
O O11 0.337405 0.924902 0.500000
O O12 0.279803 0.924745 0.249912
O O13 0.349825 0.000000 0.340435
O O14 0.750000 0.250000 0.750000
O O15 0.744407 0.160670 0.840893
O O16 0.698087 0.228593 0.000000
O O17 0.777042 0.088345 0.000000
#
# Coordination Sequence:
#
# PCOD9521000 Si02
#       6
#    16  16   8  16  16  16
#     4   8  14  28  50  71  94 127 167 207 242 283
#     4   9  17  32  52  70  93 131 176 214 249 293
#     4   7  12  28  53  75  95 123 161 201 237 283
#     4   9  18  34  56  78  99 126 163 206 249 294
#     4  11  21  33  49  71 103 137 170 210 254 299
#     4  10  20  33  50  75 102 130 165 204 252 302
#
# _framework density 17.628412999999998
#
# number of rings (size 3 to 8) (size 9 to 14) (size 15 to 20)
#    0.000    2.818    1.818    2.727    0.000    2.182 
#    1.636    0.455    0.000    2.727    0.000    3.818 
#    0.000    0.000    0.000    0.000    0.000    0.000 
#
# Total GULP energy -245059.792377 kJ/mol
# GULP energy per Si atom -5569.540736 kJ/mol
# Density = 1.758829 g / cm^3
# Si number density = 17.628413 Si / 1000 Ang^3
#
#
#
# Elastic Constant Matrix: (Units=GPa)
#
#
# Indices 1 2 3 4 5 6 
#
# 1 153.2057 17.4799 45.0619 0.0000 0.0000 0.0000
# 2 17.4799 9.0982 12.3847 0.0000 0.0000 0.0000
# 3 45.0619 12.3847 60.1893 0.0000 0.0000 0.0000
# 4 0.0000 0.0000 0.0000 23.2205 0.0000 0.0000
# 5 0.0000 0.0000 0.0000 0.0000 28.6307 0.0000
# 6 0.0000 0.0000 0.0000 0.0000 0.0000 30.3919
#
#
#
# Elastic Compliance Matrix: (Units=1/GPa)
#
#
# Indices 1 2 3 4 5 6 
#
# 1 0.009159 -0.011477 -0.004495 0.000000 0.000000 0.000000
# 2 -0.011477 0.167058 -0.025782 0.000000 0.000000 0.000000
# 3 -0.004495 -0.025782 0.025285 0.000000 0.000000 0.000000
# 4 0.000000 0.000000 0.000000 0.043065 0.000000 0.000000
# 5 0.000000 0.000000 0.000000 0.000000 0.034928 0.000000
# 6 0.000000 0.000000 0.000000 0.000000 0.000000 0.032904
#
#
# Mechanical properties :
#
#
# Convention : Reuss Voigt Hill
#
# Bulk Modulus (GPa) = 8.47509 41.37181 24.92345
# Shear Modulus (GPa) = 11.48800 26.28640 18.88720
#
# Velocity S-wave (km/s) = 2.55556 3.86572 3.27679
# Velocity P-wave (km/s) = 3.67776 6.59127 5.33717
#
# Compressibility (1/GPa) = 0.11799280
#
# Stress axis : x y z
#
# Youngs Moduli (GPa) = 109.18383 5.98596 39.54964
#
# Poissons Ratio (x) = 0.06870 0.17779
# Poissons Ratio (y) = 1.25313 1.01965
# Poissons Ratio (z) = 0.49082 0.15433
#
# Static dielectric constant tensor:
#      x y z
#    x 1.666160 0.000000 0.000000 
#    y 0.000000 1.599550 0.000000 
#    z 0.000000 0.000000 1.597610 
# 
# From -- ./inp_files/8728.got.cif
#   From: 2010.05.17/outbox.cif.g08.bks.cpg/sg71_5_cif.got.tgz:8728.got - 2010.06.03 16:22:01.
