data_PCOD9521996
_publ_section_title
;
Structure prediction by ZEFSAII (Michael W. Deem and Ramdas Pophale) SiO2 
 PCOD9521996
Probable space group: I M M M
;
_chemical_formula_sum "Si O2"
_cell_formula_units_Z 84
_cell_length_a 12.943185
_cell_length_b 12.579266
_cell_length_c 27.039415
_cell_angle_alpha 90.000000
_cell_angle_beta 90.000000
_cell_angle_gamma 90.000000
_cell_volume 4402.443093
_symmetry_space_group_name_H-M "I M M M"
_symmetry_group_IT_number 71
_symmetry_cell_setting 'orthorhombic'
loop_
_space_group_symop_operation_xyz
x,y,z
-x,-y,z
x,-y,-z
-x,y,-z
-x,-y,-z
x,y,-z
-x,y,z
x,-y,z
1/2+x,1/2+y,1/2+z
1/2-x,1/2-y,1/2+z
1/2+x,1/2-y,1/2-z
1/2-x,1/2+y,1/2-z
1/2-x,1/2-y,1/2-z
1/2+x,1/2+y,1/2-z
1/2-x,1/2+y,1/2+z
1/2+x,1/2-y,1/2+z
loop_
_atom_site_type_symbol
_atom_site_label
_atom_site_fract_x
_atom_site_fract_y
_atom_site_fract_z
Si Si1 0.877592 0.382024 0.410567
Si Si2 0.614571 0.712224 0.286473
Si Si3 0.687741 0.655511 0.942456
Si Si4 0.500000 0.500000 0.915069
Si Si5 0.168149 0.618122 0.705965
Si Si6 0.617451 0.881153 0.625675
O O1 0.839045 0.500000 0.424838
O O2 0.828487 0.281706 0.437136
O O3 0.858591 0.369978 0.351694
O O4 0.000000 0.379600 0.419567
O O5 0.500000 0.665368 0.290032
O O6 0.708642 0.630675 0.286651
O O7 0.621050 0.787282 0.238235
O O8 0.631794 0.792351 0.332457
O O9 0.591734 0.592562 0.918198
O O10 0.794360 0.628731 0.915180
O O11 0.688844 0.625934 0.000000
O O12 0.134065 0.500000 0.721435
O O13 0.500000 0.869962 0.606211
O O14 0.625527 0.000000 0.647707
#
# Coordination Sequence:
#
# PCOD9521996 Si02
#       6
#    16  16  16   4  16  16
#     4  10  21  37  58  84 114 151 194 235 283 342
#     4  10  20  35  57  82 112 146 183 227 278 337
#     4  12  23  38  59  84 119 153 192 241 298 354
#     4  12  25  40  60  88 120 160 188 236 316 360
#     4  10  20  35  57  82 112 146 183 227 278 337
#     4  10  21  37  58  84 114 151 194 235 283 342
#
# _framework density 19.080314999999999
#
# number of rings (size 3 to 8) (size 9 to 14) (size 15 to 20)
#    0.000    1.524    3.810    2.000    0.000    3.048 
#    0.000    1.905    0.000    0.571    0.000    1.333 
#    0.000    0.000    0.000    0.000    0.000    0.000 
#
# Total GULP energy -233945.704913 kJ/mol
# GULP energy per Si atom -5570.135831 kJ/mol
# Density = 1.903689 g / cm^3
# Si number density = 19.080315 Si / 1000 Ang^3
#
#
#
# Elastic Constant Matrix: (Units=GPa)
#
#
# Indices 1 2 3 4 5 6 
#
# 1 100.6017 14.1004 11.8189 0.0000 0.0000 0.0000
# 2 14.1004 94.2527 12.1791 0.0000 0.0000 0.0000
# 3 11.8189 12.1791 24.4750 0.0000 0.0000 0.0000
# 4 0.0000 0.0000 0.0000 -8.7641 0.0000 0.0000
# 5 0.0000 0.0000 0.0000 0.0000 -5.6979 0.0000
# 6 0.0000 0.0000 0.0000 0.0000 0.0000 19.0755
#
#
#
# Elastic Compliance Matrix: (Units=1/GPa)
#
#
# Indices 1 2 3 4 5 6 
#
# 1 0.010624 -0.000990 -0.004637 0.000000 0.000000 0.000000
# 2 -0.000990 0.011431 -0.005210 0.000000 0.000000 0.000000
# 3 -0.004637 -0.005210 0.045690 0.000000 0.000000 0.000000
# 4 0.000000 0.000000 0.000000 -0.114102 0.000000 0.000000
# 5 0.000000 0.000000 0.000000 0.000000 -0.175504 0.000000
# 6 0.000000 0.000000 0.000000 0.000000 0.000000 0.052423
#
#
# Mechanical properties :
#
#
# Convention : Reuss Voigt Hill
#
# Bulk Modulus (GPa) = 21.70635 32.83625 27.27130
# Shear Modulus (GPa) = -37.76291 13.00476 -12.37907
#
# Velocity S-wave (km/s) = -4.45360 2.61354 -2.54989
# Velocity P-wave (km/s) = 3.87879 5.13365 2.37795
#
# Compressibility (1/GPa) = 0.04606946
#
# Stress axis : x y z
#
# Youngs Moduli (GPa) = 94.12839 87.48035 21.88659
#
# Poissons Ratio (x) = 0.08661 0.10150
# Poissons Ratio (y) = 0.09320 0.11403
# Poissons Ratio (z) = 0.43652 0.45579
#
# Static dielectric constant tensor:
#      x y z
#    x 1.653690 0.000000 0.000000 
#    y 0.000000 1.692620 0.000000 
#    z 0.000000 0.000000 1.654120 
# 
# From -- ./inp_files/29762.got.cif
#   From: 2010.05.17/outbox.cif.g08.bks.cpg/sg71_15_cif.got.tgz:29762.got - 2010.06.03 16:22:01.
