data_PCOD9521556
_publ_section_title
;
Structure prediction by ZEFSAII (Michael W. Deem and Ramdas Pophale) SiO2 
 PCOD9521556
Probable space group: I M M M
;
_chemical_formula_sum "Si O2"
_cell_formula_units_Z 96
_cell_length_a 8.997544
_cell_length_b 24.821267
_cell_length_c 25.434454
_cell_angle_alpha 90.000000
_cell_angle_beta 90.000000
_cell_angle_gamma 90.000000
_cell_volume 5680.287853
_symmetry_space_group_name_H-M "I M M M"
_symmetry_group_IT_number 71
_symmetry_cell_setting 'orthorhombic'
loop_
_space_group_symop_operation_xyz
x,y,z
-x,-y,z
x,-y,-z
-x,y,-z
-x,-y,-z
x,y,-z
-x,y,z
x,-y,z
1/2+x,1/2+y,1/2+z
1/2-x,1/2-y,1/2+z
1/2+x,1/2-y,1/2-z
1/2-x,1/2+y,1/2-z
1/2-x,1/2-y,1/2-z
1/2+x,1/2+y,1/2-z
1/2-x,1/2+y,1/2+z
1/2+x,1/2-y,1/2+z
loop_
_atom_site_type_symbol
_atom_site_label
_atom_site_fract_x
_atom_site_fract_y
_atom_site_fract_z
Si Si1 0.821253 0.435787 0.500000
Si Si2 0.178760 0.692908 0.807589
Si Si3 0.679612 0.914142 0.636596
Si Si4 0.322368 0.190378 0.813526
Si Si5 0.323098 0.500000 0.061940
Si Si6 0.676306 0.000000 0.720690
Si Si7 0.673641 0.608195 0.394914
Si Si8 0.834927 0.000000 0.172580
O O1 0.776985 0.500000 0.500000
O O2 0.757847 0.405141 0.551032
O O3 0.000000 0.434427 0.500000
O O4 0.218351 0.647258 0.850085
O O5 0.262811 0.748596 0.817638
O O6 0.211637 0.674109 0.747394
O O7 0.000000 0.701597 0.809618
O O8 0.500000 0.917201 0.631159
O O9 0.752690 0.946933 0.589061
O O10 0.726461 0.948042 0.688165
O O11 0.500000 0.188213 0.819859
O O12 0.246017 0.153213 0.857358
O O13 0.500000 0.500000 0.070716
O O14 0.293690 0.500000 0.000000
O O15 0.500000 0.000000 0.718135
O O16 0.722397 0.000000 0.780123
O O17 0.500000 0.620845 0.404900
O O18 0.680913 0.552582 0.362591
O O19 0.000000 0.000000 0.196238
#
# Coordination Sequence:
#
# PCOD9521556 Si02
#       8
#     8  16  16  16   8   8  16   8
#     4  11  23  39  59  81 103 135 181 228 275 322
#     4   9  18  34  55  80 111 144 178 217 264 318
#     4   9  18  33  53  76 104 139 176 213 256 314
#     4  10  20  34  54  81 111 143 179 219 264 315
#     4  10  21  35  52  77 106 135 170 216 269 315
#     4   9  17  29  47  75 109 139 167 208 261 312
#     4  11  22  37  55  76 106 142 180 222 269 319
#     4  10  21  32  47  74 106 138 173 213 259 315
#
# _framework density 16.900552000000001
#
# number of rings (size 3 to 8) (size 9 to 14) (size 15 to 20)
#    0.000    2.167    0.833    3.000    0.000    6.333 
#    0.000    0.000    1.833    0.000    0.000    0.000 
#    0.000    0.000    0.000    0.000    0.000    0.000 
#
# Total GULP energy -267644.858675 kJ/mol
# GULP energy per Si atom -5575.934556 kJ/mol
# Density = 1.686209 g / cm^3
# Si number density = 16.900552 Si / 1000 Ang^3
#
#
#
# Elastic Constant Matrix: (Units=GPa)
#
#
# Indices 1 2 3 4 5 6 
#
# 1 64.5956 52.8907 57.0852 0.0000 0.0000 0.0000
# 2 52.8907 106.1600 62.1763 0.0000 0.0000 0.0000
# 3 57.0852 62.1763 103.0492 0.0000 0.0000 0.0000
# 4 0.0000 0.0000 0.0000 81.2262 0.0000 0.0000
# 5 0.0000 0.0000 0.0000 0.0000 39.9701 0.0000
# 6 0.0000 0.0000 0.0000 0.0000 0.0000 50.8092
#
#
#
# Elastic Compliance Matrix: (Units=1/GPa)
#
#
# Indices 1 2 3 4 5 6 
#
# 1 0.035695 -0.009593 -0.013986 0.000000 0.000000 0.000000
# 2 -0.009593 0.017146 -0.005031 0.000000 0.000000 0.000000
# 3 -0.013986 -0.005031 0.020487 0.000000 0.000000 0.000000
# 4 0.000000 0.000000 0.000000 0.012311 0.000000 0.000000
# 5 0.000000 0.000000 0.000000 0.000000 0.025019 0.000000
# 6 0.000000 0.000000 0.000000 0.000000 0.000000 0.019681
#
#
# Mechanical properties :
#
#
# Convention : Reuss Voigt Hill
#
# Bulk Modulus (GPa) = 62.07768 68.67881 65.37824
# Shear Modulus (GPa) = 25.91643 41.17794 33.54718
#
# Velocity S-wave (km/s) = 3.92020 4.94143 4.46014
# Velocity P-wave (km/s) = 7.56978 8.56050 8.08034
#
# Compressibility (1/GPa) = 0.01610885
#
# Stress axis : x y z
#
# Youngs Moduli (GPa) = 28.01521 58.32399 48.81079
#
# Poissons Ratio (x) = 0.55948 0.68265
# Poissons Ratio (y) = 0.26874 0.24558
# Poissons Ratio (z) = 0.39181 0.29344
#
# Static dielectric constant tensor:
#      x y z
#    x 1.576130 0.000000 0.000000 
#    y 0.000000 1.566090 0.000000 
#    z 0.000000 0.000000 1.550610 
# 
# From -- ./inp_files/57819.got.cif
#   From: 2010.05.17/outbox.cif.g08.bks.cpg/sg71_29_cif.got.tgz:57819.got - 2010.06.03 16:22:01.
