data_PCOD9521285
_publ_section_title
;
Structure prediction by ZEFSAII (Michael W. Deem and Ramdas Pophale) SiO2 
 PCOD9521285
Probable space group: I M M M
;
_chemical_formula_sum "Si O2"
_cell_formula_units_Z 104
_cell_length_a 33.569546
_cell_length_b 9.395329
_cell_length_c 19.547919
_cell_angle_alpha 90.000000
_cell_angle_beta 90.000000
_cell_angle_gamma 90.000000
_cell_volume 6165.353622
_symmetry_space_group_name_H-M "I M M M"
_symmetry_group_IT_number 71
_symmetry_cell_setting 'orthorhombic'
loop_
_space_group_symop_operation_xyz
x,y,z
-x,-y,z
x,-y,-z
-x,y,-z
-x,-y,-z
x,y,-z
-x,y,z
x,-y,z
1/2+x,1/2+y,1/2+z
1/2-x,1/2-y,1/2+z
1/2+x,1/2-y,1/2-z
1/2-x,1/2+y,1/2-z
1/2-x,1/2-y,1/2-z
1/2+x,1/2+y,1/2-z
1/2-x,1/2+y,1/2+z
1/2+x,1/2-y,1/2+z
loop_
_atom_site_type_symbol
_atom_site_label
_atom_site_fract_x
_atom_site_fract_y
_atom_site_fract_z
Si Si1 0.046996 0.329516 0.692380
Si Si2 0.262976 0.337018 0.583303
Si Si3 0.813870 0.836289 0.583266
Si Si4 0.596243 0.671339 0.919879
Si Si5 0.000000 0.673751 0.078585
Si Si6 0.078213 0.326840 0.161035
Si Si7 0.657108 0.170616 0.419047
O O1 0.051444 0.500000 0.684093
O O2 0.064688 0.248849 0.627572
O O3 0.070751 0.284883 0.760702
O O4 0.000000 0.301441 0.702144
O O5 0.261776 0.336690 0.500000
O O6 0.265227 0.500000 0.606016
O O7 0.222353 0.261551 0.606905
O O8 0.302374 0.249145 0.601805
O O9 0.813487 0.836853 0.500000
O O10 0.858516 0.789444 0.602055
O O11 0.807807 0.000000 0.604821
O O12 0.593194 0.500000 0.914412
O O13 0.591286 0.707792 0.000000
O O14 0.960055 0.719989 0.117156
O O15 0.000000 0.500000 0.079657
O O16 0.000000 0.718562 0.000000
O O17 0.078078 0.500000 0.159648
O O18 0.119338 0.282410 0.125799
O O19 0.649581 0.198368 0.500000
O O20 0.662100 0.000000 0.412181
#
# Coordination Sequence:
#
# PCOD9521285 Si02
#       7
#    16  16  16  16   8  16  16
#     4  10  20  34  51  71  99 132 161 195 244 297
#     4   9  16  25  40  66  99 130 157 190 236 286
#     4   8  14  27  47  69  93 120 151 191 239 286
#     4   9  19  35  54  76  99 123 156 200 244 286
#     4   9  14  22  42  70  96 123 160 208 251 281
#     4   9  16  28  44  66  97 129 162 202 245 286
#     4   9  16  26  43  68  96 128 167 205 239 278
#
# _framework density 16.868456999999999
#
# number of rings (size 3 to 8) (size 9 to 14) (size 15 to 20)
#    0.000    3.000    0.769    1.846    0.000    5.231 
#    0.000    3.846    0.000    0.923    0.000    0.000 
#    0.000    3.692    0.000    0.000    0.000    0.000 
#
# Total GULP energy -289657.211026 kJ/mol
# GULP energy per Si atom -5570.330981 kJ/mol
# Density = 1.683006 g / cm^3
# Si number density = 16.868457 Si / 1000 Ang^3
#
#
#
# Elastic Constant Matrix: (Units=GPa)
#
#
# Indices 1 2 3 4 5 6 
#
# 1 82.3821 38.2185 40.3863 0.0000 0.0000 0.0000
# 2 38.2185 32.2054 24.4374 0.0000 0.0000 0.0000
# 3 40.3863 24.4374 66.3310 0.0000 0.0000 0.0000
# 4 0.0000 0.0000 0.0000 9.5760 0.0000 0.0000
# 5 0.0000 0.0000 0.0000 0.0000 -5.3801 0.0000
# 6 0.0000 0.0000 0.0000 0.0000 0.0000 17.7924
#
#
#
# Elastic Compliance Matrix: (Units=1/GPa)
#
#
# Indices 1 2 3 4 5 6 
#
# 1 0.029142 -0.029314 -0.006943 0.000000 0.000000 0.000000
# 2 -0.029314 0.072587 -0.008894 0.000000 0.000000 0.000000
# 3 -0.006943 -0.008894 0.022580 0.000000 0.000000 0.000000
# 4 0.000000 0.000000 0.000000 0.104428 0.000000 0.000000
# 5 0.000000 0.000000 0.000000 0.000000 -0.185869 0.000000
# 6 0.000000 0.000000 0.000000 0.000000 0.000000 0.056204
#
#
# Mechanical properties :
#
#
# Convention : Reuss Voigt Hill
#
# Bulk Modulus (GPa) = 29.40680 43.00032 36.20356
# Shear Modulus (GPa) = 24.91148 9.58939 17.25044
#
# Velocity S-wave (km/s) = 3.84710 2.38687 3.20135
# Velocity P-wave (km/s) = 6.09954 5.75700 5.93075
#
# Compressibility (1/GPa) = 0.03400574
#
# Stress axis : x y z
#
# Youngs Moduli (GPa) = 34.31482 13.77655 44.28667
#
# Poissons Ratio (x) = 0.40385 0.30750
# Poissons Ratio (y) = 1.00592 0.39388
# Poissons Ratio (z) = 0.23826 0.12253
#
# Static dielectric constant tensor:
#      x y z
#    x 1.566460 0.000000 0.000000 
#    y 0.000000 1.558720 0.000000 
#    z 0.000000 0.000000 1.557920 
# 
# From -- ./inp_files/56721.got.cif
#   From: 2010.05.17/outbox.cif.g08.bks.cpg/sg71_29_cif.got.tgz:56721.got - 2010.06.03 16:22:01.
