data_PCOD9521244
_publ_section_title
;
Structure prediction by ZEFSAII (Michael W. Deem and Ramdas Pophale) SiO2 
 PCOD9521244
Probable space group: I M M M
;
_chemical_formula_sum "Si O2"
_cell_formula_units_Z 64
_cell_length_a 14.514139
_cell_length_b 19.428398
_cell_length_c 10.584192
_cell_angle_alpha 90.000000
_cell_angle_beta 90.000000
_cell_angle_gamma 90.000000
_cell_volume 2984.598931
_symmetry_space_group_name_H-M "I M M M"
_symmetry_group_IT_number 71
_symmetry_cell_setting 'orthorhombic'
loop_
_space_group_symop_operation_xyz
x,y,z
-x,-y,z
x,-y,-z
-x,y,-z
-x,-y,-z
x,y,-z
-x,y,z
x,-y,z
1/2+x,1/2+y,1/2+z
1/2-x,1/2-y,1/2+z
1/2+x,1/2-y,1/2-z
1/2-x,1/2+y,1/2-z
1/2-x,1/2-y,1/2-z
1/2+x,1/2+y,1/2-z
1/2-x,1/2+y,1/2+z
1/2+x,1/2-y,1/2+z
loop_
_atom_site_type_symbol
_atom_site_label
_atom_site_fract_x
_atom_site_fract_y
_atom_site_fract_z
Si Si1 0.000000 0.920251 0.301189
Si Si2 0.500000 0.282606 0.638407
Si Si3 0.167284 0.696634 0.765242
Si Si4 0.894772 0.364872 0.500000
Si Si5 0.797587 0.076360 0.000000
Si Si6 0.200641 0.919994 0.285096
O O1 0.103486 0.917416 0.358031
O O2 0.000000 0.847049 0.230917
O O3 0.000000 0.000000 0.244763
O O4 0.500000 0.313545 0.500000
O O5 0.412150 0.233673 0.657446
O O6 0.250000 0.750000 0.750000
O O7 0.124971 0.677913 0.627750
O O8 0.215843 0.628991 0.824276
O O9 0.813870 0.421309 0.500000
O O10 0.000000 0.389127 0.500000
O O11 0.821897 0.104156 0.861086
O O12 0.836394 0.000000 0.000000
O O13 0.229320 0.000000 0.279401
#
# Coordination Sequence:
#
# PCOD9521244 Si02
#       6
#     8   8  16   8   8  16
#     4  10  20  33  55  89 121 149 183 235 305 369
#     4  12  26  38  58  92 121 155 197 244 296 353
#     4  11  22  38  58  84 119 155 197 241 290 352
#     4  10  20  35  55  79 110 150 193 237 286 338
#     4   8  16  28  46  76 111 147 181 224 287 352
#     4   9  18  32  53  81 116 153 190 235 293 352
#
# _framework density 21.443417
#
# number of rings (size 3 to 8) (size 9 to 14) (size 15 to 20)
#    0.000    2.000    3.750    0.000    3.500    0.500 
#    0.000    0.625    0.000    1.500    0.000    3.500 
#    0.000    0.250    0.000    0.000    0.000    0.000 
#
# Total GULP energy -178140.577806 kJ/mol
# GULP energy per Si atom -5566.893056 kJ/mol
# Density = 2.139461 g / cm^3
# Si number density = 21.443417 Si / 1000 Ang^3
#
#
#
# Elastic Constant Matrix: (Units=GPa)
#
#
# Indices 1 2 3 4 5 6 
#
# 1 152.5369 44.3801 5.3526 0.0000 0.0000 0.0000
# 2 44.3801 128.7501 7.3686 0.0000 0.0000 0.0000
# 3 5.3526 7.3686 55.8750 0.0000 0.0000 0.0000
# 4 0.0000 0.0000 0.0000 -0.8707 0.0000 0.0000
# 5 0.0000 0.0000 0.0000 0.0000 -54.7796 0.0000
# 6 0.0000 0.0000 0.0000 0.0000 0.0000 38.0849
#
#
#
# Elastic Compliance Matrix: (Units=1/GPa)
#
#
# Indices 1 2 3 4 5 6 
#
# 1 0.007294 -0.002493 -0.000370 0.000000 0.000000 0.000000
# 2 -0.002493 0.008678 -0.000906 0.000000 0.000000 0.000000
# 3 -0.000370 -0.000906 0.018052 0.000000 0.000000 0.000000
# 4 0.000000 0.000000 0.000000 -1.148485 0.000000 0.000000
# 5 0.000000 0.000000 0.000000 0.000000 -0.018255 0.000000
# 6 0.000000 0.000000 0.000000 0.000000 0.000000 0.026257
#
#
# Mechanical properties :
#
#
# Convention : Reuss Voigt Hill
#
# Bulk Modulus (GPa) = 37.75454 50.15162 43.95308
# Shear Modulus (GPa) = -4.58677 15.15763 5.28543
#
# Velocity S-wave (km/s) = -1.46412 2.66158 1.57168
# Velocity P-wave (km/s) = 3.84534 5.73446 4.88214
#
# Compressibility (1/GPa) = 0.02648688
#
# Stress axis : x y z
#
# Youngs Moduli (GPa) = 137.09650 115.23142 55.39565
#
# Poissons Ratio (x) = 0.28728 0.02049
# Poissons Ratio (y) = 0.34180 0.05017
# Poissons Ratio (z) = 0.05072 0.10436
#
# Static dielectric constant tensor:
#      x y z
#    x 1.786580 0.000000 0.000000 
#    y 0.000000 1.766970 0.000000 
#    z 0.000000 0.000000 1.826960 
# 
# From -- ./inp_files/34002.got.cif
#   From: 2010.05.17/outbox.cif.g08.bks.cpg/sg71_18_cif.got.tgz:34002.got - 2010.06.03 16:22:01.
