data_PCOD9521291
_publ_section_title
;
Structure prediction by ZEFSAII (Michael W. Deem and Ramdas Pophale) SiO2 
 PCOD9521291
Probable space group: I M M M
;
_chemical_formula_sum "Si O2"
_cell_formula_units_Z 104
_cell_length_a 23.913783
_cell_length_b 8.074818
_cell_length_c 28.848099
_cell_angle_alpha 90.000000
_cell_angle_beta 90.000000
_cell_angle_gamma 90.000000
_cell_volume 5570.551918
_symmetry_space_group_name_H-M "I M M M"
_symmetry_group_IT_number 71
_symmetry_cell_setting 'orthorhombic'
loop_
_space_group_symop_operation_xyz
x,y,z
-x,-y,z
x,-y,-z
-x,y,-z
-x,-y,-z
x,y,-z
-x,y,z
x,-y,z
1/2+x,1/2+y,1/2+z
1/2-x,1/2-y,1/2+z
1/2+x,1/2-y,1/2-z
1/2-x,1/2+y,1/2-z
1/2-x,1/2-y,1/2-z
1/2+x,1/2+y,1/2-z
1/2-x,1/2+y,1/2+z
1/2+x,1/2-y,1/2+z
loop_
_atom_site_type_symbol
_atom_site_label
_atom_site_fract_x
_atom_site_fract_y
_atom_site_fract_z
Si Si1 0.937275 0.797209 0.734090
Si Si2 0.238658 0.698350 0.696425
Si Si3 0.931909 0.692179 0.000000
Si Si4 0.359512 0.697478 0.683370
Si Si5 0.435699 0.798968 0.599420
Si Si6 0.564008 0.800983 0.052832
Si Si7 0.624985 0.303257 0.144641
O O1 0.890478 0.737930 0.770444
O O2 0.920207 0.742533 0.682706
O O3 0.000000 0.744708 0.746850
O O4 0.936772 0.000000 0.734909
O O5 0.234147 0.500000 0.695634
O O6 0.250000 0.750000 0.750000
O O7 0.296992 0.758050 0.674055
O O8 0.184895 0.762329 0.668330
O O9 0.915343 0.764916 0.049264
O O10 0.914016 0.500000 0.000000
O O11 0.000000 0.690730 0.000000
O O12 0.355084 0.500000 0.689717
O O13 0.398719 0.736076 0.640701
O O14 0.500000 0.748087 0.606059
O O15 0.434912 0.000000 0.598312
O O16 0.500000 0.742942 0.063463
O O17 0.607405 0.756627 0.093573
O O18 0.562122 0.000000 0.051299
O O19 0.577857 0.744108 0.000000
O O20 0.621390 0.500000 0.142913
#
# Coordination Sequence:
#
# PCOD9521291 Si02
#       7
#    16  16   8  16  16  16  16
#     4   9  17  30  48  73 107 141 169 205 260 321
#     4  11  22  38  57  77 103 141 187 229 271 322
#     4   7  12  26  47  69  97 131 161 195 244 299
#     4  10  20  34  51  72 102 139 175 212 262 317
#     4   9  17  30  50  76 103 132 168 209 257 310
#     4   9  19  37  60  87 120 154 186 227 285 345
#     4  11  21  35  56  83 112 146 188 230 274 329
#
# _framework density 18.669604
#
# number of rings (size 3 to 8) (size 9 to 14) (size 15 to 20)
#    0.000    2.385    1.538    3.231    0.000    3.385 
#    0.000    1.154    1.692    4.154    0.000    0.000 
#    0.000    0.000    0.000    0.000    0.000    0.000 
#
# Total GULP energy -289684.149306 kJ/mol
# GULP energy per Si atom -5570.849025 kJ/mol
# Density = 1.862711 g / cm^3
# Si number density = 18.669604 Si / 1000 Ang^3
#
#
#
# Elastic Constant Matrix: (Units=GPa)
#
#
# Indices 1 2 3 4 5 6 
#
# 1 102.4466 5.5981 54.5018 0.0000 0.0000 0.0000
# 2 5.5981 14.9672 6.4277 0.0000 0.0000 0.0000
# 3 54.5018 6.4277 136.5421 0.0000 0.0000 0.0000
# 4 0.0000 0.0000 0.0000 37.0733 0.0000 0.0000
# 5 0.0000 0.0000 0.0000 0.0000 14.3421 0.0000
# 6 0.0000 0.0000 0.0000 0.0000 0.0000 16.8277
#
#
#
# Elastic Compliance Matrix: (Units=1/GPa)
#
#
# Indices 1 2 3 4 5 6 
#
# 1 0.012490 -0.002583 -0.004864 0.000000 0.000000 0.000000
# 2 -0.002583 0.068726 -0.002204 0.000000 0.000000 0.000000
# 3 -0.004864 -0.002204 0.009369 0.000000 0.000000 0.000000
# 4 0.000000 0.000000 0.000000 0.026974 0.000000 0.000000
# 5 0.000000 0.000000 0.000000 0.000000 0.069725 0.000000
# 6 0.000000 0.000000 0.000000 0.000000 0.000000 0.059426
#
#
# Mechanical properties :
#
#
# Convention : Reuss Voigt Hill
#
# Bulk Modulus (GPa) = 14.02866 43.00123 28.51495
# Shear Modulus (GPa) = 17.25496 26.14382 21.69939
#
# Velocity S-wave (km/s) = 3.04341 3.74617 3.41293
# Velocity P-wave (km/s) = 4.45873 6.46487 5.55314
#
# Compressibility (1/GPa) = 0.07128262
#
# Stress axis : x y z
#
# Youngs Moduli (GPa) = 80.06471 14.55061 106.73551
#
# Poissons Ratio (x) = 0.03758 0.51915
# Poissons Ratio (y) = 0.20679 0.23528
# Poissons Ratio (z) = 0.38942 0.03207
#
# Static dielectric constant tensor:
#      x y z
#    x 1.665200 0.000000 0.000000 
#    y 0.000000 1.675840 0.000000 
#    z 0.000000 0.000000 1.680890 
# 
# From -- ./inp_files/66807.got.cif
#   From: 2010.05.17/outbox.cif.g08.bks.cpg/sg71_34_cif.got.tgz:66807.got - 2010.06.03 16:22:01.
