data_PCOD9521799
_publ_section_title
;
Structure prediction by ZEFSAII (Michael W. Deem and Ramdas Pophale) SiO2 
 PCOD9521799
Probable space group: I M M M
;
_chemical_formula_sum "Si O2"
_cell_formula_units_Z 88
_cell_length_a 14.463979
_cell_length_b 12.306299
_cell_length_c 26.904831
_cell_angle_alpha 90.000000
_cell_angle_beta 90.000000
_cell_angle_gamma 90.000000
_cell_volume 4789.007462
_symmetry_space_group_name_H-M "I M M M"
_symmetry_group_IT_number 71
_symmetry_cell_setting 'orthorhombic'
loop_
_space_group_symop_operation_xyz
x,y,z
-x,-y,z
x,-y,-z
-x,y,-z
-x,-y,-z
x,y,-z
-x,y,z
x,-y,z
1/2+x,1/2+y,1/2+z
1/2-x,1/2-y,1/2+z
1/2+x,1/2-y,1/2-z
1/2-x,1/2+y,1/2-z
1/2-x,1/2-y,1/2-z
1/2+x,1/2+y,1/2-z
1/2-x,1/2+y,1/2+z
1/2+x,1/2-y,1/2+z
loop_
_atom_site_type_symbol
_atom_site_label
_atom_site_fract_x
_atom_site_fract_y
_atom_site_fract_z
Si Si1 0.678876 0.693891 0.211768
Si Si2 0.500000 0.870189 0.323167
Si Si3 0.305026 0.119292 0.376782
Si Si4 0.500000 0.621470 0.059872
Si Si5 0.000000 0.125361 0.769252
Si Si6 0.317273 0.238101 0.941080
Si Si7 0.608485 0.115466 0.857203
O O1 0.750000 0.750000 0.250000
O O2 0.738359 0.628858 0.171217
O O3 0.595653 0.630699 0.238256
O O4 0.632593 0.790354 0.180448
O O5 0.592239 0.866137 0.356117
O O6 0.500000 0.750843 0.294238
O O7 0.500000 0.000000 0.301256
O O8 0.271893 0.205521 0.417356
O O9 0.295016 0.000000 0.399206
O O10 0.500000 0.500000 0.081160
O O11 0.406123 0.685151 0.072049
O O12 0.500000 0.614002 0.000000
O O13 0.000000 0.000000 0.792946
O O14 0.338038 0.132201 0.908752
O O15 0.313278 0.223915 0.000000
O O16 0.500000 0.117537 0.867845
O O17 0.633003 0.000000 0.834088
#
# Coordination Sequence:
#
# PCOD9521799 Si02
#       7
#    16   8  16   8   8  16  16
#     4  11  22  39  57  85 122 156 197 240 303 360
#     4  10  22  42  60  83 118 159 203 254 309 367
#     4  10  21  37  59  83 112 150 194 242 296 359
#     4   9  16  27  47  74 104 138 173 214 276 347
#     4  12  24  39  61  93 123 159 207 259 306 362
#     4  10  20  35  53  81 115 146 187 236 296 356
#     4  10  21  36  56  81 113 153 197 239 286 351
#
# _framework density 18.375415
#
# number of rings (size 3 to 8) (size 9 to 14) (size 15 to 20)
#    0.000    1.727    3.636    1.091    0.000    3.636 
#    0.000    4.091    0.000    1.636    0.000    0.000 
#    0.000    4.000    0.000    0.000    0.000    0.000 
#
# Total GULP energy -244976.535678 kJ/mol
# GULP energy per Si atom -5567.648538 kJ/mol
# Density = 1.833359 g / cm^3
# Si number density = 18.375415 Si / 1000 Ang^3
#
#
#
# Elastic Constant Matrix: (Units=GPa)
#
#
# Indices 1 2 3 4 5 6 
#
# 1 88.3124 23.6760 12.3550 0.0000 0.0000 0.0000
# 2 23.6760 107.8881 18.7475 0.0000 0.0000 0.0000
# 3 12.3550 18.7475 58.1994 0.0000 0.0000 0.0000
# 4 0.0000 0.0000 0.0000 8.3679 0.0000 0.0000
# 5 0.0000 0.0000 0.0000 0.0000 16.5528 0.0000
# 6 0.0000 0.0000 0.0000 0.0000 0.0000 6.5640
#
#
#
# Elastic Compliance Matrix: (Units=1/GPa)
#
#
# Indices 1 2 3 4 5 6 
#
# 1 0.012213 -0.002362 -0.001832 0.000000 0.000000 0.000000
# 2 -0.002362 0.010275 -0.002809 0.000000 0.000000 0.000000
# 3 -0.001832 -0.002809 0.018476 0.000000 0.000000 0.000000
# 4 0.000000 0.000000 0.000000 0.119505 0.000000 0.000000
# 5 0.000000 0.000000 0.000000 0.000000 0.060413 0.000000
# 6 0.000000 0.000000 0.000000 0.000000 0.000000 0.152345
#
#
# Mechanical properties :
#
#
# Convention : Reuss Voigt Hill
#
# Bulk Modulus (GPa) = 37.09249 40.43966 38.76607
# Shear Modulus (GPa) = 12.61933 19.60504 16.11219
#
# Velocity S-wave (km/s) = 2.62344 3.26991 2.96435
# Velocity P-wave (km/s) = 5.42276 6.02592 5.73228
#
# Compressibility (1/GPa) = 0.02695963
#
# Stress axis : x y z
#
# Youngs Moduli (GPa) = 81.88067 97.32187 54.12460
#
# Poissons Ratio (x) = 0.22985 0.09915
# Poissons Ratio (y) = 0.19338 0.15201
# Poissons Ratio (z) = 0.14999 0.27333
#
# Static dielectric constant tensor:
#      x y z
#    x 1.620510 0.000000 0.000000 
#    y 0.000000 1.660660 0.000000 
#    z 0.000000 0.000000 1.618510 
# 
# From -- ./inp_files/40196.got.cif
#   From: 2010.05.17/outbox.cif.g08.bks.cpg/sg71_21_cif.got.tgz:40196.got - 2010.06.03 16:22:01.
