data_PCOD9521065
_publ_section_title
;
Structure prediction by ZEFSAII (Michael W. Deem and Ramdas Pophale) SiO2 
 PCOD9521065
Probable space group: I M M M
;
_chemical_formula_sum "Si O2"
_cell_formula_units_Z 104
_cell_length_a 27.831486
_cell_length_b 23.107041
_cell_length_c 9.439394
_cell_angle_alpha 90.000000
_cell_angle_beta 90.000000
_cell_angle_gamma 90.000000
_cell_volume 6070.505319
_symmetry_space_group_name_H-M "I M M M"
_symmetry_group_IT_number 71
_symmetry_cell_setting 'orthorhombic'
loop_
_space_group_symop_operation_xyz
x,y,z
-x,-y,z
x,-y,-z
-x,y,-z
-x,-y,-z
x,y,-z
-x,y,z
x,-y,z
1/2+x,1/2+y,1/2+z
1/2-x,1/2-y,1/2+z
1/2+x,1/2-y,1/2-z
1/2-x,1/2+y,1/2-z
1/2-x,1/2-y,1/2-z
1/2+x,1/2+y,1/2-z
1/2-x,1/2+y,1/2+z
1/2+x,1/2-y,1/2+z
loop_
_atom_site_type_symbol
_atom_site_label
_atom_site_fract_x
_atom_site_fract_y
_atom_site_fract_z
Si Si1 0.000000 0.570477 0.338093
Si Si2 0.906761 0.430282 0.163337
Si Si3 0.299906 0.257568 0.833613
Si Si4 0.858085 0.127016 0.669847
Si Si5 0.776873 0.933118 0.836504
Si Si6 0.056722 0.068014 0.830771
Si Si7 0.323702 0.872528 0.836204
O O1 0.952542 0.588787 0.254838
O O2 0.000000 0.500000 0.339063
O O3 0.000000 0.590207 0.500000
O O4 0.904407 0.500000 0.169548
O O5 0.859279 0.404376 0.231555
O O6 0.912391 0.413568 0.000000
O O7 0.250000 0.250000 0.750000
O O8 0.334123 0.310885 0.790292
O O9 0.326660 0.196298 0.820157
O O10 0.288232 0.266183 0.000000
O O11 0.862729 0.124742 0.500000
O O12 0.819166 0.081570 0.729410
O O13 0.907999 0.109827 0.744443
O O14 0.730870 0.892930 0.810198
O O15 0.762130 0.000000 0.824585
O O16 0.792895 0.923495 0.000000
O O17 0.000000 0.077879 0.802156
O O18 0.066946 0.000000 0.797757
O O19 0.064195 0.075104 0.000000
O O20 0.334827 0.888044 0.000000
#
# Coordination Sequence:
#
# PCOD9521065 Si02
#       7
#     8  16  16  16  16  16  16
#     4   9  17  31  53  77 101 135 175 209 248 309
#     4  10  20  33  51  78 110 138 167 214 272 319
#     4  10  21  37  56  77 103 139 184 224 260 307
#     4  11  22  34  53  82 112 141 176 221 274 326
#     4  10  20  33  51  76 106 142 181 217 256 311
#     4   9  19  37  60  84 110 143 184 226 269 325
#     4  10  20  35  54  74 100 139 184 222 259 311
#
# _framework density 17.132017000000001
#
# number of rings (size 3 to 8) (size 9 to 14) (size 15 to 20)
#    0.000    2.077    1.538    2.538    0.000    7.077 
#    0.000    0.769    1.692    0.000    0.000    0.000 
#    0.000    0.000    0.000    0.000    0.000    0.000 
#
# Total GULP energy -290077.537301 kJ/mol
# GULP energy per Si atom -5578.414179 kJ/mol
# Density = 1.709302 g / cm^3
# Si number density = 17.132017 Si / 1000 Ang^3
#
#
#
# Elastic Constant Matrix: (Units=GPa)
#
#
# Indices 1 2 3 4 5 6 
#
# 1 95.6767 40.7755 69.6947 0.0000 0.0000 0.0000
# 2 40.7755 68.7631 33.9375 0.0000 0.0000 0.0000
# 3 69.6947 33.9375 93.3772 0.0000 0.0000 0.0000
# 4 0.0000 0.0000 0.0000 23.0331 0.0000 0.0000
# 5 0.0000 0.0000 0.0000 0.0000 30.9158 0.0000
# 6 0.0000 0.0000 0.0000 0.0000 0.0000 19.8015
#
#
#
# Elastic Compliance Matrix: (Units=1/GPa)
#
#
# Indices 1 2 3 4 5 6 
#
# 1 0.025361 -0.006942 -0.016406 0.000000 0.000000 0.000000
# 2 -0.006942 0.019622 -0.001950 0.000000 0.000000 0.000000
# 3 -0.016406 -0.001950 0.023663 0.000000 0.000000 0.000000
# 4 0.000000 0.000000 0.000000 0.043416 0.000000 0.000000
# 5 0.000000 0.000000 0.000000 0.000000 0.032346 0.000000
# 6 0.000000 0.000000 0.000000 0.000000 0.000000 0.050501
#
#
# Mechanical properties :
#
#
# Convention : Reuss Voigt Hill
#
# Bulk Modulus (GPa) = 55.40209 60.73695 58.06952
# Shear Modulus (GPa) = 19.87905 22.31070 21.09487
#
# Velocity S-wave (km/s) = 3.41008 3.61263 3.51281
# Velocity P-wave (km/s) = 6.92195 7.27535 7.10085
#
# Compressibility (1/GPa) = 0.01804986
#
# Stress axis : x y z
#
# Youngs Moduli (GPa) = 39.43056 50.96447 42.25985
#
# Poissons Ratio (x) = 0.35378 0.69331
# Poissons Ratio (y) = 0.27371 0.08242
# Poissons Ratio (z) = 0.64690 0.09939
#
# Static dielectric constant tensor:
#      x y z
#    x 1.564050 0.000000 0.000000 
#    y 0.000000 1.582500 0.000000 
#    z 0.000000 0.000000 1.578830 
# 
# From -- ./inp_files/15294.got.cif
#   From: 2010.05.17/outbox.cif.g08.bks.cpg/sg71_8_cif.got.tgz:15294.got - 2010.06.03 16:22:01.
