data_PCOD9521850
_publ_section_title
;
Structure prediction by ZEFSAII (Michael W. Deem and Ramdas Pophale) SiO2 
 PCOD9521850
Probable space group: I M M M
;
_chemical_formula_sum "Si O2"
_cell_formula_units_Z 80
_cell_length_a 31.669728
_cell_length_b 7.902929
_cell_length_c 14.993560
_cell_angle_alpha 90.000000
_cell_angle_beta 90.000000
_cell_angle_gamma 90.000000
_cell_volume 3752.642351
_symmetry_space_group_name_H-M "I M M M"
_symmetry_group_IT_number 71
_symmetry_cell_setting 'orthorhombic'
loop_
_space_group_symop_operation_xyz
x,y,z
-x,-y,z
x,-y,-z
-x,y,-z
-x,-y,-z
x,y,-z
-x,y,z
x,-y,z
1/2+x,1/2+y,1/2+z
1/2-x,1/2-y,1/2+z
1/2+x,1/2-y,1/2-z
1/2-x,1/2+y,1/2-z
1/2-x,1/2-y,1/2-z
1/2+x,1/2+y,1/2-z
1/2-x,1/2+y,1/2+z
1/2+x,1/2-y,1/2+z
loop_
_atom_site_type_symbol
_atom_site_label
_atom_site_fract_x
_atom_site_fract_y
_atom_site_fract_z
Si Si1 0.454580 0.197703 0.135913
Si Si2 0.454559 0.700965 0.341020
Si Si3 0.364267 0.799056 0.351211
Si Si4 0.363046 0.207750 0.852846
Si Si5 0.798554 0.799550 0.000000
Si Si6 0.296949 0.207199 0.000000
O O1 0.500000 0.272835 0.108091
O O2 0.453552 0.210410 0.244001
O O3 0.408704 0.266196 0.109639
O O4 0.455360 0.000000 0.110680
O O5 0.500000 0.745882 0.383422
O O6 0.454804 0.500000 0.325539
O O7 0.410268 0.742498 0.386552
O O8 0.359015 0.734750 0.249654
O O9 0.326088 0.749334 0.414356
O O10 0.365580 0.000000 0.346719
O O11 0.364347 0.000000 0.852946
O O12 0.324149 0.259432 0.913999
O O13 0.750991 0.729635 0.000000
O O14 0.794680 0.000000 0.000000
O O15 0.296255 0.000000 0.000000
#
# Coordination Sequence:
#
# PCOD9521850 Si02
#       6
#    16  16  16  16   8   8
#     4   8  13  23  42  70 104 140 174 206 243 291
#     4   9  16  27  47  76 107 137 169 205 245 294
#     4  10  20  35  55  77 104 137 171 210 256 306
#     4   8  15  29  50  75 104 138 172 207 252 305
#     4  11  23  37  54  75  99 130 172 221 268 313
#     4   9  18  33  52  76 105 134 168 216 268 309
#
# _framework density 21.318311000000001
#
# number of rings (size 3 to 8) (size 9 to 14) (size 15 to 20)
#    0.000    3.000    0.000    2.700    0.000    2.000 
#    0.000    1.000    0.000   16.800    0.000    0.000 
#    0.000   32.000    0.000    0.000    0.000    0.000 
#
# Total GULP energy -222974.354976 kJ/mol
# GULP energy per Si atom -5574.358874 kJ/mol
# Density = 2.126979 g / cm^3
# Si number density = 21.318311 Si / 1000 Ang^3
#
#
#
# Elastic Constant Matrix: (Units=GPa)
#
#
# Indices 1 2 3 4 5 6 
#
# 1 271.9958 15.0992 88.3994 0.0000 0.0000 0.0000
# 2 15.0992 35.5349 6.6446 0.0000 0.0000 0.0000
# 3 88.3994 6.6446 98.8077 0.0000 0.0000 0.0000
# 4 0.0000 0.0000 0.0000 -4.8615 0.0000 0.0000
# 5 0.0000 0.0000 0.0000 0.0000 35.4578 0.0000
# 6 0.0000 0.0000 0.0000 0.0000 0.0000 16.5769
#
#
#
# Elastic Compliance Matrix: (Units=1/GPa)
#
#
# Indices 1 2 3 4 5 6 
#
# 1 0.005249 -0.001369 -0.004604 0.000000 0.000000 0.000000
# 2 -0.001369 0.028857 -0.000715 0.000000 0.000000 0.000000
# 3 -0.004604 -0.000715 0.014288 0.000000 0.000000 0.000000
# 4 0.000000 0.000000 0.000000 -0.205697 0.000000 0.000000
# 5 0.000000 0.000000 0.000000 0.000000 0.028203 0.000000
# 6 0.000000 0.000000 0.000000 0.000000 0.000000 0.060325
#
#
# Mechanical properties :
#
#
# Convention : Reuss Voigt Hill
#
# Bulk Modulus (GPa) = 28.55823 69.62499 49.09161
# Shear Modulus (GPa) = -114.34670 29.18097 -42.58286
#
# Velocity S-wave (km/s) = -7.33173 3.70377 -4.47416
# Velocity P-wave (km/s) = 7.63198 7.14291 1.90078
#
# Compressibility (1/GPa) = 0.03501617
#
# Stress axis : x y z
#
# Youngs Moduli (GPa) = 190.51973 34.65366 69.99060
#
# Poissons Ratio (x) = 0.04746 0.32222
# Poissons Ratio (y) = 0.26090 0.05007
# Poissons Ratio (z) = 0.87712 0.02479
#
# Static dielectric constant tensor:
#      x y z
#    x 1.815520 0.000000 0.000000 
#    y 0.000000 1.763250 0.000000 
#    z 0.000000 0.000000 1.775700 
# 
# From -- ./inp_files/48620.got.cif
#   From: 2010.05.17/outbox.cif.g08.bks.cpg/sg71_25_cif.got.tgz:48620.got - 2010.06.03 16:22:01.
