data_PCOD9521186
_publ_section_title
;
Structure prediction by ZEFSAII (Michael W. Deem and Ramdas Pophale) SiO2 
 PCOD9521186
Probable space group: I M M M
;
_chemical_formula_sum "Si O2"
_cell_formula_units_Z 80
_cell_length_a 8.378345
_cell_length_b 28.620271
_cell_length_c 15.468573
_cell_angle_alpha 90.000000
_cell_angle_beta 90.000000
_cell_angle_gamma 90.000000
_cell_volume 3709.216923
_symmetry_space_group_name_H-M "I M M M"
_symmetry_group_IT_number 71
_symmetry_cell_setting 'orthorhombic'
loop_
_space_group_symop_operation_xyz
x,y,z
-x,-y,z
x,-y,-z
-x,y,-z
-x,-y,-z
x,y,-z
-x,y,z
x,-y,z
1/2+x,1/2+y,1/2+z
1/2-x,1/2-y,1/2+z
1/2+x,1/2-y,1/2-z
1/2-x,1/2+y,1/2-z
1/2-x,1/2-y,1/2-z
1/2+x,1/2+y,1/2-z
1/2-x,1/2+y,1/2+z
1/2+x,1/2-y,1/2+z
loop_
_atom_site_type_symbol
_atom_site_label
_atom_site_fract_x
_atom_site_fract_y
_atom_site_fract_z
Si Si1 0.689577 0.791768 0.845334
Si Si2 0.312364 0.095412 0.402259
Si Si3 0.188548 0.000000 0.600069
Si Si4 0.000000 0.054665 0.894064
Si Si5 0.183300 0.808135 0.657987
Si Si6 0.821741 0.395757 0.600253
O O1 0.500000 0.787617 0.822675
O O2 0.793486 0.798538 0.759581
O O3 0.732599 0.741316 0.885306
O O4 0.704097 0.839790 0.897092
O O5 0.244826 0.098196 0.500000
O O6 0.500000 0.088300 0.406415
O O7 0.279451 0.145342 0.361199
O O8 0.242170 0.048871 0.359268
O O9 0.253648 0.000000 0.500000
O O10 0.000000 0.000000 0.595780
O O11 0.836056 0.079319 0.862835
O O12 0.000000 0.000000 0.871866
O O13 0.000000 0.058402 0.000000
O O14 0.000000 0.817495 0.635810
O O15 0.830895 0.410314 0.500000
O O16 0.000000 0.404859 0.639096
#
# Coordination Sequence:
#
# PCOD9521186 Si02
#       6
#    16  16   8   8  16  16
#     4   9  19  35  53  74 104 139 174 214 261 315
#     4  10  20  34  52  76 106 138 173 214 260 311
#     4   9  17  31  53  77 101 133 172 213 260 309
#     4   9  18  32  52  80 108 136 173 214 262 318
#     4  10  20  33  53  77 102 137 176 215 260 311
#     4   9  18  33  54  79 106 139 175 216 266 313
#
# _framework density 21.567895
#
# number of rings (size 3 to 8) (size 9 to 14) (size 15 to 20)
#    0.000    2.600    0.000    1.500    1.400    4.400 
#    0.000    4.000    2.200    0.000    0.000    0.000 
#    0.000    0.000    0.000    0.000    0.000    0.000 
#
# Total GULP energy -222927.098584 kJ/mol
# GULP energy per Si atom -5573.177465 kJ/mol
# Density = 2.151881 g / cm^3
# Si number density = 21.567895 Si / 1000 Ang^3
#
#
#
# Elastic Constant Matrix: (Units=GPa)
#
#
# Indices 1 2 3 4 5 6 
#
# 1 111.6397 87.0127 3.8156 0.0000 0.0000 0.0000
# 2 87.0127 176.4421 6.7651 -0.0001 0.0000 0.0000
# 3 3.8156 6.7651 13.1242 -0.0002 0.0000 0.0000
# 4 0.0000 -0.0001 -0.0002 30.5957 0.0000 0.0000
# 5 0.0000 0.0000 0.0000 0.0000 11.9298 0.0000
# 6 0.0000 0.0000 0.0000 0.0000 0.0000 37.2890
#
#
#
# Elastic Compliance Matrix: (Units=1/GPa)
#
#
# Indices 1 2 3 4 5 6 
#
# 1 0.014554 -0.007156 -0.000542 0.000000 0.000000 0.000000
# 2 -0.007156 0.009301 -0.002714 0.000000 0.000000 0.000000
# 3 -0.000542 -0.002714 0.077752 0.000001 0.000000 0.000000
# 4 0.000000 0.000000 0.000001 0.032684 0.000000 0.000000
# 5 0.000000 0.000000 0.000000 0.000000 0.083824 0.000000
# 6 0.000000 0.000000 0.000000 0.000000 0.000000 0.026818
#
#
# Mechanical properties :
#
#
# Convention : Reuss Voigt Hill
#
# Bulk Modulus (GPa) = 12.37912 55.15477 33.76694
# Shear Modulus (GPa) = 17.08330 29.53707 23.31018
#
# Velocity S-wave (km/s) = 2.81743 3.70468 3.29109
# Velocity P-wave (km/s) = 4.04177 6.62780 5.48924
#
# Compressibility (1/GPa) = 0.08078121
#
# Stress axis : x y z
#
# Youngs Moduli (GPa) = 68.71134 107.51762 12.86149
#
# Poissons Ratio (x) = 0.76943 0.00698
# Poissons Ratio (y) = 0.49172 0.03490
# Poissons Ratio (z) = 0.03726 0.29177
#
# Static dielectric constant tensor:
#      x y z
#    x 1.778250 0.000000 0.000000 
#    y 0.000000 1.821470 0.000000 
#    z 0.000000 0.000000 1.828510 
# 
# From -- ./inp_files/10233.got.cif
#   From: 2010.05.17/outbox.cif.g08.bks.cpg/sg71_6_cif.got.tgz:10233.got - 2010.06.03 16:22:01.
