data_PCOD9521527
_publ_section_title
;
Structure prediction by ZEFSAII (Michael W. Deem and Ramdas Pophale) SiO2 
 PCOD9521527
Probable space group: I M M M
;
_chemical_formula_sum "Si O2"
_cell_formula_units_Z 56
_cell_length_a 9.281904
_cell_length_b 7.590256
_cell_length_c 37.098901
_cell_angle_alpha 90.000000
_cell_angle_beta 90.000000
_cell_angle_gamma 90.000000
_cell_volume 2613.692794
_symmetry_space_group_name_H-M "I M M M"
_symmetry_group_IT_number 71
_symmetry_cell_setting 'orthorhombic'
loop_
_space_group_symop_operation_xyz
x,y,z
-x,-y,z
x,-y,-z
-x,y,-z
-x,-y,-z
x,y,-z
-x,y,z
x,-y,z
1/2+x,1/2+y,1/2+z
1/2-x,1/2-y,1/2+z
1/2+x,1/2-y,1/2-z
1/2-x,1/2+y,1/2-z
1/2-x,1/2-y,1/2-z
1/2+x,1/2+y,1/2-z
1/2-x,1/2+y,1/2+z
1/2+x,1/2-y,1/2+z
loop_
_atom_site_type_symbol
_atom_site_label
_atom_site_fract_x
_atom_site_fract_y
_atom_site_fract_z
Si Si1 0.663901 0.211692 0.286419
Si Si2 0.664004 0.288368 0.429040
Si Si3 0.663801 0.288484 0.856211
Si Si4 0.333705 0.784202 0.000000
O O1 0.500000 0.278989 0.284940
O O2 0.750000 0.250000 0.250000
O O3 0.749997 0.278920 0.321332
O O4 0.655989 0.000000 0.289765
O O5 0.500000 0.221199 0.427728
O O6 0.656399 0.500000 0.432148
O O7 0.749834 0.248683 0.392647
O O8 0.750405 0.225183 0.464150
O O9 0.500000 0.220765 0.857785
O O10 0.655518 0.500000 0.852685
O O11 0.500000 0.728394 0.000000
O O12 0.333762 0.000000 0.000000
#
# Coordination Sequence:
#
# PCOD9521527 Si02
#       4
#    16  16  16   8
#     4  10  21  37  57  80 106 138 175 215 261 312
#     4  10  20  34  54  80 108 139 176 217 261 311
#     4  10  21  37  56  78 106 140 176 216 263 312
#     4   9  17  31  52  77 106 139 174 216 264 309
#
# _framework density 21.425625
#
# number of rings (size 3 to 8) (size 9 to 14) (size 15 to 20)
#    0.000    2.143    0.000    3.000    0.000    8.000 
#    0.000    0.714    0.000    4.286    0.000    0.000 
#    0.000    0.000    0.000    0.000    0.000    0.000 
#
# Total GULP energy -156529.337958 kJ/mol
# GULP energy per Si atom -5590.333498 kJ/mol
# Density = 2.137686 g / cm^3
# Si number density = 21.425625 Si / 1000 Ang^3
#
#
#
# Elastic Constant Matrix: (Units=GPa)
#
#
# Indices 1 2 3 4 5 6 
#
# 1 282.0912 9.4186 167.0658 0.0000 0.0000 0.0000
# 2 9.4186 47.1821 -2.6759 0.0000 0.0000 0.0000
# 3 167.0658 -2.6759 256.6849 0.0000 0.0000 0.0000
# 4 0.0000 0.0000 0.0000 26.4429 0.0000 0.0000
# 5 0.0000 0.0000 0.0000 0.0000 47.6143 0.0000
# 6 0.0000 0.0000 0.0000 0.0000 0.0000 17.4334
#
#
#
# Elastic Compliance Matrix: (Units=1/GPa)
#
#
# Indices 1 2 3 4 5 6 
#
# 1 0.005858 -0.001386 -0.003827 0.000000 0.000000 0.000000
# 2 -0.001386 0.021535 0.001127 0.000000 0.000000 0.000000
# 3 -0.003827 0.001127 0.006398 0.000000 0.000000 0.000000
# 4 0.000000 0.000000 0.000000 0.037817 0.000000 0.000000
# 5 0.000000 0.000000 0.000000 0.000000 0.021002 0.000000
# 6 0.000000 0.000000 0.000000 0.000000 0.000000 0.057361
#
#
# Mechanical properties :
#
#
# Convention : Reuss Voigt Hill
#
# Bulk Modulus (GPa) = 39.03477 103.73057 71.38267
# Shear Modulus (GPa) = 29.99682 45.77478 37.88580
#
# Velocity S-wave (km/s) = 3.74578 4.62719 4.20962
# Velocity P-wave (km/s) = 6.07997 8.77879 7.55094
#
# Compressibility (1/GPa) = 0.02561818
#
# Stress axis : x y z
#
# Youngs Moduli (GPa) = 170.71345 46.43574 156.28812
#
# Poissons Ratio (x) = 0.06438 0.59812
# Poissons Ratio (y) = 0.23667 -0.17611
# Poissons Ratio (z) = 0.65333 -0.05233
#
# Static dielectric constant tensor:
#      x y z
#    x 1.754420 0.000000 0.000000 
#    y 0.000000 1.827270 0.000000 
#    z 0.000000 0.000000 1.709150 
# 
# From -- ./inp_files/3307.got.cif
#   From: 2010.05.17/outbox.cif.g08.bks.cpg/sg71_2_cif.got.tgz:3307.got - 2010.06.03 16:22:01.
