data_PCOD9521466
_publ_section_title
;
Structure prediction by ZEFSAII (Michael W. Deem and Ramdas Pophale) SiO2 
 PCOD9521466
Probable space group: I M M M
;
_chemical_formula_sum "Si O2"
_cell_formula_units_Z 96
_cell_length_a 21.816287
_cell_length_b 12.625205
_cell_length_c 18.712208
_cell_angle_alpha 90.000000
_cell_angle_beta 90.000000
_cell_angle_gamma 90.000000
_cell_volume 5153.998801
_symmetry_space_group_name_H-M "I M M M"
_symmetry_group_IT_number 71
_symmetry_cell_setting 'orthorhombic'
loop_
_space_group_symop_operation_xyz
x,y,z
-x,-y,z
x,-y,-z
-x,y,-z
-x,-y,-z
x,y,-z
-x,y,z
x,-y,z
1/2+x,1/2+y,1/2+z
1/2-x,1/2-y,1/2+z
1/2+x,1/2-y,1/2-z
1/2-x,1/2+y,1/2-z
1/2-x,1/2-y,1/2-z
1/2+x,1/2+y,1/2-z
1/2-x,1/2+y,1/2+z
1/2+x,1/2-y,1/2+z
loop_
_atom_site_type_symbol
_atom_site_label
_atom_site_fract_x
_atom_site_fract_y
_atom_site_fract_z
Si Si1 0.569926 0.734884 0.585133
Si Si2 0.681546 0.212334 0.916906
Si Si3 0.105872 0.000000 0.086474
Si Si4 0.429122 0.873666 0.841684
Si Si5 0.287136 0.620997 0.797520
Si Si6 0.752957 0.000000 0.086788
Si Si7 0.652713 0.198464 0.709926
O O1 0.582533 0.743554 0.500000
O O2 0.500000 0.771154 0.597715
O O3 0.574521 0.610459 0.606183
O O4 0.619824 0.793520 0.633597
O O5 0.611029 0.182890 0.902391
O O6 0.699187 0.312374 0.869290
O O7 0.719051 0.107861 0.891074
O O8 0.694381 0.228795 0.000000
O O9 0.176693 0.000000 0.109682
O O10 0.106004 0.000000 0.000000
O O11 0.500000 0.842390 0.841605
O O12 0.396172 0.842280 0.767689
O O13 0.425436 0.000000 0.851380
O O14 0.306863 0.500000 0.800512
O O15 0.322322 0.687176 0.736423
O O16 0.213888 0.628302 0.787803
O O17 0.751240 0.000000 0.000000
#
# Coordination Sequence:
#
# PCOD9521466 Si02
#       7
#    16  16   8  16  16   8  16
#     4  10  20  34  53  79 110 143 183 227 274 331
#     4  10  20  35  56  84 115 148 184 233 288 338
#     4   9  17  28  45  73 106 137 172 217 270 325
#     4  10  20  35  57  83 112 148 190 234 280 333
#     4  10  22  38  56  83 113 148 191 232 281 344
#     4   9  16  29  51  79 111 142 176 219 278 331
#     4  10  21  37  57  80 110 150 185 237 282 335
#
# _framework density 18.626314000000001
#
# number of rings (size 3 to 8) (size 9 to 14) (size 15 to 20)
#    0.000    2.167    0.833    2.250    1.167    3.667 
#    1.500    0.833    0.000    6.000    0.000   10.500 
#    0.000    0.000    0.000    0.000    0.000    0.000 
#
# Total GULP energy -267993.418265 kJ/mol
# GULP energy per Si atom -5583.196214 kJ/mol
# Density = 1.858392 g / cm^3
# Si number density = 18.626314 Si / 1000 Ang^3
#
#
#
# Elastic Constant Matrix: (Units=GPa)
#
#
# Indices 1 2 3 4 5 6 
#
# 1 100.7953 15.8212 23.5736 0.0000 0.0000 0.0000
# 2 15.8212 80.9145 14.6025 0.0000 0.0000 0.0000
# 3 23.5736 14.6025 76.9623 0.0000 0.0000 0.0000
# 4 0.0000 0.0000 0.0000 20.3229 0.0000 0.0000
# 5 0.0000 0.0000 0.0000 0.0000 25.3898 0.0000
# 6 0.0000 0.0000 0.0000 0.0000 0.0000 16.0788
#
#
#
# Elastic Compliance Matrix: (Units=1/GPa)
#
#
# Indices 1 2 3 4 5 6 
#
# 1 0.010878 -0.001580 -0.003032 0.000000 0.000000 0.000000
# 2 -0.001580 0.013026 -0.001988 0.000000 0.000000 0.000000
# 3 -0.003032 -0.001988 0.014299 0.000000 0.000000 0.000000
# 4 0.000000 0.000000 0.000000 0.049206 0.000000 0.000000
# 5 0.000000 0.000000 0.000000 0.000000 0.039386 0.000000
# 6 0.000000 0.000000 0.000000 0.000000 0.000000 0.062194
#
#
# Mechanical properties :
#
#
# Convention : Reuss Voigt Hill
#
# Bulk Modulus (GPa) = 39.99295 40.74074 40.36685
# Shear Modulus (GPa) = 23.75034 26.00329 24.87681
#
# Velocity S-wave (km/s) = 3.57472 3.74043 3.65851
# Velocity P-wave (km/s) = 6.20935 6.36982 6.29010
#
# Compressibility (1/GPa) = 0.02500441
#
# Stress axis : x y z
#
# Youngs Moduli (GPa) = 91.92665 76.76763 69.93350
#
# Poissons Ratio (x) = 0.12128 0.21206
# Poissons Ratio (y) = 0.14522 0.13900
# Poissons Ratio (z) = 0.27875 0.15259
#
# Static dielectric constant tensor:
#      x y z
#    x 1.644430 0.000000 0.000000 
#    y 0.000000 1.630400 0.000000 
#    z 0.000000 0.000000 1.656580 
# 
# From -- ./inp_files/54925.got.cif
#   From: 2010.05.17/outbox.cif.g08.bks.cpg/sg71_28_cif.got.tgz:54925.got - 2010.06.03 16:22:01.
