data_PCOD9521029
_publ_section_title
;
Structure prediction by ZEFSAII (Michael W. Deem and Ramdas Pophale) SiO2 
 PCOD9521029
Probable space group: I M M M
;
_chemical_formula_sum "Si O2"
_cell_formula_units_Z 112
_cell_length_a 17.161224
_cell_length_b 29.118581
_cell_length_c 14.198779
_cell_angle_alpha 90.000000
_cell_angle_beta 90.000000
_cell_angle_gamma 90.000000
_cell_volume 7095.278827
_symmetry_space_group_name_H-M "I M M M"
_symmetry_group_IT_number 71
_symmetry_cell_setting 'orthorhombic'
loop_
_space_group_symop_operation_xyz
x,y,z
-x,-y,z
x,-y,-z
-x,y,-z
-x,-y,-z
x,y,-z
-x,y,z
x,-y,z
1/2+x,1/2+y,1/2+z
1/2-x,1/2-y,1/2+z
1/2+x,1/2-y,1/2-z
1/2-x,1/2+y,1/2-z
1/2-x,1/2-y,1/2-z
1/2+x,1/2+y,1/2-z
1/2-x,1/2+y,1/2+z
1/2+x,1/2-y,1/2+z
loop_
_atom_site_type_symbol
_atom_site_label
_atom_site_fract_x
_atom_site_fract_y
_atom_site_fract_z
Si Si1 0.906705 0.227229 0.394692
Si Si2 0.834702 0.268286 0.219874
Si Si3 0.093479 0.867352 0.708867
Si Si4 0.406454 0.314947 0.606759
Si Si5 0.910762 0.347985 0.886776
Si Si6 0.870578 0.550374 0.112399
Si Si7 0.815825 0.947581 0.610535
O O1 0.875427 0.234255 0.500000
O O2 0.881835 0.264212 0.317509
O O3 0.883799 0.177301 0.353452
O O4 0.000000 0.226959 0.398863
O O5 0.750000 0.250000 0.250000
O O6 0.869017 0.231531 0.145885
O O7 0.849322 0.317125 0.170626
O O8 0.111918 0.853937 0.816530
O O9 0.138845 0.911207 0.672598
O O10 0.000000 0.873346 0.700002
O O11 0.382656 0.324811 0.500000
O O12 0.500000 0.309006 0.608943
O O13 0.906277 0.401376 0.855955
O O14 0.000000 0.331232 0.872027
O O15 0.895291 0.345692 0.000000
O O16 0.895466 0.500000 0.150087
O O17 0.777293 0.554325 0.124988
O O18 0.885572 0.548803 0.000000
O O19 0.830053 0.937737 0.500000
O O20 0.840636 0.000000 0.628992
#
# Coordination Sequence:
#
# PCOD9521029 Si02
#       7
#    16  16  16  16  16  16  16
#     4   9  18  32  47  62  87 124 157 188 227 273
#     4  11  22  31  45  71  98 126 157 193 239 281
#     4   9  17  28  45  68  90 120 163 200 233 280
#     4   9  18  34  52  66  89 126 164 200 235 278
#     4  10  20  33  51  73  99 132 166 202 240 284
#     4   8  16  30  47  69  96 127 160 194 240 292
#     4   9  17  28  43  65  97 131 157 192 244 299
#
# _framework density 15.785144000000001
#
# number of rings (size 3 to 8) (size 9 to 14) (size 15 to 20)
#    0.000    2.714    0.000    3.857    4.000    3.714 
#    0.000    2.143    0.000    0.429    0.000    2.000 
#    0.000    0.571    0.000    3.000    0.000    0.143 
#
# Total GULP energy -311909.807000 kJ/mol
# GULP energy per Si atom -5569.817982 kJ/mol
# Density = 1.574922 g / cm^3
# Si number density = 15.785144 Si / 1000 Ang^3
#
#
#
# Elastic Constant Matrix: (Units=GPa)
#
#
# Indices 1 2 3 4 5 6 
#
# 1 24.2464 33.5731 24.6636 0.0000 0.0000 0.0000
# 2 33.5731 91.2676 42.0856 0.0000 0.0000 0.0000
# 3 24.6636 42.0856 92.4768 0.0001 0.0000 0.0000
# 4 0.0000 0.0000 0.0001 20.4761 0.0000 0.0000
# 5 0.0000 0.0000 0.0000 0.0000 13.1113 0.0000
# 6 0.0000 0.0000 0.0000 0.0000 0.0000 26.2125
#
#
#
# Elastic Compliance Matrix: (Units=1/GPa)
#
#
# Indices 1 2 3 4 5 6 
#
# 1 0.093088 -0.028849 -0.011698 0.000000 0.000000 0.000000
# 2 -0.028849 0.022807 -0.002685 0.000000 0.000000 0.000000
# 3 -0.011698 -0.002685 0.015155 0.000000 0.000000 0.000000
# 4 0.000000 0.000000 0.000000 0.048837 0.000000 0.000000
# 5 0.000000 0.000000 0.000000 0.000000 0.076270 0.000000
# 6 0.000000 0.000000 0.000000 0.000000 0.000000 0.038150
#
#
# Mechanical properties :
#
#
# Convention : Reuss Voigt Hill
#
# Bulk Modulus (GPa) = 22.42816 45.40393 33.91605
# Shear Modulus (GPa) = 12.63796 19.13788 15.88792
#
# Velocity S-wave (km/s) = 2.83260 3.48573 3.17600
# Velocity P-wave (km/s) = 4.99374 6.71018 5.91456
#
# Compressibility (1/GPa) = 0.04458681
#
# Stress axis : x y z
#
# Youngs Moduli (GPa) = 10.74255 43.84584 65.98289
#
# Poissons Ratio (x) = 1.26489 0.77185
# Poissons Ratio (y) = 0.30991 0.17719
# Poissons Ratio (z) = 0.12566 0.11775
#
# Static dielectric constant tensor:
#      x y z
#    x 1.565180 0.000000 0.000000 
#    y 0.000000 1.538600 0.000000 
#    z 0.000000 0.000000 1.523760 
# 
# From -- ./inp_files/35374.got.cif
#   From: 2010.05.17/outbox.cif.g08.bks.cpg/sg71_18_cif.got.tgz:35374.got - 2010.06.03 16:22:01.
