data_PCOD9521008
_publ_section_title
;
Structure prediction by ZEFSAII (Michael W. Deem and Ramdas Pophale) SiO2 
 PCOD9521008
Probable space group: I M M M
;
_chemical_formula_sum "Si O2"
_cell_formula_units_Z 72
_cell_length_a 29.813277
_cell_length_b 13.986760
_cell_length_c 9.261917
_cell_angle_alpha 90.000000
_cell_angle_beta 90.000000
_cell_angle_gamma 90.000000
_cell_volume 3862.137423
_symmetry_space_group_name_H-M "I M M M"
_symmetry_group_IT_number 71
_symmetry_cell_setting 'orthorhombic'
loop_
_space_group_symop_operation_xyz
x,y,z
-x,-y,z
x,-y,-z
-x,y,-z
-x,-y,-z
x,y,-z
-x,y,z
x,-y,z
1/2+x,1/2+y,1/2+z
1/2-x,1/2-y,1/2+z
1/2+x,1/2-y,1/2-z
1/2-x,1/2+y,1/2-z
1/2-x,1/2-y,1/2-z
1/2+x,1/2+y,1/2-z
1/2-x,1/2+y,1/2+z
1/2+x,1/2-y,1/2+z
loop_
_atom_site_type_symbol
_atom_site_label
_atom_site_fract_x
_atom_site_fract_y
_atom_site_fract_z
Si Si1 0.906500 0.702687 0.327387
Si Si2 0.678275 0.884500 0.334125
Si Si3 0.000000 0.389218 0.324153
Si Si4 0.232812 0.116635 0.834626
Si Si5 0.641793 0.610188 0.828998
O O1 0.903160 0.686025 0.500000
O O2 0.865512 0.649738 0.250303
O O3 0.897953 0.815165 0.302031
O O4 0.954497 0.663505 0.277840
O O5 0.677149 0.852595 0.500000
O O6 0.723976 0.852023 0.256201
O O7 0.678658 0.000000 0.333211
O O8 0.000000 0.500000 0.278763
O O9 0.000000 0.388105 0.500000
O O10 0.185648 0.140602 0.760218
O O11 0.233960 0.000000 0.835521
O O12 0.235546 0.148974 0.000000
O O13 0.630907 0.500000 0.794413
O O14 0.652827 0.614551 0.000000
#
# Coordination Sequence:
#
# PCOD9521008 Si02
#       5
#    16  16   8  16  16
#     4  10  20  34  54  77 100 133 175 213 255 308
#     4  10  20  33  50  75 107 139 171 212 260 306
#     4   9  18  34  56  80 104 129 163 211 260 305
#     4   9  17  30  50  75 103 138 177 212 249 299
#     4   9  18  33  51  73 104 138 171 211 256 299
#
# _framework density 18.642527000000001
#
# number of rings (size 3 to 8) (size 9 to 14) (size 15 to 20)
#    0.000    2.556    0.000    2.000    0.000    6.667 
#    0.000    1.111    0.000    5.333    0.000    0.000 
#    0.000    5.333    0.000    0.000    0.000    0.000 
#
# Total GULP energy -201008.864307 kJ/mol
# GULP energy per Si atom -5583.579564 kJ/mol
# Density = 1.860010 g / cm^3
# Si number density = 18.642527 Si / 1000 Ang^3
#
#
#
# Elastic Constant Matrix: (Units=GPa)
#
#
# Indices 1 2 3 4 5 6 
#
# 1 170.9231 77.5557 60.1566 0.0000 0.0000 0.0000
# 2 77.5557 93.6987 44.7027 0.0000 0.0000 0.0000
# 3 60.1566 44.7027 58.8385 0.0000 0.0000 0.0000
# 4 0.0000 0.0000 0.0000 16.1863 0.0000 0.0000
# 5 0.0000 0.0000 0.0000 0.0000 22.1668 0.0000
# 6 0.0000 0.0000 0.0000 0.0000 0.0000 34.3569
#
#
#
# Elastic Compliance Matrix: (Units=1/GPa)
#
#
# Indices 1 2 3 4 5 6 
#
# 1 0.010818 -0.005768 -0.006678 0.000000 0.000000 0.000000
# 2 -0.005768 0.019816 -0.009158 0.000000 0.000000 0.000000
# 3 -0.006678 -0.009158 0.030781 0.000000 0.000000 0.000000
# 4 0.000000 0.000000 0.000000 0.061781 0.000000 0.000000
# 5 0.000000 0.000000 0.000000 0.000000 0.045113 0.000000
# 6 0.000000 0.000000 0.000000 0.000000 0.000000 0.029106
#
#
# Mechanical properties :
#
#
# Convention : Reuss Voigt Hill
#
# Bulk Modulus (GPa) = 54.92405 76.47670 65.70038
# Shear Modulus (GPa) = 20.26812 23.94500 22.10656
#
# Velocity S-wave (km/s) = 3.30085 3.58778 3.44730
# Velocity P-wave (km/s) = 6.63725 7.63378 7.15289
#
# Compressibility (1/GPa) = 0.01820696
#
# Stress axis : x y z
#
# Youngs Moduli (GPa) = 92.43544 50.46375 32.48750
#
# Poissons Ratio (x) = 0.29110 0.21696
# Poissons Ratio (y) = 0.53321 0.29751
# Poissons Ratio (z) = 0.61730 0.46214
#
# Static dielectric constant tensor:
#      x y z
#    x 1.591060 0.000000 0.000000 
#    y 0.000000 1.702780 0.000000 
#    z 0.000000 0.000000 1.629210 
# 
# From -- ./inp_files/6004.got.cif
#   From: 2010.05.17/outbox.cif.g08.bks.cpg/sg71_4_cif.got.tgz:6004.got - 2010.06.03 16:22:01.
