data_PCOD9521135
_publ_section_title
;
Structure prediction by ZEFSAII (Michael W. Deem and Ramdas Pophale) SiO2 
 PCOD9521135
Probable space group: I M M M
;
_chemical_formula_sum "Si O2"
_cell_formula_units_Z 88
_cell_length_a 19.906428
_cell_length_b 7.910639
_cell_length_c 27.848623
_cell_angle_alpha 90.000000
_cell_angle_beta 90.000000
_cell_angle_gamma 90.000000
_cell_volume 4385.394115
_symmetry_space_group_name_H-M "I M M M"
_symmetry_group_IT_number 71
_symmetry_cell_setting 'orthorhombic'
loop_
_space_group_symop_operation_xyz
x,y,z
-x,-y,z
x,-y,-z
-x,y,-z
-x,-y,-z
x,y,-z
-x,y,z
x,-y,z
1/2+x,1/2+y,1/2+z
1/2-x,1/2-y,1/2+z
1/2+x,1/2-y,1/2-z
1/2-x,1/2+y,1/2-z
1/2-x,1/2-y,1/2-z
1/2+x,1/2+y,1/2-z
1/2-x,1/2+y,1/2+z
1/2+x,1/2-y,1/2+z
loop_
_atom_site_type_symbol
_atom_site_label
_atom_site_fract_x
_atom_site_fract_y
_atom_site_fract_z
Si Si1 0.075388 0.799891 0.765425
Si Si2 0.829007 0.700077 0.842005
Si Si3 0.143592 0.800699 0.415970
Si Si4 0.787395 0.802457 0.052500
Si Si5 0.000000 0.194673 0.442874
Si Si6 0.187647 0.199500 0.306229
O O1 0.104714 0.777471 0.818766
O O2 0.133541 0.726416 0.730685
O O3 0.000000 0.730584 0.759655
O O4 0.071535 0.000000 0.754679
O O5 0.830987 0.500000 0.834109
O O6 0.818194 0.726931 0.898749
O O7 0.762950 0.770700 0.813503
O O8 0.206982 0.718022 0.441716
O O9 0.070549 0.727916 0.427276
O O10 0.156315 0.790781 0.359281
O O11 0.144289 0.000000 0.429931
O O12 0.803863 0.000000 0.052920
O O13 0.806869 0.731554 0.000000
O O14 0.000000 0.187086 0.500000
O O15 0.000000 0.000000 0.423547
O O16 0.196022 0.000000 0.294551
#
# Coordination Sequence:
#
# PCOD9521135 Si02
#       6
#    16  16  16  16   8  16
#     4  10  20  33  52  77 107 141 175 211 257 311
#     4  10  20  35  55  78 105 136 173 217 259 304
#     4   9  17  29  47  71 101 135 176 219 256 301
#     4  10  20  34  53  76 101 130 167 212 262 314
#     4   9  16  24  39  65  97 135 175 217 260 297
#     4   8  16  30  49  75 101 135 177 214 253 298
#
# _framework density 20.066610000000001
#
# number of rings (size 3 to 8) (size 9 to 14) (size 15 to 20)
#    0.000    2.636    0.000    3.273    1.273    2.545 
#    0.000    4.091    0.000    2.182    0.000    3.818 
#    0.000    0.000    0.000    0.000    0.000    0.000 
#
# Total GULP energy -245292.225125 kJ/mol
# GULP energy per Si atom -5574.823298 kJ/mol
# Density = 2.002094 g / cm^3
# Si number density = 20.066610 Si / 1000 Ang^3
#
#
#
# Elastic Constant Matrix: (Units=GPa)
#
#
# Indices 1 2 3 4 5 6 
#
# 1 66.3277 5.5268 35.4264 0.0000 0.0000 0.0000
# 2 5.5268 25.5893 3.0516 0.0000 0.0000 0.0000
# 3 35.4264 3.0516 84.6357 0.0000 0.0000 0.0000
# 4 0.0000 0.0000 0.0000 16.4000 0.0000 0.0000
# 5 0.0000 0.0000 0.0000 0.0000 9.9130 0.0000
# 6 0.0000 0.0000 0.0000 0.0000 0.0000 24.5247
#
#
#
# Elastic Compliance Matrix: (Units=1/GPa)
#
#
# Indices 1 2 3 4 5 6 
#
# 1 0.019689 -0.003284 -0.008123 0.000000 0.000000 0.000000
# 2 -0.003284 0.039795 -0.000060 0.000000 0.000000 0.000000
# 3 -0.008123 -0.000060 0.015218 0.000000 0.000000 0.000000
# 4 0.000000 0.000000 0.000000 0.060975 0.000000 0.000000
# 5 0.000000 0.000000 0.000000 0.000000 0.100878 0.000000
# 6 0.000000 0.000000 0.000000 0.000000 0.000000 0.040775
#
#
# Mechanical properties :
#
#
# Convention : Reuss Voigt Hill
#
# Bulk Modulus (GPa) = 19.31703 29.39579 24.35641
# Shear Modulus (GPa) = 15.74705 19.00408 17.37557
#
# Velocity S-wave (km/s) = 2.80436 3.08076 2.94580
# Velocity P-wave (km/s) = 4.48701 5.22835 4.87180
#
# Compressibility (1/GPa) = 0.05176780
#
# Stress axis : x y z
#
# Youngs Moduli (GPa) = 50.79037 25.12861 65.71368
#
# Poissons Ratio (x) = 0.08252 0.53378
# Poissons Ratio (y) = 0.16678 0.00397
# Poissons Ratio (z) = 0.41256 0.00152
#
# Static dielectric constant tensor:
#      x y z
#    x 1.725580 0.000000 0.000000 
#    y 0.000000 1.748770 0.000000 
#    z 0.000000 0.000000 1.729250 
# 
# From -- ./inp_files/50818.got.cif
#   From: 2010.05.17/outbox.cif.g08.bks.cpg/sg71_26_cif.got.tgz:50818.got - 2010.06.03 16:22:01.
