data_PCOD9521781
_publ_section_title
;
Structure prediction by ZEFSAII (Michael W. Deem and Ramdas Pophale) SiO2 
 PCOD9521781
Probable space group: I M M M
;
_chemical_formula_sum "Si O2"
_cell_formula_units_Z 80
_cell_length_a 18.706025
_cell_length_b 17.841569
_cell_length_c 14.353896
_cell_angle_alpha 90.000000
_cell_angle_beta 90.000000
_cell_angle_gamma 90.000000
_cell_volume 4790.538663
_symmetry_space_group_name_H-M "I M M M"
_symmetry_group_IT_number 71
_symmetry_cell_setting 'orthorhombic'
loop_
_space_group_symop_operation_xyz
x,y,z
-x,-y,z
x,-y,-z
-x,y,-z
-x,-y,-z
x,y,-z
-x,y,z
x,-y,z
1/2+x,1/2+y,1/2+z
1/2-x,1/2-y,1/2+z
1/2+x,1/2-y,1/2-z
1/2-x,1/2+y,1/2-z
1/2-x,1/2-y,1/2-z
1/2+x,1/2+y,1/2-z
1/2-x,1/2+y,1/2+z
1/2+x,1/2-y,1/2+z
loop_
_atom_site_type_symbol
_atom_site_label
_atom_site_fract_x
_atom_site_fract_y
_atom_site_fract_z
Si Si1 0.000000 0.586243 0.886979
Si Si2 0.000000 0.085091 0.112944
Si Si3 0.421101 0.590841 0.108765
Si Si4 0.649461 0.160792 0.389304
Si Si5 0.280564 0.590135 0.221645
Si Si6 0.150577 0.839599 0.109634
O O1 0.072485 0.628382 0.859657
O O2 0.000000 0.500000 0.855561
O O3 0.000000 0.585964 0.000000
O O4 0.926973 0.126975 0.137419
O O5 0.000000 0.000000 0.150096
O O6 0.000000 0.081360 0.000000
O O7 0.500000 0.615758 0.141994
O O8 0.421340 0.500000 0.111806
O O9 0.352257 0.615187 0.166236
O O10 0.413949 0.611936 0.000000
O O11 0.659041 0.144391 0.500000
O O12 0.712208 0.122765 0.330916
O O13 0.650553 0.250306 0.378103
O O14 0.277854 0.500000 0.222322
O O15 0.290932 0.621877 0.325175
O O16 0.161217 0.855761 0.000000
#
# Coordination Sequence:
#
# PCOD9521781 Si02
#       6
#     8   8  16  16  16  16
#     4   9  17  31  53  77 100 125 160 211 267 315
#     4   9  17  31  51  73  98 131 174 215 249 295
#     4   8  15  28  44  65  96 130 163 203 251 301
#     4  10  20  35  53  75 104 136 170 211 264 320
#     4  11  21  31  50  76 102 133 175 218 259 307
#     4  10  21  35  50  71 104 143 175 211 259 311
#
# _framework density 16.699584000000002
#
# number of rings (size 3 to 8) (size 9 to 14) (size 15 to 20)
#    0.000    2.400    0.000    3.600    1.400    5.600 
#    0.000    0.000    0.000    0.000    0.000    0.700 
#    0.000    2.400    0.000    0.000    0.000    0.000 
#
# Total GULP energy -223154.459454 kJ/mol
# GULP energy per Si atom -5578.861486 kJ/mol
# Density = 1.666157 g / cm^3
# Si number density = 16.699584 Si / 1000 Ang^3
#
#
#
# Elastic Constant Matrix: (Units=GPa)
#
#
# Indices 1 2 3 4 5 6 
#
# 1 147.7281 62.9076 69.3608 0.0000 0.0000 0.0000
# 2 62.9076 84.4282 50.1161 0.0000 0.0000 0.0000
# 3 69.3608 50.1161 74.4277 0.0000 0.0000 0.0000
# 4 0.0000 0.0000 0.0000 19.6917 0.0000 0.0000
# 5 0.0000 0.0000 0.0000 0.0000 16.8152 0.0000
# 6 0.0000 0.0000 0.0000 0.0000 0.0000 28.7826
#
#
#
# Elastic Compliance Matrix: (Units=1/GPa)
#
#
# Indices 1 2 3 4 5 6 
#
# 1 0.012835 -0.004104 -0.009199 0.000000 0.000000 0.000000
# 2 -0.004104 0.021043 -0.010345 0.000000 0.000000 0.000000
# 3 -0.009199 -0.010345 0.028974 0.000000 0.000000 0.000000
# 4 0.000000 0.000000 0.000000 0.050783 0.000000 0.000000
# 5 0.000000 0.000000 0.000000 0.000000 0.059470 0.000000
# 6 0.000000 0.000000 0.000000 0.000000 0.000000 0.034743
#
#
# Mechanical properties :
#
#
# Convention : Reuss Voigt Hill
#
# Bulk Modulus (GPa) = 64.27537 74.59476 69.43506
# Shear Modulus (GPa) = 19.20653 21.33787 20.27220
#
# Velocity S-wave (km/s) = 3.39502 3.57844 3.48794
# Velocity P-wave (km/s) = 7.34445 7.86379 7.60856
#
# Compressibility (1/GPa) = 0.01555806
#
# Stress axis : x y z
#
# Youngs Moduli (GPa) = 77.90908 47.52256 34.51381
#
# Poissons Ratio (x) = 0.19501 0.31748
# Poissons Ratio (y) = 0.31970 0.35704
# Poissons Ratio (z) = 0.71665 0.49162
#
# Static dielectric constant tensor:
#      x y z
#    x 1.554400 0.000000 0.000000 
#    y 0.000000 1.541450 0.000000 
#    z 0.000000 0.000000 1.585610 
# 
# From -- ./inp_files/36261.got.cif
#   From: 2010.05.17/outbox.cif.g08.bks.cpg/sg71_19_cif.got.tgz:36261.got - 2010.06.03 16:22:01.
