data_PCOD9521355
_publ_section_title
;
Structure prediction by ZEFSAII (Michael W. Deem and Ramdas Pophale) SiO2 
 PCOD9521355
Probable space group: I M M M
;
_chemical_formula_sum "Si O2"
_cell_formula_units_Z 112
_cell_length_a 16.500405
_cell_length_b 24.729136
_cell_length_c 13.327566
_cell_angle_alpha 90.000000
_cell_angle_beta 90.000000
_cell_angle_gamma 90.000000
_cell_volume 5438.190150
_symmetry_space_group_name_H-M "I M M M"
_symmetry_group_IT_number 71
_symmetry_cell_setting 'orthorhombic'
loop_
_space_group_symop_operation_xyz
x,y,z
-x,-y,z
x,-y,-z
-x,y,-z
-x,-y,-z
x,y,-z
-x,y,z
x,-y,z
1/2+x,1/2+y,1/2+z
1/2-x,1/2-y,1/2+z
1/2+x,1/2-y,1/2-z
1/2-x,1/2+y,1/2-z
1/2-x,1/2-y,1/2-z
1/2+x,1/2+y,1/2-z
1/2-x,1/2+y,1/2+z
1/2+x,1/2-y,1/2+z
loop_
_atom_site_type_symbol
_atom_site_label
_atom_site_fract_x
_atom_site_fract_y
_atom_site_fract_z
Si Si1 0.813721 0.436635 0.227485
Si Si2 0.408267 0.152849 0.379323
Si Si3 0.413728 0.325559 0.116714
Si Si4 0.745754 0.151112 0.885237
Si Si5 0.368636 0.442358 0.829337
Si Si6 0.408045 0.591355 0.610416
Si Si7 0.753523 0.274960 0.877546
O O1 0.830104 0.500000 0.251578
O O2 0.881905 0.405287 0.164983
O O3 0.795613 0.396714 0.321529
O O4 0.728791 0.436381 0.166082
O O5 0.407537 0.150059 0.500000
O O6 0.500000 0.167231 0.347339
O O7 0.337329 0.195191 0.349143
O O8 0.500000 0.307624 0.162587
O O9 0.408944 0.390178 0.124254
O O10 0.327938 0.305424 0.157606
O O11 0.415161 0.309578 0.000000
O O12 0.841398 0.137846 0.886427
O O13 0.740327 0.212603 0.849262
O O14 0.715777 0.148593 0.000000
O O15 0.392686 0.500000 0.872341
O O16 0.390523 0.442075 0.710516
O O17 0.398620 0.564553 0.500000
O O18 0.500000 0.610984 0.616222
O O19 0.754735 0.276209 0.000000
#
# Coordination Sequence:
#
# PCOD9521355 Si02
#       7
#    16  16  16  16  16  16  16
#     4  10  21  37  58  84 116 153 194 242 291 345
#     4  10  21  38  61  89 120 156 198 245 301 359
#     4  10  20  34  53  78 110 147 183 223 276 337
#     4   9  19  36  60  85 113 153 193 238 297 353
#     4  10  20  34  52  75 107 148 189 227 271 328
#     4   9  18  32  49  74 108 143 184 231 277 328
#     4   9  18  36  59  83 115 149 187 238 288 343
#
# _framework density 20.595088000000001
#
# number of rings (size 3 to 8) (size 9 to 14) (size 15 to 20)
#    0.000    2.429    1.429    0.429    0.000    3.714 
#    0.000   10.000    0.000    1.286    0.000    1.000 
#    0.000    0.000    0.000    0.000    0.000    0.000 
#
# Total GULP energy -312180.316197 kJ/mol
# GULP energy per Si atom -5574.648504 kJ/mol
# Density = 2.054821 g / cm^3
# Si number density = 20.595088 Si / 1000 Ang^3
#
#
#
# Elastic Constant Matrix: (Units=GPa)
#
#
# Indices 1 2 3 4 5 6 
#
# 1 145.0981 56.9618 35.5146 0.0000 0.0000 0.0000
# 2 56.9618 143.3648 17.7295 -0.0001 0.0000 0.0000
# 3 35.5146 17.7295 47.6552 -0.0004 -0.0001 0.0000
# 4 0.0000 -0.0001 -0.0004 61.2665 0.0000 -0.0001
# 5 0.0000 0.0000 -0.0001 0.0000 16.5183 0.0000
# 6 0.0000 0.0000 0.0000 -0.0001 0.0000 -6.7815
#
#
#
# Elastic Compliance Matrix: (Units=1/GPa)
#
#
# Indices 1 2 3 4 5 6 
#
# 1 0.009557 -0.003057 -0.005985 0.000000 0.000000 0.000000
# 2 -0.003057 0.008289 -0.000806 0.000000 0.000000 0.000000
# 3 -0.005985 -0.000806 0.025744 0.000000 0.000000 0.000000
# 4 0.000000 0.000000 0.000000 0.016322 0.000000 0.000000
# 5 0.000000 0.000000 0.000000 0.000000 0.060539 0.000000
# 6 0.000000 0.000000 0.000000 0.000000 0.000000 -0.147459
#
#
# Mechanical properties :
#
#
# Convention : Reuss Voigt Hill
#
# Bulk Modulus (GPa) = 41.84965 61.83666 51.84315
# Shear Modulus (GPa) = 7658.87121 29.26146 3844.06633
#
# Velocity S-wave (km/s) = 61.04800 3.77344 43.24984
# Velocity P-wave (km/s) = 70.63646 7.00537 50.19255
#
# Compressibility (1/GPa) = 0.02389506
#
# Stress axis : x y z
#
# Youngs Moduli (GPa) = 104.63688 120.63489 38.84404
#
# Poissons Ratio (x) = 0.36878 0.23248
# Poissons Ratio (y) = 0.31988 0.03130
# Poissons Ratio (z) = 0.62623 0.09720
#
# Static dielectric constant tensor:
#      x y z
#    x 1.743770 0.000000 0.000000 
#    y 0.000000 1.716620 0.000000 
#    z 0.000000 0.000000 1.808830 
# 
# From -- ./inp_files/34845.got.cif
#   From: 2010.05.17/outbox.cif.g08.bks.cpg/sg71_18_cif.got.tgz:34845.got - 2010.06.03 16:22:01.
