data_PCOD9521557
_publ_section_title
;
Structure prediction by ZEFSAII (Michael W. Deem and Ramdas Pophale) SiO2 
 PCOD9521557
Probable space group: I M M M
;
_chemical_formula_sum "Si O2"
_cell_formula_units_Z 104
_cell_length_a 9.406444
_cell_length_b 25.165915
_cell_length_c 20.220516
_cell_angle_alpha 90.000000
_cell_angle_beta 90.000000
_cell_angle_gamma 90.000000
_cell_volume 4786.636341
_symmetry_space_group_name_H-M "I M M M"
_symmetry_group_IT_number 71
_symmetry_cell_setting 'orthorhombic'
loop_
_space_group_symop_operation_xyz
x,y,z
-x,-y,z
x,-y,-z
-x,y,-z
-x,-y,-z
x,y,-z
-x,y,z
x,-y,z
1/2+x,1/2+y,1/2+z
1/2-x,1/2-y,1/2+z
1/2+x,1/2-y,1/2-z
1/2-x,1/2+y,1/2-z
1/2-x,1/2-y,1/2-z
1/2+x,1/2+y,1/2-z
1/2-x,1/2+y,1/2+z
1/2+x,1/2-y,1/2+z
loop_
_atom_site_type_symbol
_atom_site_label
_atom_site_fract_x
_atom_site_fract_y
_atom_site_fract_z
Si Si1 0.833229 0.293189 0.793880
Si Si2 0.341166 0.662794 0.422241
Si Si3 0.155533 0.937145 0.621058
Si Si4 0.656617 0.912745 0.258526
Si Si5 0.829551 0.768259 0.578907
Si Si6 0.163361 0.440240 0.607078
Si Si7 0.659223 0.934839 0.500000
O O1 0.750000 0.250000 0.750000
O O2 0.831453 0.349143 0.755230
O O3 0.754008 0.301300 0.864661
O O4 0.000000 0.279069 0.803842
O O5 0.358121 0.670787 0.500000
O O6 0.500000 0.666520 0.391646
O O7 0.231456 0.709290 0.403491
O O8 0.271035 0.605375 0.413582
O O9 0.222715 0.931650 0.692554
O O10 0.258215 0.916221 0.564541
O O11 0.000000 0.912509 0.616504
O O12 0.143212 0.000000 0.607632
O O13 0.500000 0.925542 0.287195
O O14 0.664683 0.937933 0.186723
O O15 0.800900 0.779126 0.500000
O O16 0.000000 0.770594 0.587707
O O17 0.198894 0.500000 0.585112
O O18 0.000000 0.428528 0.586205
O O19 0.500000 0.915092 0.500000
O O20 0.654414 0.000000 0.500000
#
# Coordination Sequence:
#
# PCOD9521557 Si02
#       7
#    16  16  16  16  16  16   8
#     4  11  23  39  62  90 119 153 196 247 298 356
#     4  10  21  37  59  87 118 153 193 239 292 352
#     4  10  20  34  54  81 111 143 183 231 279 328
#     4  10  22  39  57  81 111 148 191 234 285 342
#     4  10  21  39  63  89 119 157 200 247 301 362
#     4  10  21  37  58  84 116 155 199 246 292 346
#     4   9  17  31  53  77 103 141 183 221 267 323
#
# _framework density 21.727156999999998
#
# number of rings (size 3 to 8) (size 9 to 14) (size 15 to 20)
#    0.000    1.923    0.000    3.462    0.000    8.000 
#    1.385    1.538    0.000    0.000    0.000    0.000 
#    0.000    0.000    0.000    0.000    0.000    0.000 
#
# Total GULP energy -290426.914929 kJ/mol
# GULP energy per Si atom -5585.132979 kJ/mol
# Density = 2.167770 g / cm^3
# Si number density = 21.727157 Si / 1000 Ang^3
#
#
#
# Elastic Constant Matrix: (Units=GPa)
#
#
# Indices 1 2 3 4 5 6 
#
# 1 134.7983 10.0893 39.6460 0.0000 0.0000 0.0000
# 2 10.0893 68.0379 1.9858 0.0000 0.0001 0.0000
# 3 39.6460 1.9858 70.3588 0.0000 0.0001 0.0000
# 4 0.0000 0.0000 0.0000 35.8504 0.0002 0.0000
# 5 0.0000 0.0001 0.0001 0.0002 155.1536 0.0000
# 6 0.0000 0.0000 0.0000 0.0000 0.0000 22.6275
#
#
#
# Elastic Compliance Matrix: (Units=1/GPa)
#
#
# Indices 1 2 3 4 5 6 
#
# 1 0.008987 -0.001186 -0.005030 0.000000 0.000000 0.000000
# 2 -0.001186 0.014866 0.000249 0.000000 0.000000 0.000000
# 3 -0.005030 0.000249 0.017040 0.000000 0.000000 0.000000
# 4 0.000000 0.000000 0.000000 0.027894 0.000000 0.000000
# 5 0.000000 0.000000 0.000000 0.000000 0.006445 0.000000
# 6 0.000000 0.000000 0.000000 0.000000 0.000000 0.044194
#
#
# Mechanical properties :
#
#
# Convention : Reuss Voigt Hill
#
# Bulk Modulus (GPa) = 34.53258 41.84859 38.19058
# Shear Modulus (GPa) = 35.45741 57.49125 46.47433
#
# Velocity S-wave (km/s) = 4.04411 5.14956 4.62995
# Velocity P-wave (km/s) = 6.14286 7.39325 6.79687
#
# Compressibility (1/GPa) = 0.02895816
#
# Stress axis : x y z
#
# Youngs Moduli (GPa) = 111.27478 67.26637 58.68406
#
# Poissons Ratio (x) = 0.07977 0.29521
# Poissons Ratio (y) = 0.13195 -0.01459
# Poissons Ratio (z) = 0.55976 -0.01672
#
# Static dielectric constant tensor:
#      x y z
#    x 1.773330 0.000000 0.000000 
#    y 0.000000 1.819310 0.000000 
#    z 0.000000 0.000000 1.784140 
# 
# From -- ./inp_files/11054.got.cif
#   From: 2010.05.17/outbox.cif.g08.bks.cpg/sg71_6_cif.got.tgz:11054.got - 2010.06.03 16:22:01.
