data_PCOD9521252
_publ_section_title
;
Structure prediction by ZEFSAII (Michael W. Deem and Ramdas Pophale) SiO2 
 PCOD9521252
Probable space group: I M M M
;
_chemical_formula_sum "Si O2"
_cell_formula_units_Z 64
_cell_length_a 8.029731
_cell_length_b 24.877812
_cell_length_c 15.938857
_cell_angle_alpha 90.000000
_cell_angle_beta 90.000000
_cell_angle_gamma 90.000000
_cell_volume 3183.980155
_symmetry_space_group_name_H-M "I M M M"
_symmetry_group_IT_number 71
_symmetry_cell_setting 'orthorhombic'
loop_
_space_group_symop_operation_xyz
x,y,z
-x,-y,z
x,-y,-z
-x,y,-z
-x,-y,-z
x,y,-z
-x,y,z
x,-y,z
1/2+x,1/2+y,1/2+z
1/2-x,1/2-y,1/2+z
1/2+x,1/2-y,1/2-z
1/2-x,1/2+y,1/2-z
1/2-x,1/2-y,1/2-z
1/2+x,1/2+y,1/2-z
1/2-x,1/2+y,1/2+z
1/2+x,1/2-y,1/2+z
loop_
_atom_site_type_symbol
_atom_site_label
_atom_site_fract_x
_atom_site_fract_y
_atom_site_fract_z
Si Si1 0.299217 0.774311 0.338919
Si Si2 0.701890 0.294129 0.500000
Si Si3 0.806971 0.000000 0.860568
Si Si4 0.203697 0.388741 0.097739
Si Si5 0.805319 0.500000 0.174137
Si Si6 0.197125 0.582121 0.500000
O O1 0.500000 0.775328 0.342778
O O2 0.250000 0.750000 0.250000
O O3 0.241696 0.737494 0.416745
O O4 0.239972 0.835407 0.353507
O O5 0.500000 0.294092 0.500000
O O6 0.760462 0.355375 0.500000
O O7 0.707877 0.000000 0.774261
O O8 0.767719 0.948628 0.918696
O O9 0.000000 0.000000 0.838522
O O10 0.265357 0.444625 0.136928
O O11 0.000000 0.388877 0.101351
O O12 0.248945 0.384636 0.000000
O O13 0.000000 0.500000 0.149958
O O14 0.000000 0.574270 0.500000
#
# Coordination Sequence:
#
# PCOD9521252 Si02
#       6
#    16   8   8  16   8   8
#     4  10  21  37  58  84 117 156 201 243 292 351
#     4  10  21  39  60  85 121 162 197 240 299 361
#     4  11  23  41  60  84 120 155 187 228 293 358
#     4   9  17  34  58  84 114 150 193 245 292 338
#     4  10  20  33  58  91 117 145 194 245 288 337
#     4  11  23  40  63  86 113 147 196 246 289 341
#
# _framework density 20.100629000000001
#
# number of rings (size 3 to 8) (size 9 to 14) (size 15 to 20)
#    0.000    2.000    1.250    3.375    3.500    2.500 
#    0.000    0.000    0.000    3.000    0.000    0.000 
#    0.000    0.000    0.000    0.000    0.000    0.000 
#
# Total GULP energy -178753.266084 kJ/mol
# GULP energy per Si atom -5586.039565 kJ/mol
# Density = 2.005488 g / cm^3
# Si number density = 20.100629 Si / 1000 Ang^3
#
#
#
# Elastic Constant Matrix: (Units=GPa)
#
#
# Indices 1 2 3 4 5 6 
#
# 1 17.5164 3.1593 -15.8638 0.0000 0.0000 0.0000
# 2 3.1593 224.7941 103.8604 0.0000 0.0000 0.0000
# 3 -15.8638 103.8604 152.6997 0.0000 -0.0002 0.0002
# 4 0.0000 0.0000 0.0000 8.6283 0.0000 0.0000
# 5 0.0000 0.0000 -0.0002 0.0000 20.0144 0.0000
# 6 0.0000 0.0000 0.0002 0.0000 0.0000 -1.4605
#
#
#
# Elastic Compliance Matrix: (Units=1/GPa)
#
#
# Indices 1 2 3 4 5 6 
#
# 1 0.068465 -0.006195 0.011327 0.000000 0.000000 0.000003
# 2 -0.006195 0.007048 -0.005437 0.000000 0.000000 -0.000001
# 3 0.011327 -0.005437 0.011424 0.000000 0.000000 0.000002
# 4 0.000000 0.000000 0.000000 0.115898 0.000000 -0.000002
# 5 0.000000 0.000000 0.000000 0.000000 0.049964 0.000000
# 6 0.000003 -0.000001 0.000002 -0.000002 0.000000 -0.684677
#
#
# Mechanical properties :
#
#
# Convention : Reuss Voigt Hill
#
# Bulk Modulus (GPa) = 11.58426 64.14689 37.86558
# Shear Modulus (GPa) = -12.42260 25.69338 6.63539
#
# Velocity S-wave (km/s) = -2.48870 3.57912 1.81886
# Velocity P-wave (km/s) = 1.57560 7.00445 4.82596
#
# Compressibility (1/GPa) = 0.08632405
#
# Stress axis : x y z
#
# Youngs Moduli (GPa) = 14.60607 141.89000 87.53743
#
# Poissons Ratio (x) = 0.87906 -0.99150
# Poissons Ratio (y) = 0.09049 0.47596
# Poissons Ratio (z) = -0.16544 0.77149
#
# Static dielectric constant tensor:
#      x y z
#    x 1.732370 0.000000 0.000000 
#    y 0.000000 1.702290 0.000000 
#    z 0.000000 0.000000 1.717510 
# 
# From -- ./inp_files/31215.got.cif
#   From: 2010.05.17/outbox.cif.g08.bks.cpg/sg71_16_cif.got.tgz:31215.got - 2010.06.03 16:22:01.
