data_PCOD9521300
_publ_section_title
;
Structure prediction by ZEFSAII (Michael W. Deem and Ramdas Pophale) SiO2 
 PCOD9521300
Probable space group: I M M M
;
_chemical_formula_sum "Si O2"
_cell_formula_units_Z 88
_cell_length_a 17.678130
_cell_length_b 30.493104
_cell_length_c 7.440857
_cell_angle_alpha 90.000000
_cell_angle_beta 90.000000
_cell_angle_gamma 90.000000
_cell_volume 4011.076237
_symmetry_space_group_name_H-M "I M M M"
_symmetry_group_IT_number 71
_symmetry_cell_setting 'orthorhombic'
loop_
_space_group_symop_operation_xyz
x,y,z
-x,-y,z
x,-y,-z
-x,y,-z
-x,-y,-z
x,y,-z
-x,y,z
x,-y,z
1/2+x,1/2+y,1/2+z
1/2-x,1/2-y,1/2+z
1/2+x,1/2-y,1/2-z
1/2-x,1/2+y,1/2-z
1/2-x,1/2-y,1/2-z
1/2+x,1/2+y,1/2-z
1/2-x,1/2+y,1/2+z
1/2+x,1/2-y,1/2+z
loop_
_atom_site_type_symbol
_atom_site_label
_atom_site_fract_x
_atom_site_fract_y
_atom_site_fract_z
Si Si1 0.000000 0.821507 0.714858
Si Si2 0.588309 0.000000 0.719074
Si Si3 0.659572 0.280178 0.290969
Si Si4 0.664351 0.549197 0.781887
Si Si5 0.680359 0.912466 0.720341
Si Si6 0.500000 0.422212 0.219419
Si Si7 0.185189 0.683697 0.794224
O O1 0.076341 0.798862 0.776872
O O2 0.000000 0.871743 0.772155
O O3 0.000000 0.820948 0.500000
O O4 0.630541 0.954769 0.775184
O O5 0.500000 0.000000 0.772119
O O6 0.590904 0.000000 0.500000
O O7 0.681248 0.277183 0.500000
O O8 0.723298 0.311380 0.205856
O O9 0.660971 0.230630 0.214310
O O10 0.686942 0.500000 0.734780
O O11 0.732589 0.579922 0.722992
O O12 0.579333 0.557820 0.718621
O O13 0.661929 0.552063 0.000000
O O14 0.678809 0.912051 0.500000
O O15 0.659681 0.863224 0.781641
O O16 0.500000 0.425722 0.000000
O O17 0.157817 0.683911 0.000000
#
# Coordination Sequence:
#
# PCOD9521300 Si02
#       7
#     8   8  16  16  16   8  16
#     4  11  21  34  51  72 102 139 173 212 256 301
#     4   9  16  26  40  65 100 132 161 201 258 313
#     4  10  20  34  51  74 104 136 172 213 254 301
#     4   9  14  21  35  58  93 124 151 190 239 291
#     4   9  15  26  43  66  96 130 162 200 254 309
#     4   9  17  25  38  63  92 128 163 193 236 290
#     4   9  18  33  53  75 100 133 169 210 259 310
#
# _framework density 21.939249
#
# number of rings (size 3 to 8) (size 9 to 14) (size 15 to 20)
#    0.000    2.636    0.909    2.182    0.000    4.727 
#    1.636    0.000    0.000    0.000    0.000    0.636 
#    0.000    5.091    0.000    0.000    0.000    0.000 
#
# Total GULP energy -245467.523521 kJ/mol
# GULP energy per Si atom -5578.807353 kJ/mol
# Density = 2.188931 g / cm^3
# Si number density = 21.939249 Si / 1000 Ang^3
#
#
#
# Elastic Constant Matrix: (Units=GPa)
#
#
# Indices 1 2 3 4 5 6 
#
# 1 45.4432 12.4019 -10.4448 -0.0030 0.0007 0.0000
# 2 12.4019 137.2926 3.3811 -0.0057 0.0003 -0.0001
# 3 -10.4448 3.3811 69.6113 -0.0293 -0.0063 0.0037
# 4 -0.0030 -0.0057 -0.0293 0.7367 -0.0012 0.0004
# 5 0.0007 0.0003 -0.0063 -0.0012 1.7287 0.0003
# 6 0.0000 -0.0001 0.0037 0.0004 0.0003 21.9886
#
#
#
# Elastic Compliance Matrix: (Units=1/GPa)
#
#
# Indices 1 2 3 4 5 6 
#
# 1 0.023441 -0.002207 0.003624 0.000222 0.000005 -0.000001
# 2 -0.002207 0.007500 -0.000695 0.000021 -0.000003 0.000000
# 3 0.003624 -0.000695 0.014943 0.000603 0.000053 -0.000003
# 4 0.000222 0.000021 0.000603 1.357501 0.000916 -0.000026
# 5 0.000005 -0.000003 0.000053 0.000916 0.578460 -0.000007
# 6 -0.000001 0.000000 -0.000003 -0.000026 -0.000007 0.045478
#
#
# Mechanical properties :
#
#
# Convention : Reuss Voigt Hill
#
# Bulk Modulus (GPa) = 21.12870 29.22484 25.17677
# Shear Modulus (GPa) = 2.44899 21.35805 11.90352
#
# Velocity S-wave (km/s) = 1.05768 3.12349 2.33183
# Velocity P-wave (km/s) = 3.33812 5.13401 4.33019
#
# Compressibility (1/GPa) = 0.04732899
#
# Stress axis : x y z
#
# Youngs Moduli (GPa) = 42.66068 133.33018 66.91940
#
# Poissons Ratio (x) = 0.29422 -0.24254
# Poissons Ratio (y) = 0.09414 0.04653
# Poissons Ratio (z) = -0.15462 0.09272
#
# Static dielectric constant tensor:
#      x y z
#    x 1.772140 0.000000 0.000000 
#    y 0.000000 1.801490 -0.000010 
#    z 0.000000 -0.000010 1.892240 
# 
# From -- ./inp_files/8933.got.cif
#   From: 2010.05.17/outbox.cif.g08.bks.cpg/sg71_5_cif.got.tgz:8933.got - 2010.06.03 16:22:01.
