data_PCOD9521195
_publ_section_title
;
Structure prediction by ZEFSAII (Michael W. Deem and Ramdas Pophale) SiO2 
 PCOD9521195
Probable space group: I M M M
;
_chemical_formula_sum "Si O2"
_cell_formula_units_Z 88
_cell_length_a 24.883554
_cell_length_b 21.425179
_cell_length_c 8.084871
_cell_angle_alpha 90.000000
_cell_angle_beta 90.000000
_cell_angle_gamma 90.000000
_cell_volume 4310.324455
_symmetry_space_group_name_H-M "I M M M"
_symmetry_group_IT_number 71
_symmetry_cell_setting 'orthorhombic'
loop_
_space_group_symop_operation_xyz
x,y,z
-x,-y,z
x,-y,-z
-x,y,-z
-x,-y,-z
x,y,-z
-x,y,z
x,-y,z
1/2+x,1/2+y,1/2+z
1/2-x,1/2-y,1/2+z
1/2+x,1/2-y,1/2-z
1/2-x,1/2+y,1/2-z
1/2-x,1/2-y,1/2-z
1/2+x,1/2+y,1/2-z
1/2-x,1/2+y,1/2+z
1/2+x,1/2-y,1/2+z
loop_
_atom_site_type_symbol
_atom_site_label
_atom_site_fract_x
_atom_site_fract_y
_atom_site_fract_z
Si Si1 0.000000 0.394521 0.809954
Si Si2 0.289655 0.305823 0.808101
Si Si3 0.269870 0.927342 0.806743
Si Si4 0.385655 0.074073 0.312583
Si Si5 0.907552 0.165462 0.694592
Si Si6 0.000000 0.072077 0.297342
Si Si7 0.500000 0.747505 0.311335
O O1 0.943297 0.412787 0.733340
O O2 0.000000 0.320876 0.819759
O O3 0.000000 0.421094 0.000000
O O4 0.250000 0.250000 0.750000
O O5 0.262615 0.373776 0.786096
O O6 0.349573 0.315720 0.732003
O O7 0.297751 0.291662 0.000000
O O8 0.332343 0.908659 0.784825
O O9 0.262700 0.000000 0.749870
O O10 0.255756 0.925610 0.000000
O O11 0.384063 0.101613 0.500000
O O12 0.382741 0.000000 0.328703
O O13 0.899189 0.152152 0.500000
O O14 0.945611 0.108441 0.758069
O O15 0.947508 0.223234 0.718864
O O16 0.000000 0.075030 0.500000
O O17 0.000000 0.000000 0.248154
O O18 0.500000 0.722958 0.500000
#
# Coordination Sequence:
#
# PCOD9521195 Si02
#       7
#     8  16  16  16  16   8   8
#     4   9  18  30  49  79 105 136 183 230 279 333
#     4  11  24  40  61  87 118 158 205 253 301 358
#     4  10  22  40  59  83 118 156 195 242 296 354
#     4   9  17  32  54  78 107 143 185 233 281 334
#     4   9  20  38  56  80 113 146 185 234 287 347
#     4   8  14  30  59  88 111 137 173 224 286 350
#     4  10  20  33  53  80 112 147 182 223 276 341
#
# _framework density 20.416096
#
# number of rings (size 3 to 8) (size 9 to 14) (size 15 to 20)
#    0.000    2.455    0.000    2.182    2.545    4.364 
#    0.000    3.182    0.000    6.545    0.000    0.000 
#    0.000    0.000    0.000    0.000    0.000    0.000 
#
# Total GULP energy -244996.584287 kJ/mol
# GULP energy per Si atom -5568.104188 kJ/mol
# Density = 2.036963 g / cm^3
# Si number density = 20.416096 Si / 1000 Ang^3
#
#
#
# Elastic Constant Matrix: (Units=GPa)
#
#
# Indices 1 2 3 4 5 6 
#
# 1 169.1919 54.3929 -0.5996 0.0000 0.0000 0.0000
# 2 54.3929 73.5691 7.0110 0.0000 0.0000 0.0000
# 3 -0.5996 7.0110 10.4096 0.0000 0.0000 0.0000
# 4 0.0000 0.0000 0.0000 23.2303 0.0000 0.0000
# 5 0.0000 0.0000 0.0000 0.0000 7.4731 0.0000
# 6 0.0000 0.0000 0.0000 0.0000 0.0000 3.2626
#
#
#
# Elastic Compliance Matrix: (Units=1/GPa)
#
#
# Indices 1 2 3 4 5 6 
#
# 1 0.007965 -0.006340 0.004729 0.000000 0.000000 0.000000
# 2 -0.006340 0.019571 -0.013546 0.000000 0.000000 0.000000
# 3 0.004729 -0.013546 0.105461 0.000000 0.000000 0.000000
# 4 0.000000 0.000000 0.000000 0.043047 0.000000 0.000000
# 5 0.000000 0.000000 0.000000 0.000000 0.133813 0.000000
# 6 0.000000 0.000000 0.000000 0.000000 0.000000 0.306500
#
#
# Mechanical properties :
#
#
# Convention : Reuss Voigt Hill
#
# Bulk Modulus (GPa) = 9.73874 41.64214 25.69044
# Shear Modulus (GPa) = 7.34322 19.61764 13.48043
#
# Velocity S-wave (km/s) = 1.89858 3.10319 2.57239
# Velocity P-wave (km/s) = 3.09622 5.76894 4.62965
#
# Compressibility (1/GPa) = 0.10268267
#
# Stress axis : x y z
#
# Youngs Moduli (GPa) = 125.54368 51.09635 9.48215
#
# Poissons Ratio (x) = 0.32394 -0.04484
# Poissons Ratio (y) = 0.79592 0.12845
# Poissons Ratio (z) = -0.59366 0.69217
#
# Static dielectric constant tensor:
#      x y z
#    x 1.887100 0.000000 0.000000 
#    y 0.000000 1.710050 0.000000 
#    z 0.000000 0.000000 1.770460 
# 
# From -- ./inp_files/12589.got.cif
#   From: 2010.05.17/outbox.cif.g08.bks.cpg/sg71_7_cif.got.tgz:12589.got - 2010.06.03 16:22:01.
