data_PCOD9521402
_publ_section_title
;
Structure prediction by ZEFSAII (Michael W. Deem and Ramdas Pophale) SiO2 
 PCOD9521402
Probable space group: I M M M
;
_chemical_formula_sum "Si O2"
_cell_formula_units_Z 88
_cell_length_a 30.297584
_cell_length_b 7.434726
_cell_length_c 18.406468
_cell_angle_alpha 90.000000
_cell_angle_beta 90.000000
_cell_angle_gamma 90.000000
_cell_volume 4146.134878
_symmetry_space_group_name_H-M "I M M M"
_symmetry_group_IT_number 71
_symmetry_cell_setting 'orthorhombic'
loop_
_space_group_symop_operation_xyz
x,y,z
-x,-y,z
x,-y,-z
-x,y,-z
-x,-y,-z
x,y,-z
-x,y,z
x,-y,z
1/2+x,1/2+y,1/2+z
1/2-x,1/2-y,1/2+z
1/2+x,1/2-y,1/2-z
1/2-x,1/2+y,1/2-z
1/2-x,1/2-y,1/2-z
1/2+x,1/2+y,1/2-z
1/2-x,1/2+y,1/2+z
1/2+x,1/2-y,1/2+z
loop_
_atom_site_type_symbol
_atom_site_label
_atom_site_fract_x
_atom_site_fract_y
_atom_site_fract_z
Si Si1 0.898433 0.780002 0.856059
Si Si2 0.949894 0.785756 0.287429
Si Si3 0.550554 0.280323 0.500000
Si Si4 0.698544 0.281936 0.677217
Si Si5 0.793861 0.289251 0.348226
Si Si6 0.383836 0.783429 0.918325
O O1 0.922688 0.718206 0.782478
O O2 0.847446 0.723140 0.857096
O O3 0.898316 0.000000 0.854916
O O4 0.924644 0.722926 0.927227
O O5 0.921644 0.757509 0.360050
O O6 0.000000 0.715341 0.291403
O O7 0.953149 0.000000 0.277409
O O8 0.550632 0.500000 0.500000
O O9 0.500000 0.222253 0.500000
O O10 0.699861 0.500000 0.676108
O O11 0.744252 0.215899 0.641636
O O12 0.697863 0.227717 0.761891
O O13 0.791861 0.500000 0.367215
O O14 0.836289 0.214015 0.389866
O O15 0.380952 0.000000 0.920420
O O16 0.393123 0.719954 0.000000
#
# Coordination Sequence:
#
# PCOD9521402 Si02
#       6
#    16  16   8  16  16  16
#     4   9  16  28  46  71 101 130 159 195 243 294
#     4  10  20  34  53  75  98 126 164 210 254 295
#     4   9  16  26  42  68 103 135 159 191 242 297
#     4   9  16  28  49  74  98 124 158 200 241 284
#     4   9  17  30  48  71  96 126 161 197 240 289
#     4  10  21  36  51  70 100 135 168 204 249 299
#
# _framework density 21.224585000000001
#
# number of rings (size 3 to 8) (size 9 to 14) (size 15 to 20)
#    0.000    2.636    1.818    0.545    0.000    3.273 
#    1.636    1.818    0.000    0.000    0.000    2.545 
#    0.000    4.364    0.000    0.000    0.000    0.000 
#
# Total GULP energy -245594.089197 kJ/mol
# GULP energy per Si atom -5581.683845 kJ/mol
# Density = 2.117628 g / cm^3
# Si number density = 21.224585 Si / 1000 Ang^3
#
#
#
# Elastic Constant Matrix: (Units=GPa)
#
#
# Indices 1 2 3 4 5 6 
#
# 1 228.1802 4.6057 95.7914 0.0000 0.0000 0.0000
# 2 4.6057 66.9093 -4.0997 0.0000 0.0000 0.0000
# 3 95.7914 -4.0997 122.9589 0.0000 0.0000 0.0000
# 4 0.0000 0.0000 0.0000 34.6349 0.0000 0.0000
# 5 0.0000 0.0000 0.0000 0.0000 17.6098 0.0000
# 6 0.0000 0.0000 0.0000 0.0000 0.0000 8.2105
#
#
#
# Elastic Compliance Matrix: (Units=1/GPa)
#
#
# Indices 1 2 3 4 5 6 
#
# 1 0.006551 -0.000765 -0.005129 0.000000 0.000000 0.000000
# 2 -0.000765 0.015066 0.001098 0.000000 0.000000 0.000000
# 3 -0.005129 0.001098 0.012165 0.000000 0.000000 0.000000
# 4 0.000000 0.000000 0.000000 0.028873 0.000000 0.000000
# 5 0.000000 0.000000 0.000000 0.000000 0.056787 0.000000
# 6 0.000000 0.000000 0.000000 0.000000 0.000000 0.121795
#
#
# Mechanical properties :
#
#
# Convention : Reuss Voigt Hill
#
# Bulk Modulus (GPa) = 41.33913 67.84923 54.59418
# Shear Modulus (GPa) = 19.31310 33.54110 26.42710
#
# Velocity S-wave (km/s) = 3.01979 3.97960 3.53245
# Velocity P-wave (km/s) = 5.62834 7.29061 6.51273
#
# Compressibility (1/GPa) = 0.02419016
#
# Stress axis : x y z
#
# Youngs Moduli (GPa) = 152.64265 66.37645 82.20037
#
# Poissons Ratio (x) = 0.05079 0.42163
# Poissons Ratio (y) = 0.11681 -0.09030
# Poissons Ratio (z) = 0.78295 -0.07291
#
# Static dielectric constant tensor:
#      x y z
#    x 1.769380 0.000000 0.000000 
#    y 0.000000 1.881200 0.000000 
#    z 0.000000 0.000000 1.708810 
# 
# From -- ./inp_files/8737.got.cif
#   From: 2010.05.17/outbox.cif.g08.bks.cpg/sg71_5_cif.got.tgz:8737.got - 2010.06.03 16:22:01.
