data_PCOD9521152
_publ_section_title
;
Structure prediction by ZEFSAII (Michael W. Deem and Ramdas Pophale) SiO2 
 PCOD9521152
Probable space group: I M M M
;
_chemical_formula_sum "Si O2"
_cell_formula_units_Z 104
_cell_length_a 20.114633
_cell_length_b 26.595512
_cell_length_c 9.293610
_cell_angle_alpha 90.000000
_cell_angle_beta 90.000000
_cell_angle_gamma 90.000000
_cell_volume 4971.699971
_symmetry_space_group_name_H-M "I M M M"
_symmetry_group_IT_number 71
_symmetry_cell_setting 'orthorhombic'
loop_
_space_group_symop_operation_xyz
x,y,z
-x,-y,z
x,-y,-z
-x,y,-z
-x,-y,-z
x,y,-z
-x,y,z
x,-y,z
1/2+x,1/2+y,1/2+z
1/2-x,1/2-y,1/2+z
1/2+x,1/2-y,1/2-z
1/2-x,1/2+y,1/2-z
1/2-x,1/2-y,1/2-z
1/2+x,1/2+y,1/2-z
1/2-x,1/2+y,1/2+z
1/2+x,1/2-y,1/2+z
loop_
_atom_site_type_symbol
_atom_site_label
_atom_site_fract_x
_atom_site_fract_y
_atom_site_fract_z
Si Si1 0.244461 0.662868 0.165105
Si Si2 0.291775 0.444226 0.826596
Si Si3 0.081669 0.500000 0.161540
Si Si4 0.900213 0.187562 0.666655
Si Si5 0.874601 0.295742 0.673306
Si Si6 0.426185 0.586659 0.328187
Si Si7 0.079219 0.404403 0.338221
O O1 0.248731 0.604630 0.217121
O O2 0.320285 0.681265 0.165608
O O3 0.198423 0.697706 0.261517
O O4 0.220252 0.663639 0.000000
O O5 0.264972 0.500000 0.795088
O O6 0.364140 0.438805 0.752463
O O7 0.300274 0.439694 0.000000
O O8 0.103742 0.449620 0.240751
O O9 0.000000 0.500000 0.158599
O O10 0.106450 0.500000 0.000000
O O11 0.922200 0.180719 0.500000
O O12 0.911687 0.244667 0.716469
O O13 0.926201 0.143822 0.768558
O O14 0.871660 0.293491 0.500000
O O15 0.908342 0.348221 0.716260
O O16 0.415693 0.585442 0.500000
O O17 0.500000 0.565296 0.298322
O O18 0.106867 0.408438 0.500000
O O19 0.000000 0.410792 0.347756
#
# Coordination Sequence:
#
# PCOD9521152 Si02
#       7
#    16  16   8  16  16  16  16
#     4   9  18  33  52  75 104 137 171 210 260 309
#     4   9  19  37  58  78 104 140 181 220 259 311
#     4   9  17  31  51  71  91 121 161 199 238 289
#     4   9  19  35  54  75 102 139 178 213 252 305
#     4  10  20  33  52  79 104 130 172 217 256 306
#     4  10  21  35  52  79 112 142 175 217 266 315
#     4   9  18  33  51  71  99 132 163 202 252 301
#
# _framework density 20.918399000000001
#
# number of rings (size 3 to 8) (size 9 to 14) (size 15 to 20)
#    0.000    2.692    0.000    2.077    0.000    7.077 
#    1.385    3.077    0.000    1.846    0.000    0.000 
#    0.000    0.000    0.000    0.000    0.000    0.000 
#
# Total GULP energy -290154.711372 kJ/mol
# GULP energy per Si atom -5579.898296 kJ/mol
# Density = 2.087079 g / cm^3
# Si number density = 20.918399 Si / 1000 Ang^3
#
#
#
# Elastic Constant Matrix: (Units=GPa)
#
#
# Indices 1 2 3 4 5 6 
#
# 1 35.5629 -4.8054 0.8692 0.0000 0.0000 0.0000
# 2 -4.8054 131.2365 21.7135 0.0000 0.0000 0.0000
# 3 0.8692 21.7135 19.1614 0.0000 0.0000 0.0000
# 4 0.0000 0.0000 0.0000 18.6613 0.0000 0.0000
# 5 0.0000 0.0000 0.0000 0.0000 12.5085 0.0000
# 6 0.0000 0.0000 0.0000 0.0000 0.0000 4.6728
#
#
#
# Elastic Compliance Matrix: (Units=1/GPa)
#
#
# Indices 1 2 3 4 5 6 
#
# 1 0.028402 0.001542 -0.003036 0.000000 0.000000 0.000000
# 2 0.001542 0.009462 -0.010792 0.000000 0.000000 0.000000
# 3 -0.003036 -0.010792 0.064556 0.000000 0.000000 0.000000
# 4 0.000000 0.000000 0.000000 0.053587 0.000000 0.000000
# 5 0.000000 0.000000 0.000000 0.000000 0.079946 0.000000
# 6 0.000000 0.000000 0.000000 0.000000 0.000000 0.214006
#
#
# Mechanical properties :
#
#
# Convention : Reuss Voigt Hill
#
# Bulk Modulus (GPa) = 12.84563 24.61282 18.72923
# Shear Modulus (GPa) = 9.99044 18.38074 14.18559
#
# Velocity S-wave (km/s) = 2.18776 2.96748 2.60694
# Velocity P-wave (km/s) = 3.54060 4.85107 4.24669
#
# Compressibility (1/GPa) = 0.07784750
#
# Stress axis : x y z
#
# Youngs Moduli (GPa) = 35.20904 105.68703 15.49052
#
# Poissons Ratio (x) = -0.16300 0.04703
# Poissons Ratio (y) = -0.05430 0.16718
# Poissons Ratio (z) = 0.10690 1.14059
#
# Static dielectric constant tensor:
#      x y z
#    x 1.783190 0.000000 0.000000 
#    y 0.000000 1.782750 0.000000 
#    z 0.000000 0.000000 1.712440 
# 
# From -- ./inp_files/13284.got.cif
#   From: 2010.05.17/outbox.cif.g08.bks.cpg/sg71_7_cif.got.tgz:13284.got - 2010.06.03 16:22:01.
