data_PCOD9521408
_publ_section_title
;
Structure prediction by ZEFSAII (Michael W. Deem and Ramdas Pophale) SiO2 
 PCOD9521408
Probable space group: I M M M
;
_chemical_formula_sum "Si O2"
_cell_formula_units_Z 88
_cell_length_a 8.565870
_cell_length_b 30.462240
_cell_length_c 18.773381
_cell_angle_alpha 90.000000
_cell_angle_beta 90.000000
_cell_angle_gamma 90.000000
_cell_volume 4898.643205
_symmetry_space_group_name_H-M "I M M M"
_symmetry_group_IT_number 71
_symmetry_cell_setting 'orthorhombic'
loop_
_space_group_symop_operation_xyz
x,y,z
-x,-y,z
x,-y,-z
-x,y,-z
-x,-y,-z
x,y,-z
-x,y,z
x,-y,z
1/2+x,1/2+y,1/2+z
1/2-x,1/2-y,1/2+z
1/2+x,1/2-y,1/2-z
1/2-x,1/2+y,1/2-z
1/2-x,1/2-y,1/2-z
1/2+x,1/2+y,1/2-z
1/2-x,1/2+y,1/2+z
1/2+x,1/2-y,1/2+z
loop_
_atom_site_type_symbol
_atom_site_label
_atom_site_fract_x
_atom_site_fract_y
_atom_site_fract_z
Si Si1 0.318248 0.946471 0.000000
Si Si2 0.811343 0.449350 0.344252
Si Si3 0.183112 0.293307 0.288002
Si Si4 0.188690 0.152144 0.580993
Si Si5 0.685272 0.616700 0.228114
Si Si6 0.818422 0.249740 0.083666
O O1 0.252056 0.933404 0.922581
O O2 0.500000 0.932759 0.000000
O O3 0.316644 0.000000 0.000000
O O4 0.761797 0.500000 0.334791
O O5 0.760191 0.419704 0.278591
O O6 0.000000 0.449045 0.348016
O O7 0.250000 0.250000 0.250000
O O8 0.271453 0.336075 0.260896
O O9 0.216948 0.283582 0.370502
O O10 0.000000 0.298010 0.274168
O O11 0.231282 0.139039 0.500000
O O12 0.236276 0.119945 0.645130
O O13 0.260905 0.200230 0.594866
O O14 0.000000 0.156582 0.583669
O O15 0.500000 0.610522 0.229108
O O16 0.000000 0.246416 0.104885
O O17 0.805497 0.240980 0.000000
#
# Coordination Sequence:
#
# PCOD9521408 Si02
#       6
#     8  16  16  16  16  16
#     4   7  12  28  55  81 103 133 175 217 257 309
#     4   9  18  35  59  83 107 138 177 221 267 319
#     4  12  23  36  54  76 107 145 182 222 269 321
#     4   9  18  33  53  75 101 138 182 223 264 318
#     4  11  22  35  54  81 110 140 176 222 274 324
#     4  10  20  34  53  76 103 137 179 226 270 314
#
# _framework density 17.964158000000001
#
# number of rings (size 3 to 8) (size 9 to 14) (size 15 to 20)
#    0.000    2.091    1.818    3.818    0.000    2.182 
#    1.636    0.455    0.000    2.182    0.000    3.818 
#    0.000    0.000    0.000    0.000    0.000    0.000 
#
# Total GULP energy -245384.834193 kJ/mol
# GULP energy per Si atom -5576.928050 kJ/mol
# Density = 1.792327 g / cm^3
# Si number density = 17.964158 Si / 1000 Ang^3
#
#
#
# Elastic Constant Matrix: (Units=GPa)
#
#
# Indices 1 2 3 4 5 6 
#
# 1 12.6750 0.2442 11.9172 0.0000 0.0000 0.0000
# 2 0.2442 57.6023 48.7108 0.0000 0.0000 0.0000
# 3 11.9172 48.7108 137.2915 0.0000 0.0000 0.0000
# 4 0.0000 0.0000 0.0000 31.3338 0.0000 0.0000
# 5 0.0000 0.0000 0.0000 0.0000 27.6052 0.0000
# 6 0.0000 0.0000 0.0000 0.0000 0.0000 23.0984
#
#
#
# Elastic Compliance Matrix: (Units=1/GPa)
#
#
# Indices 1 2 3 4 5 6 
#
# 1 0.088913 0.008786 -0.010835 0.000000 0.000000 0.000000
# 2 0.008786 0.025670 -0.009870 0.000000 0.000000 0.000000
# 3 -0.010835 -0.009870 0.011726 0.000000 0.000000 0.000000
# 4 0.000000 0.000000 0.000000 0.031914 0.000000 0.000000
# 5 0.000000 0.000000 0.000000 0.000000 0.036225 0.000000
# 6 0.000000 0.000000 0.000000 0.000000 0.000000 0.043293
#
#
# Mechanical properties :
#
#
# Convention : Reuss Voigt Hill
#
# Bulk Modulus (GPa) = 9.75894 36.59034 23.17464
# Shear Modulus (GPa) = 16.90687 26.18725 21.54706
#
# Velocity S-wave (km/s) = 3.07114 3.82219 3.46706
# Velocity P-wave (km/s) = 4.24501 6.31598 5.38106
#
# Compressibility (1/GPa) = 0.10247010
#
# Stress axis : x y z
#
# Youngs Moduli (GPa) = 11.24693 38.95618 85.27898
#
# Poissons Ratio (x) = -0.34225 0.92399
# Poissons Ratio (y) = -0.09881 0.84172
# Poissons Ratio (z) = 0.12186 0.38451
#
# Static dielectric constant tensor:
#      x y z
#    x 1.614850 0.000000 0.000000 
#    y 0.000000 1.572300 0.000000 
#    z 0.000000 0.000000 1.690820 
# 
# From -- ./inp_files/8763.got.cif
#   From: 2010.05.17/outbox.cif.g08.bks.cpg/sg71_5_cif.got.tgz:8763.got - 2010.06.03 16:22:01.
