data_PCOD9521435
_publ_section_title
;
Structure prediction by ZEFSAII (Michael W. Deem and Ramdas Pophale) SiO2 
 PCOD9521435
Probable space group: I M M M
;
_chemical_formula_sum "Si O2"
_cell_formula_units_Z 96
_cell_length_a 19.486167
_cell_length_b 28.658018
_cell_length_c 8.810386
_cell_angle_alpha 90.000000
_cell_angle_beta 90.000000
_cell_angle_gamma 90.000000
_cell_volume 4920.027242
_symmetry_space_group_name_H-M "I M M M"
_symmetry_group_IT_number 71
_symmetry_cell_setting 'orthorhombic'
loop_
_space_group_symop_operation_xyz
x,y,z
-x,-y,z
x,-y,-z
-x,y,-z
-x,-y,-z
x,y,-z
-x,y,z
x,-y,z
1/2+x,1/2+y,1/2+z
1/2-x,1/2-y,1/2+z
1/2+x,1/2-y,1/2-z
1/2-x,1/2+y,1/2-z
1/2-x,1/2-y,1/2-z
1/2+x,1/2+y,1/2-z
1/2-x,1/2+y,1/2+z
1/2+x,1/2-y,1/2+z
loop_
_atom_site_type_symbol
_atom_site_label
_atom_site_fract_x
_atom_site_fract_y
_atom_site_fract_z
Si Si1 0.579984 0.298977 0.318806
Si Si2 0.327165 0.378373 0.825153
Si Si3 0.580040 0.555485 0.331945
Si Si4 0.421619 0.102083 0.317196
Si Si5 0.416939 0.200271 0.827393
Si Si6 0.287469 0.947954 0.315034
O O1 0.579230 0.299874 0.500000
O O2 0.500000 0.308524 0.268265
O O3 0.635462 0.335841 0.258457
O O4 0.600275 0.247571 0.260573
O O5 0.381509 0.420134 0.803955
O O6 0.259028 0.404234 0.763456
O O7 0.316246 0.365523 0.000000
O O8 0.606052 0.570645 0.500000
O O9 0.500000 0.567532 0.327459
O O10 0.586165 0.500000 0.324367
O O11 0.422487 0.104907 0.500000
O O12 0.500000 0.092967 0.266523
O O13 0.397764 0.152198 0.254025
O O14 0.366002 0.063319 0.274333
O O15 0.500000 0.199517 0.831478
O O16 0.391416 0.201786 0.000000
O O17 0.282210 0.948274 0.500000
O O18 0.266665 0.000000 0.262465
#
# Coordination Sequence:
#
# PCOD9521435 Si02
#       6
#    16  16  16  16  16  16
#     4  10  20  34  53  77 106 140 179 220 257 298
#     4  11  21  32  48  71 102 139 176 214 259 308
#     4   9  18  32  48  66  91 126 170 219 265 306
#     4   9  17  32  57  84 106 132 169 211 257 313
#     4   9  17  31  53  81 111 138 166 207 260 313
#     4   9  19  35  53  76 107 139 172 215 264 309
#
# _framework density 19.512086
#
# number of rings (size 3 to 8) (size 9 to 14) (size 15 to 20)
#    0.000    2.500    0.000    3.000    0.000    6.667 
#    0.000    5.000    0.000    2.500    0.000    2.333 
#    0.000    0.000    0.000    0.000    0.000    0.000 
#
# Total GULP energy -267461.807460 kJ/mol
# GULP energy per Si atom -5572.120989 kJ/mol
# Density = 1.946768 g / cm^3
# Si number density = 19.512086 Si / 1000 Ang^3
#
#
#
# Elastic Constant Matrix: (Units=GPa)
#
#
# Indices 1 2 3 4 5 6 
#
# 1 60.1962 34.3109 11.0781 0.0000 0.0000 0.0000
# 2 34.3109 57.3977 7.0543 0.0000 0.0000 0.0000
# 3 11.0781 7.0543 23.7308 0.0000 0.0000 0.0000
# 4 0.0000 0.0000 0.0000 23.9934 0.0000 0.0000
# 5 0.0000 0.0000 0.0000 0.0000 10.5719 0.0000
# 6 0.0000 0.0000 0.0000 0.0000 0.0000 41.0096
#
#
#
# Elastic Compliance Matrix: (Units=1/GPa)
#
#
# Indices 1 2 3 4 5 6 
#
# 1 0.026577 -0.014907 -0.007975 0.000000 0.000000 0.000000
# 2 -0.014907 0.026444 -0.000902 0.000000 0.000000 0.000000
# 3 -0.007975 -0.000902 0.046131 0.000000 0.000000 0.000000
# 4 0.000000 0.000000 0.000000 0.041678 0.000000 0.000000
# 5 0.000000 0.000000 0.000000 0.000000 0.094591 0.000000
# 6 0.000000 0.000000 0.000000 0.000000 0.000000 0.024385
#
#
# Mechanical properties :
#
#
# Convention : Reuss Voigt Hill
#
# Bulk Modulus (GPa) = 19.38621 27.35679 23.37150
# Shear Modulus (GPa) = 15.40514 21.04041 18.22278
#
# Velocity S-wave (km/s) = 2.81288 3.28735 3.05933
# Velocity P-wave (km/s) = 4.52845 5.33477 4.94806
#
# Compressibility (1/GPa) = 0.05158305
#
# Stress axis : x y z
#
# Youngs Moduli (GPa) = 37.62705 37.81579 21.67760
#
# Poissons Ratio (x) = 0.56371 0.17289
# Poissons Ratio (y) = 0.56089 0.01955
# Poissons Ratio (z) = 0.30009 0.03411
#
# Static dielectric constant tensor:
#      x y z
#    x 1.713640 0.000000 0.000000 
#    y 0.000000 1.676880 0.000000 
#    z 0.000000 0.000000 1.692680 
# 
# From -- ./inp_files/13130.got.cif
#   From: 2010.05.17/outbox.cif.g08.bks.cpg/sg71_7_cif.got.tgz:13130.got - 2010.06.03 16:22:01.
