data_PCOD9521667
_publ_section_title
;
Structure prediction by ZEFSAII (Michael W. Deem and Ramdas Pophale) SiO2 
 PCOD9521667
Probable space group: I M M M
;
_chemical_formula_sum "Si O2"
_cell_formula_units_Z 116
_cell_length_a 23.831922
_cell_length_b 29.870195
_cell_length_c 8.782244
_cell_angle_alpha 90.000000
_cell_angle_beta 90.000000
_cell_angle_gamma 90.000000
_cell_volume 6251.764725
_symmetry_space_group_name_H-M "I M M M"
_symmetry_group_IT_number 71
_symmetry_cell_setting 'orthorhombic'
loop_
_space_group_symop_operation_xyz
x,y,z
-x,-y,z
x,-y,-z
-x,y,-z
-x,-y,-z
x,y,-z
-x,y,z
x,-y,z
1/2+x,1/2+y,1/2+z
1/2-x,1/2-y,1/2+z
1/2+x,1/2-y,1/2-z
1/2-x,1/2+y,1/2-z
1/2-x,1/2-y,1/2-z
1/2+x,1/2+y,1/2-z
1/2-x,1/2+y,1/2+z
1/2+x,1/2-y,1/2+z
loop_
_atom_site_type_symbol
_atom_site_label
_atom_site_fract_x
_atom_site_fract_y
_atom_site_fract_z
Si Si1 0.320185 0.878504 0.681956
Si Si2 0.561701 0.855912 0.184033
Si Si3 0.289190 0.785727 0.172427
Si Si4 0.433983 0.339486 0.671420
Si Si5 0.500000 0.500000 0.738187
Si Si6 0.727530 0.449827 0.814886
Si Si7 0.583795 0.244778 0.826721
Si Si8 0.900753 0.069977 0.682329
O O1 0.324438 0.881155 0.500000
O O2 0.383305 0.879797 0.749516
O O3 0.295216 0.830801 0.731965
O O4 0.275278 0.915339 0.736925
O O5 0.500000 0.874555 0.222949
O O6 0.562362 0.803366 0.232141
O O7 0.567297 0.855349 0.000000
O O8 0.250000 0.750000 0.250000
O O9 0.349988 0.763087 0.166379
O O10 0.271465 0.796406 0.000000
O O11 0.410801 0.343192 0.500000
O O12 0.500000 0.348958 0.666135
O O13 0.427915 0.288946 0.731207
O O14 0.408612 0.377816 0.778062
O O15 0.449813 0.460739 0.745246
O O16 0.743494 0.500000 0.771075
O O17 0.662787 0.441867 0.768187
O O18 0.726428 0.447021 0.000000
O O19 0.563257 0.251297 0.000000
O O20 0.905746 0.062506 0.500000
#
# Coordination Sequence:
#
# PCOD9521667 Si02
#       8
#    16  16  16  16   4  16  16  16
#     4  10  20  34  55  84 115 147 186 231 284 343
#     4   9  18  35  59  85 113 147 186 229 277 331
#     4  10  21  36  53  76 109 149 189 232 279 331
#     4  11  24  37  48  73 110 143 175 220 281 334
#     4  12  21  36  65  90 101 132 199 254 285 334
#     4   9  19  36  58  83 111 143 183 234 286 336
#     4   9  19  35  54  75 102 140 185 224 263 318
#     4  11  21  36  59  82 103 135 186 241 284 331
#
# _framework density 18.554760999999999
#
# number of rings (size 3 to 8) (size 9 to 14) (size 15 to 20)
#    0.000    2.069    1.379    3.103    1.931    4.414 
#    0.000    1.379    0.000    3.724    0.000    2.897 
#    0.000    0.000    0.000    0.000    0.000    0.000 
#
# Total GULP energy -322871.110539 kJ/mol
# GULP energy per Si atom -5566.743285 kJ/mol
# Density = 1.851253 g / cm^3
# Si number density = 18.554761 Si / 1000 Ang^3
#
#
#
# Elastic Constant Matrix: (Units=GPa)
#
#
# Indices 1 2 3 4 5 6 
#
# 1 158.8761 74.6754 26.4587 0.0000 0.0000 0.0000
# 2 74.6754 85.0089 14.9493 0.0000 0.0000 0.0000
# 3 26.4587 14.9493 23.3912 0.0000 0.0000 0.0000
# 4 0.0000 0.0000 0.0000 8.7156 0.0000 0.0000
# 5 0.0000 0.0000 0.0000 0.0000 18.3019 0.0000
# 6 0.0000 0.0000 0.0000 0.0000 0.0000 92.6183
#
#
#
# Elastic Compliance Matrix: (Units=1/GPa)
#
#
# Indices 1 2 3 4 5 6 
#
# 1 0.011803 -0.009036 -0.007576 0.000000 0.000000 0.000000
# 2 -0.009036 0.020171 -0.002670 0.000000 0.000000 0.000000
# 3 -0.007576 -0.002670 0.053027 0.000000 0.000000 0.000000
# 4 0.000000 0.000000 0.000000 0.114737 0.000000 0.000000
# 5 0.000000 0.000000 0.000000 0.000000 0.054639 0.000000
# 6 0.000000 0.000000 0.000000 0.000000 0.000000 0.010797
#
#
# Mechanical properties :
#
#
# Convention : Reuss Voigt Hill
#
# Bulk Modulus (GPa) = 21.53476 55.49367 38.51422
# Shear Modulus (GPa) = 15.66336 34.00669 24.83503
#
# Velocity S-wave (km/s) = 2.90861 4.28574 3.66248
# Velocity P-wave (km/s) = 4.78657 7.37991 6.21990
#
# Compressibility (1/GPa) = 0.04643655
#
# Stress axis : x y z
#
# Youngs Moduli (GPa) = 84.72424 49.57705 18.85836
#
# Poissons Ratio (x) = 0.44798 0.14287
# Poissons Ratio (y) = 0.76557 0.05035
# Poissons Ratio (z) = 0.64186 0.13238
#
# Static dielectric constant tensor:
#      x y z
#    x 1.675140 0.000000 0.000000 
#    y 0.000000 1.617160 0.000000 
#    z 0.000000 0.000000 1.670560 
# 
# From -- ./inp_files/13445.got.cif
#   From: 2010.05.17/outbox.cif.g08.bks.cpg/sg71_7_cif.got.tgz:13445.got - 2010.06.03 16:22:01.
