data_PCOD9521476
_publ_section_title
;
Structure prediction by ZEFSAII (Michael W. Deem and Ramdas Pophale) SiO2 
 PCOD9521476
Probable space group: I M M M
;
_chemical_formula_sum "Si O2"
_cell_formula_units_Z 88
_cell_length_a 23.416718
_cell_length_b 23.176485
_cell_length_c 8.400469
_cell_angle_alpha 90.000000
_cell_angle_beta 90.000000
_cell_angle_gamma 90.000000
_cell_volume 4559.079128
_symmetry_space_group_name_H-M "I M M M"
_symmetry_group_IT_number 71
_symmetry_cell_setting 'orthorhombic'
loop_
_space_group_symop_operation_xyz
x,y,z
-x,-y,z
x,-y,-z
-x,y,-z
-x,-y,-z
x,y,-z
-x,y,z
x,-y,z
1/2+x,1/2+y,1/2+z
1/2-x,1/2-y,1/2+z
1/2+x,1/2-y,1/2-z
1/2-x,1/2+y,1/2-z
1/2-x,1/2-y,1/2-z
1/2+x,1/2+y,1/2-z
1/2-x,1/2+y,1/2+z
1/2+x,1/2-y,1/2+z
loop_
_atom_site_type_symbol
_atom_site_label
_atom_site_fract_x
_atom_site_fract_y
_atom_site_fract_z
Si Si1 0.150006 0.500000 0.179506
Si Si2 0.342682 0.124359 0.810415
Si Si3 0.786640 0.123615 0.810650
Si Si4 0.093433 0.839408 0.194540
Si Si5 0.437773 0.211104 0.307932
Si Si6 0.000000 0.932866 0.805592
Si Si7 0.711920 0.500000 0.181554
O O1 0.135852 0.439395 0.261146
O O2 0.219119 0.500000 0.175351
O O3 0.127859 0.500000 0.000000
O O4 0.277523 0.133493 0.746433
O O5 0.385975 0.172601 0.752054
O O6 0.339370 0.125658 0.000000
O O7 0.840873 0.158802 0.748966
O O8 0.803449 0.057616 0.774273
O O9 0.783635 0.132222 0.000000
O O10 0.067861 0.777888 0.241743
O O11 0.054957 0.894212 0.243991
O O12 0.093656 0.840981 0.000000
O O13 0.436244 0.210237 0.500000
O O14 0.500000 0.188940 0.255860
O O15 0.000000 0.000000 0.752715
O O16 0.000000 0.934177 0.000000
O O17 0.690632 0.500000 0.000000
#
# Coordination Sequence:
#
# PCOD9521476 Si02
#       7
#     8  16  16  16  16   8   8
#     4   9  17  33  56  80 106 138 173 212 259 308
#     4  10  20  34  53  80 112 141 172 213 265 324
#     4   9  18  31  50  77 106 138 174 218 268 315
#     4   9  17  31  50  76 108 139 178 227 268 304
#     4  10  20  36  56  76 102 139 182 224 266 313
#     4   9  16  26  46  80 112 137 176 229 270 298
#     4   9  17  29  47  73 107 141 174 209 255 316
#
# _framework density 19.302143999999998
#
# number of rings (size 3 to 8) (size 9 to 14) (size 15 to 20)
#    0.000    2.636    0.909    1.091    1.273    4.000 
#    0.000    1.364    0.000    2.727    0.000    0.636 
#    0.000    0.000    0.000    0.000    0.000    0.000 
#
# Total GULP energy -245137.663666 kJ/mol
# GULP energy per Si atom -5571.310538 kJ/mol
# Density = 1.925821 g / cm^3
# Si number density = 19.302144 Si / 1000 Ang^3
#
#
#
# Elastic Constant Matrix: (Units=GPa)
#
#
# Indices 1 2 3 4 5 6 
#
# 1 134.8337 72.4990 17.5053 0.0000 0.0000 0.0000
# 2 72.4990 108.7295 13.0421 0.0000 0.0000 0.0000
# 3 17.5053 13.0421 11.5434 0.0000 0.0000 0.0000
# 4 0.0000 0.0000 0.0000 15.4892 0.0000 0.0000
# 5 0.0000 0.0000 0.0000 0.0000 11.8185 0.0000
# 6 0.0000 0.0000 0.0000 0.0000 0.0000 47.7263
#
#
#
# Elastic Compliance Matrix: (Units=1/GPa)
#
#
# Indices 1 2 3 4 5 6 
#
# 1 0.012704 -0.007126 -0.011214 0.000000 0.000000 0.000000
# 2 -0.007126 0.014636 -0.005730 0.000000 0.000000 0.000000
# 3 -0.011214 -0.005730 0.110110 0.000000 0.000000 0.000000
# 4 0.000000 0.000000 0.000000 0.064561 0.000000 0.000000
# 5 0.000000 0.000000 0.000000 0.000000 0.084613 0.000000
# 6 0.000000 0.000000 0.000000 0.000000 0.000000 0.020953
#
#
# Mechanical properties :
#
#
# Convention : Reuss Voigt Hill
#
# Bulk Modulus (GPa) = 11.19704 51.24439 31.22072
# Shear Modulus (GPa) = 12.97061 25.14412 19.05736
#
# Velocity S-wave (km/s) = 2.59507 3.61315 3.14557
# Velocity P-wave (km/s) = 3.84612 6.63421 5.42242
#
# Compressibility (1/GPa) = 0.08930930
#
# Stress axis : x y z
#
# Youngs Moduli (GPa) = 78.71626 68.32623 9.08183
#
# Poissons Ratio (x) = 0.48686 0.10185
# Poissons Ratio (y) = 0.56090 0.05204
# Poissons Ratio (z) = 0.88276 0.39152
#
# Static dielectric constant tensor:
#      x y z
#    x 1.701940 0.000000 0.000000 
#    y 0.000000 1.403060 0.000000 
#    z 0.000000 0.000000 1.676340 
# 
# From -- ./inp_files/10522.got.cif
#   From: 2010.05.17/outbox.cif.g08.bks.cpg/sg71_6_cif.got.tgz:10522.got - 2010.06.03 16:22:01.
