data_PCOD9521948
_publ_section_title
;
Structure prediction by ZEFSAII (Michael W. Deem and Ramdas Pophale) SiO2 
 PCOD9521948
Probable space group: I M M M
;
_chemical_formula_sum "Si O2"
_cell_formula_units_Z 80
_cell_length_a 9.065489
_cell_length_b 21.687279
_cell_length_c 22.932037
_cell_angle_alpha 90.000000
_cell_angle_beta 90.000000
_cell_angle_gamma 90.000000
_cell_volume 4508.571233
_symmetry_space_group_name_H-M "I M M M"
_symmetry_group_IT_number 71
_symmetry_cell_setting 'orthorhombic'
loop_
_space_group_symop_operation_xyz
x,y,z
-x,-y,z
x,-y,-z
-x,y,-z
-x,-y,-z
x,y,-z
-x,y,z
x,-y,z
1/2+x,1/2+y,1/2+z
1/2-x,1/2-y,1/2+z
1/2+x,1/2-y,1/2-z
1/2-x,1/2+y,1/2-z
1/2-x,1/2-y,1/2-z
1/2+x,1/2+y,1/2-z
1/2-x,1/2+y,1/2+z
1/2+x,1/2-y,1/2+z
loop_
_atom_site_type_symbol
_atom_site_label
_atom_site_fract_x
_atom_site_fract_y
_atom_site_fract_z
Si Si1 0.174972 0.203828 0.166661
Si Si2 0.825513 0.660784 0.782434
Si Si3 0.175941 0.372106 0.431106
Si Si4 0.320745 0.428267 0.000000
Si Si5 0.825765 0.925744 0.372506
Si Si6 0.330580 0.500000 0.429215
O O1 0.202057 0.275377 0.182441
O O2 0.240479 0.166290 0.221438
O O3 0.254581 0.180925 0.108507
O O4 0.000000 0.194217 0.161998
O O5 0.765958 0.605779 0.821921
O O6 0.000000 0.656037 0.771733
O O7 0.207595 0.363269 0.500000
O O8 0.246990 0.437479 0.412251
O O9 0.000000 0.374503 0.424009
O O10 0.276029 0.402631 0.937045
O O11 0.275245 0.500000 0.000000
O O12 0.500000 0.427935 0.000000
O O13 0.000000 0.911395 0.365679
O O14 0.812411 0.000000 0.371693
O O15 0.500000 0.500000 0.408920
O O16 0.332044 0.500000 0.500000
#
# Coordination Sequence:
#
# PCOD9521948 Si02
#       6
#    16  16  16   8  16   8
#     4  10  21  38  58  77 103 143 184 222 267 323
#     4  10  21  37  56  78 106 141 179 224 274 321
#     4  10  20  35  56  83 113 142 177 223 270 316
#     4   7  12  26  49  75 103 137 173 210 253 302
#     4   9  17  32  55  81 109 141 179 220 262 316
#     4   9  17  31  53  79 109 145 177 210 261 320
#
# _framework density 17.743981000000002
#
# number of rings (size 3 to 8) (size 9 to 14) (size 15 to 20)
#    0.000    2.600    0.000    3.300    0.000    5.200 
#    3.600    0.500    0.000    1.800    0.000    0.000 
#    0.000    0.000    0.000    0.000    0.000    0.000 
#
# Total GULP energy -223021.337801 kJ/mol
# GULP energy per Si atom -5575.533445 kJ/mol
# Density = 1.770360 g / cm^3
# Si number density = 17.743981 Si / 1000 Ang^3
#
#
#
# Elastic Constant Matrix: (Units=GPa)
#
#
# Indices 1 2 3 4 5 6 
#
# 1 73.3309 33.7879 49.2662 0.0000 0.0000 0.0000
# 2 33.7879 26.3566 29.0744 0.0000 0.0000 0.0000
# 3 49.2662 29.0744 76.5681 0.0000 0.0000 0.0000
# 4 0.0000 0.0000 0.0000 24.8571 0.0000 0.0000
# 5 0.0000 0.0000 0.0000 0.0000 27.0086 0.0000
# 6 0.0000 0.0000 0.0000 0.0000 0.0000 27.7675
#
#
#
# Elastic Compliance Matrix: (Units=1/GPa)
#
#
# Indices 1 2 3 4 5 6 
#
# 1 0.037337 -0.036762 -0.010064 0.000000 0.000000 0.000000
# 2 -0.036762 0.101485 -0.014882 0.000000 0.000000 0.000000
# 3 -0.010064 -0.014882 0.025187 0.000000 0.000000 0.000000
# 4 0.000000 0.000000 0.000000 0.040230 0.000000 0.000000
# 5 0.000000 0.000000 0.000000 0.000000 0.037025 0.000000
# 6 0.000000 0.000000 0.000000 0.000000 0.000000 0.036013
#
#
# Mechanical properties :
#
#
# Convention : Reuss Voigt Hill
#
# Bulk Modulus (GPa) = 24.63542 44.50141 34.56842
# Shear Modulus (GPa) = 12.07075 20.20179 16.13627
#
# Velocity S-wave (km/s) = 2.61103 3.37785 3.01889
# Velocity P-wave (km/s) = 4.79624 6.35195 5.62811
#
# Compressibility (1/GPa) = 0.04059196
#
# Stress axis : x y z
#
# Youngs Moduli (GPa) = 26.78323 9.85369 39.70295
#
# Poissons Ratio (x) = 0.36224 0.39959
# Poissons Ratio (y) = 0.98460 0.59086
# Poissons Ratio (z) = 0.26956 0.14664
#
# Static dielectric constant tensor:
#      x y z
#    x 1.587620 0.000000 0.000000 
#    y 0.000000 1.597960 0.000000 
#    z 0.000000 0.000000 1.612100 
# 
# From -- ./inp_files/50419.got.cif
#   From: 2010.05.17/outbox.cif.g08.bks.cpg/sg71_26_cif.got.tgz:50419.got - 2010.06.03 16:22:01.
