data_PCOD9521530
_publ_section_title
;
Structure prediction by ZEFSAII (Michael W. Deem and Ramdas Pophale) SiO2 
 PCOD9521530
Probable space group: I M M M
;
_chemical_formula_sum "Si O2"
_cell_formula_units_Z 88
_cell_length_a 8.856251
_cell_length_b 19.472524
_cell_length_c 28.442167
_cell_angle_alpha 90.000000
_cell_angle_beta 90.000000
_cell_angle_gamma 90.000000
_cell_volume 4904.952957
_symmetry_space_group_name_H-M "I M M M"
_symmetry_group_IT_number 71
_symmetry_cell_setting 'orthorhombic'
loop_
_space_group_symop_operation_xyz
x,y,z
-x,-y,z
x,-y,-z
-x,y,-z
-x,-y,-z
x,y,-z
-x,y,z
x,-y,z
1/2+x,1/2+y,1/2+z
1/2-x,1/2-y,1/2+z
1/2+x,1/2-y,1/2-z
1/2-x,1/2+y,1/2-z
1/2-x,1/2-y,1/2-z
1/2+x,1/2+y,1/2-z
1/2-x,1/2+y,1/2+z
1/2+x,1/2-y,1/2+z
loop_
_atom_site_type_symbol
_atom_site_label
_atom_site_fract_x
_atom_site_fract_y
_atom_site_fract_z
Si Si1 0.179902 0.842560 0.411039
Si Si2 0.673762 0.416626 0.274679
Si Si3 0.184073 0.921437 0.121405
Si Si4 0.676318 0.082128 0.500000
Si Si5 0.317502 0.298234 0.445004
Si Si6 0.679231 0.918584 0.322915
O O1 0.245256 0.887790 0.453862
O O2 0.244503 0.766555 0.419302
O O3 0.236864 0.875449 0.362579
O O4 0.000000 0.842109 0.412770
O O5 0.500000 0.393827 0.268660
O O6 0.671783 0.500000 0.276239
O O7 0.730902 0.396341 0.326451
O O8 0.770143 0.396976 0.229408
O O9 0.227923 0.868325 0.081166
O O10 0.000000 0.923332 0.122827
O O11 0.234937 0.000000 0.113675
O O12 0.500000 0.102995 0.500000
O O13 0.684173 0.000000 0.500000
O O14 0.275602 0.297945 0.500000
O O15 0.500000 0.292509 0.442369
O O16 0.500000 0.911043 0.328426
O O17 0.715761 0.000000 0.328266
#
# Coordination Sequence:
#
# PCOD9521530 Si02
#       6
#    16  16  16   8  16  16
#     4  12  24  37  54  77 108 146 185 222 265 321
#     4   8  14  28  51  78 109 141 174 218 271 323
#     4   8  15  30  55  86 113 139 178 226 272 323
#     4  11  23  39  59  81 106 137 178 227 273 316
#     4  10  20  35  56  79 109 148 184 224 275 324
#     4  10  20  34  54  80 109 140 178 225 273 322
#
# _framework density 17.941049
#
# number of rings (size 3 to 8) (size 9 to 14) (size 15 to 20)
#    0.000    2.273    0.909    4.091    0.000    4.364 
#    0.000    3.636    0.000    1.636    0.000    1.273 
#    0.000    0.000    0.000    0.000    0.000    0.000 
#
# Total GULP energy -245501.407949 kJ/mol
# GULP energy per Si atom -5579.577453 kJ/mol
# Density = 1.790021 g / cm^3
# Si number density = 17.941049 Si / 1000 Ang^3
#
#
#
# Elastic Constant Matrix: (Units=GPa)
#
#
# Indices 1 2 3 4 5 6 
#
# 1 54.5469 40.4427 43.8281 0.0000 0.0000 0.0000
# 2 40.4427 88.3764 61.7753 0.0000 0.0000 0.0000
# 3 43.8281 61.7753 106.3133 0.0000 0.0000 0.0000
# 4 0.0000 0.0000 0.0000 316.3347 0.0000 0.0000
# 5 0.0000 0.0000 0.0000 0.0000 16.6610 0.0000
# 6 0.0000 0.0000 0.0000 0.0000 0.0000 6.6090
#
#
#
# Elastic Compliance Matrix: (Units=1/GPa)
#
#
# Indices 1 2 3 4 5 6 
#
# 1 0.031051 -0.008860 -0.007652 0.000000 0.000000 0.000000
# 2 -0.008860 0.021583 -0.008888 0.000000 0.000000 0.000000
# 3 -0.007652 -0.008888 0.017726 0.000000 0.000000 0.000000
# 4 0.000000 0.000000 0.000000 0.003161 0.000000 0.000000
# 5 0.000000 0.000000 0.000000 0.000000 0.060020 0.000000
# 6 0.000000 0.000000 0.000000 0.000000 0.000000 0.151308
#
#
# Mechanical properties :
#
#
# Convention : Reuss Voigt Hill
#
# Bulk Modulus (GPa) = 51.13238 60.14766 55.64002
# Shear Modulus (GPa) = 14.61260 74.80031 44.70645
#
# Velocity S-wave (km/s) = 2.85700 6.46396 4.99726
# Velocity P-wave (km/s) = 6.28056 9.45031 8.02352
#
# Compressibility (1/GPa) = 0.01955708
#
# Stress axis : x y z
#
# Youngs Moduli (GPa) = 32.20518 46.33279 56.41545
#
# Poissons Ratio (x) = 0.41053 0.43171
# Poissons Ratio (y) = 0.28535 0.50144
# Poissons Ratio (z) = 0.24644 0.41183
#
# Static dielectric constant tensor:
#      x y z
#    x 1.600590 0.000000 0.000000 
#    y 0.000000 1.602760 0.000000 
#    z 0.000000 0.000000 1.611980 
# 
# From -- ./inp_files/49220.got.cif
#   From: 2010.05.17/outbox.cif.g08.bks.cpg/sg71_25_cif.got.tgz:49220.got - 2010.06.03 16:22:01.
