data_PCOD9521469
_publ_section_title
;
Structure prediction by ZEFSAII (Michael W. Deem and Ramdas Pophale) SiO2 
 PCOD9521469
Probable space group: I M M M
;
_chemical_formula_sum "Si O2"
_cell_formula_units_Z 104
_cell_length_a 22.459951
_cell_length_b 26.779297
_cell_length_c 8.102009
_cell_angle_alpha 90.000000
_cell_angle_beta 90.000000
_cell_angle_gamma 90.000000
_cell_volume 4873.048094
_symmetry_space_group_name_H-M "I M M M"
_symmetry_group_IT_number 71
_symmetry_cell_setting 'orthorhombic'
loop_
_space_group_symop_operation_xyz
x,y,z
-x,-y,z
x,-y,-z
-x,y,-z
-x,-y,-z
x,y,-z
-x,y,z
x,-y,z
1/2+x,1/2+y,1/2+z
1/2-x,1/2-y,1/2+z
1/2+x,1/2-y,1/2-z
1/2-x,1/2+y,1/2-z
1/2-x,1/2-y,1/2-z
1/2+x,1/2+y,1/2-z
1/2-x,1/2+y,1/2+z
1/2+x,1/2-y,1/2+z
loop_
_atom_site_type_symbol
_atom_site_label
_atom_site_fract_x
_atom_site_fract_y
_atom_site_fract_z
Si Si1 0.833518 0.056508 0.801753
Si Si2 0.564128 0.205611 0.697651
Si Si3 0.431829 0.368924 0.301779
Si Si4 0.381209 0.894247 0.300524
Si Si5 0.254154 0.143215 0.304188
Si Si6 0.157717 0.783802 0.308020
Si Si7 0.067817 0.500000 0.303583
O O1 0.899431 0.078367 0.772401
O O2 0.788638 0.095668 0.721298
O O3 0.826000 0.000000 0.744114
O O4 0.823805 0.057834 0.000000
O O5 0.561180 0.206864 0.500000
O O6 0.500000 0.225833 0.760072
O O7 0.571917 0.148257 0.750548
O O8 0.623959 0.235802 0.738853
O O9 0.429501 0.359173 0.500000
O O10 0.500000 0.367891 0.249622
O O11 0.391700 0.327182 0.216144
O O12 0.378886 0.894714 0.500000
O O13 0.317760 0.873740 0.236781
O O14 0.398502 0.949555 0.247489
O O15 0.261310 0.152186 0.500000
O O16 0.218290 0.191520 0.235031
O O17 0.168099 0.774806 0.500000
O O18 0.064322 0.500000 0.500000
O O19 0.000000 0.500000 0.235686
#
# Coordination Sequence:
#
# PCOD9521469 Si02
#       7
#    16  16  16  16  16  16   8
#     4   9  18  31  48  72 102 137 178 228 282 335
#     4  10  21  37  58  84 112 144 187 235 279 330
#     4   9  17  30  48  70  99 138 184 229 274 328
#     4  10  22  41  64  87 112 150 195 234 275 332
#     4   9  20  37  55  79 110 144 186 230 275 329
#     4  10  20  34  53  79 112 147 181 225 280 334
#     4  11  25  43  63  91 125 153 182 231 290 339
#
# _framework density 21.341877
#
# number of rings (size 3 to 8) (size 9 to 14) (size 15 to 20)
#    0.000    2.385    0.000    1.615    1.077    6.769 
#    0.000    1.538    0.000    0.000    0.000    4.308 
#    0.000    0.000    0.000    0.000    0.000    0.000 
#
# Total GULP energy -290119.517424 kJ/mol
# GULP energy per Si atom -5579.221489 kJ/mol
# Density = 2.129330 g / cm^3
# Si number density = 21.341877 Si / 1000 Ang^3
#
#
#
# Elastic Constant Matrix: (Units=GPa)
#
#
# Indices 1 2 3 4 5 6 
#
# 1 131.5649 50.4076 13.7693 0.0000 0.0000 0.0000
# 2 50.4076 136.9340 10.8531 0.0000 0.0000 0.0000
# 3 13.7693 10.8531 15.5722 0.0000 0.0000 0.0000
# 4 0.0000 0.0000 0.0000 -12.3026 0.0000 0.0000
# 5 0.0000 0.0000 0.0000 0.0000 20.0607 0.0000
# 6 0.0000 0.0000 0.0000 0.0000 0.0000 15.5529
#
#
#
# Elastic Compliance Matrix: (Units=1/GPa)
#
#
# Indices 1 2 3 4 5 6 
#
# 1 0.009388 -0.002962 -0.006237 0.000000 0.000000 0.000000
# 2 -0.002962 0.008664 -0.003420 0.000000 0.000000 0.000000
# 3 -0.006237 -0.003420 0.072116 0.000000 0.000000 0.000000
# 4 0.000000 0.000000 0.000000 -0.081284 0.000000 0.000000
# 5 0.000000 0.000000 0.000000 0.000000 0.049849 0.000000
# 6 0.000000 0.000000 0.000000 0.000000 0.000000 0.064297
#
#
# Mechanical properties :
#
#
# Convention : Reuss Voigt Hill
#
# Bulk Modulus (GPa) = 15.40102 48.23678 31.81890
# Shear Modulus (GPa) = 29.42737 18.59830 24.01284
#
# Velocity S-wave (km/s) = 3.71732 2.95523 3.35797
# Velocity P-wave (km/s) = 5.06524 5.85624 5.47504
#
# Compressibility (1/GPa) = 0.06493078
#
# Stress axis : x y z
#
# Youngs Moduli (GPa) = 106.51555 115.41947 13.86664
#
# Poissons Ratio (x) = 0.34183 0.08649
# Poissons Ratio (y) = 0.31546 0.04742
# Poissons Ratio (z) = 0.66436 0.39470
#
# Static dielectric constant tensor:
#      x y z
#    x 1.805470 0.000000 0.000000 
#    y 0.000000 1.768900 0.000000 
#    z 0.000000 0.000000 1.766910 
# 
# From -- ./inp_files/11047.got.cif
#   From: 2010.05.17/outbox.cif.g08.bks.cpg/sg71_6_cif.got.tgz:11047.got - 2010.06.03 16:22:01.
