data_PCOD9521712
_publ_section_title
;
Structure prediction by ZEFSAII (Michael W. Deem and Ramdas Pophale) SiO2 
 PCOD9521712
Probable space group: I M M M
;
_chemical_formula_sum "Si O2"
_cell_formula_units_Z 104
_cell_length_a 31.788266
_cell_length_b 8.749641
_cell_length_c 19.762374
_cell_angle_alpha 90.000000
_cell_angle_beta 90.000000
_cell_angle_gamma 90.000000
_cell_volume 5496.625985
_symmetry_space_group_name_H-M "I M M M"
_symmetry_group_IT_number 71
_symmetry_cell_setting 'orthorhombic'
loop_
_space_group_symop_operation_xyz
x,y,z
-x,-y,z
x,-y,-z
-x,y,-z
-x,-y,-z
x,y,-z
-x,y,z
x,-y,z
1/2+x,1/2+y,1/2+z
1/2-x,1/2-y,1/2+z
1/2+x,1/2-y,1/2-z
1/2-x,1/2+y,1/2-z
1/2-x,1/2-y,1/2-z
1/2+x,1/2+y,1/2-z
1/2-x,1/2+y,1/2+z
1/2+x,1/2-y,1/2+z
loop_
_atom_site_type_symbol
_atom_site_label
_atom_site_fract_x
_atom_site_fract_y
_atom_site_fract_z
Si Si1 0.670305 0.316749 0.423573
Si Si2 0.500000 0.672466 0.917785
Si Si3 0.911263 0.683679 0.423226
Si Si4 0.291019 0.317792 0.284994
Si Si5 0.127718 0.317249 0.287770
Si Si6 0.546997 0.318012 0.713135
Si Si7 0.922982 0.682097 0.922342
O O1 0.685400 0.286010 0.500000
O O2 0.662331 0.500000 0.418220
O O3 0.701968 0.273464 0.363715
O O4 0.625875 0.231393 0.414373
O O5 0.500000 0.500000 0.891345
O O6 0.543192 0.755506 0.900277
O O7 0.500000 0.667651 0.000000
O O8 0.902893 0.737590 0.500000
O O9 0.913424 0.500000 0.424765
O O10 0.877653 0.727070 0.366538
O O11 0.288432 0.500000 0.282130
O O12 0.250000 0.250000 0.250000
O O13 0.332765 0.261961 0.246695
O O14 0.132209 0.500000 0.282684
O O15 0.084723 0.266882 0.251115
O O16 0.500000 0.277086 0.737333
O O17 0.552509 0.500000 0.720257
O O18 0.551404 0.270922 0.634559
O O19 0.926989 0.500000 0.912266
O O20 0.935054 0.717488 0.000000
#
# Coordination Sequence:
#
# PCOD9521712 Si02
#       7
#    16   8  16  16  16  16  16
#     4   9  18  35  60  87 115 151 194 237 284 342
#     4   9  17  29  49  79 111 145 188 237 284 335
#     4   9  19  36  56  79 110 150 194 238 288 347
#     4  11  23  40  64  91 120 153 190 237 293 351
#     4  11  23  39  61  86 115 151 193 244 298 350
#     4  11  24  39  55  80 117 161 202 241 289 349
#     4  10  20  34  56  85 116 152 195 245 293 338
#
# _framework density 18.920698000000002
#
# number of rings (size 3 to 8) (size 9 to 14) (size 15 to 20)
#    0.000    1.923    1.538    2.077    1.077    5.231 
#    0.000    2.308    0.000    4.615    0.000    0.000 
#    0.000    0.000    0.000    0.000    0.000    0.000 
#
# Total GULP energy -290392.505026 kJ/mol
# GULP energy per Si atom -5584.471251 kJ/mol
# Density = 1.887763 g / cm^3
# Si number density = 18.920698 Si / 1000 Ang^3
#
#
#
# Elastic Constant Matrix: (Units=GPa)
#
#
# Indices 1 2 3 4 5 6 
#
# 1 95.3797 20.7709 56.3512 0.0000 0.0000 0.0000
# 2 20.7709 25.9780 27.0491 0.0000 0.0000 0.0000
# 3 56.3512 27.0491 115.0460 0.0000 0.0000 0.0000
# 4 0.0000 0.0000 0.0000 23.1773 0.0000 0.0000
# 5 0.0000 0.0000 0.0000 0.0000 27.7287 0.0000
# 6 0.0000 0.0000 0.0000 0.0000 0.0000 28.1929
#
#
#
# Elastic Compliance Matrix: (Units=1/GPa)
#
#
# Indices 1 2 3 4 5 6 
#
# 1 0.015410 -0.005908 -0.006159 0.000000 0.000000 0.000000
# 2 -0.005908 0.053238 -0.009623 0.000000 0.000000 0.000000
# 3 -0.006159 -0.009623 0.013971 0.000000 0.000000 0.000000
# 4 0.000000 0.000000 0.000000 0.043146 0.000000 0.000000
# 5 0.000000 0.000000 0.000000 0.000000 0.036064 0.000000
# 6 0.000000 0.000000 0.000000 0.000000 0.000000 0.035470
#
#
# Mechanical properties :
#
#
# Convention : Reuss Voigt Hill
#
# Bulk Modulus (GPa) = 25.48501 49.41624 37.45063
# Shear Modulus (GPa) = 19.70378 24.63528 22.16953
#
# Velocity S-wave (km/s) = 3.23055 3.61228 3.42674
# Velocity P-wave (km/s) = 5.23583 6.60093 5.95761
#
# Compressibility (1/GPa) = 0.03923876
#
# Stress axis : x y z
#
# Youngs Moduli (GPa) = 64.89410 18.78356 71.57483
#
# Poissons Ratio (x) = 0.11098 0.44081
# Poissons Ratio (y) = 0.38341 0.68878
# Poissons Ratio (z) = 0.39967 0.18076
#
# Static dielectric constant tensor:
#      x y z
#    x 1.614180 0.000000 0.000000 
#    y 0.000000 1.632980 0.000000 
#    z 0.000000 0.000000 1.711400 
# 
# From -- ./inp_files/56644.got.cif
#   From: 2010.05.17/outbox.cif.g08.bks.cpg/sg71_29_cif.got.tgz:56644.got - 2010.06.03 16:22:01.
