data_PCOD9521649
_publ_section_title
;
Structure prediction by ZEFSAII (Michael W. Deem and Ramdas Pophale) SiO2 
 PCOD9521649
Probable space group: I M M M
;
_chemical_formula_sum "Si O2"
_cell_formula_units_Z 84
_cell_length_a 14.066355
_cell_length_b 12.972681
_cell_length_c 21.942364
_cell_angle_alpha 90.000000
_cell_angle_beta 90.000000
_cell_angle_gamma 90.000000
_cell_volume 4004.006076
_symmetry_space_group_name_H-M "I M M M"
_symmetry_group_IT_number 71
_symmetry_cell_setting 'orthorhombic'
loop_
_space_group_symop_operation_xyz
x,y,z
-x,-y,z
x,-y,-z
-x,y,-z
-x,-y,-z
x,y,-z
-x,y,z
x,-y,z
1/2+x,1/2+y,1/2+z
1/2-x,1/2-y,1/2+z
1/2+x,1/2-y,1/2-z
1/2-x,1/2+y,1/2-z
1/2-x,1/2-y,1/2-z
1/2+x,1/2+y,1/2-z
1/2-x,1/2+y,1/2+z
1/2+x,1/2-y,1/2+z
loop_
_atom_site_type_symbol
_atom_site_label
_atom_site_fract_x
_atom_site_fract_y
_atom_site_fract_z
Si Si1 0.361374 0.379873 0.068886
Si Si2 0.390431 0.616063 0.614993
Si Si3 0.738672 0.887690 0.224338
Si Si4 0.500000 0.000000 0.623395
Si Si5 0.862538 0.658640 0.067734
Si Si6 0.392710 0.300094 0.803414
O O1 0.386461 0.500000 0.079504
O O2 0.247914 0.367551 0.070513
O O3 0.397011 0.309531 0.123772
O O4 0.391509 0.352801 0.000000
O O5 0.500000 0.618510 0.637319
O O6 0.377787 0.500000 0.587714
O O7 0.311601 0.626173 0.667787
O O8 0.377622 0.718785 0.575199
O O9 0.654939 0.805063 0.220621
O O10 0.810988 0.878274 0.280908
O O11 0.695414 0.000000 0.222191
O O12 0.581727 0.908813 0.616618
O O13 0.896034 0.627175 0.000000
O O14 0.500000 0.316680 0.780280
#
# Coordination Sequence:
#
# PCOD9521649 Si02
#       6
#    16  16  16   4  16  16
#     4  10  21  37  58  87 124 160 201 253 308 363
#     4  10  20  34  55  82 114 154 200 249 297 355
#     4  10  22  41  63  88 122 158 197 245 303 365
#     4  12  21  32  54  82 118 170 208 250 319 376
#     4  11  20  32  51  79 117 159 202 248 305 366
#     4  11  23  40  66  92 120 159 204 252 306 366
#
# _framework density 20.97899
#
# number of rings (size 3 to 8) (size 9 to 14) (size 15 to 20)
#    0.000    1.524    3.810    2.000    0.000    3.429 
#    0.000    1.905    0.000    0.571    0.000    1.333 
#    0.000    0.000    0.000    0.000    0.000    0.000 
#
# Total GULP energy -233834.777774 kJ/mol
# GULP energy per Si atom -5567.494709 kJ/mol
# Density = 2.093124 g / cm^3
# Si number density = 20.978990 Si / 1000 Ang^3
#
#
#
# Elastic Constant Matrix: (Units=GPa)
#
#
# Indices 1 2 3 4 5 6 
#
# 1 102.5062 4.5541 13.6105 0.0000 0.0000 0.0000
# 2 4.5541 112.2732 14.7091 0.0000 0.0000 0.0000
# 3 13.6105 14.7091 62.5861 0.0000 0.0000 0.0000
# 4 0.0000 0.0000 0.0000 9.4379 0.0000 0.0000
# 5 0.0000 0.0000 0.0000 0.0000 -12.9136 0.0000
# 6 0.0000 0.0000 0.0000 0.0000 0.0000 -17.9125
#
#
#
# Elastic Compliance Matrix: (Units=1/GPa)
#
#
# Indices 1 2 3 4 5 6 
#
# 1 0.010047 -0.000125 -0.002156 0.000000 0.000000 0.000000
# 2 -0.000125 0.009191 -0.002133 0.000000 0.000000 0.000000
# 3 -0.002156 -0.002133 0.016948 0.000000 0.000000 0.000000
# 4 0.000000 0.000000 0.000000 0.105955 0.000000 0.000000
# 5 0.000000 0.000000 0.000000 0.000000 -0.077437 0.000000
# 6 0.000000 0.000000 0.000000 0.000000 0.000000 -0.055827
#
#
# Mechanical properties :
#
#
# Convention : Reuss Voigt Hill
#
# Bulk Modulus (GPa) = 36.55053 38.12364 37.33709
# Shear Modulus (GPa) = 186.39359 12.02180 99.20769
#
# Velocity S-wave (km/s) = 9.43613 2.39642 6.88417
# Velocity P-wave (km/s) = 11.66967 5.08614 9.00139
#
# Compressibility (1/GPa) = 0.02735939
#
# Stress axis : x y z
#
# Youngs Moduli (GPa) = 99.52942 108.79774 59.00382
#
# Poissons Ratio (x) = 0.01361 0.12719
# Poissons Ratio (y) = 0.01245 0.12585
# Poissons Ratio (z) = 0.21454 0.23206
#
# Static dielectric constant tensor:
#      x y z
#    x 1.750440 0.000000 0.000000 
#    y 0.000000 1.748430 0.000000 
#    z 0.000000 0.000000 1.812300 
# 
# From -- ./inp_files/59690.got.cif
#   From: 2010.05.17/outbox.cif.g08.bks.cpg/sg71_30_cif.got.tgz:59690.got - 2010.06.03 16:22:01.
