data_PCOD9521909
_publ_section_title
;
Structure prediction by ZEFSAII (Michael W. Deem and Ramdas Pophale) SiO2 
 PCOD9521909
Probable space group: I M M M
;
_chemical_formula_sum "Si O2"
_cell_formula_units_Z 104
_cell_length_a 7.582549
_cell_length_b 29.232090
_cell_length_c 21.901712
_cell_angle_alpha 90.000000
_cell_angle_beta 90.000000
_cell_angle_gamma 90.000000
_cell_volume 4854.596701
_symmetry_space_group_name_H-M "I M M M"
_symmetry_group_IT_number 71
_symmetry_cell_setting 'orthorhombic'
loop_
_space_group_symop_operation_xyz
x,y,z
-x,-y,z
x,-y,-z
-x,y,-z
-x,-y,-z
x,y,-z
-x,y,z
x,-y,z
1/2+x,1/2+y,1/2+z
1/2-x,1/2-y,1/2+z
1/2+x,1/2-y,1/2-z
1/2-x,1/2+y,1/2-z
1/2-x,1/2-y,1/2-z
1/2+x,1/2+y,1/2-z
1/2-x,1/2+y,1/2+z
1/2+x,1/2-y,1/2+z
loop_
_atom_site_type_symbol
_atom_site_label
_atom_site_fract_x
_atom_site_fract_y
_atom_site_fract_z
Si Si1 0.716063 0.859310 0.066765
Si Si2 0.293840 0.202186 0.683406
Si Si3 0.701461 0.386941 0.115091
Si Si4 0.797744 0.304909 0.318090
Si Si5 0.212196 0.446245 0.230952
Si Si6 0.214812 0.551643 0.368280
Si Si7 0.283599 0.446533 0.000000
O O1 0.500000 0.856900 0.066115
O O2 0.781899 0.829750 0.123671
O O3 0.766021 0.911354 0.082077
O O4 0.776730 0.844815 0.000000
O O5 0.500000 0.212921 0.691949
O O6 0.279685 0.162063 0.634066
O O7 0.205623 0.250610 0.669494
O O8 0.222930 0.186853 0.750237
O O9 0.500000 0.377460 0.098490
O O10 0.710238 0.417016 0.176470
O O11 0.774941 0.417916 0.059828
O O12 0.000000 0.321523 0.314298
O O13 0.251944 0.500000 0.222821
O O14 0.268425 0.433665 0.299680
O O15 0.000000 0.440711 0.227860
O O16 0.275547 0.500000 0.379220
O O17 0.000000 0.550401 0.367066
O O18 0.226933 0.500000 0.000000
O O19 0.500000 0.448054 0.000000
#
# Coordination Sequence:
#
# PCOD9521909 Si02
#       7
#    16  16  16  16  16  16   8
#     4   9  16  26  43  69  99 133 170 205 242 289
#     4  10  20  35  56  78 102 131 166 214 266 313
#     4  11  21  34  54  78 102 133 172 215 262 314
#     4   9  18  34  54  76 103 135 171 212 259 311
#     4   9  17  30  49  73 102 135 169 209 258 303
#     4   8  14  25  42  67 101 137 169 203 245 291
#     4   9  20  38  55  73 103 141 177 215 262 317
#
# _framework density 21.422993999999999
#
# number of rings (size 3 to 8) (size 9 to 14) (size 15 to 20)
#    0.000    2.692    0.000    3.231    0.000    4.308 
#    1.385    3.077    0.000    2.769    0.000    0.000 
#    0.000    0.000    0.000    9.385    0.000    9.231 
#
# Total GULP energy -290145.172253 kJ/mol
# GULP energy per Si atom -5579.714851 kJ/mol
# Density = 2.137423 g / cm^3
# Si number density = 21.422994 Si / 1000 Ang^3
#
#
#
# Elastic Constant Matrix: (Units=GPa)
#
#
# Indices 1 2 3 4 5 6 
#
# 1 41.8742 -1.7104 -3.0309 0.0000 0.0000 0.0000
# 2 -1.7104 88.5658 71.1164 0.0000 0.0000 0.0000
# 3 -3.0309 71.1164 106.5269 0.0000 0.0000 0.0000
# 4 0.0000 0.0000 0.0000 29.5501 0.0000 0.0000
# 5 0.0000 0.0000 0.0000 0.0000 34.7092 0.0000
# 6 0.0000 0.0000 0.0000 0.0000 0.0000 11.4810
#
#
#
# Elastic Compliance Matrix: (Units=1/GPa)
#
#
# Indices 1 2 3 4 5 6 
#
# 1 0.023932 -0.000182 0.000803 0.000000 0.000000 0.000000
# 2 -0.000182 0.024339 -0.016253 0.000000 0.000000 0.000000
# 3 0.000803 -0.016253 0.020261 0.000000 0.000000 0.000000
# 4 0.000000 0.000000 0.000000 0.033841 0.000000 0.000000
# 5 0.000000 0.000000 0.000000 0.000000 0.028811 0.000000
# 6 0.000000 0.000000 0.000000 0.000000 0.000000 0.087100
#
#
# Mechanical properties :
#
#
# Convention : Reuss Voigt Hill
#
# Bulk Modulus (GPa) = 26.83493 41.07968 33.95730
# Shear Modulus (GPa) = 19.08610 26.52087 22.80348
#
# Velocity S-wave (km/s) = 2.98806 3.52229 3.26611
# Velocity P-wave (km/s) = 4.94551 5.97989 5.48713
#
# Compressibility (1/GPa) = 0.03726487
#
# Stress axis : x y z
#
# Youngs Moduli (GPa) = 41.78556 41.08685 49.35642
#
# Poissons Ratio (x) = 0.00749 -0.03961
# Poissons Ratio (y) = 0.00762 0.80221
# Poissons Ratio (z) = -0.03354 0.66780
#
# Static dielectric constant tensor:
#      x y z
#    x 1.827260 0.000000 0.000000 
#    y 0.000000 1.755980 0.000000 
#    z 0.000000 0.000000 1.765920 
# 
# From -- ./inp_files/50881.got.cif
#   From: 2010.05.17/outbox.cif.g08.bks.cpg/sg71_26_cif.got.tgz:50881.got - 2010.06.03 16:22:01.
