data_PCOD9521445
_publ_section_title
;
Structure prediction by ZEFSAII (Michael W. Deem and Ramdas Pophale) SiO2 
 PCOD9521445
Probable space group: I M M M
;
_chemical_formula_sum "Si O2"
_cell_formula_units_Z 96
_cell_length_a 21.053441
_cell_length_b 8.088580
_cell_length_c 28.719664
_cell_angle_alpha 90.000000
_cell_angle_beta 90.000000
_cell_angle_gamma 90.000000
_cell_volume 4890.741710
_symmetry_space_group_name_H-M "I M M M"
_symmetry_group_IT_number 71
_symmetry_cell_setting 'orthorhombic'
loop_
_space_group_symop_operation_xyz
x,y,z
-x,-y,z
x,-y,-z
-x,y,-z
-x,-y,-z
x,y,-z
-x,y,z
x,-y,z
1/2+x,1/2+y,1/2+z
1/2-x,1/2-y,1/2+z
1/2+x,1/2-y,1/2-z
1/2-x,1/2+y,1/2-z
1/2-x,1/2-y,1/2-z
1/2+x,1/2+y,1/2-z
1/2-x,1/2+y,1/2+z
1/2+x,1/2-y,1/2+z
loop_
_atom_site_type_symbol
_atom_site_label
_atom_site_fract_x
_atom_site_fract_y
_atom_site_fract_z
Si Si1 0.807820 0.800605 0.888224
Si Si2 0.927796 0.197918 0.382373
Si Si3 0.571636 0.298326 0.553760
Si Si4 0.190644 0.302285 0.781505
Si Si5 0.186747 0.300884 0.447004
Si Si6 0.428133 0.800897 0.777356
O O1 0.873146 0.740463 0.911943
O O2 0.802739 0.755336 0.834380
O O3 0.747297 0.739635 0.917626
O O4 0.808051 0.000000 0.891334
O O5 0.877317 0.257848 0.419814
O O6 0.910509 0.257065 0.330411
O O7 0.000000 0.256290 0.391805
O O8 0.928003 0.000000 0.382250
O O9 0.584522 0.251152 0.500000
O O10 0.500000 0.244570 0.566001
O O11 0.571562 0.500000 0.554626
O O12 0.188122 0.500000 0.781439
O O13 0.250000 0.250000 0.750000
O O14 0.125451 0.238628 0.757879
O O15 0.187031 0.238730 0.500000
O O16 0.191412 0.500000 0.448826
O O17 0.500000 0.738591 0.768717
O O18 0.429889 0.000000 0.774027
#
# Coordination Sequence:
#
# PCOD9521445 Si02
#       6
#    16  16  16  16  16  16
#     4  10  20  34  53  78 107 137 172 216 260 301
#     4  10  21  36  55  80 107 133 165 211 264 311
#     4   8  14  27  50  79 108 138 173 212 253 298
#     4  11  23  37  54  77 105 137 173 214 259 308
#     4  10  21  36  54  76 103 138 178 215 252 301
#     4   9  19  37  58  77 101 137 177 212 250 303
#
# _framework density 19.628924000000001
#
# number of rings (size 3 to 8) (size 9 to 14) (size 15 to 20)
#    0.000    2.333    0.000    3.000    0.000   10.333 
#    0.000    1.667    0.000    1.500    0.000    1.167 
#    0.000    0.000    0.000    0.000    0.000    0.000 
#
# Total GULP energy -268001.222097 kJ/mol
# GULP energy per Si atom -5583.358794 kJ/mol
# Density = 1.958425 g / cm^3
# Si number density = 19.628924 Si / 1000 Ang^3
#
#
#
# Elastic Constant Matrix: (Units=GPa)
#
#
# Indices 1 2 3 4 5 6 
#
# 1 127.7929 7.1126 98.3874 0.0000 0.0000 0.0000
# 2 7.1126 12.0974 1.9486 0.0000 0.0000 0.0000
# 3 98.3874 1.9486 137.8201 0.0000 0.0000 0.0000
# 4 0.0000 0.0000 0.0000 24.1028 0.0000 0.0000
# 5 0.0000 0.0000 0.0000 0.0000 44.1516 0.0000
# 6 0.0000 0.0000 0.0000 0.0000 0.0000 12.1818
#
#
#
# Elastic Compliance Matrix: (Units=1/GPa)
#
#
# Indices 1 2 3 4 5 6 
#
# 1 0.018234 -0.008643 -0.012894 0.000000 0.000000 0.000000
# 2 -0.008643 0.086948 0.004941 0.000000 0.000000 0.000000
# 3 -0.012894 0.004941 0.016391 0.000000 0.000000 0.000000
# 4 0.000000 0.000000 0.000000 0.041489 0.000000 0.000000
# 5 0.000000 0.000000 0.000000 0.000000 0.022649 0.000000
# 6 0.000000 0.000000 0.000000 0.000000 0.000000 0.082089
#
#
# Mechanical properties :
#
#
# Convention : Reuss Voigt Hill
#
# Bulk Modulus (GPa) = 11.31488 54.73418 33.02453
# Shear Modulus (GPa) = 15.13071 27.43803 21.28437
#
# Velocity S-wave (km/s) = 2.77941 3.74282 3.29650
# Velocity P-wave (km/s) = 4.00962 6.82812 5.59912
#
# Compressibility (1/GPa) = 0.08837923
#
# Stress axis : x y z
#
# Youngs Moduli (GPa) = 54.84375 11.50111 61.00871
#
# Poissons Ratio (x) = 0.09941 0.78667
# Poissons Ratio (y) = 0.47403 -0.30144
# Poissons Ratio (z) = 0.70718 -0.05683
#
# Static dielectric constant tensor:
#      x y z
#    x 1.704140 0.000000 0.000000 
#    y 0.000000 1.705330 0.000000 
#    z 0.000000 0.000000 1.621040 
# 
# From -- ./inp_files/10912.got.cif
#   From: 2010.05.17/outbox.cif.g08.bks.cpg/sg71_6_cif.got.tgz:10912.got - 2010.06.03 16:22:01.
