data_PCOD9521263
_publ_section_title
;
Structure prediction by ZEFSAII (Michael W. Deem and Ramdas Pophale) SiO2 
 PCOD9521263
Probable space group: I M M M
;
_chemical_formula_sum "Si O2"
_cell_formula_units_Z 92
_cell_length_a 29.124954
_cell_length_b 16.285605
_cell_length_c 11.736800
_cell_angle_alpha 90.000000
_cell_angle_beta 90.000000
_cell_angle_gamma 90.000000
_cell_volume 5566.969593
_symmetry_space_group_name_H-M "I M M M"
_symmetry_group_IT_number 71
_symmetry_cell_setting 'orthorhombic'
loop_
_space_group_symop_operation_xyz
x,y,z
-x,-y,z
x,-y,-z
-x,y,-z
-x,-y,-z
x,y,-z
-x,y,z
x,-y,z
1/2+x,1/2+y,1/2+z
1/2-x,1/2-y,1/2+z
1/2+x,1/2-y,1/2-z
1/2-x,1/2+y,1/2-z
1/2-x,1/2-y,1/2-z
1/2+x,1/2+y,1/2-z
1/2-x,1/2+y,1/2+z
1/2+x,1/2-y,1/2+z
loop_
_atom_site_type_symbol
_atom_site_label
_atom_site_fract_x
_atom_site_fract_y
_atom_site_fract_z
Si Si1 0.947051 0.500000 0.756852
Si Si2 0.723568 0.337148 0.262079
Si Si3 0.363514 0.237185 0.755095
Si Si4 0.258218 0.097684 0.000000
Si Si5 0.639623 0.833248 0.000000
Si Si6 0.082792 0.500000 0.500000
Si Si7 0.554157 0.171888 0.363860
Si Si8 0.195652 0.592921 0.864437
O O1 0.943567 0.500000 0.620302
O O2 0.929314 0.415000 0.809443
O O3 0.000000 0.500000 0.792404
O O4 0.750000 0.250000 0.250000
O O5 0.670276 0.315250 0.248012
O O6 0.732264 0.374828 0.386204
O O7 0.751334 0.392965 0.172494
O O8 0.411233 0.239180 0.686977
O O9 0.334458 0.161427 0.699357
O O10 0.372347 0.214814 0.885787
O O11 0.306438 0.145691 0.000000
O O12 0.266055 0.000000 0.000000
O O13 0.613541 0.919179 0.000000
O O14 0.558177 0.167070 0.500000
O O15 0.500000 0.184380 0.335930
O O16 0.182142 0.500000 0.831474
O O17 0.190572 0.602441 0.000000
#
# Coordination Sequence:
#
# PCOD9521263 Si02
#       8
#     8  16  16   8   8   4  16  16
#     4  10  20  34  49  69  94 130 172 219 263 299
#     4  10  22  32  53  71 103 135 173 213 256 305
#     4  11  23  34  51  72 100 131 178 207 261 304
#     4  12  22  36  53  76 107 140 180 218 258 309
#     4  12  22  31  50  70  98 141 171 210 246 303
#     4  12  21  32  46  72  98 136 180 212 251 288
#     4  10  21  36  52  69  96 128 170 218 263 309
#     4  10  21  33  49  72 101 134 169 210 249 295
#
# _framework density 16.526046000000001
#
# number of rings (size 3 to 8) (size 9 to 14) (size 15 to 20)
#    0.000    1.391    5.652    1.435    9.739    1.043 
#    0.000    0.435    0.000    0.000    0.000    0.000 
#    0.000    3.478    0.000    1.913    0.000    0.000 
#
# Total GULP energy -256602.315689 kJ/mol
# GULP energy per Si atom -5578.311211 kJ/mol
# Density = 1.648843 g / cm^3
# Si number density = 16.526046 Si / 1000 Ang^3
#
#
#
# Elastic Constant Matrix: (Units=GPa)
#
#
# Indices 1 2 3 4 5 6 
#
# 1 82.6575 7.4198 14.7685 0.0000 0.0000 0.0000
# 2 7.4198 14.1534 9.1843 0.0000 0.0000 0.0000
# 3 14.7685 9.1843 82.8302 0.0000 0.0000 0.0000
# 4 0.0000 0.0000 0.0000 -38.6882 0.0000 0.0000
# 5 0.0000 0.0000 0.0000 0.0000 2.1430 0.0000
# 6 0.0000 0.0000 0.0000 0.0000 0.0000 25.4320
#
#
#
# Elastic Compliance Matrix: (Units=1/GPa)
#
#
# Indices 1 2 3 4 5 6 
#
# 1 0.012907 -0.005682 -0.001671 0.000000 0.000000 0.000000
# 2 -0.005682 0.078634 -0.007706 0.000000 0.000000 0.000000
# 3 -0.001671 -0.007706 0.013225 0.000000 0.000000 0.000000
# 4 0.000000 0.000000 0.000000 -0.025848 0.000000 0.000000
# 5 0.000000 0.000000 0.000000 0.000000 0.466628 0.000000
# 6 0.000000 0.000000 0.000000 0.000000 0.000000 0.039321
#
#
# Mechanical properties :
#
#
# Convention : Reuss Voigt Hill
#
# Bulk Modulus (GPa) = 13.39625 26.93181 20.16403
# Shear Modulus (GPa) = 7.81413 7.66193 7.73803
#
# Velocity S-wave (km/s) = 2.17684 2.15554 2.16621
# Velocity P-wave (km/s) = 3.80025 4.74627 4.29936
#
# Compressibility (1/GPa) = 0.07464773
#
# Stress axis : x y z
#
# Youngs Moduli (GPa) = 77.47882 12.71722 75.61250
#
# Poissons Ratio (x) = 0.07226 0.12637
# Poissons Ratio (y) = 0.44022 0.58267
# Poissons Ratio (z) = 0.12949 0.09800
#
# Static dielectric constant tensor:
#      x y z
#    x 1.594400 0.000000 0.000000 
#    y 0.000000 1.553880 0.000000 
#    z 0.000000 0.000000 1.559940 
# 
# From -- ./inp_files/28878.got.cif
#   From: 2010.05.17/outbox.cif.g08.bks.cpg/sg71_15_cif.got.tgz:28878.got - 2010.06.03 16:22:01.
