data_PCOD9521640
_publ_section_title
;
Structure prediction by ZEFSAII (Michael W. Deem and Ramdas Pophale) SiO2 
 PCOD9521640
Probable space group: I M M M
;
_chemical_formula_sum "Si O2"
_cell_formula_units_Z 72
_cell_length_a 24.143661
_cell_length_b 15.496166
_cell_length_c 8.383775
_cell_angle_alpha 90.000000
_cell_angle_beta 90.000000
_cell_angle_gamma 90.000000
_cell_volume 3136.656774
_symmetry_space_group_name_H-M "I M M M"
_symmetry_group_IT_number 71
_symmetry_cell_setting 'orthorhombic'
loop_
_space_group_symop_operation_xyz
x,y,z
-x,-y,z
x,-y,-z
-x,y,-z
-x,-y,-z
x,y,-z
-x,y,z
x,-y,z
1/2+x,1/2+y,1/2+z
1/2-x,1/2-y,1/2+z
1/2+x,1/2-y,1/2-z
1/2-x,1/2+y,1/2-z
1/2-x,1/2-y,1/2-z
1/2+x,1/2+y,1/2-z
1/2-x,1/2+y,1/2+z
1/2+x,1/2-y,1/2+z
loop_
_atom_site_type_symbol
_atom_site_label
_atom_site_fract_x
_atom_site_fract_y
_atom_site_fract_z
Si Si1 0.792139 0.367754 0.183505
Si Si2 0.400311 0.902559 0.830133
Si Si3 0.434986 0.900555 0.500000
Si Si4 0.562223 0.603374 0.308901
Si Si5 0.824671 0.815673 0.311661
O O1 0.834544 0.409453 0.306287
O O2 0.807713 0.266805 0.206262
O O3 0.727178 0.380311 0.214134
O O4 0.803860 0.392829 0.000000
O O5 0.418976 0.857973 0.667099
O O6 0.424027 0.000000 0.829982
O O7 0.414222 0.862071 0.000000
O O8 0.500000 0.906694 0.500000
O O9 0.412603 0.000000 0.500000
O O10 0.565571 0.616939 0.500000
O O11 0.500000 0.631387 0.257362
O O12 0.565728 0.500000 0.280862
O O13 0.615105 0.648369 0.229452
O O14 0.822142 0.792328 0.500000
#
# Coordination Sequence:
#
# PCOD9521640 Si02
#       5
#    16  16   8  16  16
#     4  10  20  36  56  78 112 151 187 236 289 344
#     4  10  20  34  55  82 111 146 187 234 285 336
#     4   9  18  34  54  76 106 142 178 222 276 328
#     4   9  19  37  59  82 112 151 192 234 283 345
#     4  10  21  35  55  83 111 145 187 234 291 345
#
# _framework density 22.954376
#
# number of rings (size 3 to 8) (size 9 to 14) (size 15 to 20)
#    0.000    2.333    1.111    2.000    0.000    4.889 
#    0.000    8.889    0.000    2.667    0.000    0.000 
#    0.000    0.000    0.000    0.000    0.000    0.000 
#
# Total GULP energy -200788.273120 kJ/mol
# GULP energy per Si atom -5577.452031 kJ/mol
# Density = 2.290213 g / cm^3
# Si number density = 22.954376 Si / 1000 Ang^3
#
#
#
# Elastic Constant Matrix: (Units=GPa)
#
#
# Indices 1 2 3 4 5 6 
#
# 1 164.4426 21.5819 48.3390 0.0000 0.0000 0.0000
# 2 21.5819 24.5007 8.8553 0.0000 0.0000 0.0000
# 3 48.3390 8.8553 149.8743 0.0000 0.0000 0.0000
# 4 0.0000 0.0000 0.0000 -1.4350 0.0000 0.0000
# 5 0.0000 0.0000 0.0000 0.0000 26.2516 0.0000
# 6 0.0000 0.0000 0.0000 0.0000 0.0000 25.8002
#
#
#
# Elastic Compliance Matrix: (Units=1/GPa)
#
#
# Indices 1 2 3 4 5 6 
#
# 1 0.007450 -0.005818 -0.002059 0.000000 0.000000 0.000000
# 2 -0.005818 0.046250 -0.000856 0.000000 0.000000 0.000000
# 3 -0.002059 -0.000856 0.007387 0.000000 0.000000 0.000000
# 4 0.000000 0.000000 0.000000 -0.696840 0.000000 0.000000
# 5 0.000000 0.000000 0.000000 0.000000 0.038093 0.000000
# 6 0.000000 0.000000 0.000000 0.000000 0.000000 0.038759
#
#
# Mechanical properties :
#
#
# Convention : Reuss Voigt Hill
#
# Bulk Modulus (GPa) = 22.92539 55.15222 39.03881
# Shear Modulus (GPa) = -9.48957 27.45946 8.98495
#
# Velocity S-wave (km/s) = -2.03545 3.46246 1.98060
# Velocity P-wave (km/s) = 2.11777 6.32960 4.71958
#
# Compressibility (1/GPa) = 0.04361976
#
# Stress axis : x y z
#
# Youngs Moduli (GPa) = 134.22754 21.62178 135.37376
#
# Poissons Ratio (x) = 0.12580 0.27875
# Poissons Ratio (y) = 0.78097 0.11589
# Poissons Ratio (z) = 0.27639 0.01851
#
# Static dielectric constant tensor:
#      x y z
#    x 1.880890 0.000000 0.000000 
#    y 0.000000 1.916990 0.000000 
#    z 0.000000 0.000000 1.884480 
# 
# From -- ./inp_files/14314.got.cif
#   From: 2010.05.17/outbox.cif.g08.bks.cpg/sg71_8_cif.got.tgz:14314.got - 2010.06.03 16:22:01.
