data_PCOD9521627
_publ_section_title
;
Structure prediction by ZEFSAII (Michael W. Deem and Ramdas Pophale) SiO2 
 PCOD9521627
Probable space group: I M M M
;
_chemical_formula_sum "Si O2"
_cell_formula_units_Z 120
_cell_length_a 17.283916
_cell_length_b 23.100980
_cell_length_c 17.242420
_cell_angle_alpha 90.000000
_cell_angle_beta 90.000000
_cell_angle_gamma 90.000000
_cell_volume 6884.474105
_symmetry_space_group_name_H-M "I M M M"
_symmetry_group_IT_number 71
_symmetry_cell_setting 'orthorhombic'
loop_
_space_group_symop_operation_xyz
x,y,z
-x,-y,z
x,-y,-z
-x,y,-z
-x,-y,-z
x,y,-z
-x,y,z
x,-y,z
1/2+x,1/2+y,1/2+z
1/2-x,1/2-y,1/2+z
1/2+x,1/2-y,1/2-z
1/2-x,1/2+y,1/2-z
1/2-x,1/2-y,1/2-z
1/2+x,1/2+y,1/2-z
1/2-x,1/2+y,1/2+z
1/2+x,1/2-y,1/2+z
loop_
_atom_site_type_symbol
_atom_site_label
_atom_site_fract_x
_atom_site_fract_y
_atom_site_fract_z
Si Si1 0.661802 0.839237 0.302357
Si Si2 0.335505 0.619271 0.592183
Si Si3 0.754283 0.244548 0.907589
Si Si4 0.500000 0.431741 0.593895
Si Si5 0.592550 0.935376 0.588097
Si Si6 0.278095 0.062141 0.796604
Si Si7 0.088674 0.416871 0.413419
Si Si8 0.088113 0.289392 0.648543
O O1 0.702353 0.791842 0.355705
O O2 0.615956 0.884278 0.355599
O O3 0.721248 0.881860 0.257941
O O4 0.608961 0.809363 0.236349
O O5 0.330213 0.611107 0.500000
O O6 0.296909 0.682442 0.607412
O O7 0.423719 0.605133 0.615903
O O8 0.284404 0.573074 0.637289
O O9 0.664039 0.243933 0.881867
O O10 0.759763 0.255351 0.000000
O O11 0.500000 0.500000 0.620010
O O12 0.500000 0.434542 0.500000
O O13 0.620802 0.925567 0.500000
O O14 0.500000 0.936774 0.585330
O O15 0.618053 0.000000 0.612922
O O16 0.359110 0.061912 0.843194
O O17 0.266165 0.000000 0.758305
O O18 0.117223 0.431508 0.500000
O O19 0.088563 0.347588 0.403361
O O20 0.000000 0.435731 0.406631
O O21 0.000000 0.265349 0.645009
#
# Coordination Sequence:
#
# PCOD9521627 Si02
#       8
#    16  16  16   8  16  16  16  16
#     4  11  21  36  53  77 114 144 181 227 281 335
#     4  10  20  36  54  79 108 139 182 227 274 333
#     4  11  22  38  59  81 109 148 188 235 282 333
#     4   9  18  34  56  78 104 140 182 228 274 323
#     4   9  18  34  55  78 106 143 188 232 271 320
#     4  11  22  33  51  75 105 144 180 222 276 331
#     4   9  17  30  48  73 107 144 182 220 259 313
#     4  10  20  34  55  81 111 146 181 221 277 340
#
# _framework density 17.430524999999999
#
# number of rings (size 3 to 8) (size 9 to 14) (size 15 to 20)
#    0.000    1.933    2.667    3.200    0.000    3.200 
#    2.400    0.667    0.000    0.000    0.000    0.000 
#    0.000    0.000    0.000    4.267    0.000    0.000 
#
# Total GULP energy -334337.119957 kJ/mol
# GULP energy per Si atom -5572.285333 kJ/mol
# Density = 1.739085 g / cm^3
# Si number density = 17.430525 Si / 1000 Ang^3
#
#
#
# Elastic Constant Matrix: (Units=GPa)
#
#
# Indices 1 2 3 4 5 6 
#
# 1 94.2378 34.8726 30.1699 0.0000 0.0000 0.0000
# 2 34.8726 59.6397 43.0116 0.0000 0.0000 0.0000
# 3 30.1699 43.0116 81.0233 -0.0001 0.0000 0.0000
# 4 0.0000 0.0000 -0.0001 15.6291 0.0000 0.0000
# 5 0.0000 0.0000 0.0000 0.0000 16.4667 0.0000
# 6 0.0000 0.0000 0.0000 0.0000 0.0000 39.3666
#
#
#
# Elastic Compliance Matrix: (Units=1/GPa)
#
#
# Indices 1 2 3 4 5 6 
#
# 1 0.013635 -0.006985 -0.001369 0.000000 0.000000 0.000000
# 2 -0.006985 0.030748 -0.013721 0.000000 0.000000 0.000000
# 3 -0.001369 -0.013721 0.020136 0.000000 0.000000 0.000000
# 4 0.000000 0.000000 0.000000 0.063983 0.000000 0.000000
# 5 0.000000 0.000000 0.000000 0.000000 0.060729 0.000000
# 6 0.000000 0.000000 0.000000 0.000000 0.000000 0.025402
#
#
# Mechanical properties :
#
#
# Convention : Reuss Voigt Hill
#
# Bulk Modulus (GPa) = 49.09906 50.11214 49.60560
# Shear Modulus (GPa) = 18.82728 22.74893 20.78811
#
# Velocity S-wave (km/s) = 3.29010 3.61656 3.45719
# Velocity P-wave (km/s) = 6.53166 6.80084 6.66761
#
# Compressibility (1/GPa) = 0.02036699
#
# Stress axis : x y z
#
# Youngs Moduli (GPa) = 73.34307 32.52291 49.66249
#
# Poissons Ratio (x) = 0.22718 0.06798
# Poissons Ratio (y) = 0.51232 0.68144
# Poissons Ratio (z) = 0.10039 0.44626
#
# Static dielectric constant tensor:
#      x y z
#    x 1.613250 0.000000 0.000000 
#    y 0.000000 1.611010 0.000000 
#    z 0.000000 0.000000 1.606360 
# 
# From -- ./inp_files/46490.got.cif
#   From: 2010.05.17/outbox.cif.g08.bks.cpg/sg71_24_cif.got.tgz:46490.got - 2010.06.03 16:22:01.
