data_PCOD9521731
_publ_section_title
;
Structure prediction by ZEFSAII (Michael W. Deem and Ramdas Pophale) SiO2 
 PCOD9521731
Probable space group: I M M M
;
_chemical_formula_sum "Si O2"
_cell_formula_units_Z 96
_cell_length_a 16.121759
_cell_length_b 13.670765
_cell_length_c 26.322694
_cell_angle_alpha 90.000000
_cell_angle_beta 90.000000
_cell_angle_gamma 90.000000
_cell_volume 5801.436964
_symmetry_space_group_name_H-M "I M M M"
_symmetry_group_IT_number 71
_symmetry_cell_setting 'orthorhombic'
loop_
_space_group_symop_operation_xyz
x,y,z
-x,-y,z
x,-y,-z
-x,y,-z
-x,-y,-z
x,y,-z
-x,y,z
x,-y,z
1/2+x,1/2+y,1/2+z
1/2-x,1/2-y,1/2+z
1/2+x,1/2-y,1/2-z
1/2-x,1/2+y,1/2-z
1/2-x,1/2-y,1/2-z
1/2+x,1/2+y,1/2-z
1/2-x,1/2+y,1/2+z
1/2+x,1/2-y,1/2+z
loop_
_atom_site_type_symbol
_atom_site_label
_atom_site_fract_x
_atom_site_fract_y
_atom_site_fract_z
Si Si1 0.000000 0.616022 0.220870
Si Si2 0.900190 0.885025 0.147842
Si Si3 0.401504 0.390698 0.840400
Si Si4 0.500000 0.114322 0.401798
Si Si5 0.691713 0.386780 0.943425
Si Si6 0.150200 0.238895 0.246681
Si Si7 0.647561 0.752644 0.558309
O O1 0.000000 0.624603 0.159369
O O2 0.084859 0.670236 0.239905
O O3 0.000000 0.500000 0.233460
O O4 0.870120 0.829692 0.198300
O O5 0.860016 0.834782 0.098501
O O6 0.000000 0.873177 0.144197
O O7 0.881940 0.000000 0.150791
O O8 0.500000 0.392026 0.840347
O O9 0.371231 0.500000 0.826168
O O10 0.369581 0.370350 0.896897
O O11 0.372699 0.314478 0.798858
O O12 0.578852 0.168792 0.424922
O O13 0.500000 0.000000 0.414269
O O14 0.722119 0.500000 0.939481
O O15 0.765948 0.310110 0.938929
O O16 0.654560 0.377166 0.000000
O O17 0.250000 0.250000 0.250000
O O18 0.633439 0.721520 0.500000
#
# Coordination Sequence:
#
# PCOD9521731 Si02
#       7
#     8  16  16   8  16  16  16
#     4  11  24  41  58  84 120 152 189 236 289 345
#     4  11  22  38  56  77 108 145 184 231 281 327
#     4  10  20  34  57  84 108 140 182 227 274 331
#     4  11  21  34  53  76 106 145 185 221 271 332
#     4   9  19  34  52  79 114 145 176 221 277 334
#     4  12  22  39  61  82 113 148 188 233 287 343
#     4  11  20  34  52  77 109 144 187 226 267 322
#
# _framework density 16.547625
#
# number of rings (size 3 to 8) (size 9 to 14) (size 15 to 20)
#    0.000    1.333    4.167    2.250    0.000    4.667 
#    0.000    2.500    0.000    0.000    0.000    0.000 
#    0.000    0.667    0.000    0.000    0.000    0.000 
#
# Total GULP energy -267724.571599 kJ/mol
# GULP energy per Si atom -5577.595242 kJ/mol
# Density = 1.650996 g / cm^3
# Si number density = 16.547625 Si / 1000 Ang^3
#
#
#
# Elastic Constant Matrix: (Units=GPa)
#
#
# Indices 1 2 3 4 5 6 
#
# 1 78.6727 45.0349 45.2245 0.0000 0.0000 0.0000
# 2 45.0349 115.7643 68.9879 0.0000 0.0000 0.0000
# 3 45.2245 68.9879 127.4928 0.0000 0.0000 0.0000
# 4 0.0000 0.0000 0.0000 27.0162 0.0000 0.0000
# 5 0.0000 0.0000 0.0000 0.0000 31.6108 0.0000
# 6 0.0000 0.0000 0.0000 0.0000 0.0000 18.0266
#
#
#
# Elastic Compliance Matrix: (Units=1/GPa)
#
#
# Indices 1 2 3 4 5 6 
#
# 1 0.017470 -0.004580 -0.003719 0.000000 0.000000 0.000000
# 2 -0.004580 0.013950 -0.005924 0.000000 0.000000 0.000000
# 3 -0.003719 -0.005924 0.012368 0.000000 0.000000 0.000000
# 4 0.000000 0.000000 0.000000 0.037015 0.000000 0.000000
# 5 0.000000 0.000000 0.000000 0.000000 0.031635 0.000000
# 6 0.000000 0.000000 0.000000 0.000000 0.000000 0.055474
#
#
# Mechanical properties :
#
#
# Convention : Reuss Voigt Hill
#
# Bulk Modulus (GPa) = 65.17589 71.15827 68.16708
# Shear Modulus (GPa) = 24.81728 26.17623 25.49676
#
# Velocity S-wave (km/s) = 3.87686 3.98159 3.92957
# Velocity P-wave (km/s) = 7.71443 8.01454 7.86592
#
# Compressibility (1/GPa) = 0.01534310
#
# Stress axis : x y z
#
# Youngs Moduli (GPa) = 57.23942 71.68261 80.85227
#
# Poissons Ratio (x) = 0.32833 0.30067
# Poissons Ratio (y) = 0.26217 0.47897
# Poissons Ratio (z) = 0.21286 0.42465
#
# Static dielectric constant tensor:
#      x y z
#    x 1.522250 0.000000 0.000000 
#    y 0.000000 1.425250 0.000000 
#    z 0.000000 0.000000 1.548800 
# 
# From -- ./inp_files/59855.got.cif
#   From: 2010.05.17/outbox.cif.g08.bks.cpg/sg71_30_cif.got.tgz:59855.got - 2010.06.03 16:22:01.
