data_PCOD9521589
_publ_section_title
;
Structure prediction by ZEFSAII (Michael W. Deem and Ramdas Pophale) SiO2 
 PCOD9521589
Probable space group: I M M M
;
_chemical_formula_sum "Si O2"
_cell_formula_units_Z 72
_cell_length_a 15.279531
_cell_length_b 15.226292
_cell_length_c 14.055603
_cell_angle_alpha 90.000000
_cell_angle_beta 90.000000
_cell_angle_gamma 90.000000
_cell_volume 3270.044480
_symmetry_space_group_name_H-M "I M M M"
_symmetry_group_IT_number 71
_symmetry_cell_setting 'orthorhombic'
loop_
_space_group_symop_operation_xyz
x,y,z
-x,-y,z
x,-y,-z
-x,y,-z
-x,-y,-z
x,y,-z
-x,y,z
x,-y,z
1/2+x,1/2+y,1/2+z
1/2-x,1/2-y,1/2+z
1/2+x,1/2-y,1/2-z
1/2-x,1/2+y,1/2-z
1/2-x,1/2-y,1/2-z
1/2+x,1/2+y,1/2-z
1/2-x,1/2+y,1/2+z
1/2+x,1/2-y,1/2+z
loop_
_atom_site_type_symbol
_atom_site_label
_atom_site_fract_x
_atom_site_fract_y
_atom_site_fract_z
Si Si1 0.100457 0.226090 0.000000
Si Si2 0.672903 0.898103 0.892822
Si Si3 0.146315 0.100735 0.170386
Si Si4 0.000000 0.293951 0.652031
Si Si5 0.000000 0.404319 0.164377
Si Si6 0.355895 0.905470 0.500000
Si Si7 0.500000 0.597718 0.170055
O O1 0.109783 0.166840 0.907243
O O2 0.173121 0.304045 0.000000
O O3 0.000000 0.260691 0.000000
O O4 0.750769 0.878156 0.819114
O O5 0.588154 0.839247 0.883853
O O6 0.647914 0.000000 0.881300
O O7 0.709981 0.888585 0.000000
O O8 0.086134 0.102237 0.262841
O O9 0.143003 0.000000 0.133927
O O10 0.000000 0.322036 0.764563
O O11 0.000000 0.192476 0.621766
O O12 0.000000 0.500000 0.215809
O O13 0.916385 0.406164 0.094720
O O14 0.306766 0.000000 0.500000
O O15 0.500000 0.500000 0.124241
#
# Coordination Sequence:
#
# PCOD9521589 Si02
#       7
#     8  16  16   8   8   8   8
#     4  12  17  25  52  82 105 139 185 223 280 346
#     4  10  21  38  59  87 117 144 180 236 295 343
#     4  10  20  34  54  83 116 144 176 230 290 344
#     4  12  22  35  59  84 113 148 194 232 283 341
#     4   9  16  29  47  74 106 138 175 223 273 328
#     4   9  18  31  47  72 111 146 185 228 272 328
#     4  10  22  37  54  80 116 152 188 228 282 336
#
# _framework density 22.018049000000001
#
# number of rings (size 3 to 8) (size 9 to 14) (size 15 to 20)
#    0.000    1.778    3.333    3.667    0.000    2.222 
#    0.000    0.000    0.000    2.667    0.000    0.000 
#    0.000    0.000    0.000    0.000    0.000    0.000 
#
# Total GULP energy -200732.343768 kJ/mol
# GULP energy per Si atom -5575.898438 kJ/mol
# Density = 2.196793 g / cm^3
# Si number density = 22.018049 Si / 1000 Ang^3
#
#
#
# Elastic Constant Matrix: (Units=GPa)
#
#
# Indices 1 2 3 4 5 6 
#
# 1 106.7011 36.1659 3.0156 0.0000 0.0000 0.0000
# 2 36.1659 138.4000 -2.4408 0.0000 0.0000 0.0000
# 3 3.0156 -2.4408 35.4876 0.0000 0.0000 0.0000
# 4 0.0000 0.0000 0.0000 22.1443 0.0000 0.0000
# 5 0.0000 0.0000 0.0000 0.0000 -7.4649 0.0000
# 6 0.0000 0.0000 0.0000 0.0000 0.0000 8.2831
#
#
#
# Elastic Compliance Matrix: (Units=1/GPa)
#
#
# Indices 1 2 3 4 5 6 
#
# 1 0.010323 -0.002716 -0.001064 0.000000 0.000000 0.000000
# 2 -0.002716 0.007949 0.000778 0.000000 0.000000 0.000000
# 3 -0.001064 0.000778 0.028323 0.000000 0.000000 0.000000
# 4 0.000000 0.000000 0.000000 0.045158 0.000000 0.000000
# 5 0.000000 0.000000 0.000000 0.000000 -0.133960 0.000000
# 6 0.000000 0.000000 0.000000 0.000000 0.000000 0.120727
#
#
# Mechanical properties :
#
#
# Convention : Reuss Voigt Hill
#
# Bulk Modulus (GPa) = 24.63721 39.34110 31.98915
# Shear Modulus (GPa) = 50.99148 20.84904 35.92026
#
# Velocity S-wave (km/s) = 4.81759 3.08052 4.04344
# Velocity P-wave (km/s) = 6.49303 5.52804 6.02987
#
# Compressibility (1/GPa) = 0.04058901
#
# Stress axis : x y z
#
# Youngs Moduli (GPa) = 96.87384 125.80299 35.30731
#
# Poissons Ratio (x) = 0.34171 0.03757
# Poissons Ratio (y) = 0.26313 -0.02745
# Poissons Ratio (z) = 0.10307 -0.09782
#
# Static dielectric constant tensor:
#      x y z
#    x 1.820180 0.000000 0.000000 
#    y 0.000000 1.879860 0.000000 
#    z 0.000000 0.000000 1.824010 
# 
# From -- ./inp_files/34158.got.cif
#   From: 2010.05.17/outbox.cif.g08.bks.cpg/sg71_18_cif.got.tgz:34158.got - 2010.06.03 16:22:01.
