data_PCOD9521707
_publ_section_title
;
Structure prediction by ZEFSAII (Michael W. Deem and Ramdas Pophale) SiO2 
 PCOD9521707
Probable space group: I M M M
;
_chemical_formula_sum "Si O2"
_cell_formula_units_Z 88
_cell_length_a 9.441566
_cell_length_b 23.232742
_cell_length_c 22.131439
_cell_angle_alpha 90.000000
_cell_angle_beta 90.000000
_cell_angle_gamma 90.000000
_cell_volume 4854.607873
_symmetry_space_group_name_H-M "I M M M"
_symmetry_group_IT_number 71
_symmetry_cell_setting 'orthorhombic'
loop_
_space_group_symop_operation_xyz
x,y,z
-x,-y,z
x,-y,-z
-x,y,-z
-x,-y,-z
x,y,-z
-x,y,z
x,-y,z
1/2+x,1/2+y,1/2+z
1/2-x,1/2-y,1/2+z
1/2+x,1/2-y,1/2-z
1/2-x,1/2+y,1/2-z
1/2-x,1/2-y,1/2-z
1/2+x,1/2+y,1/2-z
1/2-x,1/2+y,1/2+z
1/2+x,1/2-y,1/2+z
loop_
_atom_site_type_symbol
_atom_site_label
_atom_site_fract_x
_atom_site_fract_y
_atom_site_fract_z
Si Si1 0.158076 0.067132 0.927977
Si Si2 0.667702 0.564510 0.757217
Si Si3 0.831145 0.120227 0.383753
Si Si4 0.334076 0.735614 0.811527
Si Si5 0.836488 0.636216 0.338165
Si Si6 0.329200 0.930651 0.500000
O O1 0.276221 0.103353 0.895498
O O2 0.000000 0.086325 0.909230
O O3 0.170785 0.000000 0.911659
O O4 0.166494 0.071142 0.000000
O O5 0.500000 0.568706 0.745071
O O6 0.715270 0.500000 0.741084
O O7 0.687069 0.575902 0.828208
O O8 0.747688 0.612232 0.718423
O O9 0.789276 0.181688 0.353078
O O10 0.741511 0.099190 0.441048
O O11 0.000000 0.123003 0.398727
O O12 0.500000 0.725084 0.796120
O O13 0.250000 0.750000 0.750000
O O14 0.322911 0.795656 0.846926
O O15 0.000000 0.623102 0.327058
O O16 0.500000 0.923320 0.500000
O O17 0.300347 0.000000 0.500000
#
# Coordination Sequence:
#
# PCOD9521707 Si02
#       6
#    16  16  16  16  16   8
#     4   9  19  37  58  78 105 145 191 233 273 327
#     4  10  20  34  56  85 113 146 191 236 278 335
#     4  10  21  40  64  86 113 156 203 242 286 348
#     4  10  21  38  60  85 114 149 189 233 282 339
#     4  11  22  34  53  84 117 147 181 229 289 345
#     4  11  25  43  63  91 125 157 194 249 312 363
#
# _framework density 18.127108
#
# number of rings (size 3 to 8) (size 9 to 14) (size 15 to 20)
#    0.000    1.909    1.818    2.455    0.000    6.909 
#    1.636    0.909    0.000    0.000    0.000    0.000 
#    0.000    0.000    0.000    0.000    0.000    0.000 
#
# Total GULP energy -245476.097940 kJ/mol
# GULP energy per Si atom -5579.002226 kJ/mol
# Density = 1.808585 g / cm^3
# Si number density = 18.127108 Si / 1000 Ang^3
#
#
#
# Elastic Constant Matrix: (Units=GPa)
#
#
# Indices 1 2 3 4 5 6 
#
# 1 60.0651 54.7554 44.3035 0.0000 0.0000 0.0000
# 2 54.7554 104.5464 53.8006 0.0000 0.0000 0.0000
# 3 44.3035 53.8006 95.6375 0.0000 0.0000 0.0000
# 4 0.0000 0.0000 0.0000 33.5545 0.0000 0.0000
# 5 0.0000 0.0000 0.0000 0.0000 15.9476 0.0000
# 6 0.0000 0.0000 0.0000 0.0000 0.0000 26.1196
#
#
#
# Elastic Compliance Matrix: (Units=1/GPa)
#
#
# Indices 1 2 3 4 5 6 
#
# 1 0.036284 -0.014572 -0.008611 0.000000 0.000000 0.000000
# 2 -0.014572 0.019315 -0.004115 0.000000 0.000000 0.000000
# 3 -0.008611 -0.004115 0.016760 0.000000 0.000000 0.000000
# 4 0.000000 0.000000 0.000000 0.029802 0.000000 0.000000
# 5 0.000000 0.000000 0.000000 0.000000 0.062705 0.000000
# 6 0.000000 0.000000 0.000000 0.000000 0.000000 0.038285
#
#
# Mechanical properties :
#
#
# Convention : Reuss Voigt Hill
#
# Bulk Modulus (GPa) = 56.29782 62.88535 59.59158
# Shear Modulus (GPa) = 18.96319 22.28364 20.62342
#
# Velocity S-wave (km/s) = 3.23789 3.50994 3.37666
# Velocity P-wave (km/s) = 6.71590 7.15492 6.93888
#
# Compressibility (1/GPa) = 0.01776268
#
# Stress axis : x y z
#
# Youngs Moduli (GPa) = 27.56043 51.77352 59.66626
#
# Poissons Ratio (x) = 0.75446 0.51377
# Poissons Ratio (y) = 0.40162 0.24553
# Poissons Ratio (z) = 0.23731 0.21305
#
# Static dielectric constant tensor:
#      x y z
#    x 1.616850 0.000000 0.000000 
#    y 0.000000 1.632990 0.000000 
#    z 0.000000 0.000000 1.616290 
# 
# From -- ./inp_files/10458.got.cif
#   From: 2010.05.17/outbox.cif.g08.bks.cpg/sg71_6_cif.got.tgz:10458.got - 2010.06.03 16:22:01.
