data_PCOD9521942
_publ_section_title
;
Structure prediction by ZEFSAII (Michael W. Deem and Ramdas Pophale) SiO2 
 PCOD9521942
Probable space group: I M M M
;
_chemical_formula_sum "Si O2"
_cell_formula_units_Z 104
_cell_length_a 28.154081
_cell_length_b 8.865433
_cell_length_c 23.098595
_cell_angle_alpha 90.000000
_cell_angle_beta 90.000000
_cell_angle_gamma 90.000000
_cell_volume 5765.365859
_symmetry_space_group_name_H-M "I M M M"
_symmetry_group_IT_number 71
_symmetry_cell_setting 'orthorhombic'
loop_
_space_group_symop_operation_xyz
x,y,z
-x,-y,z
x,-y,-z
-x,y,-z
-x,-y,-z
x,y,-z
-x,y,z
x,-y,z
1/2+x,1/2+y,1/2+z
1/2-x,1/2-y,1/2+z
1/2+x,1/2-y,1/2-z
1/2-x,1/2+y,1/2-z
1/2-x,1/2-y,1/2-z
1/2+x,1/2+y,1/2-z
1/2-x,1/2+y,1/2+z
1/2+x,1/2-y,1/2+z
loop_
_atom_site_type_symbol
_atom_site_label
_atom_site_fract_x
_atom_site_fract_y
_atom_site_fract_z
Si Si1 0.680640 0.177773 0.138453
Si Si2 0.555018 0.181627 0.432104
Si Si3 0.901892 0.173901 0.430314
Si Si4 0.353443 0.319055 0.377206
Si Si5 0.000000 0.674022 0.429571
Si Si6 0.197216 0.180346 0.243980
Si Si7 0.235148 0.320547 0.066392
O O1 0.638839 0.221676 0.095070
O O2 0.671121 0.259584 0.199077
O O3 0.728947 0.240619 0.110239
O O4 0.684831 0.000000 0.146989
O O5 0.563557 0.220758 0.500000
O O6 0.500000 0.221062 0.418820
O O7 0.594144 0.258944 0.391655
O O8 0.559343 0.000000 0.427448
O O9 0.900200 0.177531 0.500000
O O10 0.952865 0.237691 0.411604
O O11 0.894973 0.000000 0.412386
O O12 0.352371 0.500000 0.382049
O O13 0.331384 0.277724 0.314249
O O14 0.317063 0.244197 0.422515
O O15 0.000000 0.500000 0.410375
O O16 0.000000 0.672295 0.500000
O O17 0.250000 0.250000 0.250000
O O18 0.201647 0.000000 0.244815
O O19 0.235839 0.500000 0.076281
O O20 0.249891 0.292705 0.000000
#
# Coordination Sequence:
#
# PCOD9521942 Si02
#       7
#    16  16  16  16   8  16  16
#     4  12  24  37  56  82 111 147 189 238 287 334
#     4   9  19  37  61  89 121 157 195 235 286 349
#     4  10  20  35  56  82 113 149 186 227 282 343
#     4  11  23  37  58  87 116 149 191 239 289 341
#     4   9  17  31  53  81 111 143 181 225 272 327
#     4  11  23  40  60  82 110 149 194 236 281 337
#     4  11  23  37  55  81 115 153 188 227 280 343
#
# _framework density 18.038751999999999
#
# number of rings (size 3 to 8) (size 9 to 14) (size 15 to 20)
#    0.000    1.462    1.538    4.846    0.000    9.231 
#    0.000    0.769    1.692    0.000    0.000    0.000 
#    0.000    0.000    0.000    0.000    0.000    0.000 
#
# Total GULP energy -290465.009149 kJ/mol
# GULP energy per Si atom -5585.865561 kJ/mol
# Density = 1.799769 g / cm^3
# Si number density = 18.038752 Si / 1000 Ang^3
#
#
#
# Elastic Constant Matrix: (Units=GPa)
#
#
# Indices 1 2 3 4 5 6 
#
# 1 108.2473 30.4252 37.5448 0.0000 0.0000 0.0000
# 2 30.4252 70.7786 43.8839 0.0000 0.0000 0.0000
# 3 37.5448 43.8839 74.4624 0.0000 0.0000 0.0000
# 4 0.0000 0.0000 0.0000 26.4098 0.0000 0.0000
# 5 0.0000 0.0000 0.0000 0.0000 18.0756 0.0000
# 6 0.0000 0.0000 0.0000 0.0000 0.0000 32.9668
#
#
#
# Elastic Compliance Matrix: (Units=1/GPa)
#
#
# Indices 1 2 3 4 5 6 
#
# 1 0.011392 -0.002105 -0.004503 0.000000 0.000000 0.000000
# 2 -0.002105 0.022653 -0.012289 0.000000 0.000000 0.000000
# 3 -0.004503 -0.012289 0.022943 0.000000 0.000000 0.000000
# 4 0.000000 0.000000 0.000000 0.037865 0.000000 0.000000
# 5 0.000000 0.000000 0.000000 0.000000 0.055323 0.000000
# 6 0.000000 0.000000 0.000000 0.000000 0.000000 0.030334
#
#
# Mechanical properties :
#
#
# Convention : Reuss Voigt Hill
#
# Bulk Modulus (GPa) = 52.10276 53.02179 52.56227
# Shear Modulus (GPa) = 22.25186 24.93274 23.59230
#
# Velocity S-wave (km/s) = 3.51602 3.72180 3.62037
# Velocity P-wave (km/s) = 6.74015 6.92287 6.83212
#
# Compressibility (1/GPa) = 0.01919284
#
# Stress axis : x y z
#
# Youngs Moduli (GPa) = 87.78365 44.14488 43.58676
#
# Poissons Ratio (x) = 0.09291 0.19629
# Poissons Ratio (y) = 0.18476 0.53564
# Poissons Ratio (z) = 0.39533 0.54250
#
# Static dielectric constant tensor:
#      x y z
#    x 1.622710 0.000000 0.000000 
#    y 0.000000 1.602350 0.000000 
#    z 0.000000 0.000000 1.632560 
# 
# From -- ./inp_files/56251.got.cif
#   From: 2010.05.17/outbox.cif.g08.bks.cpg/sg71_29_cif.got.tgz:56251.got - 2010.06.03 16:22:01.
