data_PCOD9521677
_publ_section_title
;
Structure prediction by ZEFSAII (Michael W. Deem and Ramdas Pophale) SiO2 
 PCOD9521677
Probable space group: I M M M
;
_chemical_formula_sum "Si O2"
_cell_formula_units_Z 88
_cell_length_a 17.538839
_cell_length_b 15.403378
_cell_length_c 17.970882
_cell_angle_alpha 90.000000
_cell_angle_beta 90.000000
_cell_angle_gamma 90.000000
_cell_volume 4854.966160
_symmetry_space_group_name_H-M "I M M M"
_symmetry_group_IT_number 71
_symmetry_cell_setting 'orthorhombic'
loop_
_space_group_symop_operation_xyz
x,y,z
-x,-y,z
x,-y,-z
-x,y,-z
-x,-y,-z
x,y,-z
-x,y,z
x,-y,z
1/2+x,1/2+y,1/2+z
1/2-x,1/2-y,1/2+z
1/2+x,1/2-y,1/2-z
1/2-x,1/2+y,1/2-z
1/2-x,1/2-y,1/2-z
1/2+x,1/2+y,1/2-z
1/2-x,1/2+y,1/2+z
1/2+x,1/2-y,1/2+z
loop_
_atom_site_type_symbol
_atom_site_label
_atom_site_fract_x
_atom_site_fract_y
_atom_site_fract_z
Si Si1 0.754936 0.731270 0.916408
Si Si2 0.637179 0.600363 0.416376
Si Si3 0.000000 0.602310 0.584777
Si Si4 0.869135 0.309136 0.324746
Si Si5 0.083841 0.858393 0.243302
Si Si6 0.756514 0.599489 0.787354
O O1 0.800574 0.822470 0.913959
O O2 0.670034 0.753170 0.889781
O O3 0.780174 0.660239 0.856370
O O4 0.759145 0.697995 0.000000
O O5 0.602768 0.604746 0.500000
O O6 0.665741 0.500000 0.408165
O O7 0.586328 0.621055 0.344615
O O8 0.071867 0.630774 0.633558
O O9 0.000000 0.500000 0.578118
O O10 0.000000 0.638664 0.500000
O O11 0.907513 0.242737 0.266318
O O12 0.801964 0.359970 0.282169
O O13 0.164752 0.895966 0.273468
O O14 0.000000 0.887853 0.271435
O O15 0.777802 0.500000 0.798242
#
# Coordination Sequence:
#
# PCOD9521677 Si02
#       6
#    16  16   8  16  16  16
#     4  10  20  36  58  83 115 153 193 238 290 347
#     4  10  20  34  55  85 117 148 187 237 292 349
#     4  11  24  38  58  90 122 153 192 240 296 351
#     4  11  20  39  58  86 114 152 199 241 291 342
#     4  11  21  37  59  83 115 154 197 239 291 352
#     4  11  22  37  60  87 117 154 197 244 289 346
#
# _framework density 18.125771
#
# number of rings (size 3 to 8) (size 9 to 14) (size 15 to 20)
#    0.000    1.364    4.545    2.727    0.000    2.909 
#    0.000    2.727    0.000    0.000    0.000    2.545 
#    0.000    5.818    0.000    0.000    0.000    0.000 
#
# Total GULP energy -245006.631363 kJ/mol
# GULP energy per Si atom -5568.332531 kJ/mol
# Density = 1.808452 g / cm^3
# Si number density = 18.125771 Si / 1000 Ang^3
#
#
#
# Elastic Constant Matrix: (Units=GPa)
#
#
# Indices 1 2 3 4 5 6 
#
# 1 67.5755 18.1707 33.3140 0.0000 0.0000 0.0000
# 2 18.1707 92.3806 51.4013 0.0000 0.0000 0.0000
# 3 33.3140 51.4013 128.6985 0.0000 0.0000 0.0000
# 4 0.0000 0.0000 0.0000 29.4270 0.0000 0.0000
# 5 0.0000 0.0000 0.0000 0.0000 22.7875 0.0000
# 6 0.0000 0.0000 0.0000 0.0000 0.0000 12.4853
#
#
#
# Elastic Compliance Matrix: (Units=1/GPa)
#
#
# Indices 1 2 3 4 5 6 
#
# 1 0.017058 -0.001155 -0.003954 0.000000 0.000000 0.000000
# 2 -0.001155 0.013996 -0.005291 0.000000 0.000000 0.000000
# 3 -0.003954 -0.005291 0.010907 0.000000 0.000000 0.000000
# 4 0.000000 0.000000 0.000000 0.033982 0.000000 0.000000
# 5 0.000000 0.000000 0.000000 0.000000 0.043884 0.000000
# 6 0.000000 0.000000 0.000000 0.000000 0.000000 0.080094
#
#
# Mechanical properties :
#
#
# Convention : Reuss Voigt Hill
#
# Bulk Modulus (GPa) = 47.25775 54.93630 51.09703
# Shear Modulus (GPa) = 21.95150 25.32454 23.63802
#
# Velocity S-wave (km/s) = 3.48381 3.74191 3.61517
# Velocity P-wave (km/s) = 6.50472 7.00310 6.75850
#
# Compressibility (1/GPa) = 0.02116055
#
# Stress axis : x y z
#
# Youngs Moduli (GPa) = 58.62261 71.44972 91.68591
#
# Poissons Ratio (x) = 0.08253 0.36255
# Poissons Ratio (y) = 0.06771 0.48510
# Poissons Ratio (z) = 0.23181 0.37803
#
# Static dielectric constant tensor:
#      x y z
#    x 1.652730 0.000000 0.000000 
#    y 0.000000 1.622090 0.000000 
#    z 0.000000 0.000000 1.646100 
# 
# From -- ./inp_files/45857.got.cif
#   From: 2010.05.17/outbox.cif.g08.bks.cpg/sg71_23_cif.got.tgz:45857.got - 2010.06.03 16:22:01.
