data_PCOD9521194
_publ_section_title
;
Structure prediction by ZEFSAII (Michael W. Deem and Ramdas Pophale) SiO2 
 PCOD9521194
Probable space group: I M M M
;
_chemical_formula_sum "Si O2"
_cell_formula_units_Z 104
_cell_length_a 9.553934
_cell_length_b 29.788993
_cell_length_c 20.322538
_cell_angle_alpha 90.000000
_cell_angle_beta 90.000000
_cell_angle_gamma 90.000000
_cell_volume 5783.836444
_symmetry_space_group_name_H-M "I M M M"
_symmetry_group_IT_number 71
_symmetry_cell_setting 'orthorhombic'
loop_
_space_group_symop_operation_xyz
x,y,z
-x,-y,z
x,-y,-z
-x,y,-z
-x,-y,-z
x,y,-z
-x,y,z
x,-y,z
1/2+x,1/2+y,1/2+z
1/2-x,1/2-y,1/2+z
1/2+x,1/2-y,1/2-z
1/2-x,1/2+y,1/2-z
1/2-x,1/2-y,1/2-z
1/2+x,1/2+y,1/2-z
1/2-x,1/2+y,1/2+z
1/2+x,1/2-y,1/2+z
loop_
_atom_site_type_symbol
_atom_site_label
_atom_site_fract_x
_atom_site_fract_y
_atom_site_fract_z
Si Si1 0.667239 0.833496 0.500000
Si Si2 0.340439 0.167852 0.110584
Si Si3 0.834982 0.053021 0.282276
Si Si4 0.835542 0.082043 0.868673
Si Si5 0.668338 0.872911 0.641920
Si Si6 0.165462 0.740924 0.500000
Si Si7 0.839936 0.294575 0.242122
Si Si8 0.657682 0.000000 0.921984
O O1 0.500000 0.825483 0.500000
O O2 0.700952 0.860535 0.566606
O O3 0.745769 0.786025 0.500000
O O4 0.500000 0.152934 0.093579
O O5 0.229104 0.128302 0.105569
O O6 0.341012 0.182375 0.186527
O O7 0.306927 0.209742 0.063598
O O8 0.818747 0.075248 0.210035
O O9 0.744562 0.082630 0.332200
O O10 0.000000 0.055396 0.298917
O O11 0.796808 0.000000 0.279366
O O12 0.000000 0.078045 0.883575
O O13 0.744823 0.042833 0.899932
O O14 0.500000 0.877926 0.648942
O O15 0.710698 0.830566 0.688122
O O16 0.000000 0.751932 0.500000
O O17 0.750000 0.250000 0.250000
O O18 0.000000 0.282538 0.224506
O O19 0.500000 0.000000 0.893921
O O20 0.647624 0.000000 0.000000
#
# Coordination Sequence:
#
# PCOD9521194 Si02
#       8
#     8  16  16  16  16   8  16   8
#     4  10  22  40  61  85 119 152 190 244 296 353
#     4  10  21  37  54  80 116 152 193 237 284 344
#     4  10  21  39  61  88 119 150 190 244 299 352
#     4  11  22  38  59  85 116 150 193 245 293 340
#     4  10  21  38  59  86 116 152 195 240 295 358
#     4  10  22  38  58  82 116 158 198 239 287 351
#     4  10  20  33  53  80 111 146 191 239 284 342
#     4  11  25  41  59  83 115 158 199 236 285 345
#
# _framework density 17.981144
#
# number of rings (size 3 to 8) (size 9 to 14) (size 15 to 20)
#    0.000    1.769    2.308    1.615    1.077    4.000 
#    0.000    0.385    0.000    2.308    0.000    0.000 
#    0.000    0.000    0.000    0.000    0.000    0.000 
#
# Total GULP energy -290304.245971 kJ/mol
# GULP energy per Si atom -5582.773961 kJ/mol
# Density = 1.794022 g / cm^3
# Si number density = 17.981144 Si / 1000 Ang^3
#
#
#
# Elastic Constant Matrix: (Units=GPa)
#
#
# Indices 1 2 3 4 5 6 
#
# 1 85.1248 57.0484 29.4904 0.0000 0.0000 0.0000
# 2 57.0484 81.8866 15.2529 0.0000 0.0000 0.0000
# 3 29.4904 15.2529 81.4473 -0.0001 0.0000 0.0000
# 4 0.0000 0.0000 -0.0001 24.9767 0.0000 0.0000
# 5 0.0000 0.0000 0.0000 0.0000 17.3428 0.0000
# 6 0.0000 0.0000 0.0000 0.0000 0.0000 47.6311
#
#
#
# Elastic Compliance Matrix: (Units=1/GPa)
#
#
# Indices 1 2 3 4 5 6 
#
# 1 0.024478 -0.015959 -0.005874 0.000000 0.000000 0.000000
# 2 -0.015959 0.023058 0.001460 0.000000 0.000000 0.000000
# 3 -0.005874 0.001460 0.014131 0.000000 0.000000 0.000000
# 4 0.000000 0.000000 0.000000 0.040037 0.000000 0.000000
# 5 0.000000 0.000000 0.000000 0.000000 0.057661 0.000000
# 6 0.000000 0.000000 0.000000 0.000000 0.000000 0.020995
#
#
# Mechanical properties :
#
#
# Convention : Reuss Voigt Hill
#
# Bulk Modulus (GPa) = 47.79771 50.22689 49.01230
# Shear Modulus (GPa) = 21.92216 27.76793 24.84505
#
# Velocity S-wave (km/s) = 3.49546 3.93400 3.72119
# Velocity P-wave (km/s) = 6.55216 6.97344 6.76608
#
# Compressibility (1/GPa) = 0.02092151
#
# Stress axis : x y z
#
# Youngs Moduli (GPa) = 40.85350 43.36854 70.76464
#
# Poissons Ratio (x) = 0.69211 0.41569
# Poissons Ratio (y) = 0.65198 -0.10333
# Poissons Ratio (z) = 0.23998 -0.06333
#
# Static dielectric constant tensor:
#      x y z
#    x 1.612980 0.000000 0.000000 
#    y 0.000000 1.575380 0.000000 
#    z 0.000000 0.000000 1.615530 
# 
# From -- ./inp_files/50968.got.cif
#   From: 2010.05.17/outbox.cif.g08.bks.cpg/sg71_26_cif.got.tgz:50968.got - 2010.06.03 16:22:01.
