data_PCOD9521901
_publ_section_title
;
Structure prediction by ZEFSAII (Michael W. Deem and Ramdas Pophale) SiO2 
 PCOD9521901
Probable space group: I M M M
;
_chemical_formula_sum "Si O2"
_cell_formula_units_Z 80
_cell_length_a 23.766057
_cell_length_b 21.703656
_cell_length_c 7.599375
_cell_angle_alpha 90.000000
_cell_angle_beta 90.000000
_cell_angle_gamma 90.000000
_cell_volume 3919.836093
_symmetry_space_group_name_H-M "I M M M"
_symmetry_group_IT_number 71
_symmetry_cell_setting 'orthorhombic'
loop_
_space_group_symop_operation_xyz
x,y,z
-x,-y,z
x,-y,-z
-x,y,-z
-x,-y,-z
x,y,-z
-x,y,z
x,-y,z
1/2+x,1/2+y,1/2+z
1/2-x,1/2-y,1/2+z
1/2+x,1/2-y,1/2-z
1/2-x,1/2+y,1/2-z
1/2-x,1/2-y,1/2-z
1/2+x,1/2+y,1/2-z
1/2-x,1/2+y,1/2+z
1/2+x,1/2-y,1/2+z
loop_
_atom_site_type_symbol
_atom_site_label
_atom_site_fract_x
_atom_site_fract_y
_atom_site_fract_z
Si Si1 0.129127 0.378414 0.214883
Si Si2 0.566098 0.246265 0.286345
Si Si3 0.367650 0.630391 0.203050
Si Si4 0.060572 0.927884 0.000000
Si Si5 0.563668 0.000000 0.285100
Si Si6 0.749266 0.072448 0.713790
O O1 0.095831 0.317408 0.270759
O O2 0.094975 0.438594 0.270372
O O3 0.193070 0.391784 0.272402
O O4 0.129859 0.376373 0.000000
O O5 0.565451 0.247749 0.500000
O O6 0.500000 0.251395 0.230268
O O7 0.607485 0.300981 0.225156
O O8 0.406870 0.590901 0.327395
O O9 0.304083 0.612982 0.259078
O O10 0.372559 0.612794 0.000000
O O11 0.000000 0.895964 0.000000
O O12 0.054913 0.000000 0.000000
O O13 0.500000 0.000000 0.225853
O O14 0.564108 0.000000 0.500000
O O15 0.746827 0.069540 0.500000
O O16 0.751817 0.000000 0.772153
#
# Coordination Sequence:
#
# PCOD9521901 Si02
#       6
#    16  16  16   8   8  16
#     4   9  16  28  50  80 116 159 201 249 307 362
#     4  10  20  35  55  83 121 161 204 252 305 363
#     4  11  23  39  62  90 120 164 207 247 299 366
#     4  11  24  42  64  92 124 155 199 259 313 359
#     4   9  14  22  42  78 119 155 199 251 304 361
#     4   9  17  32  54  82 117 155 199 251 306 365
#
# _framework density 20.409016000000001
#
# number of rings (size 3 to 8) (size 9 to 14) (size 15 to 20)
#    0.000    2.200    2.000    1.800    0.000    6.000 
#    0.000    1.000    2.200    0.000    0.000    0.700 
#    0.000    2.400    0.000    0.000    0.000    0.000 
#
# Total GULP energy -223185.421025 kJ/mol
# GULP energy per Si atom -5579.635526 kJ/mol
# Density = 2.036256 g / cm^3
# Si number density = 20.409016 Si / 1000 Ang^3
#
#
#
# Elastic Constant Matrix: (Units=GPa)
#
#
# Indices 1 2 3 4 5 6 
#
# 1 226.1459 93.5071 29.7957 0.0000 0.0000 0.0000
# 2 93.5071 155.0650 15.1236 0.0000 0.0000 0.0000
# 3 29.7957 15.1236 55.9484 0.0000 0.0000 0.0000
# 4 0.0000 0.0000 0.0000 -18.5445 0.0000 0.0000
# 5 0.0000 0.0000 0.0000 0.0000 15.7555 0.0000
# 6 0.0000 0.0000 0.0000 0.0000 0.0000 36.8353
#
#
#
# Elastic Compliance Matrix: (Units=1/GPa)
#
#
# Indices 1 2 3 4 5 6 
#
# 1 0.006176 -0.003496 -0.002344 0.000000 0.000000 0.000000
# 2 -0.003496 0.008602 -0.000464 0.000000 0.000000 0.000000
# 3 -0.002344 -0.000464 0.019247 0.000000 0.000000 0.000000
# 4 0.000000 0.000000 0.000000 -0.053924 0.000000 0.000000
# 5 0.000000 0.000000 0.000000 0.000000 0.063470 0.000000
# 6 0.000000 0.000000 0.000000 0.000000 0.000000 0.027148
#
#
# Mechanical properties :
#
#
# Convention : Reuss Voigt Hill
#
# Bulk Modulus (GPa) = 46.68846 79.33467 63.01157
# Shear Modulus (GPa) = 55.26940 26.72478 40.99709
#
# Velocity S-wave (km/s) = 5.20957 3.62257 4.48680
# Velocity P-wave (km/s) = 7.68845 7.51360 7.60153
#
# Compressibility (1/GPa) = 0.02141857
#
# Stress axis : x y z
#
# Youngs Moduli (GPa) = 161.91162 116.25053 51.95516
#
# Poissons Ratio (x) = 0.40638 0.12180
# Poissons Ratio (y) = 0.56600 0.02409
# Poissons Ratio (z) = 0.37956 0.05389
#
# Static dielectric constant tensor:
#      x y z
#    x 1.732450 0.000000 0.000000 
#    y 0.000000 1.712250 0.000000 
#    z 0.000000 0.000000 1.752960 
# 
# From -- ./inp_files/12397.got.cif
#   From: 2010.05.17/outbox.cif.g08.bks.cpg/sg71_7_cif.got.tgz:12397.got - 2010.06.03 16:22:01.
