data_PCOD9521617
_publ_section_title
;
Structure prediction by ZEFSAII (Michael W. Deem and Ramdas Pophale) SiO2 
 PCOD9521617
Probable space group: I M M M
;
_chemical_formula_sum "Si O2"
_cell_formula_units_Z 72
_cell_length_a 13.560732
_cell_length_b 32.591119
_cell_length_c 7.568161
_cell_angle_alpha 90.000000
_cell_angle_beta 90.000000
_cell_angle_gamma 90.000000
_cell_volume 3344.820124
_symmetry_space_group_name_H-M "I M M M"
_symmetry_group_IT_number 71
_symmetry_cell_setting 'orthorhombic'
loop_
_space_group_symop_operation_xyz
x,y,z
-x,-y,z
x,-y,-z
-x,y,-z
-x,-y,-z
x,y,-z
-x,y,z
x,-y,z
1/2+x,1/2+y,1/2+z
1/2-x,1/2-y,1/2+z
1/2+x,1/2-y,1/2-z
1/2-x,1/2+y,1/2-z
1/2-x,1/2-y,1/2-z
1/2+x,1/2+y,1/2-z
1/2-x,1/2+y,1/2+z
1/2+x,1/2-y,1/2+z
loop_
_atom_site_type_symbol
_atom_site_label
_atom_site_fract_x
_atom_site_fract_y
_atom_site_fract_z
Si Si1 0.691559 0.811043 0.285337
Si Si2 0.303464 0.096748 0.709941
Si Si3 0.500000 0.953700 0.788999
Si Si4 0.895452 0.226428 0.291944
Si Si5 0.388535 0.547756 0.215655
O O1 0.689018 0.810414 0.500000
O O2 0.675957 0.857298 0.222798
O O3 0.798766 0.795688 0.220739
O O4 0.618219 0.775275 0.226922
O O5 0.287887 0.101024 0.500000
O O6 0.400162 0.069359 0.735573
O O7 0.203133 0.075353 0.778511
O O8 0.500000 0.000000 0.718358
O O9 0.500000 0.955332 0.000000
O O10 0.896735 0.216874 0.500000
O O11 0.000000 0.213664 0.214451
O O12 0.500000 0.560207 0.269756
O O13 0.373956 0.500000 0.266685
O O14 0.387761 0.548575 0.000000
#
# Coordination Sequence:
#
# PCOD9521617 Si02
#       5
#    16  16   8  16  16
#     4   9  19  33  49  75 104 130 169 216 259 303
#     4  10  20  34  55  81 107 137 175 223 270 315
#     4  11  25  41  55  75 107 147 185 223 269 321
#     4   9  18  33  52  72 100 139 174 206 253 312
#     4   8  14  26  47  76 105 130 160 204 260 317
#
# _framework density 21.525821000000001
#
# number of rings (size 3 to 8) (size 9 to 14) (size 15 to 20)
#    0.000    2.778    0.000    1.667    1.556    4.000 
#    0.000    4.444    0.000    0.667    0.000    6.222 
#    0.000    0.000    0.000    0.000    0.000    0.000 
#
# Total GULP energy -200856.022991 kJ/mol
# GULP energy per Si atom -5579.333972 kJ/mol
# Density = 2.147683 g / cm^3
# Si number density = 21.525821 Si / 1000 Ang^3
#
#
#
# Elastic Constant Matrix: (Units=GPa)
#
#
# Indices 1 2 3 4 5 6 
#
# 1 103.3890 21.6970 -15.1357 -0.0037 -0.0039 0.0015
# 2 21.6970 95.3653 -16.7028 0.0001 0.0009 -0.0001
# 3 -15.1357 -16.7028 46.2774 0.0030 0.0328 0.0038
# 4 -0.0037 0.0001 0.0030 -3.7683 0.0103 -0.0004
# 5 -0.0039 0.0009 0.0328 0.0103 -15.5504 0.0004
# 6 0.0015 -0.0001 0.0038 -0.0004 0.0004 -0.4017
#
#
#
# Elastic Compliance Matrix: (Units=1/GPa)
#
#
# Indices 1 2 3 4 5 6 
#
# 1 0.010472 -0.001903 0.002738 -0.000008 0.000003 0.000065
# 2 -0.001903 0.011539 0.003542 0.000005 0.000009 0.000023
# 3 0.002738 0.003542 0.023783 0.000017 0.000050 0.000232
# 4 -0.000008 0.000005 0.000017 -0.265375 -0.000176 0.000236
# 5 0.000003 0.000009 0.000050 -0.000176 -0.064307 -0.000061
# 6 0.000065 0.000023 0.000232 0.000236 -0.000061 -2.489321
#
#
# Mechanical properties :
#
#
# Convention : Reuss Voigt Hill
#
# Bulk Modulus (GPa) = 18.33172 24.97208 21.65190
# Shear Modulus (GPa) = -1.80912 13.06748 5.62918
#
# Velocity S-wave (km/s) = -0.91775 2.46653 1.61888
# Velocity P-wave (km/s) = 2.72243 4.44273 3.68439
#
# Compressibility (1/GPa) = 0.05455027
#
# Stress axis : x y z
#
# Youngs Moduli (GPa) = 95.48863 86.65955 42.04696
#
# Poissons Ratio (x) = 0.16492 -0.11514
# Poissons Ratio (y) = 0.18172 -0.14895
# Poissons Ratio (z) = -0.26148 -0.30699
#
# Static dielectric constant tensor:
#      x y z
#    x 1.943660 0.000010 -0.000060 
#    y 0.000010 1.764810 0.000000 
#    z -0.000060 0.000000 1.827650 
# 
# From -- ./inp_files/6477.got.cif
#   From: 2010.05.17/outbox.cif.g08.bks.cpg/sg71_4_cif.got.tgz:6477.got - 2010.06.03 16:22:01.
