data_PCOD9521577
_publ_section_title
;
Structure prediction by ZEFSAII (Michael W. Deem and Ramdas Pophale) SiO2 
 PCOD9521577
Probable space group: I M M M
;
_chemical_formula_sum "Si O2"
_cell_formula_units_Z 104
_cell_length_a 28.225412
_cell_length_b 9.327061
_cell_length_c 21.536461
_cell_angle_alpha 90.000000
_cell_angle_beta 90.000000
_cell_angle_gamma 90.000000
_cell_volume 5669.691727
_symmetry_space_group_name_H-M "I M M M"
_symmetry_group_IT_number 71
_symmetry_cell_setting 'orthorhombic'
loop_
_space_group_symop_operation_xyz
x,y,z
-x,-y,z
x,-y,-z
-x,y,-z
-x,-y,-z
x,y,-z
-x,y,z
x,-y,z
1/2+x,1/2+y,1/2+z
1/2-x,1/2-y,1/2+z
1/2+x,1/2-y,1/2-z
1/2-x,1/2+y,1/2-z
1/2-x,1/2-y,1/2-z
1/2+x,1/2+y,1/2-z
1/2-x,1/2+y,1/2+z
1/2+x,1/2-y,1/2+z
loop_
_atom_site_type_symbol
_atom_site_label
_atom_site_fract_x
_atom_site_fract_y
_atom_site_fract_z
Si Si1 0.369962 0.672203 0.242299
Si Si2 0.443860 0.171867 0.000000
Si Si3 0.391366 0.333406 0.571961
Si Si4 0.621880 0.670542 0.096501
Si Si5 0.269471 0.671364 0.931703
Si Si6 0.444874 0.830222 0.328184
Si Si7 0.298045 0.666946 0.657810
O O1 0.373830 0.500000 0.251485
O O2 0.374673 0.701898 0.169718
O O3 0.411897 0.750408 0.278627
O O4 0.320436 0.713853 0.276098
O O5 0.417202 0.240354 0.940652
O O6 0.500000 0.204684 0.000000
O O7 0.438388 0.000000 0.000000
O O8 0.384430 0.298818 0.500000
O O9 0.406345 0.500000 0.576991
O O10 0.428993 0.232454 0.605530
O O11 0.342502 0.321018 0.610231
O O12 0.612570 0.500000 0.088543
O O13 0.674475 0.699808 0.070891
O O14 0.263118 0.500000 0.927636
O O15 0.243263 0.743596 0.874058
O O16 0.251522 0.719428 0.000000
O O17 0.500000 0.802460 0.316657
O O18 0.436464 0.000000 0.325907
O O19 0.284316 0.500000 0.662111
#
# Coordination Sequence:
#
# PCOD9521577 Si02
#       7
#    16   8  16  16  16  16  16
#     4   9  20  38  59  80 107 145 190 235 275 329
#     4  11  25  43  63  91 123 149 181 233 294 351
#     4   9  18  33  52  74 104 143 187 233 274 320
#     4  10  21  41  64  85 112 148 188 229 276 333
#     4  10  20  34  54  82 115 149 186 230 274 323
#     4  10  21  35  51  74 106 141 177 226 286 339
#     4   9  18  33  52  79 112 147 185 226 273 325
#
# _framework density 18.343150000000001
#
# number of rings (size 3 to 8) (size 9 to 14) (size 15 to 20)
#    0.000    2.385    0.769    2.077    0.000    8.308 
#    0.000    4.615    0.000    0.000    0.000    0.000 
#    0.000    0.000    0.000    0.000    0.000    0.000 
#
# Total GULP energy -290096.679144 kJ/mol
# GULP energy per Si atom -5578.782291 kJ/mol
# Density = 1.830140 g / cm^3
# Si number density = 18.343150 Si / 1000 Ang^3
#
#
#
# Elastic Constant Matrix: (Units=GPa)
#
#
# Indices 1 2 3 4 5 6 
#
# 1 89.3662 52.2224 53.2775 0.0000 0.0000 0.0000
# 2 52.2224 42.7049 46.3553 0.0000 0.0000 0.0000
# 3 53.2775 46.3553 133.3054 0.0000 0.0000 0.0000
# 4 0.0000 0.0000 0.0000 19.6437 0.0000 0.0000
# 5 0.0000 0.0000 0.0000 0.0000 9.9290 0.0000
# 6 0.0000 0.0000 0.0000 0.0000 0.0000 30.9994
#
#
#
# Elastic Compliance Matrix: (Units=1/GPa)
#
#
# Indices 1 2 3 4 5 6 
#
# 1 0.039424 -0.049968 0.001619 0.000000 0.000000 0.000000
# 2 -0.049968 0.100947 -0.015133 0.000000 0.000000 0.000000
# 3 0.001619 -0.015133 0.012117 0.000000 0.000000 0.000000
# 4 0.000000 0.000000 0.000000 0.050907 0.000000 0.000000
# 5 0.000000 0.000000 0.000000 0.000000 0.100715 0.000000
# 6 0.000000 0.000000 0.000000 0.000000 0.000000 0.032259
#
#
# Mechanical properties :
#
#
# Convention : Reuss Voigt Hill
#
# Bulk Modulus (GPa) = 39.17734 63.23188 51.20461
# Shear Modulus (GPa) = 10.59681 19.68250 15.13966
#
# Velocity S-wave (km/s) = 2.40614 3.27925 2.87602
# Velocity P-wave (km/s) = 5.39664 6.99174 6.24533
#
# Compressibility (1/GPa) = 0.02552496
#
# Stress axis : x y z
#
# Youngs Moduli (GPa) = 25.36512 9.90616 82.53206
#
# Poissons Ratio (x) = 0.49499 -0.13365
# Poissons Ratio (y) = 1.26745 1.24892
# Poissons Ratio (z) = -0.04108 0.14991
#
# Static dielectric constant tensor:
#      x y z
#    x 1.612120 0.000000 0.000000 
#    y 0.000000 1.612150 0.000000 
#    z 0.000000 0.000000 1.657970 
# 
# From -- ./inp_files/56228.got.cif
#   From: 2010.05.17/outbox.cif.g08.bks.cpg/sg71_29_cif.got.tgz:56228.got - 2010.06.03 16:22:01.
