data_PCOD9521860
_publ_section_title
;
Structure prediction by ZEFSAII (Michael W. Deem and Ramdas Pophale) SiO2 
 PCOD9521860
Probable space group: I M M M
;
_chemical_formula_sum "Si O2"
_cell_formula_units_Z 104
_cell_length_a 22.281048
_cell_length_b 7.635985
_cell_length_c 28.463615
_cell_angle_alpha 90.000000
_cell_angle_beta 90.000000
_cell_angle_gamma 90.000000
_cell_volume 4842.735365
_symmetry_space_group_name_H-M "I M M M"
_symmetry_group_IT_number 71
_symmetry_cell_setting 'orthorhombic'
loop_
_space_group_symop_operation_xyz
x,y,z
-x,-y,z
x,-y,-z
-x,y,-z
-x,-y,-z
x,y,-z
-x,y,z
x,-y,z
1/2+x,1/2+y,1/2+z
1/2-x,1/2-y,1/2+z
1/2+x,1/2-y,1/2-z
1/2-x,1/2+y,1/2-z
1/2-x,1/2-y,1/2-z
1/2+x,1/2+y,1/2-z
1/2-x,1/2+y,1/2+z
1/2+x,1/2-y,1/2+z
loop_
_atom_site_type_symbol
_atom_site_label
_atom_site_fract_x
_atom_site_fract_y
_atom_site_fract_z
Si Si1 0.341701 0.303385 0.128964
Si Si2 0.749380 0.295789 0.053324
Si Si3 0.567840 0.290526 0.203591
Si Si4 0.875259 0.795603 0.905140
Si Si5 0.570661 0.790484 0.051753
Si Si6 0.067708 0.709327 0.812953
Si Si7 0.000000 0.788490 0.055042
O O1 0.321000 0.500000 0.142436
O O2 0.290182 0.217806 0.096270
O O3 0.375742 0.220091 0.173613
O O4 0.395976 0.309752 0.092003
O O5 0.731286 0.500000 0.050631
O O6 0.817828 0.287724 0.070646
O O7 0.743245 0.223067 0.000000
O O8 0.500000 0.224016 0.191411
O O9 0.566741 0.500000 0.195483
O O10 0.577021 0.258900 0.258813
O O11 0.882745 0.778451 0.849052
O O12 0.938173 0.719777 0.923754
O O13 0.872092 0.000000 0.917701
O O14 0.500000 0.757950 0.053153
O O15 0.579324 0.000000 0.057516
O O16 0.593482 0.741918 0.000000
O O17 0.067507 0.500000 0.816203
O O18 0.000000 0.774097 0.825682
O O19 0.000000 0.000000 0.062829
O O20 0.000000 0.757004 0.000000
#
# Coordination Sequence:
#
# PCOD9521860 Si02
#       7
#    16  16  16  16  16  16   8
#     4  10  20  35  55  78 106 145 190 234 278 327
#     4  10  22  39  56  78 113 152 188 229 278 331
#     4   9  18  33  55  83 113 143 183 233 281 328
#     4  11  21  36  59  84 112 145 184 228 275 329
#     4   9  18  31  47  71 104 139 177 227 284 337
#     4  10  20  35  57  85 116 146 178 220 278 341
#     4   9  18  32  53  83 113 137 169 219 272 323
#
# _framework density 21.475466999999998
#
# number of rings (size 3 to 8) (size 9 to 14) (size 15 to 20)
#    0.000    2.231    0.769    2.769    0.000    4.615 
#    0.000    3.077    0.000    1.846    0.000    0.000 
#    0.000    0.000    0.000    0.000    0.000    0.000 
#
# Total GULP energy -290072.091448 kJ/mol
# GULP energy per Si atom -5578.309451 kJ/mol
# Density = 2.142659 g / cm^3
# Si number density = 21.475467 Si / 1000 Ang^3
#
#
#
# Elastic Constant Matrix: (Units=GPa)
#
#
# Indices 1 2 3 4 5 6 
#
# 1 107.1445 1.0130 59.2088 0.0000 0.0000 0.0000
# 2 1.0130 45.4433 -6.6241 0.0000 0.0000 0.0000
# 3 59.2088 -6.6241 89.8652 0.0000 0.0000 0.0000
# 4 0.0000 0.0000 0.0000 11.5757 0.0000 0.0000
# 5 0.0000 0.0000 0.0000 0.0000 50.1131 0.0000
# 6 0.0000 0.0000 0.0000 0.0000 0.0000 -12.6190
#
#
#
# Elastic Compliance Matrix: (Units=1/GPa)
#
#
# Indices 1 2 3 4 5 6 
#
# 1 0.014817 -0.001772 -0.009893 0.000000 0.000000 0.000000
# 2 -0.001772 0.022456 0.002823 0.000000 0.000000 0.000000
# 3 -0.009893 0.002823 0.017854 0.000000 0.000000 0.000000
# 4 0.000000 0.000000 0.000000 0.086388 0.000000 0.000000
# 5 0.000000 0.000000 0.000000 0.000000 0.019955 0.000000
# 6 0.000000 0.000000 0.000000 0.000000 0.000000 -0.079245
#
#
# Mechanical properties :
#
#
# Convention : Reuss Voigt Hill
#
# Bulk Modulus (GPa) = 26.70739 38.84981 32.77860
# Shear Modulus (GPa) = 44.48799 22.40431 33.44615
#
# Velocity S-wave (km/s) = 4.55639 3.23344 3.95069
# Velocity P-wave (km/s) = 6.33594 5.66302 6.00891
#
# Compressibility (1/GPa) = 0.03744282
#
# Stress axis : x y z
#
# Youngs Moduli (GPa) = 67.49075 44.53061 56.01002
#
# Poissons Ratio (x) = 0.07892 0.55410
# Poissons Ratio (y) = 0.11962 -0.15812
# Poissons Ratio (z) = 0.66768 -0.12571
#
# Static dielectric constant tensor:
#      x y z
#    x 1.794040 0.000000 0.000000 
#    y 0.000000 1.813580 0.000000 
#    z 0.000000 0.000000 1.803580 
# 
# From -- ./inp_files/50949.got.cif
#   From: 2010.05.17/outbox.cif.g08.bks.cpg/sg71_26_cif.got.tgz:50949.got - 2010.06.03 16:22:01.
