data_PCOD9521275
_publ_section_title
;
Structure prediction by ZEFSAII (Michael W. Deem and Ramdas Pophale) SiO2 
 PCOD9521275
Probable space group: I M M M
;
_chemical_formula_sum "Si O2"
_cell_formula_units_Z 120
_cell_length_a 20.893147
_cell_length_b 14.349042
_cell_length_c 23.208231
_cell_angle_alpha 90.000000
_cell_angle_beta 90.000000
_cell_angle_gamma 90.000000
_cell_volume 6957.749763
_symmetry_space_group_name_H-M "I M M M"
_symmetry_group_IT_number 71
_symmetry_cell_setting 'orthorhombic'
loop_
_space_group_symop_operation_xyz
x,y,z
-x,-y,z
x,-y,-z
-x,y,-z
-x,-y,-z
x,y,-z
-x,y,z
x,-y,z
1/2+x,1/2+y,1/2+z
1/2-x,1/2-y,1/2+z
1/2+x,1/2-y,1/2-z
1/2-x,1/2+y,1/2-z
1/2-x,1/2-y,1/2-z
1/2+x,1/2+y,1/2-z
1/2-x,1/2+y,1/2+z
1/2+x,1/2-y,1/2+z
loop_
_atom_site_type_symbol
_atom_site_label
_atom_site_fract_x
_atom_site_fract_y
_atom_site_fract_z
Si Si1 0.576011 0.603129 0.355357
Si Si2 0.874796 0.393644 0.627171
Si Si3 0.576579 0.896413 0.740805
Si Si4 0.798026 0.610030 0.931573
Si Si5 0.277609 0.258940 0.845186
Si Si6 0.500000 0.891575 0.932031
Si Si7 0.072799 0.716631 0.931140
Si Si8 0.654164 0.711231 0.728718
O O1 0.500000 0.604527 0.345843
O O2 0.594105 0.500000 0.376108
O O3 0.589522 0.686073 0.400244
O O4 0.612027 0.628511 0.296654
O O5 0.860235 0.500000 0.608550
O O6 0.901028 0.398743 0.692558
O O7 0.814640 0.326027 0.624938
O O8 0.933974 0.352214 0.591420
O O9 0.500000 0.883263 0.737375
O O10 0.614540 0.807126 0.717678
O O11 0.591743 0.000000 0.716492
O O12 0.792104 0.500000 0.921686
O O13 0.750264 0.667538 0.890561
O O14 0.870879 0.643544 0.919028
O O15 0.786516 0.628164 0.000000
O O16 0.325502 0.297659 0.795452
O O17 0.218292 0.218431 0.808815
O O18 0.500000 0.000000 0.911333
O O19 0.500000 0.890880 0.000000
O O20 0.000000 0.688808 0.913321
O O21 0.071492 0.730167 0.000000
#
# Coordination Sequence:
#
# PCOD9521275 Si02
#       8
#    16  16  16  16  16   8  16  16
#     4  10  20  34  53  77 107 142 178 219 263 309
#     4   9  17  31  51  76 105 137 171 207 256 319
#     4   9  16  29  51  75 102 139 177 215 261 310
#     4  10  21  38  58  78 105 141 181 227 273 315
#     4  10  21  35  52  76 106 144 181 215 262 317
#     4   9  16  28  50  80 109 131 159 209 267 316
#     4   9  18  35  58  81 106 137 177 225 268 313
#     4  10  20  34  50  75 109 143 180 220 261 310
#
# _framework density 17.246956000000001
#
# number of rings (size 3 to 8) (size 9 to 14) (size 15 to 20)
#    0.000    2.467    2.000    0.400    0.000    2.667 
#    0.000    5.333    0.000    0.000    0.000    0.000 
#    0.000    1.600    0.000    0.000    0.000    0.000 
#
# Total GULP energy -334358.156958 kJ/mol
# GULP energy per Si atom -5572.635949 kJ/mol
# Density = 1.720770 g / cm^3
# Si number density = 17.246956 Si / 1000 Ang^3
#
#
#
# Elastic Constant Matrix: (Units=GPa)
#
#
# Indices 1 2 3 4 5 6 
#
# 1 83.0077 63.2815 26.5369 0.0000 0.0000 0.0000
# 2 63.2815 90.9341 41.2559 0.0000 0.0000 0.0000
# 3 26.5369 41.2559 51.9542 0.0000 0.0000 0.0000
# 4 0.0000 0.0000 0.0000 21.9821 0.0000 0.0000
# 5 0.0000 0.0000 0.0000 0.0000 17.4761 0.0000
# 6 0.0000 0.0000 0.0000 0.0000 0.0000 25.8005
#
#
#
# Elastic Compliance Matrix: (Units=1/GPa)
#
#
# Indices 1 2 3 4 5 6 
#
# 1 0.025755 -0.018687 0.001684 0.000000 0.000000 0.000000
# 2 -0.018687 0.030749 -0.014872 0.000000 0.000000 0.000000
# 3 0.001684 -0.014872 0.030197 0.000000 0.000000 0.000000
# 4 0.000000 0.000000 0.000000 0.045492 0.000000 0.000000
# 5 0.000000 0.000000 0.000000 0.000000 0.057221 0.000000
# 6 0.000000 0.000000 0.000000 0.000000 0.000000 0.038759
#
#
# Mechanical properties :
#
#
# Convention : Reuss Voigt Hill
#
# Bulk Modulus (GPa) = 43.57168 54.22718 48.89943
# Shear Modulus (GPa) = 16.69043 19.37318 18.03181
#
# Velocity S-wave (km/s) = 3.11421 3.35517 3.23694
# Velocity P-wave (km/s) = 6.18461 6.82052 6.51033
#
# Compressibility (1/GPa) = 0.02295069
#
# Stress axis : x y z
#
# Youngs Moduli (GPa) = 38.82764 32.52168 33.11556
#
# Poissons Ratio (x) = 0.60773 -0.05577
# Poissons Ratio (y) = 0.72557 0.49250
# Poissons Ratio (z) = -0.06539 0.48367
#
# Static dielectric constant tensor:
#      x y z
#    x 1.592370 0.000000 0.000000 
#    y 0.000000 1.583110 0.000000 
#    z 0.000000 0.000000 1.600520 
# 
# From -- ./inp_files/66641.got.cif
#   From: 2010.05.17/outbox.cif.g08.bks.cpg/sg71_34_cif.got.tgz:66641.got - 2010.06.03 16:22:01.
