data_PCOD9521842
_publ_section_title
;
Structure prediction by ZEFSAII (Michael W. Deem and Ramdas Pophale) SiO2 
 PCOD9521842
Probable space group: I M M M
;
_chemical_formula_sum "Si O2"
_cell_formula_units_Z 88
_cell_length_a 8.889174
_cell_length_b 20.647563
_cell_length_c 24.676623
_cell_angle_alpha 90.000000
_cell_angle_beta 90.000000
_cell_angle_gamma 90.000000
_cell_volume 4529.141961
_symmetry_space_group_name_H-M "I M M M"
_symmetry_group_IT_number 71
_symmetry_cell_setting 'orthorhombic'
loop_
_space_group_symop_operation_xyz
x,y,z
-x,-y,z
x,-y,-z
-x,y,-z
-x,-y,-z
x,y,-z
-x,y,z
x,-y,z
1/2+x,1/2+y,1/2+z
1/2-x,1/2-y,1/2+z
1/2+x,1/2-y,1/2-z
1/2-x,1/2+y,1/2-z
1/2-x,1/2-y,1/2-z
1/2+x,1/2+y,1/2-z
1/2-x,1/2+y,1/2+z
1/2+x,1/2-y,1/2+z
loop_
_atom_site_type_symbol
_atom_site_label
_atom_site_fract_x
_atom_site_fract_y
_atom_site_fract_z
Si Si1 0.317237 0.923302 0.500000
Si Si2 0.676364 0.929679 0.082732
Si Si3 0.171147 0.070540 0.195338
Si Si4 0.683554 0.835969 0.394282
Si Si5 0.331953 0.702646 0.438754
Si Si6 0.823088 0.813304 0.721121
O O1 0.500000 0.922659 0.500000
O O2 0.272355 0.884708 0.555935
O O3 0.271407 0.000000 0.500000
O O4 0.500000 0.928508 0.072009
O O5 0.712167 0.926426 0.146524
O O6 0.749476 0.865157 0.060553
O O7 0.736116 0.000000 0.064049
O O8 0.188287 0.129493 0.235251
O O9 0.000000 0.072986 0.172686
O O10 0.186794 0.000000 0.222446
O O11 0.500000 0.836445 0.393380
O O12 0.737441 0.762721 0.407643
O O13 0.745925 0.842013 0.333373
O O14 0.343987 0.726670 0.500000
O O15 0.500000 0.691486 0.416900
O O16 0.750000 0.750000 0.750000
O O17 0.000000 0.800080 0.710440
#
# Coordination Sequence:
#
# PCOD9521842 Si02
#       6
#     8  16  16  16  16  16
#     4   9  18  36  63  91 118 153 198 246 299 357
#     4  10  21  35  52  78 110 140 174 223 276 321
#     4   9  19  37  57  75 102 143 185 220 262 323
#     4  10  20  37  59  84 115 149 189 239 288 340
#     4  10  20  35  55  76 102 141 185 224 263 316
#     4  11  23  37  56  85 117 150 189 236 289 346
#
# _framework density 19.429728999999998
#
# number of rings (size 3 to 8) (size 9 to 14) (size 15 to 20)
#    0.000    2.091    0.909    2.182    0.000    9.091 
#    0.000    2.273    0.000    0.545    0.000    0.000 
#    0.000    0.000    0.000    0.000    0.000    0.000 
#
# Total GULP energy -245047.109768 kJ/mol
# GULP energy per Si atom -5569.252495 kJ/mol
# Density = 1.938551 g / cm^3
# Si number density = 19.429729 Si / 1000 Ang^3
#
#
#
# Elastic Constant Matrix: (Units=GPa)
#
#
# Indices 1 2 3 4 5 6 
#
# 1 30.5628 31.3510 20.1718 0.0000 0.0000 0.0000
# 2 31.3510 116.2507 36.5557 0.0000 0.0000 0.0000
# 3 20.1718 36.5557 86.8812 0.0000 0.0000 0.0000
# 4 0.0000 0.0000 0.0000 17.6303 0.0000 0.0000
# 5 0.0000 0.0000 0.0000 0.0000 18.2607 0.0000
# 6 0.0000 0.0000 0.0000 0.0000 0.0000 18.5853
#
#
#
# Elastic Compliance Matrix: (Units=1/GPa)
#
#
# Indices 1 2 3 4 5 6 
#
# 1 0.048316 -0.010952 -0.006610 0.000000 0.000000 0.000000
# 2 -0.010952 0.012396 -0.002673 0.000000 0.000000 0.000000
# 3 -0.006610 -0.002673 0.014169 0.000000 0.000000 0.000000
# 4 0.000000 0.000000 0.000000 0.056721 0.000000 0.000000
# 5 0.000000 0.000000 0.000000 0.000000 0.054763 0.000000
# 6 0.000000 0.000000 0.000000 0.000000 0.000000 0.053806
#
#
# Mechanical properties :
#
#
# Convention : Reuss Voigt Hill
#
# Bulk Modulus (GPa) = 29.05924 45.53907 37.29915
# Shear Modulus (GPa) = 17.11680 20.60299 18.85990
#
# Velocity S-wave (km/s) = 2.97132 3.25989 3.11894
# Velocity P-wave (km/s) = 5.17302 6.13660 5.67530
#
# Compressibility (1/GPa) = 0.03441247
#
# Stress axis : x y z
#
# Youngs Moduli (GPa) = 20.69703 80.67039 70.57494
#
# Poissons Ratio (x) = 0.88347 0.46650
# Poissons Ratio (y) = 0.22667 0.18865
# Poissons Ratio (z) = 0.13681 0.21563
#
# Static dielectric constant tensor:
#      x y z
#    x 1.688430 0.000000 0.000000 
#    y 0.000000 1.698800 0.000000 
#    z 0.000000 0.000000 1.759820 
# 
# From -- ./inp_files/10495.got.cif
#   From: 2010.05.17/outbox.cif.g08.bks.cpg/sg71_6_cif.got.tgz:10495.got - 2010.06.03 16:22:01.
