data_PCOD9521854
_publ_section_title
;
Structure prediction by ZEFSAII (Michael W. Deem and Ramdas Pophale) SiO2 
 PCOD9521854
Probable space group: I M M M
;
_chemical_formula_sum "Si O2"
_cell_formula_units_Z 88
_cell_length_a 21.604594
_cell_length_b 8.365483
_cell_length_c 24.893937
_cell_angle_alpha 90.000000
_cell_angle_beta 90.000000
_cell_angle_gamma 90.000000
_cell_volume 4499.152526
_symmetry_space_group_name_H-M "I M M M"
_symmetry_group_IT_number 71
_symmetry_cell_setting 'orthorhombic'
loop_
_space_group_symop_operation_xyz
x,y,z
-x,-y,z
x,-y,-z
-x,y,-z
-x,-y,-z
x,y,-z
-x,y,z
x,-y,z
1/2+x,1/2+y,1/2+z
1/2-x,1/2-y,1/2+z
1/2+x,1/2-y,1/2-z
1/2-x,1/2+y,1/2-z
1/2-x,1/2-y,1/2-z
1/2+x,1/2+y,1/2-z
1/2-x,1/2+y,1/2+z
1/2+x,1/2-y,1/2+z
loop_
_atom_site_type_symbol
_atom_site_label
_atom_site_fract_x
_atom_site_fract_y
_atom_site_fract_z
Si Si1 0.301253 0.188995 0.708793
Si Si2 0.932118 0.807101 0.822142
Si Si3 0.404855 0.687740 0.442400
Si Si4 0.365763 0.321399 0.937546
Si Si5 0.776706 0.312200 0.085448
Si Si6 0.073072 0.500000 0.564757
O O1 0.250000 0.250000 0.750000
O O2 0.371447 0.254683 0.710453
O O3 0.277663 0.225751 0.648631
O O4 0.305257 0.000000 0.714525
O O5 0.926359 0.747379 0.884413
O O6 0.000000 0.757925 0.801558
O O7 0.930525 0.000000 0.824136
O O8 0.426509 0.755383 0.500000
O O9 0.420782 0.500000 0.442384
O O10 0.330751 0.709574 0.440556
O O11 0.376945 0.500000 0.913929
O O12 0.292237 0.291479 0.935875
O O13 0.398562 0.165653 0.913401
O O14 0.385154 0.330616 0.000000
O O15 0.792981 0.500000 0.078205
O O16 0.085626 0.500000 0.500000
O O17 0.000000 0.500000 0.572286
#
# Coordination Sequence:
#
# PCOD9521854 Si02
#       6
#    16  16  16  16  16   8
#     4  10  20  35  55  78 102 128 167 218 269 318
#     4   9  18  33  52  75 106 143 180 216 258 309
#     4   9  17  27  43  71 105 141 177 211 247 291
#     4   9  17  29  46  69  97 129 164 203 250 304
#     4   9  18  31  47  69  97 128 162 205 258 306
#     4   9  18  30  44  66  94 126 165 203 243 297
#
# _framework density 19.559239000000002
#
# number of rings (size 3 to 8) (size 9 to 14) (size 15 to 20)
#    0.000    2.818    0.000    1.091    1.273    2.909 
#    0.000    3.636    0.000    1.091    0.000    7.636 
#    0.000    0.000    0.000    0.000    0.000    0.000 
#
# Total GULP energy -245070.915476 kJ/mol
# GULP energy per Si atom -5569.793534 kJ/mol
# Density = 1.951472 g / cm^3
# Si number density = 19.559239 Si / 1000 Ang^3
#
#
#
# Elastic Constant Matrix: (Units=GPa)
#
#
# Indices 1 2 3 4 5 6 
#
# 1 102.4842 52.3532 42.1491 0.0000 0.0000 0.0000
# 2 52.3532 57.4754 20.7807 0.0000 0.0000 0.0000
# 3 42.1491 20.7807 52.9243 0.0000 0.0000 0.0000
# 4 0.0000 0.0000 0.0000 9.1892 0.0000 0.0000
# 5 0.0000 0.0000 0.0000 0.0000 4.4281 0.0000
# 6 0.0000 0.0000 0.0000 0.0000 0.0000 20.1382
#
#
#
# Elastic Compliance Matrix: (Units=1/GPa)
#
#
# Indices 1 2 3 4 5 6 
#
# 1 0.023297 -0.016914 -0.011913 0.000000 0.000000 0.000000
# 2 -0.016914 0.032557 0.000687 0.000000 0.000000 0.000000
# 3 -0.011913 0.000687 0.028113 0.000000 0.000000 0.000000
# 4 0.000000 0.000000 0.000000 0.108824 0.000000 0.000000
# 5 0.000000 0.000000 0.000000 0.000000 0.225832 0.000000
# 6 0.000000 0.000000 0.000000 0.000000 0.000000 0.049657
#
#
# Mechanical properties :
#
#
# Convention : Reuss Voigt Hill
#
# Bulk Modulus (GPa) = 36.11791 49.27221 42.69506
# Shear Modulus (GPa) = 9.36700 13.25781 11.31240
#
# Velocity S-wave (km/s) = 2.19076 2.60634 2.40753
# Velocity P-wave (km/s) = 4.99052 5.85690 5.44098
#
# Compressibility (1/GPa) = 0.02768710
#
# Stress axis : x y z
#
# Youngs Moduli (GPa) = 42.92319 30.71529 35.57113
#
# Poissons Ratio (x) = 0.51952 0.42375
# Poissons Ratio (y) = 0.72600 -0.02443
# Poissons Ratio (z) = 0.51134 -0.02110
#
# Static dielectric constant tensor:
#      x y z
#    x 1.683160 0.000000 0.000000 
#    y 0.000000 1.712140 0.000000 
#    z 0.000000 0.000000 1.749080 
# 
# From -- ./inp_files/66323.got.cif
#   From: 2010.05.17/outbox.cif.g08.bks.cpg/sg71_34_cif.got.tgz:66323.got - 2010.06.03 16:22:01.
