data_PCOD9521379
_publ_section_title
;
Structure prediction by ZEFSAII (Michael W. Deem and Ramdas Pophale) SiO2 
 PCOD9521379
Probable space group: I M M M
;
_chemical_formula_sum "Si O2"
_cell_formula_units_Z 96
_cell_length_a 23.352610
_cell_length_b 11.495279
_cell_length_c 18.565644
_cell_angle_alpha 90.000000
_cell_angle_beta 90.000000
_cell_angle_gamma 90.000000
_cell_volume 4983.849984
_symmetry_space_group_name_H-M "I M M M"
_symmetry_group_IT_number 71
_symmetry_cell_setting 'orthorhombic'
loop_
_space_group_symop_operation_xyz
x,y,z
-x,-y,z
x,-y,-z
-x,y,-z
-x,-y,-z
x,y,-z
-x,y,z
x,-y,z
1/2+x,1/2+y,1/2+z
1/2-x,1/2-y,1/2+z
1/2+x,1/2-y,1/2-z
1/2-x,1/2+y,1/2-z
1/2-x,1/2-y,1/2-z
1/2+x,1/2+y,1/2-z
1/2-x,1/2+y,1/2+z
1/2+x,1/2-y,1/2+z
loop_
_atom_site_type_symbol
_atom_site_label
_atom_site_fract_x
_atom_site_fract_y
_atom_site_fract_z
Si Si1 0.563594 0.701879 0.583727
Si Si2 0.672210 0.246380 0.915276
Si Si3 0.145689 0.000000 0.087647
Si Si4 0.431589 0.859144 0.850483
Si Si5 0.245340 0.638127 0.803815
Si Si6 0.725133 0.000000 0.087293
Si Si7 0.611833 0.134855 0.693059
O O1 0.573946 0.728727 0.500000
O O2 0.500000 0.651248 0.588774
O O3 0.610748 0.611833 0.610450
O O4 0.571181 0.810961 0.633748
O O5 0.604553 0.223198 0.904095
O O6 0.707161 0.336998 0.865807
O O7 0.696234 0.119592 0.890696
O O8 0.684552 0.264972 0.000000
O O9 0.209957 0.000000 0.112694
O O10 0.145428 0.000000 0.000000
O O11 0.500000 0.841491 0.852070
O O12 0.404979 0.823682 0.772906
O O13 0.422580 0.000000 0.863093
O O14 0.251017 0.500000 0.779804
O O15 0.250000 0.750000 0.750000
O O16 0.178631 0.649664 0.827290
O O17 0.724385 0.000000 0.000000
O O18 0.600414 0.000000 0.696412
#
# Coordination Sequence:
#
# PCOD9521379 Si02
#       7
#    16  16   8  16  16   8  16
#     4  10  20  34  52  77 112 156 205 253 301 362
#     4  11  22  38  61  93 129 164 213 268 325 387
#     4   9  17  32  51  75 108 151 197 247 306 359
#     4  10  20  36  59  88 126 169 214 267 324 383
#     4  11  24  42  67  95 128 168 206 256 320 385
#     4   9  18  31  55  87 119 156 197 255 315 370
#     4  10  21  38  58  85 119 156 199 252 312 373
#
# _framework density 19.262218000000001
#
# number of rings (size 3 to 8) (size 9 to 14) (size 15 to 20)
#    0.000    1.833    2.500    1.750    1.167    5.000 
#    1.500    3.333    0.000    0.500    0.000    1.167 
#    0.000    0.000    0.000    0.000    0.000    0.000 
#
# Total GULP energy -267403.402475 kJ/mol
# GULP energy per Si atom -5570.904218 kJ/mol
# Density = 1.921838 g / cm^3
# Si number density = 19.262218 Si / 1000 Ang^3
#
#
#
# Elastic Constant Matrix: (Units=GPa)
#
#
# Indices 1 2 3 4 5 6 
#
# 1 95.3127 25.2655 24.2456 0.0000 0.0000 0.0000
# 2 25.2655 55.3456 29.0186 0.0000 0.0000 0.0000
# 3 24.2456 29.0186 58.2209 0.0000 0.0000 0.0000
# 4 0.0000 0.0000 0.0000 25.3643 0.0000 0.0000
# 5 0.0000 0.0000 0.0000 0.0000 24.7957 0.0000
# 6 0.0000 0.0000 0.0000 0.0000 0.0000 75.2402
#
#
#
# Elastic Compliance Matrix: (Units=1/GPa)
#
#
# Indices 1 2 3 4 5 6 
#
# 1 0.012351 -0.003982 -0.003159 0.000000 0.000000 0.000000
# 2 -0.003982 0.025744 -0.011173 0.000000 0.000000 0.000000
# 3 -0.003159 -0.011173 0.024060 0.000000 0.000000 0.000000
# 4 0.000000 0.000000 0.000000 0.039425 0.000000 0.000000
# 5 0.000000 0.000000 0.000000 0.000000 0.040330 0.000000
# 6 0.000000 0.000000 0.000000 0.000000 0.000000 0.013291
#
#
# Mechanical properties :
#
#
# Convention : Reuss Voigt Hill
#
# Bulk Modulus (GPa) = 39.17327 40.65985 39.91656
# Shear Modulus (GPa) = 24.95771 33.77001 29.36386
#
# Velocity S-wave (km/s) = 3.60346 4.19163 3.90863
# Velocity P-wave (km/s) = 6.13956 6.67689 6.41386
#
# Compressibility (1/GPa) = 0.02552761
#
# Stress axis : x y z
#
# Youngs Moduli (GPa) = 80.96611 38.84325 41.56204
#
# Poissons Ratio (x) = 0.15468 0.13128
# Poissons Ratio (y) = 0.32241 0.46439
# Poissons Ratio (z) = 0.25574 0.43401
#
# Static dielectric constant tensor:
#      x y z
#    x 1.701290 0.000000 0.000000 
#    y 0.000000 1.684590 0.000000 
#    z 0.000000 0.000000 1.692330 
# 
# From -- ./inp_files/54924.got.cif
#   From: 2010.05.17/outbox.cif.g08.bks.cpg/sg71_28_cif.got.tgz:54924.got - 2010.06.03 16:22:01.
