data_PCOD9521679
_publ_section_title
;
Structure prediction by ZEFSAII (Michael W. Deem and Ramdas Pophale) SiO2 
 PCOD9521679
Probable space group: I M M M
;
_chemical_formula_sum "Si O2"
_cell_formula_units_Z 104
_cell_length_a 28.377100
_cell_length_b 8.313514
_cell_length_c 21.894670
_cell_angle_alpha 90.000000
_cell_angle_beta 90.000000
_cell_angle_gamma 90.000000
_cell_volume 5165.246439
_symmetry_space_group_name_H-M "I M M M"
_symmetry_group_IT_number 71
_symmetry_cell_setting 'orthorhombic'
loop_
_space_group_symop_operation_xyz
x,y,z
-x,-y,z
x,-y,-z
-x,y,-z
-x,-y,-z
x,y,-z
-x,y,z
x,-y,z
1/2+x,1/2+y,1/2+z
1/2-x,1/2-y,1/2+z
1/2+x,1/2-y,1/2-z
1/2-x,1/2+y,1/2-z
1/2-x,1/2-y,1/2-z
1/2+x,1/2+y,1/2-z
1/2-x,1/2+y,1/2+z
1/2+x,1/2-y,1/2+z
loop_
_atom_site_type_symbol
_atom_site_label
_atom_site_fract_x
_atom_site_fract_y
_atom_site_fract_z
Si Si1 0.206547 0.813019 0.930394
Si Si2 0.090285 0.171653 0.570088
Si Si3 0.802139 0.809660 0.729790
Si Si4 0.555628 0.000000 0.070534
Si Si5 0.635362 0.814477 0.661771
Si Si6 0.185482 0.686409 0.596087
Si Si7 0.945146 0.304010 0.069742
O O1 0.177269 0.697728 0.887603
O O2 0.261992 0.779882 0.926427
O O3 0.200102 0.000000 0.910216
O O4 0.190885 0.799688 0.000000
O O5 0.072389 0.169097 0.500000
O O6 0.071401 0.333674 0.600468
O O7 0.146156 0.197923 0.569027
O O8 0.078317 0.000000 0.598512
O O9 0.750000 0.750000 0.750000
O O10 0.842332 0.776128 0.780325
O O11 0.814444 0.714291 0.668461
O O12 0.799504 0.000000 0.717647
O O13 0.500000 0.000000 0.067036
O O14 0.574446 0.000000 0.000000
O O15 0.590138 0.749722 0.623617
O O16 0.626497 0.000000 0.678761
O O17 0.174520 0.500000 0.581096
O O18 0.942657 0.500000 0.069626
O O19 0.000000 0.260156 0.079980
O O20 0.932330 0.252369 0.000000
#
# Coordination Sequence:
#
# PCOD9521679 Si02
#       7
#    16  16  16   8  16  16  16
#     4  10  21  34  51  77 111 150 184 224 280 336
#     4  10  20  34  55  85 117 150 190 236 289 348
#     4  12  24  39  56  78 108 147 193 237 283 340
#     4   9  18  34  56  82 114 150 186 230 282 340
#     4  11  21  34  55  82 111 147 190 236 283 337
#     4  11  21  36  57  79 109 149 191 235 287 344
#     4   8  15  30  54  85 118 149 185 233 287 341
#
# _framework density 20.134566
#
# number of rings (size 3 to 8) (size 9 to 14) (size 15 to 20)
#    0.000    1.769    2.308    3.692    0.000    2.462 
#    0.000    1.538    0.000    2.769    0.000    5.385 
#    0.000    0.000    0.000    0.000    0.000    0.000 
#
# Total GULP energy -290120.638919 kJ/mol
# GULP energy per Si atom -5579.243056 kJ/mol
# Density = 2.008874 g / cm^3
# Si number density = 20.134566 Si / 1000 Ang^3
#
#
#
# Elastic Constant Matrix: (Units=GPa)
#
#
# Indices 1 2 3 4 5 6 
#
# 1 66.1783 19.1991 17.9162 0.0000 0.0000 0.0000
# 2 19.1991 89.9039 -3.7420 0.0000 0.0000 0.0000
# 3 17.9162 -3.7420 65.6646 0.0000 0.0000 0.0000
# 4 0.0000 0.0000 0.0000 -3.9459 0.0000 0.0000
# 5 0.0000 0.0000 0.0000 0.0000 -0.2951 0.0000
# 6 0.0000 0.0000 0.0000 0.0000 0.0000 12.0259
#
#
#
# Elastic Compliance Matrix: (Units=1/GPa)
#
#
# Indices 1 2 3 4 5 6 
#
# 1 0.017627 -0.003974 -0.005036 0.000000 0.000000 0.000000
# 2 -0.003974 0.012045 0.001771 0.000000 0.000000 0.000000
# 3 -0.005036 0.001771 0.016704 0.000000 0.000000 0.000000
# 4 0.000000 0.000000 0.000000 -0.253425 0.000000 0.000000
# 5 0.000000 0.000000 0.000000 0.000000 -3.388195 0.000000
# 6 0.000000 0.000000 0.000000 0.000000 0.000000 0.083154
#
#
# Mechanical properties :
#
#
# Convention : Reuss Voigt Hill
#
# Bulk Modulus (GPa) = 31.34999 32.05482 31.70240
# Shear Modulus (GPa) = -1.43391 14.11520 6.34065
#
# Velocity S-wave (km/s) = -0.84481 2.65059 1.77651
# Velocity P-wave (km/s) = 3.82785 5.03214 4.47073
#
# Compressibility (1/GPa) = 0.03189794
#
# Stress axis : x y z
#
# Youngs Moduli (GPa) = 56.73146 83.01983 59.86656
#
# Poissons Ratio (x) = 0.32991 0.30148
# Poissons Ratio (y) = 0.22544 -0.10600
# Poissons Ratio (z) = 0.28569 -0.14700
#
# Static dielectric constant tensor:
#      x y z
#    x 1.715330 0.000000 0.000000 
#    y 0.000000 1.758830 0.000000 
#    z 0.000000 0.000000 1.709090 
# 
# From -- ./inp_files/61964.got.cif
#   From: 2010.05.17/outbox.cif.g08.bks.cpg/sg71_31_cif.got.tgz:61964.got - 2010.06.03 16:22:01.
