data_PCOD9521089
_publ_section_title
;
Structure prediction by ZEFSAII (Michael W. Deem and Ramdas Pophale) SiO2 
 PCOD9521089
Probable space group: I M M M
;
_chemical_formula_sum "Si O2"
_cell_formula_units_Z 120
_cell_length_a 19.529790
_cell_length_b 17.162309
_cell_length_c 19.784895
_cell_angle_alpha 90.000000
_cell_angle_beta 90.000000
_cell_angle_gamma 90.000000
_cell_volume 6631.427718
_symmetry_space_group_name_H-M "I M M M"
_symmetry_group_IT_number 71
_symmetry_cell_setting 'orthorhombic'
loop_
_space_group_symop_operation_xyz
x,y,z
-x,-y,z
x,-y,-z
-x,y,-z
-x,-y,-z
x,y,-z
-x,y,z
x,-y,z
1/2+x,1/2+y,1/2+z
1/2-x,1/2-y,1/2+z
1/2+x,1/2-y,1/2-z
1/2-x,1/2+y,1/2-z
1/2-x,1/2-y,1/2-z
1/2+x,1/2+y,1/2-z
1/2-x,1/2+y,1/2+z
1/2+x,1/2-y,1/2+z
loop_
_atom_site_type_symbol
_atom_site_label
_atom_site_fract_x
_atom_site_fract_y
_atom_site_fract_z
Si Si1 0.806856 0.413597 0.864300
Si Si2 0.582081 0.500000 0.921029
Si Si3 0.577948 0.088684 0.101838
Si Si4 0.079426 0.801809 0.793323
Si Si5 0.179639 0.725052 0.574653
Si Si6 0.164181 0.245207 0.077013
Si Si7 0.923948 0.379561 0.759803
Si Si8 0.153358 0.868444 0.332203
O O1 0.806554 0.500000 0.896409
O O2 0.824810 0.338322 0.910101
O O3 0.863936 0.411715 0.806072
O O4 0.731754 0.398015 0.832916
O O5 0.500000 0.500000 0.920203
O O6 0.610457 0.426127 0.879783
O O7 0.604445 0.500000 0.000000
O O8 0.500000 0.111278 0.083015
O O9 0.633656 0.148710 0.076032
O O10 0.581408 0.092409 0.183263
O O11 0.589425 0.000000 0.080297
O O12 0.114848 0.790456 0.866219
O O13 0.080738 0.714311 0.762298
O O14 0.120882 0.856809 0.741715
O O15 0.000000 0.825663 0.798604
O O16 0.174392 0.762305 0.500000
O O17 0.259926 0.709274 0.585815
O O18 0.154810 0.784911 0.630977
O O19 0.141091 0.233032 0.000000
O O20 0.000000 0.400622 0.785648
#
# Coordination Sequence:
#
# PCOD9521089 Si02
#       8
#    16   8  16  16  16  16  16  16
#     4  10  20  33  54  86 117 155 189 233 291 340
#     4  11  24  40  58  84 122 158 190 240 297 354
#     4  10  20  33  51  77 110 146 182 227 273 328
#     4  10  20  35  60  84 109 147 191 245 293 337
#     4  10  21  36  55  78 110 151 186 227 282 343
#     4   9  21  38  57  83 114 151 193 239 290 348
#     4   9  18  33  53  80 113 147 186 228 277 337
#     4  11  21  37  58  85 116 149 196 239 284 351
#
# _framework density 18.095649999999999
#
# number of rings (size 3 to 8) (size 9 to 14) (size 15 to 20)
#    0.000    2.067    2.000    1.200    1.867    4.533 
#    0.000    0.667    0.000    0.000    0.000    3.733 
#    0.000    1.600    0.000    0.000    0.000    0.000 
#
# Total GULP energy -334714.031461 kJ/mol
# GULP energy per Si atom -5578.567191 kJ/mol
# Density = 1.805446 g / cm^3
# Si number density = 18.095650 Si / 1000 Ang^3
#
#
#
# Elastic Constant Matrix: (Units=GPa)
#
#
# Indices 1 2 3 4 5 6 
#
# 1 104.1506 34.5413 62.7420 0.0000 0.0000 0.0000
# 2 34.5413 48.1982 26.9245 0.0000 0.0000 0.0000
# 3 62.7420 26.9245 125.4804 0.0000 0.0000 0.0000
# 4 0.0000 0.0000 0.0000 4.4081 0.0000 0.0000
# 5 0.0000 0.0000 0.0000 0.0000 17.3074 0.0000
# 6 0.0000 0.0000 0.0000 0.0000 0.0000 19.4382
#
#
#
# Elastic Compliance Matrix: (Units=1/GPa)
#
#
# Indices 1 2 3 4 5 6 
#
# 1 0.016050 -0.007975 -0.006314 0.000000 0.000000 0.000000
# 2 -0.007975 0.027536 -0.001921 0.000000 0.000000 0.000000
# 3 -0.006314 -0.001921 0.011539 0.000000 0.000000 0.000000
# 4 0.000000 0.000000 0.000000 0.226855 0.000000 0.000000
# 5 0.000000 0.000000 0.000000 0.000000 0.057779 0.000000
# 6 0.000000 0.000000 0.000000 0.000000 0.000000 0.051445
#
#
# Mechanical properties :
#
#
# Convention : Reuss Voigt Hill
#
# Bulk Modulus (GPa) = 44.04344 58.47165 51.25755
# Shear Modulus (GPa) = 11.59577 18.47218 15.03397
#
# Velocity S-wave (km/s) = 2.53416 3.19847 2.88550
# Velocity P-wave (km/s) = 5.74062 6.78403 6.28402
#
# Compressibility (1/GPa) = 0.02270486
#
# Stress axis : x y z
#
# Youngs Moduli (GPa) = 62.30484 36.31602 86.66543
#
# Poissons Ratio (x) = 0.28963 0.54721
# Poissons Ratio (y) = 0.49689 0.16646
# Poissons Ratio (z) = 0.39340 0.06975
#
# Static dielectric constant tensor:
#      x y z
#    x 1.610890 0.000000 0.000000 
#    y 0.000000 1.629600 0.000000 
#    z 0.000000 0.000000 1.610690 
# 
# From -- ./inp_files/54329.got.cif
#   From: 2010.05.17/outbox.cif.g08.bks.cpg/sg71_28_cif.got.tgz:54329.got - 2010.06.03 16:22:01.
