data_PCOD9521499
_publ_section_title
;
Structure prediction by ZEFSAII (Michael W. Deem and Ramdas Pophale) SiO2 
 PCOD9521499
Probable space group: I M M M
;
_chemical_formula_sum "Si O2"
_cell_formula_units_Z 104
_cell_length_a 7.370180
_cell_length_b 19.952631
_cell_length_c 30.764012
_cell_angle_alpha 90.000000
_cell_angle_beta 90.000000
_cell_angle_gamma 90.000000
_cell_volume 4523.985847
_symmetry_space_group_name_H-M "I M M M"
_symmetry_group_IT_number 71
_symmetry_cell_setting 'orthorhombic'
loop_
_space_group_symop_operation_xyz
x,y,z
-x,-y,z
x,-y,-z
-x,y,-z
-x,-y,-z
x,y,-z
-x,y,z
x,-y,z
1/2+x,1/2+y,1/2+z
1/2-x,1/2-y,1/2+z
1/2+x,1/2-y,1/2-z
1/2-x,1/2+y,1/2-z
1/2-x,1/2-y,1/2-z
1/2+x,1/2+y,1/2-z
1/2-x,1/2+y,1/2+z
1/2+x,1/2-y,1/2+z
loop_
_atom_site_type_symbol
_atom_site_label
_atom_site_fract_x
_atom_site_fract_y
_atom_site_fract_z
Si Si1 0.203208 0.581058 0.500000
Si Si2 0.221187 0.424143 0.406319
Si Si3 0.283700 0.689164 0.718629
Si Si4 0.294240 0.713794 0.627016
Si Si5 0.781263 0.077421 0.383747
Si Si6 0.212927 0.696178 0.950122
Si Si7 0.779298 0.078028 0.714643
O O1 0.186852 0.500000 0.500000
O O2 0.289056 0.596129 0.545635
O O3 0.000000 0.609782 0.500000
O O4 0.274803 0.500000 0.396228
O O5 0.294433 0.366455 0.376897
O O6 0.000000 0.423001 0.406960
O O7 0.500000 0.678833 0.711463
O O8 0.250000 0.750000 0.750000
O O9 0.203698 0.718044 0.673666
O O10 0.216451 0.623866 0.745133
O O11 0.500000 0.740325 0.629471
O O12 0.211593 0.748574 0.584203
O O13 0.728160 0.126823 0.422904
O O14 0.722400 0.098992 0.334707
O O15 0.000000 0.077475 0.383053
O O16 0.722968 0.000000 0.390283
O O17 0.000000 0.711292 0.954999
O O18 0.285809 0.694573 0.000000
O O19 0.000000 0.081053 0.714601
O O20 0.728548 0.000000 0.719947
#
# Coordination Sequence:
#
# PCOD9521499 Si02
#       7
#     8  16  16  16  16  16  16
#     4   7  12  26  47  69  93 123 162 207 250 293
#     4   9  18  33  53  76 102 134 174 219 264 309
#     4  10  20  34  54  78 103 134 173 214 256 308
#     4  10  22  36  51  76 107 140 179 221 262 308
#     4   9  18  34  57  83 106 128 163 213 263 313
#     4  10  22  38  52  70 104 146 180 212 256 311
#     4   8  15  30  53  79 105 133 164 202 254 312
#
# _framework density 22.988576999999999
#
# number of rings (size 3 to 8) (size 9 to 14) (size 15 to 20)
#    0.000    2.846    0.000    2.769    1.077    3.077 
#    0.000    3.077    0.000    2.769    0.000    0.000 
#    0.000    0.000    0.000    0.000    0.000    0.000 
#
# Total GULP energy -289758.488248 kJ/mol
# GULP energy per Si atom -5572.278620 kJ/mol
# Density = 2.293625 g / cm^3
# Si number density = 22.988577 Si / 1000 Ang^3
#
#
#
# Elastic Constant Matrix: (Units=GPa)
#
#
# Indices 1 2 3 4 5 6 
#
# 1 87.9085 -0.5138 19.5043 0.0000 0.0000 0.0000
# 2 -0.5138 101.6289 73.2767 0.0000 0.0000 0.0000
# 3 19.5043 73.2767 174.7041 0.0000 0.0000 0.0000
# 4 0.0000 0.0000 0.0000 41.5585 0.0000 0.0000
# 5 0.0000 0.0000 0.0000 0.0000 7.5407 0.0000
# 6 0.0000 0.0000 0.0000 0.0000 0.0000 15.4567
#
#
#
# Elastic Compliance Matrix: (Units=1/GPa)
#
#
# Indices 1 2 3 4 5 6 
#
# 1 0.011811 0.001449 -0.001926 0.000000 0.000000 0.000000
# 2 0.001449 0.014283 -0.006153 0.000000 0.000000 0.000000
# 3 -0.001926 -0.006153 0.008520 0.000000 0.000000 0.000000
# 4 0.000000 0.000000 0.000000 0.024062 0.000000 0.000000
# 5 0.000000 0.000000 0.000000 0.000000 0.132614 0.000000
# 6 0.000000 0.000000 0.000000 0.000000 0.000000 0.064697
#
#
# Mechanical properties :
#
#
# Convention : Reuss Voigt Hill
#
# Bulk Modulus (GPa) = 46.83042 60.97510 53.90276
# Shear Modulus (GPa) = 18.09199 31.04282 24.56741
#
# Velocity S-wave (km/s) = 2.80839 3.67871 3.27261
# Velocity P-wave (km/s) = 5.56161 6.68023 6.14642
#
# Compressibility (1/GPa) = 0.02135364
#
# Stress axis : x y z
#
# Youngs Moduli (GPa) = 84.66473 70.01248 117.37649
#
# Poissons Ratio (x) = -0.10142 0.22609
# Poissons Ratio (y) = -0.12264 0.72216
# Poissons Ratio (z) = 0.16308 0.43076
#
# Static dielectric constant tensor:
#      x y z
#    x 1.734000 0.000000 0.000000 
#    y 0.000000 1.801440 0.000000 
#    z 0.000000 0.000000 1.795680 
# 
# From -- ./inp_files/63330.got.cif
#   From: 2010.05.17/outbox.cif.g08.bks.cpg/sg71_32_cif.got.tgz:63330.got - 2010.06.03 16:22:01.
