data_PCOD9521282
_publ_section_title
;
Structure prediction by ZEFSAII (Michael W. Deem and Ramdas Pophale) SiO2 
 PCOD9521282
Probable space group: I M M M
;
_chemical_formula_sum "Si O2"
_cell_formula_units_Z 88
_cell_length_a 25.386509
_cell_length_b 8.396413
_cell_length_c 23.352890
_cell_angle_alpha 90.000000
_cell_angle_beta 90.000000
_cell_angle_gamma 90.000000
_cell_volume 4977.799611
_symmetry_space_group_name_H-M "I M M M"
_symmetry_group_IT_number 71
_symmetry_cell_setting 'orthorhombic'
loop_
_space_group_symop_operation_xyz
x,y,z
-x,-y,z
x,-y,-z
-x,y,-z
-x,-y,-z
x,y,-z
-x,y,z
x,-y,z
1/2+x,1/2+y,1/2+z
1/2-x,1/2-y,1/2+z
1/2+x,1/2-y,1/2-z
1/2-x,1/2+y,1/2-z
1/2-x,1/2-y,1/2-z
1/2+x,1/2+y,1/2-z
1/2-x,1/2+y,1/2+z
1/2+x,1/2-y,1/2+z
loop_
_atom_site_type_symbol
_atom_site_label
_atom_site_fract_x
_atom_site_fract_y
_atom_site_fract_z
Si Si1 0.940069 0.305634 0.846977
Si Si2 0.350633 0.807713 0.434206
Si Si3 0.060819 0.805532 0.500000
Si Si4 0.872618 0.190066 0.389317
Si Si5 0.060296 0.692192 0.715949
Si Si6 0.764307 0.690213 0.566011
O O1 0.939866 0.500000 0.847814
O O2 0.896536 0.250441 0.892028
O O3 0.928306 0.258188 0.781428
O O4 0.000000 0.256172 0.860879
O O5 0.358219 0.752993 0.500000
O O6 0.292499 0.754668 0.415296
O O7 0.351926 0.000000 0.434574
O O8 0.091982 0.752633 0.443258
O O9 0.000000 0.753342 0.500000
O O10 0.060561 0.000000 0.500000
O O11 0.899985 0.242302 0.330795
O O12 0.813678 0.253324 0.397273
O O13 0.871186 0.000000 0.391979
O O14 0.061844 0.500000 0.714431
O O15 0.000000 0.741320 0.702520
O O16 0.772601 0.746020 0.500000
O O17 0.762542 0.500000 0.565857
#
# Coordination Sequence:
#
# PCOD9521282 Si02
#       6
#    16  16   8  16  16  16
#     4   8  15  30  52  77 105 135 164 200 248 298
#     4   9  17  30  52  80 105 129 164 207 249 296
#     4   9  18  30  45  69  99 125 152 199 256 297
#     4  11  20  32  51  73  99 130 169 212 254 297
#     4   9  18  33  51  71 100 137 171 202 244 299
#     4  10  20  34  51  71 100 135 169 205 251 304
#
# _framework density 17.678493
#
# number of rings (size 3 to 8) (size 9 to 14) (size 15 to 20)
#    0.000    2.636    0.909    2.727    0.000    2.182 
#    0.000    3.636    0.000    3.818    0.000    2.545 
#    0.000    0.000    0.000    0.000    0.000    0.000 
#
# Total GULP energy -245401.969729 kJ/mol
# GULP energy per Si atom -5577.317494 kJ/mol
# Density = 1.763826 g / cm^3
# Si number density = 17.678493 Si / 1000 Ang^3
#
#
#
# Elastic Constant Matrix: (Units=GPa)
#
#
# Indices 1 2 3 4 5 6 
#
# 1 182.3503 20.9023 116.1732 0.0000 0.0000 0.0000
# 2 20.9023 12.0317 17.4931 0.0000 0.0000 0.0000
# 3 116.1732 17.4931 110.6026 0.0000 0.0000 0.0000
# 4 0.0000 0.0000 0.0000 15.4656 0.0000 0.0000
# 5 0.0000 0.0000 0.0000 0.0000 25.9129 0.0000
# 6 0.0000 0.0000 0.0000 0.0000 0.0000 17.1539
#
#
#
# Elastic Compliance Matrix: (Units=1/GPa)
#
#
# Indices 1 2 3 4 5 6 
#
# 1 0.016768 -0.004576 -0.016889 0.000000 0.000000 0.000000
# 2 -0.004576 0.109182 -0.012462 0.000000 0.000000 0.000000
# 3 -0.016889 -0.012462 0.028752 0.000000 0.000000 0.000000
# 4 0.000000 0.000000 0.000000 0.064660 0.000000 0.000000
# 5 0.000000 0.000000 0.000000 0.000000 0.038591 0.000000
# 6 0.000000 0.000000 0.000000 0.000000 0.000000 0.058296
#
#
# Mechanical properties :
#
#
# Convention : Reuss Voigt Hill
#
# Bulk Modulus (GPa) = 11.51431 68.23576 39.87504
# Shear Modulus (GPa) = 12.10497 21.73420 16.91959
#
# Velocity S-wave (km/s) = 2.61957 3.51011 3.09701
# Velocity P-wave (km/s) = 3.95940 7.42359 5.94923
#
# Compressibility (1/GPa) = 0.08684843
#
# Stress axis : x y z
#
# Youngs Moduli (GPa) = 59.63602 9.15900 34.77973
#
# Poissons Ratio (x) = 0.04191 0.58740
# Poissons Ratio (y) = 0.27287 0.43344
# Poissons Ratio (z) = 1.00721 0.11414
#
# Static dielectric constant tensor:
#      x y z
#    x 1.584080 0.000000 0.000000 
#    y 0.000000 1.606950 0.000000 
#    z 0.000000 0.000000 1.594930 
# 
# From -- ./inp_files/10468.got.cif
#   From: 2010.05.17/outbox.cif.g08.bks.cpg/sg71_6_cif.got.tgz:10468.got - 2010.06.03 16:22:01.
