data_PCOD9521616
_publ_section_title
;
Structure prediction by ZEFSAII (Michael W. Deem and Ramdas Pophale) SiO2 
 PCOD9521616
Probable space group: I M M M
;
_chemical_formula_sum "Si O2"
_cell_formula_units_Z 96
_cell_length_a 8.657969
_cell_length_b 20.433598
_cell_length_c 30.491586
_cell_angle_alpha 90.000000
_cell_angle_beta 90.000000
_cell_angle_gamma 90.000000
_cell_volume 5394.371920
_symmetry_space_group_name_H-M "I M M M"
_symmetry_group_IT_number 71
_symmetry_cell_setting 'orthorhombic'
loop_
_space_group_symop_operation_xyz
x,y,z
-x,-y,z
x,-y,-z
-x,y,-z
-x,-y,-z
x,y,-z
-x,y,z
x,-y,z
1/2+x,1/2+y,1/2+z
1/2-x,1/2-y,1/2+z
1/2+x,1/2-y,1/2-z
1/2-x,1/2+y,1/2-z
1/2-x,1/2-y,1/2-z
1/2+x,1/2+y,1/2-z
1/2-x,1/2+y,1/2+z
1/2+x,1/2-y,1/2+z
loop_
_atom_site_type_symbol
_atom_site_label
_atom_site_fract_x
_atom_site_fract_y
_atom_site_fract_z
Si Si1 0.316699 0.298319 0.126595
Si Si2 0.185999 0.214099 0.793382
Si Si3 0.183348 0.929853 0.946816
Si Si4 0.686797 0.286685 0.551538
Si Si5 0.684260 0.925715 0.332767
Si Si6 0.686412 0.427214 0.734330
O O1 0.500000 0.297992 0.129283
O O2 0.248486 0.251725 0.164537
O O3 0.259485 0.269277 0.080788
O O4 0.254676 0.370668 0.136448
O O5 0.250000 0.250000 0.750000
O O6 0.232900 0.137455 0.792283
O O7 0.000000 0.217586 0.792842
O O8 0.242698 0.858945 0.932517
O O9 0.000000 0.930554 0.936608
O O10 0.248781 0.000000 0.931455
O O11 0.194242 0.929385 0.000000
O O12 0.722701 0.280209 0.500000
O O13 0.500000 0.285547 0.555675
O O14 0.500000 0.917618 0.330309
O O15 0.752437 0.918211 0.283807
O O16 0.718522 0.000000 0.347052
O O17 0.500000 0.427443 0.735607
O O18 0.736450 0.500000 0.719013
#
# Coordination Sequence:
#
# PCOD9521616 Si02
#       6
#    16  16  16  16  16  16
#     4  12  24  36  53  78 110 148 183 219 264 320
#     4  11  21  34  54  79 109 142 178 222 268 319
#     4   7  10  20  43  74 101 125 161 211 263 312
#     4   9  18  34  56  80 106 138 179 229 279 324
#     4  10  20  34  55  81 106 134 173 222 270 319
#     4   9  18  33  53  77 106 141 179 220 269 321
#
# _framework density 17.796325
#
# number of rings (size 3 to 8) (size 9 to 14) (size 15 to 20)
#    0.000    2.333    1.667    4.000    0.000    2.000 
#    0.000    0.833    0.000    6.000    0.000    5.833 
#    0.000    0.000    0.000    0.000    0.000    0.000 
#
# Total GULP energy -267628.870916 kJ/mol
# GULP energy per Si atom -5575.601477 kJ/mol
# Density = 1.775582 g / cm^3
# Si number density = 17.796325 Si / 1000 Ang^3
#
#
#
# Elastic Constant Matrix: (Units=GPa)
#
#
# Indices 1 2 3 4 5 6 
#
# 1 24.3881 40.8756 17.1234 0.0000 0.0000 0.0000
# 2 40.8756 158.2526 45.4039 0.0000 0.0000 0.0000
# 3 17.1234 45.4039 36.8256 0.0000 0.0000 0.0000
# 4 0.0000 0.0000 0.0000 26.1428 0.0000 0.0000
# 5 0.0000 0.0000 0.0000 0.0000 19.6806 0.0000
# 6 0.0000 0.0000 0.0000 0.0000 0.0000 17.3016
#
#
#
# Elastic Compliance Matrix: (Units=1/GPa)
#
#
# Indices 1 2 3 4 5 6 
#
# 1 0.079322 -0.015328 -0.017985 0.000000 0.000000 0.000000
# 2 -0.015328 0.012740 -0.008580 0.000000 0.000000 0.000000
# 3 -0.017985 -0.008580 0.046096 0.000000 0.000000 0.000000
# 4 0.000000 0.000000 0.000000 0.038251 0.000000 0.000000
# 5 0.000000 0.000000 0.000000 0.000000 0.050812 0.000000
# 6 0.000000 0.000000 0.000000 0.000000 0.000000 0.057798
#
#
# Mechanical properties :
#
#
# Convention : Reuss Voigt Hill
#
# Bulk Modulus (GPa) = 18.39175 47.36358 32.87767
# Shear Modulus (GPa) = 12.92222 20.36253 16.64238
#
# Velocity S-wave (km/s) = 2.69758 3.38627 3.06135
# Velocity P-wave (km/s) = 4.47879 6.47774 5.56870
#
# Compressibility (1/GPa) = 0.05437221
#
# Stress axis : x y z
#
# Youngs Moduli (GPa) = 12.60683 78.49308 21.69364
#
# Poissons Ratio (x) = 1.20318 0.39015
# Poissons Ratio (y) = 0.19324 0.18613
# Poissons Ratio (z) = 0.22673 0.67348
#
# Static dielectric constant tensor:
#      x y z
#    x 1.599890 0.000000 0.000000 
#    y 0.000000 1.656540 0.000000 
#    z 0.000000 0.000000 1.583500 
# 
# From -- ./inp_files/14835.got.cif
#   From: 2010.05.17/outbox.cif.g08.bks.cpg/sg71_8_cif.got.tgz:14835.got - 2010.06.03 16:22:01.
