data_PCOD9521873
_publ_section_title
;
Structure prediction by ZEFSAII (Michael W. Deem and Ramdas Pophale) SiO2 
 PCOD9521873
Probable space group: I M M M
;
_chemical_formula_sum "Si O2"
_cell_formula_units_Z 90
_cell_length_a 7.996755
_cell_length_b 22.953279
_cell_length_c 26.013820
_cell_angle_alpha 90.000000
_cell_angle_beta 90.000000
_cell_angle_gamma 90.000000
_cell_volume 4774.882149
_symmetry_space_group_name_H-M "I M M M"
_symmetry_group_IT_number 71
_symmetry_cell_setting 'orthorhombic'
loop_
_space_group_symop_operation_xyz
x,y,z
-x,-y,z
x,-y,-z
-x,y,-z
-x,-y,-z
x,y,-z
-x,y,z
x,-y,z
1/2+x,1/2+y,1/2+z
1/2-x,1/2-y,1/2+z
1/2+x,1/2-y,1/2-z
1/2-x,1/2+y,1/2-z
1/2-x,1/2-y,1/2-z
1/2+x,1/2+y,1/2-z
1/2-x,1/2+y,1/2+z
1/2+x,1/2-y,1/2+z
loop_
_atom_site_type_symbol
_atom_site_label
_atom_site_fract_x
_atom_site_fract_y
_atom_site_fract_z
Si Si1 0.703682 0.287021 0.558154
Si Si2 0.812891 0.500000 0.420091
Si Si3 0.500000 0.500000 0.500000
Si Si4 0.302386 0.386826 0.635756
Si Si5 0.298202 0.153492 0.442368
Si Si6 0.800917 0.933933 0.647153
Si Si7 0.197719 0.432932 0.261702
O O1 0.754407 0.305666 0.500000
O O2 0.500000 0.286832 0.557925
O O3 0.755850 0.330810 0.603137
O O4 0.758116 0.220338 0.566309
O O5 0.650813 0.500000 0.456513
O O6 0.793893 0.442627 0.385697
O O7 0.000000 0.500000 0.442926
O O8 0.500000 0.393632 0.625314
O O9 0.276485 0.389485 0.696832
O O10 0.242759 0.136165 0.500000
O O11 0.500000 0.154396 0.442602
O O12 0.243112 0.109833 0.398304
O O13 0.730021 0.916291 0.702681
O O14 0.000000 0.935817 0.652152
O O15 0.740058 0.000000 0.636179
O O16 0.262372 0.500000 0.268177
O O17 0.000000 0.434053 0.270493
#
# Coordination Sequence:
#
# PCOD9521873 Si02
#       7
#    16   8   2  16  16  16  16
#     4   8  17  33  56  80 109 150 193 230 276 342
#     4  12  25  39  57  84 117 155 203 252 304 362
#     4  12  26  44  52  82 116 164 194 256 324 338
#     4  11  20  34  58  83 114 153 193 236 296 350
#     4   9  18  36  59  84 112 146 185 227 276 338
#     4  10  21  36  56  83 112 144 181 228 287 349
#     4  10  20  35  55  79 110 146 188 239 287 339
#
# _framework density 18.848633
#
# number of rings (size 3 to 8) (size 9 to 14) (size 15 to 20)
#    0.000    2.133    1.778    2.800    1.244    2.489 
#    0.000    4.444    0.000    2.133    0.000    0.000 
#    0.000    0.000    0.000    0.000    0.000    0.000 
#
# Total GULP energy -250746.269975 kJ/mol
# GULP energy per Si atom -5572.139333 kJ/mol
# Density = 1.880573 g / cm^3
# Si number density = 18.848633 Si / 1000 Ang^3
#
#
#
# Elastic Constant Matrix: (Units=GPa)
#
#
# Indices 1 2 3 4 5 6 
#
# 1 62.5597 13.8596 20.1007 0.0000 0.0000 0.0000
# 2 13.8596 92.8296 92.4937 0.0000 0.0000 0.0000
# 3 20.1007 92.4937 162.5430 0.0000 0.0000 0.0000
# 4 0.0000 0.0000 0.0000 24.4585 0.0000 0.0000
# 5 0.0000 0.0000 0.0000 0.0000 11.7646 0.0000
# 6 0.0000 0.0000 0.0000 0.0000 0.0000 4.8097
#
#
#
# Elastic Compliance Matrix: (Units=1/GPa)
#
#
# Indices 1 2 3 4 5 6 
#
# 1 0.016687 -0.001005 -0.001492 0.000000 0.000000 0.000000
# 2 -0.001005 0.024938 -0.014067 0.000000 0.000000 0.000000
# 3 -0.001492 -0.014067 0.014341 0.000000 0.000000 0.000000
# 4 0.000000 0.000000 0.000000 0.040886 0.000000 0.000000
# 5 0.000000 0.000000 0.000000 0.000000 0.085001 0.000000
# 6 0.000000 0.000000 0.000000 0.000000 0.000000 0.207914
#
#
# Mechanical properties :
#
#
# Convention : Reuss Voigt Hill
#
# Bulk Modulus (GPa) = 43.78404 63.42669 53.60536
# Shear Modulus (GPa) = 11.61423 20.97178 16.29300
#
# Velocity S-wave (km/s) = 2.48500 3.33925 2.94328
# Velocity P-wave (km/s) = 5.61367 6.97073 6.32868
#
# Compressibility (1/GPa) = 0.02283937
#
# Stress axis : x y z
#
# Youngs Moduli (GPa) = 59.92809 40.09920 69.72963
#
# Poissons Ratio (x) = 0.04031 0.10400
# Poissons Ratio (y) = 0.06024 0.98085
# Poissons Ratio (z) = 0.08938 0.56406
#
# Static dielectric constant tensor:
#      x y z
#    x 1.677760 0.000000 0.000000 
#    y 0.000000 1.643690 0.000000 
#    z 0.000000 0.000000 1.663680 
# 
# From -- ./inp_files/57621.got.cif
#   From: 2010.05.17/outbox.cif.g08.bks.cpg/sg71_29_cif.got.tgz:57621.got - 2010.06.03 16:22:01.
