data_PCOD9521804
_publ_section_title
;
Structure prediction by ZEFSAII (Michael W. Deem and Ramdas Pophale) SiO2 
 PCOD9521804
Probable space group: I M M M
;
_chemical_formula_sum "Si O2"
_cell_formula_units_Z 112
_cell_length_a 16.515200
_cell_length_b 14.805708
_cell_length_c 27.067177
_cell_angle_alpha 90.000000
_cell_angle_beta 90.000000
_cell_angle_gamma 90.000000
_cell_volume 6618.445245
_symmetry_space_group_name_H-M "I M M M"
_symmetry_group_IT_number 71
_symmetry_cell_setting 'orthorhombic'
loop_
_space_group_symop_operation_xyz
x,y,z
-x,-y,z
x,-y,-z
-x,y,-z
-x,-y,-z
x,y,-z
-x,y,z
x,-y,z
1/2+x,1/2+y,1/2+z
1/2-x,1/2-y,1/2+z
1/2+x,1/2-y,1/2-z
1/2-x,1/2+y,1/2-z
1/2-x,1/2-y,1/2-z
1/2+x,1/2+y,1/2-z
1/2-x,1/2+y,1/2+z
1/2+x,1/2-y,1/2+z
loop_
_atom_site_type_symbol
_atom_site_label
_atom_site_fract_x
_atom_site_fract_y
_atom_site_fract_z
Si Si1 0.598371 0.894257 0.161026
Si Si2 0.342306 0.221335 0.253076
Si Si3 0.402357 0.893364 0.345736
Si Si4 0.098656 0.292451 0.054192
Si Si5 0.401193 0.600262 0.592259
Si Si6 0.903564 0.609175 0.447027
Si Si7 0.596327 0.598052 0.706115
O O1 0.500000 0.891111 0.161416
O O2 0.631206 0.833742 0.205000
O O3 0.627749 0.861956 0.106685
O O4 0.620730 0.000000 0.167716
O O5 0.250000 0.250000 0.250000
O O6 0.362127 0.160439 0.300872
O O7 0.386464 0.316820 0.260329
O O8 0.500000 0.881100 0.341111
O O9 0.377144 0.851584 0.398551
O O10 0.385713 0.000000 0.343415
O O11 0.124431 0.188340 0.062395
O O12 0.000000 0.293201 0.054328
O O13 0.124961 0.324668 0.000000
O O14 0.500000 0.599717 0.591161
O O15 0.374887 0.500000 0.575504
O O16 0.375210 0.612311 0.649470
O O17 0.869675 0.641403 0.500000
O O18 0.897140 0.500000 0.446612
O O19 0.000000 0.629046 0.447406
O O20 0.500000 0.591722 0.702192
O O21 0.627898 0.500000 0.723190
#
# Coordination Sequence:
#
# PCOD9521804 Si02
#       7
#    16  16  16  16  16  16  16
#     4   9  17  30  50  75 100 127 159 193 231 284
#     4  12  23  32  46  68  98 126 160 199 246 287
#     4  10  20  35  54  72  95 129 164 200 246 297
#     4   9  16  26  44  72 100 122 155 206 251 286
#     4   8  13  23  41  64  89 118 153 192 235 281
#     4   7  10  19  39  69 100 122 141 173 221 275
#     4   9  17  31  50  66  84 119 163 200 237 282
#
# _framework density 16.922402999999999
#
# number of rings (size 3 to 8) (size 9 to 14) (size 15 to 20)
#    0.000    2.857    1.429    3.857    0.000    2.857 
#    0.000    2.857    0.000    0.857    0.000    0.000 
#    0.000    0.571    0.000    5.286    0.000    0.286 
#
# Total GULP energy -311761.993282 kJ/mol
# GULP energy per Si atom -5567.178451 kJ/mol
# Density = 1.688389 g / cm^3
# Si number density = 16.922403 Si / 1000 Ang^3
#
#
#
# Elastic Constant Matrix: (Units=GPa)
#
#
# Indices 1 2 3 4 5 6 
#
# 1 12.8255 21.4432 22.8017 0.0000 0.0000 0.0000
# 2 21.4432 99.9375 78.9707 0.0000 0.0000 0.0000
# 3 22.8017 78.9707 170.9450 0.0000 0.0000 0.0000
# 4 0.0000 0.0000 0.0000 15.8970 0.0000 0.0000
# 5 0.0000 0.0000 0.0000 0.0000 -6.5526 0.0000
# 6 0.0000 0.0000 0.0000 0.0000 0.0000 -3.3819
#
#
#
# Elastic Compliance Matrix: (Units=1/GPa)
#
#
# Indices 1 2 3 4 5 6 
#
# 1 0.126448 -0.021739 -0.006823 0.000000 0.000000 0.000000
# 2 -0.021739 0.019497 -0.006107 0.000000 0.000000 0.000000
# 3 -0.006823 -0.006107 0.009581 0.000000 0.000000 0.000000
# 4 0.000000 0.000000 0.000000 0.062905 0.000000 0.000000
# 5 0.000000 0.000000 0.000000 0.000000 -0.152611 0.000000
# 6 0.000000 0.000000 0.000000 0.000000 0.000000 -0.295691
#
#
# Mechanical properties :
#
#
# Convention : Reuss Voigt Hill
#
# Bulk Modulus (GPa) = 11.60287 58.90434 35.25361
# Shear Modulus (GPa) = -37.93535 11.89199 -13.02168
#
# Velocity S-wave (km/s) = -4.73982 2.65379 -2.77698
# Velocity P-wave (km/s) = 4.80449 6.65389 3.25508
#
# Compressibility (1/GPa) = 0.08618555
#
# Stress axis : x y z
#
# Youngs Moduli (GPa) = 7.90842 51.29120 104.37097
#
# Poissons Ratio (x) = 1.11504 0.71217
# Poissons Ratio (y) = 0.17192 0.63739
# Poissons Ratio (z) = 0.05396 0.31323
#
# Static dielectric constant tensor:
#      x y z
#    x 1.558450 0.000000 0.000000 
#    y 0.000000 1.535590 0.000000 
#    z 0.000000 0.000000 1.614750 
# 
# From -- ./inp_files/40356.got.cif
#   From: 2010.05.17/outbox.cif.g08.bks.cpg/sg71_21_cif.got.tgz:40356.got - 2010.06.03 16:22:01.
