data_PCOD9521654
_publ_section_title
;
Structure prediction by ZEFSAII (Michael W. Deem and Ramdas Pophale) SiO2 
 PCOD9521654
Probable space group: I M M M
;
_chemical_formula_sum "Si O2"
_cell_formula_units_Z 100
_cell_length_a 14.305223
_cell_length_b 19.283928
_cell_length_c 19.700079
_cell_angle_alpha 90.000000
_cell_angle_beta 90.000000
_cell_angle_gamma 90.000000
_cell_volume 5434.481333
_symmetry_space_group_name_H-M "I M M M"
_symmetry_group_IT_number 71
_symmetry_cell_setting 'orthorhombic'
loop_
_space_group_symop_operation_xyz
x,y,z
-x,-y,z
x,-y,-z
-x,y,-z
-x,-y,-z
x,y,-z
-x,y,z
x,-y,z
1/2+x,1/2+y,1/2+z
1/2-x,1/2-y,1/2+z
1/2+x,1/2-y,1/2-z
1/2-x,1/2+y,1/2-z
1/2-x,1/2-y,1/2-z
1/2+x,1/2+y,1/2-z
1/2-x,1/2+y,1/2+z
1/2+x,1/2-y,1/2+z
loop_
_atom_site_type_symbol
_atom_site_label
_atom_site_fract_x
_atom_site_fract_y
_atom_site_fract_z
Si Si1 0.388244 0.849437 0.214027
Si Si2 0.229244 0.922347 0.289808
Si Si3 0.886585 0.420240 0.423515
Si Si4 0.613084 0.738715 0.575078
Si Si5 0.324713 0.897856 0.577348
Si Si6 0.387926 0.698822 0.723701
Si Si7 0.000000 0.500000 0.899787
O O1 0.500000 0.858602 0.221939
O O2 0.331105 0.903841 0.258938
O O3 0.362051 0.867207 0.136277
O O4 0.364263 0.772457 0.240459
O O5 0.243939 0.915944 0.370035
O O6 0.160987 0.864322 0.261117
O O7 0.201746 0.000000 0.270876
O O8 0.854778 0.402805 0.500000
O O9 0.857342 0.500000 0.407937
O O10 0.000000 0.421287 0.425163
O O11 0.640047 0.711141 0.500000
O O12 0.500000 0.742737 0.576020
O O13 0.651988 0.816427 0.581452
O O14 0.640662 0.700201 0.644289
O O15 0.300364 0.914369 0.500000
O O16 0.417799 0.940297 0.595551
O O17 0.500000 0.692441 0.726990
#
# Coordination Sequence:
#
# PCOD9521654 Si02
#       7
#    16  16  16  16  16  16   4
#     4  10  20  34  55  83 112 142 179 229 291 352
#     4  12  25  36  56  83 115 153 191 233 288 350
#     4   8  14  27  47  72 107 148 182 215 262 326
#     4   9  17  32  57  85 111 146 189 228 283 349
#     4  11  21  32  52  85 124 158 185 222 280 357
#     4  10  22  41  60  78 111 152 195 247 288 330
#     4  12  21  32  52  88 138 166 179 218 293 380
#
# _framework density 18.401019999999999
#
# number of rings (size 3 to 8) (size 9 to 14) (size 15 to 20)
#    0.000    1.920    3.200    2.160    1.120    1.280 
#    0.000    1.600    0.000    2.880    0.000    3.360 
#    0.000    0.000    0.000    0.000    0.000    0.000 
#
# Total GULP energy -278440.036633 kJ/mol
# GULP energy per Si atom -5568.800733 kJ/mol
# Density = 1.835914 g / cm^3
# Si number density = 18.401020 Si / 1000 Ang^3
#
#
#
# Elastic Constant Matrix: (Units=GPa)
#
#
# Indices 1 2 3 4 5 6 
#
# 1 31.2575 25.6825 34.3271 0.0000 0.0000 0.0000
# 2 25.6825 76.5423 63.9399 0.0000 0.0000 0.0000
# 3 34.3271 63.9399 148.9528 0.0000 0.0000 0.0000
# 4 0.0000 0.0000 0.0000 -11.3616 0.0000 0.0000
# 5 0.0000 0.0000 0.0000 0.0000 5.2923 0.0000
# 6 0.0000 0.0000 0.0000 0.0000 0.0000 49.3400
#
#
#
# Elastic Compliance Matrix: (Units=1/GPa)
#
#
# Indices 1 2 3 4 5 6 
#
# 1 0.047834 -0.010666 -0.006445 0.000000 0.000000 0.000000
# 2 -0.010666 0.022747 -0.007306 0.000000 0.000000 0.000000
# 3 -0.006445 -0.007306 0.011335 0.000000 0.000000 0.000000
# 4 0.000000 0.000000 0.000000 -0.088016 0.000000 0.000000
# 5 0.000000 0.000000 0.000000 0.000000 0.188954 0.000000
# 6 0.000000 0.000000 0.000000 0.000000 0.000000 0.020268
#
#
# Mechanical properties :
#
#
# Convention : Reuss Voigt Hill
#
# Bulk Modulus (GPa) = 30.22862 56.07240 43.15051
# Shear Modulus (GPa) = 19.01257 17.50766 18.26012
#
# Velocity S-wave (km/s) = 3.21788 3.08791 3.15356
# Velocity P-wave (km/s) = 5.50179 6.57664 6.06308
#
# Compressibility (1/GPa) = 0.03308124
#
# Stress axis : x y z
#
# Youngs Moduli (GPa) = 20.90561 43.96221 88.22067
#
# Poissons Ratio (x) = 0.46890 0.56860
# Poissons Ratio (y) = 0.22298 0.64457
# Poissons Ratio (z) = 0.13474 0.32120
#
# Static dielectric constant tensor:
#      x y z
#    x 1.619730 0.000000 0.000000 
#    y 0.000000 1.618240 0.000000 
#    z 0.000000 0.000000 1.699130 
# 
# From -- ./inp_files/53208.got.cif
#   From: 2010.05.17/outbox.cif.g08.bks.cpg/sg71_27_cif.got.tgz:53208.got - 2010.06.03 16:22:01.
