data_PCOD9521310
_publ_section_title
;
Structure prediction by ZEFSAII (Michael W. Deem and Ramdas Pophale) SiO2 
 PCOD9521310
Probable space group: I M M M
;
_chemical_formula_sum "Si O2"
_cell_formula_units_Z 80
_cell_length_a 18.962808
_cell_length_b 26.556734
_cell_length_c 7.499511
_cell_angle_alpha 90.000000
_cell_angle_beta 90.000000
_cell_angle_gamma 90.000000
_cell_volume 3776.680604
_symmetry_space_group_name_H-M "I M M M"
_symmetry_group_IT_number 71
_symmetry_cell_setting 'orthorhombic'
loop_
_space_group_symop_operation_xyz
x,y,z
-x,-y,z
x,-y,-z
-x,y,-z
-x,-y,-z
x,y,-z
-x,y,z
x,-y,z
1/2+x,1/2+y,1/2+z
1/2-x,1/2-y,1/2+z
1/2+x,1/2-y,1/2-z
1/2-x,1/2+y,1/2-z
1/2-x,1/2-y,1/2-z
1/2+x,1/2+y,1/2-z
1/2-x,1/2+y,1/2+z
1/2+x,1/2-y,1/2+z
loop_
_atom_site_type_symbol
_atom_site_label
_atom_site_fract_x
_atom_site_fract_y
_atom_site_fract_z
Si Si1 0.920507 0.845811 0.288104
Si Si2 0.830479 0.443109 0.717460
Si Si3 0.081184 0.652849 0.718215
Si Si4 0.830904 0.943681 0.214531
Si Si5 0.832916 0.249403 0.713748
O O1 0.925775 0.837708 0.500000
O O2 0.883586 0.899533 0.264148
O O3 0.871215 0.800924 0.216951
O O4 0.000000 0.844600 0.215379
O O5 0.830880 0.442875 0.500000
O O6 0.849432 0.500000 0.772732
O O7 0.882310 0.399086 0.776409
O O8 0.749567 0.433085 0.773484
O O9 0.081616 0.652801 0.500000
O O10 0.127201 0.700553 0.778256
O O11 0.000000 0.656852 0.773789
O O12 0.850522 0.000000 0.276728
O O13 0.829089 0.945177 0.000000
O O14 0.840124 0.249607 0.500000
O O15 0.750000 0.250000 0.750000
#
# Coordination Sequence:
#
# PCOD9521310 Si02
#       5
#    16  16  16  16  16
#     4  10  21  35  50  71 100 130 161 202 250 297
#     4   8  14  25  42  66  95 124 155 193 235 279
#     4   9  16  26  43  67  94 124 156 191 234 283
#     4   9  18  33  52  73  98 129 165 203 242 288
#     4  10  20  34  52  72  95 126 164 202 241 288
#
# _framework density 21.182621999999999
#
# number of rings (size 3 to 8) (size 9 to 14) (size 15 to 20)
#    0.000    2.800    0.000    3.000    0.000    6.400 
#    0.000    4.000    0.000    1.800    0.000    0.000 
#    0.000    0.000    0.000   17.200    0.000   14.000 
#
# Total GULP energy -223353.016048 kJ/mol
# GULP energy per Si atom -5583.825401 kJ/mol
# Density = 2.113441 g / cm^3
# Si number density = 21.182622 Si / 1000 Ang^3
#
#
#
# Elastic Constant Matrix: (Units=GPa)
#
#
# Indices 1 2 3 4 5 6 
#
# 1 214.0896 159.6190 4.1287 0.0000 0.0000 0.0000
# 2 159.6190 206.4379 3.9263 0.0000 0.0000 0.0000
# 3 4.1287 3.9263 55.8780 0.0000 0.0000 0.0000
# 4 0.0000 0.0000 0.0000 5.0087 0.0000 0.0000
# 5 0.0000 0.0000 0.0000 0.0000 15.6179 0.0000
# 6 0.0000 0.0000 0.0000 0.0000 0.0000 -11.8941
#
#
#
# Elastic Compliance Matrix: (Units=1/GPa)
#
#
# Indices 1 2 3 4 5 6 
#
# 1 0.011031 -0.008525 -0.000216 0.000000 0.000000 0.000000
# 2 -0.008525 0.011439 -0.000174 0.000000 0.000000 0.000000
# 3 -0.000216 -0.000174 0.017924 0.000000 0.000000 0.000000
# 4 0.000000 0.000000 0.000000 0.199652 0.000000 0.000000
# 5 0.000000 0.000000 0.000000 0.000000 0.064029 0.000000
# 6 0.000000 0.000000 0.000000 0.000000 0.000000 -0.084075
#
#
# Mechanical properties :
#
#
# Convention : Reuss Voigt Hill
#
# Bulk Modulus (GPa) = 44.31774 90.19484 67.25629
# Shear Modulus (GPa) = 20.37877 22.32859 21.35368
#
# Velocity S-wave (km/s) = 3.10506 3.25021 3.17847
# Velocity P-wave (km/s) = 5.81570 7.53374 6.72977
#
# Compressibility (1/GPa) = 0.02256433
#
# Stress axis : x y z
#
# Youngs Moduli (GPa) = 90.64994 87.41780 55.79016
#
# Poissons Ratio (x) = 0.74528 0.01205
# Poissons Ratio (y) = 0.77283 0.00970
# Poissons Ratio (z) = 0.01959 0.01520
#
# Static dielectric constant tensor:
#      x y z
#    x 1.718900 0.000000 0.000000 
#    y 0.000000 1.742310 0.000000 
#    z 0.000000 0.000000 1.822750 
# 
# From -- ./inp_files/8279.got.cif
#   From: 2010.05.17/outbox.cif.g08.bks.cpg/sg71_5_cif.got.tgz:8279.got - 2010.06.03 16:22:01.
