data_PCOD9521514
_publ_section_title
;
Structure prediction by ZEFSAII (Michael W. Deem and Ramdas Pophale) SiO2 
 PCOD9521514
Probable space group: I M M M
;
_chemical_formula_sum "Si O2"
_cell_formula_units_Z 112
_cell_length_a 13.414019
_cell_length_b 13.216924
_cell_length_c 30.852939
_cell_angle_alpha 90.000000
_cell_angle_beta 90.000000
_cell_angle_gamma 90.000000
_cell_volume 5469.981410
_symmetry_space_group_name_H-M "I M M M"
_symmetry_group_IT_number 71
_symmetry_cell_setting 'orthorhombic'
loop_
_space_group_symop_operation_xyz
x,y,z
-x,-y,z
x,-y,-z
-x,y,-z
-x,-y,-z
x,y,-z
-x,y,z
x,-y,z
1/2+x,1/2+y,1/2+z
1/2-x,1/2-y,1/2+z
1/2+x,1/2-y,1/2-z
1/2-x,1/2+y,1/2-z
1/2-x,1/2-y,1/2-z
1/2+x,1/2+y,1/2-z
1/2-x,1/2+y,1/2+z
1/2+x,1/2-y,1/2+z
loop_
_atom_site_type_symbol
_atom_site_label
_atom_site_fract_x
_atom_site_fract_y
_atom_site_fract_z
Si Si1 0.881975 0.109091 0.201833
Si Si2 0.380419 0.108325 0.817434
Si Si3 0.189469 0.612395 0.872694
Si Si4 0.384842 0.277207 0.883947
Si Si5 0.690112 0.114789 0.948516
Si Si6 0.886181 0.170725 0.898037
Si Si7 0.879066 0.669212 0.220961
O O1 0.870778 0.124490 0.150104
O O2 0.848272 0.212842 0.223525
O O3 0.000000 0.106106 0.210101
O O4 0.841676 0.000000 0.215576
O O5 0.500000 0.108735 0.821913
O O6 0.347986 0.205167 0.844400
O O7 0.359284 0.118350 0.766812
O O8 0.344412 0.000000 0.834524
O O9 0.158533 0.500000 0.886544
O O10 0.304792 0.633495 0.884915
O O11 0.130368 0.708139 0.892618
O O12 0.172106 0.621366 0.820944
O O13 0.500000 0.306877 0.878196
O O14 0.373385 0.201376 0.924629
O O15 0.801939 0.128589 0.929733
O O16 0.655343 0.000000 0.939014
O O17 0.689168 0.128282 0.000000
O O18 0.000000 0.149569 0.911006
O O19 0.000000 0.665031 0.213657
#
# Coordination Sequence:
#
# PCOD9521514 Si02
#       7
#    16  16  16  16  16  16  16
#     4   8  13  23  41  66 102 147 182 203 231 281
#     4   9  17  31  52  75 102 139 179 219 266 321
#     4  10  20  34  54  79 107 141 183 229 272 314
#     4  10  22  39  56  75 102 138 183 233 282 329
#     4  10  21  36  57  87 116 140 171 213 264 322
#     4   9  18  32  52  81 117 152 180 206 246 312
#     4   9  17  29  48  78 111 141 178 220 260 312
#
# _framework density 20.475389
#
# number of rings (size 3 to 8) (size 9 to 14) (size 15 to 20)
#    0.000    2.714    0.000    2.571    0.000    4.857 
#    0.000    2.857    0.000    9.429    0.000    8.000 
#    0.000    0.000    0.000    0.000    0.000    0.000 
#
# Total GULP energy -312676.054840 kJ/mol
# GULP energy per Si atom -5583.500979 kJ/mol
# Density = 2.042879 g / cm^3
# Si number density = 20.475389 Si / 1000 Ang^3
#
#
#
# Elastic Constant Matrix: (Units=GPa)
#
#
# Indices 1 2 3 4 5 6 
#
# 1 76.6292 -7.5250 -11.0985 0.0000 0.0000 0.0000
# 2 -7.5250 108.3416 9.0997 0.0000 0.0000 0.0000
# 3 -11.0985 9.0997 63.5018 0.0000 0.0000 0.0000
# 4 0.0000 0.0000 0.0000 3.4627 0.0000 0.0000
# 5 0.0000 0.0000 0.0000 0.0000 20.3635 0.0000
# 6 0.0000 0.0000 0.0000 0.0000 0.0000 15.1867
#
#
#
# Elastic Compliance Matrix: (Units=1/GPa)
#
#
# Indices 1 2 3 4 5 6 
#
# 1 0.013448 0.000746 0.002244 0.000000 0.000000 0.000000
# 2 0.000746 0.009384 -0.001214 0.000000 0.000000 0.000000
# 3 0.002244 -0.001214 0.016314 0.000000 0.000000 0.000000
# 4 0.000000 0.000000 0.000000 0.288796 0.000000 0.000000
# 5 0.000000 0.000000 0.000000 0.000000 0.049107 0.000000
# 6 0.000000 0.000000 0.000000 0.000000 0.000000 0.065847
#
#
# Mechanical properties :
#
#
# Convention : Reuss Voigt Hill
#
# Bulk Modulus (GPa) = 23.42190 25.49168 24.45679
# Shear Modulus (GPa) = 11.02346 25.00234 18.01290
#
# Velocity S-wave (km/s) = 2.32281 3.49820 2.96925
# Velocity P-wave (km/s) = 4.31947 5.36596 4.87090
#
# Compressibility (1/GPa) = 0.04269508
#
# Stress axis : x y z
#
# Youngs Moduli (GPa) = 74.36043 106.56613 61.29812
#
# Poissons Ratio (x) = -0.07946 -0.13752
# Poissons Ratio (y) = -0.05544 0.07444
# Poissons Ratio (z) = -0.16683 0.12941
#
# Static dielectric constant tensor:
#      x y z
#    x 1.774430 0.000000 0.000000 
#    y 0.000000 1.741070 0.000000 
#    z 0.000000 0.000000 1.690700 
# 
# From -- ./inp_files/65513.got.cif
#   From: 2010.05.17/outbox.cif.g08.bks.cpg/sg71_33_cif.got.tgz:65513.got - 2010.06.03 16:22:01.
