data_PCOD9521639
_publ_section_title
;
Structure prediction by ZEFSAII (Michael W. Deem and Ramdas Pophale) SiO2 
 PCOD9521639
Probable space group: I M M M
;
_chemical_formula_sum "Si O2"
_cell_formula_units_Z 104
_cell_length_a 28.707563
_cell_length_b 8.951944
_cell_length_c 23.156101
_cell_angle_alpha 90.000000
_cell_angle_beta 90.000000
_cell_angle_gamma 90.000000
_cell_volume 5950.851577
_symmetry_space_group_name_H-M "I M M M"
_symmetry_group_IT_number 71
_symmetry_cell_setting 'orthorhombic'
loop_
_space_group_symop_operation_xyz
x,y,z
-x,-y,z
x,-y,-z
-x,y,-z
-x,-y,-z
x,y,-z
-x,y,z
x,-y,z
1/2+x,1/2+y,1/2+z
1/2-x,1/2-y,1/2+z
1/2+x,1/2-y,1/2-z
1/2-x,1/2+y,1/2-z
1/2-x,1/2-y,1/2-z
1/2+x,1/2+y,1/2-z
1/2-x,1/2+y,1/2+z
1/2+x,1/2-y,1/2+z
loop_
_atom_site_type_symbol
_atom_site_label
_atom_site_fract_x
_atom_site_fract_y
_atom_site_fract_z
Si Si1 0.945164 0.318316 0.000000
Si Si2 0.391408 0.179090 0.617587
Si Si3 0.801090 0.323573 0.695520
Si Si4 0.945394 0.821870 0.777021
Si Si5 0.889207 0.174004 0.660814
Si Si6 0.944226 0.668757 0.566583
Si Si7 0.695941 0.321563 0.678260
O O1 0.916107 0.273559 0.057372
O O2 0.946697 0.500000 0.000000
O O3 0.000000 0.269005 0.000000
O O4 0.424885 0.231822 0.669409
O O5 0.341119 0.248549 0.634650
O O6 0.387195 0.000000 0.616909
O O7 0.801790 0.500000 0.707149
O O8 0.843080 0.272100 0.655804
O O9 0.750654 0.287694 0.668399
O O10 0.809950 0.239101 0.756293
O O11 0.917127 0.784990 0.719095
O O12 0.000000 0.792041 0.769002
O O13 0.939635 0.000000 0.787661
O O14 0.921929 0.209602 0.607338
O O15 0.877081 0.000000 0.664405
O O16 0.930326 0.686493 0.500000
O O17 0.931142 0.500000 0.585461
O O18 0.000000 0.677732 0.569159
O O19 0.689015 0.500000 0.677940
#
# Coordination Sequence:
#
# PCOD9521639 Si02
#       7
#     8  16  16  16  16  16  16
#     4   9  20  38  57  81 113 147 189 239 282 329
#     4  11  21  35  58  82 107 145 189 229 278 334
#     4  10  20  34  55  82 110 143 182 218 267 328
#     4  10  21  35  50  75 113 147 176 219 274 325
#     4  11  21  33  53  81 113 145 177 222 277 325
#     4   9  19  36  56  77 105 144 187 226 263 314
#     4  10  20  35  55  81 112 141 175 222 273 326
#
# _framework density 17.476489999999998
#
# number of rings (size 3 to 8) (size 9 to 14) (size 15 to 20)
#    0.000    1.923    1.538    3.231    0.000    4.615 
#    0.000    2.308    1.692    2.769    0.000    0.000 
#    0.000    0.000    0.000    0.000    0.000    0.000 
#
# Total GULP energy -290077.587638 kJ/mol
# GULP energy per Si atom -5578.415147 kJ/mol
# Density = 1.743671 g / cm^3
# Si number density = 17.476490 Si / 1000 Ang^3
#
#
#
# Elastic Constant Matrix: (Units=GPa)
#
#
# Indices 1 2 3 4 5 6 
#
# 1 122.3575 47.1566 57.3422 0.0000 0.0000 0.0000
# 2 47.1566 42.1976 29.0070 0.0000 0.0000 0.0000
# 3 57.3422 29.0070 63.9882 0.0000 0.0000 0.0000
# 4 0.0000 0.0000 0.0000 49.3956 0.0000 0.0000
# 5 0.0000 0.0000 0.0000 0.0000 22.1440 0.0000
# 6 0.0000 0.0000 0.0000 0.0000 0.0000 29.6233
#
#
#
# Elastic Compliance Matrix: (Units=1/GPa)
#
#
# Indices 1 2 3 4 5 6 
#
# 1 0.018001 -0.013114 -0.010186 0.000000 0.000000 0.000000
# 2 -0.013114 0.043979 -0.008185 0.000000 0.000000 0.000000
# 3 -0.010186 -0.008185 0.028466 0.000000 0.000000 0.000000
# 4 0.000000 0.000000 0.000000 0.020245 0.000000 0.000000
# 5 0.000000 0.000000 0.000000 0.000000 0.045159 0.000000
# 6 0.000000 0.000000 0.000000 0.000000 0.000000 0.033757
#
#
# Mechanical properties :
#
#
# Convention : Reuss Voigt Hill
#
# Bulk Modulus (GPa) = 36.39459 55.06166 45.72812
# Shear Modulus (GPa) = 19.10320 26.56840 22.83580
#
# Velocity S-wave (km/s) = 3.30976 3.90325 3.61869
# Velocity P-wave (km/s) = 5.95618 7.20336 6.60925
#
# Compressibility (1/GPa) = 0.02747661
#
# Stress axis : x y z
#
# Youngs Moduli (GPa) = 55.55356 22.73789 35.12909
#
# Poissons Ratio (x) = 0.29818 0.35783
# Poissons Ratio (y) = 0.72853 0.28752
# Poissons Ratio (z) = 0.56588 0.18610
#
# Static dielectric constant tensor:
#      x y z
#    x 1.624930 0.000000 0.000000 
#    y 0.000000 1.601620 0.000000 
#    z 0.000000 0.000000 1.570250 
# 
# From -- ./inp_files/56239.got.cif
#   From: 2010.05.17/outbox.cif.g08.bks.cpg/sg71_29_cif.got.tgz:56239.got - 2010.06.03 16:22:01.
