data_PCOD9521289
_publ_section_title
;
Structure prediction by ZEFSAII (Michael W. Deem and Ramdas Pophale) SiO2 
 PCOD9521289
Probable space group: I M M M
;
_chemical_formula_sum "Si O2"
_cell_formula_units_Z 80
_cell_length_a 8.653251
_cell_length_b 23.218692
_cell_length_c 22.694085
_cell_angle_alpha 90.000000
_cell_angle_beta 90.000000
_cell_angle_gamma 90.000000
_cell_volume 4559.631329
_symmetry_space_group_name_H-M "I M M M"
_symmetry_group_IT_number 71
_symmetry_cell_setting 'orthorhombic'
loop_
_space_group_symop_operation_xyz
x,y,z
-x,-y,z
x,-y,-z
-x,y,-z
-x,-y,-z
x,y,-z
-x,y,z
x,-y,z
1/2+x,1/2+y,1/2+z
1/2-x,1/2-y,1/2+z
1/2+x,1/2-y,1/2-z
1/2-x,1/2+y,1/2-z
1/2-x,1/2-y,1/2-z
1/2+x,1/2+y,1/2-z
1/2-x,1/2+y,1/2+z
1/2+x,1/2-y,1/2+z
loop_
_atom_site_type_symbol
_atom_site_label
_atom_site_fract_x
_atom_site_fract_y
_atom_site_fract_z
Si Si1 0.689362 0.065893 0.871282
Si Si2 0.176788 0.430061 0.500000
Si Si3 0.813476 0.672401 0.705290
Si Si4 0.685097 0.209160 0.664009
Si Si5 0.822144 0.500000 0.071482
Si Si6 0.815185 0.122638 0.568486
O O1 0.500000 0.065284 0.873812
O O2 0.735914 0.111961 0.822678
O O3 0.737370 0.000000 0.859975
O O4 0.745578 0.084950 0.936521
O O5 0.169804 0.500000 0.500000
O O6 0.000000 0.408227 0.500000
O O7 0.747199 0.725835 0.668302
O O8 0.767066 0.680573 0.773352
O O9 0.000000 0.675397 0.702997
O O10 0.500000 0.209658 0.661245
O O11 0.750045 0.172206 0.610260
O O12 0.742408 0.440336 0.089419
O O13 0.000000 0.500000 0.090591
O O14 0.817517 0.500000 0.000000
O O15 0.765603 0.130117 0.500000
O O16 0.000000 0.123441 0.569799
#
# Coordination Sequence:
#
# PCOD9521289 Si02
#       6
#    16   8  16  16   8  16
#     4   8  13  24  44  70  99 126 158 204 251 295
#     4   7  10  18  36  64  95 123 145 180 239 292
#     4   9  18  33  51  72  99 135 175 212 255 307
#     4  10  20  34  51  71  99 139 176 212 259 305
#     4   9  17  31  53  79 107 137 165 200 253 314
#     4  10  20  35  55  78 104 134 171 216 262 309
#
# _framework density 17.545279000000001
#
# number of rings (size 3 to 8) (size 9 to 14) (size 15 to 20)
#    0.000    3.000    0.000    2.700    0.000    3.200 
#    3.600    0.000    0.000    0.600    0.000    0.000 
#    0.000    2.400    0.000    0.000    0.000    0.000 
#
# Total GULP energy -222797.764564 kJ/mol
# GULP energy per Si atom -5569.944114 kJ/mol
# Density = 1.750535 g / cm^3
# Si number density = 17.545279 Si / 1000 Ang^3
#
#
#
# Elastic Constant Matrix: (Units=GPa)
#
#
# Indices 1 2 3 4 5 6 
#
# 1 21.0254 23.8397 20.1172 0.0000 0.0000 0.0000
# 2 23.8397 126.0586 76.0565 0.0000 0.0000 0.0000
# 3 20.1172 76.0565 77.7598 0.0000 0.0000 0.0000
# 4 0.0000 0.0000 0.0000 29.7512 0.0000 0.0000
# 5 0.0000 0.0000 0.0000 0.0000 16.4684 0.0000
# 6 0.0000 0.0000 0.0000 0.0000 0.0000 22.6150
#
#
#
# Elastic Compliance Matrix: (Units=1/GPa)
#
#
# Indices 1 2 3 4 5 6 
#
# 1 0.064577 -0.005203 -0.011617 0.000000 0.000000 0.000000
# 2 -0.005203 0.019774 -0.017994 0.000000 0.000000 0.000000
# 3 -0.011617 -0.017994 0.033466 0.000000 0.000000 0.000000
# 4 0.000000 0.000000 0.000000 0.033612 0.000000 0.000000
# 5 0.000000 0.000000 0.000000 0.000000 0.060722 0.000000
# 6 0.000000 0.000000 0.000000 0.000000 0.000000 0.044218
#
#
# Mechanical properties :
#
#
# Convention : Reuss Voigt Hill
#
# Bulk Modulus (GPa) = 20.75281 51.65231 36.20256
# Shear Modulus (GPa) = 14.61730 20.75562 17.68646
#
# Velocity S-wave (km/s) = 2.88951 3.44317 3.17842
# Velocity P-wave (km/s) = 4.79439 6.73131 5.84366
#
# Compressibility (1/GPa) = 0.04818624
#
# Stress axis : x y z
#
# Youngs Moduli (GPa) = 15.48546 50.57267 29.88135
#
# Poissons Ratio (x) = 0.26314 0.34714
# Poissons Ratio (y) = 0.08058 0.53769
# Poissons Ratio (z) = 0.17990 0.91002
#
# Static dielectric constant tensor:
#      x y z
#    x 1.594520 0.000000 0.000000 
#    y 0.000000 1.578200 0.000000 
#    z 0.000000 0.000000 1.614460 
# 
# From -- ./inp_files/50414.got.cif
#   From: 2010.05.17/outbox.cif.g08.bks.cpg/sg71_26_cif.got.tgz:50414.got - 2010.06.03 16:22:01.
