data_PCOD9521773
_publ_section_title
;
Structure prediction by ZEFSAII (Michael W. Deem and Ramdas Pophale) SiO2 
 PCOD9521773
Probable space group: I M M M
;
_chemical_formula_sum "Si O2"
_cell_formula_units_Z 100
_cell_length_a 30.089209
_cell_length_b 22.553713
_cell_length_c 7.524208
_cell_angle_alpha 90.000000
_cell_angle_beta 90.000000
_cell_angle_gamma 90.000000
_cell_volume 5106.103496
_symmetry_space_group_name_H-M "I M M M"
_symmetry_group_IT_number 71
_symmetry_cell_setting 'orthorhombic'
loop_
_space_group_symop_operation_xyz
x,y,z
-x,-y,z
x,-y,-z
-x,y,-z
-x,-y,-z
x,y,-z
-x,y,z
x,-y,z
1/2+x,1/2+y,1/2+z
1/2-x,1/2-y,1/2+z
1/2+x,1/2-y,1/2-z
1/2-x,1/2+y,1/2-z
1/2-x,1/2-y,1/2-z
1/2+x,1/2+y,1/2-z
1/2-x,1/2+y,1/2+z
1/2+x,1/2-y,1/2+z
loop_
_atom_site_type_symbol
_atom_site_label
_atom_site_fract_x
_atom_site_fract_y
_atom_site_fract_z
Si Si1 0.661819 0.105919 0.293661
Si Si2 0.099045 0.711133 0.211924
Si Si3 0.667168 0.000000 0.000000
Si Si4 0.345595 0.323930 0.292501
Si Si5 0.000000 0.750784 0.710091
Si Si6 0.000000 0.113653 0.282862
Si Si7 0.594225 0.565245 0.215147
Si Si8 0.248404 0.680043 0.711750
O O1 0.653845 0.087735 0.500000
O O2 0.621953 0.149941 0.231317
O O3 0.706465 0.146359 0.292292
O O4 0.666923 0.052156 0.157190
O O5 0.127335 0.767592 0.283925
O O6 0.046558 0.719273 0.244700
O O7 0.104179 0.712317 0.000000
O O8 0.337910 0.309776 0.500000
O O9 0.375548 0.381551 0.278753
O O10 0.296964 0.339142 0.219440
O O11 0.000000 0.756628 0.500000
O O12 0.000000 0.818297 0.782154
O O13 0.955803 0.079941 0.227786
O O14 0.000000 0.114764 0.500000
O O15 0.608066 0.500000 0.274891
O O16 0.595009 0.565946 0.000000
O O17 0.244695 0.670314 0.500000
O O18 0.250000 0.750000 0.750000
#
# Coordination Sequence:
#
# PCOD9521773 Si02
#       8
#    16  16   4  16   8   8  16  16
#     4  11  24  45  71 100 134 176 224 269 329 401
#     4  10  21  39  62  92 128 167 206 267 330 387
#     4  12  26  48  72 103 138 180 218 271 326 400
#     4  10  21  36  56  83 123 162 207 264 324 374
#     4  11  21  32  59  95 127 157 204 267 335 393
#     4   9  17  31  50  77 109 154 208 262 316 372
#     4  10  20  35  52  74 109 160 213 259 308 371
#     4  11  21  38  63  95 129 168 215 275 331 384
#
# _framework density 19.584406000000001
#
# number of rings (size 3 to 8) (size 9 to 14) (size 15 to 20)
#    0.000    1.600    4.000    1.200    1.120    2.560 
#    1.440    0.400    0.000    1.920    0.000    2.240 
#    0.000    0.000    0.000    0.000    0.000    0.000 
#
# Total GULP energy -278558.367904 kJ/mol
# GULP energy per Si atom -5571.167358 kJ/mol
# Density = 1.953983 g / cm^3
# Si number density = 19.584406 Si / 1000 Ang^3
#
#
#
# Elastic Constant Matrix: (Units=GPa)
#
#
# Indices 1 2 3 4 5 6 
#
# 1 76.8528 31.7723 3.0013 0.0000 0.0000 0.0000
# 2 31.7723 127.2465 26.9085 0.0000 0.0000 0.0000
# 3 3.0013 26.9085 83.1807 0.0000 0.0000 0.0000
# 4 0.0000 0.0000 0.0000 31.1283 0.0000 0.0000
# 5 0.0000 0.0000 0.0000 0.0000 16.6447 0.0000
# 6 0.0000 0.0000 0.0000 0.0000 0.0000 -1.0544
#
#
#
# Elastic Compliance Matrix: (Units=1/GPa)
#
#
# Indices 1 2 3 4 5 6 
#
# 1 0.014547 -0.003780 0.000698 0.000000 0.000000 0.000000
# 2 -0.003780 0.009418 -0.002910 0.000000 0.000000 0.000000
# 3 0.000698 -0.002910 0.012938 0.000000 0.000000 0.000000
# 4 0.000000 0.000000 0.000000 0.032125 0.000000 0.000000
# 5 0.000000 0.000000 0.000000 0.000000 0.060079 0.000000
# 6 0.000000 0.000000 0.000000 0.000000 0.000000 -0.948405
#
#
# Mechanical properties :
#
#
# Convention : Reuss Voigt Hill
#
# Bulk Modulus (GPa) = 40.13002 45.62713 42.87857
# Shear Modulus (GPa) = -6.25778 24.38360 9.06291
#
# Velocity S-wave (km/s) = -1.78948 3.53236 2.15352
# Velocity P-wave (km/s) = 4.03307 6.32337 5.30333
#
# Compressibility (1/GPa) = 0.02491900
#
# Stress axis : x y z
#
# Youngs Moduli (GPa) = 68.74124 106.17964 77.28992
#
# Poissons Ratio (x) = 0.40135 -0.05394
# Poissons Ratio (y) = 0.25984 0.22494
# Poissons Ratio (z) = -0.04797 0.30901
#
# Static dielectric constant tensor:
#      x y z
#    x 1.758180 0.000000 0.000000 
#    y 0.000000 1.679130 0.000000 
#    z 0.000000 0.000000 1.768380 
# 
# From -- ./inp_files/17065.got.cif
#   From: 2010.05.17/outbox.cif.g08.bks.cpg/sg71_9_cif.got.tgz:17065.got - 2010.06.03 16:22:01.
