data_PCOD9521123
_publ_section_title
;
Structure prediction by ZEFSAII (Michael W. Deem and Ramdas Pophale) SiO2 
 PCOD9521123
Probable space group: I M M M
;
_chemical_formula_sum "Si O2"
_cell_formula_units_Z 88
_cell_length_a 23.898115
_cell_length_b 7.476623
_cell_length_c 24.014507
_cell_angle_alpha 90.000000
_cell_angle_beta 90.000000
_cell_angle_gamma 90.000000
_cell_volume 4290.844780
_symmetry_space_group_name_H-M "I M M M"
_symmetry_group_IT_number 71
_symmetry_cell_setting 'orthorhombic'
loop_
_space_group_symop_operation_xyz
x,y,z
-x,-y,z
x,-y,-z
-x,y,-z
-x,-y,-z
x,y,-z
-x,y,z
x,-y,z
1/2+x,1/2+y,1/2+z
1/2-x,1/2-y,1/2+z
1/2+x,1/2-y,1/2-z
1/2-x,1/2+y,1/2-z
1/2-x,1/2-y,1/2-z
1/2+x,1/2+y,1/2-z
1/2-x,1/2+y,1/2+z
1/2+x,1/2-y,1/2+z
loop_
_atom_site_type_symbol
_atom_site_label
_atom_site_fract_x
_atom_site_fract_y
_atom_site_fract_z
Si Si1 0.344292 0.286681 0.566067
Si Si2 0.259282 0.702168 0.345146
Si Si3 0.563945 0.000000 0.567607
Si Si4 0.671488 0.209862 0.240587
Si Si5 0.436230 0.283883 0.180677
Si Si6 0.432315 0.286975 0.940408
O O1 0.335821 0.261462 0.500000
O O2 0.351687 0.500000 0.576118
O O3 0.290645 0.221399 0.601301
O O4 0.398839 0.172864 0.583109
O O5 0.243059 0.500000 0.360490
O O6 0.306162 0.701531 0.296456
O O7 0.206221 0.783225 0.312808
O O8 0.500000 0.000000 0.588373
O O9 0.560918 0.000000 0.500000
O O10 0.606674 0.229762 0.227960
O O11 0.685476 0.000000 0.245762
O O12 0.500000 0.223576 0.189018
O O13 0.437359 0.500000 0.178199
O O14 0.414713 0.217482 0.119975
O O15 0.500000 0.268248 0.940139
O O16 0.420897 0.500000 0.940992
O O17 0.411921 0.213863 0.000000
#
# Coordination Sequence:
#
# PCOD9521123 Si02
#       6
#    16  16   8  16  16  16
#     4   9  18  34  57  82 110 145 180 221 274 326
#     4   9  19  36  55  75  99 130 173 218 258 312
#     4   9  18  32  52  82 116 146 179 217 262 326
#     4  10  20  33  52  76  99 131 173 215 263 309
#     4   9  17  30  48  70  99 133 167 207 255 307
#     4   7  10  19  38  62  86 117 158 198 234 276
#
# _framework density 20.508780999999999
#
# number of rings (size 3 to 8) (size 9 to 14) (size 15 to 20)
#    0.000    3.182    0.000    2.182    1.273    1.455 
#    0.000    3.636    0.000    2.727    0.000    2.545 
#    0.000    0.000    0.000    0.000    0.000    0.000 
#
# Total GULP energy -245021.653647 kJ/mol
# GULP energy per Si atom -5568.673947 kJ/mol
# Density = 2.046210 g / cm^3
# Si number density = 20.508781 Si / 1000 Ang^3
#
#
#
# Elastic Constant Matrix: (Units=GPa)
#
#
# Indices 1 2 3 4 5 6 
#
# 1 61.3130 4.3202 31.2101 0.0000 0.0000 0.0000
# 2 4.3202 74.1019 5.9441 0.0000 0.0000 0.0000
# 3 31.2101 5.9441 38.9759 0.0000 0.0000 0.0000
# 4 0.0000 0.0000 0.0000 -5.3417 0.0000 0.0000
# 5 0.0000 0.0000 0.0000 0.0000 25.4716 0.0000
# 6 0.0000 0.0000 0.0000 0.0000 0.0000 2.4469
#
#
#
# Elastic Compliance Matrix: (Units=1/GPa)
#
#
# Indices 1 2 3 4 5 6 
#
# 1 0.027534 0.000165 -0.022073 0.000000 0.000000 0.000000
# 2 0.000165 0.013663 -0.002216 0.000000 0.000000 0.000000
# 3 -0.022073 -0.002216 0.043670 0.000000 0.000000 0.000000
# 4 0.000000 0.000000 0.000000 -0.187206 0.000000 0.000000
# 5 0.000000 0.000000 0.000000 0.000000 0.039259 0.000000
# 6 0.000000 0.000000 0.000000 0.000000 0.000000 0.408681
#
#
# Mechanical properties :
#
#
# Convention : Reuss Voigt Hill
#
# Bulk Modulus (GPa) = 27.30808 28.59331 27.95069
# Shear Modulus (GPa) = 12.31359 13.37645 12.84502
#
# Velocity S-wave (km/s) = 2.45298 2.55665 2.50535
# Velocity P-wave (km/s) = 4.62245 4.76314 4.69332
#
# Compressibility (1/GPa) = 0.03661919
#
# Stress axis : x y z
#
# Youngs Moduli (GPa) = 36.31869 73.19002 22.89895
#
# Poissons Ratio (x) = -0.01210 0.50545
# Poissons Ratio (y) = -0.00601 0.05075
# Poissons Ratio (z) = 0.80167 0.16220
#
# Static dielectric constant tensor:
#      x y z
#    x 1.724230 0.000000 0.000000 
#    y 0.000000 1.799970 0.000000 
#    z 0.000000 0.000000 1.756110 
# 
# From -- ./inp_files/61113.got.cif
#   From: 2010.05.17/outbox.cif.g08.bks.cpg/sg71_31_cif.got.tgz:61113.got - 2010.06.03 16:22:01.
