data_PCOD9521460
_publ_section_title
;
Structure prediction by ZEFSAII (Michael W. Deem and Ramdas Pophale) SiO2 
 PCOD9521460
Probable space group: I M M M
;
_chemical_formula_sum "Si O2"
_cell_formula_units_Z 104
_cell_length_a 23.702124
_cell_length_b 30.528656
_cell_length_c 8.251312
_cell_angle_alpha 90.000000
_cell_angle_beta 90.000000
_cell_angle_gamma 90.000000
_cell_volume 5970.599773
_symmetry_space_group_name_H-M "I M M M"
_symmetry_group_IT_number 71
_symmetry_cell_setting 'orthorhombic'
loop_
_space_group_symop_operation_xyz
x,y,z
-x,-y,z
x,-y,-z
-x,y,-z
-x,-y,-z
x,y,-z
-x,y,z
x,-y,z
1/2+x,1/2+y,1/2+z
1/2-x,1/2-y,1/2+z
1/2+x,1/2-y,1/2-z
1/2-x,1/2+y,1/2-z
1/2-x,1/2-y,1/2-z
1/2+x,1/2+y,1/2-z
1/2-x,1/2+y,1/2+z
1/2+x,1/2-y,1/2+z
loop_
_atom_site_type_symbol
_atom_site_label
_atom_site_fract_x
_atom_site_fract_y
_atom_site_fract_z
Si Si1 0.565319 0.284414 0.692421
Si Si2 0.432766 0.950224 0.500000
Si Si3 0.434941 0.377636 0.807466
Si Si4 0.151341 0.950206 0.192322
Si Si5 0.382170 0.098189 0.188502
Si Si6 0.723430 0.948800 0.691424
Si Si7 0.934912 0.691329 0.693192
O O1 0.565838 0.289223 0.500000
O O2 0.500000 0.282174 0.750492
O O3 0.588487 0.329157 0.766830
O O4 0.588731 0.236793 0.737021
O O5 0.500000 0.950000 0.500000
O O6 0.413044 0.928149 0.667683
O O7 0.411469 0.000000 0.500000
O O8 0.500000 0.379955 0.746514
O O9 0.396392 0.415421 0.734868
O O10 0.436130 0.382690 0.000000
O O11 0.210845 0.939811 0.276698
O O12 0.135123 0.000000 0.239947
O O13 0.160980 0.949818 0.000000
O O14 0.317537 0.083180 0.210243
O O15 0.396934 0.148834 0.223989
O O16 0.399609 0.089630 0.000000
O O17 0.711598 0.944147 0.500000
O O18 0.713489 0.000000 0.737127
O O19 0.938027 0.696536 0.500000
O O20 0.000000 0.684049 0.752811
#
# Coordination Sequence:
#
# PCOD9521460 Si02
#       7
#    16   8  16  16  16  16  16
#     4   9  17  29  49  76 104 138 177 218 265 320
#     4  11  24  38  52  76 110 146 185 229 282 342
#     4  10  20  34  53  78 111 147 179 215 264 326
#     4  10  21  36  55  80 108 140 180 226 272 320
#     4  11  22  36  56  80 108 145 187 235 283 335
#     4  10  20  36  57  79 104 137 183 233 277 326
#     4   9  18  32  50  75 106 139 178 224 274 327
#
# _framework density 17.418686000000001
#
# number of rings (size 3 to 8) (size 9 to 14) (size 15 to 20)
#    0.000    2.077    0.769    2.769    1.077    6.769 
#    0.000    2.308    0.000    0.923    0.000    0.000 
#    0.000    0.000    0.000    0.000    0.000    0.000 
#
# Total GULP energy -289912.197701 kJ/mol
# GULP energy per Si atom -5575.234571 kJ/mol
# Density = 1.737904 g / cm^3
# Si number density = 17.418686 Si / 1000 Ang^3
#
#
#
# Elastic Constant Matrix: (Units=GPa)
#
#
# Indices 1 2 3 4 5 6 
#
# 1 64.1071 52.7509 20.5129 0.0000 0.0000 0.0000
# 2 52.7509 119.4555 42.5799 0.0000 0.0000 0.0000
# 3 20.5129 42.5799 63.9703 0.0000 0.0000 0.0000
# 4 0.0000 0.0000 0.0000 31.1403 0.0000 0.0000
# 5 0.0000 0.0000 0.0000 0.0000 23.7651 0.0000
# 6 0.0000 0.0000 0.0000 0.0000 0.0000 21.2764
#
#
#
# Elastic Compliance Matrix: (Units=1/GPa)
#
#
# Indices 1 2 3 4 5 6 
#
# 1 0.024538 -0.010529 -0.000860 0.000000 0.000000 0.000000
# 2 -0.010529 0.015494 -0.006936 0.000000 0.000000 0.000000
# 3 -0.000860 -0.006936 0.020525 0.000000 0.000000 0.000000
# 4 0.000000 0.000000 0.000000 0.032113 0.000000 0.000000
# 5 0.000000 0.000000 0.000000 0.000000 0.042078 0.000000
# 6 0.000000 0.000000 0.000000 0.000000 0.000000 0.047001
#
#
# Mechanical properties :
#
#
# Convention : Reuss Voigt Hill
#
# Bulk Modulus (GPa) = 41.83175 53.24672 47.53923
# Shear Modulus (GPa) = 22.08787 24.01563 23.05175
#
# Velocity S-wave (km/s) = 3.56484 3.71715 3.64179
# Velocity P-wave (km/s) = 6.40404 7.00414 6.71080
#
# Compressibility (1/GPa) = 0.02390529
#
# Stress axis : x y z
#
# Youngs Moduli (GPa) = 40.75263 64.54301 48.72108
#
# Poissons Ratio (x) = 0.67960 0.04190
# Poissons Ratio (y) = 0.42910 0.33795
# Poissons Ratio (z) = 0.03504 0.44770
#
# Static dielectric constant tensor:
#      x y z
#    x 1.591020 0.000000 0.000000 
#    y 0.000000 1.601100 0.000000 
#    z 0.000000 0.000000 1.599850 
# 
# From -- ./inp_files/13268.got.cif
#   From: 2010.05.17/outbox.cif.g08.bks.cpg/sg71_7_cif.got.tgz:13268.got - 2010.06.03 16:22:01.
