data_PCOD9521883
_publ_section_title
;
Structure prediction by ZEFSAII (Michael W. Deem and Ramdas Pophale) SiO2 
 PCOD9521883
Probable space group: I M M M
;
_chemical_formula_sum "Si O2"
_cell_formula_units_Z 104
_cell_length_a 21.570564
_cell_length_b 28.837763
_cell_length_c 7.779949
_cell_angle_alpha 90.000000
_cell_angle_beta 90.000000
_cell_angle_gamma 90.000000
_cell_volume 4839.492476
_symmetry_space_group_name_H-M "I M M M"
_symmetry_group_IT_number 71
_symmetry_cell_setting 'orthorhombic'
loop_
_space_group_symop_operation_xyz
x,y,z
-x,-y,z
x,-y,-z
-x,y,-z
-x,-y,-z
x,y,-z
-x,y,z
x,-y,z
1/2+x,1/2+y,1/2+z
1/2-x,1/2-y,1/2+z
1/2+x,1/2-y,1/2-z
1/2-x,1/2+y,1/2-z
1/2-x,1/2-y,1/2-z
1/2+x,1/2+y,1/2-z
1/2-x,1/2+y,1/2+z
1/2+x,1/2-y,1/2+z
loop_
_atom_site_type_symbol
_atom_site_label
_atom_site_fract_x
_atom_site_fract_y
_atom_site_fract_z
Si Si1 0.093908 0.369751 0.198337
Si Si2 0.667122 0.297762 0.197023
Si Si3 0.765997 0.630770 0.298354
Si Si4 0.829749 0.052118 0.209137
Si Si5 0.500000 0.052803 0.290475
Si Si6 0.067091 0.731765 0.700644
Si Si7 0.428926 0.376580 0.708449
O O1 0.167725 0.371259 0.211325
O O2 0.059513 0.416199 0.260737
O O3 0.071866 0.323406 0.291604
O O4 0.075920 0.363668 0.000000
O O5 0.727543 0.321377 0.278507
O O6 0.629921 0.254169 0.275743
O O7 0.613767 0.337107 0.210000
O O8 0.683920 0.287752 0.000000
O O9 0.776791 0.623891 0.500000
O O10 0.721857 0.589143 0.233526
O O11 0.896048 0.074752 0.251376
O O12 0.821444 0.000000 0.272480
O O13 0.826241 0.051083 0.000000
O O14 0.500000 0.049978 0.500000
O O15 0.500000 0.000000 0.226515
O O16 0.066659 0.745718 0.500000
O O17 0.000000 0.746327 0.775880
O O18 0.425434 0.370944 0.500000
O O19 0.500000 0.373866 0.760945
#
# Coordination Sequence:
#
# PCOD9521883 Si02
#       7
#    16  16  16  16   8  16  16
#     4  11  22  38  61  87 112 145 183 221 272 332
#     4  10  20  35  55  80 109 148 191 229 276 331
#     4  10  21  37  56  80 112 147 183 232 283 330
#     4   8  15  29  49  73 102 137 179 226 274 323
#     4   9  20  40  63  89 121 151 183 227 282 345
#     4  10  21  37  58  83 114 148 183 229 280 326
#     4   9  17  29  47  74 108 145 184 228 276 324
#
# _framework density 21.489857000000001
#
# number of rings (size 3 to 8) (size 9 to 14) (size 15 to 20)
#    0.000    2.385    0.769    2.769    0.000    3.692 
#    0.000    1.538    0.000   14.308    0.000    4.308 
#    0.000    0.000    0.000    0.000    0.000    0.000 
#
# Total GULP energy -290181.679370 kJ/mol
# GULP energy per Si atom -5580.416911 kJ/mol
# Density = 2.144094 g / cm^3
# Si number density = 21.489857 Si / 1000 Ang^3
#
#
#
# Elastic Constant Matrix: (Units=GPa)
#
#
# Indices 1 2 3 4 5 6 
#
# 1 136.9705 40.8269 1.5365 0.0000 0.0000 0.0000
# 2 40.8269 119.5500 -0.7038 0.0000 0.0000 0.0000
# 3 1.5365 -0.7038 35.4413 0.0000 0.0000 0.0000
# 4 0.0000 0.0000 0.0000 33.9400 0.0000 0.0000
# 5 0.0000 0.0000 0.0000 0.0000 3.8402 0.0000
# 6 0.0000 0.0000 0.0000 0.0000 0.0000 11.0823
#
#
#
# Elastic Compliance Matrix: (Units=1/GPa)
#
#
# Indices 1 2 3 4 5 6 
#
# 1 0.008134 -0.002780 -0.000408 0.000000 0.000000 0.000000
# 2 -0.002780 0.009316 0.000306 0.000000 0.000000 0.000000
# 3 -0.000408 0.000306 0.028239 0.000000 0.000000 0.000000
# 4 0.000000 0.000000 0.000000 0.029464 0.000000 0.000000
# 5 0.000000 0.000000 0.000000 0.000000 0.260404 0.000000
# 6 0.000000 0.000000 0.000000 0.000000 0.000000 0.090234
#
#
# Mechanical properties :
#
#
# Convention : Reuss Voigt Hill
#
# Bulk Modulus (GPa) = 25.04736 41.69789 33.37263
# Shear Modulus (GPa) = 11.23938 26.45932 18.84935
#
# Velocity S-wave (km/s) = 2.28942 3.51272 2.96485
# Velocity P-wave (km/s) = 4.32080 5.99149 5.22337
#
# Compressibility (1/GPa) = 0.03992437
#
# Stress axis : x y z
#
# Youngs Moduli (GPa) = 122.93886 107.34262 35.41151
#
# Poissons Ratio (x) = 0.29844 0.01444
# Poissons Ratio (y) = 0.34180 -0.01082
# Poissons Ratio (z) = 0.05014 -0.03280
#
# Static dielectric constant tensor:
#      x y z
#    x 1.795450 0.000000 0.000000 
#    y 0.000000 1.786070 0.000000 
#    z 0.000000 0.000000 1.775470 
# 
# From -- ./inp_files/11160.got.cif
#   From: 2010.05.17/outbox.cif.g08.bks.cpg/sg71_6_cif.got.tgz:11160.got - 2010.06.03 16:22:01.
