data_PCOD9521400
_publ_section_title
;
Structure prediction by ZEFSAII (Michael W. Deem and Ramdas Pophale) SiO2 
 PCOD9521400
Probable space group: I M M M
;
_chemical_formula_sum "Si O2"
_cell_formula_units_Z 84
_cell_length_a 11.594630
_cell_length_b 14.498808
_cell_length_c 29.481612
_cell_angle_alpha 90.000000
_cell_angle_beta 90.000000
_cell_angle_gamma 90.000000
_cell_volume 4956.104093
_symmetry_space_group_name_H-M "I M M M"
_symmetry_group_IT_number 71
_symmetry_cell_setting 'orthorhombic'
loop_
_space_group_symop_operation_xyz
x,y,z
-x,-y,z
x,-y,-z
-x,y,-z
-x,-y,-z
x,y,-z
-x,y,z
x,-y,z
1/2+x,1/2+y,1/2+z
1/2-x,1/2-y,1/2+z
1/2+x,1/2-y,1/2-z
1/2-x,1/2+y,1/2-z
1/2-x,1/2-y,1/2-z
1/2+x,1/2+y,1/2-z
1/2-x,1/2+y,1/2+z
1/2+x,1/2-y,1/2+z
loop_
_atom_site_type_symbol
_atom_site_label
_atom_site_fract_x
_atom_site_fract_y
_atom_site_fract_z
Si Si1 0.238409 0.500000 0.265133
Si Si2 0.500000 0.203679 0.658566
Si Si3 0.243206 0.102569 0.551663
Si Si4 0.000000 0.663190 0.052472
Si Si5 0.363534 0.311227 0.868635
Si Si6 0.000000 0.500000 0.794247
Si Si7 0.636236 0.500000 0.174462
Si Si8 0.729203 0.702799 0.700861
O O1 0.336201 0.500000 0.226817
O O2 0.259531 0.593673 0.292469
O O3 0.115089 0.500000 0.237894
O O4 0.500000 0.210806 0.603102
O O5 0.500000 0.095247 0.675559
O O6 0.388640 0.255396 0.679857
O O7 0.206610 0.114660 0.500000
O O8 0.381371 0.106702 0.553376
O O9 0.194037 0.183567 0.582493
O O10 0.202997 0.000000 0.566013
O O11 0.000000 0.706944 0.000000
O O12 0.500000 0.315218 0.873100
O O13 0.316404 0.405554 0.845669
O O14 0.326606 0.232192 0.834849
O O15 0.500000 0.500000 0.166339
O O16 0.750000 0.750000 0.750000
#
# Coordination Sequence:
#
# PCOD9521400 Si02
#       8
#     8   8  16   8  16   4   8  16
#     4  12  26  40  56  82 116 160 198 247 294 350
#     4  12  24  39  65  91 118 164 205 247 297 358
#     4  10  20  34  54  83 117 153 192 235 288 356
#     4  10  21  36  55  85 120 153 196 248 298 347
#     4  11  22  36  55  80 114 154 192 235 286 346
#     4  12  24  36  61  90 124 160 205 240 290 362
#     4  10  20  34  53  75 112 151 189 229 286 337
#     4  12  25  39  58  83 117 154 201 246 293 350
#
# _framework density 16.948796000000002
#
# number of rings (size 3 to 8) (size 9 to 14) (size 15 to 20)
#    0.000    0.952    6.667    0.286    5.333    1.524 
#    0.000    0.952    0.000    0.000    0.000    3.333 
#    0.000    1.524    0.000    0.000    0.000    0.000 
#
# Total GULP energy -234019.302959 kJ/mol
# GULP energy per Si atom -5571.888166 kJ/mol
# Density = 1.691022 g / cm^3
# Si number density = 16.948796 Si / 1000 Ang^3
#
#
#
# Elastic Constant Matrix: (Units=GPa)
#
#
# Indices 1 2 3 4 5 6 
#
# 1 58.9076 19.4361 27.5817 0.0000 0.0000 0.0000
# 2 19.4361 110.4412 52.9316 0.0000 0.0000 0.0000
# 3 27.5817 52.9316 129.5583 0.0000 0.0000 0.0000
# 4 0.0000 0.0000 0.0000 18.2949 0.0000 0.0000
# 5 0.0000 0.0000 0.0000 0.0000 22.2993 0.0000
# 6 0.0000 0.0000 0.0000 0.0000 0.0000 14.9547
#
#
#
# Elastic Compliance Matrix: (Units=1/GPa)
#
#
# Indices 1 2 3 4 5 6 
#
# 1 0.019126 -0.001759 -0.003353 0.000000 0.000000 0.000000
# 2 -0.001759 0.011421 -0.004292 0.000000 0.000000 0.000000
# 3 -0.003353 -0.004292 0.010186 0.000000 0.000000 0.000000
# 4 0.000000 0.000000 0.000000 0.054660 0.000000 0.000000
# 5 0.000000 0.000000 0.000000 0.000000 0.044844 0.000000
# 6 0.000000 0.000000 0.000000 0.000000 0.000000 0.066869
#
#
# Mechanical properties :
#
#
# Convention : Reuss Voigt Hill
#
# Bulk Modulus (GPa) = 45.60898 55.42287 50.51593
# Shear Modulus (GPa) = 21.43882 24.37363 22.90622
#
# Velocity S-wave (km/s) = 3.56043 3.79631 3.68026
# Velocity P-wave (km/s) = 6.62348 7.21021 6.92306
#
# Compressibility (1/GPa) = 0.02192551
#
# Stress axis : x y z
#
# Youngs Moduli (GPa) = 52.28466 87.55792 98.17614
#
# Poissons Ratio (x) = 0.15400 0.32920
# Poissons Ratio (y) = 0.09196 0.42134
# Poissons Ratio (z) = 0.17532 0.37577
#
# Static dielectric constant tensor:
#      x y z
#    x 1.599240 0.000000 0.000000 
#    y 0.000000 1.481220 0.000000 
#    z 0.000000 0.000000 1.611370 
# 
# From -- ./inp_files/58780.got.cif
#   From: 2010.05.17/outbox.cif.g08.bks.cpg/sg71_30_cif.got.tgz:58780.got - 2010.06.03 16:22:01.
