data_PCOD9521307
_publ_section_title
;
Structure prediction by ZEFSAII (Michael W. Deem and Ramdas Pophale) SiO2 
 PCOD9521307
Probable space group: I M M M
;
_chemical_formula_sum "Si O2"
_cell_formula_units_Z 104
_cell_length_a 24.225251
_cell_length_b 10.298439
_cell_length_c 24.098218
_cell_angle_alpha 90.000000
_cell_angle_beta 90.000000
_cell_angle_gamma 90.000000
_cell_volume 6012.078122
_symmetry_space_group_name_H-M "I M M M"
_symmetry_group_IT_number 71
_symmetry_cell_setting 'orthorhombic'
loop_
_space_group_symop_operation_xyz
x,y,z
-x,-y,z
x,-y,-z
-x,y,-z
-x,-y,-z
x,y,-z
-x,y,z
x,-y,z
1/2+x,1/2+y,1/2+z
1/2-x,1/2-y,1/2+z
1/2+x,1/2-y,1/2-z
1/2-x,1/2+y,1/2-z
1/2-x,1/2-y,1/2-z
1/2+x,1/2+y,1/2-z
1/2-x,1/2+y,1/2+z
1/2+x,1/2-y,1/2+z
loop_
_atom_site_type_symbol
_atom_site_label
_atom_site_fract_x
_atom_site_fract_y
_atom_site_fract_z
Si Si1 0.141288 0.150617 0.775982
Si Si2 0.589304 0.645547 0.606685
Si Si3 0.201934 0.756155 0.937032
Si Si4 0.172524 0.350179 0.435558
Si Si5 0.221674 0.640515 0.823887
Si Si6 0.000000 0.650639 0.066459
Si Si7 0.647749 0.351109 0.843858
O O1 0.099257 0.160731 0.827298
O O2 0.191459 0.244976 0.791761
O O3 0.118405 0.180136 0.714620
O O4 0.159763 0.000000 0.774916
O O5 0.567272 0.500000 0.595931
O O6 0.649180 0.656311 0.577370
O O7 0.552058 0.763471 0.585861
O O8 0.260926 0.828595 0.931672
O O9 0.202749 0.650896 0.888111
O O10 0.197823 0.707118 0.000000
O O11 0.158065 0.325209 0.500000
O O12 0.160591 0.500000 0.422331
O O13 0.143369 0.250953 0.393502
O O14 0.206668 0.500000 0.800431
O O15 0.287456 0.652319 0.826492
O O16 0.000000 0.500000 0.086016
O O17 0.000000 0.647248 0.000000
O O18 0.635224 0.500000 0.860627
#
# Coordination Sequence:
#
# PCOD9521307 Si02
#       7
#    16  16  16  16  16   8  16
#     4   9  18  31  45  62  84 109 139 178 219 257
#     4  10  20  34  52  69  83 105 142 185 225 269
#     4   9  17  28  43  63  86 112 145 187 228 260
#     4   9  17  28  42  63  91 121 153 186 216 246
#     4   9  17  26  38  59  84 112 145 178 214 257
#     4  11  25  41  53  67  89 113 136 173 230 285
#     4   9  17  28  41  59  85 116 147 177 212 253
#
# _framework density 17.298511999999999
#
# number of rings (size 3 to 8) (size 9 to 14) (size 15 to 20)
#    0.000    2.692    0.000    1.615    0.000    9.538 
#    0.000    3.077    0.000    0.000    0.000    0.000 
#    0.000    0.000    0.000    0.692    0.000   14.462 
#
# Total GULP energy -289597.250724 kJ/mol
# GULP energy per Si atom -5569.177899 kJ/mol
# Density = 1.725914 g / cm^3
# Si number density = 17.298512 Si / 1000 Ang^3
#
#
#
# Elastic Constant Matrix: (Units=GPa)
#
#
# Indices 1 2 3 4 5 6 
#
# 1 12.7028 6.1579 9.9606 0.0000 0.0000 0.0000
# 2 6.1579 104.1440 55.3812 0.0000 0.0000 0.0000
# 3 9.9606 55.3812 116.0010 0.0000 0.0000 0.0000
# 4 0.0000 0.0000 0.0000 25.1927 0.0000 0.0000
# 5 0.0000 0.0000 0.0000 0.0000 12.9009 0.0000
# 6 0.0000 0.0000 0.0000 0.0000 0.0000 5.4248
#
#
#
# Elastic Compliance Matrix: (Units=1/GPa)
#
#
# Indices 1 2 3 4 5 6 
#
# 1 0.084587 -0.001527 -0.006534 0.000000 0.000000 0.000000
# 2 -0.001527 0.012897 -0.006026 0.000000 0.000000 0.000000
# 3 -0.006534 -0.006026 0.012059 0.000000 0.000000 0.000000
# 4 0.000000 0.000000 0.000000 0.039694 0.000000 0.000000
# 5 0.000000 0.000000 0.000000 0.000000 0.077514 0.000000
# 6 0.000000 0.000000 0.000000 0.000000 0.000000 0.184337
#
#
# Mechanical properties :
#
#
# Convention : Reuss Voigt Hill
#
# Bulk Modulus (GPa) = 12.28986 41.76081 27.02533
# Shear Modulus (GPa) = 10.72077 19.46022 15.09050
#
# Velocity S-wave (km/s) = 2.49218 3.35769 2.95678
# Velocity P-wave (km/s) = 3.92445 6.26305 5.22623
#
# Compressibility (1/GPa) = 0.08136791
#
# Stress axis : x y z
#
# Youngs Moduli (GPa) = 11.82220 77.53789 82.92778
#
# Poissons Ratio (x) = 0.11838 0.54187
# Poissons Ratio (y) = 0.01805 0.49973
# Poissons Ratio (z) = 0.07725 0.46725
#
# Static dielectric constant tensor:
#      x y z
#    x 1.583880 0.000000 0.000000 
#    y 0.000000 1.596550 0.000000 
#    z 0.000000 0.000000 1.627330 
# 
# From -- ./inp_files/13629.got.cif
#   From: 2010.05.17/outbox.cif.g08.bks.cpg/sg71_7_cif.got.tgz:13629.got - 2010.06.03 16:22:01.
