data_PCOD9521145
_publ_section_title
;
Structure prediction by ZEFSAII (Michael W. Deem and Ramdas Pophale) SiO2 
 PCOD9521145
Probable space group: I M M M
;
_chemical_formula_sum "Si O2"
_cell_formula_units_Z 96
_cell_length_a 23.463368
_cell_length_b 8.543053
_cell_length_c 26.706706
_cell_angle_alpha 90.000000
_cell_angle_beta 90.000000
_cell_angle_gamma 90.000000
_cell_volume 5353.327073
_symmetry_space_group_name_H-M "I M M M"
_symmetry_group_IT_number 71
_symmetry_cell_setting 'orthorhombic'
loop_
_space_group_symop_operation_xyz
x,y,z
-x,-y,z
x,-y,-z
-x,y,-z
-x,-y,-z
x,y,-z
-x,y,z
x,-y,z
1/2+x,1/2+y,1/2+z
1/2-x,1/2-y,1/2+z
1/2+x,1/2-y,1/2-z
1/2-x,1/2+y,1/2-z
1/2-x,1/2-y,1/2-z
1/2+x,1/2+y,1/2-z
1/2-x,1/2+y,1/2+z
1/2+x,1/2-y,1/2+z
loop_
_atom_site_type_symbol
_atom_site_label
_atom_site_fract_x
_atom_site_fract_y
_atom_site_fract_z
Si Si1 0.365073 0.178354 0.346610
Si Si2 0.934969 0.186714 0.752995
Si Si3 0.372718 0.818053 0.844744
Si Si4 0.191099 0.310151 0.057290
Si Si5 0.238347 0.821041 0.696280
Si Si6 0.180050 0.689523 0.557227
O O1 0.399427 0.258776 0.301718
O O2 0.356128 0.246619 0.402535
O O3 0.299110 0.173413 0.329940
O O4 0.386773 0.000000 0.350201
O O5 0.908659 0.240495 0.699805
O O6 0.000000 0.244208 0.756898
O O7 0.934849 0.000000 0.753149
O O8 0.307403 0.792232 0.828231
O O9 0.367115 0.757431 0.901987
O O10 0.388448 0.000000 0.845706
O O11 0.191904 0.500000 0.060521
O O12 0.255976 0.253313 0.067432
O O13 0.177976 0.265355 0.000000
O O14 0.250000 0.750000 0.750000
O O15 0.215774 0.000000 0.698282
O O16 0.166011 0.733460 0.500000
O O17 0.182757 0.500000 0.560223
#
# Coordination Sequence:
#
# PCOD9521145 Si02
#       6
#    16  16  16  16  16  16
#     4  10  20  33  52  78 107 139 172 208 254 307
#     4  11  25  41  56  74  97 131 176 225 271 312
#     4  11  21  33  53  78 106 140 172 208 257 309
#     4   9  17  30  49  76 110 142 171 203 244 298
#     4  11  20  30  47  76 109 139 171 206 253 308
#     4   9  18  31  48  75 110 142 171 202 242 298
#
# _framework density 17.932772
#
# number of rings (size 3 to 8) (size 9 to 14) (size 15 to 20)
#    0.000    1.833    3.333    1.500    0.000    3.333 
#    0.000    0.000    0.000    1.000    0.000    7.000 
#    0.000    0.000    0.000    0.000    0.000    0.000 
#
# Total GULP energy -267284.499093 kJ/mol
# GULP energy per Si atom -5568.427064 kJ/mol
# Density = 1.789196 g / cm^3
# Si number density = 17.932772 Si / 1000 Ang^3
#
#
#
# Elastic Constant Matrix: (Units=GPa)
#
#
# Indices 1 2 3 4 5 6 
#
# 1 65.2981 11.4623 45.1905 0.0000 0.0000 0.0000
# 2 11.4623 22.7532 24.6937 0.0000 0.0000 0.0000
# 3 45.1905 24.6937 160.7950 0.0000 0.0000 0.0000
# 4 0.0000 0.0000 0.0000 11.4511 0.0000 0.0000
# 5 0.0000 0.0000 0.0000 0.0000 8.1130 0.0000
# 6 0.0000 0.0000 0.0000 0.0000 0.0000 18.6936
#
#
#
# Elastic Compliance Matrix: (Units=1/GPa)
#
#
# Indices 1 2 3 4 5 6 
#
# 1 0.019410 -0.004629 -0.004744 0.000000 0.000000 0.000000
# 2 -0.004629 0.053844 -0.006968 0.000000 0.000000 0.000000
# 3 -0.004744 -0.006968 0.008623 0.000000 0.000000 0.000000
# 4 0.000000 0.000000 0.000000 0.087328 0.000000 0.000000
# 5 0.000000 0.000000 0.000000 0.000000 0.123259 0.000000
# 6 0.000000 0.000000 0.000000 0.000000 0.000000 0.053494
#
#
# Mechanical properties :
#
#
# Convention : Reuss Voigt Hill
#
# Bulk Modulus (GPa) = 20.32771 45.72660 33.02715
# Shear Modulus (GPa) = 12.65698 18.81820 15.73759
#
# Velocity S-wave (km/s) = 2.65957 3.24292 2.96563
# Velocity P-wave (km/s) = 4.55974 6.29097 5.49398
#
# Compressibility (1/GPa) = 0.04919393
#
# Stress axis : x y z
#
# Youngs Moduli (GPa) = 51.51901 18.57208 115.97555
#
# Poissons Ratio (x) = 0.08598 0.55021
# Poissons Ratio (y) = 0.23851 0.80811
# Poissons Ratio (z) = 0.24442 0.12941
#
# Static dielectric constant tensor:
#      x y z
#    x 1.590930 0.000000 0.000000 
#    y 0.000000 1.628360 0.000000 
#    z 0.000000 0.000000 1.710110 
# 
# From -- ./inp_files/10819.got.cif
#   From: 2010.05.17/outbox.cif.g08.bks.cpg/sg71_6_cif.got.tgz:10819.got - 2010.06.03 16:22:01.
