data_PCOD9521548
_publ_section_title
;
Structure prediction by ZEFSAII (Michael W. Deem and Ramdas Pophale) SiO2 
 PCOD9521548
Probable space group: I M M M
;
_chemical_formula_sum "Si O2"
_cell_formula_units_Z 116
_cell_length_a 26.529358
_cell_length_b 12.665782
_cell_length_c 17.527924
_cell_angle_alpha 90.000000
_cell_angle_beta 90.000000
_cell_angle_gamma 90.000000
_cell_volume 5889.646523
_symmetry_space_group_name_H-M "I M M M"
_symmetry_group_IT_number 71
_symmetry_cell_setting 'orthorhombic'
loop_
_space_group_symop_operation_xyz
x,y,z
-x,-y,z
x,-y,-z
-x,y,-z
-x,-y,-z
x,y,-z
-x,y,z
x,-y,z
1/2+x,1/2+y,1/2+z
1/2-x,1/2-y,1/2+z
1/2+x,1/2-y,1/2-z
1/2-x,1/2+y,1/2-z
1/2-x,1/2-y,1/2-z
1/2+x,1/2+y,1/2-z
1/2-x,1/2+y,1/2+z
1/2+x,1/2-y,1/2+z
loop_
_atom_site_type_symbol
_atom_site_label
_atom_site_fract_x
_atom_site_fract_y
_atom_site_fract_z
Si Si1 0.299396 0.844695 0.866791
Si Si2 0.162195 0.384199 0.197859
Si Si3 0.055107 0.286333 0.786802
Si Si4 0.665710 0.382248 0.911435
Si Si5 0.578363 0.383207 0.410822
Si Si6 0.056179 0.120481 0.649176
Si Si7 0.309690 0.692778 0.410867
Si Si8 0.667380 0.000000 0.000000
O O1 0.313724 0.876730 0.781615
O O2 0.309396 0.718802 0.872576
O O3 0.240866 0.865276 0.885277
O O4 0.329702 0.907704 0.932063
O O5 0.171114 0.500000 0.165436
O O6 0.102522 0.362810 0.208335
O O7 0.183001 0.294354 0.142350
O O8 0.056765 0.209899 0.860091
O O9 0.061546 0.206869 0.715340
O O10 0.000000 0.337173 0.781003
O O11 0.678296 0.500000 0.880606
O O12 0.605015 0.370193 0.903813
O O13 0.679826 0.379891 0.000000
O O14 0.565941 0.370550 0.500000
O O15 0.562211 0.500000 0.386127
O O16 0.639087 0.373972 0.403765
O O17 0.000000 0.133591 0.614399
O O18 0.057752 0.000000 0.680146
O O19 0.304176 0.721364 0.500000
#
# Coordination Sequence:
#
# PCOD9521548 Si02
#       8
#    16  16  16  16  16  16  16   4
#     4  12  22  40  60  93 121 160 207 241 298 351
#     4  11  24  40  60  87 118 154 203 253 295 351
#     4  10  20  36  56  80 112 152 194 241 294 354
#     4  10  20  34  54  80 115 152 195 243 291 355
#     4   9  19  33  54  84 117 149 185 238 301 366
#     4   9  17  30  51  77 106 142 185 237 298 354
#     4  10  22  39  60  85 119 155 196 242 296 364
#     4  12  24  36  70  88 123 170 197 254 292 358
#
# _framework density 19.695578999999999
#
# number of rings (size 3 to 8) (size 9 to 14) (size 15 to 20)
#    0.000    1.793    3.448    0.828    0.966    2.483 
#    0.000    2.069    0.000    0.000    0.000    4.828 
#    0.000    0.000    0.000    0.000    0.000    0.000 
#
# Total GULP energy -323208.596358 kJ/mol
# GULP energy per Si atom -5572.562006 kJ/mol
# Density = 1.965075 g / cm^3
# Si number density = 19.695579 Si / 1000 Ang^3
#
#
#
# Elastic Constant Matrix: (Units=GPa)
#
#
# Indices 1 2 3 4 5 6 
#
# 1 66.2759 -1.2954 12.4563 0.0000 0.0000 0.0000
# 2 -1.2954 84.6899 16.7759 0.0000 0.0000 0.0000
# 3 12.4563 16.7759 69.2776 0.0000 0.0000 0.0000
# 4 0.0000 0.0000 0.0000 27.3265 0.0000 0.0000
# 5 0.0000 0.0000 0.0000 0.0000 2.1769 0.0000
# 6 0.0000 0.0000 0.0000 0.0000 0.0000 -2.8869
#
#
#
# Elastic Compliance Matrix: (Units=1/GPa)
#
#
# Indices 1 2 3 4 5 6 
#
# 1 0.015673 0.000838 -0.003021 0.000000 0.000000 0.000000
# 2 0.000838 0.012448 -0.003165 0.000000 0.000000 0.000000
# 3 -0.003021 -0.003165 0.015744 0.000000 0.000000 0.000000
# 4 0.000000 0.000000 0.000000 0.036595 0.000000 0.000000
# 5 0.000000 0.000000 0.000000 0.000000 0.459361 0.000000
# 6 0.000000 0.000000 0.000000 0.000000 0.000000 -0.346390
#
#
# Mechanical properties :
#
#
# Convention : Reuss Voigt Hill
#
# Bulk Modulus (GPa) = 30.14870 30.67967 30.41419
# Shear Modulus (GPa) = 23.23616 18.14375 20.68995
#
# Velocity S-wave (km/s) = 3.43850 3.03844 3.24464
# Velocity P-wave (km/s) = 5.57718 5.28396 5.43255
#
# Compressibility (1/GPa) = 0.03316892
#
# Stress axis : x y z
#
# Youngs Moduli (GPa) = 63.80569 80.33725 63.51524
#
# Poissons Ratio (x) = -0.06733 0.19187
# Poissons Ratio (y) = -0.05348 0.20102
# Poissons Ratio (z) = 0.19275 0.25426
#
# Static dielectric constant tensor:
#      x y z
#    x 1.722160 0.000000 0.000000 
#    y 0.000000 1.686430 0.000000 
#    z 0.000000 0.000000 1.655980 
# 
# From -- ./inp_files/24649.got.cif
#   From: 2010.05.17/outbox.cif.g08.bks.cpg/sg71_13_cif.got.tgz:24649.got - 2010.06.03 16:22:01.
