data_PCOD9521441
_publ_section_title
;
Structure prediction by ZEFSAII (Michael W. Deem and Ramdas Pophale) SiO2 
 PCOD9521441
Probable space group: I M M M
;
_chemical_formula_sum "Si O2"
_cell_formula_units_Z 88
_cell_length_a 9.493496
_cell_length_b 18.685398
_cell_length_c 25.777051
_cell_angle_alpha 90.000000
_cell_angle_beta 90.000000
_cell_angle_gamma 90.000000
_cell_volume 4572.584663
_symmetry_space_group_name_H-M "I M M M"
_symmetry_group_IT_number 71
_symmetry_cell_setting 'orthorhombic'
loop_
_space_group_symop_operation_xyz
x,y,z
-x,-y,z
x,-y,-z
-x,y,-z
-x,-y,-z
x,y,-z
-x,y,z
x,-y,z
1/2+x,1/2+y,1/2+z
1/2-x,1/2-y,1/2+z
1/2+x,1/2-y,1/2-z
1/2-x,1/2+y,1/2-z
1/2-x,1/2-y,1/2-z
1/2+x,1/2+y,1/2-z
1/2-x,1/2+y,1/2+z
1/2+x,1/2-y,1/2+z
loop_
_atom_site_type_symbol
_atom_site_label
_atom_site_fract_x
_atom_site_fract_y
_atom_site_fract_z
Si Si1 0.162351 0.583874 0.255636
Si Si2 0.671244 0.080331 0.365521
Si Si3 0.159363 0.795552 0.790035
Si Si4 0.840994 0.362529 0.561605
Si Si5 0.662722 0.500000 0.563594
Si Si6 0.338194 0.770349 0.595723
O O1 0.165268 0.500000 0.266983
O O2 0.208224 0.592304 0.195153
O O3 0.262611 0.628842 0.292256
O O4 0.000000 0.608975 0.259242
O O5 0.500000 0.080403 0.366219
O O6 0.713645 0.147456 0.400936
O O7 0.717682 0.000000 0.380458
O O8 0.250000 0.750000 0.750000
O O9 0.156291 0.756049 0.844754
O O10 0.000000 0.803969 0.771488
O O11 0.853010 0.373855 0.500000
O O12 0.745728 0.428727 0.580791
O O13 0.762953 0.287016 0.569297
O O14 0.000000 0.362811 0.583710
O O15 0.500000 0.500000 0.580709
O O16 0.660116 0.500000 0.500000
O O17 0.500000 0.767713 0.575416
#
# Coordination Sequence:
#
# PCOD9521441 Si02
#       6
#    16  16  16  16   8  16
#     4   9  17  32  52  71  97 137 179 216 258 306
#     4   8  14  28  51  75 100 132 173 218 257 299
#     4  11  21  33  50  74 106 140 175 216 260 308
#     4  10  21  37  57  81 108 137 172 215 263 314
#     4   9  17  33  59  85 107 135 171 211 257 309
#     4  10  20  34  53  78 104 137 179 217 263 316
#
# _framework density 19.245134
#
# number of rings (size 3 to 8) (size 9 to 14) (size 15 to 20)
#    0.000    2.455    1.818    2.455    0.000    4.000 
#    1.636    0.000    0.000    1.091    0.000    3.818 
#    0.000    0.000    0.000    0.000    0.000    0.000 
#
# Total GULP energy -245371.094237 kJ/mol
# GULP energy per Si atom -5576.615778 kJ/mol
# Density = 1.920133 g / cm^3
# Si number density = 19.245134 Si / 1000 Ang^3
#
#
#
# Elastic Constant Matrix: (Units=GPa)
#
#
# Indices 1 2 3 4 5 6 
#
# 1 112.0248 60.7128 13.4363 0.0000 0.0000 0.0000
# 2 60.7128 149.5503 7.1829 0.0000 0.0000 0.0000
# 3 13.4363 7.1829 11.0986 0.0000 0.0000 0.0000
# 4 0.0000 0.0000 0.0000 30.3106 0.0000 0.0000
# 5 0.0000 0.0000 0.0000 0.0000 20.1319 0.0000
# 6 0.0000 0.0000 0.0000 0.0000 0.0000 22.8884
#
#
#
# Elastic Compliance Matrix: (Units=1/GPa)
#
#
# Indices 1 2 3 4 5 6 
#
# 1 0.012973 -0.004657 -0.012691 0.000000 0.000000 0.000000
# 2 -0.004657 0.008573 0.000090 0.000000 0.000000 0.000000
# 3 -0.012691 0.000090 0.105408 0.000000 0.000000 0.000000
# 4 0.000000 0.000000 0.000000 0.032992 0.000000 0.000000
# 5 0.000000 0.000000 0.000000 0.000000 0.049672 0.000000
# 6 0.000000 0.000000 0.000000 0.000000 0.000000 0.043690
#
#
# Mechanical properties :
#
#
# Convention : Reuss Voigt Hill
#
# Bulk Modulus (GPa) = 10.81826 48.37085 29.59455
# Shear Modulus (GPa) = 15.69182 27.42230 21.55706
#
# Velocity S-wave (km/s) = 2.85856 3.77887 3.35047
# Velocity P-wave (km/s) = 4.06554 6.65045 5.51167
#
# Compressibility (1/GPa) = 0.09243632
#
# Stress axis : x y z
#
# Youngs Moduli (GPa) = 77.08521 116.64544 9.48695
#
# Poissons Ratio (x) = 0.54321 0.12040
# Poissons Ratio (y) = 0.35898 -0.00085
# Poissons Ratio (z) = 0.97831 -0.01044
#
# Static dielectric constant tensor:
#      x y z
#    x 1.664970 0.000000 0.000000 
#    y 0.000000 1.721530 0.000000 
#    z 0.000000 0.000000 1.680390 
# 
# From -- ./inp_files/8844.got.cif
#   From: 2010.05.17/outbox.cif.g08.bks.cpg/sg71_5_cif.got.tgz:8844.got - 2010.06.03 16:22:01.
