data_PCOD9521701
_publ_section_title
;
Structure prediction by ZEFSAII (Michael W. Deem and Ramdas Pophale) SiO2 
 PCOD9521701
Probable space group: I M M M
;
_chemical_formula_sum "Si O2"
_cell_formula_units_Z 64
_cell_length_a 8.339365
_cell_length_b 22.966351
_cell_length_c 17.572209
_cell_angle_alpha 90.000000
_cell_angle_beta 90.000000
_cell_angle_gamma 90.000000
_cell_volume 3365.513528
_symmetry_space_group_name_H-M "I M M M"
_symmetry_group_IT_number 71
_symmetry_cell_setting 'orthorhombic'
loop_
_space_group_symop_operation_xyz
x,y,z
-x,-y,z
x,-y,-z
-x,y,-z
-x,-y,-z
x,y,-z
-x,y,z
x,-y,z
1/2+x,1/2+y,1/2+z
1/2-x,1/2-y,1/2+z
1/2+x,1/2-y,1/2-z
1/2-x,1/2+y,1/2-z
1/2-x,1/2-y,1/2-z
1/2+x,1/2+y,1/2-z
1/2-x,1/2+y,1/2+z
1/2+x,1/2-y,1/2+z
loop_
_atom_site_type_symbol
_atom_site_label
_atom_site_fract_x
_atom_site_fract_y
_atom_site_fract_z
Si Si1 0.815930 0.138480 0.408502
Si Si2 0.000000 0.432459 0.092938
Si Si3 0.309834 0.378230 0.586788
Si Si4 0.689462 0.237522 0.165627
Si Si5 0.309581 0.000000 0.087911
O O1 0.819437 0.134634 0.500000
O O2 0.665713 0.098987 0.381946
O O3 0.779938 0.204748 0.384233
O O4 0.000000 0.124206 0.381948
O O5 0.000000 0.500000 0.115654
O O6 0.000000 0.430352 0.000000
O O7 0.244545 0.372973 0.500000
O O8 0.500000 0.382933 0.582736
O O9 0.266462 0.320413 0.631842
O O10 0.246601 0.438725 0.621659
O O11 0.500000 0.228319 0.166870
O O12 0.750000 0.250000 0.250000
O O13 0.500000 0.000000 0.085786
O O14 0.246552 0.000000 0.000000
#
# Coordination Sequence:
#
# PCOD9521701 Si02
#       5
#    16   8  16  16   8
#     4   9  19  35  56  82 112 144 182 228 276 329
#     4   9  18  32  56  86 112 141 178 224 276 330
#     4  10  20  34  56  84 112 145 184 227 277 331
#     4  11  23  37  55  79 110 146 186 230 278 331
#     4   9  17  31  53  81 113 145 180 225 272 325
#
# _framework density 19.016416
#
# number of rings (size 3 to 8) (size 9 to 14) (size 15 to 20)
#    0.000    2.250    0.000    2.625    3.500    4.500 
#    0.000    2.500    2.750    0.000    0.000    0.000 
#    0.000    0.000    0.000    0.000    0.000    0.000 
#
# Total GULP energy -178457.755797 kJ/mol
# GULP energy per Si atom -5576.804869 kJ/mol
# Density = 1.897313 g / cm^3
# Si number density = 19.016416 Si / 1000 Ang^3
#
#
#
# Elastic Constant Matrix: (Units=GPa)
#
#
# Indices 1 2 3 4 5 6 
#
# 1 118.2019 98.5653 14.7572 0.0000 0.0000 0.0000
# 2 98.5653 176.0828 30.1178 0.0000 0.0000 0.0000
# 3 14.7572 30.1178 22.3993 0.0000 0.0000 0.0000
# 4 0.0000 0.0000 0.0000 -5.9546 0.0000 0.0000
# 5 0.0000 0.0000 0.0000 0.0000 18.4781 0.0000
# 6 0.0000 0.0000 0.0000 0.0000 0.0000 42.4319
#
#
#
# Elastic Compliance Matrix: (Units=1/GPa)
#
#
# Indices 1 2 3 4 5 6 
#
# 1 0.015931 -0.009249 0.001941 0.000000 0.000000 0.000000
# 2 -0.009249 0.012746 -0.011044 0.000000 0.000000 0.000000
# 3 0.001941 -0.011044 0.058215 0.000000 0.000000 0.000000
# 4 0.000000 0.000000 0.000000 -0.167936 0.000000 0.000000
# 5 0.000000 0.000000 0.000000 0.000000 0.054118 0.000000
# 6 0.000000 0.000000 0.000000 0.000000 0.000000 0.023567
#
#
# Mechanical properties :
#
#
# Convention : Reuss Voigt Hill
#
# Bulk Modulus (GPa) = 19.92551 67.06272 43.49411
# Shear Modulus (GPa) = 99.85288 22.54065 61.19677
#
# Velocity S-wave (km/s) = 7.25416 3.44659 5.67899
# Velocity P-wave (km/s) = 8.98134 7.15408 8.11928
#
# Compressibility (1/GPa) = 0.05018692
#
# Stress axis : x y z
#
# Youngs Moduli (GPa) = 62.77217 78.45790 17.17774
#
# Poissons Ratio (x) = 0.72569 -0.03335
# Poissons Ratio (y) = 0.58061 0.18971
# Poissons Ratio (z) = -0.12186 0.86648
#
# Static dielectric constant tensor:
#      x y z
#    x 1.663790 0.000000 0.000000 
#    y 0.000000 1.649230 0.000000 
#    z 0.000000 0.000000 1.640960 
# 
# From -- ./inp_files/9543.got.cif
#   From: 2010.05.17/outbox.cif.g08.bks.cpg/sg71_5_cif.got.tgz:9543.got - 2010.06.03 16:22:01.
