data_PCOD9521064
_publ_section_title
;
Structure prediction by ZEFSAII (Michael W. Deem and Ramdas Pophale) SiO2 
 PCOD9521064
Probable space group: I M M M
;
_chemical_formula_sum "Si O2"
_cell_formula_units_Z 104
_cell_length_a 9.364718
_cell_length_b 22.550305
_cell_length_c 25.074944
_cell_angle_alpha 90.000000
_cell_angle_beta 90.000000
_cell_angle_gamma 90.000000
_cell_volume 5295.257646
_symmetry_space_group_name_H-M "I M M M"
_symmetry_group_IT_number 71
_symmetry_cell_setting 'orthorhombic'
loop_
_space_group_symop_operation_xyz
x,y,z
-x,-y,z
x,-y,-z
-x,y,-z
-x,-y,-z
x,y,-z
-x,y,z
x,-y,z
1/2+x,1/2+y,1/2+z
1/2-x,1/2-y,1/2+z
1/2+x,1/2-y,1/2-z
1/2-x,1/2+y,1/2-z
1/2-x,1/2-y,1/2-z
1/2+x,1/2+y,1/2-z
1/2-x,1/2+y,1/2+z
1/2+x,1/2-y,1/2+z
loop_
_atom_site_type_symbol
_atom_site_label
_atom_site_fract_x
_atom_site_fract_y
_atom_site_fract_z
Si Si1 0.172996 0.935054 0.648086
Si Si2 0.827190 0.932062 0.772997
Si Si3 0.665079 0.271868 0.411818
Si Si4 0.660137 0.888581 0.936490
Si Si5 0.166763 0.796025 0.211583
Si Si6 0.169614 0.156142 0.559099
Si Si7 0.837538 0.000000 0.065539
O O1 0.209683 0.927412 0.709956
O O2 0.220282 0.885793 0.606765
O O3 0.000000 0.934562 0.646442
O O4 0.222122 0.000000 0.630759
O O5 0.782490 0.865698 0.793253
O O6 0.000000 0.933362 0.779233
O O7 0.779736 0.000000 0.789863
O O8 0.500000 0.277596 0.427750
O O9 0.754314 0.328944 0.428367
O O10 0.671756 0.269324 0.347709
O O11 0.740508 0.215607 0.437102
O O12 0.500000 0.886709 0.914321
O O13 0.753801 0.942564 0.915111
O O14 0.648180 0.898622 0.000000
O O15 0.250000 0.750000 0.250000
O O16 0.000000 0.798785 0.229176
O O17 0.185320 0.129260 0.500000
O O18 0.000000 0.169005 0.566162
O O19 0.000000 0.000000 0.083889
O O20 0.840616 0.000000 0.000000
#
# Coordination Sequence:
#
# PCOD9521064 Si02
#       7
#    16  16  16  16  16  16   8
#     4   8  14  26  48  78 106 131 163 208 261 316
#     4   8  14  28  51  76 102 133 170 211 259 318
#     4  11  23  36  50  75 106 138 180 224 270 321
#     4  10  20  35  55  77 103 138 180 222 265 316
#     4  10  21  36  55  80 106 137 178 220 270 326
#     4  10  20  33  51  76 105 139 178 218 265 320
#     4   9  17  31  53  79 105 135 171 213 263 313
#
# _framework density 19.640215000000001
#
# number of rings (size 3 to 8) (size 9 to 14) (size 15 to 20)
#    0.000    2.538    0.000    3.462    0.000    6.769 
#    1.385    1.538    0.000    0.923    0.000    5.385 
#    0.000    0.000    0.000    0.000    0.000    0.000 
#
# Total GULP energy -289806.671685 kJ/mol
# GULP energy per Si atom -5573.205225 kJ/mol
# Density = 1.959551 g / cm^3
# Si number density = 19.640215 Si / 1000 Ang^3
#
#
#
# Elastic Constant Matrix: (Units=GPa)
#
#
# Indices 1 2 3 4 5 6 
#
# 1 70.6513 20.4253 10.1298 0.0000 0.0000 0.0000
# 2 20.4253 84.2130 15.3340 0.0000 0.0000 0.0000
# 3 10.1298 15.3340 37.4163 0.0000 0.0000 0.0000
# 4 0.0000 0.0000 0.0000 30.0091 0.0000 0.0000
# 5 0.0000 0.0000 0.0000 0.0000 16.4401 0.0000
# 6 0.0000 0.0000 0.0000 0.0000 0.0000 -9.0854
#
#
#
# Elastic Compliance Matrix: (Units=1/GPa)
#
#
# Indices 1 2 3 4 5 6 
#
# 1 0.015501 -0.003237 -0.002870 0.000000 0.000000 0.000000
# 2 -0.003237 0.013508 -0.004660 0.000000 0.000000 0.000000
# 3 -0.002870 -0.004660 0.029413 0.000000 0.000000 0.000000
# 4 0.000000 0.000000 0.000000 0.033323 0.000000 0.000000
# 5 0.000000 0.000000 0.000000 0.000000 0.060827 0.000000
# 6 0.000000 0.000000 0.000000 0.000000 0.000000 -0.110067
#
#
# Mechanical properties :
#
#
# Convention : Reuss Voigt Hill
#
# Bulk Modulus (GPa) = 27.10834 31.56206 29.33520
# Shear Modulus (GPa) = 65.50051 17.23220 41.36636
#
# Velocity S-wave (km/s) = 5.78123 2.96530 4.59432
# Velocity P-wave (km/s) = 7.64172 5.27532 6.56601
#
# Compressibility (1/GPa) = 0.03688902
#
# Stress axis : x y z
#
# Youngs Moduli (GPa) = 64.51032 74.02890 33.99865
#
# Poissons Ratio (x) = 0.23964 0.09758
# Poissons Ratio (y) = 0.20883 0.15842
# Poissons Ratio (z) = 0.18515 0.34494
#
# Static dielectric constant tensor:
#      x y z
#    x 1.643740 0.000000 0.000000 
#    y 0.000000 1.740060 0.000000 
#    z 0.000000 0.000000 1.741120 
# 
# From -- ./inp_files/63550.got.cif
#   From: 2010.05.17/outbox.cif.g08.bks.cpg/sg71_32_cif.got.tgz:63550.got - 2010.06.03 16:22:01.
