data_PCOD9521816
_publ_section_title
;
Structure prediction by ZEFSAII (Michael W. Deem and Ramdas Pophale) SiO2 
 PCOD9521816
Probable space group: I M M M
;
_chemical_formula_sum "Si O2"
_cell_formula_units_Z 120
_cell_length_a 18.696887
_cell_length_b 13.332497
_cell_length_c 25.504233
_cell_angle_alpha 90.000000
_cell_angle_beta 90.000000
_cell_angle_gamma 90.000000
_cell_volume 6357.598027
_symmetry_space_group_name_H-M "I M M M"
_symmetry_group_IT_number 71
_symmetry_cell_setting 'orthorhombic'
loop_
_space_group_symop_operation_xyz
x,y,z
-x,-y,z
x,-y,-z
-x,y,-z
-x,-y,-z
x,y,-z
-x,y,z
x,-y,z
1/2+x,1/2+y,1/2+z
1/2-x,1/2-y,1/2+z
1/2+x,1/2-y,1/2-z
1/2-x,1/2+y,1/2-z
1/2-x,1/2-y,1/2-z
1/2+x,1/2+y,1/2-z
1/2-x,1/2+y,1/2+z
1/2+x,1/2-y,1/2+z
loop_
_atom_site_type_symbol
_atom_site_label
_atom_site_fract_x
_atom_site_fract_y
_atom_site_fract_z
Si Si1 0.416345 0.697949 0.198665
Si Si2 0.200623 0.730317 0.558467
Si Si3 0.916493 0.112660 0.416611
Si Si4 0.328327 0.113989 0.562322
Si Si5 0.323795 0.882970 0.164094
Si Si6 0.415445 0.272896 0.393261
Si Si7 0.586847 0.386358 0.500000
Si Si8 0.665213 0.618123 0.299301
O O1 0.500000 0.703392 0.213455
O O2 0.410983 0.631213 0.145981
O O3 0.384298 0.806998 0.184350
O O4 0.369038 0.650998 0.244580
O O5 0.213115 0.689547 0.500000
O O6 0.129977 0.799578 0.558597
O O7 0.263087 0.809865 0.571696
O O8 0.193749 0.649036 0.604145
O O9 0.000000 0.120554 0.430650
O O10 0.891720 0.000000 0.430067
O O11 0.344532 0.116456 0.500000
O O12 0.393673 0.158544 0.595360
O O13 0.310351 0.000000 0.576204
O O14 0.250412 0.866176 0.196451
O O15 0.343114 0.000000 0.167189
O O16 0.500000 0.285150 0.386090
O O17 0.392585 0.330381 0.446751
O O18 0.373322 0.319037 0.344827
O O19 0.613102 0.500000 0.500000
O O20 0.500000 0.387909 0.500000
O O21 0.651942 0.500000 0.308277
#
# Coordination Sequence:
#
# PCOD9521816 Si02
#       8
#    16  16  16  16  16  16   8  16
#     4  10  21  38  61  87 118 154 194 242 294 353
#     4  10  20  36  57  84 119 154 195 239 285 346
#     4   9  18  33  55  85 117 148 187 238 298 355
#     4  10  20  35  54  75 106 152 198 237 284 342
#     4  10  22  40  62  88 119 156 196 237 290 350
#     4  11  21  34  52  79 112 148 194 245 294 348
#     4   9  18  32  49  73 109 149 187 234 294 348
#     4  11  22  38  61  89 118 151 194 244 298 348
#
# _framework density 18.875053999999999
#
# number of rings (size 3 to 8) (size 9 to 14) (size 15 to 20)
#    0.000    1.933    2.000    2.000    0.000    4.000 
#    0.000    2.000    0.000    1.600    0.000    3.733 
#    0.000    0.000    0.000    0.000    0.000    0.000 
#
# Total GULP energy -335029.671904 kJ/mol
# GULP energy per Si atom -5583.827865 kJ/mol
# Density = 1.883209 g / cm^3
# Si number density = 18.875054 Si / 1000 Ang^3
#
#
#
# Elastic Constant Matrix: (Units=GPa)
#
#
# Indices 1 2 3 4 5 6 
#
# 1 46.0379 16.0971 2.2580 0.0000 0.0000 0.0000
# 2 16.0971 56.3853 -5.9336 0.0000 0.0000 0.0000
# 3 2.2580 -5.9336 48.9902 0.0000 0.0000 0.0000
# 4 0.0000 0.0000 0.0000 15.8950 0.0000 0.0000
# 5 0.0000 0.0000 0.0000 0.0000 20.3534 0.0000
# 6 0.0000 0.0000 0.0000 0.0000 0.0000 22.3770
#
#
#
# Elastic Compliance Matrix: (Units=1/GPa)
#
#
# Indices 1 2 3 4 5 6 
#
# 1 0.024319 -0.007152 -0.001987 0.000000 0.000000 0.000000
# 2 -0.007152 0.020067 0.002760 0.000000 0.000000 0.000000
# 3 -0.001987 0.002760 0.020838 0.000000 0.000000 0.000000
# 4 0.000000 0.000000 0.000000 0.062913 0.000000 0.000000
# 5 0.000000 0.000000 0.000000 0.000000 0.049132 0.000000
# 6 0.000000 0.000000 0.000000 0.000000 0.000000 0.044689
#
#
# Mechanical properties :
#
#
# Convention : Reuss Voigt Hill
#
# Bulk Modulus (GPa) = 19.05959 19.58406 19.32183
# Shear Modulus (GPa) = 19.82515 20.99121 20.40818
#
# Velocity S-wave (km/s) = 3.24440 3.33846 3.29177
# Velocity P-wave (km/s) = 4.91473 5.02579 4.97057
#
# Compressibility (1/GPa) = 0.05246702
#
# Stress axis : x y z
#
# Youngs Moduli (GPa) = 41.11953 49.83224 47.98897
#
# Poissons Ratio (x) = 0.35640 0.09536
# Poissons Ratio (y) = 0.29408 -0.13246
# Poissons Ratio (z) = 0.08171 -0.13754
#
# Static dielectric constant tensor:
#      x y z
#    x 1.665320 0.000000 0.000000 
#    y 0.000000 1.635710 0.000000 
#    z 0.000000 0.000000 1.655920 
# 
# From -- ./inp_files/55835.got.cif
#   From: 2010.05.17/outbox.cif.g08.bks.cpg/sg71_28_cif.got.tgz:55835.got - 2010.06.03 16:22:01.
