data_PCOD9521211
_publ_section_title
;
Structure prediction by ZEFSAII (Michael W. Deem and Ramdas Pophale) SiO2 
 PCOD9521211
Probable space group: I M M M
;
_chemical_formula_sum "Si O2"
_cell_formula_units_Z 104
_cell_length_a 22.646133
_cell_length_b 13.981858
_cell_length_c 17.342492
_cell_angle_alpha 90.000000
_cell_angle_beta 90.000000
_cell_angle_gamma 90.000000
_cell_volume 5491.240229
_symmetry_space_group_name_H-M "I M M M"
_symmetry_group_IT_number 71
_symmetry_cell_setting 'orthorhombic'
loop_
_space_group_symop_operation_xyz
x,y,z
-x,-y,z
x,-y,-z
-x,y,-z
-x,-y,-z
x,y,-z
-x,y,z
x,-y,z
1/2+x,1/2+y,1/2+z
1/2-x,1/2-y,1/2+z
1/2+x,1/2-y,1/2-z
1/2-x,1/2+y,1/2-z
1/2-x,1/2-y,1/2-z
1/2+x,1/2+y,1/2-z
1/2-x,1/2+y,1/2+z
1/2+x,1/2-y,1/2+z
loop_
_atom_site_type_symbol
_atom_site_label
_atom_site_fract_x
_atom_site_fract_y
_atom_site_fract_z
Si Si1 0.736043 0.393146 0.652507
Si Si2 0.155473 0.388944 0.770488
Si Si3 0.566938 0.257400 0.198207
Si Si4 0.853256 0.890574 0.592381
Si Si5 0.068831 0.884478 0.000000
Si Si6 0.397429 0.389647 0.331402
Si Si7 0.276173 0.190645 0.587747
O O1 0.739598 0.500000 0.617112
O O2 0.787318 0.383150 0.714981
O O3 0.671475 0.387245 0.691376
O O4 0.738638 0.303085 0.596205
O O5 0.142184 0.500000 0.784178
O O6 0.102920 0.334978 0.726796
O O7 0.174819 0.338447 0.849911
O O8 0.500000 0.237552 0.173477
O O9 0.604625 0.315517 0.134927
O O10 0.566813 0.326188 0.272806
O O11 0.861685 0.885117 0.500000
O O12 0.784591 0.865282 0.606835
O O13 0.865321 0.000000 0.617458
O O14 0.097706 0.853886 0.080325
O O15 0.000000 0.858247 0.000000
O O16 0.073004 0.000000 0.000000
O O17 0.417355 0.500000 0.329720
O O18 0.293097 0.168439 0.500000
#
# Coordination Sequence:
#
# PCOD9521211 Si02
#       7
#    16  16  16  16   8  16  16
#     4  10  20  35  60  88 117 153 190 243 308 361
#     4  11  23  41  61  84 118 158 203 253 304 356
#     4  12  24  39  61  85 113 158 209 250 297 361
#     4  10  22  40  63  94 127 155 191 248 313 374
#     4   9  18  32  48  72 117 163 188 218 272 341
#     4  10  20  33  53  84 116 149 192 238 291 360
#     4  11  21  37  63  93 125 159 195 241 306 375
#
# _framework density 18.939254999999999
#
# number of rings (size 3 to 8) (size 9 to 14) (size 15 to 20)
#    0.000    1.462    3.077    2.769    1.077    4.923 
#    0.000    0.769    0.000    0.462    0.000    2.154 
#    0.000    0.000    0.000    0.000    0.000    0.000 
#
# Total GULP energy -290468.669552 kJ/mol
# GULP energy per Si atom -5585.935953 kJ/mol
# Density = 1.889615 g / cm^3
# Si number density = 18.939255 Si / 1000 Ang^3
#
#
#
# Elastic Constant Matrix: (Units=GPa)
#
#
# Indices 1 2 3 4 5 6 
#
# 1 82.2169 31.3422 17.2632 0.0000 0.0000 0.0000
# 2 31.3422 111.5286 33.3194 0.0000 0.0000 0.0000
# 3 17.2632 33.3194 49.7846 0.0000 0.0000 0.0000
# 4 0.0000 0.0000 0.0000 17.3595 0.0000 0.0000
# 5 0.0000 0.0000 0.0000 0.0000 13.4105 0.0000
# 6 0.0000 0.0000 0.0000 0.0000 0.0000 15.8165
#
#
#
# Elastic Compliance Matrix: (Units=1/GPa)
#
#
# Indices 1 2 3 4 5 6 
#
# 1 0.013919 -0.003087 -0.002761 0.000000 0.000000 0.000000
# 2 -0.003087 0.011892 -0.006888 0.000000 0.000000 0.000000
# 3 -0.002761 -0.006888 0.025654 0.000000 0.000000 0.000000
# 4 0.000000 0.000000 0.000000 0.057605 0.000000 0.000000
# 5 0.000000 0.000000 0.000000 0.000000 0.074568 0.000000
# 6 0.000000 0.000000 0.000000 0.000000 0.000000 0.063225
#
#
# Mechanical properties :
#
#
# Convention : Reuss Voigt Hill
#
# Bulk Modulus (GPa) = 38.47162 45.26440 41.86801
# Shear Modulus (GPa) = 17.79357 20.09099 18.94228
#
# Velocity S-wave (km/s) = 3.06846 3.26054 3.16596
# Velocity P-wave (km/s) = 5.73683 6.17467 5.95977
#
# Compressibility (1/GPa) = 0.02599318
#
# Stress axis : x y z
#
# Youngs Moduli (GPa) = 71.84224 84.09212 38.98032
#
# Poissons Ratio (x) = 0.25959 0.10761
# Poissons Ratio (y) = 0.22177 0.26851
# Poissons Ratio (z) = 0.19833 0.57926
#
# Static dielectric constant tensor:
#      x y z
#    x 1.660100 0.000000 0.000000 
#    y 0.000000 1.676140 0.000000 
#    z 0.000000 0.000000 1.660580 
# 
# From -- ./inp_files/47304.got.cif
#   From: 2010.05.17/outbox.cif.g08.bks.cpg/sg71_24_cif.got.tgz:47304.got - 2010.06.03 16:22:01.
