data_PCOD9521153
_publ_section_title
;
Structure prediction by ZEFSAII (Michael W. Deem and Ramdas Pophale) SiO2 
 PCOD9521153
Probable space group: I M M M
;
_chemical_formula_sum "Si O2"
_cell_formula_units_Z 116
_cell_length_a 7.711084
_cell_length_b 27.761185
_cell_length_c 29.383938
_cell_angle_alpha 90.000000
_cell_angle_beta 90.000000
_cell_angle_gamma 90.000000
_cell_volume 6290.185213
_symmetry_space_group_name_H-M "I M M M"
_symmetry_group_IT_number 71
_symmetry_cell_setting 'orthorhombic'
loop_
_space_group_symop_operation_xyz
x,y,z
-x,-y,z
x,-y,-z
-x,y,-z
-x,-y,-z
x,y,-z
-x,y,z
x,-y,z
1/2+x,1/2+y,1/2+z
1/2-x,1/2-y,1/2+z
1/2+x,1/2-y,1/2-z
1/2-x,1/2+y,1/2-z
1/2-x,1/2-y,1/2-z
1/2+x,1/2+y,1/2-z
1/2-x,1/2+y,1/2+z
1/2+x,1/2-y,1/2+z
loop_
_atom_site_type_symbol
_atom_site_label
_atom_site_fract_x
_atom_site_fract_y
_atom_site_fract_z
Si Si1 0.294174 0.444751 0.209116
Si Si2 0.711397 0.181063 0.550392
Si Si3 0.210444 0.360475 0.145085
Si Si4 0.798817 0.579600 0.691248
Si Si5 0.799588 0.318344 0.647961
Si Si6 0.305806 0.228132 0.702092
Si Si7 0.500000 0.500000 0.327190
Si Si8 0.790524 0.206630 0.949424
O O1 0.500000 0.446152 0.218494
O O2 0.235780 0.500000 0.203556
O O3 0.260865 0.411482 0.165901
O O4 0.207509 0.422395 0.253878
O O5 0.768192 0.165036 0.500000
O O6 0.500000 0.180461 0.550256
O O7 0.770969 0.151085 0.593939
O O8 0.761210 0.237223 0.555911
O O9 0.280333 0.318328 0.178754
O O10 0.000000 0.358053 0.143764
O O11 0.750685 0.632535 0.673025
O O12 0.654955 0.541711 0.674934
O O13 0.000000 0.569577 0.677295
O O14 0.699439 0.271750 0.666098
O O15 0.777566 0.322111 0.593784
O O16 0.000000 0.308767 0.658977
O O17 0.500000 0.211846 0.710691
O O18 0.250000 0.250000 0.750000
O O19 0.000000 0.205025 0.948218
O O20 0.735262 0.190711 0.000000
#
# Coordination Sequence:
#
# PCOD9521153 Si02
#       8
#    16  16  16  16  16  16   4  16
#     4  11  22  38  56  78 107 146 194 240 290 339
#     4   8  14  29  52  77 105 139 181 229 281 339
#     4  10  20  33  52  79 105 142 186 232 288 339
#     4  11  23  39  59  87 117 150 194 245 286 339
#     4  11  23  35  53  82 117 151 186 228 284 339
#     4  11  22  35  50  73 112 151 186 225 271 346
#     4  12  22  40  64  86 113 154 199 236 298 332
#     4   9  17  32  56  81 110 149 188 229 277 335
#
# _framework density 18.441427999999998
#
# number of rings (size 3 to 8) (size 9 to 14) (size 15 to 20)
#    0.000    1.793    2.759    3.103    1.931    5.517 
#    0.000    0.000    0.000    0.828    0.000    3.862 
#    0.000    2.207    0.000    0.000    0.000    0.000 
#
# Total GULP energy -323077.734393 kJ/mol
# GULP energy per Si atom -5570.305765 kJ/mol
# Density = 1.839945 g / cm^3
# Si number density = 18.441428 Si / 1000 Ang^3
#
#
#
# Elastic Constant Matrix: (Units=GPa)
#
#
# Indices 1 2 3 4 5 6 
#
# 1 43.7201 5.0629 2.2216 0.0000 0.0000 0.0000
# 2 5.0629 91.5527 65.7455 0.0000 0.0000 0.0000
# 3 2.2216 65.7455 132.0530 0.0000 0.0000 0.0000
# 4 0.0000 0.0000 0.0000 15.3880 0.0000 0.0000
# 5 0.0000 0.0000 0.0000 0.0000 18.3328 0.0000
# 6 0.0000 0.0000 0.0000 0.0000 0.0000 21.3677
#
#
#
# Elastic Compliance Matrix: (Units=1/GPa)
#
#
# Indices 1 2 3 4 5 6 
#
# 1 0.023033 -0.001549 0.000384 0.000000 0.000000 0.000000
# 2 -0.001549 0.017105 -0.008490 0.000000 0.000000 0.000000
# 3 0.000384 -0.008490 0.011793 0.000000 0.000000 0.000000
# 4 0.000000 0.000000 0.000000 0.064986 0.000000 0.000000
# 5 0.000000 0.000000 0.000000 0.000000 0.054547 0.000000
# 6 0.000000 0.000000 0.000000 0.000000 0.000000 0.046800
#
#
# Mechanical properties :
#
#
# Convention : Reuss Voigt Hill
#
# Bulk Modulus (GPa) = 30.65609 45.93175 38.29392
# Shear Modulus (GPa) = 20.12490 23.97074 22.04782
#
# Velocity S-wave (km/s) = 3.30705 3.60923 3.46144
# Velocity P-wave (km/s) = 5.58942 6.50612 6.06512
#
# Compressibility (1/GPa) = 0.03261994
#
# Stress axis : x y z
#
# Youngs Moduli (GPa) = 43.41650 58.46147 84.79400
#
# Poissons Ratio (x) = 0.09058 -0.03255
# Poissons Ratio (y) = 0.06727 0.71992
# Poissons Ratio (z) = -0.01667 0.49635
#
# Static dielectric constant tensor:
#      x y z
#    x 1.696370 0.000000 0.000000 
#    y 0.000000 1.619540 0.000000 
#    z 0.000000 0.000000 1.657860 
# 
# From -- ./inp_files/63820.got.cif
#   From: 2010.05.17/outbox.cif.g08.bks.cpg/sg71_32_cif.got.tgz:63820.got - 2010.06.03 16:22:01.
