data_PCOD9521832
_publ_section_title
;
Structure prediction by ZEFSAII (Michael W. Deem and Ramdas Pophale) SiO2 
 PCOD9521832
Probable space group: I M M M
;
_chemical_formula_sum "Si O2"
_cell_formula_units_Z 72
_cell_length_a 15.469794
_cell_length_b 7.806028
_cell_length_c 29.309140
_cell_angle_alpha 90.000000
_cell_angle_beta 90.000000
_cell_angle_gamma 90.000000
_cell_volume 3539.302727
_symmetry_space_group_name_H-M "I M M M"
_symmetry_group_IT_number 71
_symmetry_cell_setting 'orthorhombic'
loop_
_space_group_symop_operation_xyz
x,y,z
-x,-y,z
x,-y,-z
-x,y,-z
-x,-y,-z
x,y,-z
-x,y,z
x,-y,z
1/2+x,1/2+y,1/2+z
1/2-x,1/2-y,1/2+z
1/2+x,1/2-y,1/2-z
1/2-x,1/2+y,1/2-z
1/2-x,1/2-y,1/2-z
1/2+x,1/2+y,1/2-z
1/2-x,1/2+y,1/2+z
1/2+x,1/2-y,1/2+z
loop_
_atom_site_type_symbol
_atom_site_label
_atom_site_fract_x
_atom_site_fract_y
_atom_site_fract_z
Si Si1 0.396381 0.701855 0.550006
Si Si2 0.171131 0.305891 0.856898
Si Si3 0.637513 0.293234 0.130016
Si Si4 0.500000 0.796741 0.052665
Si Si5 0.000000 0.701541 0.809414
Si Si6 0.000000 0.207055 0.704942
O O1 0.365108 0.754274 0.500000
O O2 0.500000 0.715914 0.550565
O O3 0.376005 0.500000 0.556398
O O4 0.359292 0.808316 0.590970
O O5 0.181800 0.500000 0.838600
O O6 0.266097 0.224880 0.860893
O O7 0.089862 0.225002 0.829803
O O8 0.642628 0.500000 0.129091
O O9 0.584006 0.248766 0.083976
O O10 0.580845 0.241884 0.173692
O O11 0.500000 0.000000 0.048867
O O12 0.500000 0.727884 0.000000
O O13 0.000000 0.500000 0.822885
O O14 0.000000 0.718628 0.755252
O O15 0.000000 0.000000 0.708941
#
# Coordination Sequence:
#
# PCOD9521832 Si02
#       6
#    16  16  16   8   8   8
#     4   9  18  32  49  71 103 141 177 214 257 305
#     4  10  20  35  54  79 109 142 179 220 265 314
#     4   9  20  38  58  79 108 143 179 219 265 319
#     4  10  21  37  58  85 113 140 175 222 270 313
#     4  10  21  35  53  79 110 139 174 222 268 315
#     4   9  19  37  56  75 100 136 180 223 270 323
#
# _framework density 20.34299
#
# number of rings (size 3 to 8) (size 9 to 14) (size 15 to 20)
#    0.000    2.556    1.111    1.667    0.000    6.667 
#    0.000    5.556    0.000    0.000    0.000    0.000 
#    0.000    0.000    0.000    0.000    0.000    0.000 
#
# Total GULP energy -200551.191893 kJ/mol
# GULP energy per Si atom -5570.866441 kJ/mol
# Density = 2.029669 g / cm^3
# Si number density = 20.342990 Si / 1000 Ang^3
#
#
#
# Elastic Constant Matrix: (Units=GPa)
#
#
# Indices 1 2 3 4 5 6 
#
# 1 168.2528 20.1249 86.8622 0.0000 0.0000 0.0000
# 2 20.1249 25.8684 5.5202 0.0000 0.0000 0.0000
# 3 86.8622 5.5202 141.7597 0.0000 0.0000 0.0000
# 4 0.0000 0.0000 0.0000 27.7000 0.0000 0.0000
# 5 0.0000 0.0000 0.0000 0.0000 0.5167 0.0000
# 6 0.0000 0.0000 0.0000 0.0000 0.0000 27.9370
#
#
#
# Elastic Compliance Matrix: (Units=1/GPa)
#
#
# Indices 1 2 3 4 5 6 
#
# 1 0.009606 -0.006269 -0.005642 0.000000 0.000000 0.000000
# 2 -0.006269 0.043073 0.002164 0.000000 0.000000 0.000000
# 3 -0.005642 0.002164 0.010427 0.000000 0.000000 0.000000
# 4 0.000000 0.000000 0.000000 0.036101 0.000000 0.000000
# 5 0.000000 0.000000 0.000000 0.000000 1.935472 0.000000
# 6 0.000000 0.000000 0.000000 0.000000 0.000000 0.035795
#
#
# Mechanical properties :
#
#
# Convention : Reuss Voigt Hill
#
# Bulk Modulus (GPa) = 22.92962 62.32171 42.62567
# Shear Modulus (GPa) = 2.37586 26.12231 14.24908
#
# Velocity S-wave (km/s) = 1.08187 3.58731 2.64946
# Velocity P-wave (km/s) = 3.58560 6.91812 5.50985
#
# Compressibility (1/GPa) = 0.04361170
#
# Stress axis : x y z
#
# Youngs Moduli (GPa) = 104.10189 23.21657 95.90560
#
# Poissons Ratio (x) = 0.14555 0.54109
# Poissons Ratio (y) = 0.65264 -0.20755
# Poissons Ratio (z) = 0.58733 -0.05024
#
# Static dielectric constant tensor:
#      x y z
#    x 1.795390 0.000000 0.000000 
#    y 0.000000 1.756890 0.000000 
#    z 0.000000 0.000000 1.685300 
# 
# From -- ./inp_files/31463.got.cif
#   From: 2010.05.17/outbox.cif.g08.bks.cpg/sg71_16_cif.got.tgz:31463.got - 2010.06.03 16:22:01.
