data_PCOD9521741
_publ_section_title
;
Structure prediction by ZEFSAII (Michael W. Deem and Ramdas Pophale) SiO2 
 PCOD9521741
Probable space group: I M M M
;
_chemical_formula_sum "Si O2"
_cell_formula_units_Z 82
_cell_length_a 22.685084
_cell_length_b 21.828856
_cell_length_c 9.354293
_cell_angle_alpha 90.000000
_cell_angle_beta 90.000000
_cell_angle_gamma 90.000000
_cell_volume 4632.147037
_symmetry_space_group_name_H-M "I M M M"
_symmetry_group_IT_number 71
_symmetry_cell_setting 'orthorhombic'
loop_
_space_group_symop_operation_xyz
x,y,z
-x,-y,z
x,-y,-z
-x,y,-z
-x,-y,-z
x,y,-z
-x,y,z
x,-y,z
1/2+x,1/2+y,1/2+z
1/2-x,1/2-y,1/2+z
1/2+x,1/2-y,1/2-z
1/2-x,1/2+y,1/2-z
1/2-x,1/2-y,1/2-z
1/2+x,1/2+y,1/2-z
1/2-x,1/2+y,1/2+z
1/2+x,1/2-y,1/2+z
loop_
_atom_site_type_symbol
_atom_site_label
_atom_site_fract_x
_atom_site_fract_y
_atom_site_fract_z
Si Si1 0.846812 0.619860 0.333237
Si Si2 0.500000 0.573023 0.828775
Si Si3 0.903417 0.847314 0.831418
Si Si4 0.000000 0.500000 0.000000
Si Si5 0.122103 0.500000 0.157118
Si Si6 0.433147 0.794371 0.665602
Si Si7 0.772610 0.810247 0.168077
O O1 0.859831 0.611010 0.500000
O O2 0.860454 0.559728 0.243979
O O3 0.887266 0.673703 0.269144
O O4 0.779110 0.640293 0.319230
O O5 0.500000 0.500000 0.800578
O O6 0.442966 0.605980 0.758589
O O7 0.500000 0.582188 0.000000
O O8 0.930210 0.778864 0.821046
O O9 0.835454 0.837689 0.784491
O O10 0.904510 0.864736 0.000000
O O11 0.947404 0.500000 0.121819
O O12 0.151389 0.500000 0.000000
O O13 0.418817 0.809867 0.500000
O O14 0.500000 0.815378 0.692877
O O15 0.750000 0.750000 0.250000
O O16 0.779999 0.794015 0.000000
#
# Coordination Sequence:
#
# PCOD9521741 Si02
#       7
#    16   8  16   2   8  16  16
#     4  11  23  38  58  88 123 157 197 253 309 360
#     4  11  25  43  62  89 125 160 198 262 320 363
#     4  10  20  39  63  88 117 158 205 245 294 365
#     4   8  24  44  66  80 104 148 222 246 290 364
#     4  10  23  43  63  81 111 161 205 252 293 361
#     4  10  20  34  57  86 117 152 197 246 294 359
#     4  10  21  37  60  90 124 158 198 246 302 362
#
# _framework density 17.702373999999999
#
# number of rings (size 3 to 8) (size 9 to 14) (size 15 to 20)
#    0.293    1.463    2.927    1.171    1.366    3.512 
#    1.756    0.488    0.000    0.000    0.000    0.000 
#    0.000    0.000    0.000    0.000    0.000    0.000 
#
# Total GULP energy -228532.064843 kJ/mol
# GULP energy per Si atom -5573.952801 kJ/mol
# Density = 1.766208 g / cm^3
# Si number density = 17.702374 Si / 1000 Ang^3
#
#
#
# Elastic Constant Matrix: (Units=GPa)
#
#
# Indices 1 2 3 4 5 6 
#
# 1 140.2106 53.4061 76.4476 0.0000 0.0000 0.0000
# 2 53.4061 93.5456 67.7914 0.0000 0.0000 0.0000
# 3 76.4476 67.7914 104.4003 0.0000 0.0000 0.0000
# 4 0.0000 0.0000 0.0000 16.5725 0.0000 0.0000
# 5 0.0000 0.0000 0.0000 0.0000 27.9178 0.0000
# 6 0.0000 0.0000 0.0000 0.0000 0.0000 6.7862
#
#
#
# Elastic Compliance Matrix: (Units=1/GPa)
#
#
# Indices 1 2 3 4 5 6 
#
# 1 0.011913 -0.000906 -0.008135 0.000000 0.000000 0.000000
# 2 -0.000906 0.020260 -0.012493 0.000000 0.000000 0.000000
# 3 -0.008135 -0.012493 0.023647 0.000000 0.000000 0.000000
# 4 0.000000 0.000000 0.000000 0.060341 0.000000 0.000000
# 5 0.000000 0.000000 0.000000 0.000000 0.035819 0.000000
# 6 0.000000 0.000000 0.000000 0.000000 0.000000 0.147357
#
#
# Mechanical properties :
#
#
# Convention : Reuss Voigt Hill
#
# Bulk Modulus (GPa) = 78.40880 81.49407 79.95144
# Shear Modulus (GPa) = 14.42355 19.62272 17.02314
#
# Velocity S-wave (km/s) = 2.85753 3.33300 3.10438
# Velocity P-wave (km/s) = 7.43480 7.80688 7.62311
#
# Compressibility (1/GPa) = 0.01275367
#
# Stress axis : x y z
#
# Youngs Moduli (GPa) = 83.94519 49.35748 42.28811
#
# Poissons Ratio (x) = 0.04471 0.34401
# Poissons Ratio (y) = 0.07603 0.52829
# Poissons Ratio (z) = 0.68288 0.61661
#
# Static dielectric constant tensor:
#      x y z
#    x 1.627910 0.000000 0.000000 
#    y 0.000000 1.567890 0.000000 
#    z 0.000000 0.000000 1.600020 
# 
# From -- ./inp_files/12448.got.cif
#   From: 2010.05.17/outbox.cif.g08.bks.cpg/sg71_7_cif.got.tgz:12448.got - 2010.06.03 16:22:01.
