data_PCOD9521602
_publ_section_title
;
Structure prediction by ZEFSAII (Michael W. Deem and Ramdas Pophale) SiO2 
 PCOD9521602
Probable space group: I M M M
;
_chemical_formula_sum "Si O2"
_cell_formula_units_Z 104
_cell_length_a 28.782876
_cell_length_b 8.548655
_cell_length_c 23.540565
_cell_angle_alpha 90.000000
_cell_angle_beta 90.000000
_cell_angle_gamma 90.000000
_cell_volume 5792.270822
_symmetry_space_group_name_H-M "I M M M"
_symmetry_group_IT_number 71
_symmetry_cell_setting 'orthorhombic'
loop_
_space_group_symop_operation_xyz
x,y,z
-x,-y,z
x,-y,-z
-x,y,-z
-x,-y,-z
x,y,-z
-x,y,z
x,-y,z
1/2+x,1/2+y,1/2+z
1/2-x,1/2-y,1/2+z
1/2+x,1/2-y,1/2-z
1/2-x,1/2+y,1/2-z
1/2-x,1/2-y,1/2-z
1/2+x,1/2+y,1/2-z
1/2-x,1/2+y,1/2+z
1/2+x,1/2-y,1/2+z
loop_
_atom_site_type_symbol
_atom_site_label
_atom_site_fract_x
_atom_site_fract_y
_atom_site_fract_z
Si Si1 0.352582 0.810493 0.124162
Si Si2 0.947223 0.309579 0.433893
Si Si3 0.904372 0.811971 0.064830
Si Si4 0.817720 0.812567 0.140432
Si Si5 0.735353 0.687481 0.064214
Si Si6 0.197743 0.313590 0.740489
Si Si7 0.500000 0.185927 0.433559
O O1 0.404613 0.758911 0.106501
O O2 0.315908 0.749902 0.077833
O O3 0.330728 0.758316 0.184896
O O4 0.352389 0.000000 0.124125
O O5 0.938780 0.264450 0.500000
O O6 0.947370 0.500000 0.432833
O O7 0.000000 0.259361 0.418494
O O8 0.859368 0.764792 0.099243
O O9 0.952236 0.750347 0.090963
O O10 0.906205 0.000000 0.063549
O O11 0.900559 0.754034 0.000000
O O12 0.770205 0.757030 0.110940
O O13 0.826422 0.737704 0.201443
O O14 0.816087 0.000000 0.145806
O O15 0.736071 0.500000 0.068172
O O16 0.749362 0.733233 0.000000
O O17 0.201206 0.500000 0.736265
O O18 0.250000 0.250000 0.750000
O O19 0.500000 0.239061 0.500000
O O20 0.500000 0.000000 0.432341
#
# Coordination Sequence:
#
# PCOD9521602 Si02
#       7
#    16  16  16  16  16  16   8
#     4  10  20  34  55  79 104 141 183 219 262 320
#     4   8  14  27  51  83 112 135 167 217 272 322
#     4   9  18  33  53  76 102 134 173 215 262 319
#     4  11  22  36  55  77 102 140 182 222 268 317
#     4  11  23  35  50  77 111 142 171 214 270 321
#     4  11  22  36  54  76 104 141 183 224 264 312
#     4   9  17  29  49  77 105 133 165 205 258 315
#
# _framework density 17.954961000000001
#
# number of rings (size 3 to 8) (size 9 to 14) (size 15 to 20)
#    0.000    2.077    1.538    3.000    0.000    5.231 
#    0.000    1.538    1.692    0.462    0.000    2.154 
#    0.000    0.000    0.000    0.000    0.000    0.000 
#
# Total GULP energy -289978.035848 kJ/mol
# GULP energy per Si atom -5576.500689 kJ/mol
# Density = 1.791409 g / cm^3
# Si number density = 17.954961 Si / 1000 Ang^3
#
#
#
# Elastic Constant Matrix: (Units=GPa)
#
#
# Indices 1 2 3 4 5 6 
#
# 1 140.6347 14.7637 47.3672 0.0000 0.0000 0.0000
# 2 14.7637 8.9597 14.0453 0.0000 0.0000 0.0000
# 3 47.3672 14.0453 94.2589 0.0000 0.0000 0.0000
# 4 0.0000 0.0000 0.0000 20.8971 0.0000 0.0000
# 5 0.0000 0.0000 0.0000 0.0000 17.8091 0.0000
# 6 0.0000 0.0000 0.0000 0.0000 0.0000 2.8506
#
#
#
# Elastic Compliance Matrix: (Units=1/GPa)
#
#
# Indices 1 2 3 4 5 6 
#
# 1 0.009243 -0.010372 -0.003099 0.000000 0.000000 0.000000
# 2 -0.010372 0.157266 -0.018221 0.000000 0.000000 0.000000
# 3 -0.003099 -0.018221 0.014882 0.000000 0.000000 0.000000
# 4 0.000000 0.000000 0.000000 0.047853 0.000000 0.000000
# 5 0.000000 0.000000 0.000000 0.000000 0.056151 0.000000
# 6 0.000000 0.000000 0.000000 0.000000 0.000000 0.350809
#
#
# Mechanical properties :
#
#
# Convention : Reuss Voigt Hill
#
# Bulk Modulus (GPa) = 8.47427 44.02285 26.24856
# Shear Modulus (GPa) = 6.76658 19.48984 13.12821
#
# Velocity S-wave (km/s) = 1.94341 3.29824 2.70696
# Velocity P-wave (km/s) = 3.12502 6.25110 4.94176
#
# Compressibility (1/GPa) = 0.11800421
#
# Stress axis : x y z
#
# Youngs Moduli (GPa) = 108.18482 6.35867 67.19644
#
# Poissons Ratio (x) = 0.06595 0.20827
# Poissons Ratio (y) = 1.12214 1.22441
# Poissons Ratio (z) = 0.33531 0.11586
#
# Static dielectric constant tensor:
#      x y z
#    x 1.637790 0.000000 0.000000 
#    y 0.000000 1.605060 0.000000 
#    z 0.000000 0.000000 1.831440 
# 
# From -- ./inp_files/56659.got.cif
#   From: 2010.05.17/outbox.cif.g08.bks.cpg/sg71_29_cif.got.tgz:56659.got - 2010.06.03 16:22:01.
