data_PCOD9521932
_publ_section_title
;
Structure prediction by ZEFSAII (Michael W. Deem and Ramdas Pophale) SiO2 
 PCOD9521932
Probable space group: I M M M
;
_chemical_formula_sum "Si O2"
_cell_formula_units_Z 88
_cell_length_a 13.480891
_cell_length_b 16.319847
_cell_length_c 23.532328
_cell_angle_alpha 90.000000
_cell_angle_beta 90.000000
_cell_angle_gamma 90.000000
_cell_volume 5177.255202
_symmetry_space_group_name_H-M "I M M M"
_symmetry_group_IT_number 71
_symmetry_cell_setting 'orthorhombic'
loop_
_space_group_symop_operation_xyz
x,y,z
-x,-y,z
x,-y,-z
-x,y,-z
-x,-y,-z
x,y,-z
-x,y,z
x,-y,z
1/2+x,1/2+y,1/2+z
1/2-x,1/2-y,1/2+z
1/2+x,1/2-y,1/2-z
1/2-x,1/2+y,1/2-z
1/2-x,1/2-y,1/2-z
1/2+x,1/2+y,1/2-z
1/2-x,1/2+y,1/2+z
1/2+x,1/2-y,1/2+z
loop_
_atom_site_type_symbol
_atom_site_label
_atom_site_fract_x
_atom_site_fract_y
_atom_site_fract_z
Si Si1 0.382864 0.697164 0.158212
Si Si2 0.115186 0.093990 0.229738
Si Si3 0.736452 0.596626 0.067540
Si Si4 0.758921 0.644444 0.629055
Si Si5 0.388876 0.765098 0.432196
Si Si6 0.618890 0.000000 0.931505
O O1 0.500000 0.708054 0.153885
O O2 0.360558 0.653411 0.218011
O O3 0.345414 0.638812 0.107171
O O4 0.328591 0.783923 0.153542
O O5 0.192212 0.105724 0.178782
O O6 0.000000 0.109093 0.212067
O O7 0.120043 0.000000 0.249824
O O8 0.745884 0.500000 0.078382
O O9 0.835882 0.648374 0.081026
O O10 0.715525 0.607530 0.000000
O O11 0.681217 0.692466 0.589091
O O12 0.825466 0.578485 0.595739
O O13 0.394318 0.760040 0.500000
O O14 0.500000 0.760176 0.408484
O O15 0.500000 0.000000 0.919319
O O16 0.630156 0.000000 0.000000
#
# Coordination Sequence:
#
# PCOD9521932 Si02
#       6
#    16  16  16  16  16   8
#     4  10  21  35  54  79 108 144 185 228 274 330
#     4  10  20  35  56  82 108 138 179 225 279 334
#     4   9  18  32  51  77 108 143 181 222 272 329
#     4  11  20  37  56  79 107 144 184 228 278 330
#     4   9  18  32  51  76 106 139 176 222 273 329
#     4  11  24  40  59  83 113 149 189 234 282 332
#
# _framework density 16.997423999999999
#
# number of rings (size 3 to 8) (size 9 to 14) (size 15 to 20)
#    0.000    2.091    0.909    2.727    0.000    2.545 
#    0.000    2.727    0.000    3.273    0.000    0.000 
#    0.000    0.000    0.000    0.000    0.000    0.000 
#
# Total GULP energy -245354.458289 kJ/mol
# GULP energy per Si atom -5576.237688 kJ/mol
# Density = 1.695874 g / cm^3
# Si number density = 16.997424 Si / 1000 Ang^3
#
#
#
# Elastic Constant Matrix: (Units=GPa)
#
#
# Indices 1 2 3 4 5 6 
#
# 1 104.7169 50.7015 53.0190 0.0000 0.0000 0.0000
# 2 50.7015 120.1325 46.5454 0.0000 0.0000 0.0000
# 3 53.0190 46.5454 64.3468 0.0000 0.0000 0.0000
# 4 0.0000 0.0000 0.0000 26.9992 0.0000 0.0000
# 5 0.0000 0.0000 0.0000 0.0000 29.8131 0.0000
# 6 0.0000 0.0000 0.0000 0.0000 0.0000 14.5797
#
#
#
# Elastic Compliance Matrix: (Units=1/GPa)
#
#
# Indices 1 2 3 4 5 6 
#
# 1 0.016873 -0.002410 -0.012159 0.000000 0.000000 0.000000
# 2 -0.002410 0.011910 -0.006629 0.000000 0.000000 0.000000
# 3 -0.012159 -0.006629 0.030355 0.000000 0.000000 0.000000
# 4 0.000000 0.000000 0.000000 0.037038 0.000000 0.000000
# 5 0.000000 0.000000 0.000000 0.000000 0.033542 0.000000
# 6 0.000000 0.000000 0.000000 0.000000 0.000000 0.068589
#
#
# Mechanical properties :
#
#
# Convention : Reuss Voigt Hill
#
# Bulk Modulus (GPa) = 59.73555 65.52534 62.63044
# Shear Modulus (GPa) = 20.30185 23.54041 21.92113
#
# Velocity S-wave (km/s) = 3.45977 3.72551 3.59510
# Velocity P-wave (km/s) = 7.15403 7.55909 7.35935
#
# Compressibility (1/GPa) = 0.01674045
#
# Stress axis : x y z
#
# Youngs Moduli (GPa) = 59.26745 83.96463 32.94394
#
# Poissons Ratio (x) = 0.20236 0.40057
# Poissons Ratio (y) = 0.14284 0.21839
# Poissons Ratio (z) = 0.72064 0.55662
#
# Static dielectric constant tensor:
#      x y z
#    x 1.569620 0.000000 0.000000 
#    y 0.000000 1.557560 0.000000 
#    z 0.000000 0.000000 1.560130 
# 
# From -- ./inp_files/21992.got.cif
#   From: 2010.05.17/outbox.cif.g08.bks.cpg/sg71_11_cif.got.tgz:21992.got - 2010.06.03 16:22:01.
