data_PCOD9521403
_publ_section_title
;
Structure prediction by ZEFSAII (Michael W. Deem and Ramdas Pophale) SiO2 
 PCOD9521403
Probable space group: I M M M
;
_chemical_formula_sum "Si O2"
_cell_formula_units_Z 96
_cell_length_a 31.270859
_cell_length_b 19.705160
_cell_length_c 7.714533
_cell_angle_alpha 90.000000
_cell_angle_beta 90.000000
_cell_angle_gamma 90.000000
_cell_volume 4753.674251
_symmetry_space_group_name_H-M "I M M M"
_symmetry_group_IT_number 71
_symmetry_cell_setting 'orthorhombic'
loop_
_space_group_symop_operation_xyz
x,y,z
-x,-y,z
x,-y,-z
-x,y,-z
-x,-y,-z
x,y,-z
-x,y,z
x,-y,z
1/2+x,1/2+y,1/2+z
1/2-x,1/2-y,1/2+z
1/2+x,1/2-y,1/2-z
1/2-x,1/2+y,1/2-z
1/2-x,1/2-y,1/2-z
1/2+x,1/2+y,1/2-z
1/2-x,1/2+y,1/2+z
1/2+x,1/2-y,1/2+z
loop_
_atom_site_type_symbol
_atom_site_label
_atom_site_fract_x
_atom_site_fract_y
_atom_site_fract_z
Si Si1 0.548287 0.329375 0.291966
Si Si2 0.299950 0.172320 0.705283
Si Si3 0.951286 0.674930 0.290959
Si Si4 0.877444 0.576450 0.294308
Si Si5 0.374290 0.577889 0.712597
Si Si6 0.202376 0.826080 0.209201
O O1 0.546507 0.336173 0.500000
O O2 0.500000 0.339193 0.224008
O O3 0.561414 0.251950 0.253988
O O4 0.583208 0.382668 0.228734
O O5 0.305987 0.174902 0.500000
O O6 0.333879 0.118534 0.773168
O O7 0.250679 0.154600 0.742444
O O8 0.306380 0.249302 0.774055
O O9 0.952274 0.670616 0.500000
O O10 0.916799 0.621227 0.223493
O O11 0.000000 0.663957 0.228037
O O12 0.884847 0.570798 0.500000
O O13 0.874963 0.500000 0.223198
O O14 0.374377 0.578092 0.500000
O O15 0.373152 0.500000 0.768302
O O16 0.333050 0.620838 0.769157
O O17 0.200459 0.823858 0.000000
#
# Coordination Sequence:
#
# PCOD9521403 Si02
#       6
#    16  16  16  16  16  16
#     4   9  17  30  50  75 101 129 162 201 243 286
#     4  10  20  34  53  75  99 128 164 207 250 293
#     4   9  18  33  53  75  98 127 164 203 241 285
#     4  10  21  35  51  73 101 132 164 200 246 298
#     4   9  17  29  47  72 100 130 164 201 241 286
#     4   9  18  33  52  73  98 130 168 207 246 290
#
# _framework density 20.194904999999999
#
# number of rings (size 3 to 8) (size 9 to 14) (size 15 to 20)
#    0.000    2.667    0.000    1.500    0.000    4.333 
#    0.000    5.833    0.000    1.500    0.000    5.833 
#    0.000    0.000    0.000    0.000    0.000    0.000 
#
# Total GULP energy -267910.900625 kJ/mol
# GULP energy per Si atom -5581.477096 kJ/mol
# Density = 2.014894 g / cm^3
# Si number density = 20.194905 Si / 1000 Ang^3
#
#
#
# Elastic Constant Matrix: (Units=GPa)
#
#
# Indices 1 2 3 4 5 6 
#
# 1 136.8452 135.8081 -1.6909 0.0000 0.0000 0.0000
# 2 135.8081 185.6424 2.8371 0.0000 0.0000 0.0000
# 3 -1.6909 2.8371 31.5461 0.0000 0.0000 0.0000
# 4 0.0000 0.0000 0.0000 -2.8576 0.0000 0.0000
# 5 0.0000 0.0000 0.0000 0.0000 -6.7085 0.0000
# 6 0.0000 0.0000 0.0000 0.0000 0.0000 -33.3102
#
#
#
# Elastic Compliance Matrix: (Units=1/GPa)
#
#
# Indices 1 2 3 4 5 6 
#
# 1 0.026995 -0.019798 0.003227 0.000000 0.000000 0.000000
# 2 -0.019798 0.019914 -0.002852 0.000000 0.000000 0.000000
# 3 0.003227 -0.002852 0.032129 0.000000 0.000000 0.000000
# 4 0.000000 0.000000 0.000000 -0.349941 0.000000 0.000000
# 5 0.000000 0.000000 0.000000 0.000000 -0.149064 0.000000
# 6 0.000000 0.000000 0.000000 0.000000 0.000000 -0.030021
#
#
# Mechanical properties :
#
#
# Convention : Reuss Voigt Hill
#
# Bulk Modulus (GPa) = 24.88000 69.77137 47.32568
# Shear Modulus (GPa) = -12.57084 5.89668 -3.33708
#
# Velocity S-wave (km/s) = -2.49765 1.71062 -1.28687
# Velocity P-wave (km/s) = 2.00723 6.20690 4.61273
#
# Compressibility (1/GPa) = 0.04019293
#
# Stress axis : x y z
#
# Youngs Moduli (GPa) = 37.04346 50.21687 31.12440
#
# Poissons Ratio (x) = 0.99419 -0.10045
# Poissons Ratio (y) = 0.73338 0.08877
# Poissons Ratio (z) = -0.11956 0.14322
#
# Static dielectric constant tensor:
#      x y z
#    x 1.698910 0.000000 0.000000 
#    y 0.000000 1.695120 0.000000 
#    z 0.000000 0.000000 1.760190 
# 
# From -- ./inp_files/14859.got.cif
#   From: 2010.05.17/outbox.cif.g08.bks.cpg/sg71_8_cif.got.tgz:14859.got - 2010.06.03 16:22:01.
