data_PCOD9521501
_publ_section_title
;
Structure prediction by ZEFSAII (Michael W. Deem and Ramdas Pophale) SiO2 
 PCOD9521501
Probable space group: I M M M
;
_chemical_formula_sum "Si O2"
_cell_formula_units_Z 112
_cell_length_a 10.656193
_cell_length_b 16.507476
_cell_length_c 34.757540
_cell_angle_alpha 90.000000
_cell_angle_beta 90.000000
_cell_angle_gamma 90.000000
_cell_volume 6114.089382
_symmetry_space_group_name_H-M "I M M M"
_symmetry_group_IT_number 71
_symmetry_cell_setting 'orthorhombic'
loop_
_space_group_symop_operation_xyz
x,y,z
-x,-y,z
x,-y,-z
-x,y,-z
-x,-y,-z
x,y,-z
-x,y,z
x,-y,z
1/2+x,1/2+y,1/2+z
1/2-x,1/2-y,1/2+z
1/2+x,1/2-y,1/2-z
1/2-x,1/2+y,1/2-z
1/2-x,1/2-y,1/2-z
1/2+x,1/2+y,1/2-z
1/2-x,1/2+y,1/2+z
1/2+x,1/2-y,1/2+z
loop_
_atom_site_type_symbol
_atom_site_label
_atom_site_fract_x
_atom_site_fract_y
_atom_site_fract_z
Si Si1 0.644284 0.636148 0.682640
Si Si2 0.135514 0.094083 0.374039
Si Si3 0.357919 0.903548 0.244138
Si Si4 0.152319 0.911144 0.902998
Si Si5 0.765152 0.090560 0.456302
Si Si6 0.140427 0.671628 0.171648
Si Si7 0.150062 0.234156 0.043195
O O1 0.500000 0.611732 0.692746
O O2 0.747027 0.618755 0.715007
O O3 0.681359 0.595876 0.642168
O O4 0.641829 0.731869 0.674531
O O5 0.142007 0.094688 0.420335
O O6 0.252260 0.140884 0.356491
O O7 0.000000 0.126030 0.361174
O O8 0.145453 0.000000 0.362094
O O9 0.500000 0.880169 0.230982
O O10 0.338121 0.863085 0.285647
O O11 0.356798 0.000000 0.249108
O O12 0.198587 0.832408 0.926419
O O13 0.000000 0.909452 0.905228
O O14 0.193268 0.000000 0.917591
O O15 0.816916 0.094880 0.500000
O O16 0.682789 0.171402 0.450940
O O17 0.704202 0.000000 0.453469
O O18 0.000000 0.646061 0.158966
O O19 0.000000 0.228829 0.044057
O O20 0.193191 0.212457 0.000000
#
# Coordination Sequence:
#
# PCOD9521501 Si02
#       7
#    16  16  16  16  16  16  16
#     4  10  20  34  54  78 103 135 176 219 263 314
#     4  10  21  35  52  77 106 137 177 220 259 308
#     4  10  21  36  53  75 104 136 171 212 260 316
#     4   9  17  29  46  70 100 133 171 216 264 312
#     4   9  18  32  49  70  99 135 173 216 265 312
#     4  10  21  37  56  77 104 139 174 212 265 320
#     4   9  17  29  46  70 101 136 174 215 259 313
#
# _framework density 18.318345000000001
#
# number of rings (size 3 to 8) (size 9 to 14) (size 15 to 20)
#    0.000    2.429    0.000    2.143    0.000    5.429 
#    0.000    5.714    0.000    0.000    0.000    0.000 
#    0.000    0.000    0.000   10.429    0.000    4.143 
#
# Total GULP energy -311922.021165 kJ/mol
# GULP energy per Si atom -5570.036092 kJ/mol
# Density = 1.827665 g / cm^3
# Si number density = 18.318345 Si / 1000 Ang^3
#
#
#
# Elastic Constant Matrix: (Units=GPa)
#
#
# Indices 1 2 3 4 5 6 
#
# 1 56.1620 44.2875 49.3096 0.0000 0.0000 0.0000
# 2 44.2875 93.7102 52.1308 0.0000 0.0000 0.0000
# 3 49.3096 52.1308 76.4118 0.0000 0.0000 0.0000
# 4 0.0000 0.0000 0.0000 36.2477 0.0000 0.0000
# 5 0.0000 0.0000 0.0000 0.0000 15.2150 0.0000
# 6 0.0000 0.0000 0.0000 0.0000 0.0000 21.9714
#
#
#
# Elastic Compliance Matrix: (Units=1/GPa)
#
#
# Indices 1 2 3 4 5 6 
#
# 1 0.044658 -0.008177 -0.023240 0.000000 0.000000 0.000000
# 2 -0.008177 0.018696 -0.007478 0.000000 0.000000 0.000000
# 3 -0.023240 -0.007478 0.033186 0.000000 0.000000 0.000000
# 4 0.000000 0.000000 0.000000 0.027588 0.000000 0.000000
# 5 0.000000 0.000000 0.000000 0.000000 0.065724 0.000000
# 6 0.000000 0.000000 0.000000 0.000000 0.000000 0.045514
#
#
# Mechanical properties :
#
#
# Convention : Reuss Voigt Hill
#
# Bulk Modulus (GPa) = 53.33444 57.52664 55.43054
# Shear Modulus (GPa) = 15.65408 20.05724 17.85566
#
# Velocity S-wave (km/s) = 2.92645 3.31256 3.12547
# Velocity P-wave (km/s) = 6.37161 6.78990 6.58408
#
# Compressibility (1/GPa) = 0.01874961
#
# Stress axis : x y z
#
# Youngs Moduli (GPa) = 22.39234 53.48804 30.13349
#
# Poissons Ratio (x) = 0.43738 0.70029
# Poissons Ratio (y) = 0.18311 0.22534
# Poissons Ratio (z) = 0.52039 0.39998
#
# Static dielectric constant tensor:
#      x y z
#    x 1.626570 0.000000 0.000000 
#    y 0.000000 1.648540 0.000000 
#    z 0.000000 0.000000 1.640990 
# 
# From -- ./inp_files/69330.got.cif
#   From: 2010.05.17/outbox.cif.g08.bks.cpg/sg71_35_cif.got.tgz:69330.got - 2010.06.03 16:22:01.
