data_PCOD9521833
_publ_section_title
;
Structure prediction by ZEFSAII (Michael W. Deem and Ramdas Pophale) SiO2 
 PCOD9521833
Probable space group: I M M M
;
_chemical_formula_sum "Si O2"
_cell_formula_units_Z 88
_cell_length_a 19.616754
_cell_length_b 18.687873
_cell_length_c 13.073481
_cell_angle_alpha 90.000000
_cell_angle_beta 90.000000
_cell_angle_gamma 90.000000
_cell_volume 4792.678094
_symmetry_space_group_name_H-M "I M M M"
_symmetry_group_IT_number 71
_symmetry_cell_setting 'orthorhombic'
loop_
_space_group_symop_operation_xyz
x,y,z
-x,-y,z
x,-y,-z
-x,y,-z
-x,-y,-z
x,y,-z
-x,y,z
x,-y,z
1/2+x,1/2+y,1/2+z
1/2-x,1/2-y,1/2+z
1/2+x,1/2-y,1/2-z
1/2-x,1/2+y,1/2-z
1/2-x,1/2-y,1/2-z
1/2+x,1/2+y,1/2-z
1/2-x,1/2+y,1/2+z
1/2+x,1/2-y,1/2+z
loop_
_atom_site_type_symbol
_atom_site_label
_atom_site_fract_x
_atom_site_fract_y
_atom_site_fract_z
Si Si1 0.920510 0.831464 0.312630
Si Si2 0.841688 0.586428 0.793901
Si Si3 0.417617 0.581235 0.385002
Si Si4 0.420124 0.832626 0.879481
Si Si5 0.296663 0.583121 0.885091
Si Si6 0.578885 0.912948 0.500000
O O1 0.901956 0.858871 0.198572
O O2 0.914063 0.747787 0.335292
O O3 0.865970 0.873315 0.379881
O O4 0.000000 0.850933 0.331881
O O5 0.842911 0.500000 0.792025
O O6 0.874895 0.617293 0.691992
O O7 0.763102 0.608621 0.810182
O O8 0.884177 0.609721 0.894964
O O9 0.392762 0.596208 0.500000
O O10 0.500000 0.578897 0.389405
O O11 0.395543 0.500000 0.356159
O O12 0.500000 0.853250 0.871150
O O13 0.402240 0.833477 0.000000
O O14 0.311420 0.500000 0.863863
O O15 0.267708 0.586599 0.000000
O O16 0.500000 0.889916 0.500000
O O17 0.580077 0.000000 0.500000
#
# Coordination Sequence:
#
# PCOD9521833 Si02
#       6
#    16  16  16  16  16   8
#     4  10  20  35  54  79 113 155 198 234 274 331
#     4  10  20  37  58  82 111 144 184 234 293 353
#     4   8  14  27  48  73 103 139 181 233 284 323
#     4  10  22  39  57  81 115 152 189 237 289 336
#     4  10  20  35  56  82 113 147 184 234 289 335
#     4   9  16  30  56  84 105 129 168 224 285 340
#
# _framework density 18.361342
#
# number of rings (size 3 to 8) (size 9 to 14) (size 15 to 20)
#    0.000    2.455    0.909    2.182    0.000    4.364 
#    1.636    2.727    0.000    1.091    0.000    0.000 
#    0.000    0.000    0.000    0.000    0.000    0.000 
#
# Total GULP energy -245210.105225 kJ/mol
# GULP energy per Si atom -5572.956937 kJ/mol
# Density = 1.831955 g / cm^3
# Si number density = 18.361342 Si / 1000 Ang^3
#
#
#
# Elastic Constant Matrix: (Units=GPa)
#
#
# Indices 1 2 3 4 5 6 
#
# 1 84.5901 38.9723 37.8097 0.0000 0.0000 0.0000
# 2 38.9723 32.3755 34.5780 0.0000 0.0000 0.0000
# 3 37.8097 34.5780 124.8600 0.0000 0.0000 0.0000
# 4 0.0000 0.0000 0.0000 -33.3848 0.0000 0.0000
# 5 0.0000 0.0000 0.0000 0.0000 29.7474 0.0000
# 6 0.0000 0.0000 0.0000 0.0000 0.0000 21.7904
#
#
#
# Elastic Compliance Matrix: (Units=1/GPa)
#
#
# Indices 1 2 3 4 5 6 
#
# 1 0.026659 -0.033326 0.001156 0.000000 0.000000 0.000000
# 2 -0.033326 0.085520 -0.013592 0.000000 0.000000 0.000000
# 3 0.001156 -0.013592 0.011423 0.000000 0.000000 0.000000
# 4 0.000000 0.000000 0.000000 -0.029954 0.000000 0.000000
# 5 0.000000 0.000000 0.000000 0.000000 0.033616 0.000000
# 6 0.000000 0.000000 0.000000 0.000000 0.000000 0.045892
#
#
# Mechanical properties :
#
#
# Convention : Reuss Voigt Hill
#
# Bulk Modulus (GPa) = 31.17275 51.61619 41.39447
# Shear Modulus (GPa) = 18.15729 12.32830 15.24280
#
# Velocity S-wave (km/s) = 3.14807 2.59400 2.88437
# Velocity P-wave (km/s) = 5.49800 6.09460 5.80397
#
# Compressibility (1/GPa) = 0.03207930
#
# Stress axis : x y z
#
# Youngs Moduli (GPa) = 37.51133 11.69315 87.54360
#
# Poissons Ratio (x) = 0.38968 -0.10123
# Poissons Ratio (y) = 1.25009 1.18989
# Poissons Ratio (z) = -0.04338 0.15893
#
# Static dielectric constant tensor:
#      x y z
#    x 1.630400 0.000000 0.000000 
#    y 0.000000 1.607800 0.000000 
#    z 0.000000 0.000000 1.658520 
# 
# From -- ./inp_files/25651.got.cif
#   From: 2010.05.17/outbox.cif.g08.bks.cpg/sg71_13_cif.got.tgz:25651.got - 2010.06.03 16:22:01.
