data_PCOD9521855
_publ_section_title
;
Structure prediction by ZEFSAII (Michael W. Deem and Ramdas Pophale) SiO2 
 PCOD9521855
Probable space group: I M M M
;
_chemical_formula_sum "Si O2"
_cell_formula_units_Z 104
_cell_length_a 24.240182
_cell_length_b 25.728871
_cell_length_c 9.352611
_cell_angle_alpha 90.000000
_cell_angle_beta 90.000000
_cell_angle_gamma 90.000000
_cell_volume 5832.966431
_symmetry_space_group_name_H-M "I M M M"
_symmetry_group_IT_number 71
_symmetry_cell_setting 'orthorhombic'
loop_
_space_group_symop_operation_xyz
x,y,z
-x,-y,z
x,-y,-z
-x,y,-z
-x,-y,-z
x,y,-z
-x,y,z
x,-y,z
1/2+x,1/2+y,1/2+z
1/2-x,1/2-y,1/2+z
1/2+x,1/2-y,1/2-z
1/2-x,1/2+y,1/2-z
1/2-x,1/2-y,1/2-z
1/2+x,1/2+y,1/2-z
1/2-x,1/2+y,1/2+z
1/2+x,1/2-y,1/2+z
loop_
_atom_site_type_symbol
_atom_site_label
_atom_site_fract_x
_atom_site_fract_y
_atom_site_fract_z
Si Si1 0.937166 0.000000 0.173332
Si Si2 0.789628 0.713710 0.839737
Si Si3 0.717855 0.390677 0.161589
Si Si4 0.881888 0.339639 0.670581
Si Si5 0.186883 0.441696 0.329567
Si Si6 0.393536 0.613346 0.327749
Si Si7 0.000000 0.295612 0.329070
Si Si8 0.000000 0.815290 0.171883
O O1 0.908622 0.946076 0.213097
O O2 0.000000 0.000000 0.225594
O O3 0.939115 0.000000 0.000000
O O4 0.750000 0.750000 0.750000
O O5 0.757042 0.659489 0.848232
O O6 0.845649 0.702053 0.756132
O O7 0.799578 0.733597 0.000000
O O8 0.755659 0.431050 0.248728
O O9 0.662829 0.374849 0.245822
O O10 0.705199 0.408251 0.000000
O O11 0.873991 0.332587 0.500000
O O12 0.857494 0.396711 0.706538
O O13 0.945409 0.328876 0.704235
O O14 0.196938 0.437878 0.500000
O O15 0.167137 0.500000 0.297735
O O16 0.385743 0.615659 0.500000
O O17 0.445130 0.650946 0.292606
O O18 0.000000 0.285523 0.500000
O O19 0.000000 0.240379 0.248737
O O20 0.000000 0.808239 0.000000
#
# Coordination Sequence:
#
# PCOD9521855 Si02
#       8
#     8  16  16  16  16  16   8   8
#     4   9  16  32  55  73  95 131 175 222 265 308
#     4  10  21  36  55  78 106 142 181 223 271 322
#     4  10  22  36  51  77 111 141 174 218 271 328
#     4   9  19  37  57  81 111 144 183 223 273 332
#     4   9  18  35  59  83 108 141 181 224 270 326
#     4  10  20  35  55  78 103 136 182 228 270 318
#     4  10  22  38  58  81 113 150 180 223 280 331
#     4  10  22  37  54  79 107 141 188 236 273 320
#
# _framework density 17.829692999999999
#
# number of rings (size 3 to 8) (size 9 to 14) (size 15 to 20)
#    0.000    2.385    0.769    0.923    3.231    3.385 
#    0.000    0.385    0.000    2.769    0.000    0.000 
#    0.000    5.538    0.000    0.000    0.000    0.000 
#
# Total GULP energy -289931.829762 kJ/mol
# GULP energy per Si atom -5575.612111 kJ/mol
# Density = 1.778911 g / cm^3
# Si number density = 17.829693 Si / 1000 Ang^3
#
#
#
# Elastic Constant Matrix: (Units=GPa)
#
#
# Indices 1 2 3 4 5 6 
#
# 1 149.2308 40.1476 60.8150 0.0000 0.0000 0.0000
# 2 40.1476 71.6738 41.3499 0.0000 0.0000 0.0000
# 3 60.8150 41.3499 56.1693 0.0000 0.0000 0.0000
# 4 0.0000 0.0000 0.0000 20.5761 0.0000 0.0000
# 5 0.0000 0.0000 0.0000 0.0000 21.7724 0.0000
# 6 0.0000 0.0000 0.0000 0.0000 0.0000 8.3102
#
#
#
# Elastic Compliance Matrix: (Units=1/GPa)
#
#
# Indices 1 2 3 4 5 6 
#
# 1 0.012067 0.001353 -0.014061 0.000000 0.000000 0.000000
# 2 0.001353 0.024404 -0.019430 0.000000 0.000000 0.000000
# 3 -0.014061 -0.019430 0.047331 0.000000 0.000000 0.000000
# 4 0.000000 0.000000 0.000000 0.048600 0.000000 0.000000
# 5 0.000000 0.000000 0.000000 0.000000 0.045930 0.000000
# 6 0.000000 0.000000 0.000000 0.000000 0.000000 0.120334
#
#
# Mechanical properties :
#
#
# Convention : Reuss Voigt Hill
#
# Bulk Modulus (GPa) = 51.21495 62.41099 56.81297
# Shear Modulus (GPa) = 13.53357 19.11583 16.32470
#
# Velocity S-wave (km/s) = 2.75807 3.27790 3.02916
# Velocity P-wave (km/s) = 6.23935 7.02895 6.64589
#
# Compressibility (1/GPa) = 0.01952555
#
# Stress axis : x y z
#
# Youngs Moduli (GPa) = 82.86782 40.97714 21.12766
#
# Poissons Ratio (x) = -0.05543 0.29708
# Poissons Ratio (y) = -0.11210 0.41051
# Poissons Ratio (z) = 1.16523 0.79618
#
# Static dielectric constant tensor:
#      x y z
#    x 1.592830 0.000000 0.000000 
#    y 0.000000 1.629250 0.000000 
#    z 0.000000 0.000000 1.616680 
# 
# From -- ./inp_files/13385.got.cif
#   From: 2010.05.17/outbox.cif.g08.bks.cpg/sg71_7_cif.got.tgz:13385.got - 2010.06.03 16:22:01.
