data_PCOD9521583
_publ_section_title
;
Structure prediction by ZEFSAII (Michael W. Deem and Ramdas Pophale) SiO2 
 PCOD9521583
Probable space group: I M M M
;
_chemical_formula_sum "Si O2"
_cell_formula_units_Z 76
_cell_length_a 17.138566
_cell_length_b 7.254789
_cell_length_c 27.270400
_cell_angle_alpha 90.000000
_cell_angle_beta 90.000000
_cell_angle_gamma 90.000000
_cell_volume 3390.711001
_symmetry_space_group_name_H-M "I M M M"
_symmetry_group_IT_number 71
_symmetry_cell_setting 'orthorhombic'
loop_
_space_group_symop_operation_xyz
x,y,z
-x,-y,z
x,-y,-z
-x,y,-z
-x,-y,-z
x,y,-z
-x,y,z
x,-y,z
1/2+x,1/2+y,1/2+z
1/2-x,1/2-y,1/2+z
1/2+x,1/2-y,1/2-z
1/2-x,1/2+y,1/2-z
1/2-x,1/2-y,1/2-z
1/2+x,1/2+y,1/2-z
1/2-x,1/2+y,1/2+z
1/2+x,1/2-y,1/2+z
loop_
_atom_site_type_symbol
_atom_site_label
_atom_site_fract_x
_atom_site_fract_y
_atom_site_fract_z
Si Si1 0.331513 0.275219 0.584205
Si Si2 0.500000 0.776047 0.942966
Si Si3 0.841452 0.712783 0.397078
Si Si4 0.380016 0.000000 0.500000
Si Si5 0.409365 0.721861 0.795064
Si Si6 0.910040 0.222973 0.186111
O O1 0.337761 0.500000 0.578401
O O2 0.240446 0.216526 0.583225
O O3 0.361458 0.225813 0.638605
O O4 0.376178 0.161832 0.542975
O O5 0.579095 0.705701 0.918486
O O6 0.500000 0.000000 0.937255
O O7 0.500000 0.734151 0.000000
O O8 0.840660 0.500000 0.412229
O O9 0.852467 0.719419 0.338519
O O10 0.500000 0.781423 0.804013
O O11 0.410605 0.500000 0.795484
O O12 0.385131 0.783502 0.740569
O O13 0.000000 0.279346 0.179852
O O14 0.909086 0.000000 0.187444
#
# Coordination Sequence:
#
# PCOD9521583 Si02
#       6
#    16   8  16   4  16  16
#     4  10  23  42  63  88 118 157 200 249 300 361
#     4   9  18  32  51  75 109 155 204 246 287 344
#     4  10  20  34  54  82 117 155 203 244 294 351
#     4  12  26  44  65  89 122 156 202 250 316 349
#     4   9  17  31  55  85 119 158 195 244 297 354
#     4   8  16  36  63  87 117 157 195 235 303 369
#
# _framework density 22.414179000000001
#
# number of rings (size 3 to 8) (size 9 to 14) (size 15 to 20)
#    0.000    2.632    1.053    1.579    2.947    0.842 
#    1.895    1.579    0.000    3.789    0.000    0.000 
#    0.000    0.000    0.000    0.000    0.000    0.000 
#
# Total GULP energy -211630.693716 kJ/mol
# GULP energy per Si atom -5569.228782 kJ/mol
# Density = 2.236316 g / cm^3
# Si number density = 22.414179 Si / 1000 Ang^3
#
#
#
# Elastic Constant Matrix: (Units=GPa)
#
#
# Indices 1 2 3 4 5 6 
#
# 1 18.6597 -0.2518 2.5486 0.0000 0.0000 0.0000
# 2 -0.2518 113.6148 -0.9732 0.0000 0.0000 0.0000
# 3 2.5486 -0.9732 76.9244 0.0000 0.0000 0.0000
# 4 0.0000 0.0000 0.0000 28.3260 0.0000 0.0000
# 5 0.0000 0.0000 0.0000 0.0000 -29.8767 0.0000
# 6 0.0000 0.0000 0.0000 0.0000 0.0000 -5.9854
#
#
#
# Elastic Compliance Matrix: (Units=1/GPa)
#
#
# Indices 1 2 3 4 5 6 
#
# 1 0.053836 0.000104 -0.001782 0.000000 0.000000 0.000000
# 2 0.000104 0.008803 0.000108 0.000000 0.000000 0.000000
# 3 -0.001782 0.000108 0.013060 0.000000 0.000000 0.000000
# 4 0.000000 0.000000 0.000000 0.035303 0.000000 0.000000
# 5 0.000000 0.000000 0.000000 0.000000 -0.033471 0.000000
# 6 0.000000 0.000000 0.000000 0.000000 0.000000 -0.167072
#
#
# Mechanical properties :
#
#
# Convention : Reuss Voigt Hill
#
# Bulk Modulus (GPa) = 13.78196 23.53845 18.66020
# Shear Modulus (GPa) = -80.36902 12.35112 -34.00895
#
# Velocity S-wave (km/s) = -5.99451 2.34997 -3.89947
# Velocity P-wave (km/s) = 6.46143 4.22937 3.45417
#
# Compressibility (1/GPa) = 0.07255864
#
# Stress axis : x y z
#
# Youngs Moduli (GPa) = 18.57479 113.59986 76.56858
#
# Poissons Ratio (x) = -0.01182 0.13647
# Poissons Ratio (y) = -0.00193 -0.00826
# Poissons Ratio (z) = 0.03311 -0.01226
#
# Static dielectric constant tensor:
#      x y z
#    x 1.829070 0.000000 0.000000 
#    y 0.000000 1.875870 0.000000 
#    z 0.000000 0.000000 1.796390 
# 
# From -- ./inp_files/65810.got.cif
#   From: 2010.05.17/outbox.cif.g08.bks.cpg/sg71_33_cif.got.tgz:65810.got - 2010.06.03 16:22:01.
