data_PCOD9521165
_publ_section_title
;
Structure prediction by ZEFSAII (Michael W. Deem and Ramdas Pophale) SiO2 
 PCOD9521165
Probable space group: I M M M
;
_chemical_formula_sum "Si O2"
_cell_formula_units_Z 96
_cell_length_a 24.198071
_cell_length_b 21.545904
_cell_length_c 9.350157
_cell_angle_alpha 90.000000
_cell_angle_beta 90.000000
_cell_angle_gamma 90.000000
_cell_volume 4874.884948
_symmetry_space_group_name_H-M "I M M M"
_symmetry_group_IT_number 71
_symmetry_cell_setting 'orthorhombic'
loop_
_space_group_symop_operation_xyz
x,y,z
-x,-y,z
x,-y,-z
-x,y,-z
-x,-y,-z
x,y,-z
-x,y,z
x,-y,z
1/2+x,1/2+y,1/2+z
1/2-x,1/2-y,1/2+z
1/2+x,1/2-y,1/2-z
1/2-x,1/2+y,1/2-z
1/2-x,1/2-y,1/2-z
1/2+x,1/2+y,1/2-z
1/2-x,1/2+y,1/2+z
1/2+x,1/2-y,1/2+z
loop_
_atom_site_type_symbol
_atom_site_label
_atom_site_fract_x
_atom_site_fract_y
_atom_site_fract_z
Si Si1 0.433082 0.933736 0.166777
Si Si2 0.064460 0.294862 0.327658
Si Si3 0.062000 0.075716 0.165125
Si Si4 0.170057 0.925441 0.337735
Si Si5 0.835583 0.734039 0.835911
Si Si6 0.751428 0.652915 0.664036
O O1 0.500000 0.935304 0.167086
O O2 0.420620 0.865334 0.223447
O O3 0.413907 0.000000 0.230537
O O4 0.416022 0.933569 0.000000
O O5 0.070935 0.292112 0.500000
O O6 0.107690 0.252233 0.246306
O O7 0.000000 0.283063 0.296673
O O8 0.112519 0.095067 0.264684
O O9 0.000000 0.095687 0.208577
O O10 0.061534 0.000000 0.165890
O O11 0.071518 0.094686 0.000000
O O12 0.174228 0.901570 0.500000
O O13 0.221696 0.903025 0.244781
O O14 0.169138 0.000000 0.341499
O O15 0.802775 0.680791 0.749987
O O16 0.794966 0.792960 0.835846
O O17 0.845877 0.716549 0.000000
O O18 0.766060 0.638730 0.500000
#
# Coordination Sequence:
#
# PCOD9521165 Si02
#       6
#    16  16  16  16  16  16
#     4   7  10  19  38  65  96 129 165 202 237 279
#     4   9  17  30  51  79 108 138 173 213 258 310
#     4   8  14  26  45  69  99 137 177 211 246 298
#     4  10  20  33  52  80 111 138 166 210 267 317
#     4  10  21  37  57  79 102 132 173 220 266 309
#     4  10  21  38  59  78  98 133 179 219 257 310
#
# _framework density 19.692772000000001
#
# number of rings (size 3 to 8) (size 9 to 14) (size 15 to 20)
#    0.000    3.000    0.000    3.500    0.000    3.667 
#    0.000    3.333    0.000    4.500    0.000    2.333 
#    0.000    0.000    0.000    0.000    0.000    0.000 
#
# Total GULP energy -267464.164920 kJ/mol
# GULP energy per Si atom -5572.170103 kJ/mol
# Density = 1.964795 g / cm^3
# Si number density = 19.692772 Si / 1000 Ang^3
#
#
#
# Elastic Constant Matrix: (Units=GPa)
#
#
# Indices 1 2 3 4 5 6 
#
# 1 90.7507 15.2551 53.3035 0.0000 0.0000 0.0000
# 2 15.2551 19.4590 16.5422 0.0000 0.0000 0.0000
# 3 53.3035 16.5422 97.8305 0.0000 0.0000 0.0000
# 4 0.0000 0.0000 0.0000 17.9302 0.0000 0.0000
# 5 0.0000 0.0000 0.0000 0.0000 25.7724 0.0000
# 6 0.0000 0.0000 0.0000 0.0000 0.0000 14.4635
#
#
#
# Elastic Compliance Matrix: (Units=1/GPa)
#
#
# Indices 1 2 3 4 5 6 
#
# 1 0.016844 -0.006310 -0.008110 0.000000 0.000000 0.000000
# 2 -0.006310 0.062381 -0.007110 0.000000 0.000000 0.000000
# 3 -0.008110 -0.007110 0.015843 0.000000 0.000000 0.000000
# 4 0.000000 0.000000 0.000000 0.055772 0.000000 0.000000
# 5 0.000000 0.000000 0.000000 0.000000 0.038801 0.000000
# 6 0.000000 0.000000 0.000000 0.000000 0.000000 0.069140
#
#
# Mechanical properties :
#
#
# Convention : Reuss Voigt Hill
#
# Bulk Modulus (GPa) = 19.22820 42.02687 30.62754
# Shear Modulus (GPa) = 15.66528 19.82916 17.74722
#
# Velocity S-wave (km/s) = 2.82349 3.17665 3.00526
# Velocity P-wave (km/s) = 4.51827 5.90275 5.25629
#
# Compressibility (1/GPa) = 0.05200694
#
# Stress axis : x y z
#
# Youngs Moduli (GPa) = 59.36952 16.03046 63.11931
#
# Poissons Ratio (x) = 0.10115 0.51192
# Poissons Ratio (y) = 0.37462 0.44878
# Poissons Ratio (z) = 0.48151 0.11398
#
# Static dielectric constant tensor:
#      x y z
#    x 1.695530 0.000000 0.000000 
#    y 0.000000 1.756370 0.000000 
#    z 0.000000 0.000000 1.669690 
# 
# From -- ./inp_files/12854.got.cif
#   From: 2010.05.17/outbox.cif.g08.bks.cpg/sg71_7_cif.got.tgz:12854.got - 2010.06.03 16:22:01.
