data_PCOD9521705
_publ_section_title
;
Structure prediction by ZEFSAII (Michael W. Deem and Ramdas Pophale) SiO2 
 PCOD9521705
Probable space group: I M M M
;
_chemical_formula_sum "Si O2"
_cell_formula_units_Z 112
_cell_length_a 14.174045
_cell_length_b 24.510866
_cell_length_c 16.601949
_cell_angle_alpha 90.000000
_cell_angle_beta 90.000000
_cell_angle_gamma 90.000000
_cell_volume 5767.817871
_symmetry_space_group_name_H-M "I M M M"
_symmetry_group_IT_number 71
_symmetry_cell_setting 'orthorhombic'
loop_
_space_group_symop_operation_xyz
x,y,z
-x,-y,z
x,-y,-z
-x,y,-z
-x,-y,-z
x,y,-z
-x,y,z
x,-y,z
1/2+x,1/2+y,1/2+z
1/2-x,1/2-y,1/2+z
1/2+x,1/2-y,1/2-z
1/2-x,1/2+y,1/2-z
1/2-x,1/2-y,1/2-z
1/2+x,1/2+y,1/2-z
1/2-x,1/2+y,1/2+z
1/2+x,1/2-y,1/2+z
loop_
_atom_site_type_symbol
_atom_site_label
_atom_site_fract_x
_atom_site_fract_y
_atom_site_fract_z
Si Si1 0.188538 0.223222 0.347543
Si Si2 0.682437 0.435775 0.748106
Si Si3 0.358229 0.157609 0.910245
Si Si4 0.860728 0.871875 0.910550
Si Si5 0.601683 0.936510 0.790763
Si Si6 0.112373 0.884006 0.412990
Si Si7 0.106095 0.236385 0.176481
O O1 0.147950 0.282898 0.369646
O O2 0.155948 0.176333 0.406619
O O3 0.142538 0.210284 0.260634
O O4 0.302913 0.226174 0.343972
O O5 0.669366 0.500000 0.741075
O O6 0.631987 0.409121 0.669438
O O7 0.796307 0.424976 0.748910
O O8 0.643960 0.415301 0.833169
O O9 0.250615 0.138061 0.916395
O O10 0.403559 0.109603 0.858937
O O11 0.396296 0.163024 0.000000
O O12 0.899249 0.812200 0.888120
O O13 0.892245 0.890719 0.000000
O O14 0.500000 0.933028 0.745635
O O15 0.607781 0.000000 0.819661
O O16 0.139012 0.908757 0.500000
O O17 0.000000 0.879265 0.410519
O O18 0.000000 0.259915 0.185514
#
# Coordination Sequence:
#
# PCOD9521705 Si02
#       7
#    16  16  16  16  16  16  16
#     4  10  20  36  57  85 118 153 197 243 290 347
#     4  10  21  39  62  87 116 151 194 245 296 348
#     4   9  18  32  51  79 115 155 200 244 282 328
#     4   9  18  34  56  83 117 156 195 235 282 338
#     4   9  19  35  55  81 116 158 196 231 283 348
#     4  11  24  42  64  87 113 148 191 244 306 360
#     4  10  20  34  56  84 118 160 196 232 285 346
#
# _framework density 19.418088999999998
#
# number of rings (size 3 to 8) (size 9 to 14) (size 15 to 20)
#    0.000    2.286    1.429    0.857    2.000    3.429 
#    0.000    4.286    0.000    1.286    0.000    4.000 
#    0.000    0.000    0.000    0.000    0.000    0.000 
#
# Total GULP energy -311736.051649 kJ/mol
# GULP energy per Si atom -5566.715208 kJ/mol
# Density = 1.937389 g / cm^3
# Si number density = 19.418089 Si / 1000 Ang^3
#
#
#
# Elastic Constant Matrix: (Units=GPa)
#
#
# Indices 1 2 3 4 5 6 
#
# 1 123.3714 15.5977 37.8110 0.0000 0.0000 0.0000
# 2 15.5977 35.6391 33.6885 0.0002 0.0000 0.0000
# 3 37.8110 33.6885 140.2164 0.0003 0.0000 0.0001
# 4 0.0000 0.0002 0.0003 3.4682 0.0000 0.0001
# 5 0.0000 0.0000 0.0000 0.0000 -44.8980 0.0001
# 6 0.0000 0.0000 0.0001 0.0001 0.0001 -9.4307
#
#
#
# Elastic Compliance Matrix: (Units=1/GPa)
#
#
# Indices 1 2 3 4 5 6 
#
# 1 0.008958 -0.002118 -0.001907 0.000000 0.000000 0.000000
# 2 -0.002118 0.036805 -0.008272 -0.000002 0.000000 0.000000
# 3 -0.001907 -0.008272 0.009633 0.000000 0.000000 0.000000
# 4 0.000000 -0.000002 0.000000 0.288332 0.000000 0.000002
# 5 0.000000 0.000000 0.000000 0.000000 -0.022273 0.000000
# 6 0.000000 0.000000 0.000000 0.000002 0.000000 -0.106037
#
#
# Mechanical properties :
#
#
# Convention : Reuss Voigt Hill
#
# Bulk Modulus (GPa) = 32.46408 52.60236 42.53322
# Shear Modulus (GPa) = 19.97775 3.96990 11.97383
#
# Velocity S-wave (km/s) = 3.21100 1.43139 2.48590
# Velocity P-wave (km/s) = 5.52288 5.46626 5.49464
#
# Compressibility (1/GPa) = 0.03080328
#
# Stress axis : x y z
#
# Youngs Moduli (GPa) = 111.63509 27.17025 103.80628
#
# Poissons Ratio (x) = 0.05755 0.19792
# Poissons Ratio (y) = 0.23646 0.85865
# Poissons Ratio (z) = 0.21285 0.22474
#
# Static dielectric constant tensor:
#      x y z
#    x 2.155350 0.000000 0.000000 
#    y 0.000000 1.678830 0.000000 
#    z 0.000000 0.000000 1.713210 
# 
# From -- ./inp_files/34893.got.cif
#   From: 2010.05.17/outbox.cif.g08.bks.cpg/sg71_18_cif.got.tgz:34893.got - 2010.06.03 16:22:01.
