data_PCOD9521666
_publ_section_title
;
Structure prediction by ZEFSAII (Michael W. Deem and Ramdas Pophale) SiO2 
 PCOD9521666
Probable space group: I M M M
;
_chemical_formula_sum "Si O2"
_cell_formula_units_Z 120
_cell_length_a 28.324781
_cell_length_b 27.817234
_cell_length_c 8.634872
_cell_angle_alpha 90.000000
_cell_angle_beta 90.000000
_cell_angle_gamma 90.000000
_cell_volume 6803.562969
_symmetry_space_group_name_H-M "I M M M"
_symmetry_group_IT_number 71
_symmetry_cell_setting 'orthorhombic'
loop_
_space_group_symop_operation_xyz
x,y,z
-x,-y,z
x,-y,-z
-x,y,-z
-x,-y,-z
x,y,-z
-x,y,z
x,-y,z
1/2+x,1/2+y,1/2+z
1/2-x,1/2-y,1/2+z
1/2+x,1/2-y,1/2-z
1/2-x,1/2+y,1/2-z
1/2-x,1/2-y,1/2-z
1/2+x,1/2+y,1/2-z
1/2-x,1/2+y,1/2+z
1/2+x,1/2-y,1/2+z
loop_
_atom_site_type_symbol
_atom_site_label
_atom_site_fract_x
_atom_site_fract_y
_atom_site_fract_z
Si Si1 0.716899 0.105002 0.814264
Si Si2 0.554061 0.000000 0.311182
Si Si3 0.235057 0.198650 0.684689
Si Si4 0.313227 0.446430 0.688145
Si Si5 0.554856 0.819624 0.186663
Si Si6 0.614076 0.907433 0.685452
Si Si7 0.054491 0.791026 0.686753
Si Si8 0.641087 0.651789 0.685760
O O1 0.730216 0.157127 0.746944
O O2 0.760146 0.069940 0.768743
O O3 0.666381 0.088743 0.753698
O O4 0.716322 0.107957 0.000000
O O5 0.581858 0.047751 0.262573
O O6 0.500000 0.000000 0.257377
O O7 0.553221 0.000000 0.500000
O O8 0.235750 0.199285 0.500000
O O9 0.250000 0.250000 0.750000
O O10 0.183111 0.183904 0.743790
O O11 0.314448 0.447653 0.500000
O O12 0.324088 0.500000 0.744987
O O13 0.347789 0.403118 0.735949
O O14 0.500000 0.829354 0.228644
O O15 0.589301 0.858275 0.260907
O O16 0.565577 0.764390 0.230920
O O17 0.558279 0.822625 0.000000
O O18 0.616863 0.908140 0.500000
O O19 0.057587 0.793580 0.500000
O O20 0.091418 0.827399 0.760102
O O21 0.000000 0.800451 0.729938
O O22 0.644659 0.653730 0.500000
#
# Coordination Sequence:
#
# PCOD9521666 Si02
#       8
#    16   8  16  16  16  16  16  16
#     4  10  21  36  54  79 109 140 179 225 273 323
#     4   9  20  38  55  73 103 143 185 233 290 341
#     4  11  22  37  56  78 110 147 183 221 267 322
#     4   8  16  33  56  79 105 139 177 221 270 322
#     4   9  19  36  55  75 101 135 178 227 275 324
#     4  11  22  35  54  78 105 140 180 228 281 335
#     4   9  19  36  57  80 110 148 185 223 270 321
#     4  10  20  34  55  84 114 143 181 225 272 327
#
# _framework density 17.637816999999998
#
# number of rings (size 3 to 8) (size 9 to 14) (size 15 to 20)
#    0.000    2.333    0.000    4.400    2.800    1.600 
#    0.000    2.333    0.000   10.800    0.000    2.800 
#    0.000    0.000    0.000    0.000    0.000    0.000 
#
# Total GULP energy -334900.870136 kJ/mol
# GULP energy per Si atom -5581.681169 kJ/mol
# Density = 1.759767 g / cm^3
# Si number density = 17.637817 Si / 1000 Ang^3
#
#
#
# Elastic Constant Matrix: (Units=GPa)
#
#
# Indices 1 2 3 4 5 6 
#
# 1 125.6254 86.6392 36.9523 0.0000 0.0000 0.0000
# 2 86.6392 146.4500 36.1802 0.0000 0.0000 0.0000
# 3 36.9523 36.1802 52.0327 0.0000 0.0000 0.0000
# 4 0.0000 0.0000 0.0000 15.9233 0.0000 0.0000
# 5 0.0000 0.0000 0.0000 0.0000 28.7032 0.0000
# 6 0.0000 0.0000 0.0000 0.0000 0.0000 15.5310
#
#
#
# Elastic Compliance Matrix: (Units=1/GPa)
#
#
# Indices 1 2 3 4 5 6 
#
# 1 0.014543 -0.007307 -0.005247 0.000000 0.000000 0.000000
# 2 -0.007307 0.011916 -0.003096 0.000000 0.000000 0.000000
# 3 -0.005247 -0.003096 0.025098 0.000000 0.000000 0.000000
# 4 0.000000 0.000000 0.000000 0.062801 0.000000 0.000000
# 5 0.000000 0.000000 0.000000 0.000000 0.034839 0.000000
# 6 0.000000 0.000000 0.000000 0.000000 0.000000 0.064387
#
#
# Mechanical properties :
#
#
# Convention : Reuss Voigt Hill
#
# Bulk Modulus (GPa) = 49.36834 71.51683 60.44258
# Shear Modulus (GPa) = 19.86977 22.98728 21.42852
#
# Velocity S-wave (km/s) = 3.36004 3.61403 3.48935
# Velocity P-wave (km/s) = 6.56536 7.61908 7.11177
#
# Compressibility (1/GPa) = 0.02025590
#
# Stress axis : x y z
#
# Youngs Moduli (GPa) = 68.76037 83.91910 39.84381
#
# Poissons Ratio (x) = 0.61323 0.20907
# Poissons Ratio (y) = 0.50246 0.12337
# Poissons Ratio (z) = 0.36079 0.25983
#
# Static dielectric constant tensor:
#      x y z
#    x 1.583720 0.000000 0.000000 
#    y 0.000000 1.594990 0.000000 
#    z 0.000000 0.000000 1.598100 
# 
# From -- ./inp_files/15605.got.cif
#   From: 2010.05.17/outbox.cif.g08.bks.cpg/sg71_8_cif.got.tgz:15605.got - 2010.06.03 16:22:01.
