data_PCOD9521268
_publ_section_title
;
Structure prediction by ZEFSAII (Michael W. Deem and Ramdas Pophale) SiO2 
 PCOD9521268
Probable space group: I M M M
;
_chemical_formula_sum "Si O2"
_cell_formula_units_Z 104
_cell_length_a 17.433279
_cell_length_b 13.999175
_cell_length_c 27.251584
_cell_angle_alpha 90.000000
_cell_angle_beta 90.000000
_cell_angle_gamma 90.000000
_cell_volume 6650.790594
_symmetry_space_group_name_H-M "I M M M"
_symmetry_group_IT_number 71
_symmetry_cell_setting 'orthorhombic'
loop_
_space_group_symop_operation_xyz
x,y,z
-x,-y,z
x,-y,-z
-x,y,-z
-x,-y,-z
x,y,-z
-x,y,z
x,-y,z
1/2+x,1/2+y,1/2+z
1/2-x,1/2-y,1/2+z
1/2+x,1/2-y,1/2-z
1/2-x,1/2+y,1/2-z
1/2-x,1/2-y,1/2-z
1/2+x,1/2+y,1/2-z
1/2-x,1/2+y,1/2+z
1/2+x,1/2-y,1/2+z
loop_
_atom_site_type_symbol
_atom_site_label
_atom_site_fract_x
_atom_site_fract_y
_atom_site_fract_z
Si Si1 0.187780 0.886619 0.058186
Si Si2 0.331090 0.115435 0.123076
Si Si3 0.500000 0.111308 0.870100
Si Si4 0.591826 0.776702 0.402625
Si Si5 0.649256 0.797917 0.704278
Si Si6 0.262171 0.387133 0.277634
Si Si7 0.093072 0.391875 0.000000
Si Si8 0.000000 0.388625 0.747852
O O1 0.267461 0.854762 0.083544
O O2 0.119571 0.829609 0.084069
O O3 0.180160 0.000000 0.066115
O O4 0.187988 0.869120 0.000000
O O5 0.417282 0.153425 0.114997
O O6 0.296574 0.134756 0.177193
O O7 0.336606 0.000000 0.120514
O O8 0.500000 0.111547 0.810963
O O9 0.500000 0.000000 0.886331
O O10 0.500000 0.782071 0.395842
O O11 0.633925 0.809627 0.353329
O O12 0.614905 0.838388 0.450138
O O13 0.668261 0.686549 0.714622
O O14 0.719386 0.857730 0.727513
O O15 0.574305 0.835726 0.731787
O O16 0.280128 0.500000 0.279273
O O17 0.120833 0.500000 0.000000
O O18 0.000000 0.392728 0.000000
O O19 0.000000 0.500000 0.763605
#
# Coordination Sequence:
#
# PCOD9521268 Si02
#       8
#    16  16   8  16  16  16   8   8
#     4  10  20  34  52  72  99 135 169 206 256 307
#     4   9  16  29  49  71  95 129 165 202 251 301
#     4   9  16  28  49  71  97 129 161 199 248 303
#     4  11  21  34  50  73 101 131 174 217 249 299
#     4  11  21  32  51  77 101 133 174 212 257 302
#     4  10  20  34  50  72 104 136 169 209 255 310
#     4   9  20  36  49  65  95 134 166 205 258 293
#     4  11  20  32  49  75 105 134 172 214 252 303
#
# _framework density 15.637238999999999
#
# number of rings (size 3 to 8) (size 9 to 14) (size 15 to 20)
#    0.000    1.923    4.615    0.462    0.000    1.538 
#    0.000    1.538    0.000    2.308    0.000    0.000 
#    0.000    0.000    0.000    0.692    0.000    0.077 
#
# Total GULP energy -289680.096079 kJ/mol
# GULP energy per Si atom -5570.771078 kJ/mol
# Density = 1.560165 g / cm^3
# Si number density = 15.637239 Si / 1000 Ang^3
#
#
#
# Elastic Constant Matrix: (Units=GPa)
#
#
# Indices 1 2 3 4 5 6 
#
# 1 55.5611 26.0497 15.4515 0.0000 0.0000 0.0000
# 2 26.0497 57.4369 7.2931 0.0000 0.0000 0.0000
# 3 15.4515 7.2931 67.9248 0.0000 0.0000 0.0000
# 4 0.0000 0.0000 0.0000 18.0393 0.0000 0.0000
# 5 0.0000 0.0000 0.0000 0.0000 26.2962 0.0000
# 6 0.0000 0.0000 0.0000 0.0000 0.0000 19.6749
#
#
#
# Elastic Compliance Matrix: (Units=1/GPa)
#
#
# Indices 1 2 3 4 5 6 
#
# 1 0.024070 -0.010363 -0.004363 0.000000 0.000000 0.000000
# 2 -0.010363 0.022112 -0.000017 0.000000 0.000000 0.000000
# 3 -0.004363 -0.000017 0.015716 0.000000 0.000000 0.000000
# 4 0.000000 0.000000 0.000000 0.055434 0.000000 0.000000
# 5 0.000000 0.000000 0.000000 0.000000 0.038028 0.000000
# 6 0.000000 0.000000 0.000000 0.000000 0.000000 0.050826
#
#
# Mechanical properties :
#
#
# Convention : Reuss Voigt Hill
#
# Bulk Modulus (GPa) = 30.85076 30.94570 30.89823
# Shear Modulus (GPa) = 20.28585 21.61065 20.94825
#
# Velocity S-wave (km/s) = 3.60568 3.72156 3.66408
# Velocity P-wave (km/s) = 6.09151 6.18865 6.14027
#
# Compressibility (1/GPa) = 0.03241411
#
# Stress axis : x y z
#
# Youngs Moduli (GPa) = 41.54545 45.22352 63.62771
#
# Poissons Ratio (x) = 0.46864 0.27759
# Poissons Ratio (y) = 0.43052 0.00108
# Poissons Ratio (z) = 0.18125 0.00076
#
# Static dielectric constant tensor:
#      x y z
#    x 1.543240 0.000000 0.000000 
#    y 0.000000 1.525060 0.000000 
#    z 0.000000 0.000000 1.526940 
# 
# From -- ./inp_files/66167.got.cif
#   From: 2010.05.17/outbox.cif.g08.bks.cpg/sg71_34_cif.got.tgz:66167.got - 2010.06.03 16:22:01.
