data_PCOD9521566
_publ_section_title
;
Structure prediction by ZEFSAII (Michael W. Deem and Ramdas Pophale) SiO2 
 PCOD9521566
Probable space group: I M M M
;
_chemical_formula_sum "Si O2"
_cell_formula_units_Z 104
_cell_length_a 28.108536
_cell_length_b 22.952687
_cell_length_c 8.942659
_cell_angle_alpha 90.000000
_cell_angle_beta 90.000000
_cell_angle_gamma 90.000000
_cell_volume 5769.503371
_symmetry_space_group_name_H-M "I M M M"
_symmetry_group_IT_number 71
_symmetry_cell_setting 'orthorhombic'
loop_
_space_group_symop_operation_xyz
x,y,z
-x,-y,z
x,-y,-z
-x,y,-z
-x,-y,-z
x,y,-z
-x,y,z
x,-y,z
1/2+x,1/2+y,1/2+z
1/2-x,1/2-y,1/2+z
1/2+x,1/2-y,1/2-z
1/2-x,1/2+y,1/2-z
1/2-x,1/2-y,1/2-z
1/2+x,1/2+y,1/2-z
1/2-x,1/2+y,1/2+z
1/2+x,1/2-y,1/2+z
loop_
_atom_site_type_symbol
_atom_site_label
_atom_site_fract_x
_atom_site_fract_y
_atom_site_fract_z
Si Si1 0.097197 0.570191 0.828483
Si Si2 0.228565 0.066633 0.676107
Si Si3 0.355829 0.630095 0.321804
Si Si4 0.815159 0.370958 0.326310
Si Si5 0.301742 0.260735 0.176103
Si Si6 0.944408 0.068139 0.320086
Si Si7 0.500000 0.070962 0.827811
O O1 0.097682 0.500000 0.828275
O O2 0.140078 0.592902 0.729185
O O3 0.047220 0.589551 0.758696
O O4 0.102521 0.589623 0.000000
O O5 0.219093 0.074160 0.500000
O O6 0.181335 0.080792 0.767930
O O7 0.269840 0.109726 0.729676
O O8 0.244217 0.000000 0.700408
O O9 0.357046 0.634395 0.500000
O O10 0.332881 0.689143 0.253474
O O11 0.407021 0.610985 0.257934
O O12 0.804057 0.382422 0.500000
O O13 0.825768 0.302609 0.310617
O O14 0.250000 0.250000 0.250000
O O15 0.295812 0.274489 0.000000
O O16 0.939164 0.072861 0.500000
O O17 0.000000 0.079907 0.284112
O O18 0.934835 0.000000 0.280756
O O19 0.500000 0.000000 0.828507
O O20 0.500000 0.090036 0.000000
#
# Coordination Sequence:
#
# PCOD9521566 Si02
#       7
#    16  16  16  16  16  16   8
#     4  10  20  34  54  81 113 148 183 222 277 340
#     4  11  23  37  55  81 115 153 189 230 283 341
#     4  12  24  37  58  87 118 155 195 239 289 343
#     4  11  23  37  56  82 110 144 187 236 286 336
#     4  11  23  40  61  83 110 149 195 239 284 336
#     4   9  19  38  64  92 122 157 196 241 298 359
#     4   9  17  31  53  79 107 141 181 225 270 319
#
# _framework density 18.025814
#
# number of rings (size 3 to 8) (size 9 to 14) (size 15 to 20)
#    0.000    1.462    1.538    4.846    0.000    9.231 
#    0.000    0.769    1.692    0.000    0.000    0.000 
#    0.000    0.000    0.000    0.000    0.000    0.000 
#
# Total GULP energy -290425.497770 kJ/mol
# GULP energy per Si atom -5585.105726 kJ/mol
# Density = 1.798479 g / cm^3
# Si number density = 18.025814 Si / 1000 Ang^3
#
#
#
# Elastic Constant Matrix: (Units=GPa)
#
#
# Indices 1 2 3 4 5 6 
#
# 1 110.9133 40.2225 44.7239 0.0000 0.0000 0.0000
# 2 40.2225 78.1248 52.9595 0.0000 0.0000 0.0000
# 3 44.7239 52.9595 107.5372 0.0000 0.0000 0.0000
# 4 0.0000 0.0000 0.0000 25.1782 0.0000 0.0000
# 5 0.0000 0.0000 0.0000 0.0000 32.2295 0.0000
# 6 0.0000 0.0000 0.0000 0.0000 0.0000 19.7176
#
#
#
# Elastic Compliance Matrix: (Units=1/GPa)
#
#
# Indices 1 2 3 4 5 6 
#
# 1 0.011635 -0.004068 -0.002835 0.000000 0.000000 0.000000
# 2 -0.004068 0.020637 -0.008471 0.000000 0.000000 0.000000
# 3 -0.002835 -0.008471 0.014650 0.000000 0.000000 0.000000
# 4 0.000000 0.000000 0.000000 0.039717 0.000000 0.000000
# 5 0.000000 0.000000 0.000000 0.000000 0.031027 0.000000
# 6 0.000000 0.000000 0.000000 0.000000 0.000000 0.050716
#
#
# Mechanical properties :
#
#
# Convention : Reuss Voigt Hill
#
# Bulk Modulus (GPa) = 61.83373 63.59856 62.71615
# Shear Modulus (GPa) = 24.44716 26.00302 25.22509
#
# Velocity S-wave (km/s) = 3.68670 3.80220 3.74490
# Velocity P-wave (km/s) = 7.24567 7.39150 7.31894
#
# Compressibility (1/GPa) = 0.01617240
#
# Stress axis : x y z
#
# Youngs Moduli (GPa) = 85.95033 48.45646 68.25815
#
# Poissons Ratio (x) = 0.19712 0.19353
# Poissons Ratio (y) = 0.34965 0.57824
# Poissons Ratio (z) = 0.24370 0.41049
#
# Static dielectric constant tensor:
#      x y z
#    x 1.604170 0.000000 0.000000 
#    y 0.000000 1.626650 0.000000 
#    z 0.000000 0.000000 1.610110 
# 
# From -- ./inp_files/15320.got.cif
#   From: 2010.05.17/outbox.cif.g08.bks.cpg/sg71_8_cif.got.tgz:15320.got - 2010.06.03 16:22:01.
