data_PCOD9521595
_publ_section_title
;
Structure prediction by ZEFSAII (Michael W. Deem and Ramdas Pophale) SiO2 
 PCOD9521595
Probable space group: I M M M
;
_chemical_formula_sum "Si O2"
_cell_formula_units_Z 58
_cell_length_a 12.690465
_cell_length_b 15.506198
_cell_length_c 17.346983
_cell_angle_alpha 90.000000
_cell_angle_beta 90.000000
_cell_angle_gamma 90.000000
_cell_volume 3413.554285
_symmetry_space_group_name_H-M "I M M M"
_symmetry_group_IT_number 71
_symmetry_cell_setting 'orthorhombic'
loop_
_space_group_symop_operation_xyz
x,y,z
-x,-y,z
x,-y,-z
-x,y,-z
-x,-y,-z
x,y,-z
-x,y,z
x,-y,z
1/2+x,1/2+y,1/2+z
1/2-x,1/2-y,1/2+z
1/2+x,1/2-y,1/2-z
1/2-x,1/2+y,1/2-z
1/2-x,1/2-y,1/2-z
1/2+x,1/2+y,1/2-z
1/2-x,1/2+y,1/2+z
1/2+x,1/2-y,1/2+z
loop_
_atom_site_type_symbol
_atom_site_label
_atom_site_fract_x
_atom_site_fract_y
_atom_site_fract_z
Si Si1 0.627805 0.000000 0.088652
Si Si2 0.000000 0.500000 0.000000
Si Si3 0.884055 0.679240 0.000000
Si Si4 0.373610 0.839733 0.197336
Si Si5 0.755263 0.169035 0.352785
Si Si6 0.622555 0.500000 0.092544
O O1 0.657512 0.914937 0.137163
O O2 0.500000 0.000000 0.085534
O O3 0.665751 0.000000 0.000000
O O4 0.089809 0.576773 0.000000
O O5 0.818181 0.697903 0.923706
O O6 0.000000 0.721743 0.000000
O O7 0.500000 0.841008 0.205600
O O8 0.317928 0.853345 0.279620
O O9 0.332819 0.747388 0.168089
O O10 0.820184 0.085118 0.376865
O O11 0.500000 0.500000 0.115543
O O12 0.627558 0.500000 0.000000
#
# Coordination Sequence:
#
# PCOD9521595 Si02
#       6
#     8   2   8  16  16   8
#     4   9  19  35  55  79 105 144 191 232 280 317
#     4   8  20  32  52  84 118 138 190 224 280 332
#     4  10  20  34  54  84 112 153 181 234 279 345
#     4  10  22  38  57  84 114 149 192 248 285 334
#     4  11  21  37  57  83 118 152 192 227 296 350
#     4  11  22  35  54  86 122 153 187 227 287 362
#
# _framework density 16.991088000000001
#
# number of rings (size 3 to 8) (size 9 to 14) (size 15 to 20)
#    0.414    1.379    1.379    3.310    1.931    0.000 
#    2.483    0.000    0.000    0.000    0.000    0.966 
#    0.000    0.000    0.000    0.000    0.000    0.000 
#
# Total GULP energy -161532.233616 kJ/mol
# GULP energy per Si atom -5570.077021 kJ/mol
# Density = 1.695242 g / cm^3
# Si number density = 16.991088 Si / 1000 Ang^3
#
#
#
# Elastic Constant Matrix: (Units=GPa)
#
#
# Indices 1 2 3 4 5 6 
#
# 1 114.3765 51.8355 63.7222 0.0000 0.0000 0.0000
# 2 51.8355 88.5870 59.4602 0.0000 0.0000 0.0000
# 3 63.7222 59.4602 147.8868 0.0000 0.0000 0.0000
# 4 0.0000 0.0000 0.0000 36.2479 0.0000 0.0000
# 5 0.0000 0.0000 0.0000 0.0000 10.9766 0.0000
# 6 0.0000 0.0000 0.0000 0.0000 0.0000 -3.3132
#
#
#
# Elastic Compliance Matrix: (Units=1/GPa)
#
#
# Indices 1 2 3 4 5 6 
#
# 1 0.013107 -0.005312 -0.003512 0.000000 0.000000 0.000000
# 2 -0.005312 0.017614 -0.004793 0.000000 0.000000 0.000000
# 3 -0.003512 -0.004793 0.010202 0.000000 0.000000 0.000000
# 4 0.000000 0.000000 0.000000 0.027588 0.000000 0.000000
# 5 0.000000 0.000000 0.000000 0.000000 0.091103 0.000000
# 6 0.000000 0.000000 0.000000 0.000000 0.000000 -0.301824
#
#
# Mechanical properties :
#
#
# Convention : Reuss Voigt Hill
#
# Bulk Modulus (GPa) = 73.05089 77.87624 75.46357
# Shear Modulus (GPa) = -45.28451 20.50443 -12.39004
#
# Velocity S-wave (km/s) = -5.16815 3.47764 -2.70332
# Velocity P-wave (km/s) = 2.73385 7.87771 5.89628
#
# Compressibility (1/GPa) = 0.01368909
#
# Stress axis : x y z
#
# Youngs Moduli (GPa) = 76.29457 56.77366 98.01859
#
# Poissons Ratio (x) = 0.30160 0.34422
# Poissons Ratio (y) = 0.40530 0.46979
# Poissons Ratio (z) = 0.26793 0.27211
#
# Static dielectric constant tensor:
#      x y z
#    x 1.570940 0.000000 0.000000 
#    y 0.000000 1.545830 0.000000 
#    z 0.000000 0.000000 1.570170 
# 
# From -- ./inp_files/23173.got.cif
#   From: 2010.05.17/outbox.cif.g08.bks.cpg/sg71_12_cif.got.tgz:23173.got - 2010.06.03 16:22:01.
