data_PCOD9521350
_publ_section_title
;
Structure prediction by ZEFSAII (Michael W. Deem and Ramdas Pophale) SiO2 
 PCOD9521350
Probable space group: I M M M
;
_chemical_formula_sum "Si O2"
_cell_formula_units_Z 116
_cell_length_a 23.964166
_cell_length_b 28.388522
_cell_length_c 8.162718
_cell_angle_alpha 90.000000
_cell_angle_beta 90.000000
_cell_angle_gamma 90.000000
_cell_volume 5553.156265
_symmetry_space_group_name_H-M "I M M M"
_symmetry_group_IT_number 71
_symmetry_cell_setting 'orthorhombic'
loop_
_space_group_symop_operation_xyz
x,y,z
-x,-y,z
x,-y,-z
-x,y,-z
-x,-y,-z
x,y,-z
-x,y,z
x,-y,z
1/2+x,1/2+y,1/2+z
1/2-x,1/2-y,1/2+z
1/2+x,1/2-y,1/2-z
1/2-x,1/2+y,1/2-z
1/2-x,1/2-y,1/2-z
1/2+x,1/2+y,1/2-z
1/2-x,1/2+y,1/2+z
1/2+x,1/2-y,1/2+z
loop_
_atom_site_type_symbol
_atom_site_label
_atom_site_fract_x
_atom_site_fract_y
_atom_site_fract_z
Si Si1 0.830067 0.120657 0.187506
Si Si2 0.436476 0.333053 0.804128
Si Si3 0.564525 0.947129 0.696397
Si Si4 0.258774 0.802614 0.189123
Si Si5 0.066607 0.727917 0.810162
Si Si6 0.258018 0.949440 0.319471
Si Si7 0.701745 0.000000 0.000000
Si Si8 0.864309 0.358118 0.310456
O O1 0.893042 0.128584 0.241273
O O2 0.799861 0.171097 0.197830
O O3 0.790192 0.087885 0.292976
O O4 0.827258 0.104010 0.000000
O O5 0.500000 0.341119 0.746844
O O6 0.419620 0.280752 0.745053
O O7 0.435911 0.332816 0.000000
O O8 0.562788 0.949848 0.500000
O O9 0.500000 0.938847 0.752352
O O10 0.604580 0.903694 0.737941
O O11 0.581487 0.000000 0.757687
O O12 0.250000 0.750000 0.250000
O O13 0.305856 0.837995 0.263315
O O14 0.275711 0.798074 0.000000
O O15 0.095649 0.687013 0.709195
O O16 0.000000 0.722993 0.796298
O O17 0.082592 0.721848 0.000000
O O18 0.286627 0.942734 0.500000
O O19 0.293133 0.958866 0.150847
O O20 0.228519 0.000000 0.330331
O O21 0.855860 0.368923 0.500000
#
# Coordination Sequence:
#
# PCOD9521350 Si02
#       8
#    16  16  16  16  16  16   4  16
#     4  11  20  36  58  78 106 148 189 228 281 338
#     4  10  21  35  52  79 111 139 175 229 285 339
#     4   9  19  37  60  85 115 153 195 240 291 347
#     4  10  24  40  55  78 111 149 189 235 284 337
#     4  10  20  34  52  75 104 141 183 226 276 334
#     4   9  17  31  54  83 109 139 181 225 270 323
#     4   8  14  32  52  82 113 138 174 230 269 318
#     4  11  22  36  54  81 113 145 186 235 289 346
#
# _framework density 20.889019999999999
#
# number of rings (size 3 to 8) (size 9 to 14) (size 15 to 20)
#    0.414    1.655    0.690    3.310    0.000    8.276 
#    0.000    1.379    0.000    4.552    0.000    3.379 
#    0.000    0.000    0.000    0.000    0.000    0.000 
#
# Total GULP energy -322937.573056 kJ/mol
# GULP energy per Si atom -5567.889191 kJ/mol
# Density = 2.084148 g / cm^3
# Si number density = 20.889020 Si / 1000 Ang^3
#
#
#
# Elastic Constant Matrix: (Units=GPa)
#
#
# Indices 1 2 3 4 5 6 
#
# 1 85.5609 49.9664 30.1516 0.0000 0.0000 0.0000
# 2 49.9664 74.9650 30.6360 0.0000 0.0000 0.0000
# 3 30.1516 30.6360 77.0129 0.0000 0.0000 0.0000
# 4 0.0000 0.0000 0.0000 36.6142 0.0000 0.0000
# 5 0.0000 0.0000 0.0000 0.0000 17.2440 0.0000
# 6 0.0000 0.0000 0.0000 0.0000 0.0000 25.3983
#
#
#
# Elastic Compliance Matrix: (Units=1/GPa)
#
#
# Indices 1 2 3 4 5 6 
#
# 1 0.019690 -0.011910 -0.002971 0.000000 0.000000 0.000000
# 2 -0.011910 0.023133 -0.004540 0.000000 0.000000 0.000000
# 3 -0.002971 -0.004540 0.015954 0.000000 0.000000 0.000000
# 4 0.000000 0.000000 0.000000 0.027312 0.000000 0.000000
# 5 0.000000 0.000000 0.000000 0.000000 0.057991 0.000000
# 6 0.000000 0.000000 0.000000 0.000000 0.000000 0.039373
#
#
# Mechanical properties :
#
#
# Convention : Reuss Voigt Hill
#
# Bulk Modulus (GPa) = 50.16066 51.00522 50.58294
# Shear Modulus (GPa) = 21.84002 24.30363 23.07183
#
# Velocity S-wave (km/s) = 3.23697 3.41466 3.32700
# Velocity P-wave (km/s) = 6.16731 6.32588 6.24710
#
# Compressibility (1/GPa) = 0.01993594
#
# Stress axis : x y z
#
# Youngs Moduli (GPa) = 50.78823 43.22868 62.68048
#
# Poissons Ratio (x) = 0.51483 0.18623
# Poissons Ratio (y) = 0.60486 0.28454
# Poissons Ratio (z) = 0.15090 0.19624
#
# Static dielectric constant tensor:
#      x y z
#    x 1.746400 0.000000 0.000000 
#    y 0.000000 1.759610 0.000000 
#    z 0.000000 0.000000 1.797650 
# 
# From -- ./inp_files/13417.got.cif
#   From: 2010.05.17/outbox.cif.g08.bks.cpg/sg71_7_cif.got.tgz:13417.got - 2010.06.03 16:22:01.
