data_PCOD9521091
_publ_section_title
;
Structure prediction by ZEFSAII (Michael W. Deem and Ramdas Pophale) SiO2 
 PCOD9521091
Probable space group: I M M M
;
_chemical_formula_sum "Si O2"
_cell_formula_units_Z 112
_cell_length_a 14.288581
_cell_length_b 14.766440
_cell_length_c 26.252956
_cell_angle_alpha 90.000000
_cell_angle_beta 90.000000
_cell_angle_gamma 90.000000
_cell_volume 5539.149884
_symmetry_space_group_name_H-M "I M M M"
_symmetry_group_IT_number 71
_symmetry_cell_setting 'orthorhombic'
loop_
_space_group_symop_operation_xyz
x,y,z
-x,-y,z
x,-y,-z
-x,y,-z
-x,-y,-z
x,y,-z
-x,y,z
x,-y,z
1/2+x,1/2+y,1/2+z
1/2-x,1/2-y,1/2+z
1/2+x,1/2-y,1/2-z
1/2-x,1/2+y,1/2-z
1/2-x,1/2-y,1/2-z
1/2+x,1/2+y,1/2-z
1/2-x,1/2+y,1/2+z
1/2+x,1/2-y,1/2+z
loop_
_atom_site_type_symbol
_atom_site_label
_atom_site_fract_x
_atom_site_fract_y
_atom_site_fract_z
Si Si1 0.113179 0.399868 0.795294
Si Si2 0.111993 0.897841 0.845579
Si Si3 0.690473 0.696907 0.443463
Si Si4 0.104946 0.851671 0.363133
Si Si5 0.900112 0.689374 0.442500
Si Si6 0.614161 0.714809 0.248099
Si Si7 0.704363 0.900590 0.406137
O O1 0.144261 0.500000 0.778338
O O2 0.144986 0.317191 0.759948
O O3 0.147584 0.387618 0.853304
O O4 0.000000 0.398583 0.795800
O O5 0.134436 0.842595 0.896337
O O6 0.146313 0.846300 0.795242
O O7 0.000000 0.902285 0.840804
O O8 0.148793 0.000000 0.848498
O O9 0.653880 0.676403 0.500000
O O10 0.794896 0.652623 0.439156
O O11 0.694917 0.806841 0.437308
O O12 0.097045 0.762075 0.397655
O O13 0.138845 0.824574 0.306782
O O14 0.186915 0.905588 0.390127
O O15 0.000000 0.891312 0.360155
O O16 0.900839 0.730582 0.500000
O O17 0.000000 0.637030 0.438988
O O18 0.500000 0.715682 0.248055
O O19 0.677418 0.000000 0.427972
#
# Coordination Sequence:
#
# PCOD9521091 Si02
#       7
#    16  16  16  16  16  16  16
#     4   9  17  31  51  73 102 142 182 217 260 321
#     4  10  21  37  56  80 110 143 178 219 273 328
#     4  10  20  35  55  78 105 141 183 225 267 317
#     4   9  18  31  51  79 109 143 182 224 266 314
#     4   8  15  31  54  78 105 138 176 217 264 315
#     4   9  17  32  54  78 108 144 180 220 268 321
#     4  10  20  33  51  78 107 139 178 220 269 323
#
# _framework density 20.219709999999999
#
# number of rings (size 3 to 8) (size 9 to 14) (size 15 to 20)
#    0.000    2.714    1.429    0.000    0.000    2.286 
#    0.000    2.143    0.000    0.429    0.000   15.000 
#    0.000    0.000    0.000    0.000    0.000    0.000 
#
# Total GULP energy -311745.486393 kJ/mol
# GULP energy per Si atom -5566.883686 kJ/mol
# Density = 2.017369 g / cm^3
# Si number density = 20.219710 Si / 1000 Ang^3
#
#
#
# Elastic Constant Matrix: (Units=GPa)
#
#
# Indices 1 2 3 4 5 6 
#
# 1 20.3063 7.7790 4.3980 0.0000 0.0000 0.0000
# 2 7.7790 71.7502 24.3801 0.0000 0.0000 0.0000
# 3 4.3980 24.3801 99.2861 0.0000 0.0000 0.0000
# 4 0.0000 0.0000 0.0000 18.6343 0.0000 0.0000
# 5 0.0000 0.0000 0.0000 0.0000 15.2003 0.0000
# 6 0.0000 0.0000 0.0000 0.0000 0.0000 8.1758
#
#
#
# Elastic Compliance Matrix: (Units=1/GPa)
#
#
# Indices 1 2 3 4 5 6 
#
# 1 0.051469 -0.005243 -0.000992 0.000000 0.000000 0.000000
# 2 -0.005243 0.015740 -0.003633 0.000000 0.000000 0.000000
# 3 -0.000992 -0.003633 0.011008 0.000000 0.000000 0.000000
# 4 0.000000 0.000000 0.000000 0.053664 0.000000 0.000000
# 5 0.000000 0.000000 0.000000 0.000000 0.065788 0.000000
# 6 0.000000 0.000000 0.000000 0.000000 0.000000 0.122312
#
#
# Mechanical properties :
#
#
# Convention : Reuss Voigt Hill
#
# Bulk Modulus (GPa) = 17.09963 29.38411 23.24187
# Shear Modulus (GPa) = 13.91937 18.72113 16.32025
#
# Velocity S-wave (km/s) = 2.62660 3.04614 2.84411
# Velocity P-wave (km/s) = 4.20404 5.18998 4.72281
#
# Compressibility (1/GPa) = 0.05848079
#
# Stress axis : x y z
#
# Youngs Moduli (GPa) = 19.42906 63.53208 90.84376
#
# Poissons Ratio (x) = 0.33310 0.09016
# Poissons Ratio (y) = 0.10187 0.33002
# Poissons Ratio (z) = 0.01928 0.23080
#
# Static dielectric constant tensor:
#      x y z
#    x 1.786730 0.000000 0.000000 
#    y 0.000000 1.725100 0.000000 
#    z 0.000000 0.000000 1.675480 
# 
# From -- ./inp_files/34894.got.cif
#   From: 2010.05.17/outbox.cif.g08.bks.cpg/sg71_18_cif.got.tgz:34894.got - 2010.06.03 16:22:01.
