data_PCOD9521005
_publ_section_title
;
Structure prediction by ZEFSAII (Michael W. Deem and Ramdas Pophale) SiO2 
 PCOD9521005
Probable space group: I M M M
;
_chemical_formula_sum "Si O2"
_cell_formula_units_Z 72
_cell_length_a 33.058986
_cell_length_b 8.966775
_cell_length_c 13.758500
_cell_angle_alpha 90.000000
_cell_angle_beta 90.000000
_cell_angle_gamma 90.000000
_cell_volume 4078.466403
_symmetry_space_group_name_H-M "I M M M"
_symmetry_group_IT_number 71
_symmetry_cell_setting 'orthorhombic'
loop_
_space_group_symop_operation_xyz
x,y,z
-x,-y,z
x,-y,-z
-x,y,-z
-x,-y,-z
x,y,-z
-x,y,z
x,-y,z
1/2+x,1/2+y,1/2+z
1/2-x,1/2-y,1/2+z
1/2+x,1/2-y,1/2-z
1/2-x,1/2+y,1/2-z
1/2-x,1/2-y,1/2-z
1/2+x,1/2+y,1/2-z
1/2-x,1/2+y,1/2+z
1/2+x,1/2-y,1/2+z
loop_
_atom_site_type_symbol
_atom_site_label
_atom_site_fract_x
_atom_site_fract_y
_atom_site_fract_z
Si Si1 0.500000 0.179211 0.385056
Si Si2 0.129976 0.319624 0.613386
Si Si3 0.207203 0.326975 0.267127
Si Si4 0.076176 0.826924 0.779565
Si Si5 0.159268 0.834219 0.886197
O O1 0.500000 0.224874 0.500000
O O2 0.538778 0.241356 0.327062
O O3 0.500000 0.000000 0.382861
O O4 0.124645 0.282857 0.500000
O O5 0.127819 0.500000 0.624090
O O6 0.174915 0.272573 0.651172
O O7 0.096355 0.246268 0.683443
O O8 0.214245 0.500000 0.285678
O O9 0.250000 0.250000 0.250000
O O10 0.182537 0.294820 0.168986
O O11 0.112452 0.824073 0.857954
O O12 0.065727 0.000000 0.760528
O O13 0.173268 0.000000 0.852123
O O14 0.165164 0.825824 0.000000
#
# Coordination Sequence:
#
# PCOD9521005 Si02
#       5
#     8  16  16  16  16
#     4  11  23  37  56  83 114 147 179 212 256 315
#     4   9  19  37  58  77 103 143 185 224 270 322
#     4  10  20  33  50  75 105 137 176 220 265 313
#     4  10  20  35  56  82 110 138 173 219 266 314
#     4   9  18  33  52  73 100 135 170 207 258 315
#
# _framework density 17.653694000000002
#
# number of rings (size 3 to 8) (size 9 to 14) (size 15 to 20)
#    0.000    2.333    0.000    2.333    0.000    5.333 
#    0.000    2.778    0.000    3.333    0.000    0.000 
#    0.000    0.000    0.000    0.000    0.000    0.000 
#
# Total GULP energy -200602.323985 kJ/mol
# GULP energy per Si atom -5572.286777 kJ/mol
# Density = 1.761351 g / cm^3
# Si number density = 17.653694 Si / 1000 Ang^3
#
#
#
# Elastic Constant Matrix: (Units=GPa)
#
#
# Indices 1 2 3 4 5 6 
#
# 1 119.6806 47.4310 53.3157 0.0000 0.0000 0.0000
# 2 47.4310 54.5299 34.5366 0.0000 0.0000 0.0000
# 3 53.3157 34.5366 101.6789 0.0000 0.0000 0.0000
# 4 0.0000 0.0000 0.0000 24.3716 0.0000 0.0000
# 5 0.0000 0.0000 0.0000 0.0000 5.5900 0.0000
# 6 0.0000 0.0000 0.0000 0.0000 0.0000 35.0855
#
#
#
# Elastic Compliance Matrix: (Units=1/GPa)
#
#
# Indices 1 2 3 4 5 6 
#
# 1 0.013959 -0.009564 -0.004071 0.000000 0.000000 0.000000
# 2 -0.009564 0.029917 -0.005147 0.000000 0.000000 0.000000
# 3 -0.004071 -0.005147 0.013718 0.000000 0.000000 0.000000
# 4 0.000000 0.000000 0.000000 0.041031 0.000000 0.000000
# 5 0.000000 0.000000 0.000000 0.000000 0.178890 0.000000
# 6 0.000000 0.000000 0.000000 0.000000 0.000000 0.028502
#
#
# Mechanical properties :
#
#
# Convention : Reuss Voigt Hill
#
# Bulk Modulus (GPa) = 49.92358 60.71732 55.32045
# Shear Modulus (GPa) = 14.27517 22.38317 18.32917
#
# Velocity S-wave (km/s) = 2.84671 3.56463 3.22570
# Velocity P-wave (km/s) = 6.25666 7.17010 6.72890
#
# Compressibility (1/GPa) = 0.02003062
#
# Stress axis : x y z
#
# Youngs Moduli (GPa) = 71.63610 33.42578 72.89731
#
# Poissons Ratio (x) = 0.31967 0.29679
# Poissons Ratio (y) = 0.68510 0.37520
# Poissons Ratio (z) = 0.29165 0.17204
#
# Static dielectric constant tensor:
#      x y z
#    x 1.611740 0.000000 0.000000 
#    y 0.000000 1.624850 0.000000 
#    z 0.000000 0.000000 1.583920 
# 
# From -- ./inp_files/6461.got.cif
#   From: 2010.05.17/outbox.cif.g08.bks.cpg/sg71_4_cif.got.tgz:6461.got - 2010.06.03 16:22:01.
