data_PCOD9521450
_publ_section_title
;
Structure prediction by ZEFSAII (Michael W. Deem and Ramdas Pophale) SiO2 
 PCOD9521450
Probable space group: I M M M
;
_chemical_formula_sum "Si O2"
_cell_formula_units_Z 88
_cell_length_a 19.413792
_cell_length_b 8.885222
_cell_length_c 28.639440
_cell_angle_alpha 90.000000
_cell_angle_beta 90.000000
_cell_angle_gamma 90.000000
_cell_volume 4940.184597
_symmetry_space_group_name_H-M "I M M M"
_symmetry_group_IT_number 71
_symmetry_cell_setting 'orthorhombic'
loop_
_space_group_symop_operation_xyz
x,y,z
-x,-y,z
x,-y,-z
-x,y,-z
-x,-y,-z
x,y,-z
-x,y,z
x,-y,z
1/2+x,1/2+y,1/2+z
1/2-x,1/2-y,1/2+z
1/2+x,1/2-y,1/2-z
1/2-x,1/2+y,1/2-z
1/2-x,1/2-y,1/2-z
1/2+x,1/2+y,1/2-z
1/2-x,1/2+y,1/2+z
1/2+x,1/2-y,1/2+z
loop_
_atom_site_type_symbol
_atom_site_label
_atom_site_fract_x
_atom_site_fract_y
_atom_site_fract_z
Si Si1 0.583660 0.326934 0.225002
Si Si2 0.582240 0.176586 0.500000
Si Si3 0.581387 0.179891 0.322709
Si Si4 0.806872 0.316878 0.553650
Si Si5 0.419898 0.818394 0.127461
Si Si6 0.343735 0.680816 0.588850
O O1 0.500000 0.324520 0.224468
O O2 0.606122 0.500000 0.226962
O O3 0.603770 0.239793 0.271921
O O4 0.604884 0.249550 0.176649
O O5 0.500000 0.187645 0.500000
O O6 0.612409 0.255796 0.545695
O O7 0.600987 0.000000 0.500000
O O8 0.500000 0.218870 0.329196
O O9 0.625884 0.253120 0.363575
O O10 0.586768 0.000000 0.324354
O O11 0.808620 0.263882 0.500000
O O12 0.808193 0.500000 0.552043
O O13 0.871409 0.268967 0.585009
O O14 0.735287 0.275046 0.578411
O O15 0.500000 0.776217 0.120116
O O16 0.417200 0.000000 0.130771
O O17 0.347825 0.500000 0.589738
#
# Coordination Sequence:
#
# PCOD9521450 Si02
#       6
#    16   8  16  16  16  16
#     4   9  17  31  52  78 108 139 172 214 264 316
#     4  11  23  37  53  75 104 137 178 226 267 305
#     4  10  20  34  53  78 108 139 175 221 266 310
#     4   9  18  34  54  77 107 140 175 218 266 311
#     4   9  17  31  55  83 107 135 173 216 263 316
#     4  11  21  35  54  76 105 142 180 217 262 314
#
# _framework density 17.813099999999999
#
# number of rings (size 3 to 8) (size 9 to 14) (size 15 to 20)
#    0.000    2.273    0.909    2.455    0.000    6.545 
#    0.000    4.545    0.000    0.000    0.000    2.545 
#    0.000    0.000    0.000    0.000    0.000    0.000 
#
# Total GULP energy -245497.134476 kJ/mol
# GULP energy per Si atom -5579.480329 kJ/mol
# Density = 1.777256 g / cm^3
# Si number density = 17.813100 Si / 1000 Ang^3
#
#
#
# Elastic Constant Matrix: (Units=GPa)
#
#
# Indices 1 2 3 4 5 6 
#
# 1 88.4884 41.5788 88.8627 0.0000 0.0000 0.0000
# 2 41.5788 51.5571 50.2740 0.0000 0.0000 0.0000
# 3 88.8627 50.2740 176.4276 0.0000 0.0000 0.0000
# 4 0.0000 0.0000 0.0000 19.5674 0.0000 0.0000
# 5 0.0000 0.0000 0.0000 0.0000 188.2578 0.0000
# 6 0.0000 0.0000 0.0000 0.0000 0.0000 10.4033
#
#
#
# Elastic Compliance Matrix: (Units=1/GPa)
#
#
# Indices 1 2 3 4 5 6 
#
# 1 0.027299 -0.011920 -0.010353 0.000000 0.000000 0.000000
# 2 -0.011920 0.032064 -0.003133 0.000000 0.000000 0.000000
# 3 -0.010353 -0.003133 0.011775 0.000000 0.000000 0.000000
# 4 0.000000 0.000000 0.000000 0.051105 0.000000 0.000000
# 5 0.000000 0.000000 0.000000 0.000000 0.005312 0.000000
# 6 0.000000 0.000000 0.000000 0.000000 0.000000 0.096123
#
#
# Mechanical properties :
#
#
# Convention : Reuss Voigt Hill
#
# Bulk Modulus (GPa) = 49.19788 75.32267 62.26028
# Shear Modulus (GPa) = 17.77674 52.69620 35.23647
#
# Velocity S-wave (km/s) = 3.16248 5.44491 4.45243
# Velocity P-wave (km/s) = 6.40421 9.05020 7.83965
#
# Compressibility (1/GPa) = 0.02032608
#
# Stress axis : x y z
#
# Youngs Moduli (GPa) = 36.63166 31.18764 84.92234
#
# Poissons Ratio (x) = 0.37175 0.87921
# Poissons Ratio (y) = 0.43665 0.26606
# Poissons Ratio (z) = 0.37925 0.09771
#
# Static dielectric constant tensor:
#      x y z
#    x 1.602220 0.000000 0.000000 
#    y 0.000000 1.600430 0.000000 
#    z 0.000000 0.000000 1.585460 
# 
# From -- ./inp_files/12534.got.cif
#   From: 2010.05.17/outbox.cif.g08.bks.cpg/sg71_7_cif.got.tgz:12534.got - 2010.06.03 16:22:01.
