data_PCOD9521782
_publ_section_title
;
Structure prediction by ZEFSAII (Michael W. Deem and Ramdas Pophale) SiO2 
 PCOD9521782
Probable space group: I M M M
;
_chemical_formula_sum "Si O2"
_cell_formula_units_Z 120
_cell_length_a 28.062880
_cell_length_b 10.049480
_cell_length_c 24.334715
_cell_angle_alpha 90.000000
_cell_angle_beta 90.000000
_cell_angle_gamma 90.000000
_cell_volume 6862.811869
_symmetry_space_group_name_H-M "I M M M"
_symmetry_group_IT_number 71
_symmetry_cell_setting 'orthorhombic'
loop_
_space_group_symop_operation_xyz
x,y,z
-x,-y,z
x,-y,-z
-x,y,-z
-x,-y,-z
x,y,-z
-x,y,z
x,-y,z
1/2+x,1/2+y,1/2+z
1/2-x,1/2-y,1/2+z
1/2+x,1/2-y,1/2-z
1/2-x,1/2+y,1/2-z
1/2-x,1/2-y,1/2-z
1/2+x,1/2+y,1/2-z
1/2-x,1/2+y,1/2+z
1/2+x,1/2-y,1/2+z
loop_
_atom_site_type_symbol
_atom_site_label
_atom_site_fract_x
_atom_site_fract_y
_atom_site_fract_z
Si Si1 0.444709 0.344543 0.245770
Si Si2 0.186421 0.154959 0.936599
Si Si3 0.053155 0.000000 0.566032
Si Si4 0.123751 0.241349 0.564653
Si Si5 0.117508 0.644950 0.676500
Si Si6 0.768651 0.853649 0.433793
Si Si7 0.796783 0.341189 0.245114
Si Si8 0.862879 0.845189 0.828356
O O1 0.500000 0.308229 0.250494
O O2 0.441794 0.500000 0.229847
O O3 0.416612 0.255668 0.202062
O O4 0.415217 0.330074 0.302576
O O5 0.230715 0.243713 0.916273
O O6 0.143695 0.170917 0.893495
O O7 0.200877 0.000000 0.935738
O O8 0.174770 0.188543 0.000000
O O9 0.084556 0.129181 0.577578
O O10 0.048441 0.000000 0.500000
O O11 0.000000 0.000000 0.590385
O O12 0.120561 0.278303 0.500000
O O13 0.116825 0.350804 0.610891
O O14 0.176395 0.182228 0.575034
O O15 0.102180 0.500000 0.697002
O O16 0.170915 0.666394 0.699659
O O17 0.763892 0.859518 0.500000
O O18 0.758135 0.000000 0.410785
O O19 0.788123 0.500000 0.234430
O O20 0.750000 0.250000 0.250000
O O21 0.829764 0.265266 0.200485
O O22 0.847877 0.000000 0.815454
#
# Coordination Sequence:
#
# PCOD9521782 Si02
#       8
#    16  16   8  16  16  16  16  16
#     4   9  19  37  61  83 101 131 177 225 270 315
#     4   9  18  31  49  76 111 149 180 208 252 312
#     4   9  18  34  54  74  98 132 174 220 266 312
#     4  10  20  35  53  75 105 137 173 218 266 318
#     4  10  23  38  53  78 108 136 173 218 267 322
#     4   9  17  30  47  69 101 139 178 217 254 296
#     4  10  21  37  53  73 103 140 179 220 266 313
#     4   9  18  34  54  78 108 138 175 220 262 313
#
# _framework density 17.485544000000001
#
# number of rings (size 3 to 8) (size 9 to 14) (size 15 to 20)
#    0.000    2.600    0.667    0.400    2.800    2.667 
#    0.000    1.333    0.000    0.400    0.000    5.600 
#    0.000    0.000    0.000   10.000    0.000   10.400 
#
# Total GULP energy -334158.261468 kJ/mol
# GULP energy per Si atom -5569.304358 kJ/mol
# Density = 1.744575 g / cm^3
# Si number density = 17.485544 Si / 1000 Ang^3
#
#
#
# Elastic Constant Matrix: (Units=GPa)
#
#
# Indices 1 2 3 4 5 6 
#
# 1 104.1435 60.8297 46.3431 0.0000 0.0000 0.0000
# 2 60.8297 90.4553 43.4177 0.0000 0.0000 0.0000
# 3 46.3431 43.4177 81.2937 0.0000 0.0000 0.0000
# 4 0.0000 0.0000 0.0000 14.1292 0.0000 0.0000
# 5 0.0000 0.0000 0.0000 0.0000 10.8643 0.0000
# 6 0.0000 0.0000 0.0000 0.0000 0.0000 15.2923
#
#
#
# Elastic Compliance Matrix: (Units=1/GPa)
#
#
# Indices 1 2 3 4 5 6 
#
# 1 0.017131 -0.009188 -0.004859 0.000000 0.000000 0.000000
# 2 -0.009188 0.019794 -0.005334 0.000000 0.000000 0.000000
# 3 -0.004859 -0.005334 0.017920 0.000000 0.000000 0.000000
# 4 0.000000 0.000000 0.000000 0.070775 0.000000 0.000000
# 5 0.000000 0.000000 0.000000 0.000000 0.092045 0.000000
# 6 0.000000 0.000000 0.000000 0.000000 0.000000 0.065392
#
#
# Mechanical properties :
#
#
# Convention : Reuss Voigt Hill
#
# Bulk Modulus (GPa) = 62.17569 64.11928 63.14748
# Shear Modulus (GPa) = 15.28211 16.41062 15.84637
#
# Velocity S-wave (km/s) = 2.95953 3.06686 3.01367
# Velocity P-wave (km/s) = 6.87852 7.02071 6.94997
#
# Compressibility (1/GPa) = 0.01608346
#
# Stress axis : x y z
#
# Youngs Moduli (GPa) = 58.37381 50.51940 55.80493
#
# Poissons Ratio (x) = 0.46418 0.27113
# Poissons Ratio (y) = 0.53635 0.29766
# Poissons Ratio (z) = 0.28361 0.26947
#
# Static dielectric constant tensor:
#      x y z
#    x 1.577670 0.000000 0.000000 
#    y 0.000000 1.614760 0.000000 
#    z 0.000000 0.000000 1.617970 
# 
# From -- ./inp_files/67144.got.cif
#   From: 2010.05.17/outbox.cif.g08.bks.cpg/sg71_34_cif.got.tgz:67144.got - 2010.06.03 16:22:01.
