data_PCOD9521774
_publ_section_title
;
Structure prediction by ZEFSAII (Michael W. Deem and Ramdas Pophale) SiO2 
 PCOD9521774
Probable space group: I M M M
;
_chemical_formula_sum "Si O2"
_cell_formula_units_Z 120
_cell_length_a 19.504769
_cell_length_b 12.728843
_cell_length_c 26.285723
_cell_angle_alpha 90.000000
_cell_angle_beta 90.000000
_cell_angle_gamma 90.000000
_cell_volume 6526.039048
_symmetry_space_group_name_H-M "I M M M"
_symmetry_group_IT_number 71
_symmetry_cell_setting 'orthorhombic'
loop_
_space_group_symop_operation_xyz
x,y,z
-x,-y,z
x,-y,-z
-x,y,-z
-x,-y,-z
x,y,-z
-x,y,z
x,-y,z
1/2+x,1/2+y,1/2+z
1/2-x,1/2-y,1/2+z
1/2+x,1/2-y,1/2-z
1/2-x,1/2+y,1/2-z
1/2-x,1/2-y,1/2-z
1/2+x,1/2+y,1/2-z
1/2-x,1/2+y,1/2+z
1/2+x,1/2-y,1/2+z
loop_
_atom_site_type_symbol
_atom_site_label
_atom_site_fract_x
_atom_site_fract_y
_atom_site_fract_z
Si Si1 0.421485 0.618380 0.274332
Si Si2 0.902832 0.885914 0.058956
Si Si3 0.000000 0.627526 0.560521
Si Si4 0.074746 0.291230 0.137925
Si Si5 0.628184 0.120483 0.867255
Si Si6 0.253153 0.174337 0.942709
Si Si7 0.779917 0.619679 0.115371
Si Si8 0.693552 0.713628 0.792045
O O1 0.500000 0.626209 0.254790
O O2 0.413634 0.500000 0.295382
O O3 0.413067 0.709989 0.315833
O O4 0.362791 0.639165 0.233532
O O5 0.927938 0.786969 0.089977
O O6 0.820486 0.879885 0.061395
O O7 0.924639 0.000000 0.078628
O O8 0.921793 0.878542 0.000000
O O9 0.934041 0.657660 0.595554
O O10 0.000000 0.500000 0.558076
O O11 0.000000 0.662066 0.500000
O O12 0.140263 0.364201 0.130209
O O13 0.000000 0.342296 0.144506
O O14 0.694565 0.125199 0.903297
O O15 0.650184 0.192359 0.819279
O O16 0.613742 0.000000 0.851762
O O17 0.239573 0.295681 0.927731
O O18 0.279073 0.163881 0.000000
O O19 0.767047 0.500000 0.100926
O O20 0.735088 0.654098 0.163906
O O21 0.750000 0.750000 0.750000
#
# Coordination Sequence:
#
# PCOD9521774 Si02
#       8
#    16  16   8  16  16  16  16  16
#     4  10  21  37  58  80 105 141 185 234 285 337
#     4   9  17  29  48  75 106 138 172 218 276 330
#     4   9  18  34  56  86 123 159 189 223 283 362
#     4  10  20  35  52  75 105 138 180 224 273 333
#     4  10  21  34  55  86 117 151 187 230 285 348
#     4   9  18  33  53  79 108 140 180 227 277 332
#     4  10  21  37  55  78 105 138 184 230 275 331
#     4  11  22  39  56  81 111 150 191 240 284 338
#
# _framework density 18.387877
#
# number of rings (size 3 to 8) (size 9 to 14) (size 15 to 20)
#    0.000    2.200    1.333    1.600    0.933    4.000 
#    0.000    0.667    0.000    0.000    0.000    3.733 
#    0.000    5.600    0.000    0.000    0.000    0.000 
#
# Total GULP energy -334456.093358 kJ/mol
# GULP energy per Si atom -5574.268223 kJ/mol
# Density = 1.834602 g / cm^3
# Si number density = 18.387877 Si / 1000 Ang^3
#
#
#
# Elastic Constant Matrix: (Units=GPa)
#
#
# Indices 1 2 3 4 5 6 
#
# 1 78.5651 6.8373 18.2775 0.0000 0.0000 0.0000
# 2 6.8373 74.4219 7.0126 0.0000 0.0000 0.0000
# 3 18.2775 7.0126 57.3442 0.0000 0.0000 0.0000
# 4 0.0000 0.0000 0.0000 -80.4697 0.0000 0.0000
# 5 0.0000 0.0000 0.0000 0.0000 20.1532 0.0000
# 6 0.0000 0.0000 0.0000 0.0000 0.0000 44.4149
#
#
#
# Elastic Compliance Matrix: (Units=1/GPa)
#
#
# Indices 1 2 3 4 5 6 
#
# 1 0.013802 -0.000863 -0.004294 0.000000 0.000000 0.000000
# 2 -0.000863 0.013648 -0.001394 0.000000 0.000000 0.000000
# 3 -0.004294 -0.001394 0.018978 0.000000 0.000000 0.000000
# 4 0.000000 0.000000 0.000000 -0.012427 0.000000 0.000000
# 5 0.000000 0.000000 0.000000 0.000000 0.049620 0.000000
# 6 0.000000 0.000000 0.000000 0.000000 0.000000 0.022515
#
#
# Mechanical properties :
#
#
# Convention : Reuss Voigt Hill
#
# Bulk Modulus (GPa) = 30.00689 30.50956 30.25823
# Shear Modulus (GPa) = 38.35955 8.69993 23.52974
#
# Velocity S-wave (km/s) = 4.57238 2.17752 3.58108
# Velocity P-wave (km/s) = 6.65055 4.79066 5.79569
#
# Compressibility (1/GPa) = 0.03332567
#
# Stress axis : x y z
#
# Youngs Moduli (GPa) = 72.45150 73.27314 52.69386
#
# Poissons Ratio (x) = 0.06327 0.22625
# Poissons Ratio (y) = 0.06256 0.07344
# Poissons Ratio (z) = 0.31108 0.10212
#
# Static dielectric constant tensor:
#      x y z
#    x 1.656520 0.000000 0.000000 
#    y 0.000000 1.610710 0.000000 
#    z 0.000000 0.000000 1.632490 
# 
# From -- ./inp_files/66636.got.cif
#   From: 2010.05.17/outbox.cif.g08.bks.cpg/sg71_34_cif.got.tgz:66636.got - 2010.06.03 16:22:01.
