data_PCOD9521485
_publ_section_title
;
Structure prediction by ZEFSAII (Michael W. Deem and Ramdas Pophale) SiO2 
 PCOD9521485
Probable space group: I M M M
;
_chemical_formula_sum "Si O2"
_cell_formula_units_Z 72
_cell_length_a 15.251200
_cell_length_b 27.872578
_cell_length_c 8.464160
_cell_angle_alpha 90.000000
_cell_angle_beta 90.000000
_cell_angle_gamma 90.000000
_cell_volume 3598.031989
_symmetry_space_group_name_H-M "I M M M"
_symmetry_group_IT_number 71
_symmetry_cell_setting 'orthorhombic'
loop_
_space_group_symop_operation_xyz
x,y,z
-x,-y,z
x,-y,-z
-x,y,-z
-x,-y,-z
x,y,-z
-x,y,z
x,-y,z
1/2+x,1/2+y,1/2+z
1/2-x,1/2-y,1/2+z
1/2+x,1/2-y,1/2-z
1/2-x,1/2+y,1/2-z
1/2-x,1/2-y,1/2-z
1/2+x,1/2+y,1/2-z
1/2-x,1/2+y,1/2+z
1/2+x,1/2-y,1/2+z
loop_
_atom_site_type_symbol
_atom_site_label
_atom_site_fract_x
_atom_site_fract_y
_atom_site_fract_z
Si Si1 0.905507 0.172982 0.312088
Si Si2 0.601804 0.500000 0.310974
Si Si3 0.342815 0.231455 0.313283
Si Si4 0.901133 0.374355 0.806819
Si Si5 0.718313 0.411817 0.191235
O O1 0.895718 0.180855 0.500000
O O2 0.904093 0.224167 0.229865
O O3 0.827847 0.138152 0.260465
O O4 0.000000 0.148995 0.285026
O O5 0.500000 0.500000 0.252834
O O6 0.598468 0.500000 0.500000
O O7 0.658104 0.454269 0.254881
O O8 0.335098 0.226199 0.500000
O O9 0.250000 0.250000 0.250000
O O10 0.376539 0.179934 0.254025
O O11 0.820276 0.408685 0.759380
O O12 0.000000 0.386663 0.755244
O O13 0.901943 0.374201 0.000000
O O14 0.716049 0.414161 0.000000
#
# Coordination Sequence:
#
# PCOD9521485 Si02
#       5
#    16   8  16  16  16
#     4  10  20  34  53  81 115 149 190 237 283 337
#     4  11  25  43  62  87 116 142 177 231 292 349
#     4  11  20  33  53  79 116 157 198 237 280 330
#     4   9  18  34  57  84 114 150 194 238 275 322
#     4  10  20  38  62  85 111 147 190 233 282 342
#
# _framework density 20.010937999999999
#
# number of rings (size 3 to 8) (size 9 to 14) (size 15 to 20)
#    0.000    1.889    2.222    2.333    0.000    4.000 
#    0.000    0.556    0.000    6.667    0.000    0.000 
#    0.000    0.000    0.000    0.000    0.000    0.000 
#
# Total GULP energy -200815.067425 kJ/mol
# GULP energy per Si atom -5578.196317 kJ/mol
# Density = 1.996539 g / cm^3
# Si number density = 20.010938 Si / 1000 Ang^3
#
#
#
# Elastic Constant Matrix: (Units=GPa)
#
#
# Indices 1 2 3 4 5 6 
#
# 1 205.9280 63.2461 26.3554 -0.0004 0.0002 0.0002
# 2 63.2461 89.1963 12.0653 -0.0006 0.0004 0.0003
# 3 26.3554 12.0653 9.6546 -0.0008 0.0024 0.0017
# 4 -0.0004 -0.0006 -0.0008 26.7364 0.0005 0.0007
# 5 0.0002 0.0004 0.0024 0.0005 20.5153 -0.0001
# 6 0.0002 0.0003 0.0017 0.0007 -0.0001 27.9665
#
#
#
# Elastic Compliance Matrix: (Units=1/GPa)
#
#
# Indices 1 2 3 4 5 6 
#
# 1 0.008225 -0.003363 -0.018249 -0.000001 0.000002 0.000001
# 2 -0.003363 0.014867 -0.009398 0.000000 0.000001 0.000000
# 3 -0.018249 -0.009398 0.165138 0.000005 -0.000019 -0.000010
# 4 -0.000001 0.000000 0.000005 0.037402 -0.000001 -0.000001
# 5 0.000002 0.000001 -0.000019 -0.000001 0.048744 0.000000
# 6 0.000001 0.000000 -0.000010 -0.000001 0.000000 0.035757
#
#
# Mechanical properties :
#
#
# Convention : Reuss Voigt Hill
#
# Bulk Modulus (GPa) = 7.92330 56.45694 32.19012
# Shear Modulus (GPa) = 12.07077 28.58447 20.32762
#
# Velocity S-wave (km/s) = 2.45869 3.78357 3.19066
# Velocity P-wave (km/s) = 3.46819 6.88197 5.44930
#
# Compressibility (1/GPa) = 0.12621007
#
# Stress axis : x y z
#
# Youngs Moduli (GPa) = 121.58705 67.26164 6.05553
#
# Poissons Ratio (x) = 0.22622 0.11050
# Poissons Ratio (y) = 0.40894 0.05691
# Poissons Ratio (z) = 2.21879 0.63214
#
# Static dielectric constant tensor:
#      x y z
#    x 1.780260 0.000000 0.000000 
#    y 0.000000 1.694880 0.000000 
#    z 0.000000 0.000000 1.691000 
# 
# From -- ./inp_files/6028.got.cif
#   From: 2010.05.17/outbox.cif.g08.bks.cpg/sg71_4_cif.got.tgz:6028.got - 2010.06.03 16:22:01.
