data_PCOD9521046
_publ_section_title
;
Structure prediction by ZEFSAII (Michael W. Deem and Ramdas Pophale) SiO2 
 PCOD9521046
Probable space group: I M M M
;
_chemical_formula_sum "Si O2"
_cell_formula_units_Z 104
_cell_length_a 29.370760
_cell_length_b 20.870004
_cell_length_c 7.632218
_cell_angle_alpha 90.000000
_cell_angle_beta 90.000000
_cell_angle_gamma 90.000000
_cell_volume 4678.304477
_symmetry_space_group_name_H-M "I M M M"
_symmetry_group_IT_number 71
_symmetry_cell_setting 'orthorhombic'
loop_
_space_group_symop_operation_xyz
x,y,z
-x,-y,z
x,-y,-z
-x,y,-z
-x,-y,-z
x,y,-z
-x,y,z
x,-y,z
1/2+x,1/2+y,1/2+z
1/2-x,1/2-y,1/2+z
1/2+x,1/2-y,1/2-z
1/2-x,1/2+y,1/2-z
1/2-x,1/2-y,1/2-z
1/2+x,1/2+y,1/2-z
1/2-x,1/2+y,1/2+z
1/2+x,1/2-y,1/2+z
loop_
_atom_site_type_symbol
_atom_site_label
_atom_site_fract_x
_atom_site_fract_y
_atom_site_fract_z
Si Si1 0.896827 0.299851 0.791914
Si Si2 0.422675 0.334022 0.296153
Si Si3 0.000000 0.927350 0.215464
Si Si4 0.258440 0.068733 0.790232
Si Si5 0.348353 0.429687 0.790834
Si Si6 0.553316 0.927471 0.713494
Si Si7 0.792246 0.703017 0.290772
O O1 0.922281 0.236976 0.718245
O O2 0.914825 0.368599 0.724302
O O3 0.843467 0.283777 0.769695
O O4 0.905371 0.301950 0.000000
O O5 0.435029 0.326474 0.500000
O O6 0.456955 0.386517 0.222622
O O7 0.374190 0.369132 0.285799
O O8 0.000000 0.000000 0.277079
O O9 0.000000 0.930106 0.000000
O O10 0.204684 0.072872 0.755312
O O11 0.280926 0.132410 0.718493
O O12 0.274918 0.000000 0.721157
O O13 0.264878 0.068547 0.000000
O O14 0.365742 0.500000 0.729111
O O15 0.352925 0.427472 0.000000
O O16 0.555111 0.928482 0.500000
O O17 0.500000 0.916372 0.760107
O O18 0.565919 0.000000 0.771699
O O19 0.794350 0.700906 0.500000
O O20 0.750000 0.750000 0.250000
#
# Coordination Sequence:
#
# PCOD9521046 Si02
#       7
#    16  16   8  16  16  16  16
#     4  10  21  34  53  82 111 141 181 226 273 324
#     4  10  20  33  51  75 103 136 174 217 261 307
#     4   9  18  32  51  75 100 130 170 213 255 297
#     4   9  19  36  56  76  99 133 177 220 261 308
#     4  10  20  33  51  76 104 135 173 216 263 315
#     4   8  15  30  54  83 114 147 183 227 280 336
#     4  11  23  38  56  78 109 146 183 225 274 328
#
# _framework density 22.230276
#
# number of rings (size 3 to 8) (size 9 to 14) (size 15 to 20)
#    0.000    2.385    0.000    2.769    1.077    7.692 
#    0.000    0.385    0.000    1.846    0.000    1.077 
#    0.000    0.000    0.000    0.000    0.000    0.000 
#
# Total GULP energy -290131.298290 kJ/mol
# GULP energy per Si atom -5579.448044 kJ/mol
# Density = 2.217968 g / cm^3
# Si number density = 22.230276 Si / 1000 Ang^3
#
#
#
# Elastic Constant Matrix: (Units=GPa)
#
#
# Indices 1 2 3 4 5 6 
#
# 1 57.0661 72.7060 -9.1406 0.0000 0.0000 0.0000
# 2 72.7060 219.6610 11.1849 0.0000 0.0000 0.0000
# 3 -9.1406 11.1849 48.0163 0.0000 0.0000 0.0000
# 4 0.0000 0.0000 0.0000 3.8368 0.0000 0.0000
# 5 0.0000 0.0000 0.0000 0.0000 -2.2492 0.0000
# 6 0.0000 0.0000 0.0000 0.0000 0.0000 39.8132
#
#
#
# Elastic Compliance Matrix: (Units=1/GPa)
#
#
# Indices 1 2 3 4 5 6 
#
# 1 0.033870 -0.011677 0.009168 0.000000 0.000000 0.000000
# 2 -0.011677 0.008633 -0.004234 0.000000 0.000000 0.000000
# 3 0.009168 -0.004234 0.023558 0.000000 0.000000 0.000000
# 4 0.000000 0.000000 0.000000 0.260636 0.000000 0.000000
# 5 0.000000 0.000000 0.000000 0.000000 -0.444598 0.000000
# 6 0.000000 0.000000 0.000000 0.000000 0.000000 0.025117
#
#
# Mechanical properties :
#
#
# Convention : Reuss Voigt Hill
#
# Bulk Modulus (GPa) = 19.02105 52.69376 35.85741
# Shear Modulus (GPa) = -80.94249 24.94636 -27.99807
#
# Velocity S-wave (km/s) = -6.04069 3.35353 -3.55273
# Velocity P-wave (km/s) = 6.33075 6.22494 0.81499
#
# Compressibility (1/GPa) = 0.05257334
#
# Stress axis : x y z
#
# Youngs Moduli (GPa) = 29.52489 115.83217 42.44889
#
# Poissons Ratio (x) = 1.35262 -0.38916
# Poissons Ratio (y) = 0.34477 0.17973
# Poissons Ratio (z) = -0.27068 0.49043
#
# Static dielectric constant tensor:
#      x y z
#    x 1.895810 0.000000 0.000000 
#    y 0.000000 1.869070 0.000000 
#    z 0.000000 0.000000 1.857310 
# 
# From -- ./inp_files/15035.got.cif
#   From: 2010.05.17/outbox.cif.g08.bks.cpg/sg71_8_cif.got.tgz:15035.got - 2010.06.03 16:22:01.
