data_PCOD9521949
_publ_section_title
;
Structure prediction by ZEFSAII (Michael W. Deem and Ramdas Pophale) SiO2 
 PCOD9521949
Probable space group: I M M M
;
_chemical_formula_sum "Si O2"
_cell_formula_units_Z 80
_cell_length_a 9.145900
_cell_length_b 22.738935
_cell_length_c 21.236930
_cell_angle_alpha 90.000000
_cell_angle_beta 90.000000
_cell_angle_gamma 90.000000
_cell_volume 4416.602402
_symmetry_space_group_name_H-M "I M M M"
_symmetry_group_IT_number 71
_symmetry_cell_setting 'orthorhombic'
loop_
_space_group_symop_operation_xyz
x,y,z
-x,-y,z
x,-y,-z
-x,y,-z
-x,-y,-z
x,y,-z
-x,y,z
x,-y,z
1/2+x,1/2+y,1/2+z
1/2-x,1/2-y,1/2+z
1/2+x,1/2-y,1/2-z
1/2-x,1/2+y,1/2-z
1/2-x,1/2-y,1/2-z
1/2+x,1/2+y,1/2-z
1/2-x,1/2+y,1/2+z
1/2+x,1/2-y,1/2+z
loop_
_atom_site_type_symbol
_atom_site_label
_atom_site_fract_x
_atom_site_fract_y
_atom_site_fract_z
Si Si1 0.670463 0.119841 0.575861
Si Si2 0.326260 0.069768 0.129544
Si Si3 0.671747 0.331862 0.701838
Si Si4 0.832114 0.071400 0.000000
Si Si5 0.331519 0.500000 0.076661
Si Si6 0.171967 0.216589 0.343228
O O1 0.678172 0.122569 0.500000
O O2 0.500000 0.119667 0.594051
O O3 0.748083 0.059122 0.596260
O O4 0.753340 0.174675 0.605986
O O5 0.500000 0.079242 0.127214
O O6 0.252457 0.108332 0.183565
O O7 0.300393 0.000000 0.138000
O O8 0.252713 0.088419 0.063341
O O9 0.500000 0.335631 0.687022
O O10 0.747050 0.278784 0.663542
O O11 0.686695 0.315246 0.775242
O O12 0.000000 0.092092 0.000000
O O13 0.834774 0.000000 0.000000
O O14 0.500000 0.500000 0.097687
O O15 0.332047 0.500000 0.000000
O O16 0.000000 0.224943 0.355776
#
# Coordination Sequence:
#
# PCOD9521949 Si02
#       6
#    16  16  16   8   8  16
#     4  10  20  35  56  83 114 146 183 228 276 328
#     4  10  20  35  56  83 114 146 183 227 273 326
#     4  10  21  38  59  81 108 145 185 228 276 330
#     4   9  17  31  53  79 109 145 179 218 271 324
#     4   9  17  31  53  79 109 145 181 220 271 326
#     4  10  21  38  59  81 108 146 186 228 277 331
#
# _framework density 18.113472000000002
#
# number of rings (size 3 to 8) (size 9 to 14) (size 15 to 20)
#    0.000    2.200    0.000    3.000    0.000    7.200 
#    3.600    0.000    0.000    0.000    0.000    0.000 
#    0.000    0.000    0.000    0.000    0.000    0.000 
#
# Total GULP energy -223299.277944 kJ/mol
# GULP energy per Si atom -5582.481949 kJ/mol
# Density = 1.807224 g / cm^3
# Si number density = 18.113472 Si / 1000 Ang^3
#
#
#
# Elastic Constant Matrix: (Units=GPa)
#
#
# Indices 1 2 3 4 5 6 
#
# 1 152.5320 67.0717 38.0371 0.0000 0.0000 0.0000
# 2 67.0717 73.3219 23.7250 0.0000 0.0000 0.0000
# 3 38.0371 23.7250 15.5038 0.0000 0.0000 0.0000
# 4 0.0000 0.0000 0.0000 22.5201 0.0000 0.0000
# 5 0.0000 0.0000 0.0000 0.0000 29.4550 0.0000
# 6 0.0000 0.0000 0.0000 0.0000 0.0000 36.2848
#
#
#
# Elastic Compliance Matrix: (Units=1/GPa)
#
#
# Indices 1 2 3 4 5 6 
#
# 1 0.017517 -0.004195 -0.036556 0.000000 0.000000 0.000000
# 2 -0.004195 0.028020 -0.032586 0.000000 0.000000 0.000000
# 3 -0.036556 -0.032586 0.204054 0.000000 0.000000 0.000000
# 4 0.000000 0.000000 0.000000 0.044405 0.000000 0.000000
# 5 0.000000 0.000000 0.000000 0.000000 0.033950 0.000000
# 6 0.000000 0.000000 0.000000 0.000000 0.000000 0.027560
#
#
# Mechanical properties :
#
#
# Convention : Reuss Voigt Hill
#
# Bulk Modulus (GPa) = 9.71672 55.44726 32.58199
# Shear Modulus (GPa) = 9.31992 25.15357 17.23674
#
# Velocity S-wave (km/s) = 2.27079 3.73052 3.08814
# Velocity P-wave (km/s) = 3.50019 7.01664 5.54457
#
# Compressibility (1/GPa) = 0.10291535
#
# Stress axis : x y z
#
# Youngs Moduli (GPa) = 57.08853 35.68899 4.90067
#
# Poissons Ratio (x) = 0.14971 0.17915
# Poissons Ratio (y) = 0.23948 0.15970
# Poissons Ratio (z) = 2.08694 1.16298
#
# Static dielectric constant tensor:
#      x y z
#    x 1.604610 0.000000 0.000000 
#    y 0.000000 1.603430 0.000000 
#    z 0.000000 0.000000 1.613120 
# 
# From -- ./inp_files/57442.got.cif
#   From: 2010.05.17/outbox.cif.g08.bks.cpg/sg71_29_cif.got.tgz:57442.got - 2010.06.03 16:22:01.
