data_PCOD9521141
_publ_section_title
;
Structure prediction by ZEFSAII (Michael W. Deem and Ramdas Pophale) SiO2 
 PCOD9521141
Probable space group: I M M M
;
_chemical_formula_sum "Si O2"
_cell_formula_units_Z 112
_cell_length_a 23.515783
_cell_length_b 29.964749
_cell_length_c 7.603464
_cell_angle_alpha 90.000000
_cell_angle_beta 90.000000
_cell_angle_gamma 90.000000
_cell_volume 5357.739356
_symmetry_space_group_name_H-M "I M M M"
_symmetry_group_IT_number 71
_symmetry_cell_setting 'orthorhombic'
loop_
_space_group_symop_operation_xyz
x,y,z
-x,-y,z
x,-y,-z
-x,y,-z
-x,-y,-z
x,y,-z
-x,y,z
x,-y,z
1/2+x,1/2+y,1/2+z
1/2-x,1/2-y,1/2+z
1/2+x,1/2-y,1/2-z
1/2-x,1/2+y,1/2-z
1/2-x,1/2-y,1/2-z
1/2+x,1/2+y,1/2-z
1/2-x,1/2+y,1/2+z
1/2+x,1/2-y,1/2+z
loop_
_atom_site_type_symbol
_atom_site_label
_atom_site_fract_x
_atom_site_fract_y
_atom_site_fract_z
Si Si1 0.175605 0.048795 0.291074
Si Si2 0.633729 0.861703 0.290694
Si Si3 0.738339 0.637183 0.788228
Si Si4 0.065008 0.449825 0.711853
Si Si5 0.872180 0.187521 0.210441
Si Si6 0.565297 0.223720 0.284341
Si Si7 0.435677 0.401788 0.287318
O O1 0.186185 0.047474 0.500000
O O2 0.211024 0.090823 0.219701
O O3 0.109471 0.060716 0.265053
O O4 0.189327 0.000000 0.217922
O O5 0.637372 0.854919 0.500000
O O6 0.697816 0.857211 0.220804
O O7 0.607094 0.910433 0.263432
O O8 0.592400 0.822829 0.223404
O O9 0.693318 0.676118 0.748581
O O10 0.740849 0.633982 0.000000
O O11 0.063802 0.450791 0.500000
O O12 0.080759 0.500000 0.771850
O O13 0.000000 0.440690 0.771825
O O14 0.896735 0.234357 0.274570
O O15 0.909472 0.145442 0.275822
O O16 0.878347 0.187955 0.000000
O O17 0.565039 0.223699 0.500000
O O18 0.500000 0.228577 0.228949
O O19 0.436716 0.400469 0.500000
O O20 0.500000 0.408341 0.225600
#
# Coordination Sequence:
#
# PCOD9521141 Si02
#       7
#    16  16  16  16  16  16  16
#     4   9  18  32  47  62  86 123 160 193 236 289
#     4  10  20  33  52  78 104 131 166 206 247 292
#     4   9  19  34  49  69  99 130 162 204 247 285
#     4   9  19  36  55  75 103 137 168 202 249 300
#     4   9  17  31  51  71  93 128 169 199 233 290
#     4   9  17  30  50  76 103 128 158 202 251 294
#     4   9  17  29  46  68  92 118 152 196 241 283
#
# _framework density 20.904337999999999
#
# number of rings (size 3 to 8) (size 9 to 14) (size 15 to 20)
#    0.000    2.857    0.000    1.286    0.000    5.429 
#    0.000    4.286    0.000    2.143    0.000    0.000 
#    0.000    0.000    0.000    0.000    0.000    0.000 
#
# Total GULP energy -312482.325356 kJ/mol
# GULP energy per Si atom -5580.041524 kJ/mol
# Density = 2.085676 g / cm^3
# Si number density = 20.904338 Si / 1000 Ang^3
#
#
#
# Elastic Constant Matrix: (Units=GPa)
#
#
# Indices 1 2 3 4 5 6 
#
# 1 159.1724 93.2737 0.3391 0.0000 0.0000 0.0000
# 2 93.2737 145.1716 0.3901 0.0000 0.0000 0.0000
# 3 0.3391 0.3901 41.4249 0.0000 0.0000 0.0000
# 4 0.0000 0.0000 0.0000 2.8661 0.0000 0.0000
# 5 0.0000 0.0000 0.0000 0.0000 -0.3151 0.0000
# 6 0.0000 0.0000 0.0000 0.0000 0.0000 21.7789
#
#
#
# Elastic Compliance Matrix: (Units=1/GPa)
#
#
# Indices 1 2 3 4 5 6 
#
# 1 0.010076 -0.006474 -0.000022 0.000000 0.000000 0.000000
# 2 -0.006474 0.011048 -0.000051 0.000000 0.000000 0.000000
# 3 -0.000022 -0.000051 0.024141 0.000000 0.000000 0.000000
# 4 0.000000 0.000000 0.000000 0.348908 0.000000 0.000000
# 5 0.000000 0.000000 0.000000 0.000000 -3.173368 0.000000
# 6 0.000000 0.000000 0.000000 0.000000 0.000000 0.045916
#
#
# Mechanical properties :
#
#
# Convention : Reuss Voigt Hill
#
# Bulk Modulus (GPa) = 31.08294 59.30830 45.19562
# Shear Modulus (GPa) = -1.84538 21.65036 9.90249
#
# Velocity S-wave (km/s) = -0.94058 3.22170 2.17884
# Velocity P-wave (km/s) = 3.70430 6.50169 5.29121
#
# Compressibility (1/GPa) = 0.03217199
#
# Stress axis : x y z
#
# Youngs Moduli (GPa) = 99.24313 90.51299 41.42376
#
# Poissons Ratio (x) = 0.58598 0.00089
# Poissons Ratio (y) = 0.64250 0.00211
# Poissons Ratio (z) = 0.00214 0.00462
#
# Static dielectric constant tensor:
#      x y z
#    x 1.727270 0.000000 0.000000 
#    y 0.000000 1.737140 0.000000 
#    z 0.000000 0.000000 1.798290 
# 
# From -- ./inp_files/26233.got.cif
#   From: 2010.05.17/outbox.cif.g08.bks.cpg/sg71_14_cif.got.tgz:26233.got - 2010.06.03 16:22:01.
