data_PCOD9521339
_publ_section_title
;
Structure prediction by ZEFSAII (Michael W. Deem and Ramdas Pophale) SiO2 
 PCOD9521339
Probable space group: I M M M
;
_chemical_formula_sum "Si O2"
_cell_formula_units_Z 88
_cell_length_a 21.931594
_cell_length_b 9.544543
_cell_length_c 21.427462
_cell_angle_alpha 90.000000
_cell_angle_beta 90.000000
_cell_angle_gamma 90.000000
_cell_volume 4485.347238
_symmetry_space_group_name_H-M "I M M M"
_symmetry_group_IT_number 71
_symmetry_cell_setting 'orthorhombic'
loop_
_space_group_symop_operation_xyz
x,y,z
-x,-y,z
x,-y,-z
-x,y,-z
-x,-y,-z
x,y,-z
-x,y,z
x,-y,z
1/2+x,1/2+y,1/2+z
1/2-x,1/2-y,1/2+z
1/2+x,1/2-y,1/2-z
1/2-x,1/2+y,1/2-z
1/2-x,1/2-y,1/2-z
1/2+x,1/2+y,1/2-z
1/2-x,1/2+y,1/2+z
1/2+x,1/2-y,1/2+z
loop_
_atom_site_type_symbol
_atom_site_label
_atom_site_fract_x
_atom_site_fract_y
_atom_site_fract_z
Si Si1 0.427972 0.166221 0.847189
Si Si2 0.074959 0.158421 0.000000
Si Si3 0.403145 0.339650 0.276725
Si Si4 0.312560 0.168583 0.929646
Si Si5 0.236353 0.159151 0.810634
Si Si6 0.930560 0.345360 0.888703
O O1 0.500000 0.189929 0.860018
O O2 0.406717 0.266652 0.790715
O O3 0.381296 0.193065 0.904079
O O4 0.421580 0.000000 0.830485
O O5 0.097338 0.242494 0.060244
O O6 0.000000 0.149308 0.000000
O O7 0.097427 0.000000 0.000000
O O8 0.426307 0.500000 0.274410
O O9 0.336337 0.347040 0.307736
O O10 0.434964 0.232751 0.323373
O O11 0.266296 0.215558 0.874541
O O12 0.304853 0.000000 0.933060
O O13 0.303271 0.223912 0.000000
O O14 0.250000 0.250000 0.750000
O O15 0.260218 0.000000 0.802172
O O16 0.902475 0.500000 0.883952
O O17 0.000000 0.363230 0.910919
#
# Coordination Sequence:
#
# PCOD9521339 Si02
#       6
#    16   8  16  16  16  16
#     4  10  20  34  56  86 115 147 188 232 285 349
#     4   9  17  31  51  73 101 139 181 227 280 335
#     4  11  22  34  52  81 111 144 188 236 285 337
#     4   9  18  35  59  85 115 149 186 235 292 345
#     4  10  20  36  59  84 109 145 190 232 283 342
#     4  10  20  34  52  74 104 144 187 230 282 345
#
# _framework density 19.619440999999998
#
# number of rings (size 3 to 8) (size 9 to 14) (size 15 to 20)
#    0.000    2.091    1.818    1.909    0.000    5.818 
#    1.636    1.818    0.000    2.182    0.000    1.273 
#    0.000    0.000    0.000    0.000    0.000    0.000 
#
# Total GULP energy -245034.946555 kJ/mol
# GULP energy per Si atom -5568.976058 kJ/mol
# Density = 1.957479 g / cm^3
# Si number density = 19.619441 Si / 1000 Ang^3
#
#
#
# Elastic Constant Matrix: (Units=GPa)
#
#
# Indices 1 2 3 4 5 6 
#
# 1 85.8598 10.7450 33.0136 0.0000 0.0000 0.0000
# 2 10.7450 113.8898 56.9427 0.0000 0.0000 0.0000
# 3 33.0136 56.9427 155.7876 0.0000 0.0000 0.0000
# 4 0.0000 0.0000 0.0000 24.5776 0.0000 0.0000
# 5 0.0000 0.0000 0.0000 0.0000 21.6633 0.0000
# 6 0.0000 0.0000 0.0000 0.0000 0.0000 14.3807
#
#
#
# Elastic Compliance Matrix: (Units=1/GPa)
#
#
# Indices 1 2 3 4 5 6 
#
# 1 0.012683 0.000180 -0.002754 0.000000 0.000000 0.000000
# 2 0.000180 0.010746 -0.003966 0.000000 0.000000 0.000000
# 3 -0.002754 -0.003966 0.008452 0.000000 0.000000 0.000000
# 4 0.000000 0.000000 0.000000 0.040687 0.000000 0.000000
# 5 0.000000 0.000000 0.000000 0.000000 0.046161 0.000000
# 6 0.000000 0.000000 0.000000 0.000000 0.000000 0.069538
#
#
# Mechanical properties :
#
#
# Convention : Reuss Voigt Hill
#
# Bulk Modulus (GPa) = 53.18423 61.88219 57.53321
# Shear Modulus (GPa) = 24.08310 29.11338 26.59824
#
# Velocity S-wave (km/s) = 3.50739 3.85633 3.68599
# Velocity P-wave (km/s) = 6.60069 7.17203 6.89229
#
# Compressibility (1/GPa) = 0.01880257
#
# Stress axis : x y z
#
# Youngs Moduli (GPa) = 78.84497 93.05421 118.31233
#
# Poissons Ratio (x) = -0.01676 0.32578
# Poissons Ratio (y) = -0.01420 0.46924
# Poissons Ratio (z) = 0.21711 0.36907
#
# Static dielectric constant tensor:
#      x y z
#    x 1.815360 0.000000 0.000000 
#    y 0.000000 1.713970 0.000000 
#    z 0.000000 0.000000 1.692730 
# 
# From -- ./inp_files/55541.got.cif
#   From: 2010.05.17/outbox.cif.g08.bks.cpg/sg71_28_cif.got.tgz:55541.got - 2010.06.03 16:22:01.
