data_PCOD9521313
_publ_section_title
;
Structure prediction by ZEFSAII (Michael W. Deem and Ramdas Pophale) SiO2 
 PCOD9521313
Probable space group: I M M M
;
_chemical_formula_sum "Si O2"
_cell_formula_units_Z 88
_cell_length_a 28.524740
_cell_length_b 19.501924
_cell_length_c 8.582710
_cell_angle_alpha 90.000000
_cell_angle_beta 90.000000
_cell_angle_gamma 90.000000
_cell_volume 4774.452672
_symmetry_space_group_name_H-M "I M M M"
_symmetry_group_IT_number 71
_symmetry_cell_setting 'orthorhombic'
loop_
_space_group_symop_operation_xyz
x,y,z
-x,-y,z
x,-y,-z
-x,y,-z
-x,-y,-z
x,y,-z
-x,y,z
x,-y,z
1/2+x,1/2+y,1/2+z
1/2-x,1/2-y,1/2+z
1/2+x,1/2-y,1/2-z
1/2-x,1/2+y,1/2-z
1/2-x,1/2-y,1/2-z
1/2+x,1/2+y,1/2-z
1/2-x,1/2+y,1/2+z
1/2+x,1/2-y,1/2+z
loop_
_atom_site_type_symbol
_atom_site_label
_atom_site_fract_x
_atom_site_fract_y
_atom_site_fract_z
Si Si1 0.691058 0.318730 0.683204
Si Si2 0.905966 0.138018 0.684209
Si Si3 0.052145 0.715664 0.686670
Si Si4 0.268046 0.922403 0.312249
Si Si5 0.151533 0.673664 0.187986
Si Si6 0.555586 0.500000 0.677196
O O1 0.700985 0.315017 0.500000
O O2 0.641260 0.353728 0.717646
O O3 0.730239 0.365910 0.760857
O O4 0.681444 0.240863 0.741870
O O5 0.894886 0.139891 0.500000
O O6 0.938694 0.203584 0.718697
O O7 0.929019 0.067311 0.731437
O O8 0.052521 0.707157 0.500000
O O9 0.098327 0.678508 0.752621
O O10 0.000000 0.695977 0.744020
O O11 0.267008 0.924531 0.500000
O O12 0.318956 0.893000 0.265094
O O13 0.259103 0.000000 0.254887
O O14 0.149954 0.677190 0.000000
O O15 0.500000 0.500000 0.667443
O O16 0.574675 0.500000 0.500000
#
# Coordination Sequence:
#
# PCOD9521313 Si02
#       6
#    16  16  16  16  16   8
#     4  10  20  34  53  77 105 135 172 217 262 308
#     4  10  20  34  52  72  99 135 175 214 256 309
#     4   9  18  33  54  79 103 129 167 214 260 310
#     4  10  21  36  54  76 105 139 176 215 259 313
#     4   9  19  35  54  78 105 136 173 215 261 309
#     4  11  23  35  47  67  99 137 175 219 266 305
#
# _framework density 18.431432999999998
#
# number of rings (size 3 to 8) (size 9 to 14) (size 15 to 20)
#    0.000    2.273    0.000    2.455    1.273    4.364 
#    0.000    0.000    0.000    0.545    0.000    3.818 
#    0.000    0.000    0.000    0.000    0.000    0.000 
#
# Total GULP energy -245368.978139 kJ/mol
# GULP energy per Si atom -5576.567685 kJ/mol
# Density = 1.838948 g / cm^3
# Si number density = 18.431433 Si / 1000 Ang^3
#
#
#
# Elastic Constant Matrix: (Units=GPa)
#
#
# Indices 1 2 3 4 5 6 
#
# 1 108.9082 45.8826 10.7695 0.0000 0.0000 0.0000
# 2 45.8826 46.4163 12.3888 0.0000 0.0000 0.0000
# 3 10.7695 12.3888 12.0701 0.0000 0.0000 0.0000
# 4 0.0000 0.0000 0.0000 18.8179 0.0000 0.0000
# 5 0.0000 0.0000 0.0000 0.0000 27.7715 0.0000
# 6 0.0000 0.0000 0.0000 0.0000 0.0000 3.2029
#
#
#
# Elastic Compliance Matrix: (Units=1/GPa)
#
#
# Indices 1 2 3 4 5 6 
#
# 1 0.015797 -0.016326 0.002662 0.000000 0.000000 0.000000
# 2 -0.016326 0.046546 -0.033208 0.000000 0.000000 0.000000
# 3 0.002662 -0.033208 0.114559 0.000000 0.000000 0.000000
# 4 0.000000 0.000000 0.000000 0.053141 0.000000 0.000000
# 5 0.000000 0.000000 0.000000 0.000000 0.036008 0.000000
# 6 0.000000 0.000000 0.000000 0.000000 0.000000 0.312214
#
#
# Mechanical properties :
#
#
# Convention : Reuss Voigt Hill
#
# Bulk Modulus (GPa) = 12.02526 33.94181 22.98353
# Shear Modulus (GPa) = 7.14564 16.51538 11.83051
#
# Velocity S-wave (km/s) = 1.97112 2.99665 2.53626
# Velocity P-wave (km/s) = 3.42328 5.51619 4.59060
#
# Compressibility (1/GPa) = 0.08315829
#
# Stress axis : x y z
#
# Youngs Moduli (GPa) = 63.30429 21.48430 8.72911
#
# Poissons Ratio (x) = 0.35075 -0.02324
# Poissons Ratio (y) = 1.03348 0.28988
# Poissons Ratio (z) = -0.16853 0.71346
#
# Static dielectric constant tensor:
#      x y z
#    x 1.635790 0.000000 0.000000 
#    y 0.000000 1.635730 0.000000 
#    z 0.000000 0.000000 1.643270 
# 
# From -- ./inp_files/10405.got.cif
#   From: 2010.05.17/outbox.cif.g08.bks.cpg/sg71_6_cif.got.tgz:10405.got - 2010.06.03 16:22:01.
