data_PCOD9521187
_publ_section_title
;
Structure prediction by ZEFSAII (Michael W. Deem and Ramdas Pophale) SiO2 
 PCOD9521187
Probable space group: I M M M
;
_chemical_formula_sum "Si O2"
_cell_formula_units_Z 120
_cell_length_a 19.624976
_cell_length_b 18.816778
_cell_length_c 18.421377
_cell_angle_alpha 90.000000
_cell_angle_beta 90.000000
_cell_angle_gamma 90.000000
_cell_volume 6802.624300
_symmetry_space_group_name_H-M "I M M M"
_symmetry_group_IT_number 71
_symmetry_cell_setting 'orthorhombic'
loop_
_space_group_symop_operation_xyz
x,y,z
-x,-y,z
x,-y,-z
-x,y,-z
-x,-y,-z
x,y,-z
-x,y,z
x,-y,z
1/2+x,1/2+y,1/2+z
1/2-x,1/2-y,1/2+z
1/2+x,1/2-y,1/2-z
1/2-x,1/2+y,1/2-z
1/2-x,1/2-y,1/2-z
1/2+x,1/2+y,1/2-z
1/2-x,1/2+y,1/2+z
1/2+x,1/2-y,1/2+z
loop_
_atom_site_type_symbol
_atom_site_label
_atom_site_fract_x
_atom_site_fract_y
_atom_site_fract_z
Si Si1 0.417943 0.415407 0.000000
Si Si2 0.922495 0.922290 0.879200
Si Si3 0.420369 0.218059 0.220412
Si Si4 0.160202 0.417973 0.767743
Si Si5 0.692610 0.152039 0.420178
Si Si6 0.421994 0.735527 0.385231
Si Si7 0.809868 0.921298 0.755417
Si Si8 0.843886 0.177064 0.377400
O O1 0.387932 0.371552 0.931719
O O2 0.398524 0.500000 0.000000
O O3 0.500000 0.412697 0.000000
O O4 0.915494 0.844857 0.914622
O O5 0.862853 0.922336 0.820371
O O6 0.000000 0.920100 0.847707
O O7 0.918267 0.000000 0.916837
O O8 0.500000 0.217888 0.203712
O O9 0.393052 0.139711 0.239542
O O10 0.412241 0.261395 0.297051
O O11 0.380208 0.252486 0.152881
O O12 0.139374 0.500000 0.761008
O O13 0.177912 0.399436 0.851932
O O14 0.231506 0.406262 0.724926
O O15 0.691008 0.117787 0.500000
O O16 0.634628 0.212224 0.416098
O O17 0.767769 0.185715 0.409137
O O18 0.500000 0.759517 0.398989
O O19 0.833491 0.867274 0.695605
O O20 0.808783 0.000000 0.721847
#
# Coordination Sequence:
#
# PCOD9521187 Si02
#       8
#     8  16  16  16  16  16  16  16
#     4  11  24  38  52  76 114 156 190 219 256 312
#     4   9  16  26  44  73 105 134 163 201 255 316
#     4  10  20  33  53  77 103 139 180 228 283 326
#     4   9  20  35  53  79 107 136 175 227 279 326
#     4  10  21  35  53  78 105 148 187 220 266 322
#     4   9  18  32  51  76 106 135 176 227 270 322
#     4   9  17  28  46  72 102 137 168 204 255 309
#     4  11  20  34  52  74 109 145 186 224 257 319
#
# _framework density 17.640252
#
# number of rings (size 3 to 8) (size 9 to 14) (size 15 to 20)
#    0.000    2.333    2.000    0.800    1.867    3.467 
#    0.000    1.333    0.000    0.400    0.000    6.067 
#    0.000    1.600    0.000    0.000    0.000    0.000 
#
# Total GULP energy -334006.020767 kJ/mol
# GULP energy per Si atom -5566.767013 kJ/mol
# Density = 1.760010 g / cm^3
# Si number density = 17.640252 Si / 1000 Ang^3
#
#
#
# Elastic Constant Matrix: (Units=GPa)
#
#
# Indices 1 2 3 4 5 6 
#
# 1 79.9498 40.6194 30.2688 0.0000 0.0000 0.0000
# 2 40.6194 97.0646 24.1632 0.0000 0.0000 0.0000
# 3 30.2688 24.1632 51.9638 0.0000 0.0000 0.0000
# 4 0.0000 0.0000 0.0000 -0.3395 0.0000 0.0000
# 5 0.0000 0.0000 0.0000 0.0000 9.6305 0.0000
# 6 0.0000 0.0000 0.0000 0.0000 0.0000 26.2177
#
#
#
# Elastic Compliance Matrix: (Units=1/GPa)
#
#
# Indices 1 2 3 4 5 6 
#
# 1 0.018481 -0.005716 -0.008107 0.000000 0.000000 0.000000
# 2 -0.005716 0.013419 -0.002910 0.000000 0.000000 0.000000
# 3 -0.008107 -0.002910 0.025320 0.000000 0.000000 0.000000
# 4 0.000000 0.000000 0.000000 -2.945305 0.000000 0.000000
# 5 0.000000 0.000000 0.000000 0.000000 0.103837 0.000000
# 6 0.000000 0.000000 0.000000 0.000000 0.000000 0.038142
#
#
# Mechanical properties :
#
#
# Convention : Reuss Voigt Hill
#
# Bulk Modulus (GPa) = 42.09992 46.56456 44.33224
# Shear Modulus (GPa) = -1.84862 16.03020 7.09079
#
# Velocity S-wave (km/s) = -1.02481 3.01778 2.00709
# Velocity P-wave (km/s) = 4.74524 6.21263 5.52784
#
# Compressibility (1/GPa) = 0.02375301
#
# Stress axis : x y z
#
# Youngs Moduli (GPa) = 54.10891 74.52220 39.49436
#
# Poissons Ratio (x) = 0.42595 0.32020
# Poissons Ratio (y) = 0.30927 0.11494
# Poissons Ratio (z) = 0.43869 0.21689
#
# Static dielectric constant tensor:
#      x y z
#    x 1.615540 0.000000 0.000000 
#    y 0.000000 1.614310 0.000000 
#    z 0.000000 0.000000 1.615100 
# 
# From -- ./inp_files/46491.got.cif
#   From: 2010.05.17/outbox.cif.g08.bks.cpg/sg71_24_cif.got.tgz:46491.got - 2010.06.03 16:22:01.
