data_PCOD9521070
_publ_section_title
;
Structure prediction by ZEFSAII (Michael W. Deem and Ramdas Pophale) SiO2 
 PCOD9521070
Probable space group: I M M M
;
_chemical_formula_sum "Si O2"
_cell_formula_units_Z 104
_cell_length_a 9.531171
_cell_length_b 20.434364
_cell_length_c 26.128913
_cell_angle_alpha 90.000000
_cell_angle_beta 90.000000
_cell_angle_gamma 90.000000
_cell_volume 5088.956393
_symmetry_space_group_name_H-M "I M M M"
_symmetry_group_IT_number 71
_symmetry_cell_setting 'orthorhombic'
loop_
_space_group_symop_operation_xyz
x,y,z
-x,-y,z
x,-y,-z
-x,y,-z
-x,-y,-z
x,y,-z
-x,y,z
x,-y,z
1/2+x,1/2+y,1/2+z
1/2-x,1/2-y,1/2+z
1/2+x,1/2-y,1/2-z
1/2-x,1/2+y,1/2-z
1/2-x,1/2-y,1/2-z
1/2+x,1/2+y,1/2-z
1/2-x,1/2+y,1/2+z
1/2+x,1/2-y,1/2+z
loop_
_atom_site_type_symbol
_atom_site_label
_atom_site_fract_x
_atom_site_fract_y
_atom_site_fract_z
Si Si1 0.667183 0.073162 0.918123
Si Si2 0.342517 0.919364 0.500000
Si Si3 0.156433 0.076208 0.591978
Si Si4 0.331987 0.295023 0.442064
Si Si5 0.833503 0.112750 0.296198
Si Si6 0.334137 0.750995 0.844698
Si Si7 0.336791 0.105758 0.198174
O O1 0.500000 0.086568 0.926419
O O2 0.760842 0.132483 0.938850
O O3 0.689592 0.072876 0.856630
O O4 0.697557 0.000000 0.937721
O O5 0.500000 0.895217 0.500000
O O6 0.260781 0.896409 0.449829
O O7 0.348027 0.000000 0.500000
O O8 0.206977 0.080093 0.650044
O O9 0.000000 0.106013 0.589481
O O10 0.142469 0.000000 0.579001
O O11 0.308282 0.270103 0.500000
O O12 0.500000 0.298940 0.433567
O O13 0.257379 0.254724 0.396403
O O14 0.804619 0.189002 0.308897
O O15 0.755222 0.087080 0.246587
O O16 0.000000 0.103996 0.289338
O O17 0.500000 0.749808 0.858244
O O18 0.310033 0.817694 0.813768
O O19 0.500000 0.096221 0.210574
#
# Coordination Sequence:
#
# PCOD9521070 Si02
#       7
#    16   8  16  16  16  16  16
#     4   9  19  36  56  79 108 143 182 216 251 306
#     4   9  17  31  51  71  91 121 161 199 238 289
#     4   9  18  33  51  71  99 132 163 201 251 303
#     4  10  21  36  54  78 108 138 171 218 273 319
#     4  10  20  33  51  77 103 132 175 216 253 306
#     4   9  19  36  54  73  99 135 178 217 255 308
#     4   9  18  32  51  74 102 135 169 210 260 302
#
# _framework density 20.436409999999999
#
# number of rings (size 3 to 8) (size 9 to 14) (size 15 to 20)
#    0.000    2.692    0.000    2.077    0.000    7.077 
#    1.385    1.538    0.000    0.000    0.000    0.000 
#    0.000    0.000    0.000    0.000    0.000    0.000 
#
# Total GULP energy -290133.268364 kJ/mol
# GULP energy per Si atom -5579.485930 kJ/mol
# Density = 2.038990 g / cm^3
# Si number density = 20.436410 Si / 1000 Ang^3
#
#
#
# Elastic Constant Matrix: (Units=GPa)
#
#
# Indices 1 2 3 4 5 6 
#
# 1 67.9909 -2.9373 72.0896 0.0000 0.0000 0.0000
# 2 -2.9373 30.9366 -6.1756 0.0000 0.0000 0.0000
# 3 72.0896 -6.1756 134.4009 0.0000 0.0000 0.0000
# 4 0.0000 0.0000 0.0000 207.5691 0.0000 0.0000
# 5 0.0000 0.0000 0.0000 0.0000 31.7899 0.0000
# 6 0.0000 0.0000 0.0000 0.0000 0.0000 11.1465
#
#
#
# Elastic Compliance Matrix: (Units=1/GPa)
#
#
# Indices 1 2 3 4 5 6 
#
# 1 0.034108 -0.000417 -0.018314 0.000000 0.000000 0.000000
# 2 -0.000417 0.032629 0.001723 0.000000 0.000000 0.000000
# 3 -0.018314 0.001723 0.017343 0.000000 0.000000 0.000000
# 4 0.000000 0.000000 0.000000 0.004818 0.000000 0.000000
# 5 0.000000 0.000000 0.000000 0.000000 0.031457 0.000000
# 6 0.000000 0.000000 0.000000 0.000000 0.000000 0.089715
#
#
# Mechanical properties :
#
#
# Convention : Reuss Voigt Hill
#
# Bulk Modulus (GPa) = 19.97492 39.92018 29.94755
# Shear Modulus (GPa) = 19.17390 61.45786 40.31588
#
# Velocity S-wave (km/s) = 3.06636 5.48981 4.44638
# Velocity P-wave (km/s) = 4.72569 7.73048 6.40673
#
# Compressibility (1/GPa) = 0.05006278
#
# Stress axis : x y z
#
# Youngs Moduli (GPa) = 29.31902 30.64800 57.66125
#
# Poissons Ratio (x) = 0.01280 1.05599
# Poissons Ratio (y) = 0.01224 -0.09936
# Poissons Ratio (z) = 0.53694 -0.05281
#
# Static dielectric constant tensor:
#      x y z
#    x 1.696640 0.000000 0.000000 
#    y 0.000000 1.779460 0.000000 
#    z 0.000000 0.000000 1.713810 
# 
# From -- ./inp_files/13297.got.cif
#   From: 2010.05.17/outbox.cif.g08.bks.cpg/sg71_7_cif.got.tgz:13297.got - 2010.06.03 16:22:01.
