data_PCOD9521790
_publ_section_title
;
Structure prediction by ZEFSAII (Michael W. Deem and Ramdas Pophale) SiO2 
 PCOD9521790
Probable space group: I M M M
;
_chemical_formula_sum "Si O2"
_cell_formula_units_Z 80
_cell_length_a 7.570737
_cell_length_b 22.359362
_cell_length_c 22.509157
_cell_angle_alpha 90.000000
_cell_angle_beta 90.000000
_cell_angle_gamma 90.000000
_cell_volume 3810.279175
_symmetry_space_group_name_H-M "I M M M"
_symmetry_group_IT_number 71
_symmetry_cell_setting 'orthorhombic'
loop_
_space_group_symop_operation_xyz
x,y,z
-x,-y,z
x,-y,-z
-x,y,-z
-x,-y,-z
x,y,-z
-x,y,z
x,-y,z
1/2+x,1/2+y,1/2+z
1/2-x,1/2-y,1/2+z
1/2+x,1/2-y,1/2-z
1/2-x,1/2+y,1/2-z
1/2-x,1/2-y,1/2-z
1/2+x,1/2+y,1/2-z
1/2-x,1/2+y,1/2+z
1/2+x,1/2-y,1/2+z
loop_
_atom_site_type_symbol
_atom_site_label
_atom_site_fract_x
_atom_site_fract_y
_atom_site_fract_z
Si Si1 0.292176 0.736092 0.567596
Si Si2 0.295193 0.881160 0.140013
Si Si3 0.287381 0.500000 0.568181
Si Si4 0.283359 0.069808 0.265015
Si Si5 0.215311 0.431834 0.000000
Si Si6 0.284127 0.139775 0.382688
O O1 0.219214 0.732309 0.500000
O O2 0.500000 0.748210 0.560827
O O3 0.277878 0.674593 0.603431
O O4 0.222578 0.792462 0.605251
O O5 0.500000 0.867155 0.148796
O O6 0.276797 0.940979 0.101301
O O7 0.221089 0.897721 0.204828
O O8 0.500000 0.500000 0.569508
O O9 0.229318 0.500000 0.500000
O O10 0.500000 0.069061 0.263944
O O11 0.226100 0.106758 0.322817
O O12 0.229239 0.000000 0.266443
O O13 0.269466 0.397700 0.940629
O O14 0.274923 0.500000 0.000000
O O15 0.000000 0.431970 0.000000
O O16 0.500000 0.139445 0.380076
#
# Coordination Sequence:
#
# PCOD9521790 Si02
#       6
#    16  16   8  16   8  16
#     4  10  20  35  53  77 111 146 183 228 276 320
#     4  11  22  36  55  80 110 146 184 221 268 326
#     4  11  23  39  59  83 107 136 179 230 282 325
#     4   9  17  31  50  75 108 143 177 222 276 325
#     4   9  14  22  42  76 109 138 179 226 271 321
#     4   9  16  28  48  74 108 146 179 221 275 324
#
# _framework density 20.995836000000001
#
# number of rings (size 3 to 8) (size 9 to 14) (size 15 to 20)
#    0.000    2.200    2.000    2.100    0.000    6.800 
#    0.000    0.000    0.000    1.200    0.000    0.000 
#    0.000    0.800    0.000    0.000    0.000    0.000 
#
# Total GULP energy -223375.378818 kJ/mol
# GULP energy per Si atom -5584.384470 kJ/mol
# Density = 2.094805 g / cm^3
# Si number density = 20.995836 Si / 1000 Ang^3
#
#
#
# Elastic Constant Matrix: (Units=GPa)
#
#
# Indices 1 2 3 4 5 6 
#
# 1 43.8576 -9.1692 -2.4818 0.0000 0.0000 0.0000
# 2 -9.1692 176.6873 95.9680 0.0000 0.0000 0.0000
# 3 -2.4818 95.9680 208.5778 0.0000 0.0000 0.0000
# 4 0.0000 0.0000 0.0000 38.0363 0.0000 0.0000
# 5 0.0000 0.0000 0.0000 0.0000 -9.5935 0.0000
# 6 0.0000 0.0000 0.0000 0.0000 0.0000 -15.4566
#
#
#
# Elastic Compliance Matrix: (Units=1/GPa)
#
#
# Indices 1 2 3 4 5 6 
#
# 1 0.023072 0.001397 -0.000368 0.000000 0.000000 0.000000
# 2 0.001397 0.007630 -0.003494 0.000000 0.000000 0.000000
# 3 -0.000368 -0.003494 0.006398 0.000000 0.000000 0.000000
# 4 0.000000 0.000000 0.000000 0.026291 0.000000 0.000000
# 5 0.000000 0.000000 0.000000 0.000000 -0.104237 0.000000
# 6 0.000000 0.000000 0.000000 0.000000 0.000000 -0.064697
#
#
# Mechanical properties :
#
#
# Convention : Reuss Voigt Hill
#
# Bulk Modulus (GPa) = 31.08480 66.41740 48.75110
# Shear Modulus (GPa) = -55.62315 25.58429 -15.01943
#
# Velocity S-wave (km/s) = -5.15267 3.49455 -2.67751
# Velocity P-wave (km/s) = 4.53460 6.92710 3.70285
#
# Compressibility (1/GPa) = 0.03217007
#
# Stress axis : x y z
#
# Youngs Moduli (GPa) = 43.34182 131.06164 156.30879
#
# Poissons Ratio (x) = -0.18315 0.05759
# Poissons Ratio (y) = -0.06057 0.54614
# Poissons Ratio (z) = 0.01597 0.45793
#
# Static dielectric constant tensor:
#      x y z
#    x 1.832670 0.000000 0.000000 
#    y 0.000000 1.701850 0.000000 
#    z 0.000000 0.000000 1.729820 
# 
# From -- ./inp_files/50388.got.cif
#   From: 2010.05.17/outbox.cif.g08.bks.cpg/sg71_26_cif.got.tgz:50388.got - 2010.06.03 16:22:01.
