data_PCOD9521040
_publ_section_title
;
Structure prediction by ZEFSAII (Michael W. Deem and Ramdas Pophale) SiO2 
 PCOD9521040
Probable space group: I M M M
;
_chemical_formula_sum "Si O2"
_cell_formula_units_Z 96
_cell_length_a 30.166157
_cell_length_b 20.630429
_cell_length_c 7.812279
_cell_angle_alpha 90.000000
_cell_angle_beta 90.000000
_cell_angle_gamma 90.000000
_cell_volume 4861.899652
_symmetry_space_group_name_H-M "I M M M"
_symmetry_group_IT_number 71
_symmetry_cell_setting 'orthorhombic'
loop_
_space_group_symop_operation_xyz
x,y,z
-x,-y,z
x,-y,-z
-x,y,-z
-x,-y,-z
x,y,-z
-x,y,z
x,-y,z
1/2+x,1/2+y,1/2+z
1/2-x,1/2-y,1/2+z
1/2+x,1/2-y,1/2-z
1/2-x,1/2+y,1/2-z
1/2-x,1/2-y,1/2-z
1/2+x,1/2+y,1/2-z
1/2-x,1/2+y,1/2+z
1/2+x,1/2-y,1/2+z
loop_
_atom_site_type_symbol
_atom_site_label
_atom_site_fract_x
_atom_site_fract_y
_atom_site_fract_z
Si Si1 0.704443 0.712808 0.706281
Si Si2 0.875456 0.305123 0.699047
Si Si3 0.775636 0.071937 0.801755
Si Si4 0.946392 0.930635 0.704863
Si Si5 0.676400 0.071608 0.301705
Si Si6 0.551376 0.710229 0.789887
O O1 0.700686 0.711940 0.500000
O O2 0.750000 0.750000 0.750000
O O3 0.664397 0.753992 0.781319
O O4 0.704906 0.638510 0.772129
O O5 0.883336 0.318105 0.500000
O O6 0.858684 0.371921 0.777362
O O7 0.918459 0.269008 0.771449
O O8 0.722315 0.081962 0.797820
O O9 0.784524 0.000000 0.725969
O O10 0.789477 0.069262 0.000000
O O11 0.938475 0.931514 0.500000
O O12 0.931068 0.860552 0.769481
O O13 0.000000 0.930030 0.726083
O O14 0.929940 0.000000 0.774812
O O15 0.689857 0.071554 0.500000
O O16 0.659171 0.000000 0.256957
O O17 0.500000 0.716755 0.741544
O O18 0.552835 0.709220 0.000000
#
# Coordination Sequence:
#
# PCOD9521040 Si02
#       6
#    16  16  16  16  16  16
#     4  11  21  33  51  74 103 135 167 207 250 299
#     4  11  21  32  50  76 104 135 168 205 254 308
#     4   9  18  33  52  72  96 131 172 209 248 295
#     4   7   9  16  34  59  86 118 156 197 240 282
#     4  10  20  33  51  74  98 126 164 210 253 298
#     4   8  15  28  45  67  96 130 170 213 252 294
#
# _framework density 19.745369
#
# number of rings (size 3 to 8) (size 9 to 14) (size 15 to 20)
#    0.000    2.667    1.667    3.000    0.000    1.667 
#    0.000    0.833    0.000    3.500    0.000    3.500 
#    0.000    0.000    0.000   20.833    0.000   13.333 
#
# Total GULP energy -267520.737917 kJ/mol
# GULP energy per Si atom -5573.348707 kJ/mol
# Density = 1.970043 g / cm^3
# Si number density = 19.745369 Si / 1000 Ang^3
#
#
#
# Elastic Constant Matrix: (Units=GPa)
#
#
# Indices 1 2 3 4 5 6 
#
# 1 35.9060 31.0373 -11.9588 0.0000 0.0000 0.0000
# 2 31.0373 164.4817 -0.8233 0.0000 0.0000 0.0000
# 3 -11.9588 -0.8233 30.8068 0.0000 0.0000 0.0000
# 4 0.0000 0.0000 0.0000 17.7461 0.0000 0.0000
# 5 0.0000 0.0000 0.0000 0.0000 2.4727 0.0000
# 6 0.0000 0.0000 0.0000 0.0000 0.0000 22.2717
#
#
#
# Elastic Compliance Matrix: (Units=1/GPa)
#
#
# Indices 1 2 3 4 5 6 
#
# 1 0.039175 -0.007317 0.015012 0.000000 0.000000 0.000000
# 2 -0.007317 0.007447 -0.002641 0.000000 0.000000 0.000000
# 3 0.015012 -0.002641 0.038217 0.000000 0.000000 0.000000
# 4 0.000000 0.000000 0.000000 0.056350 0.000000 0.000000
# 5 0.000000 0.000000 0.000000 0.000000 0.404417 0.000000
# 6 0.000000 0.000000 0.000000 0.000000 0.000000 0.044900
#
#
# Mechanical properties :
#
#
# Convention : Reuss Voigt Hill
#
# Bulk Modulus (GPa) = 10.53231 29.74501 20.13866
# Shear Modulus (GPa) = 8.16928 22.69406 15.43167
#
# Velocity S-wave (km/s) = 2.03625 3.39386 2.79863
# Velocity P-wave (km/s) = 3.29758 5.51858 4.54581
#
# Compressibility (1/GPa) = 0.09494594
#
# Stress axis : x y z
#
# Youngs Moduli (GPa) = 25.52637 134.27850 26.16626
#
# Poissons Ratio (x) = 0.98253 -0.39280
# Poissons Ratio (y) = 0.18678 0.06912
# Poissons Ratio (z) = -0.38319 0.35468
#
# Static dielectric constant tensor:
#      x y z
#    x 1.672010 0.000000 0.000000 
#    y 0.000000 1.754630 0.000000 
#    z 0.000000 0.000000 1.576290 
# 
# From -- ./inp_files/14839.got.cif
#   From: 2010.05.17/outbox.cif.g08.bks.cpg/sg71_8_cif.got.tgz:14839.got - 2010.06.03 16:22:01.
