data_PCOD9521511
_publ_section_title
;
Structure prediction by ZEFSAII (Michael W. Deem and Ramdas Pophale) SiO2 
 PCOD9521511
Probable space group: I M M M
;
_chemical_formula_sum "Si O2"
_cell_formula_units_Z 88
_cell_length_a 7.612355
_cell_length_b 18.227195
_cell_length_c 30.399243
_cell_angle_alpha 90.000000
_cell_angle_beta 90.000000
_cell_angle_gamma 90.000000
_cell_volume 4217.952086
_symmetry_space_group_name_H-M "I M M M"
_symmetry_group_IT_number 71
_symmetry_cell_setting 'orthorhombic'
loop_
_space_group_symop_operation_xyz
x,y,z
-x,-y,z
x,-y,-z
-x,y,-z
-x,-y,-z
x,y,-z
-x,y,z
x,-y,z
1/2+x,1/2+y,1/2+z
1/2-x,1/2-y,1/2+z
1/2+x,1/2-y,1/2-z
1/2-x,1/2+y,1/2-z
1/2-x,1/2-y,1/2-z
1/2+x,1/2+y,1/2-z
1/2-x,1/2+y,1/2+z
1/2+x,1/2-y,1/2+z
loop_
_atom_site_type_symbol
_atom_site_label
_atom_site_fract_x
_atom_site_fract_y
_atom_site_fract_z
Si Si1 0.793413 0.148191 0.100746
Si Si2 0.715004 0.583276 0.118185
Si Si3 0.789489 0.500000 0.550021
Si Si4 0.204959 0.166618 0.803085
Si Si5 0.285879 0.337598 0.206921
Si Si6 0.707305 0.704512 0.950399
O O1 0.717320 0.142739 0.150188
O O2 0.722861 0.217077 0.073400
O O3 0.000000 0.162903 0.105456
O O4 0.767947 0.073023 0.074973
O O5 0.500000 0.584367 0.117885
O O6 0.770424 0.500000 0.109865
O O7 0.767634 0.611102 0.166649
O O8 0.778341 0.641144 0.081666
O O9 0.723198 0.500000 0.500000
O O10 0.000000 0.500000 0.548748
O O11 0.220870 0.255018 0.801940
O O12 0.276291 0.140411 0.755853
O O13 0.000000 0.145094 0.803114
O O14 0.500000 0.334482 0.207622
O O15 0.500000 0.689615 0.954262
O O16 0.780843 0.706046 0.000000
#
# Coordination Sequence:
#
# PCOD9521511 Si02
#       6
#    16  16   8  16  16  16
#     4  11  22  37  57  82 112 142 175 219 275 335
#     4   9  17  30  50  78 108 140 179 223 269 314
#     4  11  25  43  61  81 107 141 183 229 274 323
#     4   9  18  31  51  80 107 136 173 216 264 316
#     4   9  16  30  52  77 104 139 179 218 261 313
#     4  10  20  34  54  79 106 139 182 228 270 317
#
# _framework density 20.863205000000001
#
# number of rings (size 3 to 8) (size 9 to 14) (size 15 to 20)
#    0.000    2.273    1.818    1.364    0.000    4.364 
#    1.636    1.818    0.000    2.182    0.000    1.273 
#    0.000    0.000    0.000    0.000    0.000    0.000 
#
# Total GULP energy -245569.964586 kJ/mol
# GULP energy per Si atom -5581.135559 kJ/mol
# Density = 2.081572 g / cm^3
# Si number density = 20.863205 Si / 1000 Ang^3
#
#
#
# Elastic Constant Matrix: (Units=GPa)
#
#
# Indices 1 2 3 4 5 6 
#
# 1 42.3412 -15.7571 2.7881 0.0000 0.0000 0.0000
# 2 -15.7571 126.0797 98.5264 0.0000 0.0000 0.0000
# 3 2.7881 98.5264 239.7150 0.0000 0.0000 0.0000
# 4 0.0000 0.0000 0.0000 20.4738 0.0000 0.0000
# 5 0.0000 0.0000 0.0000 0.0000 12.3902 0.0000
# 6 0.0000 0.0000 0.0000 0.0000 0.0000 -18.7181
#
#
#
# Elastic Compliance Matrix: (Units=1/GPa)
#
#
# Indices 1 2 3 4 5 6 
#
# 1 0.025660 0.005068 -0.002381 0.000000 0.000000 0.000000
# 2 0.005068 0.012685 -0.005273 0.000000 0.000000 0.000000
# 3 -0.002381 -0.005273 0.006367 0.000000 0.000000 0.000000
# 4 0.000000 0.000000 0.000000 0.048843 0.000000 0.000000
# 5 0.000000 0.000000 0.000000 0.000000 0.080709 0.000000
# 6 0.000000 0.000000 0.000000 0.000000 0.000000 -0.053424
#
#
# Mechanical properties :
#
#
# Convention : Reuss Voigt Hill
#
# Bulk Modulus (GPa) = 25.29095 64.36118 44.82607
# Shear Modulus (GPa) = 35.92146 24.33443 30.12794
#
# Velocity S-wave (km/s) = 4.15391 3.41894 3.80422
# Velocity P-wave (km/s) = 5.92919 6.81921 6.38971
#
# Compressibility (1/GPa) = 0.03953983
#
# Stress axis : x y z
#
# Youngs Moduli (GPa) = 38.97041 78.83091 157.07158
#
# Poissons Ratio (x) = -0.39952 0.37406
# Poissons Ratio (y) = -0.19750 0.82821
# Poissons Ratio (z) = 0.09281 0.41566
#
# Static dielectric constant tensor:
#      x y z
#    x 1.819240 0.000000 0.000000 
#    y 0.000000 1.664230 0.000000 
#    z 0.000000 0.000000 1.790410 
# 
# From -- ./inp_files/8757.got.cif
#   From: 2010.05.17/outbox.cif.g08.bks.cpg/sg71_5_cif.got.tgz:8757.got - 2010.06.03 16:22:01.
