data_PCOD9521859
_publ_section_title
;
Structure prediction by ZEFSAII (Michael W. Deem and Ramdas Pophale) SiO2 
 PCOD9521859
Probable space group: I M M M
;
_chemical_formula_sum "Si O2"
_cell_formula_units_Z 104
_cell_length_a 30.850712
_cell_length_b 8.032332
_cell_length_c 21.498764
_cell_angle_alpha 90.000000
_cell_angle_beta 90.000000
_cell_angle_gamma 90.000000
_cell_volume 5327.461682
_symmetry_space_group_name_H-M "I M M M"
_symmetry_group_IT_number 71
_symmetry_cell_setting 'orthorhombic'
loop_
_space_group_symop_operation_xyz
x,y,z
-x,-y,z
x,-y,-z
-x,y,-z
-x,-y,-z
x,y,-z
-x,y,z
x,-y,z
1/2+x,1/2+y,1/2+z
1/2-x,1/2-y,1/2+z
1/2+x,1/2-y,1/2-z
1/2-x,1/2+y,1/2-z
1/2-x,1/2-y,1/2-z
1/2+x,1/2+y,1/2-z
1/2-x,1/2+y,1/2+z
1/2+x,1/2-y,1/2+z
loop_
_atom_site_type_symbol
_atom_site_label
_atom_site_fract_x
_atom_site_fract_y
_atom_site_fract_z
Si Si1 0.452116 0.700822 0.072654
Si Si2 0.950482 0.799365 0.864106
Si Si3 0.133602 0.303168 0.639716
Si Si4 0.129195 0.698317 0.220732
Si Si5 0.781273 0.296053 0.570499
Si Si6 0.275939 0.699116 0.687282
Si Si7 0.552521 0.690359 0.500000
O O1 0.500000 0.752506 0.094400
O O2 0.449895 0.500000 0.076576
O O3 0.413129 0.776439 0.110514
O O4 0.448173 0.745531 0.000000
O O5 0.913640 0.759813 0.814376
O O6 0.936750 0.733523 0.932844
O O7 0.000000 0.742280 0.849782
O O8 0.952853 0.000000 0.869573
O O9 0.142194 0.500000 0.645757
O O10 0.133733 0.231576 0.709180
O O11 0.171317 0.239752 0.594345
O O12 0.125208 0.500000 0.224331
O O13 0.174658 0.740589 0.188449
O O14 0.772449 0.239963 0.500000
O O15 0.780612 0.500000 0.568977
O O16 0.748464 0.242452 0.624823
O O17 0.275816 0.500000 0.686343
O O18 0.250000 0.750000 0.750000
O O19 0.569513 0.500000 0.500000
O O20 0.500000 0.681858 0.500000
#
# Coordination Sequence:
#
# PCOD9521859 Si02
#       7
#    16  16  16  16  16  16   8
#     4   9  19  35  52  74 108 144 177 220 274 326
#     4   9  18  35  59  85 111 144 188 233 280 335
#     4  10  20  35  55  78 105 141 185 227 267 321
#     4  11  23  38  55  81 115 149 188 227 273 331
#     4   9  18  35  59  84 108 137 180 231 276 322
#     4  11  21  38  62  85 113 149 187 229 282 337
#     4   7  12  28  55  81 105 137 183 233 273 325
#
# _framework density 19.521491999999999
#
# number of rings (size 3 to 8) (size 9 to 14) (size 15 to 20)
#    0.000    2.385    1.538    2.769    0.000    3.385 
#    1.385    4.231    0.000    3.692    0.000    0.000 
#    0.000    0.000    0.000    0.000    0.000    0.000 
#
# Total GULP energy -289970.798761 kJ/mol
# GULP energy per Si atom -5576.361515 kJ/mol
# Density = 1.947706 g / cm^3
# Si number density = 19.521492 Si / 1000 Ang^3
#
#
#
# Elastic Constant Matrix: (Units=GPa)
#
#
# Indices 1 2 3 4 5 6 
#
# 1 128.2538 -1.1382 78.2047 0.0000 0.0000 0.0000
# 2 -1.1382 13.5529 6.9882 0.0000 0.0000 0.0000
# 3 78.2047 6.9882 152.0188 0.0000 0.0000 0.0000
# 4 0.0000 0.0000 0.0000 19.7545 0.0000 0.0000
# 5 0.0000 0.0000 0.0000 0.0000 34.2508 0.0000
# 6 0.0000 0.0000 0.0000 0.0000 0.0000 24.8540
#
#
#
# Elastic Compliance Matrix: (Units=1/GPa)
#
#
# Indices 1 2 3 4 5 6 
#
# 1 0.011584 0.004144 -0.006150 0.000000 0.000000 0.000000
# 2 0.004144 0.077059 -0.005674 0.000000 0.000000 0.000000
# 3 -0.006150 -0.005674 0.010003 0.000000 0.000000 0.000000
# 4 0.000000 0.000000 0.000000 0.050621 0.000000 0.000000
# 5 0.000000 0.000000 0.000000 0.000000 0.029196 0.000000
# 6 0.000000 0.000000 0.000000 0.000000 0.000000 0.040235
#
#
# Mechanical properties :
#
#
# Convention : Reuss Voigt Hill
#
# Bulk Modulus (GPa) = 12.00697 51.32612 31.66654
# Shear Modulus (GPa) = 19.09716 29.75657 24.42686
#
# Velocity S-wave (km/s) = 3.13111 3.90846 3.54118
# Velocity P-wave (km/s) = 4.38587 6.83500 5.74252
#
# Compressibility (1/GPa) = 0.08328496
#
# Stress axis : x y z
#
# Youngs Moduli (GPa) = 86.32891 12.97713 99.97443
#
# Poissons Ratio (x) = -0.05377 0.61480
# Poissons Ratio (y) = -0.35772 0.56726
# Poissons Ratio (z) = 0.53089 0.07363
#
# Static dielectric constant tensor:
#      x y z
#    x 1.612240 0.000000 0.000000 
#    y 0.000000 1.711540 0.000000 
#    z 0.000000 0.000000 1.705050 
# 
# From -- ./inp_files/56279.got.cif
#   From: 2010.05.17/outbox.cif.g08.bks.cpg/sg71_29_cif.got.tgz:56279.got - 2010.06.03 16:22:01.
