data_PCOD9521085
_publ_section_title
;
Structure prediction by ZEFSAII (Michael W. Deem and Ramdas Pophale) SiO2 
 PCOD9521085
Probable space group: I M M M
;
_chemical_formula_sum "Si O2"
_cell_formula_units_Z 72
_cell_length_a 28.067821
_cell_length_b 8.761320
_cell_length_c 16.615695
_cell_angle_alpha 90.000000
_cell_angle_beta 90.000000
_cell_angle_gamma 90.000000
_cell_volume 4085.984856
_symmetry_space_group_name_H-M "I M M M"
_symmetry_group_IT_number 71
_symmetry_cell_setting 'orthorhombic'
loop_
_space_group_symop_operation_xyz
x,y,z
-x,-y,z
x,-y,-z
-x,y,-z
-x,-y,-z
x,y,-z
-x,y,z
x,-y,z
1/2+x,1/2+y,1/2+z
1/2-x,1/2-y,1/2+z
1/2+x,1/2-y,1/2-z
1/2-x,1/2+y,1/2-z
1/2-x,1/2-y,1/2-z
1/2+x,1/2+y,1/2-z
1/2-x,1/2+y,1/2+z
1/2+x,1/2-y,1/2+z
loop_
_atom_site_type_symbol
_atom_site_label
_atom_site_fract_x
_atom_site_fract_y
_atom_site_fract_z
Si Si1 0.944746 0.681403 0.315038
Si Si2 0.697460 0.683580 0.245896
Si Si3 0.394614 0.683110 0.658897
Si Si4 0.637832 0.316369 0.910155
Si Si5 0.556160 0.183414 0.500000
O O1 0.938616 0.500000 0.304110
O O2 0.926495 0.765442 0.234740
O O3 0.912052 0.739897 0.387419
O O4 0.000000 0.713634 0.328575
O O5 0.700126 0.500000 0.248086
O O6 0.750000 0.750000 0.250000
O O7 0.659444 0.729500 0.315384
O O8 0.673908 0.729005 0.160622
O O9 0.395567 0.500000 0.651710
O O10 0.416430 0.755856 0.578804
O O11 0.632536 0.500000 0.905785
O O12 0.653487 0.275845 0.000000
O O13 0.500000 0.230866 0.500000
O O14 0.556931 0.000000 0.500000
#
# Coordination Sequence:
#
# PCOD9521085 Si02
#       5
#    16  16  16  16   8
#     4  10  20  33  51  77 109 142 177 218 264 316
#     4   9  19  36  57  79 105 137 176 223 272 322
#     4  10  21  37  56  79 109 144 185 227 268 325
#     4   9  19  36  55  76 104 137 177 220 261 315
#     4  11  23  37  55  83 117 149 185 231 280 329
#
# _framework density 17.621210000000001
#
# number of rings (size 3 to 8) (size 9 to 14) (size 15 to 20)
#    0.000    2.333    0.000    3.667    0.000   10.667 
#    2.000    2.222    0.000    0.000    0.000    0.000 
#    0.000    0.000    0.000    0.000    0.000    0.000 
#
# Total GULP energy -200801.330939 kJ/mol
# GULP energy per Si atom -5577.814748 kJ/mol
# Density = 1.758110 g / cm^3
# Si number density = 17.621210 Si / 1000 Ang^3
#
#
#
# Elastic Constant Matrix: (Units=GPa)
#
#
# Indices 1 2 3 4 5 6 
#
# 1 161.4288 46.0039 71.2303 0.0000 0.0000 0.0000
# 2 46.0039 30.6191 31.9965 0.0000 0.0000 0.0000
# 3 71.2303 31.9965 120.5694 0.0000 0.0000 0.0000
# 4 0.0000 0.0000 0.0000 14.8468 0.0000 0.0000
# 5 0.0000 0.0000 0.0000 0.0000 12.6858 0.0000
# 6 0.0000 0.0000 0.0000 0.0000 0.0000 33.0461
#
#
#
# Elastic Compliance Matrix: (Units=1/GPa)
#
#
# Indices 1 2 3 4 5 6 
#
# 1 0.011607 -0.014215 -0.003085 0.000000 0.000000 0.000000
# 2 -0.014215 0.062602 -0.008215 0.000000 0.000000 0.000000
# 3 -0.003085 -0.008215 0.012296 0.000000 0.000000 0.000000
# 4 0.000000 0.000000 0.000000 0.067355 0.000000 0.000000
# 5 0.000000 0.000000 0.000000 0.000000 0.078829 0.000000
# 6 0.000000 0.000000 0.000000 0.000000 0.000000 0.030261
#
#
# Mechanical properties :
#
#
# Convention : Reuss Voigt Hill
#
# Bulk Modulus (GPa) = 28.18875 67.89764 48.04319
# Shear Modulus (GPa) = 15.34661 23.00816 19.17739
#
# Velocity S-wave (km/s) = 2.95433 3.61738 3.30254
# Velocity P-wave (km/s) = 5.26015 7.48750 6.47039
#
# Compressibility (1/GPa) = 0.03547515
#
# Stress axis : x y z
#
# Youngs Moduli (GPa) = 86.15552 15.97391 81.32442
#
# Poissons Ratio (x) = 0.22708 0.25086
# Poissons Ratio (y) = 1.22474 0.66808
# Poissons Ratio (z) = 0.26576 0.13123
#
# Static dielectric constant tensor:
#      x y z
#    x 1.589900 0.000000 0.000000 
#    y 0.000000 1.596570 0.000000 
#    z 0.000000 0.000000 1.592460 
# 
# From -- ./inp_files/6052.got.cif
#   From: 2010.05.17/outbox.cif.g08.bks.cpg/sg71_4_cif.got.tgz:6052.got - 2010.06.03 16:22:01.
