data_PCOD9521834
_publ_section_title
;
Structure prediction by ZEFSAII (Michael W. Deem and Ramdas Pophale) SiO2 
 PCOD9521834
Probable space group: I M M M
;
_chemical_formula_sum "Si O2"
_cell_formula_units_Z 88
_cell_length_a 15.901467
_cell_length_b 15.568732
_cell_length_c 16.323609
_cell_angle_alpha 90.000000
_cell_angle_beta 90.000000
_cell_angle_gamma 90.000000
_cell_volume 4041.165332
_symmetry_space_group_name_H-M "I M M M"
_symmetry_group_IT_number 71
_symmetry_cell_setting 'orthorhombic'
loop_
_space_group_symop_operation_xyz
x,y,z
-x,-y,z
x,-y,-z
-x,y,-z
-x,-y,-z
x,y,-z
-x,y,z
x,-y,z
1/2+x,1/2+y,1/2+z
1/2-x,1/2-y,1/2+z
1/2+x,1/2-y,1/2-z
1/2-x,1/2+y,1/2-z
1/2-x,1/2-y,1/2-z
1/2+x,1/2+y,1/2-z
1/2-x,1/2+y,1/2+z
1/2+x,1/2-y,1/2+z
loop_
_atom_site_type_symbol
_atom_site_label
_atom_site_fract_x
_atom_site_fract_y
_atom_site_fract_z
Si Si1 0.500000 0.101344 0.901660
Si Si2 0.179083 0.403353 0.641199
Si Si3 0.403751 0.395935 0.095793
Si Si4 0.743776 0.837420 0.697404
Si Si5 0.640488 0.402995 0.406331
Si Si6 0.409788 0.777200 0.401332
O O1 0.588562 0.140071 0.870609
O O2 0.500000 0.000000 0.875600
O O3 0.500000 0.105120 0.000000
O O4 0.168290 0.500000 0.609349
O O5 0.209807 0.403024 0.734529
O O6 0.261938 0.372773 0.594072
O O7 0.500000 0.370438 0.116714
O O8 0.399990 0.500000 0.099975
O O9 0.331498 0.359563 0.154602
O O10 0.389059 0.371918 0.000000
O O11 0.750000 0.750000 0.750000
O O12 0.670277 0.826494 0.631701
O O13 0.612025 0.410498 0.500000
O O14 0.633828 0.500000 0.370469
O O15 0.594146 0.321523 0.368861
O O16 0.406289 0.773703 0.500000
O O17 0.500000 0.815050 0.376975
#
# Coordination Sequence:
#
# PCOD9521834 Si02
#       6
#     8  16  16  16  16  16
#     4   9  18  34  56  80 109 149 196 241 285 343
#     4  10  20  35  54  81 112 151 195 241 296 352
#     4   9  20  43  73  97 117 153 212 274 324 373
#     4  12  23  37  57  88 127 159 190 243 312 376
#     4   9  17  33  56  79 107 145 194 243 285 343
#     4  10  22  39  57  79 113 159 202 237 284 352
#
# _framework density 21.775898000000002
#
# number of rings (size 3 to 8) (size 9 to 14) (size 15 to 20)
#    0.000    2.091    1.818    2.182    1.273    3.273 
#    0.000    1.818    0.000    0.000    0.000    3.818 
#    0.000    0.000    0.000    0.000    0.000    0.000 
#
# Total GULP energy -245279.470206 kJ/mol
# GULP energy per Si atom -5574.533414 kJ/mol
# Density = 2.172634 g / cm^3
# Si number density = 21.775898 Si / 1000 Ang^3
#
#
#
# Elastic Constant Matrix: (Units=GPa)
#
#
# Indices 1 2 3 4 5 6 
#
# 1 183.7632 16.4001 59.5913 0.0000 0.0000 0.0000
# 2 16.4001 24.7014 13.8143 0.0000 0.0000 0.0000
# 3 59.5913 13.8143 72.5847 0.0000 0.0000 0.0000
# 4 0.0000 0.0000 0.0000 18.2430 0.0000 0.0000
# 5 0.0000 0.0000 0.0000 0.0000 29.6163 0.0000
# 6 0.0000 0.0000 0.0000 0.0000 0.0000 27.3433
#
#
#
# Elastic Compliance Matrix: (Units=1/GPa)
#
#
# Indices 1 2 3 4 5 6 
#
# 1 0.007481 -0.001714 -0.005815 0.000000 0.000000 0.000000
# 2 -0.001714 0.045699 -0.007290 0.000000 0.000000 0.000000
# 3 -0.005815 -0.007290 0.019939 0.000000 0.000000 0.000000
# 4 0.000000 0.000000 0.000000 0.054816 0.000000 0.000000
# 5 0.000000 0.000000 0.000000 0.000000 0.033765 0.000000
# 6 0.000000 0.000000 0.000000 0.000000 0.000000 0.036572
#
#
# Mechanical properties :
#
#
# Convention : Reuss Voigt Hill
#
# Bulk Modulus (GPa) = 22.99965 51.18452 37.09208
# Shear Modulus (GPa) = 20.62686 27.79009 24.20848
#
# Velocity S-wave (km/s) = 3.08105 3.57625 3.33785
# Velocity P-wave (km/s) = 4.82101 6.37251 5.65027
#
# Compressibility (1/GPa) = 0.04347893
#
# Stress axis : x y z
#
# Youngs Moduli (GPa) = 133.68003 21.88250 50.15405
#
# Poissons Ratio (x) = 0.03752 0.29165
# Poissons Ratio (y) = 0.22919 0.36561
# Poissons Ratio (z) = 0.77737 0.15952
#
# Static dielectric constant tensor:
#      x y z
#    x 1.868430 0.000000 0.000000 
#    y 0.000000 1.985630 0.000000 
#    z 0.000000 0.000000 1.890410 
# 
# From -- ./inp_files/44687.got.cif
#   From: 2010.05.17/outbox.cif.g08.bks.cpg/sg71_23_cif.got.tgz:44687.got - 2010.06.03 16:22:01.
