data_PCOD9521102
_publ_section_title
;
Structure prediction by ZEFSAII (Michael W. Deem and Ramdas Pophale) SiO2 
 PCOD9521102
Probable space group: I M M M
;
_chemical_formula_sum "Si O2"
_cell_formula_units_Z 96
_cell_length_a 8.693025
_cell_length_b 19.493307
_cell_length_c 29.802246
_cell_angle_alpha 90.000000
_cell_angle_beta 90.000000
_cell_angle_gamma 90.000000
_cell_volume 5050.163589
_symmetry_space_group_name_H-M "I M M M"
_symmetry_group_IT_number 71
_symmetry_cell_setting 'orthorhombic'
loop_
_space_group_symop_operation_xyz
x,y,z
-x,-y,z
x,-y,-z
-x,y,-z
-x,-y,-z
x,y,-z
-x,y,z
x,-y,z
1/2+x,1/2+y,1/2+z
1/2-x,1/2-y,1/2+z
1/2+x,1/2-y,1/2-z
1/2-x,1/2+y,1/2-z
1/2-x,1/2-y,1/2-z
1/2+x,1/2+y,1/2-z
1/2-x,1/2+y,1/2+z
1/2+x,1/2-y,1/2+z
loop_
_atom_site_type_symbol
_atom_site_label
_atom_site_fract_x
_atom_site_fract_y
_atom_site_fract_z
Si Si1 0.822735 0.573559 0.080984
Si Si2 0.676015 0.779729 0.550011
Si Si3 0.684979 0.419459 0.448515
Si Si4 0.181561 0.077416 0.677127
Si Si5 0.683562 0.225380 0.702682
Si Si6 0.322524 0.189777 0.120075
O O1 0.800446 0.500000 0.058655
O O2 0.806785 0.638902 0.050220
O O3 0.713854 0.578556 0.123865
O O4 0.000000 0.575682 0.098233
O O5 0.690860 0.752582 0.500000
O O6 0.500000 0.764043 0.565610
O O7 0.798796 0.749366 0.583402
O O8 0.737016 0.402431 0.500000
O O9 0.500000 0.411155 0.448249
O O10 0.719275 0.500000 0.441772
O O11 0.751738 0.374288 0.407779
O O12 0.261707 0.146606 0.694765
O O13 0.000000 0.082428 0.686227
O O14 0.233049 0.000000 0.692295
O O15 0.500000 0.226501 0.702556
O O16 0.750000 0.250000 0.750000
O O17 0.742000 0.278146 0.664053
O O18 0.500000 0.176533 0.130217
#
# Coordination Sequence:
#
# PCOD9521102 Si02
#       6
#    16  16  16  16  16  16
#     4   9  17  30  50  76 108 151 199 242 284 331
#     4  10  20  33  51  78 114 157 201 244 290 342
#     4   9  19  38  64  92 123 162 206 250 302 368
#     4  10  20  36  60  89 120 154 193 238 290 350
#     4  12  25  43  66  91 120 154 198 251 307 364
#     4  12  24  38  58  86 120 157 197 244 301 359
#
# _framework density 19.009285999999999
#
# number of rings (size 3 to 8) (size 9 to 14) (size 15 to 20)
#    0.000    1.667    1.667    4.500    0.000    4.333 
#    0.000    3.333    0.000    5.000    0.000    3.500 
#    0.000    0.000    0.000    0.000    0.000    0.000 
#
# Total GULP energy -267590.056358 kJ/mol
# GULP energy per Si atom -5574.792841 kJ/mol
# Density = 1.896602 g / cm^3
# Si number density = 19.009286 Si / 1000 Ang^3
#
#
#
# Elastic Constant Matrix: (Units=GPa)
#
#
# Indices 1 2 3 4 5 6 
#
# 1 93.9826 52.9537 49.9009 0.0000 0.0000 0.0000
# 2 52.9537 163.1212 65.9567 0.0000 0.0000 0.0000
# 3 49.9009 65.9567 104.7193 0.0000 0.0000 0.0000
# 4 0.0000 0.0000 0.0000 43.1280 0.0000 0.0000
# 5 0.0000 0.0000 0.0000 0.0000 20.7410 0.0000
# 6 0.0000 0.0000 0.0000 0.0000 0.0000 21.6703
#
#
#
# Elastic Compliance Matrix: (Units=1/GPa)
#
#
# Indices 1 2 3 4 5 6 
#
# 1 0.015062 -0.002666 -0.005498 0.000000 0.000000 0.000000
# 2 -0.002666 0.008697 -0.004207 0.000000 0.000000 0.000000
# 3 -0.005498 -0.004207 0.014819 0.000000 0.000000 0.000000
# 4 0.000000 0.000000 0.000000 0.023187 0.000000 0.000000
# 5 0.000000 0.000000 0.000000 0.000000 0.048214 0.000000
# 6 0.000000 0.000000 0.000000 0.000000 0.000000 0.046146
#
#
# Mechanical properties :
#
#
# Convention : Reuss Voigt Hill
#
# Bulk Modulus (GPa) = 72.28036 77.71615 74.99826
# Shear Modulus (GPa) = 26.95720 29.97531 28.46625
#
# Velocity S-wave (km/s) = 3.76986 3.97530 3.87394
# Velocity P-wave (km/s) = 7.55350 7.87672 7.71680
#
# Compressibility (1/GPa) = 0.01383502
#
# Stress axis : x y z
#
# Youngs Moduli (GPa) = 66.39324 114.97974 67.48080
#
# Poissons Ratio (x) = 0.30659 0.37099
# Poissons Ratio (y) = 0.17704 0.28391
# Poissons Ratio (z) = 0.36501 0.48374
#
# Static dielectric constant tensor:
#      x y z
#    x 1.674120 0.000000 0.000000 
#    y 0.000000 1.715160 0.000000 
#    z 0.000000 0.000000 1.627490 
# 
# From -- ./inp_files/63198.got.cif
#   From: 2010.05.17/outbox.cif.g08.bks.cpg/sg71_32_cif.got.tgz:63198.got - 2010.06.03 16:22:01.
