data_PCOD9521578
_publ_section_title
;
Structure prediction by ZEFSAII (Michael W. Deem and Ramdas Pophale) SiO2 
 PCOD9521578
Probable space group: I M M M
;
_chemical_formula_sum "Si O2"
_cell_formula_units_Z 88
_cell_length_a 20.475265
_cell_length_b 8.026276
_cell_length_c 25.172389
_cell_angle_alpha 90.000000
_cell_angle_beta 90.000000
_cell_angle_gamma 90.000000
_cell_volume 4136.833632
_symmetry_space_group_name_H-M "I M M M"
_symmetry_group_IT_number 71
_symmetry_cell_setting 'orthorhombic'
loop_
_space_group_symop_operation_xyz
x,y,z
-x,-y,z
x,-y,-z
-x,y,-z
-x,-y,-z
x,y,-z
-x,y,z
x,-y,z
1/2+x,1/2+y,1/2+z
1/2-x,1/2-y,1/2+z
1/2+x,1/2-y,1/2-z
1/2-x,1/2+y,1/2-z
1/2-x,1/2-y,1/2-z
1/2+x,1/2+y,1/2-z
1/2-x,1/2+y,1/2+z
1/2+x,1/2-y,1/2+z
loop_
_atom_site_type_symbol
_atom_site_label
_atom_site_fract_x
_atom_site_fract_y
_atom_site_fract_z
Si Si1 0.929353 0.295708 0.327972
Si Si2 0.392699 0.802697 0.942021
Si Si3 0.624542 0.695143 0.368108
Si Si4 0.325100 0.803620 0.254309
Si Si5 0.756194 0.697085 0.061062
Si Si6 0.500000 0.704170 0.562416
O O1 0.926129 0.500000 0.329369
O O2 0.924634 0.236041 0.388637
O O3 0.869801 0.231649 0.292802
O O4 0.000000 0.251425 0.305011
O O5 0.315057 0.777869 0.934744
O O6 0.406909 0.000000 0.944054
O O7 0.410404 0.731347 0.000000
O O8 0.612754 0.500000 0.360439
O O9 0.639349 0.768729 0.310216
O O10 0.690702 0.723180 0.401059
O O11 0.563964 0.759199 0.403990
O O12 0.250000 0.750000 0.250000
O O13 0.323947 0.000000 0.247180
O O14 0.750551 0.500000 0.072211
O O15 0.777863 0.717381 0.000000
O O16 0.500000 0.500000 0.561046
O O17 0.500000 0.757194 0.500000
#
# Coordination Sequence:
#
# PCOD9521578 Si02
#       6
#    16  16  16  16  16   8
#     4   9  19  35  55  81 113 148 186 232 286 341
#     4   9  17  31  55  85 113 144 185 232 284 342
#     4  11  22  37  59  84 114 152 197 247 299 360
#     4  11  23  39  61  86 116 155 200 249 300 358
#     4  10  20  34  54  82 115 149 189 238 289 343
#     4   9  20  38  59  85 117 155 198 247 306 372
#
# _framework density 21.272309
#
# number of rings (size 3 to 8) (size 9 to 14) (size 15 to 20)
#    0.000    2.091    0.000    3.273    1.273    3.636 
#    0.000    4.091    0.000    6.000    0.000    2.545 
#    0.000    0.000    0.000    0.000    0.000    0.000 
#
# Total GULP energy -245629.227435 kJ/mol
# GULP energy per Si atom -5582.482442 kJ/mol
# Density = 2.122389 g / cm^3
# Si number density = 21.272309 Si / 1000 Ang^3
#
#
#
# Elastic Constant Matrix: (Units=GPa)
#
#
# Indices 1 2 3 4 5 6 
#
# 1 118.0914 1.7471 95.1113 0.0000 0.0000 0.0000
# 2 1.7471 18.6701 10.3639 0.0000 0.0000 0.0000
# 3 95.1113 10.3639 129.4217 0.0000 0.0000 0.0000
# 4 0.0000 0.0000 0.0000 20.7396 0.0000 0.0000
# 5 0.0000 0.0000 0.0000 0.0000 32.8691 0.0000
# 6 0.0000 0.0000 0.0000 0.0000 0.0000 7.1265
#
#
#
# Elastic Compliance Matrix: (Units=1/GPa)
#
#
# Indices 1 2 3 4 5 6 
#
# 1 0.021615 0.007111 -0.016454 0.000000 0.000000 0.000000
# 2 0.007111 0.058393 -0.009902 0.000000 0.000000 0.000000
# 3 -0.016454 -0.009902 0.020612 0.000000 0.000000 0.000000
# 4 0.000000 0.000000 0.000000 0.048217 0.000000 0.000000
# 5 0.000000 0.000000 0.000000 0.000000 0.030424 0.000000
# 6 0.000000 0.000000 0.000000 0.000000 0.000000 0.140321
#
#
# Mechanical properties :
#
#
# Convention : Reuss Voigt Hill
#
# Bulk Modulus (GPa) = 16.09542 53.40309 34.74925
# Shear Modulus (GPa) = 13.20022 22.74444 17.97233
#
# Velocity S-wave (km/s) = 2.49376 3.27342 2.90982
# Velocity P-wave (km/s) = 3.98429 6.28061 5.25930
#
# Compressibility (1/GPa) = 0.06212947
#
# Stress axis : x y z
#
# Youngs Moduli (GPa) = 46.26381 17.12543 48.51593
#
# Poissons Ratio (x) = -0.12178 0.79830
# Poissons Ratio (y) = -0.32899 0.48040
# Poissons Ratio (z) = 0.76124 0.16957
#
# Static dielectric constant tensor:
#      x y z
#    x 1.795330 0.000000 0.000000 
#    y 0.000000 1.769000 0.000000 
#    z 0.000000 0.000000 1.784720 
# 
# From -- ./inp_files/10394.got.cif
#   From: 2010.05.17/outbox.cif.g08.bks.cpg/sg71_6_cif.got.tgz:10394.got - 2010.06.03 16:22:01.
