data_PCOD9521427
_publ_section_title
;
Structure prediction by ZEFSAII (Michael W. Deem and Ramdas Pophale) SiO2 
 PCOD9521427
Probable space group: I M M M
;
_chemical_formula_sum "Si O2"
_cell_formula_units_Z 112
_cell_length_a 36.342414
_cell_length_b 7.568558
_cell_length_c 18.627706
_cell_angle_alpha 90.000000
_cell_angle_beta 90.000000
_cell_angle_gamma 90.000000
_cell_volume 5123.730632
_symmetry_space_group_name_H-M "I M M M"
_symmetry_group_IT_number 71
_symmetry_cell_setting 'orthorhombic'
loop_
_space_group_symop_operation_xyz
x,y,z
-x,-y,z
x,-y,-z
-x,y,-z
-x,-y,-z
x,y,-z
-x,y,z
x,-y,z
1/2+x,1/2+y,1/2+z
1/2-x,1/2-y,1/2+z
1/2+x,1/2-y,1/2-z
1/2-x,1/2+y,1/2-z
1/2-x,1/2-y,1/2-z
1/2+x,1/2+y,1/2-z
1/2-x,1/2+y,1/2+z
1/2+x,1/2-y,1/2+z
loop_
_atom_site_type_symbol
_atom_site_label
_atom_site_fract_x
_atom_site_fract_y
_atom_site_fract_z
Si Si1 0.958620 0.286464 0.855446
Si Si2 0.105411 0.789004 0.419826
Si Si3 0.458877 0.787872 0.808293
Si Si4 0.259139 0.786004 0.581278
Si Si5 0.117480 0.791425 0.921645
Si Si6 0.175437 0.792593 0.189307
Si Si7 0.318089 0.283331 0.148282
O O1 0.958554 0.500000 0.856011
O O2 0.951296 0.226648 0.773246
O O3 0.925546 0.226828 0.905281
O O4 0.000000 0.229324 0.875356
O O5 0.097872 0.720407 0.500000
O O6 0.072520 0.757403 0.364426
O O7 0.144337 0.723297 0.389310
O O8 0.109208 0.000000 0.424857
O O9 0.500000 0.725500 0.828742
O O10 0.460294 0.000000 0.804788
O O11 0.267178 0.726412 0.500000
O O12 0.289174 0.725498 0.638671
O O13 0.218633 0.728560 0.606628
O O14 0.259744 0.000000 0.581193
O O15 0.141410 0.715522 0.856221
O O16 0.126047 0.000000 0.924463
O O17 0.126623 0.715760 0.000000
O O18 0.181964 0.721323 0.269043
O O19 0.167616 0.000000 0.200634
O O20 0.317667 0.500000 0.147507
#
# Coordination Sequence:
#
# PCOD9521427 Si02
#       7
#    16  16  16  16  16  16  16
#     4   9  19  36  56  77 101 132 173 217 257 301
#     4  10  20  34  54  79 105 134 171 214 256 301
#     4   9  19  36  55  75 103 138 172 209 257 309
#     4  10  20  34  53  77 105 135 167 206 254 305
#     4  10  21  35  51  75 107 139 170 208 258 312
#     4  10  20  35  55  76 101 135 173 211 250 296
#     4   9  18  34  55  77 102 134 171 210 254 301
#
# _framework density 21.859072000000001
#
# number of rings (size 3 to 8) (size 9 to 14) (size 15 to 20)
#    0.000    2.429    0.000    3.000    0.000    6.571 
#    0.000    5.714    0.000    1.714    0.000    0.000 
#    0.000    0.000    0.000    0.000    0.000    0.000 
#
# Total GULP energy -312818.895144 kJ/mol
# GULP energy per Si atom -5586.051699 kJ/mol
# Density = 2.180932 g / cm^3
# Si number density = 21.859072 Si / 1000 Ang^3
#
#
#
# Elastic Constant Matrix: (Units=GPa)
#
#
# Indices 1 2 3 4 5 6 
#
# 1 58.9390 -13.5770 -10.4666 0.0000 0.0000 0.0000
# 2 -13.5770 45.8673 -1.3676 0.0000 0.0000 0.0000
# 3 -10.4666 -1.3676 48.5506 0.0000 0.0000 0.0000
# 4 0.0000 0.0000 0.0000 12.4310 0.0000 0.0000
# 5 0.0000 0.0000 0.0000 0.0000 94.5046 0.0000
# 6 0.0000 0.0000 0.0000 0.0000 0.0000 11.4537
#
#
#
# Elastic Compliance Matrix: (Units=1/GPa)
#
#
# Indices 1 2 3 4 5 6 
#
# 1 0.019053 0.005767 0.004270 0.000000 0.000000 0.000000
# 2 0.005767 0.023566 0.001907 0.000000 0.000000 0.000000
# 3 0.004270 0.001907 0.021571 0.000000 0.000000 0.000000
# 4 0.000000 0.000000 0.000000 0.080444 0.000000 0.000000
# 5 0.000000 0.000000 0.000000 0.000000 0.010581 0.000000
# 6 0.000000 0.000000 0.000000 0.000000 0.000000 0.087308
#
#
# Mechanical properties :
#
#
# Convention : Reuss Voigt Hill
#
# Bulk Modulus (GPa) = 11.35336 11.39274 11.37305
# Shear Modulus (GPa) = 20.16168 35.59575 27.87871
#
# Velocity S-wave (km/s) = 3.04031 4.03975 3.57513
# Velocity P-wave (km/s) = 4.18687 5.19448 4.71765
#
# Compressibility (1/GPa) = 0.08807967
#
# Stress axis : x y z
#
# Youngs Moduli (GPa) = 52.48380 42.43398 46.35786
#
# Poissons Ratio (x) = -0.24473 -0.19795
# Poissons Ratio (y) = -0.30269 -0.08841
# Poissons Ratio (z) = -0.22411 -0.08093
#
# Static dielectric constant tensor:
#      x y z
#    x 1.763150 0.000000 0.000000 
#    y 0.000000 1.837900 0.000000 
#    z 0.000000 0.000000 1.790570 
# 
# From -- ./inp_files/40938.got.cif
#   From: 2010.05.17/outbox.cif.g08.bks.cpg/sg71_21_cif.got.tgz:40938.got - 2010.06.03 16:22:01.
