data_PCOD9521495
_publ_section_title
;
Structure prediction by ZEFSAII (Michael W. Deem and Ramdas Pophale) SiO2 
 PCOD9521495
Probable space group: I M M M
;
_chemical_formula_sum "Si O2"
_cell_formula_units_Z 100
_cell_length_a 31.686486
_cell_length_b 7.788139
_cell_length_c 21.151448
_cell_angle_alpha 90.000000
_cell_angle_beta 90.000000
_cell_angle_gamma 90.000000
_cell_volume 5219.728054
_symmetry_space_group_name_H-M "I M M M"
_symmetry_group_IT_number 71
_symmetry_cell_setting 'orthorhombic'
loop_
_space_group_symop_operation_xyz
x,y,z
-x,-y,z
x,-y,-z
-x,y,-z
-x,-y,-z
x,y,-z
-x,y,z
x,-y,z
1/2+x,1/2+y,1/2+z
1/2-x,1/2-y,1/2+z
1/2+x,1/2-y,1/2-z
1/2-x,1/2+y,1/2-z
1/2-x,1/2-y,1/2-z
1/2+x,1/2+y,1/2-z
1/2-x,1/2+y,1/2+z
1/2+x,1/2-y,1/2+z
loop_
_atom_site_type_symbol
_atom_site_label
_atom_site_fract_x
_atom_site_fract_y
_atom_site_fract_z
Si Si1 0.133111 0.799377 0.641235
Si Si2 0.044654 0.811212 0.236981
Si Si3 0.724600 0.792712 0.686102
Si Si4 0.046933 0.706487 0.575368
Si Si5 0.000000 0.500000 0.705959
Si Si6 0.216890 0.790143 0.428740
Si Si7 0.867427 0.302874 0.784707
O O1 0.087898 0.779995 0.608545
O O2 0.170222 0.739255 0.594757
O O3 0.135511 0.707039 0.708431
O O4 0.140775 0.000000 0.654825
O O5 0.087944 0.784878 0.200187
O O6 0.000000 0.807784 0.199249
O O7 0.036328 0.652331 0.283825
O O8 0.047211 0.000000 0.267596
O O9 0.750000 0.750000 0.750000
O O10 0.750143 0.732708 0.624642
O O11 0.676484 0.728013 0.689887
O O12 0.722472 0.000000 0.683538
O O13 0.050948 0.732677 0.500000
O O14 0.045195 0.500000 0.586485
O O15 0.000000 0.771410 0.593444
O O16 0.225271 0.731271 0.500000
O O17 0.217794 0.000000 0.429656
O O18 0.870513 0.500000 0.804830
#
# Coordination Sequence:
#
# PCOD9521495 Si02
#       7
#    16  16  16  16   4  16  16
#     4  11  21  31  49  73  96 129 170 220 273 325
#     4   9  17  30  49  72 102 144 179 215 268 323
#     4  10  20  34  54  77 105 138 176 222 275 327
#     4   9  19  36  52  66  90 127 169 213 263 316
#     4   8  14  32  48  70 108 136 180 220 264 314
#     4   9  18  34  53  75 103 135 172 218 272 332
#     4  11  20  32  49  72 104 139 178 224 272 319
#
# _framework density 19.158086999999998
#
# number of rings (size 3 to 8) (size 9 to 14) (size 15 to 20)
#    0.480    1.760    2.400    1.920    0.000    2.560 
#    0.000    0.800    0.000    1.440    0.000    0.000 
#    0.000    0.640    0.000    9.360    0.000    4.160 
#
# Total GULP energy -278396.635168 kJ/mol
# GULP energy per Si atom -5567.932703 kJ/mol
# Density = 1.911448 g / cm^3
# Si number density = 19.158087 Si / 1000 Ang^3
#
#
#
# Elastic Constant Matrix: (Units=GPa)
#
#
# Indices 1 2 3 4 5 6 
#
# 1 199.9586 16.9372 60.6066 0.0000 0.0000 0.0000
# 2 16.9372 70.7626 -0.2481 0.0000 0.0000 0.0000
# 3 60.6066 -0.2481 62.8895 0.0000 0.0000 0.0000
# 4 0.0000 0.0000 0.0000 8.4159 0.0000 0.0000
# 5 0.0000 0.0000 0.0000 0.0000 23.3440 0.0000
# 6 0.0000 0.0000 0.0000 0.0000 0.0000 21.2141
#
#
#
# Elastic Compliance Matrix: (Units=1/GPa)
#
#
# Indices 1 2 3 4 5 6 
#
# 1 0.007279 -0.001767 -0.007022 0.000000 0.000000 0.000000
# 2 -0.001767 0.014561 0.001760 0.000000 0.000000 0.000000
# 3 -0.007022 0.001760 0.022675 0.000000 0.000000 0.000000
# 4 0.000000 0.000000 0.000000 0.118822 0.000000 0.000000
# 5 0.000000 0.000000 0.000000 0.000000 0.042838 0.000000
# 6 0.000000 0.000000 0.000000 0.000000 0.000000 0.047138
#
#
# Mechanical properties :
#
#
# Convention : Reuss Voigt Hill
#
# Bulk Modulus (GPa) = 32.83245 54.24466 43.53856
# Shear Modulus (GPa) = 18.01660 27.68249 22.84955
#
# Velocity S-wave (km/s) = 3.06995 3.80537 3.45727
# Velocity P-wave (km/s) = 5.45353 6.90533 6.22192
#
# Compressibility (1/GPa) = 0.03045767
#
# Stress axis : x y z
#
# Youngs Moduli (GPa) = 137.38280 68.67741 44.10217
#
# Poissons Ratio (x) = 0.12134 0.30967
# Poissons Ratio (y) = 0.24274 -0.07763
# Poissons Ratio (z) = 0.96466 -0.12088
#
# Static dielectric constant tensor:
#      x y z
#    x 1.732160 0.000000 0.000000 
#    y 0.000000 1.726830 0.000000 
#    z 0.000000 0.000000 1.659320 
# 
# From -- ./inp_files/56640.got.cif
#   From: 2010.05.17/outbox.cif.g08.bks.cpg/sg71_29_cif.got.tgz:56640.got - 2010.06.03 16:22:01.
