data_PCOD9521014
_publ_section_title
;
Structure prediction by ZEFSAII (Michael W. Deem and Ramdas Pophale) SiO2 
 PCOD9521014
Probable space group: I M M M
;
_chemical_formula_sum "Si O2"
_cell_formula_units_Z 96
_cell_length_a 7.954216
_cell_length_b 24.662575
_cell_length_c 23.761201
_cell_angle_alpha 90.000000
_cell_angle_beta 90.000000
_cell_angle_gamma 90.000000
_cell_volume 4661.269222
_symmetry_space_group_name_H-M "I M M M"
_symmetry_group_IT_number 71
_symmetry_cell_setting 'orthorhombic'
loop_
_space_group_symop_operation_xyz
x,y,z
-x,-y,z
x,-y,-z
-x,y,-z
-x,-y,-z
x,y,-z
-x,y,z
x,-y,z
1/2+x,1/2+y,1/2+z
1/2-x,1/2-y,1/2+z
1/2+x,1/2-y,1/2-z
1/2-x,1/2+y,1/2-z
1/2-x,1/2-y,1/2-z
1/2+x,1/2+y,1/2-z
1/2-x,1/2+y,1/2+z
1/2+x,1/2-y,1/2+z
loop_
_atom_site_type_symbol
_atom_site_label
_atom_site_fract_x
_atom_site_fract_y
_atom_site_fract_z
Si Si1 0.798141 0.247963 0.436196
Si Si2 0.693601 0.097189 0.817103
Si Si3 0.809609 0.787880 0.822506
Si Si4 0.697411 0.441475 0.799275
Si Si5 0.298844 0.934840 0.061123
Si Si6 0.299646 0.328184 0.157925
O O1 0.742000 0.252049 0.500000
O O2 0.711723 0.286775 0.390865
O O3 0.769061 0.189300 0.406970
O O4 0.000000 0.258030 0.434079
O O5 0.500000 0.078935 0.816883
O O6 0.702050 0.161174 0.803488
O O7 0.787256 0.066126 0.767721
O O8 0.765842 0.087494 0.879566
O O9 0.761470 0.725653 0.808893
O O10 0.000000 0.798268 0.805901
O O11 0.500000 0.442406 0.814269
O O12 0.770878 0.500000 0.815309
O O13 0.771832 0.386294 0.825503
O O14 0.500000 0.922990 0.060606
O O15 0.280056 0.000000 0.062535
O O16 0.232465 0.915595 0.000000
O O17 0.500000 0.329564 0.166455
#
# Coordination Sequence:
#
# PCOD9521014 Si02
#       6
#    16  16  16  16  16  16
#     4   8  15  31  54  77 103 137 175 212 255 312
#     4  11  21  33  51  77 106 137 177 220 264 316
#     4  10  20  33  50  76 106 136 171 214 263 312
#     4  10  21  37  57  78 104 138 174 218 269 320
#     4   8  15  29  48  69  94 127 169 215 257 297
#     4   8  17  35  54  76 104 138 176 212 261 320
#
# _framework density 20.595247000000001
#
# number of rings (size 3 to 8) (size 9 to 14) (size 15 to 20)
#    1.000    1.833    0.000    2.500    0.000    3.333 
#    0.000    1.667    0.000    2.000    0.000    9.333 
#    0.000    1.333    0.000    0.000    0.000    0.000 
#
# Total GULP energy -267271.616074 kJ/mol
# GULP energy per Si atom -5568.158668 kJ/mol
# Density = 2.054837 g / cm^3
# Si number density = 20.595247 Si / 1000 Ang^3
#
#
#
# Elastic Constant Matrix: (Units=GPa)
#
#
# Indices 1 2 3 4 5 6 
#
# 1 23.1398 -2.0172 -5.7556 0.0000 0.0000 0.0000
# 2 -2.0172 76.2869 2.3842 0.0000 0.0000 0.0000
# 3 -5.7556 2.3842 39.4508 0.0000 0.0000 0.0000
# 4 0.0000 0.0000 0.0000 25.7030 0.0000 0.0000
# 5 0.0000 0.0000 0.0000 0.0000 17.0733 0.0000
# 6 0.0000 0.0000 0.0000 0.0000 0.0000 8.9502
#
#
#
# Elastic Compliance Matrix: (Units=1/GPa)
#
#
# Indices 1 2 3 4 5 6 
#
# 1 0.044917 0.000985 0.006494 0.000000 0.000000 0.000000
# 2 0.000985 0.013155 -0.000651 0.000000 0.000000 0.000000
# 3 0.006494 -0.000651 0.026335 0.000000 0.000000 0.000000
# 4 0.000000 0.000000 0.000000 0.038906 0.000000 0.000000
# 5 0.000000 0.000000 0.000000 0.000000 0.058571 0.000000
# 6 0.000000 0.000000 0.000000 0.000000 0.000000 0.111729
#
#
# Mechanical properties :
#
#
# Convention : Reuss Voigt Hill
#
# Bulk Modulus (GPa) = 10.19783 14.23336 12.21559
# Shear Modulus (GPa) = 15.99257 19.96304 17.97780
#
# Velocity S-wave (km/s) = 2.78963 3.11674 2.95771
# Velocity P-wave (km/s) = 3.91642 4.45849 4.19621
#
# Compressibility (1/GPa) = 0.09806009
#
# Stress axis : x y z
#
# Youngs Moduli (GPa) = 22.26350 76.01786 37.97259
#
# Poissons Ratio (x) = -0.07486 -0.24658
# Poissons Ratio (y) = -0.02192 0.02473
# Poissons Ratio (z) = -0.14457 0.04951
#
# Static dielectric constant tensor:
#      x y z
#    x 1.750790 0.000000 0.000000 
#    y 0.000000 1.778900 0.000000 
#    z 0.000000 0.000000 1.786550 
# 
# From -- ./inp_files/63459.got.cif
#   From: 2010.05.17/outbox.cif.g08.bks.cpg/sg71_32_cif.got.tgz:63459.got - 2010.06.03 16:22:01.
