data_PCOD9521057
_publ_section_title
;
Structure prediction by ZEFSAII (Michael W. Deem and Ramdas Pophale) SiO2 
 PCOD9521057
Probable space group: I M M M
;
_chemical_formula_sum "Si O2"
_cell_formula_units_Z 88
_cell_length_a 8.861558
_cell_length_b 18.815241
_cell_length_c 27.839108
_cell_angle_alpha 90.000000
_cell_angle_beta 90.000000
_cell_angle_gamma 90.000000
_cell_volume 4641.679882
_symmetry_space_group_name_H-M "I M M M"
_symmetry_group_IT_number 71
_symmetry_cell_setting 'orthorhombic'
loop_
_space_group_symop_operation_xyz
x,y,z
-x,-y,z
x,-y,-z
-x,y,-z
-x,-y,-z
x,y,-z
-x,y,z
x,-y,z
1/2+x,1/2+y,1/2+z
1/2-x,1/2-y,1/2+z
1/2+x,1/2-y,1/2-z
1/2-x,1/2+y,1/2-z
1/2-x,1/2-y,1/2-z
1/2+x,1/2+y,1/2-z
1/2-x,1/2+y,1/2+z
1/2+x,1/2-y,1/2+z
loop_
_atom_site_type_symbol
_atom_site_label
_atom_site_fract_x
_atom_site_fract_y
_atom_site_fract_z
Si Si1 0.180607 0.420073 0.750266
Si Si2 0.175710 0.797786 0.684099
Si Si3 0.825913 0.819206 0.572815
Si Si4 0.671772 0.916114 0.500000
Si Si5 0.318554 0.668016 0.552754
Si Si6 0.818431 0.145399 0.160526
O O1 0.218460 0.500000 0.767701
O O2 0.252234 0.356583 0.781491
O O3 0.243920 0.410168 0.696540
O O4 0.000000 0.412652 0.750443
O O5 0.181680 0.826910 0.629843
O O6 0.262610 0.722695 0.679843
O O7 0.000000 0.784911 0.697211
O O8 0.756684 0.885646 0.545951
O O9 0.734537 0.749505 0.556934
O O10 0.000000 0.808720 0.559422
O O11 0.500000 0.889540 0.500000
O O12 0.671374 0.000000 0.500000
O O13 0.267126 0.640372 0.500000
O O14 0.500000 0.664998 0.552681
O O15 0.270449 0.635988 0.604513
O O16 0.000000 0.142541 0.162982
#
# Coordination Sequence:
#
# PCOD9521057 Si02
#       6
#    16  16  16   8  16  16
#     4  11  24  40  57  78 108 146 187 231 279 332
#     4  10  21  37  58  83 111 142 180 228 277 328
#     4  10  20  33  51  76 103 133 173 220 267 314
#     4  11  23  35  47  65  97 143 184 219 264 317
#     4   9  17  31  54  82 110 138 170 213 265 318
#     4  10  20  35  58  86 114 145 182 225 273 327
#
# _framework density 18.958653000000002
#
# number of rings (size 3 to 8) (size 9 to 14) (size 15 to 20)
#    0.000    1.909    0.909    3.000    0.000    5.818 
#    0.000    3.636    0.000    0.545    0.000    3.818 
#    0.000    0.000    0.000    0.000    0.000    0.000 
#
# Total GULP energy -245480.051966 kJ/mol
# GULP energy per Si atom -5579.092090 kJ/mol
# Density = 1.891550 g / cm^3
# Si number density = 18.958653 Si / 1000 Ang^3
#
#
#
# Elastic Constant Matrix: (Units=GPa)
#
#
# Indices 1 2 3 4 5 6 
#
# 1 34.0110 9.1346 16.7098 0.0000 0.0000 0.0000
# 2 9.1346 24.9132 14.8060 0.0000 0.0000 0.0000
# 3 16.7098 14.8060 98.6490 0.0000 0.0000 0.0000
# 4 0.0000 0.0000 0.0000 23.5942 0.0000 0.0000
# 5 0.0000 0.0000 0.0000 0.0000 22.7236 0.0000
# 6 0.0000 0.0000 0.0000 0.0000 0.0000 21.0072
#
#
#
# Elastic Compliance Matrix: (Units=1/GPa)
#
#
# Indices 1 2 3 4 5 6 
#
# 1 0.034193 -0.009986 -0.004293 0.000000 0.000000 0.000000
# 2 -0.009986 0.046987 -0.005361 0.000000 0.000000 0.000000
# 3 -0.004293 -0.005361 0.011669 0.000000 0.000000 0.000000
# 4 0.000000 0.000000 0.000000 0.042383 0.000000 0.000000
# 5 0.000000 0.000000 0.000000 0.000000 0.044007 0.000000
# 6 0.000000 0.000000 0.000000 0.000000 0.000000 0.047603
#
#
# Mechanical properties :
#
#
# Convention : Reuss Voigt Hill
#
# Bulk Modulus (GPa) = 18.66731 26.54156 22.60444
# Shear Modulus (GPa) = 17.60704 21.25988 19.43346
#
# Velocity S-wave (km/s) = 3.05078 3.35234 3.20510
# Velocity P-wave (km/s) = 4.71989 5.38649 5.06417
#
# Compressibility (1/GPa) = 0.05356957
#
# Stress axis : x y z
#
# Youngs Moduli (GPa) = 29.24537 21.28268 85.69921
#
# Poissons Ratio (x) = 0.21252 0.36792
# Poissons Ratio (y) = 0.29204 0.45940
# Poissons Ratio (z) = 0.12556 0.11409
#
# Static dielectric constant tensor:
#      x y z
#    x 1.647520 0.000000 0.000000 
#    y 0.000000 1.621290 0.000000 
#    z 0.000000 0.000000 1.703660 
# 
# From -- ./inp_files/42459.got.cif
#   From: 2010.05.17/outbox.cif.g08.bks.cpg/sg71_22_cif.got.tgz:42459.got - 2010.06.03 16:22:01.
