data_PCOD9521314
_publ_section_title
;
Structure prediction by ZEFSAII (Michael W. Deem and Ramdas Pophale) SiO2 
 PCOD9521314
Probable space group: I M M M
;
_chemical_formula_sum "Si O2"
_cell_formula_units_Z 80
_cell_length_a 9.424559
_cell_length_b 14.849002
_cell_length_c 26.621338
_cell_angle_alpha 90.000000
_cell_angle_beta 90.000000
_cell_angle_gamma 90.000000
_cell_volume 3725.531011
_symmetry_space_group_name_H-M "I M M M"
_symmetry_group_IT_number 71
_symmetry_cell_setting 'orthorhombic'
loop_
_space_group_symop_operation_xyz
x,y,z
-x,-y,z
x,-y,-z
-x,y,-z
-x,-y,-z
x,y,-z
-x,y,z
x,-y,z
1/2+x,1/2+y,1/2+z
1/2-x,1/2-y,1/2+z
1/2+x,1/2-y,1/2-z
1/2-x,1/2+y,1/2-z
1/2-x,1/2-y,1/2-z
1/2+x,1/2+y,1/2-z
1/2-x,1/2+y,1/2+z
1/2+x,1/2-y,1/2+z
loop_
_atom_site_type_symbol
_atom_site_label
_atom_site_fract_x
_atom_site_fract_y
_atom_site_fract_z
Si Si1 0.659836 0.393156 0.905396
Si Si2 0.837689 0.891481 0.098324
Si Si3 0.338007 0.639466 0.793551
Si Si4 0.838794 0.389256 0.000000
Si Si5 0.336315 0.889742 0.000000
Si Si6 0.838832 0.645191 0.698887
O O1 0.500000 0.353915 0.906622
O O2 0.647088 0.500000 0.913844
O O3 0.717571 0.382100 0.849191
O O4 0.756805 0.358768 0.950161
O O5 0.748625 0.861291 0.049775
O O6 0.753469 0.869562 0.149137
O O7 0.000000 0.857139 0.098977
O O8 0.845397 0.000000 0.095236
O O9 0.500000 0.604965 0.789431
O O10 0.241229 0.607479 0.747835
O O11 0.346525 0.747591 0.792156
O O12 0.840812 0.500000 0.000000
O O13 0.000000 0.358433 0.000000
O O14 0.500000 0.859421 0.000000
O O15 0.338967 0.000000 0.000000
O O16 0.000000 0.611673 0.692975
#
# Coordination Sequence:
#
# PCOD9521314 Si02
#       6
#    16  16  16   8   8  16
#     4   9  17  31  52  74  96 126 164 201 238 287
#     4  10  20  34  53  76 102 132 167 207 250 299
#     4   9  19  35  52  72 100 134 169 205 249 298
#     4   9  17  29  46  71 102 129 155 195 246 291
#     4   9  17  31  52  77 104 131 161 201 250 301
#     4  10  20  34  52  73 100 134 169 207 250 296
#
# _framework density 21.47345
#
# number of rings (size 3 to 8) (size 9 to 14) (size 15 to 20)
#    0.000    2.600    0.000    1.800    0.000    6.000 
#    0.000    3.000    0.000    2.400    0.000    0.000 
#    0.000    0.000    0.000    0.000    0.000    0.000 
#
# Total GULP energy -223391.229778 kJ/mol
# GULP energy per Si atom -5584.780744 kJ/mol
# Density = 2.142458 g / cm^3
# Si number density = 21.473450 Si / 1000 Ang^3
#
#
#
# Elastic Constant Matrix: (Units=GPa)
#
#
# Indices 1 2 3 4 5 6 
#
# 1 190.3955 6.9520 151.5046 0.0000 0.0000 0.0000
# 2 6.9520 47.7744 -3.2604 0.0000 0.0000 0.0000
# 3 151.5046 -3.2604 248.4154 0.0000 0.0000 0.0000
# 4 0.0000 0.0000 0.0000 25.6377 0.0000 0.0000
# 5 0.0000 0.0000 0.0000 0.0000 -44.8712 0.0000
# 6 0.0000 0.0000 0.0000 0.0000 0.0000 8.8588
#
#
#
# Elastic Compliance Matrix: (Units=1/GPa)
#
#
# Indices 1 2 3 4 5 6 
#
# 1 0.010382 -0.001945 -0.006357 0.000000 0.000000 0.000000
# 2 -0.001945 0.021315 0.001466 0.000000 0.000000 0.000000
# 3 -0.006357 0.001466 0.007922 0.000000 0.000000 0.000000
# 4 0.000000 0.000000 0.000000 0.039005 0.000000 0.000000
# 5 0.000000 0.000000 0.000000 0.000000 -0.022286 0.000000
# 6 0.000000 0.000000 0.000000 0.000000 0.000000 0.112882
#
#
# Mechanical properties :
#
#
# Convention : Reuss Voigt Hill
#
# Bulk Modulus (GPa) = 38.54120 88.55308 63.54714
# Shear Modulus (GPa) = 26.10408 20.01768 23.06088
#
# Velocity S-wave (km/s) = 3.49039 3.05652 3.28064
# Velocity P-wave (km/s) = 5.85073 7.33378 6.63383
#
# Compressibility (1/GPa) = 0.02594626
#
# Stress axis : x y z
#
# Youngs Moduli (GPa) = 96.32073 46.91599 126.23102
#
# Poissons Ratio (x) = 0.09123 0.80249
# Poissons Ratio (y) = 0.18731 -0.18502
# Poissons Ratio (z) = 0.61234 -0.06877
#
# Static dielectric constant tensor:
#      x y z
#    x 1.764200 0.000000 0.000000 
#    y 0.000000 1.823620 0.000000 
#    z 0.000000 0.000000 1.740660 
# 
# From -- ./inp_files/12385.got.cif
#   From: 2010.05.17/outbox.cif.g08.bks.cpg/sg71_7_cif.got.tgz:12385.got - 2010.06.03 16:22:01.
