data_PCOD9521952
_publ_section_title
;
Structure prediction by ZEFSAII (Michael W. Deem and Ramdas Pophale) SiO2 
 PCOD9521952
Probable space group: I M M M
;
_chemical_formula_sum "Si O2"
_cell_formula_units_Z 72
_cell_length_a 21.860539
_cell_length_b 8.430471
_cell_length_c 19.358930
_cell_angle_alpha 90.000000
_cell_angle_beta 90.000000
_cell_angle_gamma 90.000000
_cell_volume 3567.747037
_symmetry_space_group_name_H-M "I M M M"
_symmetry_group_IT_number 71
_symmetry_cell_setting 'orthorhombic'
loop_
_space_group_symop_operation_xyz
x,y,z
-x,-y,z
x,-y,-z
-x,y,-z
-x,-y,-z
x,y,-z
-x,y,z
x,-y,z
1/2+x,1/2+y,1/2+z
1/2-x,1/2-y,1/2+z
1/2+x,1/2-y,1/2-z
1/2-x,1/2+y,1/2-z
1/2-x,1/2-y,1/2-z
1/2+x,1/2+y,1/2-z
1/2-x,1/2+y,1/2+z
1/2+x,1/2-y,1/2+z
loop_
_atom_site_type_symbol
_atom_site_label
_atom_site_fract_x
_atom_site_fract_y
_atom_site_fract_z
Si Si1 0.433611 0.310285 0.221539
Si Si2 0.428668 0.500000 0.417990
Si Si3 0.101424 0.686149 0.422945
Si Si4 0.735731 0.315259 0.078089
Si Si5 0.160988 0.179931 0.827661
O O1 0.500000 0.250798 0.246074
O O2 0.432300 0.500000 0.233279
O O3 0.428066 0.275799 0.140831
O O4 0.374460 0.247000 0.262517
O O5 0.500000 0.500000 0.399660
O O6 0.422565 0.500000 0.500000
O O7 0.392744 0.352850 0.383860
O O8 0.083862 0.741733 0.500000
O O9 0.087182 0.500000 0.417907
O O10 0.174362 0.712899 0.416488
O O11 0.718255 0.500000 0.083657
O O12 0.784743 0.272574 0.136151
O O13 0.760917 0.289212 0.000000
O O14 0.183369 0.000000 0.810137
#
# Coordination Sequence:
#
# PCOD9521952 Si02
#       5
#    16   8  16  16  16
#     4  10  21  38  58  81 112 147 186 231 281 334
#     4   9  16  28  52  82 109 143 188 228 261 308
#     4  10  22  39  59  82 108 142 188 238 285 339
#     4  10  20  35  56  83 115 147 183 230 284 336
#     4   9  19  32  54  82 111 146 183 226 266 331
#
# _framework density 20.180803000000001
#
# number of rings (size 3 to 8) (size 9 to 14) (size 15 to 20)
#    0.667    1.667    0.000    2.667    0.000    4.889 
#    0.000    2.222    0.000    2.000    0.000    7.778 
#    0.000    0.000    0.000    0.000    0.000    0.000 
#
# Total GULP energy -200732.166760 kJ/mol
# GULP energy per Si atom -5575.893521 kJ/mol
# Density = 2.013487 g / cm^3
# Si number density = 20.180803 Si / 1000 Ang^3
#
#
#
# Elastic Constant Matrix: (Units=GPa)
#
#
# Indices 1 2 3 4 5 6 
#
# 1 41.5183 -1.7173 16.0518 0.0000 0.0000 0.0000
# 2 -1.7173 16.2179 2.8095 0.0000 0.0000 0.0000
# 3 16.0518 2.8095 85.6109 0.0000 0.0000 0.0000
# 4 0.0000 0.0000 0.0000 28.7189 0.0000 0.0000
# 5 0.0000 0.0000 0.0000 0.0000 29.8556 0.0000
# 6 0.0000 0.0000 0.0000 0.0000 0.0000 10.8604
#
#
#
# Elastic Compliance Matrix: (Units=1/GPa)
#
#
# Indices 1 2 3 4 5 6 
#
# 1 0.026180 0.003643 -0.005028 0.000000 0.000000 0.000000
# 2 0.003643 0.062520 -0.002735 0.000000 0.000000 0.000000
# 3 -0.005028 -0.002735 0.012713 0.000000 0.000000 0.000000
# 4 0.000000 0.000000 0.000000 0.034820 0.000000 0.000000
# 5 0.000000 0.000000 0.000000 0.000000 0.033495 0.000000
# 6 0.000000 0.000000 0.000000 0.000000 0.000000 0.092078
#
#
# Mechanical properties :
#
#
# Convention : Reuss Voigt Hill
#
# Bulk Modulus (GPa) = 10.73261 19.73723 15.23492
# Shear Modulus (GPa) = 16.60556 22.30052 19.45304
#
# Velocity S-wave (km/s) = 2.87163 3.32782 3.10810
# Velocity P-wave (km/s) = 4.04039 4.95654 4.52173
#
# Compressibility (1/GPa) = 0.09317402
#
# Stress axis : x y z
#
# Youngs Moduli (GPa) = 38.19639 15.99489 78.65784
#
# Poissons Ratio (x) = -0.05827 0.39552
# Poissons Ratio (y) = -0.13916 0.21511
# Poissons Ratio (z) = 0.19206 0.04374
#
# Static dielectric constant tensor:
#      x y z
#    x 1.726170 0.000000 0.000000 
#    y 0.000000 1.688890 0.000000 
#    z 0.000000 0.000000 1.743020 
# 
# From -- ./inp_files/47927.got.cif
#   From: 2010.05.17/outbox.cif.g08.bks.cpg/sg71_24_cif.got.tgz:47927.got - 2010.06.03 16:22:01.
