data_PCOD9521886
_publ_section_title
;
Structure prediction by ZEFSAII (Michael W. Deem and Ramdas Pophale) SiO2 
 PCOD9521886
Probable space group: I M M M
;
_chemical_formula_sum "Si O2"
_cell_formula_units_Z 120
_cell_length_a 28.001559
_cell_length_b 9.657935
_cell_length_c 23.808265
_cell_angle_alpha 90.000000
_cell_angle_beta 90.000000
_cell_angle_gamma 90.000000
_cell_volume 6438.641398
_symmetry_space_group_name_H-M "I M M M"
_symmetry_group_IT_number 71
_symmetry_cell_setting 'orthorhombic'
loop_
_space_group_symop_operation_xyz
x,y,z
-x,-y,z
x,-y,-z
-x,y,-z
-x,-y,-z
x,y,-z
-x,y,z
x,-y,z
1/2+x,1/2+y,1/2+z
1/2-x,1/2-y,1/2+z
1/2+x,1/2-y,1/2-z
1/2-x,1/2+y,1/2-z
1/2-x,1/2-y,1/2-z
1/2+x,1/2+y,1/2-z
1/2-x,1/2+y,1/2+z
1/2+x,1/2-y,1/2+z
loop_
_atom_site_type_symbol
_atom_site_label
_atom_site_fract_x
_atom_site_fract_y
_atom_site_fract_z
Si Si1 0.442950 0.336274 0.267666
Si Si2 0.181084 0.160713 0.932162
Si Si3 0.052545 0.000000 0.566958
Si Si4 0.122273 0.253864 0.565329
Si Si5 0.111877 0.654112 0.682961
Si Si6 0.769137 0.845922 0.432760
Si Si7 0.797008 0.340142 0.249045
Si Si8 0.875093 0.663828 0.848322
O O1 0.500000 0.325278 0.271387
O O2 0.430138 0.500000 0.269617
O O3 0.423775 0.263831 0.210710
O O4 0.416840 0.248192 0.316615
O O5 0.231578 0.230049 0.914162
O O6 0.140536 0.255812 0.904353
O O7 0.178139 0.000000 0.914360
O O8 0.178252 0.163700 0.000000
O O9 0.084722 0.132477 0.577366
O O10 0.046423 0.000000 0.500000
O O11 0.000000 0.000000 0.593738
O O12 0.117937 0.299278 0.500000
O O13 0.111309 0.354724 0.616192
O O14 0.175918 0.196840 0.573463
O O15 0.102898 0.500000 0.707391
O O16 0.165225 0.695903 0.702047
O O17 0.761969 0.856228 0.500000
O O18 0.760121 0.000000 0.408574
O O19 0.783396 0.500000 0.255466
O O20 0.750000 0.250000 0.250000
O O21 0.829203 0.326132 0.193205
O O22 0.885359 0.500000 0.856327
#
# Coordination Sequence:
#
# PCOD9521886 Si02
#       8
#    16  16   8  16  16  16  16  16
#     4  10  22  41  66  92 114 144 191 243 295 351
#     4  10  21  35  54  85 124 164 202 239 281 335
#     4   9  18  34  54  76 104 140 186 242 296 346
#     4  10  20  35  55  80 112 151 194 243 298 355
#     4  10  23  39  55  82 116 149 192 240 292 352
#     4   9  17  31  50  73 107 151 198 240 283 337
#     4   9  20  37  53  75 107 147 190 234 285 338
#     4  10  21  38  60  88 119 154 195 236 291 352
#
# _framework density 18.637473
#
# number of rings (size 3 to 8) (size 9 to 14) (size 15 to 20)
#    0.000    2.333    0.667    2.000    2.800    5.867 
#    0.000    1.333    0.000    0.400    0.000    5.600 
#    0.000    0.000    0.000    0.000    0.000    0.000 
#
# Total GULP energy -334469.745340 kJ/mol
# GULP energy per Si atom -5574.495756 kJ/mol
# Density = 1.859505 g / cm^3
# Si number density = 18.637473 Si / 1000 Ang^3
#
#
#
# Elastic Constant Matrix: (Units=GPa)
#
#
# Indices 1 2 3 4 5 6 
#
# 1 104.4848 76.3095 35.4853 0.0000 0.0000 0.0000
# 2 76.3095 146.6494 41.7330 0.0000 0.0000 0.0000
# 3 35.4853 41.7330 59.9365 0.0000 0.0000 0.0000
# 4 0.0000 0.0000 0.0000 25.1098 0.0000 0.0000
# 5 0.0000 0.0000 0.0000 0.0000 10.6033 0.0000
# 6 0.0000 0.0000 0.0000 0.0000 0.0000 -16.3687
#
#
#
# Elastic Compliance Matrix: (Units=1/GPa)
#
#
# Indices 1 2 3 4 5 6 
#
# 1 0.016439 -0.007214 -0.004710 0.000000 0.000000 0.000000
# 2 -0.007214 0.011670 -0.003855 0.000000 0.000000 0.000000
# 3 -0.004710 -0.003855 0.022157 0.000000 0.000000 0.000000
# 4 0.000000 0.000000 0.000000 0.039825 0.000000 0.000000
# 5 0.000000 0.000000 0.000000 0.000000 0.094310 0.000000
# 6 0.000000 0.000000 0.000000 0.000000 0.000000 -0.061092
#
#
# Mechanical properties :
#
#
# Convention : Reuss Voigt Hill
#
# Bulk Modulus (GPa) = 53.45019 68.68069 61.06544
# Shear Modulus (GPa) = 31.03664 14.37174 22.70419
#
# Velocity S-wave (km/s) = 4.08521 2.77992 3.49406
# Velocity P-wave (km/s) = 7.14095 6.87276 7.00813
#
# Compressibility (1/GPa) = 0.01870901
#
# Stress axis : x y z
#
# Youngs Moduli (GPa) = 60.83190 85.69312 45.13334
#
# Poissons Ratio (x) = 0.61816 0.21257
# Poissons Ratio (y) = 0.43882 0.17397
# Poissons Ratio (z) = 0.28650 0.33030
#
# Static dielectric constant tensor:
#      x y z
#    x 1.632250 0.000000 0.000000 
#    y 0.000000 1.695160 0.000000 
#    z 0.000000 0.000000 1.686280 
# 
# From -- ./inp_files/67143.got.cif
#   From: 2010.05.17/outbox.cif.g08.bks.cpg/sg71_34_cif.got.tgz:67143.got - 2010.06.03 16:22:01.
