data_PCOD9521678
_publ_section_title
;
Structure prediction by ZEFSAII (Michael W. Deem and Ramdas Pophale) SiO2 
 PCOD9521678
Probable space group: I M M M
;
_chemical_formula_sum "Si O2"
_cell_formula_units_Z 90
_cell_length_a 20.514191
_cell_length_b 7.414787
_cell_length_c 25.455076
_cell_angle_alpha 90.000000
_cell_angle_beta 90.000000
_cell_angle_gamma 90.000000
_cell_volume 3871.929781
_symmetry_space_group_name_H-M "I M M M"
_symmetry_group_IT_number 71
_symmetry_cell_setting 'orthorhombic'
loop_
_space_group_symop_operation_xyz
x,y,z
-x,-y,z
x,-y,-z
-x,y,-z
-x,-y,-z
x,y,-z
-x,y,z
x,-y,z
1/2+x,1/2+y,1/2+z
1/2-x,1/2-y,1/2+z
1/2+x,1/2-y,1/2-z
1/2-x,1/2+y,1/2-z
1/2-x,1/2-y,1/2-z
1/2+x,1/2+y,1/2-z
1/2-x,1/2+y,1/2+z
1/2+x,1/2-y,1/2+z
loop_
_atom_site_type_symbol
_atom_site_label
_atom_site_fract_x
_atom_site_fract_y
_atom_site_fract_z
Si Si1 0.258045 0.205720 0.829530
Si Si2 0.613852 0.719986 0.301482
Si Si3 0.500000 0.721466 0.098903
Si Si4 0.500000 0.000000 0.000000
Si Si5 0.712919 0.781103 0.556841
Si Si6 0.903662 0.795442 0.310825
Si Si7 0.930131 0.710140 0.082821
O O1 0.189730 0.279105 0.807159
O O2 0.249748 0.211377 0.892435
O O3 0.325616 0.297032 0.815891
O O4 0.263465 0.000000 0.811646
O O5 0.614242 0.500000 0.301835
O O6 0.584093 0.785883 0.246729
O O7 0.577653 0.778412 0.354158
O O8 0.500000 0.500000 0.089106
O O9 0.500000 0.840255 0.046630
O O10 0.438590 0.772521 0.136811
O O11 0.740046 0.730839 0.500000
O O12 0.637836 0.716883 0.560957
O O13 0.712792 0.000000 0.560485
O O14 0.926989 0.000000 0.307095
O O15 0.931141 0.500000 0.067589
O O16 0.000000 0.789137 0.067452
#
# Coordination Sequence:
#
# PCOD9521678 Si02
#       7
#    16  16   8   2  16  16  16
#     4  10  20  34  55  85 117 149 190 239 297 361
#     4   9  19  34  55  83 118 156 188 230 291 357
#     4  10  25  47  71  98 125 163 209 262 314 381
#     4  12  26  52  76  90 132 164 210 264 332 370
#     4   9  18  34  53  73 104 147 194 239 285 338
#     4  10  21  39  61  87 118 150 193 239 293 364
#     4   9  18  31  48  77 111 148 190 234 283 335
#
# _framework density 23.244222000000001
#
# number of rings (size 3 to 8) (size 9 to 14) (size 15 to 20)
#    0.000    2.489    0.000    1.200    2.489    2.489 
#    1.600    1.778    0.000    0.000    0.000    4.978 
#    0.000    0.000    0.000    0.000    0.000    0.000 
#
# Total GULP energy -250978.073102 kJ/mol
# GULP energy per Si atom -5577.290513 kJ/mol
# Density = 2.319132 g / cm^3
# Si number density = 23.244222 Si / 1000 Ang^3
#
#
#
# Elastic Constant Matrix: (Units=GPa)
#
#
# Indices 1 2 3 4 5 6 
#
# 1 73.7805 4.6964 5.4231 0.0000 0.0000 0.0000
# 2 4.6964 96.3384 12.4067 0.0000 0.0000 0.0000
# 3 5.4231 12.4067 171.5490 0.0000 0.0000 0.0000
# 4 0.0000 0.0000 0.0000 -31.0097 0.0000 0.0000
# 5 0.0000 0.0000 0.0000 0.0000 -4.1896 0.0000
# 6 0.0000 0.0000 0.0000 0.0000 0.0000 97.1895
#
#
#
# Elastic Compliance Matrix: (Units=1/GPa)
#
#
# Indices 1 2 3 4 5 6 
#
# 1 0.013621 -0.000614 -0.000386 0.000000 0.000000 0.000000
# 2 -0.000614 0.010505 -0.000740 0.000000 0.000000 0.000000
# 3 -0.000386 -0.000740 0.005895 0.000000 0.000000 0.000000
# 4 0.000000 0.000000 0.000000 -0.032248 0.000000 0.000000
# 5 0.000000 0.000000 0.000000 0.000000 -0.238685 0.000000
# 6 0.000000 0.000000 0.000000 0.000000 0.000000 0.010289
#
#
# Mechanical properties :
#
#
# Convention : Reuss Voigt Hill
#
# Bulk Modulus (GPa) = 37.67905 42.96890 40.32398
# Shear Modulus (GPa) = -22.90485 33.67416 5.38465
#
# Velocity S-wave (km/s) = -3.14251 3.81032 1.52367
# Velocity P-wave (km/s) = 1.75444 6.15500 4.52560
#
# Compressibility (1/GPa) = 0.02653995
#
# Stress axis : x y z
#
# Youngs Moduli (GPa) = 73.41500 95.18945 169.63557
#
# Poissons Ratio (x) = 0.05847 0.06551
# Poissons Ratio (y) = 0.04510 0.12559
# Poissons Ratio (z) = 0.02835 0.07047
#
# Static dielectric constant tensor:
#      x y z
#    x 1.868030 0.000000 0.000000 
#    y 0.000000 1.915780 0.000000 
#    z 0.000000 0.000000 1.868730 
# 
# From -- ./inp_files/61150.got.cif
#   From: 2010.05.17/outbox.cif.g08.bks.cpg/sg71_31_cif.got.tgz:61150.got - 2010.06.03 16:22:01.
