data_PCOD9521797
_publ_section_title
;
Structure prediction by ZEFSAII (Michael W. Deem and Ramdas Pophale) SiO2 
 PCOD9521797
Probable space group: I M M M
;
_chemical_formula_sum "Si O2"
_cell_formula_units_Z 88
_cell_length_a 17.264923
_cell_length_b 23.713716
_cell_length_c 12.434465
_cell_angle_alpha 90.000000
_cell_angle_beta 90.000000
_cell_angle_gamma 90.000000
_cell_volume 5090.862466
_symmetry_space_group_name_H-M "I M M M"
_symmetry_group_IT_number 71
_symmetry_cell_setting 'orthorhombic'
loop_
_space_group_symop_operation_xyz
x,y,z
-x,-y,z
x,-y,-z
-x,y,-z
-x,-y,-z
x,y,-z
-x,y,z
x,-y,z
1/2+x,1/2+y,1/2+z
1/2-x,1/2-y,1/2+z
1/2+x,1/2-y,1/2-z
1/2-x,1/2+y,1/2-z
1/2-x,1/2-y,1/2-z
1/2+x,1/2+y,1/2-z
1/2-x,1/2+y,1/2+z
1/2+x,1/2-y,1/2+z
loop_
_atom_site_type_symbol
_atom_site_label
_atom_site_fract_x
_atom_site_fract_y
_atom_site_fract_z
Si Si1 0.909952 0.934359 0.231943
Si Si2 0.406568 0.067489 0.500000
Si Si3 0.742475 0.566133 0.385763
Si Si4 0.407385 0.785913 0.874253
Si Si5 0.662762 0.336304 0.126233
Si Si6 0.170951 0.631437 0.796949
O O1 0.848902 0.925921 0.135802
O O2 0.882013 0.887746 0.316818
O O3 0.000000 0.926820 0.204568
O O4 0.900257 0.000000 0.268549
O O5 0.500000 0.071208 0.500000
O O6 0.373096 0.099496 0.606009
O O7 0.386127 0.000000 0.500000
O O8 0.764332 0.592621 0.500000
O O9 0.755794 0.500000 0.391490
O O10 0.790769 0.587683 0.285828
O O11 0.500000 0.784316 0.872550
O O12 0.374081 0.724078 0.847535
O O13 0.378673 0.828367 0.781425
O O14 0.384804 0.798988 0.000000
O O15 0.753550 0.336737 0.156356
O O16 0.655547 0.345031 0.000000
#
# Coordination Sequence:
#
# PCOD9521797 Si02
#       6
#    16   8  16  16  16  16
#     4   9  18  31  49  76 111 149 187 230 281 337
#     4  11  24  40  60  86 117 151 186 230 287 342
#     4   9  18  32  52  78 107 141 182 230 277 327
#     4  10  21  36  57  81 108 143 183 232 282 334
#     4  10  20  35  53  80 109 146 189 232 281 328
#     4  11  20  37  57  82 108 145 187 229 277 337
#
# _framework density 17.285872999999999
#
# number of rings (size 3 to 8) (size 9 to 14) (size 15 to 20)
#    0.000    2.091    0.909    2.727    0.000    2.545 
#    0.000    2.727    2.000    0.000    0.000    7.636 
#    0.000    0.000    0.000    0.000    0.000    0.000 
#
# Total GULP energy -245036.930815 kJ/mol
# GULP energy per Si atom -5569.021155 kJ/mol
# Density = 1.724653 g / cm^3
# Si number density = 17.285873 Si / 1000 Ang^3
#
#
#
# Elastic Constant Matrix: (Units=GPa)
#
#
# Indices 1 2 3 4 5 6 
#
# 1 94.9454 58.3730 44.7067 0.0000 0.0000 0.0000
# 2 58.3730 98.4553 71.6185 0.0000 0.0000 0.0000
# 3 44.7067 71.6185 121.7246 0.0000 0.0000 0.0000
# 4 0.0000 0.0000 0.0000 27.3502 0.0000 0.0000
# 5 0.0000 0.0000 0.0000 0.0000 16.9845 0.0000
# 6 0.0000 0.0000 0.0000 0.0000 0.0000 26.2381
#
#
#
# Elastic Compliance Matrix: (Units=1/GPa)
#
#
# Indices 1 2 3 4 5 6 
#
# 1 0.016594 -0.009449 -0.000535 0.000000 0.000000 0.000000
# 2 -0.009449 0.023137 -0.010143 0.000000 0.000000 0.000000
# 3 -0.000535 -0.010143 0.014379 0.000000 0.000000 0.000000
# 4 0.000000 0.000000 0.000000 0.036563 0.000000 0.000000
# 5 0.000000 0.000000 0.000000 0.000000 0.058877 0.000000
# 6 0.000000 0.000000 0.000000 0.000000 0.000000 0.038112
#
#
# Mechanical properties :
#
#
# Convention : Reuss Voigt Hill
#
# Bulk Modulus (GPa) = 72.16706 73.83576 73.00141
# Shear Modulus (GPa) = 21.50219 23.47638 22.48928
#
# Velocity S-wave (km/s) = 3.53075 3.68927 3.61088
# Velocity P-wave (km/s) = 7.64600 7.80736 7.72710
#
# Compressibility (1/GPa) = 0.01385674
#
# Stress axis : x y z
#
# Youngs Moduli (GPa) = 60.26430 43.22069 69.54422
#
# Poissons Ratio (x) = 0.40839 0.03721
# Poissons Ratio (y) = 0.56944 0.70536
# Poissons Ratio (z) = 0.03224 0.43837
#
# Static dielectric constant tensor:
#      x y z
#    x 1.584220 0.000000 0.000000 
#    y 0.000000 1.592290 0.000000 
#    z 0.000000 0.000000 1.571830 
# 
# From -- ./inp_files/22003.got.cif
#   From: 2010.05.17/outbox.cif.g08.bks.cpg/sg71_12_cif.got.tgz:22003.got - 2010.06.03 16:22:01.
