data_PCOD9521492
_publ_section_title
;
Structure prediction by ZEFSAII (Michael W. Deem and Ramdas Pophale) SiO2 
 PCOD9521492
Probable space group: I M M M
;
_chemical_formula_sum "Si O2"
_cell_formula_units_Z 64
_cell_length_a 8.522811
_cell_length_b 14.582707
_cell_length_c 29.169738
_cell_angle_alpha 90.000000
_cell_angle_beta 90.000000
_cell_angle_gamma 90.000000
_cell_volume 3625.380012
_symmetry_space_group_name_H-M "I M M M"
_symmetry_group_IT_number 71
_symmetry_cell_setting 'orthorhombic'
loop_
_space_group_symop_operation_xyz
x,y,z
-x,-y,z
x,-y,-z
-x,y,-z
-x,-y,-z
x,y,-z
-x,y,z
x,-y,z
1/2+x,1/2+y,1/2+z
1/2-x,1/2-y,1/2+z
1/2+x,1/2-y,1/2-z
1/2-x,1/2+y,1/2-z
1/2-x,1/2-y,1/2-z
1/2+x,1/2+y,1/2-z
1/2-x,1/2+y,1/2+z
1/2+x,1/2-y,1/2+z
loop_
_atom_site_type_symbol
_atom_site_label
_atom_site_fract_x
_atom_site_fract_y
_atom_site_fract_z
Si Si1 0.189500 0.244724 0.677098
Si Si2 0.189542 0.604678 0.750428
Si Si3 0.688463 0.893932 0.500000
Si Si4 0.811625 0.105941 0.000000
Si Si5 0.188608 0.250076 0.571742
O O1 0.239805 0.332883 0.707198
O O2 0.251284 0.156372 0.704279
O O3 0.241060 0.249353 0.624492
O O4 0.000000 0.242305 0.677463
O O5 0.244102 0.500000 0.747485
O O6 0.000000 0.604495 0.751025
O O7 0.500000 0.889769 0.500000
O O8 0.750836 0.838269 0.543937
O O9 0.737515 0.000000 0.500000
O O10 0.749689 0.161712 0.956034
O O11 0.000000 0.109723 0.000000
O O12 0.761694 0.000000 0.000000
O O13 0.000000 0.250517 0.570296
#
# Coordination Sequence:
#
# PCOD9521492 Si02
#       5
#    16  16   8   8  16
#     4   9  19  34  51  74 102 130 163 205 249 291
#     4   9  18  33  52  73  99 132 167 202 242 291
#     4  10  21  36  53  73 100 134 169 207 252 301
#     4  10  21  36  53  75 104 134 165 205 250 297
#     4  10  20  34  54  77 101 132 168 208 252 296
#
# _framework density 17.653320999999998
#
# number of rings (size 3 to 8) (size 9 to 14) (size 15 to 20)
#    0.000    2.500    0.000    3.000    0.000    6.500 
#    0.000    7.500    0.000    0.000    0.000    0.000 
#    0.000    0.000    0.000    0.000    0.000    0.000 
#
# Total GULP energy -178523.629230 kJ/mol
# GULP energy per Si atom -5578.863413 kJ/mol
# Density = 1.761314 g / cm^3
# Si number density = 17.653321 Si / 1000 Ang^3
#
#
#
# Elastic Constant Matrix: (Units=GPa)
#
#
# Indices 1 2 3 4 5 6 
#
# 1 26.8005 30.0994 28.4307 0.0000 0.0000 0.0000
# 2 30.0994 187.6776 96.3905 0.0000 0.0000 0.0000
# 3 28.4307 96.3905 187.7879 0.0000 0.0000 0.0000
# 4 0.0000 0.0000 0.0000 4.6658 0.0000 0.0000
# 5 0.0000 0.0000 0.0000 0.0000 -25.0760 0.0000
# 6 0.0000 0.0000 0.0000 0.0000 0.0000 3.5325
#
#
#
# Elastic Compliance Matrix: (Units=1/GPa)
#
#
# Indices 1 2 3 4 5 6 
#
# 1 0.048178 -0.005406 -0.004519 0.000000 0.000000 0.000000
# 2 -0.005406 0.007842 -0.003207 0.000000 0.000000 0.000000
# 3 -0.004519 -0.003207 0.007656 0.000000 0.000000 0.000000
# 4 0.000000 0.000000 0.000000 0.214327 0.000000 0.000000
# 5 0.000000 0.000000 0.000000 0.000000 -0.039879 0.000000
# 6 0.000000 0.000000 0.000000 0.000000 0.000000 0.283088
#
#
# Mechanical properties :
#
#
# Convention : Reuss Voigt Hill
#
# Bulk Modulus (GPa) = 26.72949 79.12302 52.92625
# Shear Modulus (GPa) = 8.92942 13.11414 11.02178
#
# Velocity S-wave (km/s) = 2.25149 2.72852 2.50140
# Velocity P-wave (km/s) = 4.68328 7.40569 6.19586
#
# Compressibility (1/GPa) = 0.03741187
#
# Stress axis : x y z
#
# Youngs Moduli (GPa) = 20.75637 127.51291 130.62436
#
# Poissons Ratio (x) = 0.68928 0.59034
# Poissons Ratio (y) = 0.11220 0.41892
# Poissons Ratio (z) = 0.09381 0.40894
#
# Static dielectric constant tensor:
#      x y z
#    x 1.603820 0.000000 0.000000 
#    y 0.000000 1.586530 0.000000 
#    z 0.000000 0.000000 1.585060 
# 
# From -- ./inp_files/31359.got.cif
#   From: 2010.05.17/outbox.cif.g08.bks.cpg/sg71_16_cif.got.tgz:31359.got - 2010.06.03 16:22:01.
