data_PCOD9521484
_publ_section_title
;
Structure prediction by ZEFSAII (Michael W. Deem and Ramdas Pophale) SiO2 
 PCOD9521484
Probable space group: I M M M
;
_chemical_formula_sum "Si O2"
_cell_formula_units_Z 104
_cell_length_a 17.489403
_cell_length_b 22.427580
_cell_length_c 14.306683
_cell_angle_alpha 90.000000
_cell_angle_beta 90.000000
_cell_angle_gamma 90.000000
_cell_volume 5611.724658
_symmetry_space_group_name_H-M "I M M M"
_symmetry_group_IT_number 71
_symmetry_cell_setting 'orthorhombic'
loop_
_space_group_symop_operation_xyz
x,y,z
-x,-y,z
x,-y,-z
-x,y,-z
-x,-y,-z
x,y,-z
-x,y,z
x,-y,z
1/2+x,1/2+y,1/2+z
1/2-x,1/2-y,1/2+z
1/2+x,1/2-y,1/2-z
1/2-x,1/2+y,1/2-z
1/2-x,1/2-y,1/2-z
1/2+x,1/2+y,1/2-z
1/2-x,1/2+y,1/2+z
1/2+x,1/2-y,1/2+z
loop_
_atom_site_type_symbol
_atom_site_label
_atom_site_fract_x
_atom_site_fract_y
_atom_site_fract_z
Si Si1 0.912667 0.215764 0.205402
Si Si2 0.179910 0.886702 0.111128
Si Si3 0.166806 0.675719 0.888470
Si Si4 0.413164 0.500000 0.614066
Si Si5 0.664291 0.270266 0.892465
Si Si6 0.412196 0.070933 0.710316
Si Si7 0.352285 0.126829 0.892909
O O1 0.852026 0.172392 0.157237
O O2 0.890972 0.280994 0.167060
O O3 0.897021 0.210893 0.315585
O O4 0.000000 0.201054 0.181793
O O5 0.129739 0.941311 0.145753
O O6 0.268477 0.899953 0.126082
O O7 0.170138 0.879502 0.000000
O O8 0.252858 0.700532 0.869260
O O9 0.146715 0.609674 0.851944
O O10 0.155494 0.680299 0.000000
O O11 0.500000 0.500000 0.644021
O O12 0.411096 0.500000 0.500000
O O13 0.663224 0.198029 0.886403
O O14 0.646895 0.285804 0.000000
O O15 0.500000 0.078499 0.676741
O O16 0.405896 0.099620 0.814054
O O17 0.395886 0.000000 0.712388
O O18 0.376007 0.114434 0.000000
#
# Coordination Sequence:
#
# PCOD9521484 Si02
#       7
#    16  16  16   8  16  16  16
#     4  12  22  33  56  87 115 143 180 229 284 344
#     4  10  20  34  53  81 114 148 184 222 272 340
#     4  11  22  39  61  83 111 149 191 237 288 339
#     4   9  18  32  48  72 112 148 172 211 268 330
#     4  10  21  39  61  83 111 145 183 232 286 339
#     4  11  25  41  56  81 117 155 198 245 289 337
#     4  10  20  37  60  82 109 148 190 233 283 337
#
# _framework density 18.532627000000002
#
# number of rings (size 3 to 8) (size 9 to 14) (size 15 to 20)
#    0.000    1.462    3.077    2.769    1.077    4.000 
#    0.000    3.077    0.000    0.000    0.000    0.000 
#    0.000    1.846    0.000    0.000    0.000    0.000 
#
# Total GULP energy -290191.305578 kJ/mol
# GULP energy per Si atom -5580.602030 kJ/mol
# Density = 1.849045 g / cm^3
# Si number density = 18.532627 Si / 1000 Ang^3
#
#
#
# Elastic Constant Matrix: (Units=GPa)
#
#
# Indices 1 2 3 4 5 6 
#
# 1 20.1053 11.6780 27.1511 0.0000 0.0000 0.0000
# 2 11.6780 83.1197 11.0343 0.0000 0.0000 0.0000
# 3 27.1511 11.0343 57.5139 0.0000 0.0000 0.0000
# 4 0.0000 0.0000 0.0000 -35.7647 0.0000 0.0000
# 5 0.0000 0.0000 0.0000 0.0000 20.1531 0.0000
# 6 0.0000 0.0000 0.0000 0.0000 0.0000 36.6380
#
#
#
# Elastic Compliance Matrix: (Units=1/GPa)
#
#
# Indices 1 2 3 4 5 6 
#
# 1 0.147684 -0.011794 -0.067456 0.000000 0.000000 0.000000
# 2 -0.011794 0.013287 0.003019 0.000000 0.000000 0.000000
# 3 -0.067456 0.003019 0.048652 0.000000 0.000000 0.000000
# 4 0.000000 0.000000 0.000000 -0.027961 0.000000 0.000000
# 5 0.000000 0.000000 0.000000 0.000000 0.049620 0.000000
# 6 0.000000 0.000000 0.000000 0.000000 0.000000 0.027294
#
#
# Mechanical properties :
#
#
# Convention : Reuss Voigt Hill
#
# Bulk Modulus (GPa) = 17.49445 28.94063 23.21754
# Shear Modulus (GPa) = 11.62540 11.59700 11.61120
#
# Velocity S-wave (km/s) = 2.50730 2.50424 2.50577
# Velocity P-wave (km/s) = 4.22402 4.90016 4.57460
#
# Compressibility (1/GPa) = 0.05716097
#
# Stress axis : x y z
#
# Youngs Moduli (GPa) = 6.77122 75.26072 20.55401
#
# Poissons Ratio (x) = 0.88763 1.38648
# Poissons Ratio (y) = 0.07986 -0.06204
# Poissons Ratio (z) = 0.45676 -0.22718
#
# Static dielectric constant tensor:
#      x y z
#    x 1.651890 0.000000 0.000000 
#    y 0.000000 1.708360 0.000000 
#    z 0.000000 0.000000 1.646590 
# 
# From -- ./inp_files/36722.got.cif
#   From: 2010.05.17/outbox.cif.g08.bks.cpg/sg71_19_cif.got.tgz:36722.got - 2010.06.03 16:22:01.
