data_PCOD9521993
_publ_section_title
;
Structure prediction by ZEFSAII (Michael W. Deem and Ramdas Pophale) SiO2 
 PCOD9521993
Probable space group: I M M M
;
_chemical_formula_sum "Si O2"
_cell_formula_units_Z 96
_cell_length_a 29.351499
_cell_length_b 8.964177
_cell_length_c 20.416652
_cell_angle_alpha 90.000000
_cell_angle_beta 90.000000
_cell_angle_gamma 90.000000
_cell_volume 5371.866799
_symmetry_space_group_name_H-M "I M M M"
_symmetry_group_IT_number 71
_symmetry_cell_setting 'orthorhombic'
loop_
_space_group_symop_operation_xyz
x,y,z
-x,-y,z
x,-y,-z
-x,y,-z
-x,-y,-z
x,y,-z
-x,y,z
x,-y,z
1/2+x,1/2+y,1/2+z
1/2-x,1/2-y,1/2+z
1/2+x,1/2-y,1/2-z
1/2-x,1/2+y,1/2-z
1/2-x,1/2-y,1/2-z
1/2+x,1/2+y,1/2-z
1/2-x,1/2+y,1/2+z
1/2+x,1/2-y,1/2+z
loop_
_atom_site_type_symbol
_atom_site_label
_atom_site_fract_x
_atom_site_fract_y
_atom_site_fract_z
Si Si1 0.554426 0.832463 0.926500
Si Si2 0.369870 0.820224 0.423682
Si Si3 0.691567 0.177682 0.803453
Si Si4 0.446819 0.820044 0.681380
Si Si5 0.402719 0.325645 0.810549
Si Si6 0.790933 0.821644 0.161266
O O1 0.500000 0.838968 0.929707
O O2 0.567108 0.711613 0.873271
O O3 0.570207 0.000000 0.906687
O O4 0.571572 0.802098 0.000000
O O5 0.375354 0.780239 0.500000
O O6 0.414032 0.779791 0.379654
O O7 0.325214 0.745186 0.391988
O O8 0.364867 0.000000 0.419545
O O9 0.645773 0.252993 0.827567
O O10 0.736807 0.207375 0.846350
O O11 0.698084 0.245855 0.730944
O O12 0.686344 0.000000 0.797881
O O13 0.500000 0.775994 0.673661
O O14 0.424909 0.750390 0.746613
O O15 0.445808 0.000000 0.687639
O O16 0.397882 0.500000 0.798115
O O17 0.797329 0.000000 0.165781
#
# Coordination Sequence:
#
# PCOD9521993 Si02
#       6
#    16  16  16  16  16  16
#     4   9  19  37  59  80 106 146 191 229 274 338
#     4  10  21  37  58  83 114 155 197 238 287 342
#     4  10  20  35  57  82 111 144 182 226 274 334
#     4  10  21  37  57  81 112 152 197 242 287 339
#     4  12  23  34  54  86 118 149 186 232 286 336
#     4  10  20  35  57  85 110 140 181 228 282 335
#
# _framework density 17.870882000000002
#
# number of rings (size 3 to 8) (size 9 to 14) (size 15 to 20)
#    0.000    1.833    1.667    3.500    0.000    5.667 
#    0.000    3.333    0.000    1.000    0.000    2.333 
#    0.000    0.000    0.000    0.000    0.000    0.000 
#
# Total GULP energy -267772.060389 kJ/mol
# GULP energy per Si atom -5578.584591 kJ/mol
# Density = 1.783021 g / cm^3
# Si number density = 17.870882 Si / 1000 Ang^3
#
#
#
# Elastic Constant Matrix: (Units=GPa)
#
#
# Indices 1 2 3 4 5 6 
#
# 1 124.5105 50.8873 54.5731 0.0000 0.0000 0.0000
# 2 50.8873 47.9556 34.3942 0.0000 0.0000 0.0000
# 3 54.5731 34.3942 84.1631 0.0000 0.0000 0.0000
# 4 0.0000 0.0000 0.0000 12.5688 0.0000 0.0000
# 5 0.0000 0.0000 0.0000 0.0000 23.5797 0.0000
# 6 0.0000 0.0000 0.0000 0.0000 0.0000 27.6791
#
#
#
# Elastic Compliance Matrix: (Units=1/GPa)
#
#
# Indices 1 2 3 4 5 6 
#
# 1 0.015380 -0.012969 -0.004673 0.000000 0.000000 0.000000
# 2 -0.012969 0.040434 -0.008115 0.000000 0.000000 0.000000
# 3 -0.004673 -0.008115 0.018228 0.000000 0.000000 0.000000
# 4 0.000000 0.000000 0.000000 0.079562 0.000000 0.000000
# 5 0.000000 0.000000 0.000000 0.000000 0.042409 0.000000
# 6 0.000000 0.000000 0.000000 0.000000 0.000000 0.036128
#
#
# Mechanical properties :
#
#
# Convention : Reuss Voigt Hill
#
# Bulk Modulus (GPa) = 44.38652 59.59314 51.98983
# Shear Modulus (GPa) = 17.17248 20.55048 18.86148
#
# Velocity S-wave (km/s) = 3.10323 3.39476 3.25226
# Velocity P-wave (km/s) = 6.14258 6.98461 6.57708
#
# Compressibility (1/GPa) = 0.02252936
#
# Stress axis : x y z
#
# Youngs Moduli (GPa) = 65.02021 24.73166 54.86126
#
# Poissons Ratio (x) = 0.32074 0.25636
# Poissons Ratio (y) = 0.84323 0.44518
# Poissons Ratio (z) = 0.30383 0.20069
#
# Static dielectric constant tensor:
#      x y z
#    x 1.643440 0.000000 0.000000 
#    y 0.000000 1.611210 0.000000 
#    z 0.000000 0.000000 1.593670 
# 
# From -- ./inp_files/14872.got.cif
#   From: 2010.05.17/outbox.cif.g08.bks.cpg/sg71_8_cif.got.tgz:14872.got - 2010.06.03 16:22:01.
