data_PCOD9521875
_publ_section_title
;
Structure prediction by ZEFSAII (Michael W. Deem and Ramdas Pophale) SiO2 
 PCOD9521875
Probable space group: I M M M
;
_chemical_formula_sum "Si O2"
_cell_formula_units_Z 56
_cell_length_a 25.809277
_cell_length_b 14.878352
_cell_length_c 8.661792
_cell_angle_alpha 90.000000
_cell_angle_beta 90.000000
_cell_angle_gamma 90.000000
_cell_volume 3326.123867
_symmetry_space_group_name_H-M "I M M M"
_symmetry_group_IT_number 71
_symmetry_cell_setting 'orthorhombic'
loop_
_space_group_symop_operation_xyz
x,y,z
-x,-y,z
x,-y,-z
-x,y,-z
-x,-y,-z
x,y,-z
-x,y,z
x,-y,z
1/2+x,1/2+y,1/2+z
1/2-x,1/2-y,1/2+z
1/2+x,1/2-y,1/2-z
1/2-x,1/2+y,1/2-z
1/2-x,1/2-y,1/2-z
1/2+x,1/2+y,1/2-z
1/2-x,1/2+y,1/2+z
1/2+x,1/2-y,1/2+z
loop_
_atom_site_type_symbol
_atom_site_label
_atom_site_fract_x
_atom_site_fract_y
_atom_site_fract_z
Si Si1 0.000000 0.604902 0.813313
Si Si2 0.714987 0.500000 0.179886
Si Si3 0.887123 0.335914 0.814284
Si Si4 0.674431 0.000000 0.821466
Si Si5 0.799598 0.805273 0.816515
O O1 0.052448 0.657429 0.771055
O O2 0.000000 0.500000 0.758583
O O3 0.000000 0.599530 0.000000
O O4 0.776434 0.500000 0.210296
O O5 0.696963 0.593764 0.253403
O O6 0.703146 0.500000 0.000000
O O7 0.859159 0.413831 0.719652
O O8 0.853078 0.247556 0.784085
O O9 0.883391 0.353876 0.000000
O O10 0.691056 0.000000 0.000000
O O11 0.750000 0.750000 0.750000
O O12 0.792110 0.808362 0.000000
#
# Coordination Sequence:
#
# PCOD9521875 Si02
#       5
#     8   8  16   8  16
#     4   9  16  30  56  83 108 143 183 220 262 322
#     4  12  24  38  55  76 109 148 188 229 276 325
#     4  10  20  35  55  79 111 147 183 220 267 324
#     4  12  22  31  51  80 114 145 180 223 269 327
#     4  11  22  35  55  82 112 145 183 224 273 329
#
# _framework density 16.836414999999999
#
# number of rings (size 3 to 8) (size 9 to 14) (size 15 to 20)
#    0.000    1.286    4.286    3.429    0.000    1.143 
#    0.000    1.429    0.000    0.857    0.000    6.000 
#    0.000    0.000    0.000    0.000    0.000    0.000 
#
# Total GULP energy -156221.389156 kJ/mol
# GULP energy per Si atom -5579.335327 kJ/mol
# Density = 1.679809 g / cm^3
# Si number density = 16.836415 Si / 1000 Ang^3
#
#
#
# Elastic Constant Matrix: (Units=GPa)
#
#
# Indices 1 2 3 4 5 6 
#
# 1 124.1843 73.0845 31.5398 0.0000 0.0000 0.0000
# 2 73.0845 155.3445 56.6168 0.0000 0.0000 0.0000
# 3 31.5398 56.6168 49.2475 0.0000 0.0000 0.0000
# 4 0.0000 0.0000 0.0000 24.1059 0.0000 0.0000
# 5 0.0000 0.0000 0.0000 0.0000 18.2227 0.0000
# 6 0.0000 0.0000 0.0000 0.0000 0.0000 28.8128
#
#
#
# Elastic Compliance Matrix: (Units=1/GPa)
#
#
# Indices 1 2 3 4 5 6 
#
# 1 0.011241 -0.004586 -0.001926 0.000000 0.000000 0.000000
# 2 -0.004586 0.012951 -0.011952 0.000000 0.000000 0.000000
# 3 -0.001926 -0.011952 0.035279 0.000000 0.000000 0.000000
# 4 0.000000 0.000000 0.000000 0.041484 0.000000 0.000000
# 5 0.000000 0.000000 0.000000 0.000000 0.054877 0.000000
# 6 0.000000 0.000000 0.000000 0.000000 0.000000 0.034707
#
#
# Mechanical properties :
#
#
# Convention : Reuss Voigt Hill
#
# Bulk Modulus (GPa) = 44.36077 72.36205 58.36141
# Shear Modulus (GPa) = 21.27830 25.39730 23.33780
#
# Velocity S-wave (km/s) = 3.55889 3.88812 3.72714
# Velocity P-wave (km/s) = 6.57973 7.95169 7.29803
#
# Compressibility (1/GPa) = 0.02254244
#
# Stress axis : x y z
#
# Youngs Moduli (GPa) = 88.96012 77.21453 28.34524
#
# Poissons Ratio (x) = 0.35414 0.05460
# Poissons Ratio (y) = 0.40801 0.33877
# Poissons Ratio (z) = 0.17137 0.92283
#
# Static dielectric constant tensor:
#      x y z
#    x 1.575080 0.000000 0.000000 
#    y 0.000000 1.585250 0.000000 
#    z 0.000000 0.000000 1.570780 
# 
# From -- ./inp_files/3343.got.cif
#   From: 2010.05.17/outbox.cif.g08.bks.cpg/sg71_2_cif.got.tgz:3343.got - 2010.06.03 16:22:01.
