data_PCOD9521251
_publ_section_title
;
Structure prediction by ZEFSAII (Michael W. Deem and Ramdas Pophale) SiO2 
 PCOD9521251
Probable space group: I M M M
;
_chemical_formula_sum "Si O2"
_cell_formula_units_Z 72
_cell_length_a 14.361359
_cell_length_b 26.185796
_cell_length_c 10.697230
_cell_angle_alpha 90.000000
_cell_angle_beta 90.000000
_cell_angle_gamma 90.000000
_cell_volume 4022.839006
_symmetry_space_group_name_H-M "I M M M"
_symmetry_group_IT_number 71
_symmetry_cell_setting 'orthorhombic'
loop_
_space_group_symop_operation_xyz
x,y,z
-x,-y,z
x,-y,-z
-x,y,-z
-x,-y,-z
x,y,-z
-x,y,z
x,-y,z
1/2+x,1/2+y,1/2+z
1/2-x,1/2-y,1/2+z
1/2+x,1/2-y,1/2-z
1/2-x,1/2+y,1/2-z
1/2-x,1/2-y,1/2-z
1/2+x,1/2+y,1/2-z
1/2-x,1/2+y,1/2+z
1/2+x,1/2-y,1/2+z
loop_
_atom_site_type_symbol
_atom_site_label
_atom_site_fract_x
_atom_site_fract_y
_atom_site_fract_z
Si Si1 0.802715 0.610252 0.143914
Si Si2 0.500000 0.376986 0.351263
Si Si3 0.292605 0.280206 0.865586
Si Si4 0.000000 0.770205 0.711936
Si Si5 0.684919 0.439701 0.353651
Si Si6 0.000000 0.662151 0.147359
O O1 0.739181 0.661277 0.144928
O O2 0.763939 0.574309 0.252988
O O3 0.907023 0.629730 0.172314
O O4 0.800197 0.590055 0.000000
O O5 0.500000 0.375099 0.500000
O O6 0.500000 0.319703 0.300921
O O7 0.592836 0.408027 0.315866
O O8 0.250000 0.250000 0.750000
O O9 0.403374 0.274513 0.861367
O O10 0.256567 0.260811 0.000000
O O11 0.000000 0.715626 0.780555
O O12 0.708066 0.427165 0.500000
O O13 0.665082 0.500000 0.349482
O O14 0.000000 0.674218 0.000000
#
# Coordination Sequence:
#
# PCOD9521251 Si02
#       6
#    16   8  16   8  16   8
#     4  10  21  39  59  82 114 151 193 237 283 339
#     4  10  20  33  57  89 118 155 190 226 280 350
#     4  11  23  37  56  83 118 158 195 235 280 336
#     4  12  20  35  56  88 123 155 185 234 280 344
#     4  10  21  39  61  86 115 147 190 243 293 341
#     4  10  21  37  57  85 117 153 192 233 277 336
#
# _framework density 17.897805999999999
#
# number of rings (size 3 to 8) (size 9 to 14) (size 15 to 20)
#    0.000    1.556    4.444    1.000    0.000    3.556 
#    0.000    1.667    0.000    4.667    0.000    0.000 
#    0.000    0.000    0.000    0.000    0.000    0.000 
#
# Total GULP energy -200809.913951 kJ/mol
# GULP energy per Si atom -5578.053165 kJ/mol
# Density = 1.785707 g / cm^3
# Si number density = 17.897806 Si / 1000 Ang^3
#
#
#
# Elastic Constant Matrix: (Units=GPa)
#
#
# Indices 1 2 3 4 5 6 
#
# 1 105.2746 23.0320 52.9982 0.0000 0.0000 -0.0001
# 2 23.0320 39.1677 29.6713 0.0000 0.0000 0.0000
# 3 52.9982 29.6713 76.6604 0.0002 0.0001 0.0001
# 4 0.0000 0.0000 0.0002 29.7526 0.0000 0.0000
# 5 0.0000 0.0000 0.0001 0.0000 9.8602 0.0001
# 6 -0.0001 0.0000 0.0001 0.0000 0.0001 16.4181
#
#
#
# Elastic Compliance Matrix: (Units=1/GPa)
#
#
# Indices 1 2 3 4 5 6 
#
# 1 0.014619 -0.001330 -0.009592 0.000000 0.000000 0.000000
# 2 -0.001330 0.036244 -0.013108 0.000000 0.000000 0.000000
# 3 -0.009592 -0.013108 0.024749 0.000000 0.000000 0.000000
# 4 0.000000 0.000000 0.000000 0.033611 0.000000 0.000000
# 5 0.000000 0.000000 0.000000 0.000000 0.101418 0.000000
# 6 0.000000 0.000000 0.000000 0.000000 0.000000 0.060908
#
#
# Mechanical properties :
#
#
# Convention : Reuss Voigt Hill
#
# Bulk Modulus (GPa) = 36.29626 48.05618 42.17622
# Shear Modulus (GPa) = 15.20717 18.89960 17.05339
#
# Velocity S-wave (km/s) = 2.91807 3.25310 3.09013
# Velocity P-wave (km/s) = 5.62825 6.40459 6.02893
#
# Compressibility (1/GPa) = 0.02755105
#
# Stress axis : x y z
#
# Youngs Moduli (GPa) = 68.40581 27.59100 40.40547
#
# Poissons Ratio (x) = 0.03670 0.38755
# Poissons Ratio (y) = 0.09100 0.52965
# Poissons Ratio (z) = 0.65612 0.36167
#
# Static dielectric constant tensor:
#      x y z
#    x 1.627590 0.000000 0.000000 
#    y 0.000000 1.578620 0.000000 
#    z 0.000000 0.000000 1.626810 
# 
# From -- ./inp_files/6190.got.cif
#   From: 2010.05.17/outbox.cif.g08.bks.cpg/sg71_4_cif.got.tgz:6190.got - 2010.06.03 16:22:01.
