data_PCOD9521173
_publ_section_title
;
Structure prediction by ZEFSAII (Michael W. Deem and Ramdas Pophale) SiO2 
 PCOD9521173
Probable space group: I M M M
;
_chemical_formula_sum "Si O2"
_cell_formula_units_Z 80
_cell_length_a 7.514091
_cell_length_b 16.259139
_cell_length_c 29.775938
_cell_angle_alpha 90.000000
_cell_angle_beta 90.000000
_cell_angle_gamma 90.000000
_cell_volume 3637.805253
_symmetry_space_group_name_H-M "I M M M"
_symmetry_group_IT_number 71
_symmetry_cell_setting 'orthorhombic'
loop_
_space_group_symop_operation_xyz
x,y,z
-x,-y,z
x,-y,-z
-x,y,-z
-x,-y,-z
x,y,-z
-x,y,z
x,-y,z
1/2+x,1/2+y,1/2+z
1/2-x,1/2-y,1/2+z
1/2+x,1/2-y,1/2-z
1/2-x,1/2+y,1/2-z
1/2-x,1/2-y,1/2-z
1/2+x,1/2+y,1/2-z
1/2-x,1/2+y,1/2+z
1/2+x,1/2-y,1/2+z
loop_
_atom_site_type_symbol
_atom_site_label
_atom_site_fract_x
_atom_site_fract_y
_atom_site_fract_z
Si Si1 0.709242 0.909603 0.644853
Si Si2 0.286623 0.750891 0.302631
Si Si3 0.286514 0.663538 0.049751
Si Si4 0.209982 0.857150 0.049113
Si Si5 0.218014 0.089678 0.145418
O O1 0.500000 0.913544 0.655818
O O2 0.784382 0.832814 0.672902
O O3 0.723393 0.888116 0.592145
O O4 0.786355 0.000000 0.653795
O O5 0.500000 0.750977 0.309096
O O6 0.250000 0.750000 0.250000
O O7 0.220006 0.667507 0.325992
O O8 0.500000 0.661896 0.050172
O O9 0.228941 0.758648 0.055027
O O10 0.226411 0.635991 0.000000
O O11 0.279520 0.899115 0.093975
O O12 0.000000 0.876105 0.047477
O O13 0.285771 0.878425 0.000000
O O14 0.000000 0.091691 0.145077
O O15 0.271162 0.000000 0.162722
#
# Coordination Sequence:
#
# PCOD9521173 Si02
#       5
#    16  16  16  16  16
#     4  10  21  38  59  81 107 142 184 225 265 316
#     4  10  21  38  57  79 106 138 176 222 272 321
#     4  10  20  33  52  80 114 148 181 220 267 317
#     4   9  16  29  52  79 108 143 180 215 256 312
#     4   9  17  31  53  81 110 137 170 215 264 314
#
# _framework density 21.991282000000002
#
# number of rings (size 3 to 8) (size 9 to 14) (size 15 to 20)
#    0.000    2.400    2.000    0.600    0.000    4.000 
#    0.000    4.000    0.000    1.800    0.000    2.800 
#    0.000    0.000    0.000    0.000    0.000    0.000 
#
# Total GULP energy -223359.514005 kJ/mol
# GULP energy per Si atom -5583.987850 kJ/mol
# Density = 2.194123 g / cm^3
# Si number density = 21.991282 Si / 1000 Ang^3
#
#
#
# Elastic Constant Matrix: (Units=GPa)
#
#
# Indices 1 2 3 4 5 6 
#
# 1 59.3856 3.8227 -3.3821 0.0000 0.0000 0.0000
# 2 3.8227 189.3377 111.5735 0.0000 0.0000 0.0000
# 3 -3.3821 111.5735 144.7938 0.0000 0.0000 0.0000
# 4 0.0000 0.0000 0.0000 -1.9626 0.0000 0.0000
# 5 0.0000 0.0000 0.0000 0.0000 20.1013 0.0000
# 6 0.0000 0.0000 0.0000 0.0000 0.0000 -21.2306
#
#
#
# Elastic Compliance Matrix: (Units=1/GPa)
#
#
# Indices 1 2 3 4 5 6 
#
# 1 0.016976 -0.001056 0.001210 0.000000 0.000000 0.000000
# 2 -0.001056 0.009740 -0.007530 0.000000 0.000000 0.000000
# 3 0.001210 -0.007530 0.012737 0.000000 0.000000 0.000000
# 4 0.000000 0.000000 0.000000 -0.509539 0.000000 0.000000
# 5 0.000000 0.000000 0.000000 0.000000 0.049748 0.000000
# 6 0.000000 0.000000 0.000000 0.000000 0.000000 -0.047102
#
#
# Mechanical properties :
#
#
# Convention : Reuss Voigt Hill
#
# Bulk Modulus (GPa) = 40.48324 68.61617 54.54970
# Shear Modulus (GPa) = -11.24979 18.14848 3.44935
#
# Velocity S-wave (km/s) = -2.26422 2.87585 1.25376
# Velocity P-wave (km/s) = 3.40781 6.50358 5.19181
#
# Compressibility (1/GPa) = 0.02470158
#
# Stress axis : x y z
#
# Youngs Moduli (GPa) = 58.90672 102.66572 78.51002
#
# Poissons Ratio (x) = 0.10840 -0.09501
# Poissons Ratio (y) = 0.06220 0.59120
# Poissons Ratio (z) = -0.07128 0.77310
#
# Static dielectric constant tensor:
#      x y z
#    x 1.865900 0.000000 0.000000 
#    y 0.000000 1.805050 0.000000 
#    z 0.000000 0.000000 1.769530 
# 
# From -- ./inp_files/8368.got.cif
#   From: 2010.05.17/outbox.cif.g08.bks.cpg/sg71_5_cif.got.tgz:8368.got - 2010.06.03 16:22:01.
