data_PCOD9521692
_publ_section_title
;
Structure prediction by ZEFSAII (Michael W. Deem and Ramdas Pophale) SiO2 
 PCOD9521692
Probable space group: I M M M
;
_chemical_formula_sum "Si O2"
_cell_formula_units_Z 104
_cell_length_a 28.215358
_cell_length_b 9.161201
_cell_length_c 22.282855
_cell_angle_alpha 90.000000
_cell_angle_beta 90.000000
_cell_angle_gamma 90.000000
_cell_volume 5759.818668
_symmetry_space_group_name_H-M "I M M M"
_symmetry_group_IT_number 71
_symmetry_cell_setting 'orthorhombic'
loop_
_space_group_symop_operation_xyz
x,y,z
-x,-y,z
x,-y,-z
-x,y,-z
-x,-y,-z
x,y,-z
-x,y,z
x,-y,z
1/2+x,1/2+y,1/2+z
1/2-x,1/2-y,1/2+z
1/2+x,1/2-y,1/2-z
1/2-x,1/2+y,1/2-z
1/2-x,1/2-y,1/2-z
1/2+x,1/2+y,1/2-z
1/2-x,1/2+y,1/2+z
1/2+x,1/2-y,1/2+z
loop_
_atom_site_type_symbol
_atom_site_label
_atom_site_fract_x
_atom_site_fract_y
_atom_site_fract_z
Si Si1 0.446458 0.322572 0.370357
Si Si2 0.410545 0.326544 0.760806
Si Si3 0.653120 0.675601 0.570804
Si Si4 0.312736 0.166518 0.786638
Si Si5 0.554130 0.178346 0.000000
Si Si6 0.555770 0.164105 0.127063
Si Si7 0.268170 0.167259 0.653396
O O1 0.500000 0.272768 0.386795
O O2 0.447796 0.500000 0.372366
O O3 0.433927 0.278232 0.302003
O O4 0.400560 0.279662 0.409742
O O5 0.407297 0.500000 0.758379
O O6 0.359356 0.258194 0.772515
O O7 0.438992 0.271266 0.817921
O O8 0.659878 0.703335 0.500000
O O9 0.656807 0.500000 0.580941
O O10 0.692627 0.755548 0.611350
O O11 0.287334 0.161740 0.721758
O O12 0.280013 0.241372 0.837168
O O13 0.322975 0.000000 0.803836
O O14 0.577178 0.217537 0.063694
O O15 0.500000 0.236188 0.000000
O O16 0.552278 0.000000 0.000000
O O17 0.500000 0.149887 0.115417
O O18 0.573260 0.000000 0.141464
O O19 0.260079 0.000000 0.633778
#
# Coordination Sequence:
#
# PCOD9521692 Si02
#       7
#    16  16  16  16   8  16  16
#     4   9  18  32  50  76 112 150 189 235 279 320
#     4  11  20  31  50  77 112 146 178 221 278 332
#     4  10  20  35  57  82 110 149 195 236 277 332
#     4  10  20  34  56  82 107 135 172 215 267 332
#     4   7  12  26  47  67  89 125 171 213 251 299
#     4   9  17  30  49  72  99 134 177 220 263 317
#     4  10  20  35  57  83 109 135 169 218 276 328
#
# _framework density 18.056122999999999
#
# number of rings (size 3 to 8) (size 9 to 14) (size 15 to 20)
#    0.000    2.385    1.538    2.769    0.000    2.769 
#    0.000    1.923    1.692    2.769    0.000    1.077 
#    0.000    0.000    0.000    0.000    0.000    0.000 
#
# Total GULP energy -289473.944005 kJ/mol
# GULP energy per Si atom -5566.806615 kJ/mol
# Density = 1.801503 g / cm^3
# Si number density = 18.056123 Si / 1000 Ang^3
#
#
#
# Elastic Constant Matrix: (Units=GPa)
#
#
# Indices 1 2 3 4 5 6 
#
# 1 49.6586 21.8433 18.6266 0.0000 0.0000 0.0000
# 2 21.8433 63.8391 32.2111 0.0000 0.0000 0.0000
# 3 18.6266 32.2111 73.3023 0.0000 0.0000 0.0000
# 4 0.0000 0.0000 0.0000 22.7276 0.0000 0.0000
# 5 0.0000 0.0000 0.0000 0.0000 21.1368 0.0000
# 6 0.0000 0.0000 0.0000 0.0000 0.0000 25.7248
#
#
#
# Elastic Compliance Matrix: (Units=1/GPa)
#
#
# Indices 1 2 3 4 5 6 
#
# 1 0.024289 -0.006677 -0.003238 0.000000 0.000000 0.000000
# 2 -0.006677 0.021962 -0.007954 0.000000 0.000000 0.000000
# 3 -0.003238 -0.007954 0.017960 0.000000 0.000000 0.000000
# 4 0.000000 0.000000 0.000000 0.043999 0.000000 0.000000
# 5 0.000000 0.000000 0.000000 0.000000 0.047311 0.000000
# 6 0.000000 0.000000 0.000000 0.000000 0.000000 0.038873
#
#
# Mechanical properties :
#
#
# Convention : Reuss Voigt Hill
#
# Bulk Modulus (GPa) = 35.12060 36.90689 36.01375
# Shear Modulus (GPa) = 20.86599 21.52578 21.19589
#
# Velocity S-wave (km/s) = 3.40313 3.45651 3.42992
# Velocity P-wave (km/s) = 5.91056 6.03444 5.97282
#
# Compressibility (1/GPa) = 0.02847332
#
# Stress axis : x y z
#
# Youngs Moduli (GPa) = 41.17085 45.53226 55.67855
#
# Poissons Ratio (x) = 0.30402 0.18028
# Poissons Ratio (y) = 0.27490 0.44288
# Poissons Ratio (z) = 0.13331 0.36218
#
# Static dielectric constant tensor:
#      x y z
#    x 1.702060 0.000000 0.000000 
#    y 0.000000 1.617820 0.000000 
#    z 0.000000 0.000000 1.650670 
# 
# From -- ./inp_files/56649.got.cif
#   From: 2010.05.17/outbox.cif.g08.bks.cpg/sg71_29_cif.got.tgz:56649.got - 2010.06.03 16:22:01.
