data_PCOD9521184
_publ_section_title
;
Structure prediction by ZEFSAII (Michael W. Deem and Ramdas Pophale) SiO2 
 PCOD9521184
Probable space group: I M M M
;
_chemical_formula_sum "Si O2"
_cell_formula_units_Z 96
_cell_length_a 29.388224
_cell_length_b 13.798613
_cell_length_c 13.934019
_cell_angle_alpha 90.000000
_cell_angle_beta 90.000000
_cell_angle_gamma 90.000000
_cell_volume 5650.477817
_symmetry_space_group_name_H-M "I M M M"
_symmetry_group_IT_number 71
_symmetry_cell_setting 'orthorhombic'
loop_
_space_group_symop_operation_xyz
x,y,z
-x,-y,z
x,-y,-z
-x,y,-z
-x,-y,-z
x,y,-z
-x,y,z
x,-y,z
1/2+x,1/2+y,1/2+z
1/2-x,1/2-y,1/2+z
1/2+x,1/2-y,1/2-z
1/2-x,1/2+y,1/2-z
1/2-x,1/2-y,1/2-z
1/2+x,1/2+y,1/2-z
1/2-x,1/2+y,1/2+z
1/2+x,1/2-y,1/2+z
loop_
_atom_site_type_symbol
_atom_site_label
_atom_site_fract_x
_atom_site_fract_y
_atom_site_fract_z
Si Si1 0.791490 0.173700 0.249662
Si Si2 0.335692 0.000000 0.613930
Si Si3 0.950312 0.205739 0.115038
Si Si4 0.624011 0.183113 0.272147
Si Si5 0.308950 0.500000 0.614198
Si Si6 0.052480 0.383020 0.387779
Si Si7 0.415914 0.500000 0.383657
Si Si8 0.273859 0.500000 0.890322
O O1 0.750000 0.250000 0.250000
O O2 0.837216 0.237562 0.249527
O O3 0.789186 0.098929 0.159494
O O4 0.789866 0.097590 0.337192
O O5 0.353203 0.908064 0.674506
O O6 0.281014 0.000000 0.614368
O O7 0.349699 0.000000 0.500000
O O8 0.910734 0.272406 0.151799
O O9 0.000000 0.238557 0.146940
O O10 0.940237 0.096998 0.150076
O O11 0.949898 0.203659 0.000000
O O12 0.592291 0.156703 0.180853
O O13 0.304355 0.500000 0.500000
O O14 0.362644 0.500000 0.640628
O O15 0.059856 0.357540 0.500000
O O16 0.053822 0.500000 0.380744
O O17 0.000000 0.353977 0.362907
O O18 0.418251 0.500000 0.500000
O O19 0.288499 0.500000 0.000000
#
# Coordination Sequence:
#
# PCOD9521184 Si02
#       8
#    16   8  16  16   8  16   8   8
#     4  11  23  38  60  86 115 147 194 239 280 343
#     4  11  23  37  57  82 113 153 189 228 285 355
#     4  10  20  33  52  83 119 152 187 227 277 342
#     4  12  21  36  59  83 116 148 191 237 285 337
#     4  10  21  38  60  85 115 150 188 236 285 336
#     4   9  19  37  59  80 106 145 191 238 287 332
#     4   9  16  31  53  79 108 147 189 224 268 326
#     4  10  23  43  59  79 116 155 189 234 292 340
#
# _framework density 16.989713999999999
#
# number of rings (size 3 to 8) (size 9 to 14) (size 15 to 20)
#    0.000    1.667    4.167    1.750    0.000    3.000 
#    0.000    0.000    0.000    2.000    0.000    0.000 
#    0.000    7.000    0.000    0.000    0.000    0.000 
#
# Total GULP energy -267580.591118 kJ/mol
# GULP energy per Si atom -5574.595648 kJ/mol
# Density = 1.695104 g / cm^3
# Si number density = 16.989714 Si / 1000 Ang^3
#
#
#
# Elastic Constant Matrix: (Units=GPa)
#
#
# Indices 1 2 3 4 5 6 
#
# 1 109.4495 63.1193 47.1310 0.0000 0.0000 0.0000
# 2 63.1193 123.3936 59.0018 0.0000 0.0000 0.0000
# 3 47.1310 59.0018 106.8504 0.0000 0.0000 0.0000
# 4 0.0000 0.0000 0.0000 18.1230 0.0000 0.0000
# 5 0.0000 0.0000 0.0000 0.0000 28.8169 0.0000
# 6 0.0000 0.0000 0.0000 0.0000 0.0000 18.1475
#
#
#
# Elastic Compliance Matrix: (Units=1/GPa)
#
#
# Indices 1 2 3 4 5 6 
#
# 1 0.013604 -0.005557 -0.002932 0.000000 0.000000 0.000000
# 2 -0.005557 0.013281 -0.004883 0.000000 0.000000 0.000000
# 3 -0.002932 -0.004883 0.013348 0.000000 0.000000 0.000000
# 4 0.000000 0.000000 0.000000 0.055178 0.000000 0.000000
# 5 0.000000 0.000000 0.000000 0.000000 0.034702 0.000000
# 6 0.000000 0.000000 0.000000 0.000000 0.000000 0.055104
#
#
# Mechanical properties :
#
#
# Convention : Reuss Voigt Hill
#
# Bulk Modulus (GPa) = 74.12764 75.35531 74.74147
# Shear Modulus (GPa) = 23.09917 24.38025 23.73971
#
# Velocity S-wave (km/s) = 3.69127 3.79225 3.74210
# Velocity P-wave (km/s) = 7.86721 7.97651 7.92204
#
# Compressibility (1/GPa) = 0.01349025
#
# Stress axis : x y z
#
# Youngs Moduli (GPa) = 73.50873 75.29384 74.91480
#
# Poissons Ratio (x) = 0.41838 0.21967
# Poissons Ratio (y) = 0.40846 0.36579
# Poissons Ratio (z) = 0.21554 0.36764
#
# Static dielectric constant tensor:
#      x y z
#    x 1.573870 0.000000 0.000000 
#    y 0.000000 1.650460 0.000000 
#    z 0.000000 0.000000 1.575700 
# 
# From -- ./inp_files/40924.got.cif
#   From: 2010.05.17/outbox.cif.g08.bks.cpg/sg71_21_cif.got.tgz:40924.got - 2010.06.03 16:22:01.
