data_PCOD9521311
_publ_section_title
;
Structure prediction by ZEFSAII (Michael W. Deem and Ramdas Pophale) SiO2 
 PCOD9521311
Probable space group: I M M M
;
_chemical_formula_sum "Si O2"
_cell_formula_units_Z 40
_cell_length_a 7.686756
_cell_length_b 34.083111
_cell_length_c 7.585380
_cell_angle_alpha 90.000000
_cell_angle_beta 90.000000
_cell_angle_gamma 90.000000
_cell_volume 1987.282768
_symmetry_space_group_name_H-M "I M M M"
_symmetry_group_IT_number 71
_symmetry_cell_setting 'orthorhombic'
loop_
_space_group_symop_operation_xyz
x,y,z
-x,-y,z
x,-y,-z
-x,y,-z
-x,-y,-z
x,y,-z
-x,y,z
x,-y,z
1/2+x,1/2+y,1/2+z
1/2-x,1/2-y,1/2+z
1/2+x,1/2-y,1/2-z
1/2-x,1/2+y,1/2-z
1/2-x,1/2-y,1/2-z
1/2+x,1/2+y,1/2-z
1/2-x,1/2+y,1/2+z
1/2+x,1/2-y,1/2+z
loop_
_atom_site_type_symbol
_atom_site_label
_atom_site_fract_x
_atom_site_fract_y
_atom_site_fract_z
Si Si1 0.693289 0.705541 0.288068
Si Si2 0.000000 0.441082 0.210162
Si Si3 0.797885 0.000000 0.284536
Si Si4 0.500000 0.150541 0.787883
O O1 0.687987 0.701884 0.500000
O O2 0.500000 0.698989 0.218353
O O3 0.750000 0.750000 0.250000
O O4 0.831994 0.674128 0.220999
O O5 0.176477 0.463103 0.271914
O O6 0.000000 0.395215 0.247620
O O7 0.000000 0.446387 0.000000
O O8 0.805356 0.000000 0.500000
O O9 0.000000 0.000000 0.224880
O O10 0.500000 0.154103 0.000000
#
# Coordination Sequence:
#
# PCOD9521311 Si02
#       4
#    16   8   8   8
#     4  10  20  34  52  72  96 131 173 213 255 301
#     4   9  18  32  52  78 100 128 170 206 243 299
#     4   8  15  31  54  76 102 130 160 206 254 292
#     4  10  21  35  49  72 108 138 162 207 263 302
#
# _framework density 20.127986
#
# number of rings (size 3 to 8) (size 9 to 14) (size 15 to 20)
#    0.000    2.600    2.000    1.200    0.000    3.200 
#    0.000    2.000    0.000    1.200    0.000    0.000 
#    0.000    0.000    0.000    0.000    0.000    0.000 
#
# Total GULP energy -111567.527466 kJ/mol
# GULP energy per Si atom -5578.376373 kJ/mol
# Density = 2.008217 g / cm^3
# Si number density = 20.127986 Si / 1000 Ang^3
#
#
#
# Elastic Constant Matrix: (Units=GPa)
#
#
# Indices 1 2 3 4 5 6 
#
# 1 261.1867 135.9167 12.6549 -0.0007 -0.0001 0.0003
# 2 135.9167 203.8333 -4.9420 -0.0094 -0.0002 -0.0014
# 3 12.6549 -4.9420 42.5500 -0.0072 0.0007 -0.0011
# 4 -0.0007 -0.0094 -0.0072 27.8161 -0.0005 -0.0011
# 5 -0.0001 -0.0002 0.0007 -0.0005 5.0819 -0.0006
# 6 0.0003 -0.0014 -0.0011 -0.0011 -0.0006 21.8883
#
#
#
# Elastic Compliance Matrix: (Units=1/GPa)
#
#
# Indices 1 2 3 4 5 6 
#
# 1 0.006077 -0.004107 -0.002284 -0.000002 0.000000 0.000000
# 2 -0.004107 0.007696 0.002115 0.000003 0.000000 0.000001
# 3 -0.002284 0.002115 0.024427 0.000007 -0.000003 0.000001
# 4 -0.000002 0.000003 0.000007 0.035950 0.000004 0.000002
# 5 0.000000 0.000000 -0.000003 0.000004 0.196778 0.000006
# 6 0.000000 0.000001 0.000001 0.000002 0.000006 0.045687
#
#
# Mechanical properties :
#
#
# Convention : Reuss Voigt Hill
#
# Bulk Modulus (GPa) = 33.73007 88.31436 61.02222
# Shear Modulus (GPa) = 14.92315 35.21993 25.07154
#
# Velocity S-wave (km/s) = 2.72584 4.18760 3.53314
# Velocity P-wave (km/s) = 5.16731 8.20688 6.85763
#
# Compressibility (1/GPa) = 0.02964713
#
# Stress axis : x y z
#
# Youngs Moduli (GPa) = 164.56104 129.93618 40.93851
#
# Poissons Ratio (x) = 0.53370 0.09352
# Poissons Ratio (y) = 0.67592 -0.08660
# Poissons Ratio (z) = 0.37592 -0.27487
#
# Static dielectric constant tensor:
#      x y z
#    x 1.728270 0.000000 0.000000 
#    y 0.000000 1.669670 0.000000 
#    z 0.000000 0.000000 1.759380 
# 
# From -- ./inp_files/1983.got.cif
#   From: 2010.05.17/outbox.cif.g08.bks.cpg/sg71_1_cif.got.tgz:1983.got - 2010.06.03 16:22:01.
