data_PCOD9521594
_publ_section_title
;
Structure prediction by ZEFSAII (Michael W. Deem and Ramdas Pophale) SiO2 
 PCOD9521594
Probable space group: I M M M
;
_chemical_formula_sum "Si O2"
_cell_formula_units_Z 112
_cell_length_a 22.935368
_cell_length_b 14.586543
_cell_length_c 14.265781
_cell_angle_alpha 90.000000
_cell_angle_beta 90.000000
_cell_angle_gamma 90.000000
_cell_volume 4772.584672
_symmetry_space_group_name_H-M "I M M M"
_symmetry_group_IT_number 71
_symmetry_cell_setting 'orthorhombic'
loop_
_space_group_symop_operation_xyz
x,y,z
-x,-y,z
x,-y,-z
-x,y,-z
-x,-y,-z
x,y,-z
-x,y,z
x,-y,z
1/2+x,1/2+y,1/2+z
1/2-x,1/2-y,1/2+z
1/2+x,1/2-y,1/2-z
1/2-x,1/2+y,1/2-z
1/2-x,1/2-y,1/2-z
1/2+x,1/2+y,1/2-z
1/2-x,1/2+y,1/2+z
1/2+x,1/2-y,1/2+z
loop_
_atom_site_type_symbol
_atom_site_label
_atom_site_fract_x
_atom_site_fract_y
_atom_site_fract_z
Si Si1 0.604380 0.600644 0.606618
Si Si2 0.829754 0.896379 0.703985
Si Si3 0.085525 0.603647 0.297748
Si Si4 0.437277 0.291573 0.889198
Si Si5 0.707751 0.100910 0.107469
Si Si6 0.230419 0.705616 0.894202
Si Si7 0.409869 0.197365 0.393723
O O1 0.628308 0.606240 0.500000
O O2 0.574727 0.500000 0.613654
O O3 0.652184 0.601422 0.687640
O O4 0.570343 0.696512 0.618999
O O5 0.881085 0.837102 0.657133
O O6 0.767779 0.852937 0.678886
O O7 0.831421 0.000000 0.667931
O O8 0.066624 0.500000 0.317004
O O9 0.062552 0.684687 0.362813
O O10 0.154870 0.606018 0.319452
O O11 0.071319 0.633400 0.191366
O O12 0.500000 0.331389 0.857572
O O13 0.432856 0.302717 0.000000
O O14 0.746780 0.190689 0.113556
O O15 0.735823 0.000000 0.118767
O O16 0.683639 0.102540 0.000000
O O17 0.160925 0.700585 0.885918
O O18 0.245422 0.673474 0.000000
O O19 0.424730 0.168599 0.500000
#
# Coordination Sequence:
#
# PCOD9521594 Si02
#       7
#    16  16  16  16  16  16  16
#     4   9  18  34  58  87 118 156 204 252 295 342
#     4  11  22  38  62  89 122 164 203 244 296 355
#     4  11  22  38  60  86 118 156 197 244 298 359
#     4  11  24  43  67  94 122 151 191 245 303 363
#     4   9  17  30  51  78 110 150 195 244 293 343
#     4  10  20  34  54  83 121 163 208 249 289 349
#     4  10  21  37  58  85 120 164 209 251 294 346
#
# _framework density 23.467368
#
# number of rings (size 3 to 8) (size 9 to 14) (size 15 to 20)
#    0.000    1.857    2.857    0.857    0.000    6.286 
#    0.000    8.571    0.000    1.714    0.000    3.000 
#    0.000    0.000    0.000    0.000    0.000    0.000 
#
# Total GULP energy -313084.371390 kJ/mol
# GULP energy per Si atom -5590.792346 kJ/mol
# Density = 2.341395 g / cm^3
# Si number density = 23.467368 Si / 1000 Ang^3
#
#
#
# Elastic Constant Matrix: (Units=GPa)
#
#
# Indices 1 2 3 4 5 6 
#
# 1 97.9853 23.0625 19.8592 0.0000 0.0000 0.0000
# 2 23.0625 114.2707 19.8678 0.0000 0.0000 0.0000
# 3 19.8592 19.8678 94.6748 0.0000 0.0000 0.0000
# 4 0.0000 0.0000 0.0000 30.3317 0.0000 0.0000
# 5 0.0000 0.0000 0.0000 0.0000 -8.1837 0.0000
# 6 0.0000 0.0000 0.0000 0.0000 0.0000 -66.2956
#
#
#
# Elastic Compliance Matrix: (Units=1/GPa)
#
#
# Indices 1 2 3 4 5 6 
#
# 1 0.011040 -0.001895 -0.001918 0.000000 0.000000 0.000000
# 2 -0.001895 0.009408 -0.001577 0.000000 0.000000 0.000000
# 3 -0.001918 -0.001577 0.011296 0.000000 0.000000 0.000000
# 4 0.000000 0.000000 0.000000 0.032969 0.000000 0.000000
# 5 0.000000 0.000000 0.000000 0.000000 -0.122194 0.000000
# 6 0.000000 0.000000 0.000000 0.000000 0.000000 -0.015084
#
#
# Mechanical properties :
#
#
# Convention : Reuss Voigt Hill
#
# Bulk Modulus (GPa) = 47.70009 48.05666 47.87838
# Shear Modulus (GPa) = -91.24416 7.44656 -41.89880
#
# Velocity S-wave (km/s) = -6.24225 1.78327 -4.22999
# Velocity P-wave (km/s) = 5.61996 4.97620 1.84681
#
# Compressibility (1/GPa) = 0.02096432
#
# Stress axis : x y z
#
# Youngs Moduli (GPa) = 90.57696 106.29599 88.52891
#
# Poissons Ratio (x) = 0.20140 0.16982
# Poissons Ratio (y) = 0.17161 0.13959
# Poissons Ratio (z) = 0.17375 0.16761
#
# Static dielectric constant tensor:
#      x y z
#    x 1.933790 0.000000 0.000000 
#    y 0.000000 1.877910 0.000000 
#    z 0.000000 0.000000 1.892250 
# 
# From -- ./inp_files/39261.got.cif
#   From: 2010.05.17/outbox.cif.g08.bks.cpg/sg71_20_cif.got.tgz:39261.got - 2010.06.03 16:22:01.
