data_PCOD9521226
_publ_section_title
;
Structure prediction by ZEFSAII (Michael W. Deem and Ramdas Pophale) SiO2 
 PCOD9521226
Probable space group: I M M M
;
_chemical_formula_sum "Si O2"
_cell_formula_units_Z 72
_cell_length_a 7.571657
_cell_length_b 12.273069
_cell_length_c 36.470744
_cell_angle_alpha 90.000000
_cell_angle_beta 90.000000
_cell_angle_gamma 90.000000
_cell_volume 3389.133925
_symmetry_space_group_name_H-M "I M M M"
_symmetry_group_IT_number 71
_symmetry_cell_setting 'orthorhombic'
loop_
_space_group_symop_operation_xyz
x,y,z
-x,-y,z
x,-y,-z
-x,y,-z
-x,-y,-z
x,y,-z
-x,y,z
x,-y,z
1/2+x,1/2+y,1/2+z
1/2-x,1/2-y,1/2+z
1/2+x,1/2-y,1/2-z
1/2-x,1/2+y,1/2-z
1/2-x,1/2-y,1/2-z
1/2+x,1/2+y,1/2-z
1/2-x,1/2+y,1/2+z
1/2+x,1/2-y,1/2+z
loop_
_atom_site_type_symbol
_atom_site_label
_atom_site_fract_x
_atom_site_fract_y
_atom_site_fract_z
Si Si1 0.787294 0.123188 0.857463
Si Si2 0.788629 0.762200 0.429847
Si Si3 0.288229 0.226987 0.292183
Si Si4 0.210055 0.000000 0.412030
Si Si5 0.713859 0.000000 0.674352
Si Si6 0.783484 0.374215 0.500000
O O1 0.744782 0.199208 0.891969
O O2 0.722453 0.180634 0.820234
O O3 0.000000 0.117399 0.855426
O O4 0.720326 0.000000 0.862072
O O5 0.718258 0.885743 0.427489
O O6 0.723776 0.690509 0.463880
O O7 0.000000 0.770118 0.434070
O O8 0.500000 0.224705 0.296004
O O9 0.250000 0.250000 0.250000
O O10 0.222180 0.109423 0.305774
O O11 0.235353 0.000000 0.368218
O O12 0.000000 0.000000 0.419126
O O13 0.500000 0.000000 0.675676
O O14 0.726775 0.500000 0.500000
O O15 0.000000 0.375447 0.500000
#
# Coordination Sequence:
#
# PCOD9521226 Si02
#       6
#    16  16  16   8   8   8
#     4  10  21  37  56  79 108 142 179 220 269 324
#     4  10  20  35  56  82 110 143 182 223 270 324
#     4  10  22  37  55  79 106 140 180 223 271 321
#     4  10  20  33  54  84 110 140 186 230 271 319
#     4  10  20  38  59  77 105 148 188 221 271 332
#     4   9  18  33  54  80 111 145 180 221 272 326
#
# _framework density 21.244364999999998
#
# number of rings (size 3 to 8) (size 9 to 14) (size 15 to 20)
#    0.000    2.111    2.222    0.667    1.556    3.556 
#    0.000    2.778    0.000    2.000    0.000    2.333 
#    0.000    0.000    0.000    0.000    0.000    0.000 
#
# Total GULP energy -201133.946166 kJ/mol
# GULP energy per Si atom -5587.054060 kJ/mol
# Density = 2.119601 g / cm^3
# Si number density = 21.244365 Si / 1000 Ang^3
#
#
#
# Elastic Constant Matrix: (Units=GPa)
#
#
# Indices 1 2 3 4 5 6 
#
# 1 48.4155 10.9242 -4.9390 0.0000 0.0000 0.0000
# 2 10.9242 245.5108 111.4265 0.0000 0.0000 0.0000
# 3 -4.9390 111.4265 171.7917 0.0000 0.0000 0.0000
# 4 0.0000 0.0000 0.0000 35.2412 0.0000 0.0000
# 5 0.0000 0.0000 0.0000 0.0000 16.8756 0.0000
# 6 0.0000 0.0000 0.0000 0.0000 0.0000 7.5759
#
#
#
# Elastic Compliance Matrix: (Units=1/GPa)
#
#
# Indices 1 2 3 4 5 6 
#
# 1 0.021222 -0.001731 0.001733 0.000000 0.000000 0.000000
# 2 -0.001731 0.005914 -0.003885 0.000000 0.000000 0.000000
# 3 0.001733 -0.003885 0.008391 0.000000 0.000000 0.000000
# 4 0.000000 0.000000 0.000000 0.028376 0.000000 0.000000
# 5 0.000000 0.000000 0.000000 0.000000 0.059257 0.000000
# 6 0.000000 0.000000 0.000000 0.000000 0.000000 0.131998
#
#
# Mechanical properties :
#
#
# Convention : Reuss Voigt Hill
#
# Bulk Modulus (GPa) = 36.02370 77.83795 56.93083
# Shear Modulus (GPa) = 18.37041 35.15896 26.76469
#
# Velocity S-wave (km/s) = 2.94380 4.07256 3.55329
# Velocity P-wave (km/s) = 5.34306 7.67028 6.60989
#
# Compressibility (1/GPa) = 0.02775950
#
# Stress axis : x y z
#
# Youngs Moduli (GPa) = 47.12141 169.10340 119.17647
#
# Poissons Ratio (x) = 0.29266 -0.20649
# Poissons Ratio (y) = 0.08155 0.46304
# Poissons Ratio (z) = -0.08165 0.65703
#
# Static dielectric constant tensor:
#      x y z
#    x 1.837540 0.000000 0.000000 
#    y 0.000000 1.769560 0.000000 
#    z 0.000000 0.000000 1.710730 
# 
# From -- ./inp_files/64278.got.cif
#   From: 2010.05.17/outbox.cif.g08.bks.cpg/sg71_33_cif.got.tgz:64278.got - 2010.06.03 16:22:01.
