data_PCOD9521470
_publ_section_title
;
Structure prediction by ZEFSAII (Michael W. Deem and Ramdas Pophale) SiO2 
 PCOD9521470
Probable space group: I M M M
;
_chemical_formula_sum "Si O2"
_cell_formula_units_Z 104
_cell_length_a 20.058306
_cell_length_b 30.688502
_cell_length_c 7.688433
_cell_angle_alpha 90.000000
_cell_angle_beta 90.000000
_cell_angle_gamma 90.000000
_cell_volume 4732.686926
_symmetry_space_group_name_H-M "I M M M"
_symmetry_group_IT_number 71
_symmetry_cell_setting 'orthorhombic'
loop_
_space_group_symop_operation_xyz
x,y,z
-x,-y,z
x,-y,-z
-x,y,-z
-x,-y,-z
x,y,-z
-x,y,z
x,-y,z
1/2+x,1/2+y,1/2+z
1/2-x,1/2-y,1/2+z
1/2+x,1/2-y,1/2-z
1/2-x,1/2+y,1/2-z
1/2-x,1/2-y,1/2-z
1/2+x,1/2+y,1/2-z
1/2-x,1/2+y,1/2+z
1/2+x,1/2-y,1/2+z
loop_
_atom_site_type_symbol
_atom_site_label
_atom_site_fract_x
_atom_site_fract_y
_atom_site_fract_z
Si Si1 0.856914 0.139024 0.799765
Si Si2 0.787431 0.631216 0.797526
Si Si3 0.075426 0.323714 0.700766
Si Si4 0.578581 0.450874 0.711388
Si Si5 0.578428 0.275092 0.299762
Si Si6 0.500000 0.946830 0.300310
Si Si7 0.143369 0.450826 0.213545
O O1 0.777920 0.147281 0.797364
O O2 0.879151 0.091500 0.728661
O O3 0.888520 0.182306 0.717868
O O4 0.881129 0.138702 0.000000
O O5 0.858917 0.654764 0.782400
O O6 0.800924 0.582356 0.732227
O O7 0.769733 0.630333 0.000000
O O8 0.074194 0.336863 0.500000
O O9 0.086450 0.271686 0.711473
O O10 0.000000 0.332636 0.773931
O O11 0.582957 0.452073 0.500000
O O12 0.500000 0.444727 0.754840
O O13 0.598479 0.500000 0.771583
O O14 0.602350 0.269384 0.500000
O O15 0.500000 0.283836 0.304700
O O16 0.500000 0.931506 0.500000
O O17 0.429256 0.934969 0.221897
O O18 0.500000 0.000000 0.305349
O O19 0.154340 0.500000 0.269134
O O20 0.139979 0.450640 0.000000
#
# Coordination Sequence:
#
# PCOD9521470 Si02
#       7
#    16  16  16  16  16   8  16
#     4  10  20  34  53  79 113 147 179 220 270 318
#     4  11  23  35  52  79 110 146 184 220 263 317
#     4  10  22  40  60  81 106 136 171 218 277 332
#     4   8  14  27  51  83 114 145 185 228 268 316
#     4   9  18  35  60  85 105 132 176 225 269 317
#     4   7  10  20  40  64  87 113 153 207 257 291
#     4   8  15  28  46  70  99 131 171 217 259 298
#
# _framework density 21.974833
#
# number of rings (size 3 to 8) (size 9 to 14) (size 15 to 20)
#    0.000    2.846    0.000    2.769    1.077    4.615 
#    0.000    0.000    0.000    2.769    0.000    2.154 
#    0.000    0.000    0.000    0.000    0.000    0.000 
#
# Total GULP energy -289849.352606 kJ/mol
# GULP energy per Si atom -5574.026012 kJ/mol
# Density = 2.192482 g / cm^3
# Si number density = 21.974833 Si / 1000 Ang^3
#
#
#
# Elastic Constant Matrix: (Units=GPa)
#
#
# Indices 1 2 3 4 5 6 
#
# 1 61.9839 49.9138 -2.6078 0.0000 0.0000 0.0000
# 2 49.9138 102.2869 2.5934 0.0000 0.0000 0.0000
# 3 -2.6078 2.5934 44.4136 0.0000 0.0001 0.0000
# 4 0.0000 0.0000 0.0000 -7.8592 0.0000 0.0000
# 5 0.0000 0.0000 0.0001 0.0000 -1.8351 0.0000
# 6 0.0000 0.0000 0.0000 0.0000 0.0000 18.1870
#
#
#
# Elastic Compliance Matrix: (Units=1/GPa)
#
#
# Indices 1 2 3 4 5 6 
#
# 1 0.026818 -0.013146 0.002342 0.000000 0.000000 0.000000
# 2 -0.013146 0.016235 -0.001720 0.000000 0.000000 0.000000
# 3 0.002342 -0.001720 0.022754 0.000000 0.000001 0.000000
# 4 0.000000 0.000000 0.000000 -0.127239 -0.000001 0.000000
# 5 0.000000 0.000000 0.000001 -0.000001 -0.544919 0.000000
# 6 0.000000 0.000000 0.000000 0.000000 0.000000 0.054984
#
#
# Mechanical properties :
#
#
# Convention : Reuss Voigt Hill
#
# Bulk Modulus (GPa) = 24.53430 34.27593 29.40512
# Shear Modulus (GPa) = -9.75165 12.28419 1.26627
#
# Velocity S-wave (km/s) = -2.10886 2.36691 0.75993
# Velocity P-wave (km/s) = 2.29331 4.80639 3.76567
#
# Compressibility (1/GPa) = 0.04075926
#
# Stress axis : x y z
#
# Youngs Moduli (GPa) = 37.28874 61.59555 43.94912
#
# Poissons Ratio (x) = 0.80973 -0.10294
# Poissons Ratio (y) = 0.49019 0.07559
# Poissons Ratio (z) = -0.08734 0.10594
#
# Static dielectric constant tensor:
#      x y z
#    x 1.811660 0.000000 0.000000 
#    y 0.000000 1.834420 0.000000 
#    z 0.000000 0.000000 1.849960 
# 
# From -- ./inp_files/11111.got.cif
#   From: 2010.05.17/outbox.cif.g08.bks.cpg/sg71_6_cif.got.tgz:11111.got - 2010.06.03 16:22:01.
