data_PCOD9521237
_publ_section_title
;
Structure prediction by ZEFSAII (Michael W. Deem and Ramdas Pophale) SiO2 
 PCOD9521237
Probable space group: I M M M
;
_chemical_formula_sum "Si O2"
_cell_formula_units_Z 56
_cell_length_a 12.710708
_cell_length_b 19.732854
_cell_length_c 12.841414
_cell_angle_alpha 90.000000
_cell_angle_beta 90.000000
_cell_angle_gamma 90.000000
_cell_volume 3220.864778
_symmetry_space_group_name_H-M "I M M M"
_symmetry_group_IT_number 71
_symmetry_cell_setting 'orthorhombic'
loop_
_space_group_symop_operation_xyz
x,y,z
-x,-y,z
x,-y,-z
-x,y,-z
-x,-y,-z
x,y,-z
-x,y,z
x,-y,z
1/2+x,1/2+y,1/2+z
1/2-x,1/2-y,1/2+z
1/2+x,1/2-y,1/2-z
1/2-x,1/2+y,1/2-z
1/2-x,1/2-y,1/2-z
1/2+x,1/2+y,1/2-z
1/2-x,1/2+y,1/2+z
1/2+x,1/2-y,1/2+z
loop_
_atom_site_type_symbol
_atom_site_label
_atom_site_fract_x
_atom_site_fract_y
_atom_site_fract_z
Si Si1 0.500000 0.678913 0.625725
Si Si2 0.316154 0.423368 0.620684
Si Si3 0.702097 0.078411 0.330535
Si Si4 0.500000 0.831322 0.623680
Si Si5 0.377862 0.581727 0.000000
O O1 0.500000 0.682380 0.500000
O O2 0.600691 0.633715 0.651571
O O3 0.500000 0.754928 0.668560
O O4 0.283789 0.413416 0.500000
O O5 0.362263 0.500000 0.626434
O O6 0.227743 0.420610 0.708137
O O7 0.604226 0.126830 0.349662
O O8 0.804854 0.098971 0.399488
O O9 0.678047 0.000000 0.360048
O O10 0.500000 0.824147 0.500000
O O11 0.386217 0.500000 0.000000
O O12 0.500000 0.607085 0.000000
#
# Coordination Sequence:
#
# PCOD9521237 Si02
#       5
#     8  16  16   8   8
#     4   9  19  33  53  79 105 141 177 218 267 315
#     4   9  18  34  55  79 104 132 176 229 273 311
#     4  10  20  33  55  80 107 143 179 220 264 315
#     4  11  21  35  52  77 111 148 183 210 256 321
#     4   9  18  31  49  79 111 136 171 220 268 310
#
# _framework density 17.386634999999998
#
# number of rings (size 3 to 8) (size 9 to 14) (size 15 to 20)
#    0.000    2.429    1.429    0.857    2.000    3.429 
#    0.000    0.714    0.000    3.429    0.000    0.000 
#    0.000    0.000    0.000    0.000    0.000    0.286 
#
# Total GULP energy -155872.676918 kJ/mol
# GULP energy per Si atom -5566.881318 kJ/mol
# Density = 1.734706 g / cm^3
# Si number density = 17.386635 Si / 1000 Ang^3
#
#
#
# Elastic Constant Matrix: (Units=GPa)
#
#
# Indices 1 2 3 4 5 6 
#
# 1 111.4416 66.0195 39.2357 0.0000 0.0000 0.0002
# 2 66.0195 116.6838 32.8697 -0.0001 0.0000 0.0012
# 3 39.2357 32.8697 82.2379 0.0000 0.0000 0.0017
# 4 0.0000 -0.0001 0.0000 15.3062 0.0000 0.0015
# 5 0.0000 0.0000 0.0000 0.0000 19.7744 -0.0004
# 6 0.0002 0.0012 0.0017 0.0015 -0.0004 -151.8171
#
#
#
# Elastic Compliance Matrix: (Units=1/GPa)
#
#
# Indices 1 2 3 4 5 6 
#
# 1 0.014652 -0.007123 -0.004143 0.000000 0.000000 0.000000
# 2 -0.007123 0.013120 -0.001846 0.000000 0.000000 0.000000
# 3 -0.004143 -0.001846 0.014874 0.000000 0.000000 0.000000
# 4 0.000000 0.000000 0.000000 0.065333 0.000000 0.000001
# 5 0.000000 0.000000 0.000000 0.000000 0.050570 0.000000
# 6 0.000000 0.000000 0.000000 0.000001 0.000000 -0.006587
#
#
# Mechanical properties :
#
#
# Convention : Reuss Voigt Hill
#
# Bulk Modulus (GPa) = 60.89231 65.17923 63.03577
# Shear Modulus (GPa) = 27.22408 -11.86476 7.67966
#
# Velocity S-wave (km/s) = 3.96132 -2.61513 2.10394
# Velocity P-wave (km/s) = 7.48473 5.33395 6.49893
#
# Compressibility (1/GPa) = 0.01642244
#
# Stress axis : x y z
#
# Youngs Moduli (GPa) = 68.25148 76.21878 67.22957
#
# Poissons Ratio (x) = 0.54288 0.27856
# Poissons Ratio (y) = 0.48613 0.12409
# Poissons Ratio (z) = 0.28280 0.14068
#
# Static dielectric constant tensor:
#      x y z
#    x 1.576920 0.000000 0.000000 
#    y 0.000000 1.613810 0.000000 
#    z 0.000000 0.000000 1.609390 
# 
# From -- ./inp_files/19304.got.cif
#   From: 2010.05.17/outbox.cif.g08.bks.cpg/sg71_10_cif.got.tgz:19304.got - 2010.06.03 16:22:01.
