data_PCOD9521436
_publ_section_title
;
Structure prediction by ZEFSAII (Michael W. Deem and Ramdas Pophale) SiO2 
 PCOD9521436
Probable space group: I M M M
;
_chemical_formula_sum "Si O2"
_cell_formula_units_Z 64
_cell_length_a 8.925248
_cell_length_b 11.590684
_cell_length_c 28.390961
_cell_angle_alpha 90.000000
_cell_angle_beta 90.000000
_cell_angle_gamma 90.000000
_cell_volume 2937.037227
_symmetry_space_group_name_H-M "I M M M"
_symmetry_group_IT_number 71
_symmetry_cell_setting 'orthorhombic'
loop_
_space_group_symop_operation_xyz
x,y,z
-x,-y,z
x,-y,-z
-x,y,-z
-x,-y,-z
x,y,-z
-x,y,z
x,-y,z
1/2+x,1/2+y,1/2+z
1/2-x,1/2-y,1/2+z
1/2+x,1/2-y,1/2-z
1/2-x,1/2+y,1/2-z
1/2-x,1/2-y,1/2-z
1/2+x,1/2+y,1/2-z
1/2-x,1/2+y,1/2+z
1/2+x,1/2-y,1/2+z
loop_
_atom_site_type_symbol
_atom_site_label
_atom_site_fract_x
_atom_site_fract_y
_atom_site_fract_z
Si Si1 0.832027 0.628594 0.790521
Si Si2 0.670706 0.835245 0.819611
Si Si3 0.325609 0.370822 0.943194
Si Si4 0.677169 0.626438 0.585944
O O1 0.835776 0.500000 0.808338
O O2 0.704864 0.699926 0.815826
O O3 0.804268 0.626072 0.734242
O O4 0.000000 0.680257 0.796639
O O5 0.500000 0.861661 0.832372
O O6 0.781846 0.879815 0.858828
O O7 0.500000 0.363258 0.928562
O O8 0.268739 0.500000 0.927767
O O9 0.247543 0.249421 0.929536
O O10 0.321032 0.373527 0.000000
O O11 0.500000 0.633306 0.578231
O O12 0.728324 0.500000 0.565771
#
# Coordination Sequence:
#
# PCOD9521436 Si02
#       4
#    16  16  16  16
#     4   9  18  33  52  74 103 141 186 236 288 340
#     4  10  20  34  53  77 106 143 188 235 283 335
#     4   9  20  41  67  92 117 147 186 232 282 338
#     4  11  24  39  57  85 120 156 193 234 282 338
#
# _framework density 21.790665000000001
#
# number of rings (size 3 to 8) (size 9 to 14) (size 15 to 20)
#    0.000    2.250    0.000    3.000    0.000    7.000 
#    0.000    3.750    0.000    0.000    0.000    0.000 
#    0.000    0.000    0.000    0.000    0.000    0.000 
#
# Total GULP energy -178273.725153 kJ/mol
# GULP energy per Si atom -5571.053911 kJ/mol
# Density = 2.174107 g / cm^3
# Si number density = 21.790665 Si / 1000 Ang^3
#
#
#
# Elastic Constant Matrix: (Units=GPa)
#
#
# Indices 1 2 3 4 5 6 
#
# 1 46.4203 65.4470 12.2999 0.0000 0.0000 0.0000
# 2 65.4470 217.1874 26.2255 0.0000 0.0000 0.0000
# 3 12.2999 26.2255 33.6401 0.0000 0.0000 0.0000
# 4 0.0000 0.0000 0.0000 -28.1260 0.0000 0.0000
# 5 0.0000 0.0000 0.0000 0.0000 20.6340 0.0000
# 6 0.0000 0.0000 0.0000 0.0000 0.0000 22.8952
#
#
#
# Elastic Compliance Matrix: (Units=1/GPa)
#
#
# Indices 1 2 3 4 5 6 
#
# 1 0.038367 -0.010893 -0.005536 0.000000 0.000000 0.000000
# 2 -0.010893 0.008175 -0.002391 0.000000 0.000000 0.000000
# 3 -0.005536 -0.002391 0.033614 0.000000 0.000000 0.000000
# 4 0.000000 0.000000 0.000000 -0.035554 0.000000 0.000000
# 5 0.000000 0.000000 0.000000 0.000000 0.048464 0.000000
# 6 0.000000 0.000000 0.000000 0.000000 0.000000 0.043677
#
#
# Mechanical properties :
#
#
# Convention : Reuss Voigt Hill
#
# Bulk Modulus (GPa) = 23.51987 56.13249 39.82618
# Shear Modulus (GPa) = 26.51740 15.96567 21.24154
#
# Velocity S-wave (km/s) = 3.49222 2.70975 3.12557
# Velocity P-wave (km/s) = 5.20363 5.96709 5.59839
#
# Compressibility (1/GPa) = 0.04251724
#
# Stress axis : x y z
#
# Youngs Moduli (GPa) = 26.06408 122.31710 29.74919
#
# Poissons Ratio (x) = 1.33240 0.16469
# Poissons Ratio (y) = 0.28392 0.07112
# Poissons Ratio (z) = 0.14429 0.29242
#
# Static dielectric constant tensor:
#      x y z
#    x 1.768720 0.000000 0.000000 
#    y 0.000000 1.918520 0.000000 
#    z 0.000000 0.000000 1.802900 
# 
# From -- ./inp_files/3706.got.cif
#   From: 2010.05.17/outbox.cif.g08.bks.cpg/sg71_2_cif.got.tgz:3706.got - 2010.06.03 16:22:01.
