data_PCOD9521236
_publ_section_title
;
Structure prediction by ZEFSAII (Michael W. Deem and Ramdas Pophale) SiO2 
 PCOD9521236
Probable space group: I M M M
;
_chemical_formula_sum "Si O2"
_cell_formula_units_Z 104
_cell_length_a 11.808708
_cell_length_b 27.872618
_cell_length_c 17.992939
_cell_angle_alpha 90.000000
_cell_angle_beta 90.000000
_cell_angle_gamma 90.000000
_cell_volume 5922.188874
_symmetry_space_group_name_H-M "I M M M"
_symmetry_group_IT_number 71
_symmetry_cell_setting 'orthorhombic'
loop_
_space_group_symop_operation_xyz
x,y,z
-x,-y,z
x,-y,-z
-x,y,-z
-x,-y,-z
x,y,-z
-x,y,z
x,-y,z
1/2+x,1/2+y,1/2+z
1/2-x,1/2-y,1/2+z
1/2+x,1/2-y,1/2-z
1/2-x,1/2+y,1/2-z
1/2-x,1/2-y,1/2-z
1/2+x,1/2+y,1/2-z
1/2-x,1/2+y,1/2+z
1/2+x,1/2-y,1/2+z
loop_
_atom_site_type_symbol
_atom_site_label
_atom_site_fract_x
_atom_site_fract_y
_atom_site_fract_z
Si Si1 0.363801 0.054744 0.232931
Si Si2 0.750780 0.777232 0.414668
Si Si3 0.500000 0.646875 0.754787
Si Si4 0.500000 0.557071 0.348624
Si Si5 0.224696 0.202798 0.799240
Si Si6 0.500000 0.316052 0.915750
Si Si7 0.633789 0.852055 0.695574
Si Si8 0.257887 0.557672 0.581772
O O1 0.500000 0.054768 0.229410
O O2 0.330457 0.092426 0.296819
O O3 0.316087 0.071183 0.153119
O O4 0.325120 0.000000 0.246286
O O5 0.716692 0.781194 0.500000
O O6 0.718598 0.725626 0.380450
O O7 0.886092 0.784716 0.409110
O O8 0.695020 0.820180 0.366621
O O9 0.500000 0.593615 0.720509
O O10 0.389117 0.675558 0.725510
O O11 0.500000 0.648998 0.844446
O O12 0.500000 0.500000 0.329204
O O13 0.612025 0.567154 0.396717
O O14 0.250000 0.250000 0.750000
O O15 0.328925 0.169617 0.775269
O O16 0.500000 0.337049 0.000000
O O17 0.500000 0.848556 0.685008
O O18 0.229324 0.577433 0.500000
O O19 0.245790 0.500000 0.577217
#
# Coordination Sequence:
#
# PCOD9521236 Si02
#       8
#    16  16   8   8  16   8  16  16
#     4   9  18  33  52  78 108 141 184 224 259 310
#     4  10  22  37  56  80 108 140 175 219 272 325
#     4  12  20  37  58  83 109 144 188 225 270 322
#     4  10  21  34  54  81 110 147 187 226 267 320
#     4  10  21  33  56  77 106 137 178 223 266 325
#     4  10  20  36  59  82 106 140 180 218 264 329
#     4  10  20  33  55  80 106 143 176 217 269 316
#     4   9  17  30  49  72 101 139 180 221 267 316
#
# _framework density 17.561074999999999
#
# number of rings (size 3 to 8) (size 9 to 14) (size 15 to 20)
#    0.000    2.154    3.077    1.154    5.385    1.538 
#    0.000    5.385    0.000    1.615    0.000    4.308 
#    0.000    0.000    0.000    0.000    0.000    0.000 
#
# Total GULP energy -289517.796189 kJ/mol
# GULP energy per Si atom -5567.649927 kJ/mol
# Density = 1.752110 g / cm^3
# Si number density = 17.561075 Si / 1000 Ang^3
#
#
#
# Elastic Constant Matrix: (Units=GPa)
#
#
# Indices 1 2 3 4 5 6 
#
# 1 54.8422 22.4646 27.2543 0.0000 0.0000 0.0000
# 2 22.4646 77.4993 49.8961 0.0000 0.0000 0.0000
# 3 27.2543 49.8961 121.9124 -0.0001 0.0000 0.0000
# 4 0.0000 0.0000 -0.0001 22.9095 0.0000 0.0000
# 5 0.0000 0.0000 0.0000 0.0000 14.6900 0.0000
# 6 0.0000 0.0000 0.0000 0.0000 0.0000 16.4647
#
#
#
# Elastic Compliance Matrix: (Units=1/GPa)
#
#
# Indices 1 2 3 4 5 6 
#
# 1 0.021502 -0.004261 -0.003063 0.000000 0.000000 0.000000
# 2 -0.004261 0.018364 -0.006564 0.000000 0.000000 0.000000
# 3 -0.003063 -0.006564 0.011574 0.000000 0.000000 0.000000
# 4 0.000000 0.000000 0.000000 0.043650 0.000000 0.000000
# 5 0.000000 0.000000 0.000000 0.000000 0.068074 0.000000
# 6 0.000000 0.000000 0.000000 0.000000 0.000000 0.060736
#
#
# Mechanical properties :
#
#
# Convention : Reuss Voigt Hill
#
# Bulk Modulus (GPa) = 42.25643 50.38711 46.32177
# Shear Modulus (GPa) = 19.26324 21.12209 20.19267
#
# Velocity S-wave (km/s) = 3.31558 3.47187 3.39463
# Velocity P-wave (km/s) = 6.22674 6.69527 6.46525
#
# Compressibility (1/GPa) = 0.02366504
#
# Stress axis : x y z
#
# Youngs Moduli (GPa) = 46.50828 54.45394 86.40280
#
# Poissons Ratio (x) = 0.23200 0.26466
# Poissons Ratio (y) = 0.19815 0.56711
# Poissons Ratio (z) = 0.14246 0.35741
#
# Static dielectric constant tensor:
#      x y z
#    x 1.602780 0.000000 0.000000 
#    y 0.000000 1.644540 0.000000 
#    z 0.000000 0.000000 1.627820 
# 
# From -- ./inp_files/43829.got.cif
#   From: 2010.05.17/outbox.cif.g08.bks.cpg/sg71_22_cif.got.tgz:43829.got - 2010.06.03 16:22:01.
