data_PCOD9521413
_publ_section_title
;
Structure prediction by ZEFSAII (Michael W. Deem and Ramdas Pophale) SiO2 
 PCOD9521413
Probable space group: I M M M
;
_chemical_formula_sum "Si O2"
_cell_formula_units_Z 104
_cell_length_a 26.607204
_cell_length_b 19.838626
_cell_length_c 8.511714
_cell_angle_alpha 90.000000
_cell_angle_beta 90.000000
_cell_angle_gamma 90.000000
_cell_volume 4492.911376
_symmetry_space_group_name_H-M "I M M M"
_symmetry_group_IT_number 71
_symmetry_cell_setting 'orthorhombic'
loop_
_space_group_symop_operation_xyz
x,y,z
-x,-y,z
x,-y,-z
-x,y,-z
-x,-y,-z
x,y,-z
-x,y,z
x,-y,z
1/2+x,1/2+y,1/2+z
1/2-x,1/2-y,1/2+z
1/2+x,1/2-y,1/2-z
1/2-x,1/2+y,1/2-z
1/2-x,1/2-y,1/2-z
1/2+x,1/2+y,1/2-z
1/2-x,1/2+y,1/2+z
1/2+x,1/2-y,1/2+z
loop_
_atom_site_type_symbol
_atom_site_label
_atom_site_fract_x
_atom_site_fract_y
_atom_site_fract_z
Si Si1 0.579648 0.926176 0.687013
Si Si2 0.904228 0.923203 0.826204
Si Si3 0.191036 0.380937 0.819336
Si Si4 0.709797 0.390973 0.320562
Si Si5 0.054473 0.719423 0.311343
Si Si6 0.836116 0.241599 0.684752
Si Si7 0.559468 0.577749 0.000000
O O1 0.569294 0.920449 0.500000
O O2 0.640219 0.922452 0.706604
O O3 0.558294 0.860187 0.770735
O O4 0.562118 0.000000 0.740411
O O5 0.844130 0.926262 0.807244
O O6 0.923801 0.890656 0.664991
O O7 0.924613 0.000000 0.829246
O O8 0.914824 0.893646 0.000000
O O9 0.244063 0.415342 0.784171
O O10 0.187203 0.315067 0.710825
O O11 0.190231 0.358168 0.000000
O O12 0.725967 0.396259 0.500000
O O13 0.695384 0.314604 0.273881
O O14 0.055459 0.726860 0.500000
O O15 0.106590 0.751469 0.251345
O O16 0.000000 0.744710 0.253837
O O17 0.836780 0.224844 0.500000
O O18 0.579097 0.500000 0.000000
O O19 0.500000 0.576097 0.000000
#
# Coordination Sequence:
#
# PCOD9521413 Si02
#       7
#    16  16  16  16  16  16   8
#     4   9  19  35  53  78 111 143 180 224 268 320
#     4   9  20  37  55  80 114 145 178 225 275 329
#     4  10  20  34  53  76 105 141 182 224 271 324
#     4  11  22  35  54  78 108 142 179 221 273 330
#     4   9  19  36  56  78 105 140 181 225 275 324
#     4  10  20  35  55  76 104 138 180 228 274 326
#     4   9  18  34  58  82 104 138 180 218 262 320
#
# _framework density 23.147575
#
# number of rings (size 3 to 8) (size 9 to 14) (size 15 to 20)
#    0.000    2.385    0.000    1.846    2.154    3.077 
#    0.000    3.846    0.000    0.923    0.000    0.000 
#    0.000    0.000    0.000    0.000    0.000    0.000 
#
# Total GULP energy -290413.566442 kJ/mol
# GULP energy per Si atom -5584.876278 kJ/mol
# Density = 2.309489 g / cm^3
# Si number density = 23.147575 Si / 1000 Ang^3
#
#
#
# Elastic Constant Matrix: (Units=GPa)
#
#
# Indices 1 2 3 4 5 6 
#
# 1 113.1093 -9.4339 31.2871 0.0000 0.0000 0.0000
# 2 -9.4339 56.0302 -2.8698 0.0000 0.0000 0.0000
# 3 31.2871 -2.8698 86.8776 0.0000 0.0000 0.0000
# 4 0.0000 0.0000 0.0000 -9.1101 0.0000 0.0000
# 5 0.0000 0.0000 0.0000 0.0000 21.9731 0.0000
# 6 0.0000 0.0000 0.0000 0.0000 0.0000 5.9662
#
#
#
# Elastic Compliance Matrix: (Units=1/GPa)
#
#
# Indices 1 2 3 4 5 6 
#
# 1 0.009942 0.001493 -0.003531 0.000000 0.000000 0.000000
# 2 0.001493 0.018102 0.000060 0.000000 0.000000 0.000000
# 3 -0.003531 0.000060 0.012784 0.000000 0.000000 0.000000
# 4 0.000000 0.000000 0.000000 -0.109768 0.000000 0.000000
# 5 0.000000 0.000000 0.000000 0.000000 0.045510 0.000000
# 6 0.000000 0.000000 0.000000 0.000000 0.000000 0.167610
#
#
# Mechanical properties :
#
#
# Convention : Reuss Voigt Hill
#
# Bulk Modulus (GPa) = 27.12024 32.66486 29.89255
# Shear Modulus (GPa) = 31.16676 19.56808 25.36742
#
# Velocity S-wave (km/s) = 3.67336 2.91067 3.31403
# Velocity P-wave (km/s) = 5.45281 5.04363 5.25220
#
# Compressibility (1/GPa) = 0.03687283
#
# Stress axis : x y z
#
# Youngs Moduli (GPa) = 100.58032 55.24244 78.22206
#
# Poissons Ratio (x) = -0.08249 0.27622
# Poissons Ratio (y) = -0.15018 -0.00471
# Poissons Ratio (z) = 0.35517 -0.00333
#
# Static dielectric constant tensor:
#      x y z
#    x 1.880020 0.000000 0.000000 
#    y 0.000000 1.889310 0.000000 
#    z 0.000000 0.000000 1.827010 
# 
# From -- ./inp_files/15286.got.cif
#   From: 2010.05.17/outbox.cif.g08.bks.cpg/sg71_8_cif.got.tgz:15286.got - 2010.06.03 16:22:01.
