data_PCOD9521133
_publ_section_title
;
Structure prediction by ZEFSAII (Michael W. Deem and Ramdas Pophale) SiO2 
 PCOD9521133
Probable space group: I M M M
;
_chemical_formula_sum "Si O2"
_cell_formula_units_Z 112
_cell_length_a 15.440199
_cell_length_b 15.991500
_cell_length_c 23.839172
_cell_angle_alpha 90.000000
_cell_angle_beta 90.000000
_cell_angle_gamma 90.000000
_cell_volume 5886.176262
_symmetry_space_group_name_H-M "I M M M"
_symmetry_group_IT_number 71
_symmetry_cell_setting 'orthorhombic'
loop_
_space_group_symop_operation_xyz
x,y,z
-x,-y,z
x,-y,-z
-x,y,-z
-x,-y,-z
x,y,-z
-x,y,z
x,-y,z
1/2+x,1/2+y,1/2+z
1/2-x,1/2-y,1/2+z
1/2+x,1/2-y,1/2-z
1/2-x,1/2+y,1/2-z
1/2-x,1/2-y,1/2-z
1/2+x,1/2+y,1/2-z
1/2-x,1/2+y,1/2+z
1/2+x,1/2-y,1/2+z
loop_
_atom_site_type_symbol
_atom_site_label
_atom_site_fract_x
_atom_site_fract_y
_atom_site_fract_z
Si Si1 0.597223 0.262373 0.615263
Si Si2 0.402515 0.154598 0.722704
Si Si3 0.902354 0.232396 0.674192
Si Si4 0.833041 0.406067 0.064861
Si Si5 0.217218 0.093694 0.933160
Si Si6 0.730456 0.409931 0.174568
Si Si7 0.597540 0.165013 0.935222
O O1 0.500000 0.293354 0.604759
O O2 0.604973 0.233669 0.680028
O O3 0.610761 0.174655 0.581862
O O4 0.666679 0.331584 0.597576
O O5 0.500000 0.120219 0.714510
O O6 0.393544 0.187450 0.785616
O O7 0.323209 0.097140 0.705020
O O8 0.831032 0.165424 0.690246
O O9 0.893243 0.261620 0.610093
O O10 0.000000 0.200031 0.682520
O O11 0.872817 0.500000 0.072216
O O12 0.753923 0.403315 0.108571
O O13 0.808194 0.398687 0.000000
O O14 0.320642 0.105097 0.925892
O O15 0.191686 0.000000 0.915232
O O16 0.199906 0.101449 0.000000
O O17 0.690855 0.500000 0.186121
O O18 0.500000 0.129190 0.927562
O O19 0.603222 0.193644 0.000000
#
# Coordination Sequence:
#
# PCOD9521133 Si02
#       7
#    16  16  16  16  16  16  16
#     4  10  20  34  52  73 102 141 178 212 254 305
#     4   9  19  36  55  74  99 133 172 214 259 303
#     4  10  20  35  55  77 103 135 171 211 255 307
#     4   9  18  32  51  77 106 135 171 215 261 306
#     4  10  21  35  51  74 105 139 174 215 261 308
#     4  10  20  33  52  77 105 138 170 206 255 307
#     4   9  18  34  57  80  99 126 167 213 260 307
#
# _framework density 19.027633000000002
#
# number of rings (size 3 to 8) (size 9 to 14) (size 15 to 20)
#    0.000    2.429    0.000    2.571    0.000    4.286 
#    0.000    8.571    0.000    5.143    0.000    4.000 
#    0.000    0.000    0.000    0.000    0.000    0.000 
#
# Total GULP energy -312045.488715 kJ/mol
# GULP energy per Si atom -5572.240870 kJ/mol
# Density = 1.898433 g / cm^3
# Si number density = 19.027633 Si / 1000 Ang^3
#
#
#
# Elastic Constant Matrix: (Units=GPa)
#
#
# Indices 1 2 3 4 5 6 
#
# 1 67.2191 36.8994 19.7535 0.0000 0.0000 0.0000
# 2 36.8994 68.9342 16.8013 0.0000 0.0000 0.0000
# 3 19.7535 16.8013 51.8500 0.0000 0.0000 0.0000
# 4 0.0000 0.0000 0.0000 1.4846 0.0000 0.0000
# 5 0.0000 0.0000 0.0000 0.0000 17.8257 0.0000
# 6 0.0000 0.0000 0.0000 0.0000 0.0000 -24.7700
#
#
#
# Elastic Compliance Matrix: (Units=1/GPa)
#
#
# Indices 1 2 3 4 5 6 
#
# 1 0.022201 -0.010665 -0.005002 0.000000 0.000000 0.000000
# 2 -0.010665 0.020873 -0.002701 0.000000 0.000000 0.000000
# 3 -0.005002 -0.002701 0.022067 0.000000 0.000000 0.000000
# 4 0.000000 0.000000 0.000000 0.673567 0.000000 0.000000
# 5 0.000000 0.000000 0.000000 0.000000 0.056099 0.000000
# 6 0.000000 0.000000 0.000000 0.000000 0.000000 -0.040371
#
#
# Mechanical properties :
#
#
# Convention : Reuss Voigt Hill
#
# Bulk Modulus (GPa) = 35.20345 37.21242 36.20794
# Shear Modulus (GPa) = 6.24500 6.54468 6.39484
#
# Velocity S-wave (km/s) = 1.81361 1.85662 1.83524
# Velocity P-wave (km/s) = 4.78821 4.91890 4.85399
#
# Compressibility (1/GPa) = 0.02840630
#
# Stress axis : x y z
#
# Youngs Moduli (GPa) = 45.04298 47.90765 45.31596
#
# Poissons Ratio (x) = 0.51092 0.22668
# Poissons Ratio (y) = 0.48037 0.12239
# Poissons Ratio (z) = 0.22532 0.12939
#
# Static dielectric constant tensor:
#      x y z
#    x 1.671160 0.000000 0.000000 
#    y 0.000000 1.640990 0.000000 
#    z 0.000000 0.000000 1.676800 
# 
# From -- ./inp_files/59932.got.cif
#   From: 2010.05.17/outbox.cif.g08.bks.cpg/sg71_30_cif.got.tgz:59932.got - 2010.06.03 16:22:01.
