data_PCOD9521590
_publ_section_title
;
Structure prediction by ZEFSAII (Michael W. Deem and Ramdas Pophale) SiO2 
 PCOD9521590
Probable space group: I M M M
;
_chemical_formula_sum "Si O2"
_cell_formula_units_Z 72
_cell_length_a 10.777221
_cell_length_b 24.958459
_cell_length_c 14.412730
_cell_angle_alpha 90.000000
_cell_angle_beta 90.000000
_cell_angle_gamma 90.000000
_cell_volume 3876.776881
_symmetry_space_group_name_H-M "I M M M"
_symmetry_group_IT_number 71
_symmetry_cell_setting 'orthorhombic'
loop_
_space_group_symop_operation_xyz
x,y,z
-x,-y,z
x,-y,-z
-x,y,-z
-x,-y,-z
x,y,-z
-x,y,z
x,-y,z
1/2+x,1/2+y,1/2+z
1/2-x,1/2-y,1/2+z
1/2+x,1/2-y,1/2-z
1/2-x,1/2+y,1/2-z
1/2-x,1/2-y,1/2-z
1/2+x,1/2+y,1/2-z
1/2-x,1/2+y,1/2+z
1/2+x,1/2-y,1/2+z
loop_
_atom_site_type_symbol
_atom_site_label
_atom_site_fract_x
_atom_site_fract_y
_atom_site_fract_z
Si Si1 0.773147 0.168975 0.107703
Si Si2 0.000000 0.936113 0.609121
Si Si3 0.500000 0.854294 0.103946
Si Si4 0.237979 0.115224 0.294949
Si Si5 0.500000 0.063813 0.730441
Si Si6 0.640428 0.787537 0.610943
O O1 0.625014 0.179215 0.115261
O O2 0.794134 0.124174 0.185949
O O3 0.840614 0.224612 0.128420
O O4 0.799920 0.153890 0.000000
O O5 0.876823 0.911964 0.655026
O O6 0.000000 0.923717 0.500000
O O7 0.000000 0.000000 0.620901
O O8 0.500000 0.903839 0.173019
O O9 0.500000 0.875899 0.000000
O O10 0.367424 0.082980 0.311570
O O11 0.265811 0.174307 0.335396
O O12 0.500000 0.000000 0.738440
O O13 0.653970 0.795342 0.500000
O O14 0.500000 0.802627 0.638032
#
# Coordination Sequence:
#
# PCOD9521590 Si02
#       6
#    16   8   8  16   8  16
#     4   9  19  34  56  86 120 155 187 227 281 345
#     4  11  26  45  62  84 113 147 191 245 300 343
#     4   8  16  32  52  80 115 146 184 229 275 331
#     4  11  21  39  61  84 116 151 193 237 285 343
#     4  10  20  35  58  82 106 145 193 236 280 328
#     4  10  20  34  54  83 116 150 194 238 279 336
#
# _framework density 18.572127999999999
#
# number of rings (size 3 to 8) (size 9 to 14) (size 15 to 20)
#    0.000    2.111    1.111    2.000    1.556    1.111 
#    0.000    2.222    0.000    5.333    0.000    0.000 
#    0.000    0.000    0.000    0.000    0.000    0.000 
#
# Total GULP energy -200730.798324 kJ/mol
# GULP energy per Si atom -5575.855509 kJ/mol
# Density = 1.852986 g / cm^3
# Si number density = 18.572128 Si / 1000 Ang^3
#
#
#
# Elastic Constant Matrix: (Units=GPa)
#
#
# Indices 1 2 3 4 5 6 
#
# 1 123.0262 48.2177 65.7840 0.0000 0.0000 0.0000
# 2 48.2177 63.1313 33.6453 0.0000 0.0000 0.0000
# 3 65.7840 33.6453 75.4901 0.0000 0.0000 0.0000
# 4 0.0000 0.0000 0.0000 11.5044 0.0000 0.0000
# 5 0.0000 0.0000 0.0000 0.0000 26.2077 0.0000
# 6 0.0000 0.0000 0.0000 0.0000 0.0000 27.7639
#
#
#
# Elastic Compliance Matrix: (Units=1/GPa)
#
#
# Indices 1 2 3 4 5 6 
#
# 1 0.017158 -0.006736 -0.011950 0.000000 0.000000 0.000000
# 2 -0.006736 0.023419 -0.004567 0.000000 0.000000 0.000000
# 3 -0.011950 -0.004567 0.025696 0.000000 0.000000 0.000000
# 4 0.000000 0.000000 0.000000 0.086923 0.000000 0.000000
# 5 0.000000 0.000000 0.000000 0.000000 0.038157 0.000000
# 6 0.000000 0.000000 0.000000 0.000000 0.000000 0.036018
#
#
# Mechanical properties :
#
#
# Convention : Reuss Voigt Hill
#
# Bulk Modulus (GPa) = 50.59198 61.88238 56.23718
# Shear Modulus (GPa) = 17.82737 20.69523 19.26130
#
# Velocity S-wave (km/s) = 3.10158 3.34176 3.22391
# Velocity P-wave (km/s) = 6.33454 6.94854 6.64863
#
# Compressibility (1/GPa) = 0.01976598
#
# Stress axis : x y z
#
# Youngs Moduli (GPa) = 58.28072 42.69991 38.91678
#
# Poissons Ratio (x) = 0.28764 0.46505
# Poissons Ratio (y) = 0.39260 0.17775
# Poissons Ratio (z) = 0.69645 0.19503
#
# Static dielectric constant tensor:
#      x y z
#    x 1.656120 0.000000 0.000000 
#    y 0.000000 1.589900 0.000000 
#    z 0.000000 0.000000 1.679480 
# 
# From -- ./inp_files/31504.got.cif
#   From: 2010.05.17/outbox.cif.g08.bks.cpg/sg71_16_cif.got.tgz:31504.got - 2010.06.03 16:22:01.
