data_PCOD9521843
_publ_section_title
;
Structure prediction by ZEFSAII (Michael W. Deem and Ramdas Pophale) SiO2 
 PCOD9521843
Probable space group: I M M M
;
_chemical_formula_sum "Si O2"
_cell_formula_units_Z 82
_cell_length_a 21.172262
_cell_length_b 29.708096
_cell_length_c 8.039073
_cell_angle_alpha 90.000000
_cell_angle_beta 90.000000
_cell_angle_gamma 90.000000
_cell_volume 5056.477168
_symmetry_space_group_name_H-M "I M M M"
_symmetry_group_IT_number 71
_symmetry_cell_setting 'orthorhombic'
loop_
_space_group_symop_operation_xyz
x,y,z
-x,-y,z
x,-y,-z
-x,y,-z
-x,-y,-z
x,y,-z
-x,y,z
x,-y,z
1/2+x,1/2+y,1/2+z
1/2-x,1/2-y,1/2+z
1/2+x,1/2-y,1/2-z
1/2-x,1/2+y,1/2-z
1/2-x,1/2-y,1/2-z
1/2+x,1/2+y,1/2-z
1/2-x,1/2+y,1/2+z
1/2+x,1/2-y,1/2+z
loop_
_atom_site_type_symbol
_atom_site_label
_atom_site_fract_x
_atom_site_fract_y
_atom_site_fract_z
Si Si1 0.802753 0.712787 0.302026
Si Si2 0.745466 0.116961 0.688158
Si Si3 0.500000 0.500000 0.500000
Si Si4 0.427922 0.263060 0.301173
Si Si5 0.094118 0.081826 0.000000
Si Si6 0.241881 0.945499 0.000000
Si Si7 0.895221 0.138311 0.682846
O O1 0.798480 0.708441 0.500000
O O2 0.750000 0.750000 0.250000
O O3 0.789200 0.664107 0.223663
O O4 0.872034 0.729738 0.250577
O O5 0.731613 0.100877 0.500000
O O6 0.733385 0.080125 0.832999
O O7 0.819654 0.130854 0.691842
O O8 0.553771 0.538241 0.500000
O O9 0.423760 0.270499 0.500000
O O10 0.500000 0.248843 0.262827
O O11 0.412962 0.309994 0.210531
O O12 0.167360 0.066756 0.000000
O O13 0.079068 0.110480 0.163430
O O14 0.250926 0.000000 0.000000
O O15 0.916541 0.123409 0.500000
#
# Coordination Sequence:
#
# PCOD9521843 Si02
#       7
#    16  16   2  16   8   8  16
#     4  12  22  34  54  82 114 151 192 234 277 345
#     4  10  20  35  55  82 109 141 186 234 286 338
#     4  12  24  40  58  72  96 154 188 252 300 336
#     4  11  23  36  52  78 113 151 190 229 279 333
#     4  10  22  38  52  72 102 135 188 238 294 331
#     4  10  20  38  58  78 105 140 182 242 294 334
#     4  10  20  35  55  76 102 141 185 236 280 334
#
# _framework density 16.216823999999999
#
# number of rings (size 3 to 8) (size 9 to 14) (size 15 to 20)
#    0.000    1.366    4.390    2.341    1.366    1.951 
#    0.000    0.976    0.000    0.000    0.000    0.000 
#    0.000    1.561    0.000    4.098    0.000    0.000 
#
# Total GULP energy -228531.923762 kJ/mol
# GULP energy per Si atom -5573.949360 kJ/mol
# Density = 1.617991 g / cm^3
# Si number density = 16.216824 Si / 1000 Ang^3
#
#
#
# Elastic Constant Matrix: (Units=GPa)
#
#
# Indices 1 2 3 4 5 6 
#
# 1 58.1714 37.7050 37.6036 0.0000 0.0000 0.0000
# 2 37.7050 115.4719 61.7764 0.0000 0.0000 0.0000
# 3 37.6036 61.7764 145.6378 0.0000 0.0000 0.0000
# 4 0.0000 0.0000 0.0000 17.9064 0.0000 0.0000
# 5 0.0000 0.0000 0.0000 0.0000 7.9037 0.0000
# 6 0.0000 0.0000 0.0000 0.0000 0.0000 35.2708
#
#
#
# Elastic Compliance Matrix: (Units=1/GPa)
#
#
# Indices 1 2 3 4 5 6 
#
# 1 0.023169 -0.005646 -0.003587 0.000000 0.000000 0.000000
# 2 -0.005646 0.012578 -0.003878 0.000000 0.000000 0.000000
# 3 -0.003587 -0.003878 0.009437 0.000000 0.000000 0.000000
# 4 0.000000 0.000000 0.000000 0.055846 0.000000 0.000000
# 5 0.000000 0.000000 0.000000 0.000000 0.126524 0.000000
# 6 0.000000 0.000000 0.000000 0.000000 0.000000 0.028352
#
#
# Mechanical properties :
#
#
# Convention : Reuss Voigt Hill
#
# Bulk Modulus (GPa) = 52.73528 65.93902 59.33715
# Shear Modulus (GPa) = 17.33405 24.36257 20.84831
#
# Velocity S-wave (km/s) = 3.27294 3.88016 3.58941
# Velocity P-wave (km/s) = 6.84634 7.79893 7.33811
#
# Compressibility (1/GPa) = 0.01896264
#
# Stress axis : x y z
#
# Youngs Moduli (GPa) = 43.16067 79.50229 105.96202
#
# Poissons Ratio (x) = 0.44889 0.38011
# Poissons Ratio (y) = 0.24370 0.41087
# Poissons Ratio (z) = 0.15483 0.30827
#
# Static dielectric constant tensor:
#      x y z
#    x 1.542170 0.000000 0.000000 
#    y 0.000000 1.508920 0.000000 
#    z 0.000000 0.000000 1.579540 
# 
# From -- ./inp_files/10313.got.cif
#   From: 2010.05.17/outbox.cif.g08.bks.cpg/sg71_6_cif.got.tgz:10313.got - 2010.06.03 16:22:01.
