data_PCOD9521960
_publ_section_title
;
Structure prediction by ZEFSAII (Michael W. Deem and Ramdas Pophale) SiO2 
 PCOD9521960
Probable space group: I M M M
;
_chemical_formula_sum "Si O2"
_cell_formula_units_Z 104
_cell_length_a 28.161845
_cell_length_b 8.959057
_cell_length_c 21.442513
_cell_angle_alpha 90.000000
_cell_angle_beta 90.000000
_cell_angle_gamma 90.000000
_cell_volume 5410.022678
_symmetry_space_group_name_H-M "I M M M"
_symmetry_group_IT_number 71
_symmetry_cell_setting 'orthorhombic'
loop_
_space_group_symop_operation_xyz
x,y,z
-x,-y,z
x,-y,-z
-x,y,-z
-x,-y,-z
x,y,-z
-x,y,z
x,-y,z
1/2+x,1/2+y,1/2+z
1/2-x,1/2-y,1/2+z
1/2+x,1/2-y,1/2-z
1/2-x,1/2+y,1/2-z
1/2-x,1/2-y,1/2-z
1/2+x,1/2+y,1/2-z
1/2-x,1/2+y,1/2+z
1/2+x,1/2-y,1/2+z
loop_
_atom_site_type_symbol
_atom_site_label
_atom_site_fract_x
_atom_site_fract_y
_atom_site_fract_z
Si Si1 0.730835 0.675321 0.568567
Si Si2 0.298482 0.677385 0.162467
Si Si3 0.553035 0.821073 0.171801
Si Si4 0.622491 0.324851 0.602469
Si Si5 0.886687 0.178598 0.570850
Si Si6 0.360552 0.178825 0.736333
Si Si7 0.443978 0.179156 0.500000
O O1 0.747545 0.730040 0.500000
O O2 0.743495 0.500000 0.573983
O O3 0.752301 0.761315 0.627462
O O4 0.674026 0.685982 0.570159
O O5 0.295498 0.500000 0.171899
O O6 0.340134 0.711477 0.112008
O O7 0.315345 0.755394 0.226227
O O8 0.500000 0.773127 0.189308
O O9 0.569467 0.751615 0.106657
O O10 0.593103 0.781145 0.222174
O O11 0.553583 0.000000 0.166602
O O12 0.611097 0.500000 0.609335
O O13 0.630277 0.248888 0.669230
O O14 0.582983 0.245767 0.560173
O O15 0.881662 0.230815 0.500000
O O16 0.892240 0.000000 0.570732
O O17 0.356317 0.000000 0.732641
O O18 0.500000 0.216288 0.500000
O O19 0.439392 0.000000 0.500000
#
# Coordination Sequence:
#
# PCOD9521960 Si02
#       7
#    16  16  16  16  16  16   8
#     4  10  21  38  59  85 119 157 194 239 293 352
#     4  10  20  35  56  84 115 154 200 244 289 345
#     4   9  19  35  53  74 103 140 184 234 285 339
#     4  11  23  42  65  91 122 155 192 240 296 354
#     4   9  18  32  49  73 108 144 183 233 284 334
#     4  10  21  38  59  84 116 155 196 243 298 357
#     4  11  25  45  69  97 127 159 199 247 300 363
#
# _framework density 19.223579999999998
#
# number of rings (size 3 to 8) (size 9 to 14) (size 15 to 20)
#    0.000    2.077    0.769    2.077    0.000    6.154 
#    0.000    3.077    0.000    0.000    0.000    0.000 
#    0.000    0.000    0.000    0.000    0.000    0.000 
#
# Total GULP energy -290323.147542 kJ/mol
# GULP energy per Si atom -5583.137453 kJ/mol
# Density = 1.917983 g / cm^3
# Si number density = 19.223580 Si / 1000 Ang^3
#
#
#
# Elastic Constant Matrix: (Units=GPa)
#
#
# Indices 1 2 3 4 5 6 
#
# 1 81.0790 46.3520 37.5195 0.0000 0.0000 0.0000
# 2 46.3520 62.8231 60.7580 0.0000 0.0000 0.0000
# 3 37.5195 60.7580 155.1838 0.0000 0.0000 0.0000
# 4 0.0000 0.0000 0.0000 32.7757 0.0000 0.0000
# 5 0.0000 0.0000 0.0000 0.0000 17.1109 0.0000
# 6 0.0000 0.0000 0.0000 0.0000 0.0000 27.1388
#
#
#
# Elastic Compliance Matrix: (Units=1/GPa)
#
#
# Indices 1 2 3 4 5 6 
#
# 1 0.021586 -0.017509 0.001636 0.000000 0.000000 0.000000
# 2 -0.017509 0.039820 -0.011357 0.000000 0.000000 0.000000
# 3 0.001636 -0.011357 0.010495 0.000000 0.000000 0.000000
# 4 0.000000 0.000000 0.000000 0.030510 0.000000 0.000000
# 5 0.000000 0.000000 0.000000 0.000000 0.058442 0.000000
# 6 0.000000 0.000000 0.000000 0.000000 0.000000 0.036848
#
#
# Mechanical properties :
#
#
# Convention : Reuss Voigt Hill
#
# Bulk Modulus (GPa) = 57.33588 65.37167 61.35378
# Shear Modulus (GPa) = 19.38166 25.70220 22.54193
#
# Velocity S-wave (km/s) = 3.17870 3.66049 3.42807
# Velocity P-wave (km/s) = 6.58504 7.20731 6.90319
#
# Compressibility (1/GPa) = 0.01744108
#
# Stress axis : x y z
#
# Youngs Moduli (GPa) = 46.32564 25.11284 95.28358
#
# Poissons Ratio (x) = 0.43971 -0.15591
# Poissons Ratio (y) = 0.81113 1.08216
# Poissons Ratio (z) = -0.07580 0.28521
#
# Static dielectric constant tensor:
#      x y z
#    x 1.682530 0.000000 0.000000 
#    y 0.000000 1.646630 0.000000 
#    z 0.000000 0.000000 1.668010 
# 
# From -- ./inp_files/11123.got.cif
#   From: 2010.05.17/outbox.cif.g08.bks.cpg/sg71_6_cif.got.tgz:11123.got - 2010.06.03 16:22:01.
