data_PCOD9521753
_publ_section_title
;
Structure prediction by ZEFSAII (Michael W. Deem and Ramdas Pophale) SiO2 
 PCOD9521753
Probable space group: I M M M
;
_chemical_formula_sum "Si O2"
_cell_formula_units_Z 100
_cell_length_a 27.530301
_cell_length_b 8.293589
_cell_length_c 22.346207
_cell_angle_alpha 90.000000
_cell_angle_beta 90.000000
_cell_angle_gamma 90.000000
_cell_volume 5102.197748
_symmetry_space_group_name_H-M "I M M M"
_symmetry_group_IT_number 71
_symmetry_cell_setting 'orthorhombic'
loop_
_space_group_symop_operation_xyz
x,y,z
-x,-y,z
x,-y,-z
-x,y,-z
-x,-y,-z
x,y,-z
-x,y,z
x,-y,z
1/2+x,1/2+y,1/2+z
1/2-x,1/2-y,1/2+z
1/2+x,1/2-y,1/2-z
1/2-x,1/2+y,1/2-z
1/2-x,1/2-y,1/2-z
1/2+x,1/2+y,1/2-z
1/2-x,1/2+y,1/2+z
1/2+x,1/2-y,1/2+z
loop_
_atom_site_type_symbol
_atom_site_label
_atom_site_fract_x
_atom_site_fract_y
_atom_site_fract_z
Si Si1 0.108786 0.310934 0.000000
Si Si2 0.873090 0.690715 0.332302
Si Si3 0.091964 0.185002 0.209801
Si Si4 0.263874 0.804008 0.816878
Si Si5 0.827477 0.810739 0.890105
Si Si6 0.500000 0.243568 0.500000
Si Si7 0.500000 0.817268 0.640754
Si Si8 0.054735 0.302866 0.568308
O O1 0.142748 0.276700 0.057416
O O2 0.093121 0.500000 0.000000
O O3 0.058541 0.205530 0.000000
O O4 0.868035 0.500000 0.342727
O O5 0.900511 0.714463 0.269610
O O6 0.818417 0.755654 0.329023
O O7 0.905702 0.758767 0.385469
O O8 0.139624 0.200177 0.169146
O O9 0.047278 0.233995 0.167962
O O10 0.086017 0.000000 0.227866
O O11 0.250000 0.750000 0.750000
O O12 0.225152 0.751157 0.867637
O O13 0.262637 0.000000 0.817237
O O14 0.823768 0.000000 0.907343
O O15 0.500000 0.181488 0.568671
O O16 0.500000 0.000000 0.661966
O O17 0.064314 0.255120 0.500000
O O18 0.055125 0.500000 0.569638
O O19 0.000000 0.253375 0.584711
#
# Coordination Sequence:
#
# PCOD9521753 Si02
#       8
#     8  16  16  16  16   4   8  16
#     4  12  24  41  62  85 110 147 199 250 294 349
#     4  10  20  34  58  89 113 146 193 236 282 336
#     4  11  23  38  56  84 118 151 189 236 290 348
#     4  10  20  36  57  82 112 148 190 234 284 342
#     4  10  22  40  57  79 114 154 192 238 294 350
#     4  12  25  40  61  86 113 146 191 246 299 334
#     4  12  24  41  60  83 117 154 194 244 287 338
#     4   8  15  30  52  80 113 142 174 222 275 329
#
# _framework density 19.599398000000001
#
# number of rings (size 3 to 8) (size 9 to 14) (size 15 to 20)
#    0.000    1.760    3.200    2.160    1.120    1.280 
#    1.440    1.600    0.000    0.480    0.000    1.120 
#    0.000    0.000    0.000    0.000    0.000    0.000 
#
# Total GULP energy -278729.260932 kJ/mol
# GULP energy per Si atom -5574.585219 kJ/mol
# Density = 1.955479 g / cm^3
# Si number density = 19.599398 Si / 1000 Ang^3
#
#
#
# Elastic Constant Matrix: (Units=GPa)
#
#
# Indices 1 2 3 4 5 6 
#
# 1 149.0713 14.7541 85.5901 0.0000 0.0000 0.0000
# 2 14.7541 8.6338 8.7356 0.0000 0.0000 0.0000
# 3 85.5901 8.7356 85.0817 0.0000 0.0000 0.0000
# 4 0.0000 0.0000 0.0000 9.3368 0.0000 0.0000
# 5 0.0000 0.0000 0.0000 0.0000 33.6196 0.0000
# 6 0.0000 0.0000 0.0000 0.0000 0.0000 15.2917
#
#
#
# Elastic Compliance Matrix: (Units=1/GPa)
#
#
# Indices 1 2 3 4 5 6 
#
# 1 0.017132 -0.013212 -0.015878 0.000000 0.000000 0.000000
# 2 -0.013212 0.139440 -0.001026 0.000000 0.000000 0.000000
# 3 -0.015878 -0.001026 0.027832 0.000000 0.000000 0.000000
# 4 0.000000 0.000000 0.000000 0.107103 0.000000 0.000000
# 5 0.000000 0.000000 0.000000 0.000000 0.029745 0.000000
# 6 0.000000 0.000000 0.000000 0.000000 0.000000 0.065395
#
#
# Mechanical properties :
#
#
# Convention : Reuss Voigt Hill
#
# Bulk Modulus (GPa) = 8.05335 51.21624 29.63479
# Shear Modulus (GPa) = 10.24025 20.56341 15.40183
#
# Velocity S-wave (km/s) = 2.28826 3.24263 2.80631
# Velocity P-wave (km/s) = 3.33157 6.34096 5.06494
#
# Compressibility (1/GPa) = 0.12417195
#
# Stress axis : x y z
#
# Youngs Moduli (GPa) = 58.36887 7.17157 35.93000
#
# Poissons Ratio (x) = 0.09475 0.57051
# Poissons Ratio (y) = 0.77115 0.03686
# Poissons Ratio (z) = 0.92680 0.00736
#
# Static dielectric constant tensor:
#      x y z
#    x 1.682560 0.000000 0.000000 
#    y 0.000000 1.719100 0.000000 
#    z 0.000000 0.000000 1.644040 
# 
# From -- ./inp_files/56318.got.cif
#   From: 2010.05.17/outbox.cif.g08.bks.cpg/sg71_29_cif.got.tgz:56318.got - 2010.06.03 16:22:01.
