data_PCOD9521305
_publ_section_title
;
Structure prediction by ZEFSAII (Michael W. Deem and Ramdas Pophale) SiO2 
 PCOD9521305
Probable space group: I M M M
;
_chemical_formula_sum "Si O2"
_cell_formula_units_Z 112
_cell_length_a 13.898323
_cell_length_b 26.611471
_cell_length_c 14.231532
_cell_angle_alpha 90.000000
_cell_angle_beta 90.000000
_cell_angle_gamma 90.000000
_cell_volume 5263.600699
_symmetry_space_group_name_H-M "I M M M"
_symmetry_group_IT_number 71
_symmetry_cell_setting 'orthorhombic'
loop_
_space_group_symop_operation_xyz
x,y,z
-x,-y,z
x,-y,-z
-x,y,-z
-x,-y,-z
x,y,-z
-x,y,z
x,-y,z
1/2+x,1/2+y,1/2+z
1/2-x,1/2-y,1/2+z
1/2+x,1/2-y,1/2-z
1/2-x,1/2+y,1/2-z
1/2-x,1/2-y,1/2-z
1/2+x,1/2+y,1/2-z
1/2-x,1/2+y,1/2+z
1/2+x,1/2-y,1/2+z
loop_
_atom_site_type_symbol
_atom_site_label
_atom_site_fract_x
_atom_site_fract_y
_atom_site_fract_z
Si Si1 0.209483 0.713489 0.890625
Si Si2 0.605512 0.556702 0.887715
Si Si3 0.190604 0.599028 0.893541
Si Si4 0.806966 0.441728 0.697900
Si Si5 0.607849 0.439346 0.392408
Si Si6 0.613794 0.252917 0.217938
Si Si7 0.614335 0.845464 0.897005
O O1 0.164997 0.657435 0.886264
O O2 0.315452 0.712487 0.843170
O O3 0.146253 0.750545 0.826235
O O4 0.215787 0.727195 0.000000
O O5 0.500000 0.570938 0.850795
O O6 0.629205 0.500000 0.851587
O O7 0.694265 0.593647 0.879843
O O8 0.596162 0.551704 0.000000
O O9 0.156112 0.567544 0.804159
O O10 0.167642 0.581241 0.000000
O O11 0.819718 0.500000 0.672282
O O12 0.693962 0.428106 0.679134
O O13 0.859826 0.401236 0.634053
O O14 0.631923 0.423692 0.500000
O O15 0.500000 0.420661 0.370288
O O16 0.602310 0.500000 0.393980
O O17 0.500000 0.262240 0.206881
O O18 0.640634 0.197345 0.177468
O O19 0.500000 0.842049 0.902866
O O20 0.655611 0.834174 0.000000
#
# Coordination Sequence:
#
# PCOD9521305 Si02
#       7
#    16  16  16  16  16  16  16
#     4  10  21  38  63  93 121 152 197 246 293 355
#     4   8  14  25  41  63  97 144 191 230 271 322
#     4  10  20  34  51  77 112 151 191 234 285 338
#     4  11  21  33  53  81 112 152 200 245 292 344
#     4   8  15  29  48  70  98 135 181 231 282 338
#     4  10  21  40  65  92 122 157 195 239 302 369
#     4  10  21  38  60  85 113 147 191 245 303 357
#
# _framework density 21.278210000000001
#
# number of rings (size 3 to 8) (size 9 to 14) (size 15 to 20)
#    0.000    2.429    1.429    2.143    0.000    4.286 
#    0.000    3.571    0.000    0.429    0.000    1.000 
#    0.000    0.000    0.000    0.000    0.000    0.000 
#
# Total GULP energy -312063.248892 kJ/mol
# GULP energy per Si atom -5572.558016 kJ/mol
# Density = 2.122978 g / cm^3
# Si number density = 21.278210 Si / 1000 Ang^3
#
#
#
# Elastic Constant Matrix: (Units=GPa)
#
#
# Indices 1 2 3 4 5 6 
#
# 1 13.9955 -4.8621 3.4305 0.0000 0.0000 0.0000
# 2 -4.8621 35.3466 -0.6238 0.0001 0.0000 0.0000
# 3 3.4305 -0.6238 122.4760 0.0001 0.0000 0.0000
# 4 0.0000 0.0001 0.0001 23.2234 0.0000 0.0000
# 5 0.0000 0.0000 0.0000 0.0000 16.3859 0.0000
# 6 0.0000 0.0000 0.0000 0.0000 0.0000 22.2050
#
#
#
# Elastic Compliance Matrix: (Units=1/GPa)
#
#
# Indices 1 2 3 4 5 6 
#
# 1 0.075555 0.010357 -0.002064 0.000000 0.000000 0.000000
# 2 0.010357 0.029713 -0.000139 0.000000 0.000000 0.000000
# 3 -0.002064 -0.000139 0.008222 0.000000 0.000000 0.000000
# 4 0.000000 0.000000 0.000000 0.043060 0.000000 0.000000
# 5 0.000000 0.000000 0.000000 0.000000 0.061028 0.000000
# 6 0.000000 0.000000 0.000000 0.000000 0.000000 0.045035
#
#
# Mechanical properties :
#
#
# Convention : Reuss Voigt Hill
#
# Bulk Modulus (GPa) = 7.70421 18.63415 13.16918
# Shear Modulus (GPa) = 17.26690 23.95442 20.61066
#
# Velocity S-wave (km/s) = 2.85174 3.35889 3.11565
# Velocity P-wave (km/s) = 3.80418 4.88050 4.37556
#
# Compressibility (1/GPa) = 0.12979911
#
# Stress axis : x y z
#
# Youngs Moduli (GPa) = 13.23537 33.65481 121.62556
#
# Poissons Ratio (x) = -0.34855 0.25098
# Poissons Ratio (y) = -0.13707 0.01688
# Poissons Ratio (z) = 0.02731 0.00467
#
# Static dielectric constant tensor:
#      x y z
#    x 1.802060 0.000000 0.000000 
#    y 0.000000 1.762090 0.000000 
#    z 0.000000 0.000000 1.837970 
# 
# From -- ./inp_files/35144.got.cif
#   From: 2010.05.17/outbox.cif.g08.bks.cpg/sg71_18_cif.got.tgz:35144.got - 2010.06.03 16:22:01.
