data_PCOD9521421
_publ_section_title
;
Structure prediction by ZEFSAII (Michael W. Deem and Ramdas Pophale) SiO2 
 PCOD9521421
Probable space group: I M M M
;
_chemical_formula_sum "Si O2"
_cell_formula_units_Z 88
_cell_length_a 9.302794
_cell_length_b 29.532475
_cell_length_c 14.981527
_cell_angle_alpha 90.000000
_cell_angle_beta 90.000000
_cell_angle_gamma 90.000000
_cell_volume 4115.942798
_symmetry_space_group_name_H-M "I M M M"
_symmetry_group_IT_number 71
_symmetry_cell_setting 'orthorhombic'
loop_
_space_group_symop_operation_xyz
x,y,z
-x,-y,z
x,-y,-z
-x,y,-z
-x,-y,-z
x,y,-z
-x,y,z
x,-y,z
1/2+x,1/2+y,1/2+z
1/2-x,1/2-y,1/2+z
1/2+x,1/2-y,1/2-z
1/2-x,1/2+y,1/2-z
1/2-x,1/2-y,1/2-z
1/2+x,1/2+y,1/2-z
1/2-x,1/2+y,1/2+z
1/2+x,1/2-y,1/2+z
loop_
_atom_site_type_symbol
_atom_site_label
_atom_site_fract_x
_atom_site_fract_y
_atom_site_fract_z
Si Si1 0.673513 0.261078 0.157598
Si Si2 0.334119 0.500000 0.390878
Si Si3 0.660753 0.323700 0.397602
Si Si4 0.334406 0.090440 0.109710
Si Si5 0.164137 0.862961 0.392006
Si Si6 0.832370 0.549278 0.108959
O O1 0.500000 0.257237 0.156981
O O2 0.750000 0.250000 0.250000
O O3 0.745983 0.221792 0.099783
O O4 0.712786 0.312462 0.132716
O O5 0.500000 0.500000 0.361694
O O6 0.335430 0.500000 0.500000
O O7 0.249507 0.545138 0.363325
O O8 0.640679 0.337357 0.500000
O O9 0.500000 0.317153 0.358116
O O10 0.750731 0.364978 0.356511
O O11 0.500000 0.090200 0.138822
O O12 0.337355 0.090985 0.000000
O O13 0.165127 0.864507 0.500000
O O14 0.253937 0.905740 0.358766
O O15 0.000000 0.867823 0.361579
O O16 0.773912 0.500000 0.137820
O O17 0.000000 0.551251 0.132447
O O18 0.824796 0.549627 0.000000
#
# Coordination Sequence:
#
# PCOD9521421 Si02
#       6
#    16   8  16  16  16  16
#     4  11  23  38  54  74 102 137 177 219 265 314
#     4   9  15  23  37  61  95 129 161 201 248 297
#     4  10  20  34  53  77 103 132 169 212 259 312
#     4   9  16  26  42  66  96 129 163 201 248 299
#     4   9  18  32  51  76 105 137 173 214 259 308
#     4   8  14  25  43  71 106 138 167 203 248 299
#
# _framework density 21.380279000000002
#
# number of rings (size 3 to 8) (size 9 to 14) (size 15 to 20)
#    0.000    2.636    0.000    3.000    0.000    6.909 
#    0.000    3.636    0.000    0.000    2.364    0.000 
#    0.000    0.000    0.000    0.000    0.000    0.000 
#
# Total GULP energy -245503.628906 kJ/mol
# GULP energy per Si atom -5579.627930 kJ/mol
# Density = 2.133162 g / cm^3
# Si number density = 21.380279 Si / 1000 Ang^3
#
#
#
# Elastic Constant Matrix: (Units=GPa)
#
#
# Indices 1 2 3 4 5 6 
#
# 1 152.7415 128.2113 9.2506 0.0000 0.0000 0.0000
# 2 128.2113 251.1754 8.8292 0.0000 0.0000 0.0000
# 3 9.2506 8.8292 25.9819 0.0000 0.0000 0.0000
# 4 0.0000 0.0000 0.0000 2.2185 0.0000 0.0000
# 5 0.0000 0.0000 0.0000 0.0000 9.2622 0.0000
# 6 0.0000 0.0000 0.0000 0.0000 0.0000 43.5192
#
#
#
# Elastic Compliance Matrix: (Units=1/GPa)
#
#
# Indices 1 2 3 4 5 6 
#
# 1 0.011571 -0.005831 -0.002138 0.000000 0.000000 0.000000
# 2 -0.005831 0.006968 -0.000292 0.000000 0.000000 0.000000
# 3 -0.002138 -0.000292 0.039349 -0.000001 0.000000 0.000000
# 4 0.000000 0.000000 -0.000001 0.450761 0.000000 0.000000
# 5 0.000000 0.000000 0.000000 0.000000 0.107966 0.000000
# 6 0.000000 0.000000 0.000000 0.000000 0.000000 0.022978
#
#
# Mechanical properties :
#
#
# Convention : Reuss Voigt Hill
#
# Bulk Modulus (GPa) = 24.17467 80.27568 52.22517
# Shear Modulus (GPa) = 7.46374 29.90715 18.68544
#
# Velocity S-wave (km/s) = 1.87043 3.74414 2.95948
# Velocity P-wave (km/s) = 3.99953 7.50463 6.01314
#
# Compressibility (1/GPa) = 0.04136562
#
# Stress axis : x y z
#
# Youngs Moduli (GPa) = 86.42003 143.51018 25.41374
#
# Poissons Ratio (x) = 0.83687 0.05434
# Poissons Ratio (y) = 0.50395 0.00741
# Poissons Ratio (z) = 0.18479 0.04186
#
# Static dielectric constant tensor:
#      x y z
#    x 1.751660 0.000000 0.000000 
#    y 0.000000 1.822480 0.000000 
#    z 0.000000 0.000000 1.993360 
# 
# From -- ./inp_files/42468.got.cif
#   From: 2010.05.17/outbox.cif.g08.bks.cpg/sg71_22_cif.got.tgz:42468.got - 2010.06.03 16:22:01.
