data_PCOD9521758
_publ_section_title
;
Structure prediction by ZEFSAII (Michael W. Deem and Ramdas Pophale) SiO2 
 PCOD9521758
Probable space group: I M M M
;
_chemical_formula_sum "Si O2"
_cell_formula_units_Z 100
_cell_length_a 29.630160
_cell_length_b 21.186891
_cell_length_c 7.627614
_cell_angle_alpha 90.000000
_cell_angle_beta 90.000000
_cell_angle_gamma 90.000000
_cell_volume 4788.394641
_symmetry_space_group_name_H-M "I M M M"
_symmetry_group_IT_number 71
_symmetry_cell_setting 'orthorhombic'
loop_
_space_group_symop_operation_xyz
x,y,z
-x,-y,z
x,-y,-z
-x,y,-z
-x,-y,-z
x,y,-z
-x,y,z
x,-y,z
1/2+x,1/2+y,1/2+z
1/2-x,1/2-y,1/2+z
1/2+x,1/2-y,1/2-z
1/2-x,1/2+y,1/2-z
1/2-x,1/2-y,1/2-z
1/2+x,1/2+y,1/2-z
1/2-x,1/2+y,1/2+z
1/2+x,1/2-y,1/2+z
loop_
_atom_site_type_symbol
_atom_site_label
_atom_site_fract_x
_atom_site_fract_y
_atom_site_fract_z
Si Si1 0.806614 0.106621 0.710519
Si Si2 0.552704 0.430452 0.288634
Si Si3 0.389197 0.308085 0.798266
Si Si4 0.948694 0.427659 0.785669
Si Si5 0.223287 0.685801 0.790449
Si Si6 0.174961 0.000000 0.000000
Si Si7 0.377675 0.826633 0.298498
O O1 0.809499 0.091089 0.500000
O O2 0.839031 0.166836 0.739323
O O3 0.755906 0.127649 0.757016
O O4 0.823407 0.054291 0.844396
O O5 0.555356 0.431789 0.500000
O O6 0.500000 0.425666 0.239676
O O7 0.569324 0.500000 0.227841
O O8 0.579478 0.369094 0.230271
O O9 0.398803 0.243530 0.699438
O O10 0.392112 0.290537 0.000000
O O11 0.938314 0.500000 0.736143
O O12 0.911974 0.377564 0.720712
O O13 0.000000 0.412976 0.729628
O O14 0.949128 0.425670 0.000000
O O15 0.250000 0.750000 0.750000
O O16 0.172532 0.679846 0.718325
O O17 0.219967 0.685188 0.000000
O O18 0.371067 0.846699 0.500000
#
# Coordination Sequence:
#
# PCOD9521758 Si02
#       7
#    16  16  16  16  16   4  16
#     4  10  24  42  59  92 126 162 211 261 308 365
#     4   9  20  38  59  81 107 144 194 249 301 361
#     4  11  23  36  54  83 120 156 196 253 302 359
#     4   8  15  31  56  87 119 148 189 248 310 373
#     4  10  20  36  59  82 117 156 201 259 307 370
#     4  12  26  40  68  86 121 178 209 254 316 368
#     4  10  20  34  59  89 114 155 206 245 301 368
#
# _framework density 20.883825999999999
#
# number of rings (size 3 to 8) (size 9 to 14) (size 15 to 20)
#    0.000    2.240    1.600    1.680    4.480    1.280 
#    1.440    2.400    0.000    0.480    0.000    1.120 
#    0.000    0.000    0.000    0.000    0.000    0.000 
#
# Total GULP energy -278437.457415 kJ/mol
# GULP energy per Si atom -5568.749148 kJ/mol
# Density = 2.083629 g / cm^3
# Si number density = 20.883826 Si / 1000 Ang^3
#
#
#
# Elastic Constant Matrix: (Units=GPa)
#
#
# Indices 1 2 3 4 5 6 
#
# 1 123.2836 76.6255 11.9865 0.0000 0.0000 0.0000
# 2 76.6255 109.1019 30.2717 0.0000 0.0000 0.0000
# 3 11.9865 30.2717 50.5719 0.0000 0.0000 0.0000
# 4 0.0000 0.0000 0.0000 40.1511 0.0000 0.0000
# 5 0.0000 0.0000 0.0000 0.0000 9.2618 0.0000
# 6 0.0000 0.0000 0.0000 0.0000 0.0000 -173.6620
#
#
#
# Elastic Compliance Matrix: (Units=1/GPa)
#
#
# Indices 1 2 3 4 5 6 
#
# 1 0.014831 -0.011321 0.003261 0.000000 0.000000 0.000000
# 2 -0.011321 0.019633 -0.009069 0.000000 0.000000 0.000000
# 3 0.003261 -0.009069 0.024429 0.000000 0.000000 0.000000
# 4 0.000000 0.000000 0.000000 0.024906 0.000000 0.000000
# 5 0.000000 0.000000 0.000000 0.000000 0.107970 0.000000
# 6 0.000000 0.000000 0.000000 0.000000 0.000000 -0.005758
#
#
# Mechanical properties :
#
#
# Convention : Reuss Voigt Hill
#
# Bulk Modulus (GPa) = 40.59045 57.85831 49.22438
# Shear Modulus (GPa) = 21.88377 -13.91159 3.98609
#
# Velocity S-wave (km/s) = 3.24061 -2.58377 1.38306
# Velocity P-wave (km/s) = 5.78624 4.34325 5.11588
#
# Compressibility (1/GPa) = 0.02463634
#
# Stress axis : x y z
#
# Youngs Moduli (GPa) = 67.42776 50.93456 40.93445
#
# Poissons Ratio (x) = 0.57663 -0.13350
# Poissons Ratio (y) = 0.76335 0.37123
# Poissons Ratio (z) = -0.21991 0.46192
#
# Static dielectric constant tensor:
#      x y z
#    x 1.804410 0.000000 0.000000 
#    y 0.000000 1.739060 0.000000 
#    z 0.000000 0.000000 1.792670 
# 
# From -- ./inp_files/16975.got.cif
#   From: 2010.05.17/outbox.cif.g08.bks.cpg/sg71_9_cif.got.tgz:16975.got - 2010.06.03 16:22:01.
