data_PCOD9521326
_publ_section_title
;
Structure prediction by ZEFSAII (Michael W. Deem and Ramdas Pophale) SiO2 
 PCOD9521326
Probable space group: I M M M
;
_chemical_formula_sum "Si O2"
_cell_formula_units_Z 96
_cell_length_a 30.816193
_cell_length_b 7.401868
_cell_length_c 19.859890
_cell_angle_alpha 90.000000
_cell_angle_beta 90.000000
_cell_angle_gamma 90.000000
_cell_volume 4529.989131
_symmetry_space_group_name_H-M "I M M M"
_symmetry_group_IT_number 71
_symmetry_cell_setting 'orthorhombic'
loop_
_space_group_symop_operation_xyz
x,y,z
-x,-y,z
x,-y,-z
-x,y,-z
-x,-y,-z
x,y,-z
-x,y,z
x,-y,z
1/2+x,1/2+y,1/2+z
1/2-x,1/2-y,1/2+z
1/2+x,1/2-y,1/2-z
1/2-x,1/2+y,1/2-z
1/2-x,1/2-y,1/2-z
1/2+x,1/2+y,1/2-z
1/2-x,1/2+y,1/2+z
1/2+x,1/2-y,1/2+z
loop_
_atom_site_type_symbol
_atom_site_label
_atom_site_fract_x
_atom_site_fract_y
_atom_site_fract_z
Si Si1 0.695744 0.788669 0.076178
Si Si2 0.228302 0.714410 0.176064
Si Si3 0.049462 0.719693 0.427260
Si Si4 0.450836 0.219942 0.421587
Si Si5 0.120216 0.279104 0.326015
Si Si6 0.129083 0.720888 0.172854
O O1 0.740796 0.777185 0.115943
O O2 0.660412 0.714052 0.128693
O O3 0.684723 0.000000 0.069360
O O4 0.696372 0.714125 0.000000
O O5 0.225993 0.500000 0.172486
O O6 0.250000 0.750000 0.250000
O O7 0.179139 0.781226 0.163918
O O8 0.068150 0.773257 0.500000
O O9 0.049277 0.500000 0.426546
O O10 0.077756 0.779223 0.365530
O O11 0.000000 0.779007 0.423630
O O12 0.445407 0.271666 0.500000
O O13 0.500000 0.275542 0.400182
O O14 0.409665 0.279964 0.376907
O O15 0.450838 0.000000 0.419402
O O16 0.122127 0.500000 0.324423
O O17 0.119437 0.222881 0.249256
O O18 0.129264 0.500000 0.169544
#
# Coordination Sequence:
#
# PCOD9521326 Si02
#       6
#    16  16  16  16  16  16
#     4  10  20  34  52  73  99 133 171 208 251 305
#     4  11  21  35  53  73 102 136 172 215 260 305
#     4   8  13  20  31  51  81 116 151 187 230 281
#     4   8  14  25  40  60  91 129 163 197 244 303
#     4   9  15  25  40  60  88 123 159 196 242 292
#     4   9  17  27  43  65  90 123 162 201 245 299
#
# _framework density 21.192104
#
# number of rings (size 3 to 8) (size 9 to 14) (size 15 to 20)
#    0.000    2.833    1.667    2.000    0.000    3.667 
#    0.000    5.000    0.000    0.000    0.000    0.000 
#    0.000    4.667    0.000   12.667    0.000   11.333 
#
# Total GULP energy -267654.834925 kJ/mol
# GULP energy per Si atom -5576.142394 kJ/mol
# Density = 2.114387 g / cm^3
# Si number density = 21.192104 Si / 1000 Ang^3
#
#
#
# Elastic Constant Matrix: (Units=GPa)
#
#
# Indices 1 2 3 4 5 6 
#
# 1 161.6287 -4.6115 103.9368 0.0000 0.0000 0.0000
# 2 -4.6115 69.5145 0.3071 0.0000 0.0000 0.0000
# 3 103.9368 0.3071 162.2397 0.0000 0.0000 0.0000
# 4 0.0000 0.0000 0.0000 -2.0371 0.0000 0.0000
# 5 0.0000 0.0000 0.0000 0.0000 44.7175 0.0000
# 6 0.0000 0.0000 0.0000 0.0000 0.0000 8.0179
#
#
#
# Elastic Compliance Matrix: (Units=1/GPa)
#
#
# Indices 1 2 3 4 5 6 
#
# 1 0.010559 0.000730 -0.006766 0.000000 0.000000 0.000000
# 2 0.000730 0.014436 -0.000495 0.000000 0.000000 0.000000
# 3 -0.006766 -0.000495 0.010499 0.000000 0.000000 0.000000
# 4 0.000000 0.000000 0.000000 -0.490888 0.000000 0.000000
# 5 0.000000 0.000000 0.000000 0.000000 0.022363 0.000000
# 6 0.000000 0.000000 0.000000 0.000000 0.000000 0.124721
#
#
# Mechanical properties :
#
#
# Convention : Reuss Voigt Hill
#
# Bulk Modulus (GPa) = 44.57782 65.84976 55.21379
# Shear Modulus (GPa) = -17.37485 29.72302 6.17408
#
# Velocity S-wave (km/s) = -2.86645 3.74913 1.70872
# Velocity P-wave (km/s) = 3.18204 7.06269 5.47754
#
# Compressibility (1/GPa) = 0.02243268
#
# Stress axis : x y z
#
# Youngs Moduli (GPa) = 94.71023 69.27071 95.24773
#
# Poissons Ratio (x) = -0.05059 0.64441
# Poissons Ratio (y) = -0.06917 0.04717
# Poissons Ratio (z) = 0.64077 0.03430
#
# Static dielectric constant tensor:
#      x y z
#    x 1.702750 0.000000 0.000000 
#    y 0.000000 1.713460 0.000000 
#    z 0.000000 0.000000 1.718090 
# 
# From -- ./inp_files/14883.got.cif
#   From: 2010.05.17/outbox.cif.g08.bks.cpg/sg71_8_cif.got.tgz:14883.got - 2010.06.03 16:22:01.
