data_PCOD9521323
_publ_section_title
;
Structure prediction by ZEFSAII (Michael W. Deem and Ramdas Pophale) SiO2 
 PCOD9521323
Probable space group: I M M M
;
_chemical_formula_sum "Si O2"
_cell_formula_units_Z 112
_cell_length_a 13.593770
_cell_length_b 29.225155
_cell_length_c 15.364455
_cell_angle_alpha 90.000000
_cell_angle_beta 90.000000
_cell_angle_gamma 90.000000
_cell_volume 6103.991225
_symmetry_space_group_name_H-M "I M M M"
_symmetry_group_IT_number 71
_symmetry_cell_setting 'orthorhombic'
loop_
_space_group_symop_operation_xyz
x,y,z
-x,-y,z
x,-y,-z
-x,y,-z
-x,-y,-z
x,y,-z
-x,y,z
x,-y,z
1/2+x,1/2+y,1/2+z
1/2-x,1/2-y,1/2+z
1/2+x,1/2-y,1/2-z
1/2-x,1/2+y,1/2-z
1/2-x,1/2-y,1/2-z
1/2+x,1/2+y,1/2-z
1/2-x,1/2+y,1/2+z
1/2+x,1/2-y,1/2+z
loop_
_atom_site_type_symbol
_atom_site_label
_atom_site_fract_x
_atom_site_fract_y
_atom_site_fract_z
Si Si1 0.262106 0.098853 0.737408
Si Si2 0.892365 0.730593 0.354445
Si Si3 0.884085 0.444577 0.602095
Si Si4 0.107366 0.820889 0.246827
Si Si5 0.886196 0.945049 0.599566
Si Si6 0.820652 0.761458 0.092334
Si Si7 0.888893 0.325870 0.173285
O O1 0.311632 0.076309 0.823700
O O2 0.191199 0.141628 0.759275
O O3 0.192984 0.069524 0.672499
O O4 0.348952 0.123263 0.683408
O O5 0.886942 0.783841 0.324540
O O6 0.792175 0.722308 0.404628
O O7 0.887530 0.698559 0.268564
O O8 0.000000 0.722847 0.394553
O O9 0.861755 0.432125 0.500000
O O10 0.878024 0.500000 0.607312
O O11 0.000000 0.432050 0.617935
O O12 0.119698 0.787930 0.164796
O O13 0.000000 0.842547 0.248636
O O14 0.862554 0.929256 0.500000
O O15 0.000000 0.930395 0.618093
O O16 0.887096 0.000000 0.597796
O O17 0.825202 0.707706 0.113862
O O18 0.865591 0.770612 0.000000
O O19 0.000000 0.324961 0.141397
#
# Coordination Sequence:
#
# PCOD9521323 Si02
#       7
#    16  16  16  16  16  16  16
#     4  12  19  33  60  88 110 138 186 229 289 320
#     4   9  17  35  53  69  97 140 180 213 261 313
#     4   9  20  39  60  84 114 146 181 222 275 344
#     4  10  20  34  52  73 103 139 180 224 263 315
#     4   9  20  39  60  84 114 146 181 222 275 344
#     4  11  20  34  51  70 103 150 186 215 267 325
#     4  10  20  34  52  73 103 139 180 224 263 315
#
# _framework density 18.348649000000002
#
# number of rings (size 3 to 8) (size 9 to 14) (size 15 to 20)
#    0.000    2.000    2.857    4.286    0.000    2.571 
#    0.000    0.000    0.000    2.571    0.000   10.000 
#    0.000    0.000    0.000    0.000    0.000    0.000 
#
# Total GULP energy -311786.163141 kJ/mol
# GULP energy per Si atom -5567.610056 kJ/mol
# Density = 1.830689 g / cm^3
# Si number density = 18.348649 Si / 1000 Ang^3
#
#
#
# Elastic Constant Matrix: (Units=GPa)
#
#
# Indices 1 2 3 4 5 6 
#
# 1 104.1888 13.8585 23.3281 0.0000 -0.0001 0.0000
# 2 13.8585 42.4649 12.3896 0.0000 -0.0001 0.0000
# 3 23.3281 12.3896 65.6098 0.0001 0.0005 0.0000
# 4 0.0000 0.0000 0.0001 -5.1924 0.0005 0.0000
# 5 -0.0001 -0.0001 0.0005 0.0005 -34.4459 0.0000
# 6 0.0000 0.0000 0.0000 0.0000 0.0000 23.5590
#
#
#
# Elastic Compliance Matrix: (Units=1/GPa)
#
#
# Indices 1 2 3 4 5 6 
#
# 1 0.010676 -0.002515 -0.003321 0.000000 0.000000 0.000000
# 2 -0.002515 0.025515 -0.003924 0.000000 0.000000 0.000000
# 3 -0.003321 -0.003924 0.017163 0.000000 0.000000 0.000000
# 4 0.000000 0.000000 0.000000 -0.192591 -0.000003 0.000000
# 5 0.000000 0.000000 0.000000 -0.000003 -0.029031 0.000000
# 6 0.000000 0.000000 0.000000 0.000000 0.000000 0.042447
#
#
# Mechanical properties :
#
#
# Convention : Reuss Voigt Hill
#
# Bulk Modulus (GPa) = 29.55611 34.60177 32.07894
# Shear Modulus (GPa) = -52.61874 7.62996 -22.49439
#
# Velocity S-wave (km/s) = -5.36092 2.04141 -3.50514
# Velocity P-wave (km/s) = 4.70916 4.94523 1.06751
#
# Compressibility (1/GPa) = 0.03383395
#
# Stress axis : x y z
#
# Youngs Moduli (GPa) = 93.66720 39.19339 58.26354
#
# Poissons Ratio (x) = 0.09858 0.19349
# Poissons Ratio (y) = 0.23559 0.22861
# Poissons Ratio (z) = 0.31107 0.15379
#
# Static dielectric constant tensor:
#      x y z
#    x 1.665620 0.000000 0.000000 
#    y 0.000000 1.631980 0.000000 
#    z 0.000000 0.000000 1.672930 
# 
# From -- ./inp_files/35146.got.cif
#   From: 2010.05.17/outbox.cif.g08.bks.cpg/sg71_18_cif.got.tgz:35146.got - 2010.06.03 16:22:01.
