data_PCOD9521287
_publ_section_title
;
Structure prediction by ZEFSAII (Michael W. Deem and Ramdas Pophale) SiO2 
 PCOD9521287
Probable space group: I M M M
;
_chemical_formula_sum "Si O2"
_cell_formula_units_Z 88
_cell_length_a 13.789190
_cell_length_b 13.585309
_cell_length_c 27.118143
_cell_angle_alpha 90.000000
_cell_angle_beta 90.000000
_cell_angle_gamma 90.000000
_cell_volume 5080.052766
_symmetry_space_group_name_H-M "I M M M"
_symmetry_group_IT_number 71
_symmetry_cell_setting 'orthorhombic'
loop_
_space_group_symop_operation_xyz
x,y,z
-x,-y,z
x,-y,-z
-x,y,-z
-x,-y,-z
x,y,-z
-x,y,z
x,-y,z
1/2+x,1/2+y,1/2+z
1/2-x,1/2-y,1/2+z
1/2+x,1/2-y,1/2-z
1/2-x,1/2+y,1/2-z
1/2-x,1/2-y,1/2-z
1/2+x,1/2+y,1/2-z
1/2-x,1/2+y,1/2+z
1/2+x,1/2-y,1/2+z
loop_
_atom_site_type_symbol
_atom_site_label
_atom_site_fract_x
_atom_site_fract_y
_atom_site_fract_z
Si Si1 0.111061 0.618437 0.644217
Si Si2 0.384874 0.883666 0.643199
Si Si3 0.608832 0.380915 0.701724
Si Si4 0.613386 0.617866 0.500000
Si Si5 0.694542 0.880675 0.750278
Si Si6 0.198324 0.799879 0.899177
O O1 0.126452 0.500000 0.639748
O O2 0.132853 0.645211 0.701279
O O3 0.190308 0.673580 0.611487
O O4 0.000000 0.639873 0.631915
O O5 0.500000 0.867255 0.638509
O O6 0.350502 0.852405 0.698089
O O7 0.326505 0.815056 0.605915
O O8 0.366851 0.000000 0.637194
O O9 0.500000 0.346602 0.713354
O O10 0.608316 0.500000 0.702671
O O11 0.694637 0.348842 0.738894
O O12 0.639527 0.349678 0.646523
O O13 0.619919 0.500000 0.500000
O O14 0.500000 0.645585 0.500000
O O15 0.662842 0.658435 0.549227
O O16 0.695079 0.000000 0.749189
#
# Coordination Sequence:
#
# PCOD9521287 Si02
#       6
#    16  16  16   8  16  16
#     4   9  17  31  52  78 107 136 165 201 249 305
#     4  10  20  34  51  71  99 136 175 213 250 290
#     4   9  16  27  45  72 105 135 163 202 253 305
#     4  11  22  36  56  80 104 129 158 200 260 321
#     4   8  15  28  46  69  99 136 172 203 242 297
#     4  11  21  34  51  73 100 131 171 211 252 301
#
# _framework density 17.322654
#
# number of rings (size 3 to 8) (size 9 to 14) (size 15 to 20)
#    0.000    2.455    0.000    4.909    0.000    6.545 
#    0.000    3.636    0.000    4.909    0.000    0.000 
#    0.000    1.455    0.000    0.000    0.000    0.000 
#
# Total GULP energy -245627.098135 kJ/mol
# GULP energy per Si atom -5582.434049 kJ/mol
# Density = 1.728323 g / cm^3
# Si number density = 17.322654 Si / 1000 Ang^3
#
#
#
# Elastic Constant Matrix: (Units=GPa)
#
#
# Indices 1 2 3 4 5 6 
#
# 1 150.1532 52.5517 52.6717 0.0000 0.0000 0.0000
# 2 52.5517 75.0015 30.2986 0.0000 0.0000 0.0000
# 3 52.6717 30.2986 86.7345 0.0000 0.0000 0.0000
# 4 0.0000 0.0000 0.0000 23.9381 0.0000 0.0000
# 5 0.0000 0.0000 0.0000 0.0000 11.8896 0.0000
# 6 0.0000 0.0000 0.0000 0.0000 0.0000 22.6787
#
#
#
# Elastic Compliance Matrix: (Units=1/GPa)
#
#
# Indices 1 2 3 4 5 6 
#
# 1 0.009994 -0.005298 -0.004218 0.000000 0.000000 0.000000
# 2 -0.005298 0.018333 -0.003186 0.000000 0.000000 0.000000
# 3 -0.004218 -0.003186 0.015204 0.000000 0.000000 0.000000
# 4 0.000000 0.000000 0.000000 0.041774 0.000000 0.000000
# 5 0.000000 0.000000 0.000000 0.000000 0.084107 0.000000
# 6 0.000000 0.000000 0.000000 0.000000 0.000000 0.044094
#
#
# Mechanical properties :
#
#
# Convention : Reuss Voigt Hill
#
# Bulk Modulus (GPa) = 55.17352 64.77034 59.97193
# Shear Modulus (GPa) = 20.41193 23.45908 21.93550
#
# Velocity S-wave (km/s) = 3.43642 3.68400 3.56236
# Velocity P-wave (km/s) = 6.90398 7.45436 7.18444
#
# Compressibility (1/GPa) = 0.01812464
#
# Stress axis : x y z
#
# Youngs Moduli (GPa) = 100.06055 54.54690 65.77146
#
# Poissons Ratio (x) = 0.28902 0.27744
# Poissons Ratio (y) = 0.53017 0.20958
# Poissons Ratio (z) = 0.42207 0.17381
#
# Static dielectric constant tensor:
#      x y z
#    x 1.593510 0.000000 0.000000 
#    y 0.000000 1.646580 0.000000 
#    z 0.000000 0.000000 1.544720 
# 
# From -- ./inp_files/34427.got.cif
#   From: 2010.05.17/outbox.cif.g08.bks.cpg/sg71_18_cif.got.tgz:34427.got - 2010.06.03 16:22:01.
