data_PCOD9521991
_publ_section_title
;
Structure prediction by ZEFSAII (Michael W. Deem and Ramdas Pophale) SiO2 
 PCOD9521991
Probable space group: I M M M
;
_chemical_formula_sum "Si O2"
_cell_formula_units_Z 88
_cell_length_a 22.771497
_cell_length_b 22.677976
_cell_length_c 7.606607
_cell_angle_alpha 90.000000
_cell_angle_beta 90.000000
_cell_angle_gamma 90.000000
_cell_volume 3928.139045
_symmetry_space_group_name_H-M "I M M M"
_symmetry_group_IT_number 71
_symmetry_cell_setting 'orthorhombic'
loop_
_space_group_symop_operation_xyz
x,y,z
-x,-y,z
x,-y,-z
-x,y,-z
-x,-y,-z
x,y,-z
-x,y,z
x,-y,z
1/2+x,1/2+y,1/2+z
1/2-x,1/2-y,1/2+z
1/2+x,1/2-y,1/2-z
1/2-x,1/2+y,1/2-z
1/2-x,1/2-y,1/2-z
1/2+x,1/2+y,1/2-z
1/2-x,1/2+y,1/2+z
1/2+x,1/2-y,1/2+z
loop_
_atom_site_type_symbol
_atom_site_label
_atom_site_fract_x
_atom_site_fract_y
_atom_site_fract_z
Si Si1 0.258676 0.068058 0.295543
Si Si2 0.930612 0.000000 0.701709
Si Si3 0.931492 0.233344 0.215683
Si Si4 0.849953 0.662214 0.804043
Si Si5 0.069444 0.563822 0.291286
Si Si6 0.867041 0.884622 0.799669
O O1 0.276414 0.063529 0.500000
O O2 0.300440 0.119860 0.217913
O O3 0.193205 0.094230 0.288065
O O4 0.260219 0.000000 0.224313
O O5 0.907764 0.941705 0.793322
O O6 0.908271 0.000000 0.500000
O O7 0.000000 0.000000 0.698551
O O8 0.882844 0.281266 0.276472
O O9 0.904780 0.170234 0.270473
O O10 0.000000 0.241963 0.271522
O O11 0.932822 0.236061 0.000000
O O12 0.903069 0.616218 0.813421
O O13 0.828739 0.679640 0.000000
O O14 0.080458 0.571315 0.500000
O O15 0.093907 0.500000 0.238537
O O16 0.000000 0.562832 0.268165
O O17 0.851309 0.869503 0.000000
#
# Coordination Sequence:
#
# PCOD9521991 Si02
#       6
#    16   8  16  16  16  16
#     4  10  21  37  56  81 118 155 190 241 294 334
#     4  11  23  39  61  89 119 149 184 237 300 349
#     4   9  19  36  57  84 118 149 186 242 293 336
#     4  10  20  35  57  82 109 151 196 232 281 342
#     4   9  18  32  49  73 108 146 185 238 297 341
#     4  11  22  37  60  87 114 152 197 236 284 347
#
# _framework density 22.402464999999999
#
# number of rings (size 3 to 8) (size 9 to 14) (size 15 to 20)
#    0.000    2.091    0.909    3.000    0.000    5.091 
#    0.000    2.727    0.000    4.364    0.000    0.000 
#    0.000    0.000    0.000    0.000    0.000    0.000 
#
# Total GULP energy -245318.326999 kJ/mol
# GULP energy per Si atom -5575.416523 kJ/mol
# Density = 2.235148 g / cm^3
# Si number density = 22.402465 Si / 1000 Ang^3
#
#
#
# Elastic Constant Matrix: (Units=GPa)
#
#
# Indices 1 2 3 4 5 6 
#
# 1 123.2769 68.3924 5.6936 0.0000 0.0000 0.0000
# 2 68.3924 168.2445 -0.8810 0.0000 0.0000 0.0000
# 3 5.6936 -0.8810 41.1401 0.0000 0.0000 0.0000
# 4 0.0000 0.0000 0.0000 -55.1027 0.0000 0.0000
# 5 0.0000 0.0000 0.0000 0.0000 45.6028 0.0000
# 6 0.0000 0.0000 0.0000 0.0000 0.0000 40.7190
#
#
#
# Elastic Compliance Matrix: (Units=1/GPa)
#
#
# Indices 1 2 3 4 5 6 
#
# 1 0.010573 -0.004306 -0.001555 0.000000 0.000000 0.000000
# 2 -0.004306 0.007698 0.000761 0.000000 0.000000 0.000000
# 3 -0.001555 0.000761 0.024539 0.000000 0.000000 0.000000
# 4 0.000000 0.000000 0.000000 -0.018148 0.000000 0.000000
# 5 0.000000 0.000000 0.000000 0.000000 0.021928 0.000000
# 6 0.000000 0.000000 0.000000 0.000000 0.000000 0.024559
#
#
# Mechanical properties :
#
#
# Convention : Reuss Voigt Hill
#
# Bulk Modulus (GPa) = 30.66707 53.23016 41.94862
# Shear Modulus (GPa) = 54.21870 23.54090 38.87980
#
# Velocity S-wave (km/s) = 4.92490 3.24515 4.17047
# Velocity P-wave (km/s) = 6.78663 6.15254 6.47735
#
# Compressibility (1/GPa) = 0.03260826
#
# Stress axis : x y z
#
# Youngs Moduli (GPa) = 94.58469 129.90203 40.75187
#
# Poissons Ratio (x) = 0.55935 0.06339
# Poissons Ratio (y) = 0.40728 -0.03100
# Poissons Ratio (z) = 0.14712 -0.09883
#
# Static dielectric constant tensor:
#      x y z
#    x 1.829540 0.000000 0.000000 
#    y 0.000000 1.855320 0.000000 
#    z 0.000000 0.000000 1.914900 
# 
# From -- ./inp_files/12513.got.cif
#   From: 2010.05.17/outbox.cif.g08.bks.cpg/sg71_7_cif.got.tgz:12513.got - 2010.06.03 16:22:01.
