data_PCOD9521446
_publ_section_title
;
Structure prediction by ZEFSAII (Michael W. Deem and Ramdas Pophale) SiO2 
 PCOD9521446
Probable space group: I M M M
;
_chemical_formula_sum "Si O2"
_cell_formula_units_Z 104
_cell_length_a 28.377676
_cell_length_b 7.761774
_cell_length_c 22.631942
_cell_angle_alpha 90.000000
_cell_angle_beta 90.000000
_cell_angle_gamma 90.000000
_cell_volume 4984.936616
_symmetry_space_group_name_H-M "I M M M"
_symmetry_group_IT_number 71
_symmetry_cell_setting 'orthorhombic'
loop_
_space_group_symop_operation_xyz
x,y,z
-x,-y,z
x,-y,-z
-x,y,-z
-x,-y,-z
x,y,-z
-x,y,z
x,-y,z
1/2+x,1/2+y,1/2+z
1/2-x,1/2-y,1/2+z
1/2+x,1/2-y,1/2-z
1/2-x,1/2+y,1/2-z
1/2-x,1/2-y,1/2-z
1/2+x,1/2+y,1/2-z
1/2-x,1/2+y,1/2+z
1/2+x,1/2-y,1/2+z
loop_
_atom_site_type_symbol
_atom_site_label
_atom_site_fract_x
_atom_site_fract_y
_atom_site_fract_z
Si Si1 0.115645 0.709953 0.933439
Si Si2 0.945294 0.799597 0.626955
Si Si3 0.776861 0.293577 0.067793
Si Si4 0.553721 0.788430 0.674677
Si Si5 0.378037 0.195163 0.224778
Si Si6 0.055359 0.705899 0.500000
Si Si7 0.277227 0.794531 0.810809
O O1 0.116485 0.500000 0.931928
O O2 0.169298 0.766355 0.919529
O O3 0.075767 0.763382 0.887773
O O4 0.105056 0.763672 0.000000
O O5 0.914281 0.692125 0.671069
O O6 0.925647 0.778393 0.560884
O O7 0.000000 0.742999 0.627862
O O8 0.943780 0.000000 0.643616
O O9 0.778257 0.500000 0.063426
O O10 0.745493 0.257548 0.126082
O O11 0.763837 0.232679 0.000000
O O12 0.500000 0.731166 0.684628
O O13 0.591682 0.724830 0.722525
O O14 0.552722 0.000000 0.677870
O O15 0.329918 0.276215 0.201121
O O16 0.366116 0.000000 0.244485
O O17 0.058702 0.500000 0.500000
O O18 0.000000 0.755604 0.500000
O O19 0.250000 0.750000 0.750000
O O20 0.279653 0.000000 0.814779
#
# Coordination Sequence:
#
# PCOD9521446 Si02
#       7
#    16  16  16  16  16   8  16
#     4   8  14  26  46  73 105 139 172 207 256 320
#     4  10  20  34  53  78 107 137 173 219 267 315
#     4   9  18  35  58  81 109 147 185 225 280 342
#     4   9  16  26  44  71 102 136 175 218 259 307
#     4  10  21  36  52  73 102 142 185 223 272 331
#     4   9  17  31  53  77 101 135 175 211 253 309
#     4  11  23  38  58  82 109 144 187 237 287 339
#
# _framework density 20.862853000000001
#
# number of rings (size 3 to 8) (size 9 to 14) (size 15 to 20)
#    0.000    2.538    0.000    3.462    0.000    6.769 
#    1.385    1.538    0.000    0.000    0.000    0.000 
#    0.000    0.000    0.000   11.231    0.000   10.769 
#
# Total GULP energy -289790.816171 kJ/mol
# GULP energy per Si atom -5572.900311 kJ/mol
# Density = 2.081537 g / cm^3
# Si number density = 20.862853 Si / 1000 Ang^3
#
#
#
# Elastic Constant Matrix: (Units=GPa)
#
#
# Indices 1 2 3 4 5 6 
#
# 1 77.8044 1.1274 45.5975 0.0000 0.0000 0.0000
# 2 1.1274 25.3445 7.6153 0.0000 0.0000 0.0000
# 3 45.5975 7.6153 103.0534 0.0000 0.0000 0.0000
# 4 0.0000 0.0000 0.0000 12.8296 0.0000 0.0000
# 5 0.0000 0.0000 0.0000 0.0000 36.8698 0.0000
# 6 0.0000 0.0000 0.0000 0.0000 0.0000 11.1941
#
#
#
# Elastic Compliance Matrix: (Units=1/GPa)
#
#
# Indices 1 2 3 4 5 6 
#
# 1 0.017414 0.001575 -0.007821 0.000000 0.000000 0.000000
# 2 0.001575 0.040495 -0.003690 0.000000 0.000000 0.000000
# 3 -0.007821 -0.003690 0.013437 0.000000 0.000000 0.000000
# 4 0.000000 0.000000 0.000000 0.077945 0.000000 0.000000
# 5 0.000000 0.000000 0.000000 0.000000 0.027122 0.000000
# 6 0.000000 0.000000 0.000000 0.000000 0.000000 0.089333
#
#
# Mechanical properties :
#
#
# Convention : Reuss Voigt Hill
#
# Bulk Modulus (GPa) = 19.42703 34.98696 27.20700
# Shear Modulus (GPa) = 16.51395 22.30284 19.40839
#
# Velocity S-wave (km/s) = 2.81650 3.27314 3.05337
# Velocity P-wave (km/s) = 4.46194 5.57593 5.04974
#
# Compressibility (1/GPa) = 0.05147466
#
# Stress axis : x y z
#
# Youngs Moduli (GPa) = 57.42629 24.69454 74.42126
#
# Poissons Ratio (x) = -0.03891 0.58207
# Poissons Ratio (y) = -0.09047 0.27458
# Poissons Ratio (z) = 0.44915 0.09111
#
# Static dielectric constant tensor:
#      x y z
#    x 1.757240 0.000000 0.000000 
#    y 0.000000 1.806240 0.000000 
#    z 0.000000 0.000000 1.799100 
# 
# From -- ./inp_files/56252.got.cif
#   From: 2010.05.17/outbox.cif.g08.bks.cpg/sg71_29_cif.got.tgz:56252.got - 2010.06.03 16:22:01.
