data_PCOD9521648
_publ_section_title
;
Structure prediction by ZEFSAII (Michael W. Deem and Ramdas Pophale) SiO2 
 PCOD9521648
Probable space group: I M M M
;
_chemical_formula_sum "Si O2"
_cell_formula_units_Z 100
_cell_length_a 8.736548
_cell_length_b 21.116217
_cell_length_c 29.816360
_cell_angle_alpha 90.000000
_cell_angle_beta 90.000000
_cell_angle_gamma 90.000000
_cell_volume 5500.606873
_symmetry_space_group_name_H-M "I M M M"
_symmetry_group_IT_number 71
_symmetry_cell_setting 'orthorhombic'
loop_
_space_group_symop_operation_xyz
x,y,z
-x,-y,z
x,-y,-z
-x,y,-z
-x,-y,-z
x,y,-z
-x,y,z
x,-y,z
1/2+x,1/2+y,1/2+z
1/2-x,1/2-y,1/2+z
1/2+x,1/2-y,1/2-z
1/2-x,1/2+y,1/2-z
1/2-x,1/2-y,1/2-z
1/2+x,1/2+y,1/2-z
1/2-x,1/2+y,1/2+z
1/2+x,1/2-y,1/2+z
loop_
_atom_site_type_symbol
_atom_site_label
_atom_site_fract_x
_atom_site_fract_y
_atom_site_fract_z
Si Si1 0.182084 0.310109 0.139232
Si Si2 0.829869 0.872419 0.284248
Si Si3 0.315971 0.315319 0.693878
Si Si4 0.181738 0.569669 0.361638
Si Si5 0.000000 0.000000 0.263883
Si Si6 0.682147 0.260758 0.948821
Si Si7 0.319196 0.620308 0.448210
O O1 0.231908 0.367914 0.170805
O O2 0.232202 0.248053 0.168143
O O3 0.260091 0.305838 0.090754
O O4 0.000000 0.307653 0.133617
O O5 0.759285 0.830314 0.244137
O O6 0.000000 0.846062 0.295630
O O7 0.868423 0.942904 0.266831
O O8 0.500000 0.314154 0.696819
O O9 0.265933 0.374845 0.664360
O O10 0.232008 0.500000 0.346362
O O11 0.225091 0.578691 0.413555
O O12 0.000000 0.575400 0.355796
O O13 0.500000 0.250876 0.944802
O O14 0.766135 0.193195 0.942832
O O15 0.713863 0.282380 0.000000
O O16 0.293997 0.602734 0.500000
O O17 0.500000 0.615671 0.438428
#
# Coordination Sequence:
#
# PCOD9521648 Si02
#       7
#    16  16  16  16   4  16  16
#     4  11  21  34  55  90 120 146 187 237 292 338
#     4   9  20  37  59  81 111 151 193 233 276 340
#     4  10  21  35  56  80 110 150 193 236 287 334
#     4  11  24  36  49  73 104 146 195 240 289 343
#     4   8  20  40  62  84 109 158 205 232 278 346
#     4  10  20  34  55  82 114 152 188 228 286 348
#     4  10  20  35  53  73  99 137 188 242 292 341
#
# _framework density 18.179812999999999
#
# number of rings (size 3 to 8) (size 9 to 14) (size 15 to 20)
#    0.480    1.440    1.600    2.400    1.120    4.800 
#    0.000    2.000    0.000    0.000    0.000    1.120 
#    0.000    1.280    0.000    0.000    0.000    0.000 
#
# Total GULP energy -278349.920391 kJ/mol
# GULP energy per Si atom -5566.998408 kJ/mol
# Density = 1.813843 g / cm^3
# Si number density = 18.179813 Si / 1000 Ang^3
#
#
#
# Elastic Constant Matrix: (Units=GPa)
#
#
# Indices 1 2 3 4 5 6 
#
# 1 8.3364 -0.7144 9.0924 0.0000 0.0000 0.0000
# 2 -0.7144 29.1142 9.4701 0.0000 0.0000 0.0000
# 3 9.0924 9.4701 80.0607 0.0000 0.0000 0.0000
# 4 0.0000 0.0000 0.0000 11.5064 0.0000 0.0000
# 5 0.0000 0.0000 0.0000 0.0000 25.3802 0.0000
# 6 0.0000 0.0000 0.0000 0.0000 0.0000 23.1735
#
#
#
# Elastic Compliance Matrix: (Units=1/GPa)
#
#
# Indices 1 2 3 4 5 6 
#
# 1 0.139095 0.008893 -0.016849 0.000000 0.000000 0.000000
# 2 0.008893 0.036291 -0.005303 0.000000 0.000000 0.000000
# 3 -0.016849 -0.005303 0.015031 0.000000 0.000000 0.000000
# 4 0.000000 0.000000 0.000000 0.086908 0.000000 0.000000
# 5 0.000000 0.000000 0.000000 0.000000 0.039401 0.000000
# 6 0.000000 0.000000 0.000000 0.000000 0.000000 0.043153
#
#
# Mechanical properties :
#
#
# Convention : Reuss Voigt Hill
#
# Bulk Modulus (GPa) = 6.10125 17.02306 11.56216
# Shear Modulus (GPa) = 11.33714 18.65624 14.99669
#
# Velocity S-wave (km/s) = 2.49993 3.20692 2.87524
# Velocity P-wave (km/s) = 3.41997 4.80588 4.17089
#
# Compressibility (1/GPa) = 0.16390078
#
# Stress axis : x y z
#
# Youngs Moduli (GPa) = 7.18932 27.55535 66.52794
#
# Poissons Ratio (x) = -0.24506 1.12092
# Poissons Ratio (y) = -0.06394 0.35278
# Poissons Ratio (z) = 0.12113 0.14612
#
# Static dielectric constant tensor:
#      x y z
#    x 1.624080 0.000000 0.000000 
#    y 0.000000 1.618790 0.000000 
#    z 0.000000 0.000000 1.668250 
# 
# From -- ./inp_files/68258.got.cif
#   From: 2010.05.17/outbox.cif.g08.bks.cpg/sg71_35_cif.got.tgz:68258.got - 2010.06.03 16:22:01.
