data_PCOD9521192
_publ_section_title
;
Structure prediction by ZEFSAII (Michael W. Deem and Ramdas Pophale) SiO2 
 PCOD9521192
Probable space group: I M M M
;
_chemical_formula_sum "Si O2"
_cell_formula_units_Z 108
_cell_length_a 23.904821
_cell_length_b 16.027623
_cell_length_c 14.893871
_cell_angle_alpha 90.000000
_cell_angle_beta 90.000000
_cell_angle_gamma 90.000000
_cell_volume 5706.399888
_symmetry_space_group_name_H-M "I M M M"
_symmetry_group_IT_number 71
_symmetry_cell_setting 'orthorhombic'
loop_
_space_group_symop_operation_xyz
x,y,z
-x,-y,z
x,-y,-z
-x,y,-z
-x,-y,-z
x,y,-z
-x,y,z
x,-y,z
1/2+x,1/2+y,1/2+z
1/2-x,1/2-y,1/2+z
1/2+x,1/2-y,1/2-z
1/2-x,1/2+y,1/2-z
1/2-x,1/2-y,1/2-z
1/2+x,1/2+y,1/2-z
1/2-x,1/2+y,1/2+z
1/2+x,1/2-y,1/2+z
loop_
_atom_site_type_symbol
_atom_site_label
_atom_site_fract_x
_atom_site_fract_y
_atom_site_fract_z
Si Si1 0.935573 0.676861 0.900802
Si Si2 0.919796 0.125591 0.901654
Si Si3 0.750079 0.590558 0.176521
Si Si4 0.000000 0.000000 0.818481
Si Si5 0.204267 0.740813 0.600024
Si Si6 0.708109 0.593586 0.366644
Si Si7 0.134686 0.633890 0.726569
Si Si8 0.932026 0.500000 0.608447
O O1 0.933155 0.777083 0.896877
O O2 0.903291 0.647079 0.813619
O O3 0.000000 0.649714 0.897068
O O4 0.912707 0.652141 0.000000
O O5 0.951461 0.072537 0.827953
O O6 0.853703 0.112878 0.898732
O O7 0.939147 0.095313 0.000000
O O8 0.746404 0.500000 0.130463
O O9 0.737327 0.673584 0.120726
O O10 0.706638 0.593759 0.258742
O O11 0.809079 0.595136 0.229596
O O12 0.180120 0.744814 0.500000
O O13 0.248852 0.664805 0.603823
O O14 0.157999 0.715680 0.674308
O O15 0.725649 0.500000 0.394392
O O16 0.100280 0.577737 0.655617
O O17 0.924560 0.500000 0.500000
O O18 0.000000 0.500000 0.625448
#
# Coordination Sequence:
#
# PCOD9521192 Si02
#       8
#    16  16  16   4  16  16  16   8
#     4  10  21  36  57  84 115 157 206 250 300 364
#     4  11  19  30  46  73 113 152 189 231 284 348
#     4  10  21  39  58  83 113 153 199 249 305 361
#     4  12  21  28  42  72 118 152 183 232 283 344
#     4  11  23  37  58  89 120 157 204 251 307 376
#     4  10  20  33  53  79 111 149 190 240 296 354
#     4  11  21  41  62  87 122 158 197 259 314 372
#     4  11  24  42  66  95 122 158 207 260 319 379
#
# _framework density 18.926117000000001
#
# number of rings (size 3 to 8) (size 9 to 14) (size 15 to 20)
#    0.000    1.407    2.222    5.556    1.037    2.963 
#    0.000    0.370    0.000    1.333    0.000    0.000 
#    0.000    0.000    0.000   11.630    0.000    0.444 
#
# Total GULP energy -300605.518948 kJ/mol
# GULP energy per Si atom -5566.768869 kJ/mol
# Density = 1.888304 g / cm^3
# Si number density = 18.926117 Si / 1000 Ang^3
#
#
#
# Elastic Constant Matrix: (Units=GPa)
#
#
# Indices 1 2 3 4 5 6 
#
# 1 92.4281 27.8053 45.6015 0.0000 0.0000 0.0000
# 2 27.8053 95.5042 41.7594 0.0000 0.0000 0.0000
# 3 45.6015 41.7594 106.1628 0.0000 0.0000 0.0000
# 4 0.0000 0.0000 0.0000 -91.2425 0.0000 0.0000
# 5 0.0000 0.0000 0.0000 0.0000 20.2702 0.0000
# 6 0.0000 0.0000 0.0000 0.0000 0.0000 21.2410
#
#
#
# Elastic Compliance Matrix: (Units=1/GPa)
#
#
# Indices 1 2 3 4 5 6 
#
# 1 0.013965 -0.001743 -0.005313 0.000000 0.000000 0.000000
# 2 -0.001743 0.012863 -0.004311 0.000000 0.000000 0.000000
# 3 -0.005313 -0.004311 0.013397 0.000000 0.000000 0.000000
# 4 0.000000 0.000000 0.000000 -0.010960 0.000000 0.000000
# 5 0.000000 0.000000 0.000000 0.000000 0.049334 0.000000
# 6 0.000000 0.000000 0.000000 0.000000 0.000000 0.047079
#
#
# Mechanical properties :
#
#
# Convention : Reuss Voigt Hill
#
# Bulk Modulus (GPa) = 57.16991 58.26975 57.71983
# Shear Modulus (GPa) = 32.41654 1.98233 17.19943
#
# Velocity S-wave (km/s) = 4.14308 1.02454 3.01785
# Velocity P-wave (km/s) = 7.29104 5.67930 6.53505
#
# Compressibility (1/GPa) = 0.01749172
#
# Stress axis : x y z
#
# Youngs Moduli (GPa) = 71.60893 77.74126 74.64083
#
# Poissons Ratio (x) = 0.13547 0.39657
# Poissons Ratio (y) = 0.12479 0.32179
# Poissons Ratio (z) = 0.38046 0.33516
#
# Static dielectric constant tensor:
#      x y z
#    x 1.664550 0.000000 0.000000 
#    y 0.000000 1.683510 0.000000 
#    z 0.000000 0.000000 1.698940 
# 
# From -- ./inp_files/39323.got.cif
#   From: 2010.05.17/outbox.cif.g08.bks.cpg/sg71_20_cif.got.tgz:39323.got - 2010.06.03 16:22:01.
