data_PCOD9521044
_publ_section_title
;
Structure prediction by ZEFSAII (Michael W. Deem and Ramdas Pophale) SiO2 
 PCOD9521044
Probable space group: I M M M
;
_chemical_formula_sum "Si O2"
_cell_formula_units_Z 96
_cell_length_a 28.019894
_cell_length_b 20.831536
_cell_length_c 7.425773
_cell_angle_alpha 90.000000
_cell_angle_beta 90.000000
_cell_angle_gamma 90.000000
_cell_volume 4334.404620
_symmetry_space_group_name_H-M "I M M M"
_symmetry_group_IT_number 71
_symmetry_cell_setting 'orthorhombic'
loop_
_space_group_symop_operation_xyz
x,y,z
-x,-y,z
x,-y,-z
-x,y,-z
-x,-y,-z
x,y,-z
-x,y,z
x,-y,z
1/2+x,1/2+y,1/2+z
1/2-x,1/2-y,1/2+z
1/2+x,1/2-y,1/2-z
1/2-x,1/2+y,1/2-z
1/2-x,1/2-y,1/2-z
1/2+x,1/2+y,1/2-z
1/2-x,1/2+y,1/2+z
1/2+x,1/2-y,1/2+z
loop_
_atom_site_type_symbol
_atom_site_label
_atom_site_fract_x
_atom_site_fract_y
_atom_site_fract_z
Si Si1 0.447470 0.291448 0.220693
Si Si2 0.731980 0.821638 0.784669
Si Si3 0.806248 0.927850 0.217845
Si Si4 0.553958 0.073423 0.282478
Si Si5 0.082290 0.929216 0.290567
Si Si6 0.874314 0.313540 0.709338
O O1 0.500000 0.267271 0.272021
O O2 0.440766 0.364591 0.283705
O O3 0.405230 0.245322 0.285891
O O4 0.445830 0.291642 0.000000
O O5 0.750000 0.750000 0.750000
O O6 0.769818 0.873893 0.715759
O O7 0.678002 0.826252 0.712927
O O8 0.730333 0.832248 0.000000
O O9 0.860513 0.919452 0.282287
O O10 0.790771 0.000000 0.268228
O O11 0.808397 0.925081 0.000000
O O12 0.554259 0.074511 0.500000
O O13 0.500000 0.090118 0.223789
O O14 0.592652 0.123909 0.218605
O O15 0.563730 0.000000 0.226544
O O16 0.068040 0.931973 0.500000
O O17 0.071902 0.000000 0.212222
O O18 0.866372 0.296999 0.500000
#
# Coordination Sequence:
#
# PCOD9521044 Si02
#       6
#    16  16  16  16  16  16
#     4   9  17  29  46  70 100 129 157 196 244 288
#     4  10  21  35  52  75 102 133 168 207 250 296
#     4   9  18  33  51  70  96 130 163 196 240 291
#     4   9  19  36  55  75 102 134 166 204 253 307
#     4   9  17  30  50  74  97 124 161 201 238 281
#     4  10  20  33  51  75 101 131 169 210 250 295
#
# _framework density 22.14837
#
# number of rings (size 3 to 8) (size 9 to 14) (size 15 to 20)
#    0.000    2.667    0.000    2.000    0.000    5.000 
#    0.000    5.000    0.000    3.500    0.000    2.333 
#    0.000    0.000    0.000    0.000    0.000    0.000 
#
# Total GULP energy -268072.916230 kJ/mol
# GULP energy per Si atom -5584.852421 kJ/mol
# Density = 2.209796 g / cm^3
# Si number density = 22.148370 Si / 1000 Ang^3
#
#
#
# Elastic Constant Matrix: (Units=GPa)
#
#
# Indices 1 2 3 4 5 6 
#
# 1 61.8433 24.9700 -11.6002 0.0000 0.0000 0.0000
# 2 24.9700 85.2233 -13.6211 0.0000 0.0000 0.0000
# 3 -11.6002 -13.6211 70.7268 0.0000 0.0000 0.0000
# 4 0.0000 0.0000 0.0000 1.4938 0.0000 0.0000
# 5 0.0000 0.0000 0.0000 0.0000 8.7970 0.0000
# 6 0.0000 0.0000 0.0000 0.0000 0.0000 42.9527
#
#
#
# Elastic Compliance Matrix: (Units=1/GPa)
#
#
# Indices 1 2 3 4 5 6 
#
# 1 0.018628 -0.005127 0.002068 0.000000 0.000000 0.000000
# 2 -0.005127 0.013518 0.001762 0.000000 0.000000 0.000000
# 3 0.002068 0.001762 0.014817 0.000000 0.000000 0.000000
# 4 0.000000 0.000000 0.000000 0.669415 0.000000 0.000000
# 5 0.000000 0.000000 0.000000 0.000000 0.113676 0.000000
# 6 0.000000 0.000000 0.000000 0.000000 0.000000 0.023281
#
#
# Mechanical properties :
#
#
# Convention : Reuss Voigt Hill
#
# Bulk Modulus (GPa) = 22.53832 24.14343 23.34087
# Shear Modulus (GPa) = 5.74238 25.18501 15.46369
#
# Velocity S-wave (km/s) = 1.61193 3.37576 2.64519
# Velocity P-wave (km/s) = 3.69629 5.11065 4.45989
#
# Compressibility (1/GPa) = 0.04436888
#
# Stress axis : x y z
#
# Youngs Moduli (GPa) = 53.68253 73.97610 67.48789
#
# Poissons Ratio (x) = 0.37931 -0.13955
# Poissons Ratio (y) = 0.27525 -0.11894
# Poissons Ratio (z) = -0.11100 -0.13038
#
# Static dielectric constant tensor:
#      x y z
#    x 1.780790 0.000000 0.000000 
#    y 0.000000 1.795320 0.000000 
#    z 0.000000 0.000000 1.885950 
# 
# From -- ./inp_files/10853.got.cif
#   From: 2010.05.17/outbox.cif.g08.bks.cpg/sg71_6_cif.got.tgz:10853.got - 2010.06.03 16:22:01.
