data_PCOD9521481
_publ_section_title
;
Structure prediction by ZEFSAII (Michael W. Deem and Ramdas Pophale) SiO2 
 PCOD9521481
Probable space group: I M M M
;
_chemical_formula_sum "Si O2"
_cell_formula_units_Z 88
_cell_length_a 8.083202
_cell_length_b 23.184062
_cell_length_c 23.201886
_cell_angle_alpha 90.000000
_cell_angle_beta 90.000000
_cell_angle_gamma 90.000000
_cell_volume 4348.067226
_symmetry_space_group_name_H-M "I M M M"
_symmetry_group_IT_number 71
_symmetry_cell_setting 'orthorhombic'
loop_
_space_group_symop_operation_xyz
x,y,z
-x,-y,z
x,-y,-z
-x,y,-z
-x,-y,-z
x,y,-z
-x,y,z
x,-y,z
1/2+x,1/2+y,1/2+z
1/2-x,1/2-y,1/2+z
1/2+x,1/2-y,1/2-z
1/2-x,1/2+y,1/2-z
1/2-x,1/2-y,1/2-z
1/2+x,1/2+y,1/2-z
1/2-x,1/2+y,1/2+z
1/2+x,1/2-y,1/2+z
loop_
_atom_site_type_symbol
_atom_site_label
_atom_site_fract_x
_atom_site_fract_y
_atom_site_fract_z
Si Si1 0.701516 0.161181 0.125979
Si Si2 0.804346 0.437819 0.709711
Si Si3 0.187267 0.649300 0.500000
Si Si4 0.693396 0.793835 0.627351
Si Si5 0.201537 0.000000 0.433384
Si Si6 0.308387 0.587940 0.835573
Si Si7 0.193549 0.725235 0.000000
O O1 0.500000 0.163050 0.123961
O O2 0.760421 0.117490 0.175161
O O3 0.760818 0.137682 0.063188
O O4 0.758550 0.227017 0.135635
O O5 0.733679 0.500000 0.691659
O O6 0.782219 0.431611 0.777935
O O7 0.000000 0.438811 0.697412
O O8 0.190483 0.719111 0.500000
O O9 0.000000 0.626509 0.500000
O O10 0.500000 0.800183 0.640742
O O11 0.790111 0.843248 0.660164
O O12 0.720171 0.806863 0.559441
O O13 0.250666 0.944991 0.393547
O O14 0.261269 0.000000 0.500000
O O15 0.000000 0.000000 0.436844
O O16 0.500000 0.572600 0.828608
O O17 0.000000 0.745038 0.000000
#
# Coordination Sequence:
#
# PCOD9521481 Si02
#       7
#    16  16   8  16   8  16   8
#     4   9  18  34  56  82 110 143 180 220 268 322
#     4  10  21  38  58  78 107 145 182 222 272 324
#     4   8  14  28  51  78 107 135 172 215 257 312
#     4  10  20  34  53  81 112 143 178 223 274 322
#     4   9  20  38  57  81 111 142 181 228 272 315
#     4  11  22  37  58  81 108 143 184 226 268 320
#     4   8  16  30  48  72 108 143 173 208 261 323
#
# _framework density 20.238876999999999
#
# number of rings (size 3 to 8) (size 9 to 14) (size 15 to 20)
#    0.000    2.455    0.909    1.091    1.273    2.182 
#    0.000    0.455    0.000    4.909    0.000    0.000 
#    0.000    8.727    0.000    0.000    0.000    0.000 
#
# Total GULP energy -245137.506323 kJ/mol
# GULP energy per Si atom -5571.306962 kJ/mol
# Density = 2.019281 g / cm^3
# Si number density = 20.238877 Si / 1000 Ang^3
#
#
#
# Elastic Constant Matrix: (Units=GPa)
#
#
# Indices 1 2 3 4 5 6 
#
# 1 13.6990 1.6664 -0.6423 0.0000 0.0000 0.0000
# 2 1.6664 122.5438 57.5474 0.0000 0.0000 0.0000
# 3 -0.6423 57.5474 90.4070 0.0000 0.0000 0.0000
# 4 0.0000 0.0000 0.0000 21.1924 0.0000 0.0000
# 5 0.0000 0.0000 0.0000 0.0000 17.6198 0.0000
# 6 0.0000 0.0000 0.0000 0.0000 0.0000 6.7076
#
#
#
# Elastic Compliance Matrix: (Units=1/GPa)
#
#
# Indices 1 2 3 4 5 6 
#
# 1 0.073291 -0.001770 0.001648 0.000000 0.000000 0.000000
# 2 -0.001770 0.011682 -0.007449 0.000000 0.000000 0.000000
# 3 0.001648 -0.007449 0.015814 0.000000 0.000000 0.000000
# 4 0.000000 0.000000 0.000000 0.047187 0.000000 0.000000
# 5 0.000000 0.000000 0.000000 0.000000 0.056754 0.000000
# 6 0.000000 0.000000 0.000000 0.000000 0.000000 0.149085
#
#
# Mechanical properties :
#
#
# Convention : Reuss Voigt Hill
#
# Bulk Modulus (GPa) = 11.67622 38.19920 24.93771
# Shear Modulus (GPa) = 12.57847 20.30917 16.44382
#
# Velocity S-wave (km/s) = 2.49570 3.17120 2.85351
# Velocity P-wave (km/s) = 3.75318 5.68541 4.81717
#
# Compressibility (1/GPa) = 0.08564414
#
# Stress axis : x y z
#
# Youngs Moduli (GPa) = 13.64428 85.59825 63.23391
#
# Poissons Ratio (x) = 0.15154 -0.10418
# Poissons Ratio (y) = 0.02416 0.47102
# Poissons Ratio (z) = -0.02248 0.63761
#
# Static dielectric constant tensor:
#      x y z
#    x 1.725060 0.000000 0.000000 
#    y 0.000000 1.714990 0.000000 
#    z 0.000000 0.000000 1.751300 
# 
# From -- ./inp_files/50579.got.cif
#   From: 2010.05.17/outbox.cif.g08.bks.cpg/sg71_26_cif.got.tgz:50579.got - 2010.06.03 16:22:01.
