data_PCOD9521344
_publ_section_title
;
Structure prediction by ZEFSAII (Michael W. Deem and Ramdas Pophale) SiO2 
 PCOD9521344
Probable space group: I M M M
;
_chemical_formula_sum "Si O2"
_cell_formula_units_Z 80
_cell_length_a 8.622517
_cell_length_b 22.767226
_cell_length_c 23.182650
_cell_angle_alpha 90.000000
_cell_angle_beta 90.000000
_cell_angle_gamma 90.000000
_cell_volume 4551.004411
_symmetry_space_group_name_H-M "I M M M"
_symmetry_group_IT_number 71
_symmetry_cell_setting 'orthorhombic'
loop_
_space_group_symop_operation_xyz
x,y,z
-x,-y,z
x,-y,-z
-x,y,-z
-x,-y,-z
x,y,-z
-x,y,z
x,-y,z
1/2+x,1/2+y,1/2+z
1/2-x,1/2-y,1/2+z
1/2+x,1/2-y,1/2-z
1/2-x,1/2+y,1/2-z
1/2-x,1/2-y,1/2-z
1/2+x,1/2+y,1/2-z
1/2-x,1/2+y,1/2+z
1/2+x,1/2-y,1/2+z
loop_
_atom_site_type_symbol
_atom_site_label
_atom_site_fract_x
_atom_site_fract_y
_atom_site_fract_z
Si Si1 0.688079 0.068115 0.873964
Si Si2 0.179154 0.428618 0.500000
Si Si3 0.685748 0.665807 0.709644
Si Si4 0.687330 0.205396 0.669968
Si Si5 0.678163 0.500000 0.069981
Si Si6 0.686926 0.124989 0.566109
O O1 0.500000 0.069650 0.875324
O O2 0.746696 0.087921 0.937783
O O3 0.749062 0.110751 0.824978
O O4 0.732982 0.000000 0.865051
O O5 0.176340 0.500000 0.500000
O O6 0.000000 0.408683 0.500000
O O7 0.500000 0.663580 0.710823
O O8 0.734125 0.726673 0.677946
O O9 0.748627 0.671019 0.774554
O O10 0.500000 0.203420 0.671773
O O11 0.739227 0.174627 0.610912
O O12 0.500000 0.500000 0.088640
O O13 0.759210 0.439294 0.087085
O O14 0.682707 0.500000 0.000000
O O15 0.741666 0.133955 0.500000
O O16 0.500000 0.125207 0.564808
#
# Coordination Sequence:
#
# PCOD9521344 Si02
#       6
#    16   8  16  16   8  16
#     4   9  17  32  54  77 102 134 171 209 247 295
#     4   7  12  26  49  73  97 129 167 202 239 286
#     4  10  20  34  52  75 102 134 169 209 254 296
#     4   9  19  36  54  72  97 135 174 205 246 301
#     4   9  17  29  47  73 105 133 155 192 251 302
#     4   9  17  32  54  76  98 128 169 209 244 294
#
# _framework density 17.578537000000001
#
# number of rings (size 3 to 8) (size 9 to 14) (size 15 to 20)
#    0.000    3.000    0.000    2.100    0.000    3.200 
#    3.600    0.500    0.000    1.800    0.000    0.000 
#    0.000    0.000    0.000    0.000    0.000    0.000 
#
# Total GULP energy -222795.720381 kJ/mol
# GULP energy per Si atom -5569.893010 kJ/mol
# Density = 1.753853 g / cm^3
# Si number density = 17.578537 Si / 1000 Ang^3
#
#
#
# Elastic Constant Matrix: (Units=GPa)
#
#
# Indices 1 2 3 4 5 6 
#
# 1 7.9985 17.6088 20.3397 0.0000 0.0000 0.0000
# 2 17.6088 87.9101 79.1613 0.0000 0.0000 0.0000
# 3 20.3397 79.1613 112.6734 0.0000 0.0000 0.0000
# 4 0.0000 0.0000 0.0000 29.2475 0.0000 0.0000
# 5 0.0000 0.0000 0.0000 0.0000 13.9709 0.0000
# 6 0.0000 0.0000 0.0000 0.0000 0.0000 17.7440
#
#
#
# Elastic Compliance Matrix: (Units=1/GPa)
#
#
# Indices 1 2 3 4 5 6 
#
# 1 0.250895 -0.025783 -0.027177 0.000000 0.000000 0.000000
# 2 -0.025783 0.033616 -0.018963 0.000000 0.000000 0.000000
# 3 -0.027177 -0.018963 0.027104 0.000000 0.000000 0.000000
# 4 0.000000 0.000000 0.000000 0.034191 0.000000 0.000000
# 5 0.000000 0.000000 0.000000 0.000000 0.071577 0.000000
# 6 0.000000 0.000000 0.000000 0.000000 0.000000 0.056357
#
#
# Mechanical properties :
#
#
# Convention : Reuss Voigt Hill
#
# Bulk Modulus (GPa) = 5.96058 49.20018 27.58038
# Shear Modulus (GPa) = 7.42380 18.29061 12.85720
#
# Velocity S-wave (km/s) = 2.05728 3.22919 2.70740
# Velocity P-wave (km/s) = 3.00689 6.47712 5.04948
#
# Compressibility (1/GPa) = 0.16776889
#
# Stress axis : x y z
#
# Youngs Moduli (GPa) = 3.98572 29.74808 36.89474
#
# Poissons Ratio (x) = 0.76700 1.00269
# Poissons Ratio (y) = 0.10276 0.69964
# Poissons Ratio (z) = 0.10832 0.56412
#
# Static dielectric constant tensor:
#      x y z
#    x 1.594520 0.000000 0.000000 
#    y 0.000000 1.585780 0.000000 
#    z 0.000000 0.000000 1.610630 
# 
# From -- ./inp_files/50383.got.cif
#   From: 2010.05.17/outbox.cif.g08.bks.cpg/sg71_26_cif.got.tgz:50383.got - 2010.06.03 16:22:01.
