data_PCOD9521128
_publ_section_title
;
Structure prediction by ZEFSAII (Michael W. Deem and Ramdas Pophale) SiO2 
 PCOD9521128
Probable space group: I M M M
;
_chemical_formula_sum "Si O2"
_cell_formula_units_Z 96
_cell_length_a 23.741231
_cell_length_b 23.209028
_cell_length_c 7.447622
_cell_angle_alpha 90.000000
_cell_angle_beta 90.000000
_cell_angle_gamma 90.000000
_cell_volume 4103.720864
_symmetry_space_group_name_H-M "I M M M"
_symmetry_group_IT_number 71
_symmetry_cell_setting 'orthorhombic'
loop_
_space_group_symop_operation_xyz
x,y,z
-x,-y,z
x,-y,-z
-x,y,-z
-x,-y,-z
x,y,-z
-x,y,z
x,-y,z
1/2+x,1/2+y,1/2+z
1/2-x,1/2-y,1/2+z
1/2+x,1/2-y,1/2-z
1/2-x,1/2+y,1/2-z
1/2-x,1/2-y,1/2-z
1/2+x,1/2+y,1/2-z
1/2-x,1/2+y,1/2+z
1/2+x,1/2-y,1/2+z
loop_
_atom_site_type_symbol
_atom_site_label
_atom_site_fract_x
_atom_site_fract_y
_atom_site_fract_z
Si Si1 0.500000 0.266177 0.205980
Si Si2 0.668998 0.150134 0.788588
Si Si3 0.243597 0.061330 0.786526
Si Si4 0.564364 0.933562 0.716547
Si Si5 0.378367 0.397293 0.216281
Si Si6 0.622184 0.265648 0.220720
Si Si7 0.000000 0.093405 0.706367
O O1 0.559357 0.248562 0.284163
O O2 0.500000 0.336275 0.203288
O O3 0.500000 0.246244 0.000000
O O4 0.720484 0.113775 0.710424
O O5 0.612242 0.111639 0.772892
O O6 0.661968 0.214598 0.716265
O O7 0.679408 0.157945 0.000000
O O8 0.177240 0.068027 0.759917
O O9 0.263052 0.000000 0.712699
O O10 0.253662 0.060586 0.000000
O O11 0.564254 0.933729 0.500000
O O12 0.500000 0.919230 0.774506
O O13 0.576457 0.000000 0.774405
O O14 0.368017 0.331283 0.277732
O O15 0.438653 0.420694 0.285082
O O16 0.384108 0.395510 0.000000
O O17 0.621373 0.266720 0.000000
O O18 0.000000 0.072475 0.500000
#
# Coordination Sequence:
#
# PCOD9521128 Si02
#       7
#     8  16  16  16  16  16   8
#     4   7  10  20  40  68 103 132 150 183 244 301
#     4  10  20  33  52  77 103 135 176 216 254 304
#     4  10  22  38  51  68 102 142 175 215 264 305
#     4   9  19  35  51  69 100 140 178 221 269 304
#     4   9  17  33  57  81 103 130 166 206 252 313
#     4   8  15  27  47  78 108 130 159 206 257 302
#     4   7  12  26  50  78 103 123 149 196 250 295
#
# _framework density 23.393405000000001
#
# number of rings (size 3 to 8) (size 9 to 14) (size 15 to 20)
#    0.000    3.167    0.000    3.000    1.167    3.000 
#    0.000    2.500    0.000    2.500    0.000    0.000 
#    0.000    0.000    0.000    0.000    0.000    0.000 
#
# Total GULP energy -267807.711866 kJ/mol
# GULP energy per Si atom -5579.327331 kJ/mol
# Density = 2.334016 g / cm^3
# Si number density = 23.393405 Si / 1000 Ang^3
#
#
#
# Elastic Constant Matrix: (Units=GPa)
#
#
# Indices 1 2 3 4 5 6 
#
# 1 72.7234 22.9593 -8.9677 0.0000 0.0000 0.0000
# 2 22.9593 70.5937 -0.1381 0.0000 0.0000 0.0000
# 3 -8.9677 -0.1381 73.6773 0.0000 0.0000 0.0000
# 4 0.0000 0.0000 0.0000 -3.5410 0.0000 0.0000
# 5 0.0000 0.0000 0.0000 0.0000 14.7044 0.0000
# 6 0.0000 0.0000 0.0000 0.0000 0.0000 30.8456
#
#
#
# Elastic Compliance Matrix: (Units=1/GPa)
#
#
# Indices 1 2 3 4 5 6 
#
# 1 0.015582 -0.005064 0.001887 0.000000 0.000000 0.000000
# 2 -0.005064 0.015811 -0.000587 0.000000 0.000000 0.000000
# 3 0.001887 -0.000587 0.013801 0.000000 0.000000 0.000000
# 4 0.000000 0.000000 0.000000 -0.282405 0.000000 0.000000
# 5 0.000000 0.000000 0.000000 0.000000 0.068007 0.000000
# 6 0.000000 0.000000 0.000000 0.000000 0.000000 0.032420
#
#
# Mechanical properties :
#
#
# Convention : Reuss Voigt Hill
#
# Bulk Modulus (GPa) = 26.54816 27.18904 26.86860
# Shear Modulus (GPa) = -42.84461 21.94453 -10.45004
#
# Velocity S-wave (km/s) = -4.28422 3.06611 -2.11584
# Velocity P-wave (km/s) = 3.61933 4.91756 2.35402
#
# Compressibility (1/GPa) = 0.03766740
#
# Stress axis : x y z
#
# Youngs Moduli (GPa) = 64.17571 63.24537 72.45701
#
# Poissons Ratio (x) = 0.32028 -0.13673
# Poissons Ratio (y) = 0.32499 0.04251
# Poissons Ratio (z) = -0.12111 0.03711
#
# Static dielectric constant tensor:
#      x y z
#    x 1.883780 0.000000 0.000000 
#    y 0.000000 1.891720 0.000000 
#    z 0.000000 0.000000 1.922780 
# 
# From -- ./inp_files/12932.got.cif
#   From: 2010.05.17/outbox.cif.g08.bks.cpg/sg71_7_cif.got.tgz:12932.got - 2010.06.03 16:22:01.
