data_PCOD9521354
_publ_section_title
;
Structure prediction by ZEFSAII (Michael W. Deem and Ramdas Pophale) SiO2 
 PCOD9521354
Probable space group: I M M M
;
_chemical_formula_sum "Si O2"
_cell_formula_units_Z 88
_cell_length_a 14.114453
_cell_length_b 21.280960
_cell_length_c 15.734052
_cell_angle_alpha 90.000000
_cell_angle_beta 90.000000
_cell_angle_gamma 90.000000
_cell_volume 4726.023191
_symmetry_space_group_name_H-M "I M M M"
_symmetry_group_IT_number 71
_symmetry_cell_setting 'orthorhombic'
loop_
_space_group_symop_operation_xyz
x,y,z
-x,-y,z
x,-y,-z
-x,y,-z
-x,-y,-z
x,y,-z
-x,y,z
x,-y,z
1/2+x,1/2+y,1/2+z
1/2-x,1/2-y,1/2+z
1/2+x,1/2-y,1/2-z
1/2-x,1/2+y,1/2-z
1/2-x,1/2-y,1/2-z
1/2+x,1/2+y,1/2-z
1/2-x,1/2+y,1/2+z
1/2+x,1/2-y,1/2+z
loop_
_atom_site_type_symbol
_atom_site_label
_atom_site_fract_x
_atom_site_fract_y
_atom_site_fract_z
Si Si1 0.606611 0.929302 0.824044
Si Si2 0.253325 0.642201 0.592849
Si Si3 0.888086 0.239277 0.406085
Si Si4 0.116270 0.574375 0.000000
Si Si5 0.386873 0.703304 0.718661
Si Si6 0.887083 0.342853 0.160960
O O1 0.500000 0.917511 0.857047
O O2 0.687723 0.917805 0.892000
O O3 0.625513 0.881991 0.746926
O O4 0.608577 0.000000 0.790731
O O5 0.298432 0.643048 0.500000
O O6 0.177626 0.699487 0.596365
O O7 0.329568 0.652358 0.665968
O O8 0.874017 0.209555 0.500000
O O9 0.867539 0.201516 0.319738
O O10 0.000000 0.256615 0.400261
O O11 0.148421 0.615399 0.918047
O O12 0.144578 0.500000 0.000000
O O13 0.000000 0.573085 0.000000
O O14 0.500000 0.697903 0.707517
O O15 0.355704 0.771430 0.679732
O O16 0.000000 0.337301 0.146787
#
# Coordination Sequence:
#
# PCOD9521354 Si02
#       6
#    16  16  16   8  16  16
#     4  10  20  35  55  77 103 137 177 221 271 324
#     4  11  22  33  50  75 107 143 178 219 265 313
#     4   9  17  31  51  74 101 133 167 208 262 317
#     4   9  16  26  42  66  98 136 176 211 246 300
#     4  10  20  34  52  75 106 141 178 219 264 318
#     4   9  17  29  47  71 100 135 172 211 257 308
#
# _framework density 18.620305999999999
#
# number of rings (size 3 to 8) (size 9 to 14) (size 15 to 20)
#    0.000    2.273    1.818    1.636    1.273    4.000 
#    0.000    0.909    0.000    0.545    0.000    1.273 
#    0.000    0.000    0.000    4.545    0.000    3.091 
#
# Total GULP energy -245237.238863 kJ/mol
# GULP energy per Si atom -5573.573611 kJ/mol
# Density = 1.857793 g / cm^3
# Si number density = 18.620306 Si / 1000 Ang^3
#
#
#
# Elastic Constant Matrix: (Units=GPa)
#
#
# Indices 1 2 3 4 5 6 
#
# 1 59.0987 12.2073 29.3182 0.0000 0.0000 0.0000
# 2 12.2073 41.7018 20.9346 0.0000 0.0000 0.0000
# 3 29.3182 20.9346 112.4571 0.0001 -0.0001 0.0000
# 4 0.0000 0.0000 0.0001 9.7657 0.0000 0.0000
# 5 0.0000 0.0000 -0.0001 0.0000 21.8881 0.0000
# 6 0.0000 0.0000 0.0000 0.0000 0.0000 15.0071
#
#
#
# Elastic Compliance Matrix: (Units=1/GPa)
#
#
# Indices 1 2 3 4 5 6 
#
# 1 0.019900 -0.003553 -0.004527 0.000000 0.000000 0.000000
# 2 -0.003553 0.027086 -0.004116 0.000000 0.000000 0.000000
# 3 -0.004527 -0.004116 0.010839 0.000000 0.000000 0.000000
# 4 0.000000 0.000000 0.000000 0.102399 0.000000 0.000000
# 5 0.000000 0.000000 0.000000 0.000000 0.045687 0.000000
# 6 0.000000 0.000000 0.000000 0.000000 0.000000 0.066635
#
#
# Mechanical properties :
#
#
# Convention : Reuss Voigt Hill
#
# Bulk Modulus (GPa) = 29.90986 37.57532 33.74259
# Shear Modulus (GPa) = 16.22943 19.38535 17.80739
#
# Velocity S-wave (km/s) = 2.95549 3.23009 3.09583
# Velocity P-wave (km/s) = 5.26730 5.84250 5.56234
#
# Compressibility (1/GPa) = 0.03343379
#
# Stress axis : x y z
#
# Youngs Moduli (GPa) = 50.25019 36.91930 92.26252
#
# Poissons Ratio (x) = 0.13117 0.41765
# Poissons Ratio (y) = 0.17854 0.37975
# Poissons Ratio (z) = 0.22747 0.15196
#
# Static dielectric constant tensor:
#      x y z
#    x 1.654330 0.000000 0.000000 
#    y 0.000000 1.632280 0.000000 
#    z 0.000000 0.000000 1.704100 
# 
# From -- ./inp_files/34426.got.cif
#   From: 2010.05.17/outbox.cif.g08.bks.cpg/sg71_18_cif.got.tgz:34426.got - 2010.06.03 16:22:01.
