data_PCOD9521489
_publ_section_title
;
Structure prediction by ZEFSAII (Michael W. Deem and Ramdas Pophale) SiO2 
 PCOD9521489
Probable space group: I M M M
;
_chemical_formula_sum "Si O2"
_cell_formula_units_Z 112
_cell_length_a 26.268660
_cell_length_b 14.099152
_cell_length_c 15.269277
_cell_angle_alpha 90.000000
_cell_angle_beta 90.000000
_cell_angle_gamma 90.000000
_cell_volume 5655.218452
_symmetry_space_group_name_H-M "I M M M"
_symmetry_group_IT_number 71
_symmetry_cell_setting 'orthorhombic'
loop_
_space_group_symop_operation_xyz
x,y,z
-x,-y,z
x,-y,-z
-x,y,-z
-x,-y,-z
x,y,-z
-x,y,z
x,-y,z
1/2+x,1/2+y,1/2+z
1/2-x,1/2-y,1/2+z
1/2+x,1/2-y,1/2-z
1/2-x,1/2+y,1/2-z
1/2-x,1/2-y,1/2-z
1/2+x,1/2+y,1/2-z
1/2-x,1/2+y,1/2+z
1/2+x,1/2-y,1/2+z
loop_
_atom_site_type_symbol
_atom_site_label
_atom_site_fract_x
_atom_site_fract_y
_atom_site_fract_z
Si Si1 0.611303 0.113458 0.722187
Si Si2 0.745118 0.894063 0.896155
Si Si3 0.293350 0.114568 0.399572
Si Si4 0.557956 0.251936 0.602694
Si Si5 0.862448 0.696121 0.401382
Si Si6 0.647242 0.390780 0.340171
Si Si7 0.825101 0.107411 0.363188
O O1 0.664281 0.142132 0.672229
O O2 0.569050 0.158534 0.659338
O O3 0.605912 0.158299 0.819040
O O4 0.609686 0.000000 0.728379
O O5 0.694160 0.839424 0.874733
O O6 0.799245 0.849527 0.874615
O O7 0.743362 0.000000 0.854911
O O8 0.743950 0.903743 0.000000
O O9 0.301842 0.149732 0.500000
O O10 0.234880 0.133305 0.372007
O O11 0.297282 0.000000 0.403746
O O12 0.565298 0.232200 0.500000
O O13 0.500000 0.284558 0.615917
O O14 0.598937 0.330234 0.632335
O O15 0.874593 0.660436 0.500000
O O16 0.857928 0.809302 0.405259
O O17 0.642919 0.500000 0.372607
O O18 0.656228 0.393450 0.236675
O O19 0.830576 0.000000 0.397609
#
# Coordination Sequence:
#
# PCOD9521489 Si02
#       7
#    16  16  16  16  16  16  16
#     4  11  23  40  61  86 119 159 200 246 297 349
#     4   9  18  31  49  80 121 160 196 233 276 336
#     4   9  18  32  52  83 123 163 199 234 277 339
#     4  11  25  43  64  91 119 150 194 246 301 360
#     4  11  22  35  57  89 123 162 201 241 289 345
#     4  10  20  37  60  86 119 160 201 243 294 350
#     4  10  20  34  53  83 123 161 199 241 285 341
#
# _framework density 19.804717
#
# number of rings (size 3 to 8) (size 9 to 14) (size 15 to 20)
#    0.000    1.857    1.429    2.571    2.000    7.429 
#    0.000    1.429    0.000    0.429    0.000    1.000 
#    0.000    2.286    0.000    0.000    0.000    0.000 
#
# Total GULP energy -312566.325790 kJ/mol
# GULP energy per Si atom -5581.541532 kJ/mol
# Density = 1.975964 g / cm^3
# Si number density = 19.804717 Si / 1000 Ang^3
#
#
#
# Elastic Constant Matrix: (Units=GPa)
#
#
# Indices 1 2 3 4 5 6 
#
# 1 42.4068 4.1314 37.6129 0.0000 0.0000 0.0000
# 2 4.1314 55.6940 14.6018 0.0000 0.0000 0.0000
# 3 37.6129 14.6018 116.6611 0.0000 0.0000 0.0000
# 4 0.0000 0.0000 0.0000 20.6271 0.0000 0.0000
# 5 0.0000 0.0000 0.0000 0.0000 21.0376 0.0000
# 6 0.0000 0.0000 0.0000 0.0000 0.0000 15.0318
#
#
#
# Elastic Compliance Matrix: (Units=1/GPa)
#
#
# Indices 1 2 3 4 5 6 
#
# 1 0.033032 0.000353 -0.010694 0.000000 0.000000 0.000000
# 2 0.000353 0.018568 -0.002438 0.000000 0.000000 0.000000
# 3 -0.010694 -0.002438 0.012325 0.000000 0.000000 0.000000
# 4 0.000000 0.000000 0.000000 0.048480 0.000000 0.000000
# 5 0.000000 0.000000 0.000000 0.000000 0.047534 0.000000
# 6 0.000000 0.000000 0.000000 0.000000 0.000000 0.066526
#
#
# Mechanical properties :
#
#
# Convention : Reuss Voigt Hill
#
# Bulk Modulus (GPa) = 26.06362 36.38378 31.22370
# Shear Modulus (GPa) = 18.88138 21.90036 20.39087
#
# Velocity S-wave (km/s) = 3.09103 3.32899 3.21221
# Velocity P-wave (km/s) = 5.09197 5.76085 5.43671
#
# Compressibility (1/GPa) = 0.03836766
#
# Stress axis : x y z
#
# Youngs Moduli (GPa) = 30.27379 53.85545 81.13664
#
# Poissons Ratio (x) = -0.01904 0.86768
# Poissons Ratio (y) = -0.01070 0.19781
# Poissons Ratio (z) = 0.32375 0.13130
#
# Static dielectric constant tensor:
#      x y z
#    x 1.676750 0.000000 0.000000 
#    y 0.000000 1.773540 0.000000 
#    z 0.000000 0.000000 1.723610 
# 
# From -- ./inp_files/34878.got.cif
#   From: 2010.05.17/outbox.cif.g08.bks.cpg/sg71_18_cif.got.tgz:34878.got - 2010.06.03 16:22:01.
