data_PCOD9521863
_publ_section_title
;
Structure prediction by ZEFSAII (Michael W. Deem and Ramdas Pophale) SiO2 
 PCOD9521863
Probable space group: I M M M
;
_chemical_formula_sum "Si O2"
_cell_formula_units_Z 88
_cell_length_a 14.947860
_cell_length_b 13.528074
_cell_length_c 20.496123
_cell_angle_alpha 90.000000
_cell_angle_beta 90.000000
_cell_angle_gamma 90.000000
_cell_volume 4144.639012
_symmetry_space_group_name_H-M "I M M M"
_symmetry_group_IT_number 71
_symmetry_cell_setting 'orthorhombic'
loop_
_space_group_symop_operation_xyz
x,y,z
-x,-y,z
x,-y,-z
-x,y,-z
-x,-y,-z
x,y,-z
-x,y,z
x,-y,z
1/2+x,1/2+y,1/2+z
1/2-x,1/2-y,1/2+z
1/2+x,1/2-y,1/2-z
1/2-x,1/2+y,1/2-z
1/2-x,1/2-y,1/2-z
1/2+x,1/2+y,1/2-z
1/2-x,1/2+y,1/2+z
1/2+x,1/2-y,1/2+z
loop_
_atom_site_type_symbol
_atom_site_label
_atom_site_fract_x
_atom_site_fract_y
_atom_site_fract_z
Si Si1 0.601207 0.381288 0.500000
Si Si2 0.657187 0.696309 0.867506
Si Si3 0.141439 0.117850 0.500000
Si Si4 0.902724 0.193276 0.778028
Si Si5 0.356611 0.884749 0.643842
Si Si6 0.729825 0.385873 0.379207
Si Si7 0.649441 0.118481 0.500000
O O1 0.593659 0.500000 0.500000
O O2 0.500000 0.341133 0.500000
O O3 0.660172 0.357421 0.436583
O O4 0.606910 0.658239 0.931471
O O5 0.607001 0.690165 0.799331
O O6 0.749067 0.632185 0.859289
O O7 0.689886 0.808450 0.879386
O O8 0.246676 0.150776 0.500000
O O9 0.136526 0.000000 0.500000
O O10 0.891981 0.305541 0.804519
O O11 0.824328 0.131877 0.812381
O O12 0.000000 0.155316 0.798549
O O13 0.390531 0.857315 0.570621
O O14 0.376233 0.000000 0.657017
O O15 0.755375 0.500000 0.386945
O O16 0.652349 0.000000 0.500000
#
# Coordination Sequence:
#
# PCOD9521863 Si02
#       7
#     8  16   8  16  16  16   8
#     4   9  17  30  50  77 107 136 165 201 252 317
#     4  10  20  35  56  80 104 134 180 230 273 327
#     4   9  17  33  59  84 102 125 163 219 283 330
#     4  11  24  36  48  74 110 146 183 226 275 321
#     4   9  17  33  56  80 106 138 179 226 276 327
#     4  10  20  35  55  78 107 145 183 216 258 320
#     4   7  12  25  50  81 105 126 161 211 258 305
#
# _framework density 21.232247000000001
#
# number of rings (size 3 to 8) (size 9 to 14) (size 15 to 20)
#    0.000    2.455    0.000    4.909    0.000    7.273 
#    0.000    1.818    0.000    2.182    0.000    0.000 
#    0.000    6.545    0.000    0.000    0.000    0.000 
#
# Total GULP energy -245688.224542 kJ/mol
# GULP energy per Si atom -5583.823285 kJ/mol
# Density = 2.118392 g / cm^3
# Si number density = 21.232247 Si / 1000 Ang^3
#
#
#
# Elastic Constant Matrix: (Units=GPa)
#
#
# Indices 1 2 3 4 5 6 
#
# 1 44.8166 -0.7129 7.3164 0.0000 0.0000 0.0000
# 2 -0.7129 102.0914 13.5277 0.0000 0.0000 0.0000
# 3 7.3164 13.5277 156.3697 0.0000 0.0000 0.0000
# 4 0.0000 0.0000 0.0000 19.8137 0.0000 0.0000
# 5 0.0000 0.0000 0.0000 0.0000 -48.8248 0.0000
# 6 0.0000 0.0000 0.0000 0.0000 0.0000 -1.8412
#
#
#
# Elastic Compliance Matrix: (Units=1/GPa)
#
#
# Indices 1 2 3 4 5 6 
#
# 1 0.022494 0.000300 -0.001078 0.000000 0.000000 0.000000
# 2 0.000300 0.009913 -0.000872 0.000000 0.000000 0.000000
# 3 -0.001078 -0.000872 0.006521 0.000000 0.000000 0.000000
# 4 0.000000 0.000000 0.000000 0.050470 0.000000 0.000000
# 5 0.000000 0.000000 0.000000 0.000000 -0.020481 0.000000
# 6 0.000000 0.000000 0.000000 0.000000 0.000000 -0.543134
#
#
# Mechanical properties :
#
#
# Convention : Reuss Voigt Hill
#
# Bulk Modulus (GPa) = 28.06816 38.17113 33.11965
# Shear Modulus (GPa) = -10.89226 12.70596 0.90685
#
# Velocity S-wave (km/s) = -2.26742 2.44893 0.65425
# Velocity P-wave (km/s) = 2.52851 5.10032 4.02534
#
# Compressibility (1/GPa) = 0.03562755
#
# Stress axis : x y z
#
# Youngs Moduli (GPa) = 44.45638 100.88039 153.35159
#
# Poissons Ratio (x) = -0.03026 0.16538
# Poissons Ratio (y) = -0.01334 0.13366
# Poissons Ratio (z) = 0.04794 0.08793
#
# Static dielectric constant tensor:
#      x y z
#    x 1.749430 0.000000 0.000000 
#    y 0.000000 1.761410 0.000000 
#    z 0.000000 0.000000 1.803500 
# 
# From -- ./inp_files/45907.got.cif
#   From: 2010.05.17/outbox.cif.g08.bks.cpg/sg71_23_cif.got.tgz:45907.got - 2010.06.03 16:22:01.
