data_PCOD9521768
_publ_section_title
;
Structure prediction by ZEFSAII (Michael W. Deem and Ramdas Pophale) SiO2 
 PCOD9521768
Probable space group: I M M M
;
_chemical_formula_sum "Si O2"
_cell_formula_units_Z 112
_cell_length_a 15.605372
_cell_length_b 14.336216
_cell_length_c 27.771076
_cell_angle_alpha 90.000000
_cell_angle_beta 90.000000
_cell_angle_gamma 90.000000
_cell_volume 6213.000214
_symmetry_space_group_name_H-M "I M M M"
_symmetry_group_IT_number 71
_symmetry_cell_setting 'orthorhombic'
loop_
_space_group_symop_operation_xyz
x,y,z
-x,-y,z
x,-y,-z
-x,y,-z
-x,-y,-z
x,y,-z
-x,y,z
x,-y,z
1/2+x,1/2+y,1/2+z
1/2-x,1/2-y,1/2+z
1/2+x,1/2-y,1/2-z
1/2-x,1/2+y,1/2-z
1/2-x,1/2-y,1/2-z
1/2+x,1/2+y,1/2-z
1/2-x,1/2+y,1/2+z
1/2+x,1/2-y,1/2+z
loop_
_atom_site_type_symbol
_atom_site_label
_atom_site_fract_x
_atom_site_fract_y
_atom_site_fract_z
Si Si1 0.099560 0.796822 0.944362
Si Si2 0.595006 0.110228 0.285473
Si Si3 0.731145 0.607963 0.154315
Si Si4 0.244166 0.888430 0.119542
Si Si5 0.186260 0.279264 0.707802
Si Si6 0.689987 0.894066 0.445547
Si Si7 0.094887 0.386608 0.555372
O O1 0.160897 0.847959 0.906742
O O2 0.119626 0.686530 0.941042
O O3 0.000000 0.815494 0.935691
O O4 0.119823 0.824808 0.000000
O O5 0.500000 0.132404 0.304941
O O6 0.673368 0.125571 0.322811
O O7 0.611827 0.167494 0.236414
O O8 0.597511 0.000000 0.274212
O O9 0.709124 0.500000 0.164596
O O10 0.669552 0.684592 0.177984
O O11 0.742207 0.620423 0.097158
O O12 0.263135 0.847714 0.171964
O O13 0.326403 0.857658 0.087981
O O14 0.239823 0.000000 0.120657
O O15 0.250000 0.250000 0.750000
O O16 0.725250 0.887137 0.500000
O O17 0.656336 0.000000 0.439383
O O18 0.106690 0.357295 0.500000
O O19 0.094807 0.500000 0.555480
O O20 0.000000 0.356818 0.571853
#
# Coordination Sequence:
#
# PCOD9521768 Si02
#       7
#    16  16  16  16  16  16  16
#     4  10  21  35  51  76 111 147 181 215 252 307
#     4   9  18  32  52  78 105 132 165 209 262 319
#     4   9  17  32  53  76 101 133 170 209 259 315
#     4  11  21  34  53  76 104 142 180 214 256 312
#     4  10  20  35  51  74  99 131 168 217 267 308
#     4   9  17  31  52  78 106 135 171 219 268 308
#     4   8  15  29  50  77 106 132 160 200 252 306
#
# _framework density 18.026717999999999
#
# number of rings (size 3 to 8) (size 9 to 14) (size 15 to 20)
#    0.000    2.571    1.429    1.286    0.000    3.143 
#    0.000    5.000    0.000    0.429    0.000    0.000 
#    0.000    0.571    0.000   10.429    0.000    0.571 
#
# Total GULP energy -311939.484789 kJ/mol
# GULP energy per Si atom -5570.347943 kJ/mol
# Density = 1.798569 g / cm^3
# Si number density = 18.026718 Si / 1000 Ang^3
#
#
#
# Elastic Constant Matrix: (Units=GPa)
#
#
# Indices 1 2 3 4 5 6 
#
# 1 27.7113 7.5048 24.3293 0.0000 0.0000 0.0000
# 2 7.5048 65.9204 29.9264 0.0000 0.0000 0.0000
# 3 24.3293 29.9264 86.0217 0.0000 0.0000 0.0000
# 4 0.0000 0.0000 0.0000 26.9088 0.0000 0.0000
# 5 0.0000 0.0000 0.0000 0.0000 11.4495 0.0000
# 6 0.0000 0.0000 0.0000 0.0000 0.0000 16.3899
#
#
#
# Elastic Compliance Matrix: (Units=1/GPa)
#
#
# Indices 1 2 3 4 5 6 
#
# 1 0.048045 0.000830 -0.013877 0.000000 0.000000 0.000000
# 2 0.000830 0.018029 -0.006507 0.000000 0.000000 0.000000
# 3 -0.013877 -0.006507 0.017814 0.000000 0.000000 0.000000
# 4 0.000000 0.000000 0.000000 0.037163 0.000000 0.000000
# 5 0.000000 0.000000 0.000000 0.000000 0.087340 0.000000
# 6 0.000000 0.000000 0.000000 0.000000 0.000000 0.061013
#
#
# Mechanical properties :
#
#
# Convention : Reuss Voigt Hill
#
# Bulk Modulus (GPa) = 22.33150 33.68603 28.00877
# Shear Modulus (GPa) = 15.45887 18.80917 17.13402
#
# Velocity S-wave (km/s) = 2.93158 3.23368 3.08633
# Velocity P-wave (km/s) = 4.88608 5.71573 5.31711
#
# Compressibility (1/GPa) = 0.04477979
#
# Stress axis : x y z
#
# Youngs Moduli (GPa) = 20.81373 55.46509 56.13682
#
# Poissons Ratio (x) = -0.04605 0.77903
# Poissons Ratio (y) = -0.01728 0.36529
# Poissons Ratio (z) = 0.28884 0.36092
#
# Static dielectric constant tensor:
#      x y z
#    x 1.601110 0.000000 0.000000 
#    y 0.000000 1.647270 0.000000 
#    z 0.000000 0.000000 1.641710 
# 
# From -- ./inp_files/65536.got.cif
#   From: 2010.05.17/outbox.cif.g08.bks.cpg/sg71_33_cif.got.tgz:65536.got - 2010.06.03 16:22:01.
