data_PCOD9521900
_publ_section_title
;
Structure prediction by ZEFSAII (Michael W. Deem and Ramdas Pophale) SiO2 
 PCOD9521900
Probable space group: I M M M
;
_chemical_formula_sum "Si O2"
_cell_formula_units_Z 116
_cell_length_a 23.387386
_cell_length_b 7.666654
_cell_length_c 28.936893
_cell_angle_alpha 90.000000
_cell_angle_beta 90.000000
_cell_angle_gamma 90.000000
_cell_volume 5188.471622
_symmetry_space_group_name_H-M "I M M M"
_symmetry_group_IT_number 71
_symmetry_cell_setting 'orthorhombic'
loop_
_space_group_symop_operation_xyz
x,y,z
-x,-y,z
x,-y,-z
-x,y,-z
-x,-y,-z
x,y,-z
-x,y,z
x,-y,z
1/2+x,1/2+y,1/2+z
1/2-x,1/2-y,1/2+z
1/2+x,1/2-y,1/2-z
1/2-x,1/2+y,1/2-z
1/2-x,1/2-y,1/2-z
1/2+x,1/2+y,1/2-z
1/2-x,1/2+y,1/2+z
1/2+x,1/2-y,1/2+z
loop_
_atom_site_type_symbol
_atom_site_label
_atom_site_fract_x
_atom_site_fract_y
_atom_site_fract_z
Si Si1 0.769986 0.788387 0.451302
Si Si2 0.714391 0.704543 0.149635
Si Si3 0.653837 0.705423 0.649205
Si Si4 0.937224 0.710944 0.226360
Si Si5 0.600038 0.000000 0.000000
Si Si6 0.902558 0.699234 0.674245
Si Si7 0.635976 0.704114 0.449998
Si Si8 0.568507 0.307062 0.928572
O O1 0.795145 0.725960 0.500000
O O2 0.795752 0.731386 0.403053
O O3 0.704869 0.721765 0.451154
O O4 0.768007 0.000000 0.450890
O O5 0.701865 0.500000 0.152040
O O6 0.781980 0.725738 0.158157
O O7 0.666480 0.796001 0.179889
O O8 0.661478 0.500000 0.641307
O O9 0.612470 0.733087 0.691997
O O10 0.625170 0.777927 0.601488
O O11 0.935515 0.500000 0.228092
O O12 0.928151 0.774627 0.278727
O O13 0.000000 0.765161 0.209615
O O14 0.593337 0.846951 0.959342
O O15 0.922118 0.500000 0.669927
O O16 0.918895 0.788056 0.626122
O O17 0.616009 0.778717 0.500000
O O18 0.619481 0.500000 0.450361
O O19 0.500000 0.301818 0.934967
O O20 0.589983 0.500000 0.942835
#
# Coordination Sequence:
#
# PCOD9521900 Si02
#       8
#    16  16  16  16   4  16  16  16
#     4   8  14  26  44  68 102 145 190 232 273 323
#     4  10  20  35  55  83 121 161 201 245 302 373
#     4  10  20  35  59  90 121 155 198 249 301 362
#     4  10  23  43  66  88 112 149 197 253 319 382
#     4  12  23  42  68  94 130 172 222 282 339 392
#     4  11  23  41  62  86 120 161 207 262 324 386
#     4   8  14  26  47  76 111 149 185 222 272 338
#     4  11  23  40  65  94 125 168 221 277 336 396
#
# _framework density 22.357258999999999
#
# number of rings (size 3 to 8) (size 9 to 14) (size 15 to 20)
#    0.000    2.207    0.690    2.483    0.000    4.138 
#    1.241    0.000    0.000    0.414    0.000    2.897 
#    0.000    0.000    0.000    0.000    0.000    0.000 
#
# Total GULP energy -323254.578954 kJ/mol
# GULP energy per Si atom -5573.354810 kJ/mol
# Density = 2.230637 g / cm^3
# Si number density = 22.357259 Si / 1000 Ang^3
#
#
#
# Elastic Constant Matrix: (Units=GPa)
#
#
# Indices 1 2 3 4 5 6 
#
# 1 72.6271 10.7687 39.2292 0.0000 0.0000 0.0000
# 2 10.7687 85.4486 23.4096 0.0000 0.0000 0.0000
# 3 39.2292 23.4096 106.9111 0.0000 0.0000 0.0000
# 4 0.0000 0.0000 0.0000 29.4641 0.0000 0.0000
# 5 0.0000 0.0000 0.0000 0.0000 13.0146 0.0000
# 6 0.0000 0.0000 0.0000 0.0000 0.0000 -3.4991
#
#
#
# Elastic Compliance Matrix: (Units=1/GPa)
#
#
# Indices 1 2 3 4 5 6 
#
# 1 0.017190 -0.000466 -0.006205 0.000000 0.000000 0.000000
# 2 -0.000466 0.012462 -0.002558 0.000000 0.000000 0.000000
# 3 -0.006205 -0.002558 0.012191 0.000000 0.000000 0.000000
# 4 0.000000 0.000000 0.000000 0.033940 0.000000 0.000000
# 5 0.000000 0.000000 0.000000 0.000000 0.076837 0.000000
# 6 0.000000 0.000000 0.000000 0.000000 0.000000 -0.285785
#
#
# Mechanical properties :
#
#
# Convention : Reuss Voigt Hill
#
# Bulk Modulus (GPa) = 42.76427 45.75577 44.26002
# Shear Modulus (GPa) = -46.76725 20.56785 -13.09970
#
# Velocity S-wave (km/s) = -4.57860 3.03638 -2.42322
# Velocity P-wave (km/s) = 2.96348 5.72739 3.46560
#
# Compressibility (1/GPa) = 0.02338401
#
# Stress axis : x y z
#
# Youngs Moduli (GPa) = 58.17354 80.24117 82.03047
#
# Poissons Ratio (x) = 0.03742 0.50904
# Poissons Ratio (y) = 0.02713 0.20981
# Poissons Ratio (z) = 0.36099 0.20523
#
# Static dielectric constant tensor:
#      x y z
#    x 1.807790 0.000000 0.000000 
#    y 0.000000 1.858090 0.000000 
#    z 0.000000 0.000000 1.863090 
# 
# From -- ./inp_files/66945.got.cif
#   From: 2010.05.17/outbox.cif.g08.bks.cpg/sg71_34_cif.got.tgz:66945.got - 2010.06.03 16:22:01.
