data_PCOD9521784
_publ_section_title
;
Structure prediction by ZEFSAII (Michael W. Deem and Ramdas Pophale) SiO2 
 PCOD9521784
Probable space group: I M M M
;
_chemical_formula_sum "Si O2"
_cell_formula_units_Z 112
_cell_length_a 27.620306
_cell_length_b 15.367048
_cell_length_c 13.741810
_cell_angle_alpha 90.000000
_cell_angle_beta 90.000000
_cell_angle_gamma 90.000000
_cell_volume 5832.609126
_symmetry_space_group_name_H-M "I M M M"
_symmetry_group_IT_number 71
_symmetry_cell_setting 'orthorhombic'
loop_
_space_group_symop_operation_xyz
x,y,z
-x,-y,z
x,-y,-z
-x,y,-z
-x,-y,-z
x,y,-z
-x,y,z
x,-y,z
1/2+x,1/2+y,1/2+z
1/2-x,1/2-y,1/2+z
1/2+x,1/2-y,1/2-z
1/2-x,1/2+y,1/2-z
1/2-x,1/2-y,1/2-z
1/2+x,1/2+y,1/2-z
1/2-x,1/2+y,1/2+z
1/2+x,1/2-y,1/2+z
loop_
_atom_site_type_symbol
_atom_site_label
_atom_site_fract_x
_atom_site_fract_y
_atom_site_fract_z
Si Si1 0.053465 0.710625 0.271908
Si Si2 0.847834 0.725193 0.611815
Si Si3 0.162449 0.901522 0.104527
Si Si4 0.552796 0.640507 0.390016
Si Si5 0.402535 0.896619 0.608717
Si Si6 0.307724 0.896724 0.722994
Si Si7 0.803297 0.896060 0.313381
O O1 0.097406 0.716548 0.347130
O O2 0.055270 0.792228 0.198163
O O3 0.062499 0.633517 0.194766
O O4 0.000000 0.705483 0.316146
O O5 0.844717 0.697710 0.500000
O O6 0.815958 0.663480 0.682651
O O7 0.830541 0.825653 0.621003
O O8 0.104225 0.906829 0.113837
O O9 0.183296 0.864868 0.203606
O O10 0.181661 0.000000 0.101065
O O11 0.173398 0.858829 0.000000
O O12 0.552217 0.678256 0.500000
O O13 0.500000 0.595938 0.380999
O O14 0.412853 0.863321 0.500000
O O15 0.348972 0.870462 0.645410
O O16 0.403569 0.000000 0.603773
O O17 0.254408 0.888247 0.678802
O O18 0.314498 0.000000 0.746798
O O19 0.816023 0.000000 0.325009
#
# Coordination Sequence:
#
# PCOD9521784 Si02
#       7
#    16  16  16  16  16  16  16
#     4  10  20  35  53  75 106 143 183 228 277 326
#     4  11  23  38  57  82 110 147 196 237 274 320
#     4   9  17  29  47  73 103 135 173 218 271 329
#     4   9  16  27  46  71  98 130 169 216 273 330
#     4   9  18  33  54  82 113 141 172 217 280 352
#     4   9  20  38  59  83 114 148 182 227 280 333
#     4  10  20  37  58  82 114 148 186 231 279 329
#
# _framework density 19.202385
#
# number of rings (size 3 to 8) (size 9 to 14) (size 15 to 20)
#    0.000    2.429    1.429    0.857    0.000    3.429 
#    0.000    5.000    0.000    0.429    0.000    5.000 
#    0.000    0.000    0.000    0.000    0.000    0.000 
#
# Total GULP energy -311795.742599 kJ/mol
# GULP energy per Si atom -5567.781118 kJ/mol
# Density = 1.915868 g / cm^3
# Si number density = 19.202385 Si / 1000 Ang^3
#
#
#
# Elastic Constant Matrix: (Units=GPa)
#
#
# Indices 1 2 3 4 5 6 
#
# 1 62.2985 11.8203 -7.6382 0.0000 0.0000 0.0000
# 2 11.8203 47.9262 18.7700 0.0000 0.0000 0.0000
# 3 -7.6382 18.7700 46.6975 0.0000 0.0000 0.0000
# 4 0.0000 0.0000 0.0000 17.9822 0.0000 0.0000
# 5 0.0000 0.0000 0.0000 0.0000 12.2968 0.0000
# 6 0.0000 0.0000 0.0000 0.0000 0.0000 20.0588
#
#
#
# Elastic Compliance Matrix: (Units=1/GPa)
#
#
# Indices 1 2 3 4 5 6 
#
# 1 0.017999 -0.006637 0.005612 0.000000 0.000000 0.000000
# 2 -0.006637 0.027211 -0.012023 0.000000 0.000000 0.000000
# 3 0.005612 -0.012023 0.027165 0.000000 0.000000 0.000000
# 4 0.000000 0.000000 0.000000 0.055611 0.000000 0.000000
# 5 0.000000 0.000000 0.000000 0.000000 0.081322 0.000000
# 6 0.000000 0.000000 0.000000 0.000000 0.000000 0.049853
#
#
# Mechanical properties :
#
#
# Convention : Reuss Voigt Hill
#
# Bulk Modulus (GPa) = 21.60828 22.53628 22.07228
# Shear Modulus (GPa) = 16.62876 18.99890 17.81383
#
# Velocity S-wave (km/s) = 2.94594 3.14889 3.04910
# Velocity P-wave (km/s) = 4.78003 4.99823 4.89035
#
# Compressibility (1/GPa) = 0.04627856
#
# Stress axis : x y z
#
# Youngs Moduli (GPa) = 55.55836 36.74970 36.81208
#
# Poissons Ratio (x) = 0.24391 -0.20658
# Poissons Ratio (y) = 0.36874 0.44259
# Poissons Ratio (z) = -0.31178 0.44184
#
# Static dielectric constant tensor:
#      x y z
#    x 1.689620 0.000000 0.000000 
#    y 0.000000 1.704890 0.000000 
#    z 0.000000 0.000000 1.690970 
# 
# From -- ./inp_files/40383.got.cif
#   From: 2010.05.17/outbox.cif.g08.bks.cpg/sg71_21_cif.got.tgz:40383.got - 2010.06.03 16:22:01.
