data_PCOD9521828
_publ_section_title
;
Structure prediction by ZEFSAII (Michael W. Deem and Ramdas Pophale) SiO2 
 PCOD9521828
Probable space group: I M M M
;
_chemical_formula_sum "Si O2"
_cell_formula_units_Z 96
_cell_length_a 30.266831
_cell_length_b 19.923800
_cell_length_c 8.264160
_cell_angle_alpha 90.000000
_cell_angle_beta 90.000000
_cell_angle_gamma 90.000000
_cell_volume 4983.538781
_symmetry_space_group_name_H-M "I M M M"
_symmetry_group_IT_number 71
_symmetry_cell_setting 'orthorhombic'
loop_
_space_group_symop_operation_xyz
x,y,z
-x,-y,z
x,-y,-z
-x,y,-z
-x,-y,-z
x,y,-z
-x,y,z
x,-y,z
1/2+x,1/2+y,1/2+z
1/2-x,1/2-y,1/2+z
1/2+x,1/2-y,1/2-z
1/2-x,1/2+y,1/2-z
1/2-x,1/2-y,1/2-z
1/2+x,1/2+y,1/2-z
1/2-x,1/2+y,1/2+z
1/2+x,1/2-y,1/2+z
loop_
_atom_site_type_symbol
_atom_site_label
_atom_site_fract_x
_atom_site_fract_y
_atom_site_fract_z
Si Si1 0.880182 0.172442 0.689732
Si Si2 0.450056 0.077409 0.695009
Si Si3 0.947475 0.073487 0.808672
Si Si4 0.873381 0.677777 0.306451
Si Si5 0.226943 0.680067 0.194014
Si Si6 0.697999 0.423101 0.197797
O O1 0.869856 0.180329 0.500000
O O2 0.925141 0.132786 0.713236
O O3 0.882890 0.246948 0.758660
O O4 0.842375 0.123295 0.757437
O O5 0.450831 0.077045 0.500000
O O6 0.500000 0.097957 0.749023
O O7 0.409950 0.125280 0.745982
O O8 0.443057 0.000000 0.748513
O O9 0.000000 0.074520 0.791341
O O10 0.931180 0.000000 0.753471
O O11 0.937726 0.079851 0.000000
O O12 0.876591 0.677165 0.500000
O O13 0.822207 0.667600 0.259547
O O14 0.250000 0.750000 0.250000
O O15 0.258112 0.617799 0.241750
O O16 0.225026 0.682888 0.000000
O O17 0.696347 0.500000 0.254436
O O18 0.695946 0.425276 0.000000
#
# Coordination Sequence:
#
# PCOD9521828 Si02
#       6
#    16  16  16  16  16  16
#     4  10  20  35  54  78 109 144 185 230 274 332
#     4   9  20  41  66  90 118 155 200 246 296 359
#     4   9  19  35  52  73 105 142 180 226 278 329
#     4  11  23  38  58  88 120 152 194 238 289 352
#     4  11  21  37  59  83 115 155 196 242 296 352
#     4   9  18  34  56  80 107 143 186 231 279 333
#
# _framework density 19.26342
#
# number of rings (size 3 to 8) (size 9 to 14) (size 15 to 20)
#    0.000    2.167    1.667    2.500    0.000    4.667 
#    0.000    6.667    0.000    2.500    0.000    0.000 
#    0.000    0.000    0.000    0.000    0.000    0.000 
#
# Total GULP energy -267706.651805 kJ/mol
# GULP energy per Si atom -5577.221913 kJ/mol
# Density = 1.921958 g / cm^3
# Si number density = 19.263420 Si / 1000 Ang^3
#
#
#
# Elastic Constant Matrix: (Units=GPa)
#
#
# Indices 1 2 3 4 5 6 
#
# 1 124.0874 90.7512 20.9304 0.0000 0.0000 0.0000
# 2 90.7512 159.0648 24.0151 0.0000 0.0000 0.0000
# 3 20.9304 24.0151 15.7475 0.0000 0.0000 0.0000
# 4 0.0000 0.0000 0.0000 19.2478 0.0000 0.0000
# 5 0.0000 0.0000 0.0000 0.0000 27.5860 0.0000
# 6 0.0000 0.0000 0.0000 0.0000 0.0000 37.5536
#
#
#
# Elastic Compliance Matrix: (Units=1/GPa)
#
#
# Indices 1 2 3 4 5 6 
#
# 1 0.014706 -0.007066 -0.008770 0.000000 0.000000 0.000000
# 2 -0.007066 0.011562 -0.008241 0.000000 0.000000 0.000000
# 3 -0.008770 -0.008241 0.087727 0.000000 0.000000 0.000000
# 4 0.000000 0.000000 0.000000 0.051954 0.000000 0.000000
# 5 0.000000 0.000000 0.000000 0.000000 0.036250 0.000000
# 6 0.000000 0.000000 0.000000 0.000000 0.000000 0.026629
#
#
# Mechanical properties :
#
#
# Convention : Reuss Voigt Hill
#
# Bulk Modulus (GPa) = 15.18826 63.36588 39.27707
# Shear Modulus (GPa) = 16.72639 27.75770 22.24204
#
# Velocity S-wave (km/s) = 2.94989 3.80011 3.40167
# Velocity P-wave (km/s) = 4.41634 7.22636 5.98850
#
# Compressibility (1/GPa) = 0.06584033
#
# Stress axis : x y z
#
# Youngs Moduli (GPa) = 68.00000 86.48769 11.39905
#
# Poissons Ratio (x) = 0.61113 0.09997
# Poissons Ratio (y) = 0.48049 0.09394
# Poissons Ratio (z) = 0.59637 0.71275
#
# Static dielectric constant tensor:
#      x y z
#    x 1.680270 0.000000 0.000000 
#    y 0.000000 1.677910 0.000000 
#    z 0.000000 0.000000 1.680710 
# 
# From -- ./inp_files/14811.got.cif
#   From: 2010.05.17/outbox.cif.g08.bks.cpg/sg71_8_cif.got.tgz:14811.got - 2010.06.03 16:22:01.
