data_PCOD9521177
_publ_section_title
;
Structure prediction by ZEFSAII (Michael W. Deem and Ramdas Pophale) SiO2 
 PCOD9521177
Probable space group: I M M M
;
_chemical_formula_sum "Si O2"
_cell_formula_units_Z 96
_cell_length_a 9.303104
_cell_length_b 23.245411
_cell_length_c 24.218429
_cell_angle_alpha 90.000000
_cell_angle_beta 90.000000
_cell_angle_gamma 90.000000
_cell_volume 5237.343674
_symmetry_space_group_name_H-M "I M M M"
_symmetry_group_IT_number 71
_symmetry_cell_setting 'orthorhombic'
loop_
_space_group_symop_operation_xyz
x,y,z
-x,-y,z
x,-y,-z
-x,y,-z
-x,-y,-z
x,y,-z
-x,y,z
x,-y,z
1/2+x,1/2+y,1/2+z
1/2-x,1/2-y,1/2+z
1/2+x,1/2-y,1/2-z
1/2-x,1/2+y,1/2-z
1/2-x,1/2-y,1/2-z
1/2+x,1/2+y,1/2-z
1/2-x,1/2+y,1/2+z
1/2+x,1/2-y,1/2+z
loop_
_atom_site_type_symbol
_atom_site_label
_atom_site_fract_x
_atom_site_fract_y
_atom_site_fract_z
Si Si1 0.333593 0.000000 0.109068
Si Si2 0.837039 0.814702 0.500000
Si Si3 0.169900 0.626546 0.224929
Si Si4 0.835963 0.114228 0.910160
Si Si5 0.165071 0.800510 0.812011
Si Si6 0.839418 0.321801 0.500000
Si Si7 0.331974 0.000000 0.241978
Si Si8 0.830230 0.690340 0.113879
O O1 0.250597 0.055611 0.088568
O O2 0.500000 0.000000 0.092469
O O3 0.327121 0.000000 0.175689
O O4 0.849719 0.745963 0.500000
O O5 0.753163 0.825469 0.557727
O O6 0.000000 0.838955 0.500000
O O7 0.243378 0.678188 0.259825
O O8 0.227032 0.562092 0.238092
O O9 0.184036 0.641294 0.160431
O O10 0.000000 0.627397 0.239470
O O11 0.837386 0.142502 0.849951
O O12 0.000000 0.106699 0.928273
O O13 0.751124 0.158020 0.948183
O O14 0.216038 0.748523 0.852332
O O15 0.000000 0.786091 0.795983
O O16 0.000000 0.346815 0.500000
O O17 0.500000 0.000000 0.259431
O O18 0.000000 0.698818 0.100707
#
# Coordination Sequence:
#
# PCOD9521177 Si02
#       8
#     8   8  16  16  16   8   8  16
#     4  11  21  36  56  77 108 148 190 236 272 314
#     4  11  23  37  58  83 110 143 180 226 275 330
#     4  10  20  35  57  83 112 146 183 222 269 326
#     4  11  22  36  55  78 108 145 186 231 276 326
#     4  10  20  33  52  81 114 144 177 222 274 326
#     4  11  23  38  56  79 104 142 190 230 275 324
#     4   9  18  33  54  81 110 141 178 222 266 313
#     4  10  21  37  57  82 112 146 182 222 272 329
#
# _framework density 18.329903000000002
#
# number of rings (size 3 to 8) (size 9 to 14) (size 15 to 20)
#    0.000    1.667    3.333    1.750    0.000    3.000 
#    0.000    2.083    0.000    0.500    0.000    3.500 
#    0.000    0.000    0.000    0.000    0.000    0.000 
#
# Total GULP energy -267600.160322 kJ/mol
# GULP energy per Si atom -5575.003340 kJ/mol
# Density = 1.828818 g / cm^3
# Si number density = 18.329903 Si / 1000 Ang^3
#
#
#
# Elastic Constant Matrix: (Units=GPa)
#
#
# Indices 1 2 3 4 5 6 
#
# 1 91.6239 5.8000 44.3488 0.0000 0.0000 0.0000
# 2 5.8000 38.7664 2.1509 0.0000 0.0000 0.0000
# 3 44.3488 2.1509 92.9362 0.0000 0.0000 0.0000
# 4 0.0000 0.0000 0.0000 61.2013 0.0000 0.0000
# 5 0.0000 0.0000 0.0000 0.0000 12.7802 0.0000
# 6 0.0000 0.0000 0.0000 0.0000 0.0000 19.1750
#
#
#
# Elastic Compliance Matrix: (Units=1/GPa)
#
#
# Indices 1 2 3 4 5 6 
#
# 1 0.014312 -0.001765 -0.006789 0.000000 0.000000 0.000000
# 2 -0.001765 0.026046 0.000239 0.000000 0.000000 0.000000
# 3 -0.006789 0.000239 0.013994 0.000000 0.000000 0.000000
# 4 0.000000 0.000000 0.000000 0.016340 0.000000 0.000000
# 5 0.000000 0.000000 0.000000 0.000000 0.078246 0.000000
# 6 0.000000 0.000000 0.000000 0.000000 0.000000 0.052151
#
#
# Mechanical properties :
#
#
# Convention : Reuss Voigt Hill
#
# Bulk Modulus (GPa) = 26.50826 36.43621 31.47223
# Shear Modulus (GPa) = 21.71155 30.03308 25.87232
#
# Velocity S-wave (km/s) = 3.44537 4.05220 3.76104
# Velocity P-wave (km/s) = 5.50642 6.46645 6.00564
#
# Compressibility (1/GPa) = 0.03772409
#
# Stress axis : x y z
#
# Youngs Moduli (GPa) = 69.87223 38.39317 71.45876
#
# Poissons Ratio (x) = 0.06775 0.48511
# Poissons Ratio (y) = 0.12330 -0.01710
# Poissons Ratio (z) = 0.47434 -0.00919
#
# Static dielectric constant tensor:
#      x y z
#    x 1.657470 0.000000 0.000000 
#    y 0.000000 1.652100 0.000000 
#    z 0.000000 0.000000 1.684940 
# 
# From -- ./inp_files/57811.got.cif
#   From: 2010.05.17/outbox.cif.g08.bks.cpg/sg71_29_cif.got.tgz:57811.got - 2010.06.03 16:22:01.
