data_PCOD9521500
_publ_section_title
;
Structure prediction by ZEFSAII (Michael W. Deem and Ramdas Pophale) SiO2 
 PCOD9521500
Probable space group: I M M M
;
_chemical_formula_sum "Si O2"
_cell_formula_units_Z 88
_cell_length_a 7.549906
_cell_length_b 20.062508
_cell_length_c 25.051708
_cell_angle_alpha 90.000000
_cell_angle_beta 90.000000
_cell_angle_gamma 90.000000
_cell_volume 3794.583451
_symmetry_space_group_name_H-M "I M M M"
_symmetry_group_IT_number 71
_symmetry_cell_setting 'orthorhombic'
loop_
_space_group_symop_operation_xyz
x,y,z
-x,-y,z
x,-y,-z
-x,y,-z
-x,-y,-z
x,y,-z
-x,y,z
x,-y,z
1/2+x,1/2+y,1/2+z
1/2-x,1/2-y,1/2+z
1/2+x,1/2-y,1/2-z
1/2-x,1/2+y,1/2-z
1/2-x,1/2-y,1/2-z
1/2+x,1/2+y,1/2-z
1/2-x,1/2+y,1/2+z
1/2+x,1/2-y,1/2+z
loop_
_atom_site_type_symbol
_atom_site_label
_atom_site_fract_x
_atom_site_fract_y
_atom_site_fract_z
Si Si1 0.699951 0.500000 0.276858
Si Si2 0.789643 0.726081 0.942470
Si Si3 0.283704 0.000000 0.062299
Si Si4 0.292845 0.148758 0.341909
Si Si5 0.798803 0.648301 0.722132
Si Si6 0.714328 0.858617 0.891087
Si Si7 0.696533 0.500000 0.850874
O O1 0.500000 0.500000 0.298938
O O2 0.799515 0.431708 0.288146
O O3 0.683288 0.500000 0.213149
O O4 0.712386 0.691385 0.889722
O O5 0.764054 0.804717 0.935086
O O6 0.000000 0.711807 0.942524
O O7 0.718077 0.704468 0.000000
O O8 0.225474 0.067645 0.091907
O O9 0.500000 0.000000 0.063237
O O10 0.231204 0.000000 0.000000
O O11 0.500000 0.164906 0.336332
O O12 0.218172 0.158113 0.281316
O O13 0.283056 0.071510 0.360569
O O14 0.714781 0.669668 0.666040
O O15 0.000000 0.673633 0.724103
O O16 0.500000 0.860617 0.887098
O O17 0.500000 0.500000 0.874459
#
# Coordination Sequence:
#
# PCOD9521500 Si02
#       7
#     8  16   8  16  16  16   8
#     4   9  16  26  44  73 108 140 166 200 251 305
#     4  10  22  39  55  73 101 137 176 217 262 314
#     4   9  17  30  49  73 100 131 168 206 244 295
#     4   9  18  34  55  76 103 141 176 207 254 316
#     4   9  17  30  49  74 103 135 172 211 254 308
#     4  10  20  34  54  78 103 134 173 216 260 307
#     4   9  17  30  51  81 109 131 165 214 259 300
#
# _framework density 23.190950000000001
#
# number of rings (size 3 to 8) (size 9 to 14) (size 15 to 20)
#    0.000    2.636    0.000    1.636    0.000    6.909 
#    0.000    0.909    0.000    4.364    0.000    0.000 
#    0.000    0.000    0.000    0.000    0.000    0.000 
#
# Total GULP energy -245331.819944 kJ/mol
# GULP energy per Si atom -5575.723181 kJ/mol
# Density = 2.313817 g / cm^3
# Si number density = 23.190950 Si / 1000 Ang^3
#
#
#
# Elastic Constant Matrix: (Units=GPa)
#
#
# Indices 1 2 3 4 5 6 
#
# 1 68.5692 -7.2117 9.9725 0.0000 0.0000 0.0000
# 2 -7.2117 65.3507 56.0021 0.0000 0.0000 0.0000
# 3 9.9725 56.0021 196.0462 0.0000 0.0000 0.0000
# 4 0.0000 0.0000 0.0000 29.9875 0.0000 0.0000
# 5 0.0000 0.0000 0.0000 0.0000 3.7654 0.0000
# 6 0.0000 0.0000 0.0000 0.0000 0.0000 -12.5663
#
#
#
# Elastic Compliance Matrix: (Units=1/GPa)
#
#
# Indices 1 2 3 4 5 6 
#
# 1 0.015149 0.003088 -0.001653 0.000000 0.000000 0.000000
# 2 0.003088 0.020892 -0.006125 0.000000 0.000000 0.000000
# 3 -0.001653 -0.006125 0.006935 0.000000 0.000000 0.000000
# 4 0.000000 0.000000 0.000000 0.033347 0.000000 0.000000
# 5 0.000000 0.000000 0.000000 0.000000 0.265578 0.000000
# 6 0.000000 0.000000 0.000000 0.000000 0.000000 -0.079578
#
#
# Mechanical properties :
#
#
# Convention : Reuss Voigt Hill
#
# Bulk Modulus (GPa) = 29.76557 49.72133 39.74345
# Shear Modulus (GPa) = 17.67410 22.31753 19.99582
#
# Velocity S-wave (km/s) = 2.76363 3.10552 2.93955
# Velocity P-wave (km/s) = 4.80067 5.86051 5.35686
#
# Compressibility (1/GPa) = 0.03359586
#
# Stress axis : x y z
#
# Youngs Moduli (GPa) = 66.01113 47.86620 144.20571
#
# Poissons Ratio (x) = -0.14781 0.23833
# Poissons Ratio (y) = -0.20384 0.88325
# Poissons Ratio (z) = 0.10910 0.29318
#
# Static dielectric constant tensor:
#      x y z
#    x 1.885330 0.000000 0.000000 
#    y 0.000000 1.889850 0.000000 
#    z 0.000000 0.000000 1.918060 
# 
# From -- ./inp_files/57601.got.cif
#   From: 2010.05.17/outbox.cif.g08.bks.cpg/sg71_29_cif.got.tgz:57601.got - 2010.06.03 16:22:01.
