data_PCOD9521130
_publ_section_title
;
Structure prediction by ZEFSAII (Michael W. Deem and Ramdas Pophale) SiO2 
 PCOD9521130
Probable space group: I M M M
;
_chemical_formula_sum "Si O2"
_cell_formula_units_Z 112
_cell_length_a 15.297798
_cell_length_b 14.964361
_cell_length_c 27.810822
_cell_angle_alpha 90.000000
_cell_angle_beta 90.000000
_cell_angle_gamma 90.000000
_cell_volume 6366.502647
_symmetry_space_group_name_H-M "I M M M"
_symmetry_group_IT_number 71
_symmetry_cell_setting 'orthorhombic'
loop_
_space_group_symop_operation_xyz
x,y,z
-x,-y,z
x,-y,-z
-x,y,-z
-x,-y,-z
x,y,-z
-x,y,z
x,-y,z
1/2+x,1/2+y,1/2+z
1/2-x,1/2-y,1/2+z
1/2+x,1/2-y,1/2-z
1/2-x,1/2+y,1/2-z
1/2-x,1/2-y,1/2-z
1/2+x,1/2+y,1/2-z
1/2-x,1/2+y,1/2+z
1/2+x,1/2-y,1/2+z
loop_
_atom_site_type_symbol
_atom_site_label
_atom_site_fract_x
_atom_site_fract_y
_atom_site_fract_z
Si Si1 0.232928 0.101466 0.079536
Si Si2 0.601340 0.209383 0.053721
Si Si3 0.398461 0.105179 0.639930
Si Si4 0.600390 0.276016 0.843453
Si Si5 0.695197 0.897083 0.815937
Si Si6 0.758269 0.893931 0.710996
Si Si7 0.102996 0.259291 0.945783
O O1 0.327809 0.131187 0.059673
O O2 0.242598 0.106954 0.137409
O O3 0.162368 0.172645 0.062190
O O4 0.212648 0.000000 0.065865
O O5 0.500000 0.179429 0.058430
O O6 0.617665 0.274697 0.098914
O O7 0.611521 0.247965 0.000000
O O8 0.500000 0.120899 0.653110
O O9 0.332315 0.124894 0.683118
O O10 0.376645 0.166850 0.594386
O O11 0.389893 0.000000 0.627887
O O12 0.500000 0.299858 0.835186
O O13 0.619963 0.174683 0.826250
O O14 0.666267 0.338845 0.814952
O O15 0.745002 0.872513 0.767047
O O16 0.664220 0.000000 0.811402
O O17 0.775568 0.000000 0.707210
O O18 0.000000 0.237211 0.941340
O O19 0.117764 0.293194 0.000000
#
# Coordination Sequence:
#
# PCOD9521130 Si02
#       7
#    16  16  16  16  16  16  16
#     4  10  20  34  51  71  99 135 170 204 244 293
#     4   9  18  32  50  73 100 130 166 208 252 294
#     4   9  18  33  54  78 100 126 164 208 254 300
#     4  10  20  33  52  77 104 137 171 203 245 297
#     4   9  19  35  53  73 100 133 168 210 257 295
#     4  10  20  35  54  76 105 136 166 206 251 297
#     4  10  21  35  51  73 101 132 165 204 250 298
#
# _framework density 17.592075999999999
#
# number of rings (size 3 to 8) (size 9 to 14) (size 15 to 20)
#    0.000    2.429    0.000    2.571    0.000    3.143 
#    0.000    9.286    0.000    3.857    0.000    2.000 
#    0.000    0.000    0.000    0.000    0.000    0.143 
#
# Total GULP energy -312230.044305 kJ/mol
# GULP energy per Si atom -5575.536505 kJ/mol
# Density = 1.755204 g / cm^3
# Si number density = 17.592076 Si / 1000 Ang^3
#
#
#
# Elastic Constant Matrix: (Units=GPa)
#
#
# Indices 1 2 3 4 5 6 
#
# 1 55.4941 26.4421 43.8925 0.0000 0.0000 0.0000
# 2 26.4421 29.5100 30.4954 0.0000 0.0000 0.0000
# 3 43.8925 30.4954 129.2069 0.0000 0.0000 0.0000
# 4 0.0000 0.0000 0.0000 16.0993 0.0000 0.0000
# 5 0.0000 0.0000 0.0000 0.0000 17.9657 0.0000
# 6 0.0000 0.0000 0.0000 0.0000 0.0000 13.7345
#
#
#
# Elastic Compliance Matrix: (Units=1/GPa)
#
#
# Indices 1 2 3 4 5 6 
#
# 1 0.034493 -0.024862 -0.005850 0.000000 0.000000 0.000000
# 2 -0.024862 0.062738 -0.006362 0.000000 0.000000 0.000000
# 3 -0.005850 -0.006362 0.011228 0.000000 0.000000 0.000000
# 4 0.000000 0.000000 0.000000 0.062115 0.000000 0.000000
# 5 0.000000 0.000000 0.000000 0.000000 0.055662 0.000000
# 6 0.000000 0.000000 0.000000 0.000000 0.000000 0.072810
#
#
# Mechanical properties :
#
#
# Convention : Reuss Voigt Hill
#
# Bulk Modulus (GPa) = 29.14368 46.20790 37.67579
# Shear Modulus (GPa) = 12.99952 17.11862 15.05907
#
# Velocity S-wave (km/s) = 2.72130 3.12282 2.92895
# Velocity P-wave (km/s) = 5.14551 6.27104 5.73595
#
# Compressibility (1/GPa) = 0.03431275
#
# Stress axis : x y z
#
# Youngs Moduli (GPa) = 28.99137 15.93921 89.06195
#
# Poissons Ratio (x) = 0.39628 0.52097
# Poissons Ratio (y) = 0.72079 0.56658
# Poissons Ratio (z) = 0.16959 0.10140
#
# Static dielectric constant tensor:
#      x y z
#    x 1.578860 0.000000 0.000000 
#    y 0.000000 1.584370 0.000000 
#    z 0.000000 0.000000 1.618250 
# 
# From -- ./inp_files/34842.got.cif
#   From: 2010.05.17/outbox.cif.g08.bks.cpg/sg71_18_cif.got.tgz:34842.got - 2010.06.03 16:22:01.
