data_PCOD9521106
_publ_section_title
;
Structure prediction by ZEFSAII (Michael W. Deem and Ramdas Pophale) SiO2 
 PCOD9521106
Probable space group: I M M M
;
_chemical_formula_sum "Si O2"
_cell_formula_units_Z 104
_cell_length_a 28.461725
_cell_length_b 23.413514
_cell_length_c 8.911479
_cell_angle_alpha 90.000000
_cell_angle_beta 90.000000
_cell_angle_gamma 90.000000
_cell_volume 5938.511550
_symmetry_space_group_name_H-M "I M M M"
_symmetry_group_IT_number 71
_symmetry_cell_setting 'orthorhombic'
loop_
_space_group_symop_operation_xyz
x,y,z
-x,-y,z
x,-y,-z
-x,y,-z
-x,-y,-z
x,y,-z
-x,y,z
x,-y,z
1/2+x,1/2+y,1/2+z
1/2-x,1/2-y,1/2+z
1/2+x,1/2-y,1/2-z
1/2-x,1/2+y,1/2-z
1/2-x,1/2-y,1/2-z
1/2+x,1/2+y,1/2-z
1/2-x,1/2+y,1/2+z
1/2+x,1/2-y,1/2+z
loop_
_atom_site_type_symbol
_atom_site_label
_atom_site_fract_x
_atom_site_fract_y
_atom_site_fract_z
Si Si1 0.000000 0.569422 0.327464
Si Si2 0.904619 0.434386 0.177867
Si Si3 0.301111 0.263170 0.177008
Si Si4 0.857659 0.130873 0.819020
Si Si5 0.767321 0.936594 0.818254
Si Si6 0.054934 0.066748 0.681021
Si Si7 0.322068 0.865963 0.823701
O O1 0.952682 0.588579 0.247953
O O2 0.000000 0.500000 0.318040
O O3 0.000000 0.585952 0.500000
O O4 0.897874 0.500000 0.229601
O O5 0.861196 0.397732 0.230550
O O6 0.909004 0.434817 0.000000
O O7 0.250000 0.250000 0.250000
O O8 0.333070 0.311523 0.255228
O O9 0.325876 0.201669 0.189586
O O10 0.295018 0.276758 0.000000
O O11 0.819400 0.082388 0.775637
O O12 0.907608 0.109995 0.754336
O O13 0.860173 0.135021 0.000000
O O14 0.728842 0.889709 0.773612
O O15 0.755188 0.000000 0.763622
O O16 0.766791 0.937728 0.000000
O O17 0.058783 0.070471 0.500000
O O18 0.000000 0.078383 0.719846
O O19 0.064588 0.000000 0.722916
O O20 0.327280 0.880767 0.000000
#
# Coordination Sequence:
#
# PCOD9521106 Si02
#       7
#     8  16  16  16  16  16  16
#     4   9  17  31  53  77 101 137 179 211 250 313
#     4  10  20  33  51  79 112 140 170 217 275 323
#     4  11  22  38  58  80 107 145 191 234 276 325
#     4  11  21  35  56  84 115 150 191 233 281 337
#     4   9  17  30  49  76 110 143 176 218 266 319
#     4   9  19  37  60  87 120 155 190 234 292 351
#     4  10  20  35  54  75 103 143 186 223 267 325
#
# _framework density 17.512806000000001
#
# number of rings (size 3 to 8) (size 9 to 14) (size 15 to 20)
#    0.000    2.077    1.538    3.000    0.000    4.923 
#    0.000    0.769    1.692    2.769    0.000    0.000 
#    0.000    0.000    0.000    0.000    0.000    0.000 
#
# Total GULP energy -289911.761159 kJ/mol
# GULP energy per Si atom -5575.226176 kJ/mol
# Density = 1.747295 g / cm^3
# Si number density = 17.512806 Si / 1000 Ang^3
#
#
#
# Elastic Constant Matrix: (Units=GPa)
#
#
# Indices 1 2 3 4 5 6 
#
# 1 131.4585 46.4711 50.7022 0.0000 0.0000 0.0000
# 2 46.4711 79.5880 35.2359 0.0000 0.0000 0.0000
# 3 50.7022 35.2359 57.2812 0.0000 0.0000 0.0000
# 4 0.0000 0.0000 0.0000 24.1156 0.0000 0.0000
# 5 0.0000 0.0000 0.0000 0.0000 463.1432 0.0000
# 6 0.0000 0.0000 0.0000 0.0000 0.0000 26.0280
#
#
#
# Elastic Compliance Matrix: (Units=1/GPa)
#
#
# Indices 1 2 3 4 5 6 
#
# 1 0.012114 -0.003197 -0.008756 0.000000 0.000000 0.000000
# 2 -0.003197 0.018111 -0.008311 0.000000 0.000000 0.000000
# 3 -0.008756 -0.008311 0.030321 0.000000 0.000000 0.000000
# 4 0.000000 0.000000 0.000000 0.041467 0.000000 0.000000
# 5 0.000000 0.000000 0.000000 0.000000 0.002159 0.000000
# 6 0.000000 0.000000 0.000000 0.000000 0.000000 0.038420
#
#
# Mechanical properties :
#
#
# Convention : Reuss Voigt Hill
#
# Bulk Modulus (GPa) = 49.95637 59.23846 54.59741
# Shear Modulus (GPa) = 26.34440 111.71859 69.03149
#
# Velocity S-wave (km/s) = 3.88273 7.99569 6.28516
# Velocity P-wave (km/s) = 6.97770 10.91515 9.16048
#
# Compressibility (1/GPa) = 0.02001747
#
# Stress axis : x y z
#
# Youngs Moduli (GPa) = 82.54695 55.21553 32.98045
#
# Poissons Ratio (x) = 0.17651 0.28879
# Poissons Ratio (y) = 0.26388 0.27410
# Poissons Ratio (z) = 0.72282 0.45890
#
# Static dielectric constant tensor:
#      x y z
#    x 1.596140 0.000000 0.000000 
#    y 0.000000 1.603200 0.000000 
#    z 0.000000 0.000000 1.593700 
# 
# From -- ./inp_files/15315.got.cif
#   From: 2010.05.17/outbox.cif.g08.bks.cpg/sg71_8_cif.got.tgz:15315.got - 2010.06.03 16:22:01.
