data_PCOD9521934
_publ_section_title
;
Structure prediction by ZEFSAII (Michael W. Deem and Ramdas Pophale) SiO2 
 PCOD9521934
Probable space group: I M M M
;
_chemical_formula_sum "Si O2"
_cell_formula_units_Z 104
_cell_length_a 24.939550
_cell_length_b 9.353349
_cell_length_c 21.332209
_cell_angle_alpha 90.000000
_cell_angle_beta 90.000000
_cell_angle_gamma 90.000000
_cell_volume 4976.128450
_symmetry_space_group_name_H-M "I M M M"
_symmetry_group_IT_number 71
_symmetry_cell_setting 'orthorhombic'
loop_
_space_group_symop_operation_xyz
x,y,z
-x,-y,z
x,-y,-z
-x,y,-z
-x,-y,-z
x,y,-z
-x,y,z
x,-y,z
1/2+x,1/2+y,1/2+z
1/2-x,1/2-y,1/2+z
1/2+x,1/2-y,1/2-z
1/2-x,1/2+y,1/2-z
1/2-x,1/2-y,1/2-z
1/2+x,1/2+y,1/2-z
1/2-x,1/2+y,1/2+z
1/2+x,1/2-y,1/2+z
loop_
_atom_site_type_symbol
_atom_site_label
_atom_site_fract_x
_atom_site_fract_y
_atom_site_fract_z
Si Si1 0.791253 0.667996 0.203801
Si Si2 0.586733 0.164825 0.260368
Si Si3 0.565986 0.163018 0.500000
Si Si4 0.941122 0.167893 0.637439
Si Si5 0.851061 0.342603 0.573976
Si Si6 0.223699 0.829446 0.073920
Si Si7 0.436753 0.659255 0.616841
O O1 0.776178 0.500000 0.195890
O O2 0.750000 0.750000 0.250000
O O3 0.848695 0.671626 0.238431
O O4 0.797793 0.742393 0.134773
O O5 0.562510 0.241818 0.200699
O O6 0.568816 0.252776 0.320512
O O7 0.570427 0.000000 0.264760
O O8 0.500000 0.159473 0.500000
O O9 0.585886 0.248967 0.560008
O O10 0.583928 0.000000 0.500000
O O11 0.890964 0.223560 0.598463
O O12 0.000000 0.191980 0.607807
O O13 0.936388 0.000000 0.650905
O O14 0.859048 0.352424 0.500000
O O15 0.863538 0.500000 0.602403
O O16 0.788219 0.314016 0.582846
O O17 0.211800 0.000000 0.079178
O O18 0.211989 0.788804 0.000000
O O19 0.500000 0.645140 0.603609
O O20 0.413876 0.500000 0.621116
#
# Coordination Sequence:
#
# PCOD9521934 Si02
#       7
#    16  16   8  16  16  16  16
#     4  11  24  40  60  87 117 151 193 243 294 350
#     4  11  24  40  57  81 111 148 192 236 287 343
#     4   9  17  31  53  79 107 143 183 221 267 323
#     4  11  24  39  56  83 118 153 192 241 292 343
#     4   9  19  37  61  88 117 151 192 234 279 340
#     4   9  19  38  63  90 120 154 194 242 294 351
#     4  10  20  35  56  82 111 143 184 232 279 330
#
# _framework density 20.899781000000001
#
# number of rings (size 3 to 8) (size 9 to 14) (size 15 to 20)
#    0.000    1.923    0.000    4.385    0.000   12.615 
#    1.385    3.077    0.000    0.000    0.000    0.000 
#    0.000    0.000    0.000    0.000    0.000    0.000 
#
# Total GULP energy -290392.217027 kJ/mol
# GULP energy per Si atom -5584.465712 kJ/mol
# Density = 2.085221 g / cm^3
# Si number density = 20.899781 Si / 1000 Ang^3
#
#
#
# Elastic Constant Matrix: (Units=GPa)
#
#
# Indices 1 2 3 4 5 6 
#
# 1 64.2267 34.8220 17.1192 0.0000 0.0000 0.0000
# 2 34.8220 120.6226 16.2485 0.0000 0.0000 0.0000
# 3 17.1192 16.2485 47.4629 0.0000 0.0000 0.0000
# 4 0.0000 0.0000 0.0000 42.8086 0.0000 0.0000
# 5 0.0000 0.0000 0.0000 0.0000 27.8940 0.0000
# 6 0.0000 0.0000 0.0000 0.0000 0.0000 16.8136
#
#
#
# Elastic Compliance Matrix: (Units=1/GPa)
#
#
# Indices 1 2 3 4 5 6 
#
# 1 0.019700 -0.004959 -0.005408 0.000000 0.000000 0.000000
# 2 -0.004959 0.009939 -0.001614 0.000000 0.000000 0.000000
# 3 -0.005408 -0.001614 0.023572 0.000000 0.000000 0.000000
# 4 0.000000 0.000000 0.000000 0.023360 0.000000 0.000000
# 5 0.000000 0.000000 0.000000 0.000000 0.035850 0.000000
# 6 0.000000 0.000000 0.000000 0.000000 0.000000 0.059476
#
#
# Mechanical properties :
#
#
# Convention : Reuss Voigt Hill
#
# Bulk Modulus (GPa) = 34.18804 40.96575 37.57690
# Shear Modulus (GPa) = 24.31815 28.44474 26.38144
#
# Velocity S-wave (km/s) = 3.41480 3.69318 3.55672
# Velocity P-wave (km/s) = 5.65167 6.15059 5.90640
#
# Compressibility (1/GPa) = 0.02924999
#
# Stress axis : x y z
#
# Youngs Moduli (GPa) = 50.76227 100.61160 42.42286
#
# Poissons Ratio (x) = 0.49889 0.22942
# Poissons Ratio (y) = 0.25171 0.06848
# Poissons Ratio (z) = 0.27452 0.16240
#
# Static dielectric constant tensor:
#      x y z
#    x 1.808030 0.000000 0.000000 
#    y 0.000000 1.723430 0.000000 
#    z 0.000000 0.000000 1.666540 
# 
# From -- ./inp_files/11094.got.cif
#   From: 2010.05.17/outbox.cif.g08.bks.cpg/sg71_6_cif.got.tgz:11094.got - 2010.06.03 16:22:01.
