data_PCOD9521352
_publ_section_title
;
Structure prediction by ZEFSAII (Michael W. Deem and Ramdas Pophale) SiO2 
 PCOD9521352
Probable space group: I M M M
;
_chemical_formula_sum "Si O2"
_cell_formula_units_Z 88
_cell_length_a 12.087004
_cell_length_b 19.028188
_cell_length_c 22.072587
_cell_angle_alpha 90.000000
_cell_angle_beta 90.000000
_cell_angle_gamma 90.000000
_cell_volume 5076.557817
_symmetry_space_group_name_H-M "I M M M"
_symmetry_group_IT_number 71
_symmetry_cell_setting 'orthorhombic'
loop_
_space_group_symop_operation_xyz
x,y,z
-x,-y,z
x,-y,-z
-x,y,-z
-x,-y,-z
x,y,-z
-x,y,z
x,-y,z
1/2+x,1/2+y,1/2+z
1/2-x,1/2-y,1/2+z
1/2+x,1/2-y,1/2-z
1/2-x,1/2+y,1/2-z
1/2-x,1/2-y,1/2-z
1/2+x,1/2+y,1/2-z
1/2-x,1/2+y,1/2+z
1/2+x,1/2-y,1/2+z
loop_
_atom_site_type_symbol
_atom_site_label
_atom_site_fract_x
_atom_site_fract_y
_atom_site_fract_z
Si Si1 0.500000 0.414867 0.431810
Si Si2 0.866832 0.417710 0.929091
Si Si3 0.239334 0.295538 0.150384
Si Si4 0.224034 0.916743 0.861376
Si Si5 0.871160 0.685508 0.571938
Si Si6 0.371935 0.680669 0.731131
O O1 0.500000 0.500000 0.434011
O O2 0.500000 0.387260 0.500000
O O3 0.612672 0.395209 0.398167
O O4 0.839269 0.500000 0.917386
O O5 0.810116 0.363627 0.882754
O O6 0.000000 0.410901 0.924154
O O7 0.838086 0.402793 0.000000
O O8 0.293162 0.245430 0.099799
O O9 0.334401 0.309727 0.199993
O O10 0.151565 0.250056 0.190210
O O11 0.328286 0.885497 0.896414
O O12 0.206859 0.878807 0.797530
O O13 0.227868 0.000000 0.856580
O O14 0.857811 0.680700 0.500000
O O15 0.000000 0.698617 0.585471
O O16 0.500000 0.661213 0.727147
#
# Coordination Sequence:
#
# PCOD9521352 Si02
#       6
#     8  16  16  16  16  16
#     4   9  16  28  48  72 100 132 166 214 268 309
#     4   9  18  34  57  84 111 136 167 217 279 332
#     4  10  20  34  55  78 105 140 180 221 262 318
#     4  10  20  34  52  76 106 141 180 223 267 317
#     4  10  21  36  54  77 106 142 181 221 268 321
#     4  10  20  34  52  75 105 143 183 222 263 310
#
# _framework density 17.334581
#
# number of rings (size 3 to 8) (size 9 to 14) (size 15 to 20)
#    0.000    2.273    0.909    2.727    0.000    2.182 
#    0.000    1.818    0.000    1.636    0.000    6.364 
#    0.000    0.000    0.000    0.000    0.000    0.000 
#
# Total GULP energy -245306.738700 kJ/mol
# GULP energy per Si atom -5575.153152 kJ/mol
# Density = 1.729513 g / cm^3
# Si number density = 17.334581 Si / 1000 Ang^3
#
#
#
# Elastic Constant Matrix: (Units=GPa)
#
#
# Indices 1 2 3 4 5 6 
#
# 1 49.2146 23.7790 23.4226 0.0000 0.0000 0.0000
# 2 23.7790 104.0063 51.2445 0.0000 0.0000 0.0000
# 3 23.4226 51.2445 73.1497 0.0000 0.0000 0.0000
# 4 0.0000 0.0000 0.0000 23.6676 0.0000 0.0000
# 5 0.0000 0.0000 0.0000 0.0000 20.7959 0.0000
# 6 0.0000 0.0000 0.0000 0.0000 0.0000 23.3607
#
#
#
# Elastic Compliance Matrix: (Units=1/GPa)
#
#
# Indices 1 2 3 4 5 6 
#
# 1 0.024440 -0.002645 -0.005973 0.000000 0.000000 0.000000
# 2 -0.002645 0.014969 -0.009639 0.000000 0.000000 0.000000
# 3 -0.005973 -0.009639 0.022336 0.000000 0.000000 0.000000
# 4 0.000000 0.000000 0.000000 0.042252 0.000000 0.000000
# 5 0.000000 0.000000 0.000000 0.000000 0.048086 0.000000
# 6 0.000000 0.000000 0.000000 0.000000 0.000000 0.042807
#
#
# Mechanical properties :
#
#
# Convention : Reuss Voigt Hill
#
# Bulk Modulus (GPa) = 39.63481 47.02921 43.33201
# Shear Modulus (GPa) = 20.84947 22.09313 21.47130
#
# Velocity S-wave (km/s) = 3.47186 3.57390 3.52325
# Velocity P-wave (km/s) = 6.24387 6.64978 6.45002
#
# Compressibility (1/GPa) = 0.02523035
#
# Stress axis : x y z
#
# Youngs Moduli (GPa) = 40.91702 66.80509 44.77084
#
# Poissons Ratio (x) = 0.17669 0.26741
# Poissons Ratio (y) = 0.10822 0.43157
# Poissons Ratio (z) = 0.24439 0.64397
#
# Static dielectric constant tensor:
#      x y z
#    x 1.565850 0.000000 0.000000 
#    y 0.000000 1.587800 0.000000 
#    z 0.000000 0.000000 1.593590 
# 
# From -- ./inp_files/23940.got.cif
#   From: 2010.05.17/outbox.cif.g08.bks.cpg/sg71_12_cif.got.tgz:23940.got - 2010.06.03 16:22:01.
