data_PCOD9521493
_publ_section_title
;
Structure prediction by ZEFSAII (Michael W. Deem and Ramdas Pophale) SiO2 
 PCOD9521493
Probable space group: I M M M
;
_chemical_formula_sum "Si O2"
_cell_formula_units_Z 112
_cell_length_a 22.357575
_cell_length_b 15.009901
_cell_length_c 15.475763
_cell_angle_alpha 90.000000
_cell_angle_beta 90.000000
_cell_angle_gamma 90.000000
_cell_volume 5193.433731
_symmetry_space_group_name_H-M "I M M M"
_symmetry_group_IT_number 71
_symmetry_cell_setting 'orthorhombic'
loop_
_space_group_symop_operation_xyz
x,y,z
-x,-y,z
x,-y,-z
-x,y,-z
-x,-y,-z
x,y,-z
-x,y,z
x,-y,z
1/2+x,1/2+y,1/2+z
1/2-x,1/2-y,1/2+z
1/2+x,1/2-y,1/2-z
1/2-x,1/2+y,1/2-z
1/2-x,1/2-y,1/2-z
1/2+x,1/2+y,1/2-z
1/2-x,1/2+y,1/2+z
1/2+x,1/2-y,1/2+z
loop_
_atom_site_type_symbol
_atom_site_label
_atom_site_fract_x
_atom_site_fract_y
_atom_site_fract_z
Si Si1 0.765131 0.605053 0.734357
Si Si2 0.072010 0.099590 0.747533
Si Si3 0.607596 0.276355 0.094392
Si Si4 0.748801 0.238214 0.603663
Si Si5 0.095946 0.403754 0.322081
Si Si6 0.572864 0.287948 0.408344
Si Si7 0.431578 0.904780 0.625308
O O1 0.744734 0.500000 0.739195
O O2 0.735278 0.671705 0.661635
O O3 0.765059 0.656338 0.828164
O O4 0.833861 0.599752 0.702467
O O5 0.090369 0.149771 0.662320
O O6 0.094178 0.156710 0.828012
O O7 0.000000 0.097161 0.752463
O O8 0.094970 0.000000 0.750787
O O9 0.679146 0.265335 0.095754
O O10 0.580794 0.181483 0.122133
O O11 0.587167 0.301988 0.000000
O O12 0.728281 0.237211 0.500000
O O13 0.082582 0.500000 0.361850
O O14 0.065748 0.398443 0.228570
O O15 0.587500 0.330058 0.500000
O O16 0.500000 0.282250 0.402819
O O17 0.596467 0.187097 0.405145
O O18 0.500000 0.907000 0.593989
O O19 0.402834 0.000000 0.603196
#
# Coordination Sequence:
#
# PCOD9521493 Si02
#       7
#    16  16  16  16  16  16  16
#     4   9  18  33  54  78 106 138 170 210 257 305
#     4  10  21  36  52  71  99 134 173 219 263 299
#     4  10  20  34  54  77 101 133 171 210 255 305
#     4   9  19  35  55  80 106 134 171 213 258 309
#     4   9  17  31  52  77 105 134 166 202 248 303
#     4   9  17  30  49  71  94 126 169 210 251 299
#     4   9  16  27  47  74 104 136 166 198 239 292
#
# _framework density 21.565694000000001
#
# number of rings (size 3 to 8) (size 9 to 14) (size 15 to 20)
#    0.000    2.714    1.429    0.000    0.000    2.571 
#    0.000    8.571    0.000    2.571    0.000    5.000 
#    0.000    0.000    0.000    0.000    0.000    0.000 
#
# Total GULP energy -312109.750166 kJ/mol
# GULP energy per Si atom -5573.388396 kJ/mol
# Density = 2.151661 g / cm^3
# Si number density = 21.565694 Si / 1000 Ang^3
#
#
#
# Elastic Constant Matrix: (Units=GPa)
#
#
# Indices 1 2 3 4 5 6 
#
# 1 40.5620 9.9756 5.3404 0.0000 0.0000 0.0000
# 2 9.9756 195.2018 112.6508 0.0000 0.0000 0.0000
# 3 5.3404 112.6508 189.6828 0.0000 0.0000 0.0000
# 4 0.0000 0.0000 0.0000 -67.0838 0.0000 0.0000
# 5 0.0000 0.0000 0.0000 0.0000 4.6192 0.0000
# 6 0.0000 0.0000 0.0000 0.0000 0.0000 14.0609
#
#
#
# Elastic Compliance Matrix: (Units=1/GPa)
#
#
# Indices 1 2 3 4 5 6 
#
# 1 0.024968 -0.001324 0.000083 0.000000 0.000000 0.000000
# 2 -0.001324 0.007864 -0.004633 0.000000 0.000000 0.000000
# 3 0.000083 -0.004633 0.008021 0.000000 0.000000 0.000000
# 4 0.000000 0.000000 0.000000 -0.014907 0.000000 0.000000
# 5 0.000000 0.000000 0.000000 0.000000 0.216486 0.000000
# 6 0.000000 0.000000 0.000000 0.000000 0.000000 0.071119
#
#
# Mechanical properties :
#
#
# Convention : Reuss Voigt Hill
#
# Bulk Modulus (GPa) = 34.35723 75.70892 55.03307
# Shear Modulus (GPa) = 14.92525 10.15126 12.53826
#
# Velocity S-wave (km/s) = 2.63360 2.17195 2.41384
# Velocity P-wave (km/s) = 5.02134 6.43989 5.77434
#
# Compressibility (1/GPa) = 0.02910596
#
# Stress axis : x y z
#
# Youngs Moduli (GPa) = 40.05081 127.15402 124.66779
#
# Poissons Ratio (x) = 0.16837 -0.01040
# Poissons Ratio (y) = 0.05303 0.57763
# Poissons Ratio (z) = -0.00334 0.58915
#
# Static dielectric constant tensor:
#      x y z
#    x 1.846450 0.000000 0.000000 
#    y 0.000000 1.795200 0.000000 
#    z 0.000000 0.000000 1.790700 
# 
# From -- ./inp_files/35104.got.cif
#   From: 2010.05.17/outbox.cif.g08.bks.cpg/sg71_18_cif.got.tgz:35104.got - 2010.06.03 16:22:01.
