data_PCOD9521695
_publ_section_title
;
Structure prediction by ZEFSAII (Michael W. Deem and Ramdas Pophale) SiO2 
 PCOD9521695
Probable space group: I M M M
;
_chemical_formula_sum "Si O2"
_cell_formula_units_Z 88
_cell_length_a 31.208869
_cell_length_b 17.332771
_cell_length_c 7.698711
_cell_angle_alpha 90.000000
_cell_angle_beta 90.000000
_cell_angle_gamma 90.000000
_cell_volume 4164.511316
_symmetry_space_group_name_H-M "I M M M"
_symmetry_group_IT_number 71
_symmetry_cell_setting 'orthorhombic'
loop_
_space_group_symop_operation_xyz
x,y,z
-x,-y,z
x,-y,-z
-x,y,-z
-x,-y,-z
x,y,-z
-x,y,z
x,-y,z
1/2+x,1/2+y,1/2+z
1/2-x,1/2-y,1/2+z
1/2+x,1/2-y,1/2-z
1/2-x,1/2+y,1/2-z
1/2-x,1/2-y,1/2-z
1/2+x,1/2+y,1/2-z
1/2-x,1/2+y,1/2+z
1/2+x,1/2-y,1/2+z
loop_
_atom_site_type_symbol
_atom_site_label
_atom_site_fract_x
_atom_site_fract_y
_atom_site_fract_z
Si Si1 0.500000 0.911574 0.793137
Si Si2 0.756954 0.500000 0.212173
Si Si3 0.226369 0.831348 0.701674
Si Si4 0.872841 0.190118 0.788610
Si Si5 0.907552 0.647068 0.792920
Si Si6 0.046900 0.910267 0.788499
Si Si7 0.856502 0.500000 0.212062
O O1 0.457381 0.867536 0.737822
O O2 0.500000 0.000000 0.723721
O O3 0.500000 0.916347 0.000000
O O4 0.739246 0.416386 0.276818
O O5 0.807036 0.500000 0.255408
O O6 0.751761 0.500000 0.000000
O O7 0.236651 0.838231 0.500000
O O8 0.250000 0.750000 0.750000
O O9 0.175477 0.823782 0.729390
O O10 0.889016 0.273248 0.726332
O O11 0.910019 0.131568 0.729619
O O12 0.872039 0.188264 0.000000
O O13 0.881087 0.574994 0.722841
O O14 0.901195 0.648889 0.000000
O O15 0.000000 0.878842 0.732400
O O16 0.048470 0.000000 0.740345
O O17 0.046918 0.906259 0.000000
O O18 0.859117 0.500000 0.000000
#
# Coordination Sequence:
#
# PCOD9521695 Si02
#       7
#     8   8  16  16  16  16   8
#     4  11  23  37  53  79 118 155 190 242 294 342
#     4   9  20  38  62  88 116 155 196 239 296 362
#     4  11  23  41  63  88 123 160 200 250 303 362
#     4  10  21  35  58  88 116 149 195 244 290 346
#     4  10  20  34  56  82 110 148 195 239 279 342
#     4   8  15  29  50  79 114 148 183 229 281 329
#     4   9  16  31  54  77 102 137 187 234 275 327
#
# _framework density 21.130929999999999
#
# number of rings (size 3 to 8) (size 9 to 14) (size 15 to 20)
#    0.000    2.273    0.909    2.455    2.545    4.000 
#    0.000    1.364    0.000    1.091    0.000    1.273 
#    0.000    0.000    0.000    0.000    0.000    0.000 
#
# Total GULP energy -245443.013999 kJ/mol
# GULP energy per Si atom -5578.250318 kJ/mol
# Density = 2.108283 g / cm^3
# Si number density = 21.130930 Si / 1000 Ang^3
#
#
#
# Elastic Constant Matrix: (Units=GPa)
#
#
# Indices 1 2 3 4 5 6 
#
# 1 183.0859 119.0930 -15.8043 0.0000 0.0000 0.0000
# 2 119.0930 176.7791 9.4109 0.0000 0.0000 0.0000
# 3 -15.8043 9.4109 32.5393 0.0000 0.0000 0.0000
# 4 0.0000 0.0000 0.0000 -10.1719 0.0000 0.0000
# 5 0.0000 0.0000 0.0000 0.0000 19.7752 0.0000
# 6 0.0000 0.0000 0.0000 0.0000 0.0000 90.5504
#
#
#
# Elastic Compliance Matrix: (Units=1/GPa)
#
#
# Indices 1 2 3 4 5 6 
#
# 1 0.011422 -0.008115 0.007895 0.000000 0.000000 0.000000
# 2 -0.008115 0.011511 -0.007271 0.000000 0.000000 0.000000
# 3 0.007895 -0.007271 0.036669 0.000000 0.000000 0.000000
# 4 0.000000 0.000000 0.000000 -0.098310 0.000000 0.000000
# 5 0.000000 0.000000 0.000000 0.000000 0.050568 0.000000
# 6 0.000000 0.000000 0.000000 0.000000 0.000000 0.011044
#
#
# Mechanical properties :
#
#
# Convention : Reuss Voigt Hill
#
# Bulk Modulus (GPa) = 22.41136 68.64483 45.52810
# Shear Modulus (GPa) = 94.76868 38.67771 66.72320
#
# Velocity S-wave (km/s) = 6.70415 4.28294 5.62536
# Velocity P-wave (km/s) = 8.39979 7.55077 7.98657
#
# Compressibility (1/GPa) = 0.04462023
#
# Stress axis : x y z
#
# Youngs Moduli (GPa) = 87.54926 86.87428 27.27072
#
# Poissons Ratio (x) = 0.70500 -0.21530
# Poissons Ratio (y) = 0.71048 0.19828
# Poissons Ratio (z) = -0.69118 0.63163
#
# Static dielectric constant tensor:
#      x y z
#    x 1.700400 0.000000 0.000000 
#    y 0.000000 1.779610 0.000000 
#    z 0.000000 0.000000 1.804690 
# 
# From -- ./inp_files/16723.got.cif
#   From: 2010.05.17/outbox.cif.g08.bks.cpg/sg71_9_cif.got.tgz:16723.got - 2010.06.03 16:22:01.
