data_PCOD9521660
_publ_section_title
;
Structure prediction by ZEFSAII (Michael W. Deem and Ramdas Pophale) SiO2 
 PCOD9521660
Probable space group: I M M M
;
_chemical_formula_sum "Si O2"
_cell_formula_units_Z 112
_cell_length_a 15.459907
_cell_length_b 14.620393
_cell_length_c 26.533443
_cell_angle_alpha 90.000000
_cell_angle_beta 90.000000
_cell_angle_gamma 90.000000
_cell_volume 5997.351895
_symmetry_space_group_name_H-M "I M M M"
_symmetry_group_IT_number 71
_symmetry_cell_setting 'orthorhombic'
loop_
_space_group_symop_operation_xyz
x,y,z
-x,-y,z
x,-y,-z
-x,y,-z
-x,-y,-z
x,y,-z
-x,y,z
x,-y,z
1/2+x,1/2+y,1/2+z
1/2-x,1/2-y,1/2+z
1/2+x,1/2-y,1/2-z
1/2-x,1/2+y,1/2-z
1/2-x,1/2-y,1/2-z
1/2+x,1/2+y,1/2-z
1/2-x,1/2+y,1/2+z
1/2+x,1/2-y,1/2+z
loop_
_atom_site_type_symbol
_atom_site_label
_atom_site_fract_x
_atom_site_fract_y
_atom_site_fract_z
Si Si1 0.859743 0.897398 0.940345
Si Si2 0.098064 0.279787 0.121213
Si Si3 0.703668 0.311322 0.291880
Si Si4 0.683946 0.895889 0.881384
Si Si5 0.239283 0.608452 0.058883
Si Si6 0.397655 0.399408 0.206149
Si Si7 0.899985 0.790518 0.393802
O O1 0.902832 0.814522 0.910800
O O2 0.759146 0.893241 0.923780
O O3 0.890262 0.000000 0.926401
O O4 0.869641 0.886443 0.000000
O O5 0.141229 0.251547 0.174106
O O6 0.163456 0.347840 0.092702
O O7 0.000000 0.314109 0.126089
O O8 0.750000 0.250000 0.250000
O O9 0.767747 0.363242 0.330144
O O10 0.648726 0.381444 0.258601
O O11 0.615066 0.818091 0.894531
O O12 0.652535 0.000000 0.876902
O O13 0.247650 0.500000 0.068005
O O14 0.329121 0.659681 0.071686
O O15 0.218558 0.622631 0.000000
O O16 0.500000 0.396119 0.214569
O O17 0.374322 0.500000 0.186327
O O18 0.378484 0.326267 0.162672
O O19 0.000000 0.813874 0.404814
#
# Coordination Sequence:
#
# PCOD9521660 Si02
#       7
#    16  16  16  16  16  16  16
#     4   9  18  34  58  86 118 157 196 234 286 354
#     4  11  23  38  60  91 126 158 198 249 297 355
#     4  11  19  36  59  84 116 161 201 246 292 347
#     4  10  20  35  57  86 118 156 198 245 299 356
#     4  11  24  43  65  88 118 157 201 249 305 366
#     4  10  20  34  55  83 115 151 194 243 295 350
#     4  11  22  39  62  88 120 155 200 254 307 362
#
# _framework density 18.674909
#
# number of rings (size 3 to 8) (size 9 to 14) (size 15 to 20)
#    0.000    1.571    4.286    1.714    0.000    3.714 
#    0.000    2.857    0.000    0.000    0.000    3.000 
#    0.000    0.000    0.000    0.000    0.000    0.000 
#
# Total GULP energy -312541.668786 kJ/mol
# GULP energy per Si atom -5581.101228 kJ/mol
# Density = 1.863240 g / cm^3
# Si number density = 18.674909 Si / 1000 Ang^3
#
#
#
# Elastic Constant Matrix: (Units=GPa)
#
#
# Indices 1 2 3 4 5 6 
#
# 1 85.3583 45.8935 31.1188 0.0000 0.0000 0.0000
# 2 45.8935 108.7433 23.9628 0.0000 0.0000 0.0000
# 3 31.1188 23.9628 57.0977 0.0000 0.0000 0.0000
# 4 0.0000 0.0000 0.0000 26.4772 0.0000 0.0000
# 5 0.0000 0.0000 0.0000 0.0000 5.8668 0.0000
# 6 0.0000 0.0000 0.0000 0.0000 0.0000 17.3439
#
#
#
# Elastic Compliance Matrix: (Units=1/GPa)
#
#
# Indices 1 2 3 4 5 6 
#
# 1 0.017399 -0.005789 -0.007053 0.000000 0.000000 0.000000
# 2 -0.005789 0.012059 -0.001906 0.000000 0.000000 0.000000
# 3 -0.007053 -0.001906 0.022158 0.000000 0.000000 0.000000
# 4 0.000000 0.000000 0.000000 0.037768 0.000000 0.000000
# 5 0.000000 0.000000 0.000000 0.000000 0.170450 0.000000
# 6 0.000000 0.000000 0.000000 0.000000 0.000000 0.057657
#
#
# Mechanical properties :
#
#
# Convention : Reuss Voigt Hill
#
# Bulk Modulus (GPa) = 45.20812 50.34996 47.77904
# Shear Modulus (GPa) = 14.10993 19.95254 17.03123
#
# Velocity S-wave (km/s) = 2.75172 3.27221 3.02318
# Velocity P-wave (km/s) = 5.86144 6.42622 6.15031
#
# Compressibility (1/GPa) = 0.02211992
#
# Stress axis : x y z
#
# Youngs Moduli (GPa) = 57.47436 82.92527 45.13079
#
# Poissons Ratio (x) = 0.48003 0.31832
# Poissons Ratio (y) = 0.33271 0.08602
# Poissons Ratio (z) = 0.40538 0.15806
#
# Static dielectric constant tensor:
#      x y z
#    x 1.648180 0.000000 0.000000 
#    y 0.000000 1.663810 0.000000 
#    z 0.000000 0.000000 1.626730 
# 
# From -- ./inp_files/34862.got.cif
#   From: 2010.05.17/outbox.cif.g08.bks.cpg/sg71_18_cif.got.tgz:34862.got - 2010.06.03 16:22:01.
