data_PCOD9521417
_publ_section_title
;
Structure prediction by ZEFSAII (Michael W. Deem and Ramdas Pophale) SiO2 
 PCOD9521417
Probable space group: I M M M
;
_chemical_formula_sum "Si O2"
_cell_formula_units_Z 88
_cell_length_a 24.137477
_cell_length_b 15.256497
_cell_length_c 14.103830
_cell_angle_alpha 90.000000
_cell_angle_beta 90.000000
_cell_angle_gamma 90.000000
_cell_volume 5193.782581
_symmetry_space_group_name_H-M "I M M M"
_symmetry_group_IT_number 71
_symmetry_cell_setting 'orthorhombic'
loop_
_space_group_symop_operation_xyz
x,y,z
-x,-y,z
x,-y,-z
-x,y,-z
-x,-y,-z
x,y,-z
-x,y,z
x,-y,z
1/2+x,1/2+y,1/2+z
1/2-x,1/2-y,1/2+z
1/2+x,1/2-y,1/2-z
1/2-x,1/2+y,1/2-z
1/2-x,1/2-y,1/2-z
1/2+x,1/2+y,1/2-z
1/2-x,1/2+y,1/2+z
1/2+x,1/2-y,1/2+z
loop_
_atom_site_type_symbol
_atom_site_label
_atom_site_fract_x
_atom_site_fract_y
_atom_site_fract_z
Si Si1 0.857576 0.237989 0.390921
Si Si2 0.933760 0.500000 0.393336
Si Si3 0.771561 0.896762 0.693351
Si Si4 0.349831 0.894645 0.388678
Si Si5 0.565673 0.168754 0.762782
Si Si6 0.727442 0.898979 0.892914
O O1 0.874612 0.227384 0.500000
O O2 0.817616 0.160540 0.357234
O O3 0.909176 0.250420 0.321195
O O4 0.820149 0.326402 0.385139
O O5 0.909169 0.500000 0.500000
O O6 0.922441 0.414499 0.331380
O O7 0.000000 0.500000 0.404929
O O8 0.710268 0.872404 0.654996
O O9 0.769489 0.882736 0.806784
O O10 0.779273 0.000000 0.674509
O O11 0.350351 0.874238 0.500000
O O12 0.398439 0.847564 0.331128
O O13 0.356875 0.000000 0.377991
O O14 0.500000 0.173831 0.746015
O O15 0.707051 0.000000 0.879495
O O16 0.750222 0.893069 0.000000
#
# Coordination Sequence:
#
# PCOD9521417 Si02
#       6
#    16   8  16  16  16  16
#     4  11  22  34  54  79 106 142 181 224 273 321
#     4   9  18  32  49  69  95 131 172 212 254 305
#     4  10  20  37  56  78 109 142 182 227 272 322
#     4  10  20  34  53  76 106 144 182 221 266 321
#     4  11  22  35  50  73 105 141 181 220 261 317
#     4   9  18  31  50  78 110 140 170 209 263 326
#
# _framework density 16.943335999999999
#
# number of rings (size 3 to 8) (size 9 to 14) (size 15 to 20)
#    0.000    1.909    2.727    1.636    1.273    2.545 
#    0.000    0.909    0.000    0.545    0.000    1.273 
#    0.000    0.000    0.000    6.182    0.000    0.000 
#
# Total GULP energy -245568.632897 kJ/mol
# GULP energy per Si atom -5581.105293 kJ/mol
# Density = 1.690477 g / cm^3
# Si number density = 16.943336 Si / 1000 Ang^3
#
#
#
# Elastic Constant Matrix: (Units=GPa)
#
#
# Indices 1 2 3 4 5 6 
#
# 1 89.0127 35.7622 47.5629 0.0000 0.0000 0.0000
# 2 35.7622 39.5353 28.1952 0.0000 0.0000 0.0000
# 3 47.5629 28.1952 120.4555 0.0000 0.0000 0.0000
# 4 0.0000 0.0000 0.0000 19.9507 0.0000 0.0000
# 5 0.0000 0.0000 0.0000 0.0000 16.8616 0.0000
# 6 0.0000 0.0000 0.0000 0.0000 0.0000 17.3486
#
#
#
# Elastic Compliance Matrix: (Units=1/GPa)
#
#
# Indices 1 2 3 4 5 6 
#
# 1 0.019300 -0.014432 -0.004242 0.000000 0.000000 0.000000
# 2 -0.014432 0.041154 -0.003934 0.000000 0.000000 0.000000
# 3 -0.004242 -0.003934 0.010898 0.000000 0.000000 0.000000
# 4 0.000000 0.000000 0.000000 0.050124 0.000000 0.000000
# 5 0.000000 0.000000 0.000000 0.000000 0.059307 0.000000
# 6 0.000000 0.000000 0.000000 0.000000 0.000000 0.057641
#
#
# Mechanical properties :
#
#
# Convention : Reuss Voigt Hill
#
# Bulk Modulus (GPa) = 38.26438 52.44937 45.35687
# Shear Modulus (GPa) = 17.10262 19.99772 18.55017
#
# Velocity S-wave (km/s) = 3.18055 3.43923 3.31242
# Velocity P-wave (km/s) = 6.01005 6.84062 6.43874
#
# Compressibility (1/GPa) = 0.02613397
#
# Stress axis : x y z
#
# Youngs Moduli (GPa) = 51.81460 24.29868 91.76046
#
# Poissons Ratio (x) = 0.35068 0.38929
# Poissons Ratio (y) = 0.74779 0.36103
# Poissons Ratio (z) = 0.21982 0.09560
#
# Static dielectric constant tensor:
#      x y z
#    x 1.554020 0.000000 0.000000 
#    y 0.000000 1.582630 0.000000 
#    z 0.000000 0.000000 1.592650 
# 
# From -- ./inp_files/34402.got.cif
#   From: 2010.05.17/outbox.cif.g08.bks.cpg/sg71_18_cif.got.tgz:34402.got - 2010.06.03 16:22:01.
