data_PCOD9521570
_publ_section_title
;
Structure prediction by ZEFSAII (Michael W. Deem and Ramdas Pophale) SiO2 
 PCOD9521570
Probable space group: I M M M
;
_chemical_formula_sum "Si O2"
_cell_formula_units_Z 96
_cell_length_a 24.841282
_cell_length_b 8.929107
_cell_length_c 21.637713
_cell_angle_alpha 90.000000
_cell_angle_beta 90.000000
_cell_angle_gamma 90.000000
_cell_volume 4799.471182
_symmetry_space_group_name_H-M "I M M M"
_symmetry_group_IT_number 71
_symmetry_cell_setting 'orthorhombic'
loop_
_space_group_symop_operation_xyz
x,y,z
-x,-y,z
x,-y,-z
-x,y,-z
-x,-y,-z
x,y,-z
-x,y,z
x,-y,z
1/2+x,1/2+y,1/2+z
1/2-x,1/2-y,1/2+z
1/2+x,1/2-y,1/2-z
1/2-x,1/2+y,1/2-z
1/2-x,1/2-y,1/2-z
1/2+x,1/2+y,1/2-z
1/2-x,1/2+y,1/2+z
1/2+x,1/2-y,1/2+z
loop_
_atom_site_type_symbol
_atom_site_label
_atom_site_fract_x
_atom_site_fract_y
_atom_site_fract_z
Si Si1 0.060599 0.673514 0.769917
Si Si2 0.560170 0.678114 0.597896
Si Si3 0.172604 0.680686 0.932009
Si Si4 0.746564 0.177104 0.682041
Si Si5 0.563565 0.831501 0.926957
Si Si6 0.869555 0.828374 0.669587
O O1 0.067737 0.500000 0.788402
O O2 0.062123 0.777525 0.829860
O O3 0.106154 0.723066 0.722616
O O4 0.000000 0.686921 0.742340
O O5 0.500000 0.723155 0.575964
O O6 0.565061 0.500000 0.589461
O O7 0.611647 0.759886 0.569995
O O8 0.172530 0.500000 0.929202
O O9 0.204864 0.733668 0.870490
O O10 0.195731 0.723033 0.000000
O O11 0.750000 0.250000 0.750000
O O12 0.806962 0.195898 0.656672
O O13 0.735777 0.000000 0.690664
O O14 0.500000 0.814057 0.916447
O O15 0.596536 0.709021 0.890758
O O16 0.578551 0.000000 0.905446
O O17 0.572663 0.824264 0.000000
O O18 0.876786 0.000000 0.689459
#
# Coordination Sequence:
#
# PCOD9521570 Si02
#       6
#    16  16  16  16  16  16
#     4  10  20  34  54  81 114 151 190 231 276 332
#     4  10  21  37  58  86 119 149 179 224 282 338
#     4  10  22  41  63  85 113 152 196 238 281 338
#     4  10  23  41  60  84 114 150 192 240 291 340
#     4   9  19  36  55  76 107 147 189 232 278 333
#     4  11  22  34  53  82 112 142 182 234 289 342
#
# _framework density 20.002203999999999
#
# number of rings (size 3 to 8) (size 9 to 14) (size 15 to 20)
#    0.000    2.000    0.000    3.500    0.000   10.667 
#    0.000    4.167    0.000    0.000    0.000    0.000 
#    0.000    0.000    0.000    0.000    0.000    0.000 
#
# Total GULP energy -267897.189849 kJ/mol
# GULP energy per Si atom -5581.191455 kJ/mol
# Density = 1.995668 g / cm^3
# Si number density = 20.002204 Si / 1000 Ang^3
#
#
#
# Elastic Constant Matrix: (Units=GPa)
#
#
# Indices 1 2 3 4 5 6 
#
# 1 65.4041 22.0954 49.3750 0.0000 0.0000 0.0000
# 2 22.0954 18.7067 16.8318 0.0000 0.0000 0.0000
# 3 49.3750 16.8318 106.0071 0.0000 0.0000 0.0000
# 4 0.0000 0.0000 0.0000 25.2944 0.0000 0.0000
# 5 0.0000 0.0000 0.0000 0.0000 80.8712 0.0000
# 6 0.0000 0.0000 0.0000 0.0000 0.0000 28.1578
#
#
#
# Elastic Compliance Matrix: (Units=1/GPa)
#
#
# Indices 1 2 3 4 5 6 
#
# 1 0.033633 -0.029903 -0.010917 0.000000 0.000000 0.000000
# 2 -0.029903 0.088953 -0.000196 0.000000 0.000000 0.000000
# 3 -0.010917 -0.000196 0.014549 0.000000 0.000000 0.000000
# 4 0.000000 0.000000 0.000000 0.039534 0.000000 0.000000
# 5 0.000000 0.000000 0.000000 0.000000 0.012365 0.000000
# 6 0.000000 0.000000 0.000000 0.000000 0.000000 0.035514
#
#
# Mechanical properties :
#
#
# Convention : Reuss Voigt Hill
#
# Bulk Modulus (GPa) = 18.14782 40.74692 29.44737
# Shear Modulus (GPa) = 15.38699 33.65241 24.51970
#
# Velocity S-wave (km/s) = 2.77657 4.10620 3.50501
# Velocity P-wave (km/s) = 4.40133 6.54955 5.57980
#
# Compressibility (1/GPa) = 0.05510304
#
# Stress axis : x y z
#
# Youngs Moduli (GPa) = 29.73237 11.24192 68.73089
#
# Poissons Ratio (x) = 0.33616 0.75037
# Poissons Ratio (y) = 0.88908 0.01348
# Poissons Ratio (z) = 0.32460 0.00220
#
# Static dielectric constant tensor:
#      x y z
#    x 1.703570 0.000000 0.000000 
#    y 0.000000 1.695960 0.000000 
#    z 0.000000 0.000000 1.736430 
# 
# From -- ./inp_files/61544.got.cif
#   From: 2010.05.17/outbox.cif.g08.bks.cpg/sg71_31_cif.got.tgz:61544.got - 2010.06.03 16:22:01.
