data_PCOD9521682
_publ_section_title
;
Structure prediction by ZEFSAII (Michael W. Deem and Ramdas Pophale) SiO2 
 PCOD9521682
Probable space group: I M M M
;
_chemical_formula_sum "Si O2"
_cell_formula_units_Z 112
_cell_length_a 13.847941
_cell_length_b 26.208410
_cell_length_c 14.866303
_cell_angle_alpha 90.000000
_cell_angle_beta 90.000000
_cell_angle_gamma 90.000000
_cell_volume 5395.464742
_symmetry_space_group_name_H-M "I M M M"
_symmetry_group_IT_number 71
_symmetry_cell_setting 'orthorhombic'
loop_
_space_group_symop_operation_xyz
x,y,z
-x,-y,z
x,-y,-z
-x,y,-z
-x,-y,-z
x,y,-z
-x,y,z
x,-y,z
1/2+x,1/2+y,1/2+z
1/2-x,1/2-y,1/2+z
1/2+x,1/2-y,1/2-z
1/2-x,1/2+y,1/2-z
1/2-x,1/2-y,1/2-z
1/2+x,1/2+y,1/2-z
1/2-x,1/2+y,1/2+z
1/2+x,1/2-y,1/2+z
loop_
_atom_site_type_symbol
_atom_site_label
_atom_site_fract_x
_atom_site_fract_y
_atom_site_fract_z
Si Si1 0.804721 0.340793 0.099371
Si Si2 0.890119 0.898124 0.602109
Si Si3 0.194104 0.056243 0.777723
Si Si4 0.113983 0.249131 0.211430
Si Si5 0.611305 0.057466 0.326977
Si Si6 0.611807 0.211133 0.099707
Si Si7 0.198068 0.153524 0.895584
O O1 0.692444 0.355380 0.108411
O O2 0.839789 0.300494 0.171672
O O3 0.860604 0.394722 0.110874
O O4 0.823253 0.319689 0.000000
O O5 0.881903 0.919809 0.500000
O O6 0.863299 0.935445 0.683854
O O7 0.000000 0.879564 0.612723
O O8 0.307496 0.059734 0.750489
O O9 0.172065 0.101389 0.846109
O O10 0.173903 0.000000 0.813391
O O11 0.131716 0.251002 0.318194
O O12 0.153546 0.200189 0.160298
O O13 0.000000 0.251631 0.196845
O O14 0.500000 0.062850 0.297849
O O15 0.620971 0.000000 0.367362
O O16 0.500000 0.195090 0.107113
O O17 0.686825 0.164784 0.106900
O O18 0.625864 0.234128 0.000000
O O19 0.168265 0.154538 0.000000
#
# Coordination Sequence:
#
# PCOD9521682 Si02
#       7
#    16  16  16  16  16  16  16
#     4  10  20  34  55  85 120 159 203 242 279 338
#     4   9  19  37  61  89 121 154 189 237 297 354
#     4  10  22  40  61  85 113 149 198 250 297 351
#     4  11  23  40  62  86 119 160 196 236 288 346
#     4   9  18  33  54  82 119 160 196 236 290 346
#     4   9  19  37  62  91 121 153 190 235 288 345
#     4  11  24  41  61  86 118 155 196 243 294 348
#
# _framework density 20.758174
#
# number of rings (size 3 to 8) (size 9 to 14) (size 15 to 20)
#    0.000    2.143    0.000    3.000    0.000    5.429 
#    0.000    8.571    0.000    8.571    0.000    6.000 
#    0.000    0.000    0.000    0.000    0.000    0.000 
#
# Total GULP energy -312759.288966 kJ/mol
# GULP energy per Si atom -5584.987303 kJ/mol
# Density = 2.071093 g / cm^3
# Si number density = 20.758174 Si / 1000 Ang^3
#
#
#
# Elastic Constant Matrix: (Units=GPa)
#
#
# Indices 1 2 3 4 5 6 
#
# 1 96.1727 44.0767 39.1888 0.0000 0.0000 0.0000
# 2 44.0767 127.1897 76.3645 0.0000 0.0000 0.0000
# 3 39.1888 76.3645 135.2197 0.0002 0.0000 0.0000
# 4 0.0000 0.0000 0.0002 3.4378 0.0000 0.0000
# 5 0.0000 0.0000 0.0000 0.0000 21.6819 0.0000
# 6 0.0000 0.0000 0.0000 0.0000 0.0000 11.4845
#
#
#
# Elastic Compliance Matrix: (Units=1/GPa)
#
#
# Indices 1 2 3 4 5 6 
#
# 1 0.012644 -0.003301 -0.001800 0.000000 0.000000 0.000000
# 2 -0.003301 0.012758 -0.006248 0.000000 0.000000 0.000000
# 3 -0.001800 -0.006248 0.011446 0.000000 0.000000 0.000000
# 4 0.000000 0.000000 0.000000 0.290882 0.000000 0.000000
# 5 0.000000 0.000000 0.000000 0.000000 0.046121 0.000000
# 6 0.000000 0.000000 0.000000 0.000000 0.000000 0.087074
#
#
# Mechanical properties :
#
#
# Convention : Reuss Voigt Hill
#
# Bulk Modulus (GPa) = 70.67672 75.31579 72.99625
# Shear Modulus (GPa) = 10.23878 20.58432 15.41155
#
# Velocity S-wave (km/s) = 2.22331 3.15242 2.72772
# Velocity P-wave (km/s) = 6.38063 7.04355 6.72027
#
# Compressibility (1/GPa) = 0.01414893
#
# Stress axis : x y z
#
# Youngs Moduli (GPa) = 79.08630 78.38520 87.36882
#
# Poissons Ratio (x) = 0.25874 0.15730
# Poissons Ratio (y) = 0.26105 0.54589
# Poissons Ratio (z) = 0.14239 0.48976
#
# Static dielectric constant tensor:
#      x y z
#    x 1.764600 0.000000 0.000000 
#    y 0.000000 1.719080 0.000000 
#    z 0.000000 0.000000 1.756240 
# 
# From -- ./inp_files/34928.got.cif
#   From: 2010.05.17/outbox.cif.g08.bks.cpg/sg71_18_cif.got.tgz:34928.got - 2010.06.03 16:22:01.
