data_PCOD9521384
_publ_section_title
;
Structure prediction by ZEFSAII (Michael W. Deem and Ramdas Pophale) SiO2 
 PCOD9521384
Probable space group: I M M M
;
_chemical_formula_sum "Si O2"
_cell_formula_units_Z 88
_cell_length_a 13.869584
_cell_length_b 18.701524
_cell_length_c 18.991191
_cell_angle_alpha 90.000000
_cell_angle_beta 90.000000
_cell_angle_gamma 90.000000
_cell_volume 4925.979904
_symmetry_space_group_name_H-M "I M M M"
_symmetry_group_IT_number 71
_symmetry_cell_setting 'orthorhombic'
loop_
_space_group_symop_operation_xyz
x,y,z
-x,-y,z
x,-y,-z
-x,y,-z
-x,-y,-z
x,y,-z
-x,y,z
x,-y,z
1/2+x,1/2+y,1/2+z
1/2-x,1/2-y,1/2+z
1/2+x,1/2-y,1/2-z
1/2-x,1/2+y,1/2-z
1/2-x,1/2-y,1/2-z
1/2+x,1/2+y,1/2-z
1/2-x,1/2+y,1/2+z
1/2+x,1/2-y,1/2+z
loop_
_atom_site_type_symbol
_atom_site_label
_atom_site_fract_x
_atom_site_fract_y
_atom_site_fract_z
Si Si1 0.382780 0.500000 0.581063
Si Si2 0.775870 0.275913 0.420091
Si Si3 0.886943 0.579960 0.610672
Si Si4 0.214116 0.182864 0.703613
Si Si5 0.886375 0.854391 0.159003
Si Si6 0.109591 0.416901 0.219001
O O1 0.500000 0.500000 0.578818
O O2 0.350005 0.500000 0.500000
O O3 0.355661 0.429270 0.623662
O O4 0.766131 0.251845 0.500000
O O5 0.833475 0.350877 0.418327
O O6 0.823766 0.217497 0.368419
O O7 0.673289 0.295045 0.384116
O O8 0.852121 0.500000 0.590373
O O9 0.880791 0.585290 0.695821
O O10 0.000000 0.583275 0.592116
O O11 0.250000 0.250000 0.750000
O O12 0.141617 0.145700 0.758540
O O13 0.305150 0.131690 0.689648
O O14 0.000000 0.844473 0.150923
O O15 0.119018 0.500000 0.198298
O O16 0.000000 0.392982 0.202129
#
# Coordination Sequence:
#
# PCOD9521384 Si02
#       6
#     8  16  16  16  16  16
#     4   9  18  32  50  76 106 134 170 211 254 310
#     4  11  23  36  51  77 111 146 184 226 276 327
#     4   9  18  33  54  80 109 140 177 222 272 328
#     4  10  20  34  52  79 105 142 184 226 265 325
#     4  10  21  35  52  75 106 145 180 212 257 322
#     4   9  17  32  57  83 104 131 174 228 278 323
#
# _framework density 17.864466
#
# number of rings (size 3 to 8) (size 9 to 14) (size 15 to 20)
#    0.000    2.273    3.636    1.636    2.545    5.455 
#    0.000    0.909    0.000    0.545    0.000    1.273 
#    0.000    2.182    0.000    0.000    0.000    0.000 
#
# Total GULP energy -245356.753328 kJ/mol
# GULP energy per Si atom -5576.289848 kJ/mol
# Density = 1.782381 g / cm^3
# Si number density = 17.864466 Si / 1000 Ang^3
#
#
#
# Elastic Constant Matrix: (Units=GPa)
#
#
# Indices 1 2 3 4 5 6 
#
# 1 58.4443 22.1603 21.2498 0.0000 0.0000 0.0000
# 2 22.1603 62.3364 42.9881 0.0000 0.0000 0.0000
# 3 21.2498 42.9881 123.4202 0.0000 0.0000 0.0000
# 4 0.0000 0.0000 0.0000 15.1867 0.0000 0.0000
# 5 0.0000 0.0000 0.0000 0.0000 11.1219 0.0000
# 6 0.0000 0.0000 0.0000 0.0000 0.0000 14.0622
#
#
#
# Elastic Compliance Matrix: (Units=1/GPa)
#
#
# Indices 1 2 3 4 5 6 
#
# 1 0.019926 -0.006209 -0.001268 0.000000 0.000000 0.000000
# 2 -0.006209 0.023048 -0.006959 0.000000 0.000000 0.000000
# 3 -0.001268 -0.006959 0.010745 0.000000 0.000000 0.000000
# 4 0.000000 0.000000 0.000000 0.065847 0.000000 0.000000
# 5 0.000000 0.000000 0.000000 0.000000 0.089912 0.000000
# 6 0.000000 0.000000 0.000000 0.000000 0.000000 0.071112
#
#
# Mechanical properties :
#
#
# Convention : Reuss Voigt Hill
#
# Bulk Modulus (GPa) = 40.24695 46.33303 43.28999
# Shear Modulus (GPa) = 15.73593 18.59435 17.16514
#
# Velocity S-wave (km/s) = 2.97113 3.22973 3.10313
# Velocity P-wave (km/s) = 5.86073 6.31667 6.09297
#
# Compressibility (1/GPa) = 0.02484660
#
# Stress axis : x y z
#
# Youngs Moduli (GPa) = 50.18668 43.38734 93.07056
#
# Poissons Ratio (x) = 0.26939 0.11802
# Poissons Ratio (y) = 0.31161 0.64766
# Poissons Ratio (z) = 0.06364 0.30192
#
# Static dielectric constant tensor:
#      x y z
#    x 1.653000 0.000000 0.000000 
#    y 0.000000 1.631550 0.000000 
#    z 0.000000 0.000000 1.612960 
# 
# From -- ./inp_files/44718.got.cif
#   From: 2010.05.17/outbox.cif.g08.bks.cpg/sg71_23_cif.got.tgz:44718.got - 2010.06.03 16:22:01.
