data_PCOD9521598
_publ_section_title
;
Structure prediction by ZEFSAII (Michael W. Deem and Ramdas Pophale) SiO2 
 PCOD9521598
Probable space group: I M M M
;
_chemical_formula_sum "Si O2"
_cell_formula_units_Z 90
_cell_length_a 7.804028
_cell_length_b 24.917046
_cell_length_c 25.693955
_cell_angle_alpha 90.000000
_cell_angle_beta 90.000000
_cell_angle_gamma 90.000000
_cell_volume 4996.274973
_symmetry_space_group_name_H-M "I M M M"
_symmetry_group_IT_number 71
_symmetry_cell_setting 'orthorhombic'
loop_
_space_group_symop_operation_xyz
x,y,z
-x,-y,z
x,-y,-z
-x,y,-z
-x,-y,-z
x,y,-z
-x,y,z
x,-y,z
1/2+x,1/2+y,1/2+z
1/2-x,1/2-y,1/2+z
1/2+x,1/2-y,1/2-z
1/2-x,1/2+y,1/2-z
1/2-x,1/2-y,1/2-z
1/2+x,1/2+y,1/2-z
1/2-x,1/2+y,1/2+z
1/2+x,1/2-y,1/2+z
loop_
_atom_site_type_symbol
_atom_site_label
_atom_site_fract_x
_atom_site_fract_y
_atom_site_fract_z
Si Si1 0.195376 0.064790 0.672789
Si Si2 0.000000 0.817079 0.938399
Si Si3 0.000000 0.500000 0.000000
Si Si4 0.000000 0.703584 0.121203
Si Si5 0.707432 0.438017 0.288147
Si Si6 0.310336 0.147615 0.127356
Si Si7 0.000000 0.412091 0.906358
Si Si8 0.195830 0.240554 0.309537
O O1 0.252396 0.083325 0.730390
O O2 0.332040 0.077658 0.628888
O O3 0.000000 0.083080 0.662031
O O4 0.187879 0.000000 0.676974
O O5 0.834574 0.847374 0.915857
O O6 0.000000 0.757742 0.912729
O O7 0.000000 0.813806 0.000000
O O8 0.000000 0.452615 0.954367
O O9 0.833501 0.705155 0.158983
O O10 0.000000 0.651734 0.084507
O O11 0.500000 0.436955 0.290242
O O12 0.762575 0.500000 0.293041
O O13 0.778841 0.401355 0.333541
O O14 0.500000 0.144596 0.104614
O O15 0.299565 0.201611 0.162150
O O16 0.250000 0.250000 0.250000
O O17 0.000000 0.220129 0.311568
#
# Coordination Sequence:
#
# PCOD9521598 Si02
#       8
#    16   8   2   8  16  16   8  16
#     4   9  19  36  57  85 120 154 196 237 298 371
#     4  10  22  44  63  80 110 156 206 253 290 349
#     4  12  28  48  66  88 120 166 228 308 294 368
#     4  10  24  38  58  89 116 160 200 249 310 372
#     4   9  18  32  54  87 125 159 188 235 286 362
#     4  10  21  35  56  86 117 151 198 236 299 360
#     4  12  24  42  62  86 117 158 212 262 316 351
#     4  10  20  34  54  86 126 157 190 234 302 379
#
# _framework density 18.01342
#
# number of rings (size 3 to 8) (size 9 to 14) (size 15 to 20)
#    0.000    2.133    2.667    1.067    4.356    1.422 
#    0.000    0.889    0.000    1.067    0.000    1.244 
#    0.000    0.000    0.000    0.000    0.000    0.000 
#
# Total GULP energy -250895.443513 kJ/mol
# GULP energy per Si atom -5575.454300 kJ/mol
# Density = 1.797242 g / cm^3
# Si number density = 18.013420 Si / 1000 Ang^3
#
#
#
# Elastic Constant Matrix: (Units=GPa)
#
#
# Indices 1 2 3 4 5 6 
#
# 1 132.8584 34.8979 75.4211 0.0000 0.0000 0.0000
# 2 34.8979 74.0468 39.3015 0.0000 0.0000 0.0000
# 3 75.4211 39.3015 129.5942 0.0000 0.0000 0.0000
# 4 0.0000 0.0000 0.0000 11.1612 0.0000 0.0000
# 5 0.0000 0.0000 0.0000 0.0000 80.9203 0.0000
# 6 0.0000 0.0000 0.0000 0.0000 0.0000 18.1843
#
#
#
# Elastic Compliance Matrix: (Units=1/GPa)
#
#
# Indices 1 2 3 4 5 6 
#
# 1 0.011542 -0.002234 -0.006040 0.000000 0.000000 0.000000
# 2 -0.002234 0.016528 -0.003712 0.000000 0.000000 0.000000
# 3 -0.006040 -0.003712 0.012357 0.000000 0.000000 0.000000
# 4 0.000000 0.000000 0.000000 0.089596 0.000000 0.000000
# 5 0.000000 0.000000 0.000000 0.000000 0.012358 0.000000
# 6 0.000000 0.000000 0.000000 0.000000 0.000000 0.054992
#
#
# Mechanical properties :
#
#
# Convention : Reuss Voigt Hill
#
# Bulk Modulus (GPa) = 60.77033 70.63784 65.70409
# Shear Modulus (GPa) = 22.04276 34.51176 28.27726
#
# Velocity S-wave (km/s) = 3.50192 4.38184 3.96635
# Velocity P-wave (km/s) = 7.08242 8.05604 7.58487
#
# Compressibility (1/GPa) = 0.01645540
#
# Stress axis : x y z
#
# Youngs Moduli (GPa) = 86.63731 60.50253 80.92392
#
# Poissons Ratio (x) = 0.13517 0.48877
# Poissons Ratio (y) = 0.19356 0.30041
# Poissons Ratio (z) = 0.52328 0.22460
#
# Static dielectric constant tensor:
#      x y z
#    x 1.642050 0.000000 0.000000 
#    y 0.000000 1.639570 0.000000 
#    z 0.000000 0.000000 1.561990 
# 
# From -- ./inp_files/50653.got.cif
#   From: 2010.05.17/outbox.cif.g08.bks.cpg/sg71_26_cif.got.tgz:50653.got - 2010.06.03 16:22:01.
