data_PCOD9521523
_publ_section_title
;
Structure prediction by ZEFSAII (Michael W. Deem and Ramdas Pophale) SiO2 
 PCOD9521523
Probable space group: I M M M
;
_chemical_formula_sum "Si O2"
_cell_formula_units_Z 88
_cell_length_a 9.086704
_cell_length_b 19.560686
_cell_length_c 27.657269
_cell_angle_alpha 90.000000
_cell_angle_beta 90.000000
_cell_angle_gamma 90.000000
_cell_volume 4915.862835
_symmetry_space_group_name_H-M "I M M M"
_symmetry_group_IT_number 71
_symmetry_cell_setting 'orthorhombic'
loop_
_space_group_symop_operation_xyz
x,y,z
-x,-y,z
x,-y,-z
-x,y,-z
-x,-y,-z
x,y,-z
-x,y,z
x,-y,z
1/2+x,1/2+y,1/2+z
1/2-x,1/2-y,1/2+z
1/2+x,1/2-y,1/2-z
1/2-x,1/2+y,1/2-z
1/2-x,1/2-y,1/2-z
1/2+x,1/2+y,1/2-z
1/2-x,1/2+y,1/2+z
1/2+x,1/2-y,1/2+z
loop_
_atom_site_type_symbol
_atom_site_label
_atom_site_fract_x
_atom_site_fract_y
_atom_site_fract_z
Si Si1 0.668954 0.138772 0.417701
Si Si2 0.176111 0.277657 0.445764
Si Si3 0.676745 0.422158 0.734768
Si Si4 0.666552 0.500000 0.057754
Si Si5 0.168381 0.317396 0.193753
Si Si6 0.677410 0.674990 0.348943
O O1 0.500000 0.138525 0.434878
O O2 0.757794 0.201317 0.441119
O O3 0.667131 0.152316 0.360359
O O4 0.747302 0.067536 0.427136
O O5 0.209840 0.303637 0.500000
O O6 0.247062 0.318485 0.400993
O O7 0.000000 0.275244 0.440252
O O8 0.500000 0.421816 0.739563
O O9 0.729132 0.500000 0.741977
O O10 0.741448 0.368036 0.772559
O O11 0.710388 0.392862 0.681345
O O12 0.500000 0.500000 0.077476
O O13 0.658442 0.500000 0.000000
O O14 0.223844 0.239946 0.184642
O O15 0.000000 0.313400 0.211647
O O16 0.500000 0.681686 0.355220
#
# Coordination Sequence:
#
# PCOD9521523 Si02
#       6
#    16  16  16   8  16  16
#     4  10  21  35  51  73 102 137 178 219 261 314
#     4  10  20  34  54  80 105 129 167 218 266 314
#     4  10  21  35  53  79 108 138 174 217 265 315
#     4  11  23  35  47  67  99 139 181 225 270 311
#     4   9  19  34  52  75 102 136 176 216 257 307
#     4   9  19  36  55  77 106 139 176 216 259 313
#
# _framework density 17.901232
#
# number of rings (size 3 to 8) (size 9 to 14) (size 15 to 20)
#    0.000    2.273    0.000    3.545    1.273    9.091 
#    0.000    0.000    0.000    0.545    0.000    3.818 
#    0.000    0.000    0.000    0.000    0.000    0.000 
#
# Total GULP energy -245481.435316 kJ/mol
# GULP energy per Si atom -5579.123530 kJ/mol
# Density = 1.786049 g / cm^3
# Si number density = 17.901232 Si / 1000 Ang^3
#
#
#
# Elastic Constant Matrix: (Units=GPa)
#
#
# Indices 1 2 3 4 5 6 
#
# 1 53.0822 22.1671 33.5408 0.0000 0.0000 0.0000
# 2 22.1671 52.8535 35.0558 0.0000 0.0000 0.0000
# 3 33.5408 35.0558 89.3052 0.0000 0.0000 0.0000
# 4 0.0000 0.0000 0.0000 5.3292 0.0000 0.0000
# 5 0.0000 0.0000 0.0000 0.0000 31.3822 0.0000
# 6 0.0000 0.0000 0.0000 0.0000 0.0000 18.1198
#
#
#
# Elastic Compliance Matrix: (Units=1/GPa)
#
#
# Indices 1 2 3 4 5 6 
#
# 1 0.026033 -0.005994 -0.007424 0.000000 0.000000 0.000000
# 2 -0.005994 0.026960 -0.008332 0.000000 0.000000 0.000000
# 3 -0.007424 -0.008332 0.017257 0.000000 0.000000 0.000000
# 4 0.000000 0.000000 0.000000 0.187646 0.000000 0.000000
# 5 0.000000 0.000000 0.000000 0.000000 0.031865 0.000000
# 6 0.000000 0.000000 0.000000 0.000000 0.000000 0.055188
#
#
# Mechanical properties :
#
#
# Convention : Reuss Voigt Hill
#
# Bulk Modulus (GPa) = 37.38405 41.86312 39.62359
# Shear Modulus (GPa) = 12.58284 17.93138 15.25711
#
# Velocity S-wave (km/s) = 2.65411 3.16837 2.92257
# Velocity P-wave (km/s) = 5.50647 6.06804 5.79407
#
# Compressibility (1/GPa) = 0.02674937
#
# Stress axis : x y z
#
# Youngs Moduli (GPa) = 38.41259 37.09150 57.94900
#
# Poissons Ratio (x) = 0.22233 0.43024
# Poissons Ratio (y) = 0.23025 0.48282
# Poissons Ratio (z) = 0.28519 0.30904
#
# Static dielectric constant tensor:
#      x y z
#    x 1.616440 0.000000 0.000000 
#    y 0.000000 1.623760 0.000000 
#    z 0.000000 0.000000 1.620160 
# 
# From -- ./inp_files/10938.got.cif
#   From: 2010.05.17/outbox.cif.g08.bks.cpg/sg71_6_cif.got.tgz:10938.got - 2010.06.03 16:22:01.
