data_PCOD9521280
_publ_section_title
;
Structure prediction by ZEFSAII (Michael W. Deem and Ramdas Pophale) SiO2 
 PCOD9521280
Probable space group: I M M M
;
_chemical_formula_sum "Si O2"
_cell_formula_units_Z 104
_cell_length_a 8.661151
_cell_length_b 24.555923
_cell_length_c 28.343719
_cell_angle_alpha 90.000000
_cell_angle_beta 90.000000
_cell_angle_gamma 90.000000
_cell_volume 6028.214633
_symmetry_space_group_name_H-M "I M M M"
_symmetry_group_IT_number 71
_symmetry_cell_setting 'orthorhombic'
loop_
_space_group_symop_operation_xyz
x,y,z
-x,-y,z
x,-y,-z
-x,y,-z
-x,-y,-z
x,y,-z
-x,y,z
x,-y,z
1/2+x,1/2+y,1/2+z
1/2-x,1/2-y,1/2+z
1/2+x,1/2-y,1/2-z
1/2-x,1/2+y,1/2-z
1/2-x,1/2-y,1/2-z
1/2+x,1/2+y,1/2-z
1/2-x,1/2+y,1/2+z
1/2+x,1/2-y,1/2+z
loop_
_atom_site_type_symbol
_atom_site_label
_atom_site_fract_x
_atom_site_fract_y
_atom_site_fract_z
Si Si1 0.817212 0.760059 0.301550
Si Si2 0.175191 0.934310 0.000000
Si Si3 0.818993 0.269505 0.444625
Si Si4 0.811545 0.937112 0.445745
Si Si5 0.816512 0.563229 0.399255
Si Si6 0.821852 0.166758 0.863522
Si Si7 0.315768 0.662233 0.883276
O O1 0.750000 0.750000 0.250000
O O2 0.779520 0.705662 0.330839
O O3 0.756271 0.810554 0.334288
O O4 0.000000 0.767192 0.297644
O O5 0.266099 0.921251 0.047571
O O6 0.000000 0.912610 0.000000
O O7 0.164223 0.000000 0.000000
O O8 0.790428 0.270102 0.500000
O O9 0.709552 0.309204 0.415572
O O10 0.797936 0.209547 0.422509
O O11 0.000000 0.284523 0.436449
O O12 0.765747 0.923377 0.500000
O O13 0.755647 0.893542 0.406815
O O14 0.000000 0.935326 0.445357
O O15 0.767079 0.000000 0.436462
O O16 0.774271 0.500000 0.391733
O O17 0.732472 0.604665 0.364532
O O18 0.000000 0.568555 0.395063
O O19 0.000000 0.171716 0.850616
O O20 0.500000 0.654626 0.876370
#
# Coordination Sequence:
#
# PCOD9521280 Si02
#       7
#    16   8  16  16  16  16  16
#     4  10  20  36  56  75  95 122 161 208 261 315
#     4   9  17  29  45  67  95 129 169 207 240 275
#     4   9  17  29  45  65  94 132 168 202 242 291
#     4   8  12  18  33  62 100 137 166 190 221 269
#     4  10  20  34  51  70  96 132 170 205 243 293
#     4  11  22  34  50  73 100 127 162 207 255 304
#     4   8  14  25  42  65  93 126 162 197 238 292
#
# _framework density 17.252206000000001
#
# number of rings (size 3 to 8) (size 9 to 14) (size 15 to 20)
#    0.000    2.692    0.000    4.385    1.077    4.000 
#    0.000    0.000    0.000    0.923    0.000    2.154 
#    0.000   14.769    0.000   49.385    0.000   44.615 
#
# Total GULP energy -289689.566283 kJ/mol
# GULP energy per Si atom -5570.953198 kJ/mol
# Density = 1.721294 g / cm^3
# Si number density = 17.252206 Si / 1000 Ang^3
#
#
#
# Elastic Constant Matrix: (Units=GPa)
#
#
# Indices 1 2 3 4 5 6 
#
# 1 21.3228 8.8825 9.8145 0.0000 0.0000 0.0000
# 2 8.8825 95.3548 46.0694 0.0000 0.0000 0.0000
# 3 9.8145 46.0694 100.7421 0.0000 0.0000 0.0000
# 4 0.0000 0.0000 0.0000 14.3282 0.0000 0.0000
# 5 0.0000 0.0000 0.0000 0.0000 23.5345 0.0000
# 6 0.0000 0.0000 0.0000 0.0000 0.0000 10.1602
#
#
#
# Elastic Compliance Matrix: (Units=1/GPa)
#
#
# Indices 1 2 3 4 5 6 
#
# 1 0.049735 -0.002942 -0.003500 0.000000 0.000000 0.000000
# 2 -0.002942 0.013635 -0.005949 0.000000 0.000000 0.000000
# 3 -0.003500 -0.005949 0.012988 0.000000 0.000000 0.000000
# 4 0.000000 0.000000 0.000000 0.069792 0.000000 0.000000
# 5 0.000000 0.000000 0.000000 0.000000 0.042491 0.000000
# 6 0.000000 0.000000 0.000000 0.000000 0.000000 0.098423
#
#
# Mechanical properties :
#
#
# Convention : Reuss Voigt Hill
#
# Bulk Modulus (GPa) = 19.38877 38.55029 28.96953
# Shear Modulus (GPa) = 15.19584 19.78147 17.48865
#
# Velocity S-wave (km/s) = 2.97106 3.38983 3.18733
# Velocity P-wave (km/s) = 4.79921 6.14125 5.51123
#
# Compressibility (1/GPa) = 0.05157624
#
# Stress axis : x y z
#
# Youngs Moduli (GPa) = 20.10675 73.33910 76.99591
#
# Poissons Ratio (x) = 0.21576 0.26948
# Poissons Ratio (y) = 0.05915 0.45803
# Poissons Ratio (z) = 0.07037 0.43628
#
# Static dielectric constant tensor:
#      x y z
#    x 1.587500 0.000000 0.000000 
#    y 0.000000 1.616800 0.000000 
#    z 0.000000 0.000000 1.598550 
# 
# From -- ./inp_files/63569.got.cif
#   From: 2010.05.17/outbox.cif.g08.bks.cpg/sg71_32_cif.got.tgz:63569.got - 2010.06.03 16:22:01.
