data_PCOD9521884
_publ_section_title
;
Structure prediction by ZEFSAII (Michael W. Deem and Ramdas Pophale) SiO2 
 PCOD9521884
Probable space group: I M M M
;
_chemical_formula_sum "Si O2"
_cell_formula_units_Z 104
_cell_length_a 20.831979
_cell_length_b 25.650898
_cell_length_c 8.817962
_cell_angle_alpha 90.000000
_cell_angle_beta 90.000000
_cell_angle_gamma 90.000000
_cell_volume 4711.957078
_symmetry_space_group_name_H-M "I M M M"
_symmetry_group_IT_number 71
_symmetry_cell_setting 'orthorhombic'
loop_
_space_group_symop_operation_xyz
x,y,z
-x,-y,z
x,-y,-z
-x,y,-z
-x,-y,-z
x,y,-z
-x,y,z
x,-y,z
1/2+x,1/2+y,1/2+z
1/2-x,1/2-y,1/2+z
1/2+x,1/2-y,1/2-z
1/2-x,1/2+y,1/2-z
1/2-x,1/2-y,1/2-z
1/2+x,1/2+y,1/2-z
1/2-x,1/2+y,1/2+z
1/2+x,1/2-y,1/2+z
loop_
_atom_site_type_symbol
_atom_site_label
_atom_site_fract_x
_atom_site_fract_y
_atom_site_fract_z
Si Si1 0.924159 0.779373 0.819343
Si Si2 0.288861 0.298227 0.821323
Si Si3 0.075867 0.669245 0.671994
Si Si4 0.613201 0.056225 0.819423
Si Si5 0.000000 0.063939 0.826669
Si Si6 0.749234 0.100088 0.174401
Si Si7 0.127919 0.062082 0.669064
O O1 0.861425 0.806687 0.745012
O O2 0.909105 0.719096 0.773665
O O3 0.000000 0.790036 0.773118
O O4 0.921626 0.786627 0.000000
O O5 0.250000 0.250000 0.750000
O O6 0.247483 0.349178 0.779066
O O7 0.294157 0.290706 0.000000
O O8 0.104768 0.673578 0.500000
O O9 0.089818 0.612113 0.738935
O O10 0.000000 0.671194 0.653845
O O11 0.689703 0.061641 0.804636
O O12 0.591291 0.000000 0.758259
O O13 0.597024 0.056513 0.000000
O O14 0.062348 0.082772 0.738970
O O15 0.000000 0.000000 0.828739
O O16 0.000000 0.081494 0.000000
O O17 0.814430 0.071975 0.218143
O O18 0.749592 0.117120 0.000000
O O19 0.140947 0.082833 0.500000
O O20 0.119726 0.000000 0.656264
#
# Coordination Sequence:
#
# PCOD9521884 Si02
#       7
#    16  16  16  16   8  16  16
#     4  10  21  39  63  90 121 157 199 248 303 364
#     4  12  25  42  64  89 119 154 197 248 304 365
#     4   9  17  31  55  86 118 154 195 238 288 348
#     4   9  18  32  52  81 116 153 194 242 290 338
#     4   9  17  31  53  79 105 139 183 227 275 333
#     4  11  22  37  57  82 112 150 197 244 296 352
#     4  10  20  35  55  80 112 148 188 235 286 340
#
# _framework density 22.071508000000001
#
# number of rings (size 3 to 8) (size 9 to 14) (size 15 to 20)
#    0.000    1.923    0.000    4.385    0.000    4.923 
#    1.385    2.308    0.000    2.308    0.000    2.154 
#    0.000    0.000    0.000    0.000    0.000    0.000 
#
# Total GULP energy -290274.210986 kJ/mol
# GULP energy per Si atom -5582.196365 kJ/mol
# Density = 2.202127 g / cm^3
# Si number density = 22.071508 Si / 1000 Ang^3
#
#
#
# Elastic Constant Matrix: (Units=GPa)
#
#
# Indices 1 2 3 4 5 6 
#
# 1 47.1879 -8.1606 30.8729 0.0000 0.0000 0.0000
# 2 -8.1606 60.8776 9.1372 0.0000 0.0000 0.0000
# 3 30.8729 9.1372 79.1573 0.0000 0.0000 0.0000
# 4 0.0000 0.0000 0.0000 18.8572 0.0000 0.0000
# 5 0.0000 0.0000 0.0000 0.0000 19.5080 0.0000
# 6 0.0000 0.0000 0.0000 0.0000 0.0000 201.1891
#
#
#
# Elastic Compliance Matrix: (Units=1/GPa)
#
#
# Indices 1 2 3 4 5 6 
#
# 1 0.030442 0.005966 -0.012562 0.000000 0.000000 0.000000
# 2 0.005966 0.017885 -0.004391 0.000000 0.000000 0.000000
# 3 -0.012562 -0.004391 0.018039 0.000000 0.000000 0.000000
# 4 0.000000 0.000000 0.000000 0.053030 0.000000 0.000000
# 5 0.000000 0.000000 0.000000 0.000000 0.051261 0.000000
# 6 0.000000 0.000000 0.000000 0.000000 0.000000 0.004970
#
#
# Mechanical properties :
#
#
# Convention : Reuss Voigt Hill
#
# Bulk Modulus (GPa) = 22.52616 27.88018 25.20317
# Shear Modulus (GPa) = 23.54046 58.26906 40.90476
#
# Velocity S-wave (km/s) = 3.26936 5.14368 4.30965
# Velocity P-wave (km/s) = 4.94770 6.92357 6.01729
#
# Compressibility (1/GPa) = 0.04439284
#
# Stress axis : x y z
#
# Youngs Moduli (GPa) = 32.84905 55.91188 55.43443
#
# Poissons Ratio (x) = -0.33358 0.69635
# Poissons Ratio (y) = -0.19598 0.24344
# Poissons Ratio (z) = 0.41264 0.24553
#
# Static dielectric constant tensor:
#      x y z
#    x 1.819860 0.000000 0.000000 
#    y 0.000000 1.890150 0.000000 
#    z 0.000000 0.000000 1.786480 
# 
# From -- ./inp_files/11082.got.cif
#   From: 2010.05.17/outbox.cif.g08.bks.cpg/sg71_6_cif.got.tgz:11082.got - 2010.06.03 16:22:01.
