data_PCOD9521010
_publ_section_title
;
Structure prediction by ZEFSAII (Michael W. Deem and Ramdas Pophale) SiO2 
 PCOD9521010
Probable space group: I M M M
;
_chemical_formula_sum "Si O2"
_cell_formula_units_Z 104
_cell_length_a 22.323752
_cell_length_b 9.286407
_cell_length_c 27.667504
_cell_angle_alpha 90.000000
_cell_angle_beta 90.000000
_cell_angle_gamma 90.000000
_cell_volume 5735.679615
_symmetry_space_group_name_H-M "I M M M"
_symmetry_group_IT_number 71
_symmetry_cell_setting 'orthorhombic'
loop_
_space_group_symop_operation_xyz
x,y,z
-x,-y,z
x,-y,-z
-x,y,-z
-x,-y,-z
x,y,-z
-x,y,z
x,-y,z
1/2+x,1/2+y,1/2+z
1/2-x,1/2-y,1/2+z
1/2+x,1/2-y,1/2-z
1/2-x,1/2+y,1/2-z
1/2-x,1/2-y,1/2-z
1/2+x,1/2+y,1/2-z
1/2-x,1/2+y,1/2+z
1/2+x,1/2-y,1/2+z
loop_
_atom_site_type_symbol
_atom_site_label
_atom_site_fract_x
_atom_site_fract_y
_atom_site_fract_z
Si Si1 0.228709 0.167842 0.422586
Si Si2 0.288253 0.665956 0.191526
Si Si3 0.146015 0.827483 0.943462
Si Si4 0.112518 0.340356 0.555738
Si Si5 0.655882 0.827709 0.271928
Si Si6 0.500000 0.335763 0.059393
Si Si7 0.071212 0.672434 0.139545
O O1 0.212468 0.172269 0.365908
O O2 0.290617 0.248705 0.433666
O O3 0.173949 0.253601 0.445233
O O4 0.232513 0.000000 0.437209
O O5 0.294742 0.500000 0.206899
O O6 0.338697 0.756198 0.219333
O O7 0.220622 0.712551 0.205397
O O8 0.099689 0.758489 0.905363
O O9 0.151352 0.000000 0.936099
O O10 0.129608 0.803966 0.000000
O O11 0.094685 0.358599 0.500000
O O12 0.119527 0.500000 0.577290
O O13 0.058894 0.246950 0.577312
O O14 0.605128 0.785316 0.310585
O O15 0.652888 0.000000 0.267061
O O16 0.500000 0.500000 0.075610
O O17 0.500000 0.340703 0.000000
O O18 0.082301 0.500000 0.132650
O O19 0.000000 0.694643 0.142834
#
# Coordination Sequence:
#
# PCOD9521010 Si02
#       7
#    16  16  16  16  16   8  16
#     4  11  21  35  55  81 112 146 187 232 280 337
#     4   9  18  32  53  81 109 136 171 217 270 327
#     4  11  24  39  55  80 116 153 191 239 291 341
#     4  10  20  33  50  75 107 141 180 226 275 328
#     4   9  17  33  55  82 109 135 172 219 271 327
#     4   9  17  31  51  73  97 133 181 223 263 317
#     4  10  21  39  62  85 111 147 192 238 285 342
#
# _framework density 18.132114999999999
#
# number of rings (size 3 to 8) (size 9 to 14) (size 15 to 20)
#    0.000    2.077    1.538    2.077    0.000    7.385 
#    0.000    1.538    1.692    0.000    0.000    0.000 
#    0.000    0.000    0.000    0.000    0.000    0.000 
#
# Total GULP energy -289786.710477 kJ/mol
# GULP energy per Si atom -5572.821355 kJ/mol
# Density = 1.809085 g / cm^3
# Si number density = 18.132115 Si / 1000 Ang^3
#
#
#
# Elastic Constant Matrix: (Units=GPa)
#
#
# Indices 1 2 3 4 5 6 
#
# 1 112.6107 62.0154 33.9463 0.0000 0.0000 0.0000
# 2 62.0154 102.0504 37.0731 0.0000 0.0000 0.0000
# 3 33.9463 37.0731 65.4220 0.0000 0.0000 0.0000
# 4 0.0000 0.0000 0.0000 27.7397 0.0000 0.0000
# 5 0.0000 0.0000 0.0000 0.0000 40.3637 0.0000
# 6 0.0000 0.0000 0.0000 0.0000 0.0000 20.6475
#
#
#
# Elastic Compliance Matrix: (Units=1/GPa)
#
#
# Indices 1 2 3 4 5 6 
#
# 1 0.013809 -0.007289 -0.003035 0.000000 0.000000 0.000000
# 2 -0.007289 0.016187 -0.005391 0.000000 0.000000 0.000000
# 3 -0.003035 -0.005391 0.019915 0.000000 0.000000 0.000000
# 4 0.000000 0.000000 0.000000 0.036049 0.000000 0.000000
# 5 0.000000 0.000000 0.000000 0.000000 0.024775 0.000000
# 6 0.000000 0.000000 0.000000 0.000000 0.000000 0.048432
#
#
# Mechanical properties :
#
#
# Convention : Reuss Voigt Hill
#
# Bulk Modulus (GPa) = 54.10689 60.68363 57.39526
# Shear Modulus (GPa) = 25.41208 27.55340 26.48274
#
# Velocity S-wave (km/s) = 3.74772 3.90242 3.82585
# Velocity P-wave (km/s) = 6.97369 7.33794 7.15813
#
# Compressibility (1/GPa) = 0.01848193
#
# Stress axis : x y z
#
# Youngs Moduli (GPa) = 72.41536 61.77783 50.21420
#
# Poissons Ratio (x) = 0.45032 0.15238
# Poissons Ratio (y) = 0.52786 0.27068
# Poissons Ratio (z) = 0.21976 0.33301
#
# Static dielectric constant tensor:
#      x y z
#    x 1.599560 0.000000 0.000000 
#    y 0.000000 1.642340 0.000000 
#    z 0.000000 0.000000 1.685850 
# 
# From -- ./inp_files/66406.got.cif
#   From: 2010.05.17/outbox.cif.g08.bks.cpg/sg71_34_cif.got.tgz:66406.got - 2010.06.03 16:22:01.
