data_PCOD9521261
_publ_section_title
;
Structure prediction by ZEFSAII (Michael W. Deem and Ramdas Pophale) SiO2 
 PCOD9521261
Probable space group: I M M M
;
_chemical_formula_sum "Si O2"
_cell_formula_units_Z 64
_cell_length_a 7.488945
_cell_length_b 40.321453
_cell_length_c 10.855127
_cell_angle_alpha 90.000000
_cell_angle_beta 90.000000
_cell_angle_gamma 90.000000
_cell_volume 3277.869986
_symmetry_space_group_name_H-M "I M M M"
_symmetry_group_IT_number 71
_symmetry_cell_setting 'orthorhombic'
loop_
_space_group_symop_operation_xyz
x,y,z
-x,-y,z
x,-y,-z
-x,y,-z
-x,-y,-z
x,y,-z
-x,y,z
x,-y,z
1/2+x,1/2+y,1/2+z
1/2-x,1/2-y,1/2+z
1/2+x,1/2-y,1/2-z
1/2-x,1/2+y,1/2-z
1/2-x,1/2-y,1/2-z
1/2+x,1/2+y,1/2-z
1/2-x,1/2+y,1/2+z
1/2+x,1/2-y,1/2+z
loop_
_atom_site_type_symbol
_atom_site_label
_atom_site_fract_x
_atom_site_fract_y
_atom_site_fract_z
Si Si1 0.714283 0.964336 0.351897
Si Si2 0.710721 0.321493 0.755718
Si Si3 0.284888 0.714916 0.000000
Si Si4 0.284247 0.892092 0.642590
Si Si5 0.713310 0.292972 0.500000
O O1 0.740930 0.964061 0.500000
O O2 0.500000 0.964764 0.332240
O O3 0.779572 0.928192 0.310362
O O4 0.784058 0.000000 0.305707
O O5 0.500000 0.313825 0.753598
O O6 0.730880 0.360597 0.777905
O O7 0.785622 0.308832 0.626145
O O8 0.784649 0.302750 0.876234
O O9 0.243640 0.753689 0.000000
O O10 0.500000 0.711035 0.000000
O O11 0.224511 0.887338 0.500000
O O12 0.500000 0.893204 0.639489
O O13 0.500000 0.298890 0.500000
#
# Coordination Sequence:
#
# PCOD9521261 Si02
#       5
#    16  16   8  16   8
#     4   7  10  18  34  59  91 120 145 179 222 263
#     4  10  20  34  49  68  94 122 150 184 229 273
#     4  10  20  34  52  70  89 116 149 187 232 275
#     4   9  16  26  44  70  94 120 155 188 221 266
#     4  10  22  36  50  68  91 120 153 187 226 273
#
# _framework density 19.524872999999999
#
# number of rings (size 3 to 8) (size 9 to 14) (size 15 to 20)
#    0.000    3.000    1.250    3.000    0.000    2.000 
#    0.000    0.000    0.000    0.750    0.000    4.375 
#    0.000    7.000    0.000    0.000    0.000    0.000 
#
# Total GULP energy -178310.737989 kJ/mol
# GULP energy per Si atom -5572.210562 kJ/mol
# Density = 1.948043 g / cm^3
# Si number density = 19.524873 Si / 1000 Ang^3
#
#
#
# Elastic Constant Matrix: (Units=GPa)
#
#
# Indices 1 2 3 4 5 6 
#
# 1 49.7075 -15.8103 15.6285 0.0000 0.0000 0.0000
# 2 -15.8103 196.7222 99.2121 -0.0001 0.0000 0.0000
# 3 15.6285 99.2121 127.1698 -0.0002 -0.0001 0.0000
# 4 0.0000 -0.0001 -0.0002 -5.0614 0.0000 0.0000
# 5 0.0000 0.0000 -0.0001 0.0000 -1.2429 0.0000
# 6 0.0000 0.0000 0.0000 0.0000 0.0000 10.2982
#
#
#
# Elastic Compliance Matrix: (Units=1/GPa)
#
#
# Indices 1 2 3 4 5 6 
#
# 1 0.024263 0.005694 -0.007424 0.000000 0.000000 0.000000
# 2 0.005694 0.009717 -0.008281 0.000000 0.000001 0.000000
# 3 -0.007424 -0.008281 0.015236 0.000000 -0.000001 0.000000
# 4 0.000000 0.000000 0.000000 -0.197574 -0.000005 0.000000
# 5 0.000000 0.000001 -0.000001 -0.000005 -0.804568 0.000001
# 6 0.000000 0.000000 0.000000 0.000000 0.000001 0.097105
#
#
# Mechanical properties :
#
#
# Convention : Reuss Voigt Hill
#
# Bulk Modulus (GPa) = 34.25239 63.51776 48.88507
# Shear Modulus (GPa) = -6.05277 19.10339 6.52531
#
# Velocity S-wave (km/s) = -1.76260 3.13135 1.83011
# Velocity P-wave (km/s) = 3.66588 6.75841 5.43667
#
# Compressibility (1/GPa) = 0.02919504
#
# Stress axis : x y z
#
# Youngs Moduli (GPa) = 41.21494 102.91184 65.63395
#
# Poissons Ratio (x) = -0.58600 0.48727
# Poissons Ratio (y) = -0.23468 0.54349
# Poissons Ratio (z) = 0.30598 0.85217
#
# Static dielectric constant tensor:
#      x y z
#    x 1.796350 0.000000 0.000000 
#    y 0.000000 1.713000 0.000000 
#    z 0.000000 0.000000 1.660570 
# 
# From -- ./inp_files/3792.got.cif
#   From: 2010.05.17/outbox.cif.g08.bks.cpg/sg71_2_cif.got.tgz:3792.got - 2010.06.03 16:22:01.
