data_PCOD9521807
_publ_section_title
;
Structure prediction by ZEFSAII (Michael W. Deem and Ramdas Pophale) SiO2 
 PCOD9521807
Probable space group: I M M M
;
_chemical_formula_sum "Si O2"
_cell_formula_units_Z 104
_cell_length_a 27.020602
_cell_length_b 7.863739
_cell_length_c 19.971627
_cell_angle_alpha 90.000000
_cell_angle_beta 90.000000
_cell_angle_gamma 90.000000
_cell_volume 4243.630456
_symmetry_space_group_name_H-M "I M M M"
_symmetry_group_IT_number 71
_symmetry_cell_setting 'orthorhombic'
loop_
_space_group_symop_operation_xyz
x,y,z
-x,-y,z
x,-y,-z
-x,y,-z
-x,-y,-z
x,y,-z
-x,y,z
x,-y,z
1/2+x,1/2+y,1/2+z
1/2-x,1/2-y,1/2+z
1/2+x,1/2-y,1/2-z
1/2-x,1/2+y,1/2-z
1/2-x,1/2-y,1/2-z
1/2+x,1/2+y,1/2-z
1/2-x,1/2+y,1/2+z
1/2+x,1/2-y,1/2+z
loop_
_atom_site_type_symbol
_atom_site_label
_atom_site_fract_x
_atom_site_fract_y
_atom_site_fract_z
Si Si1 0.686057 0.696784 0.116839
Si Si2 0.791491 0.805089 0.888474
Si Si3 0.554022 0.202229 0.223846
Si Si4 0.896644 0.194955 0.079592
Si Si5 0.500000 0.709378 0.578537
Si Si6 0.837425 0.304529 0.760318
Si Si7 0.421271 0.295472 0.927574
O O1 0.680411 0.500000 0.135460
O O2 0.740676 0.722470 0.088562
O O3 0.682031 0.800824 0.185003
O O4 0.637788 0.740510 0.074281
O O5 0.843446 0.723161 0.910774
O O6 0.800346 0.794894 0.808591
O O7 0.789934 0.000000 0.911392
O O8 0.500000 0.272735 0.244913
O O9 0.605938 0.266531 0.255782
O O10 0.558452 0.228048 0.143018
O O11 0.553985 0.000000 0.235402
O O12 0.947724 0.270914 0.107417
O O13 0.892958 0.000000 0.104914
O O14 0.903548 0.183991 0.000000
O O15 0.500000 0.500000 0.580769
O O16 0.500000 0.758563 0.500000
O O17 0.839042 0.500000 0.782741
O O18 0.428193 0.500000 0.925780
O O19 0.440568 0.234745 0.000000
#
# Coordination Sequence:
#
# PCOD9521807 Si02
#       7
#    16  16  16  16   8  16  16
#     4  10  20  35  54  73  99 135 172 209 251 299
#     4  11  21  32  49  77 106 130 165 211 256 303
#     4   9  19  36  56  77 103 137 175 214 256 304
#     4   8  15  28  46  69  98 130 162 199 243 291
#     4   7  10  22  44  64  87 123 159 189 228 275
#     4  10  20  36  55  73  98 133 172 210 253 302
#     4   9  19  35  54  78 107 138 173 212 256 307
#
# _framework density 24.507317
#
# number of rings (size 3 to 8) (size 9 to 14) (size 15 to 20)
#    0.000    2.692    0.000    2.769    0.000    2.769 
#    1.385    1.538    0.000    1.385    0.000    0.000 
#    0.000    7.385    0.000    0.000    0.000    0.000 
#
# Total GULP energy -290145.065982 kJ/mol
# GULP energy per Si atom -5579.712807 kJ/mol
# Density = 2.445154 g / cm^3
# Si number density = 24.507317 Si / 1000 Ang^3
#
#
#
# Elastic Constant Matrix: (Units=GPa)
#
#
# Indices 1 2 3 4 5 6 
#
# 1 182.4139 12.0388 -0.6244 0.0000 0.0000 0.0000
# 2 12.0388 43.0837 6.8386 0.0000 0.0000 0.0000
# 3 -0.6244 6.8386 51.2571 0.0000 0.0000 0.0000
# 4 0.0000 0.0000 0.0000 3.3906 0.0000 0.0000
# 5 0.0000 0.0000 0.0000 0.0000 -51.4167 0.0000
# 6 0.0000 0.0000 0.0000 0.0000 0.0000 12.0798
#
#
#
# Elastic Compliance Matrix: (Units=1/GPa)
#
#
# Indices 1 2 3 4 5 6 
#
# 1 0.005589 -0.001607 0.000282 0.000000 0.000000 0.000000
# 2 -0.001607 0.024175 -0.003245 0.000000 0.000000 0.000000
# 3 0.000282 -0.003245 0.019946 0.000000 0.000000 0.000000
# 4 0.000000 0.000000 0.000000 0.294934 0.000000 0.000000
# 5 0.000000 0.000000 0.000000 0.000000 -0.019449 0.000000
# 6 0.000000 0.000000 0.000000 0.000000 0.000000 0.082783
#
#
# Mechanical properties :
#
#
# Convention : Reuss Voigt Hill
#
# Bulk Modulus (GPa) = 24.64788 34.80673 29.72730
# Shear Modulus (GPa) = 11.61064 10.04419 10.82741
#
# Velocity S-wave (km/s) = 2.17897 2.02666 2.10419
# Velocity P-wave (km/s) = 4.05089 4.43958 4.24968
#
# Compressibility (1/GPa) = 0.04057145
#
# Stress axis : x y z
#
# Youngs Moduli (GPa) = 178.92180 41.36574 50.13571
#
# Poissons Ratio (x) = 0.06646 -0.01416
# Poissons Ratio (y) = 0.28745 0.16268
# Poissons Ratio (z) = -0.05053 0.13423
#
# Static dielectric constant tensor:
#      x y z
#    x 2.030120 0.000000 0.000000 
#    y 0.000000 1.887070 0.000000 
#    z 0.000000 0.000000 2.009230 
# 
# From -- ./inp_files/56222.got.cif
#   From: 2010.05.17/outbox.cif.g08.bks.cpg/sg71_29_cif.got.tgz:56222.got - 2010.06.03 16:22:01.
