data_PCOD9521340
_publ_section_title
;
Structure prediction by ZEFSAII (Michael W. Deem and Ramdas Pophale) SiO2 
 PCOD9521340
Probable space group: I M M M
;
_chemical_formula_sum "Si O2"
_cell_formula_units_Z 88
_cell_length_a 9.040607
_cell_length_b 30.097196
_cell_length_c 16.329456
_cell_angle_alpha 90.000000
_cell_angle_beta 90.000000
_cell_angle_gamma 90.000000
_cell_volume 4443.194697
_symmetry_space_group_name_H-M "I M M M"
_symmetry_group_IT_number 71
_symmetry_cell_setting 'orthorhombic'
loop_
_space_group_symop_operation_xyz
x,y,z
-x,-y,z
x,-y,-z
-x,y,-z
-x,-y,-z
x,y,-z
-x,y,z
x,-y,z
1/2+x,1/2+y,1/2+z
1/2-x,1/2-y,1/2+z
1/2+x,1/2-y,1/2-z
1/2-x,1/2+y,1/2-z
1/2-x,1/2-y,1/2-z
1/2+x,1/2+y,1/2-z
1/2-x,1/2+y,1/2+z
1/2+x,1/2-y,1/2+z
loop_
_atom_site_type_symbol
_atom_site_label
_atom_site_fract_x
_atom_site_fract_y
_atom_site_fract_z
Si Si1 0.677572 0.261994 0.164441
Si Si2 0.329940 0.500000 0.399935
Si Si3 0.665445 0.321118 0.403366
Si Si4 0.329264 0.090727 0.100363
Si Si5 0.180062 0.856590 0.404294
Si Si6 0.676049 0.547691 0.900388
O O1 0.500000 0.260771 0.166031
O O2 0.750000 0.250000 0.250000
O O3 0.738772 0.223051 0.106895
O O4 0.726385 0.311465 0.139291
O O5 0.500000 0.500000 0.373280
O O6 0.328882 0.500000 0.500000
O O7 0.249213 0.545120 0.373598
O O8 0.650848 0.328842 0.500000
O O9 0.500000 0.315596 0.368040
O O10 0.744515 0.365264 0.369785
O O11 0.500000 0.091681 0.125024
O O12 0.326767 0.090960 0.000000
O O13 0.220808 0.853067 0.500000
O O14 0.234346 0.904443 0.371344
O O15 0.000000 0.857822 0.401363
O O16 0.500000 0.546973 0.882828
O O17 0.738371 0.500000 0.872040
O O18 0.688310 0.548573 0.000000
#
# Coordination Sequence:
#
# PCOD9521340 Si02
#       6
#    16   8  16  16  16  16
#     4  11  22  35  50  69  96 131 171 210 251 299
#     4   9  15  23  37  61  95 129 159 195 240 287
#     4  10  20  34  52  74  99 126 160 205 256 307
#     4   9  16  26  42  66  95 126 159 195 240 294
#     4   8  14  25  43  68  96 126 159 196 241 293
#     4   7   9  15  31  59  94 124 147 177 224 283
#
# _framework density 19.805567
#
# number of rings (size 3 to 8) (size 9 to 14) (size 15 to 20)
#    0.000    3.000    0.000    4.091    0.000    5.091 
#    0.000    0.000    0.000    0.000    2.364    0.000 
#    0.000    2.182    0.000   20.545    0.000   16.727 
#
# Total GULP energy -245109.855862 kJ/mol
# GULP energy per Si atom -5570.678542 kJ/mol
# Density = 1.976049 g / cm^3
# Si number density = 19.805567 Si / 1000 Ang^3
#
#
#
# Elastic Constant Matrix: (Units=GPa)
#
#
# Indices 1 2 3 4 5 6 
#
# 1 85.8147 65.2876 7.7044 0.0000 0.0000 0.0000
# 2 65.2876 251.2685 29.8938 0.0000 0.0000 0.0000
# 3 7.7044 29.8938 10.1796 -0.0002 0.0000 0.0000
# 4 0.0000 0.0000 -0.0002 -4.4713 0.0000 0.0000
# 5 0.0000 0.0000 0.0000 0.0000 12.8419 0.0000
# 6 0.0000 0.0000 0.0000 0.0000 0.0000 23.4156
#
#
#
# Elastic Compliance Matrix: (Units=1/GPa)
#
#
# Indices 1 2 3 4 5 6 
#
# 1 0.014524 -0.003790 0.000138 0.000000 0.000000 0.000000
# 2 -0.003790 0.007106 -0.017999 0.000001 0.000000 0.000000
# 3 0.000138 -0.017999 0.150989 -0.000008 0.000000 0.000000
# 4 0.000000 0.000001 -0.000008 -0.223650 0.000000 0.000000
# 5 0.000000 0.000000 0.000000 0.000000 0.077870 0.000000
# 6 0.000000 0.000000 0.000000 0.000000 0.000000 0.042707
#
#
# Mechanical properties :
#
#
# Convention : Reuss Voigt Hill
#
# Bulk Modulus (GPa) = 7.73296 61.44828 34.59062
# Shear Modulus (GPa) = 32.06051 22.64905 27.35478
#
# Velocity S-wave (km/s) = 4.02775 3.38534 3.72044
# Velocity P-wave (km/s) = 5.05403 6.80983 5.99654
#
# Compressibility (1/GPa) = 0.12931652
#
# Stress axis : x y z
#
# Youngs Moduli (GPa) = 68.85029 140.72507 6.62298
#
# Poissons Ratio (x) = 0.53339 -0.00091
# Poissons Ratio (y) = 0.26096 0.11921
# Poissons Ratio (z) = -0.00950 2.53296
#
# Static dielectric constant tensor:
#      x y z
#    x 1.679720 0.000000 0.000000 
#    y 0.000000 1.755390 0.000000 
#    z 0.000000 0.000000 1.769970 
# 
# From -- ./inp_files/42469.got.cif
#   From: 2010.05.17/outbox.cif.g08.bks.cpg/sg71_22_cif.got.tgz:42469.got - 2010.06.03 16:22:01.
