data_PCOD9521260
_publ_section_title
;
Structure prediction by ZEFSAII (Michael W. Deem and Ramdas Pophale) SiO2 
 PCOD9521260
Probable space group: I M M M
;
_chemical_formula_sum "Si O2"
_cell_formula_units_Z 72
_cell_length_a 7.256360
_cell_length_b 24.378740
_cell_length_c 18.684134
_cell_angle_alpha 90.000000
_cell_angle_beta 90.000000
_cell_angle_gamma 90.000000
_cell_volume 3305.240378
_symmetry_space_group_name_H-M "I M M M"
_symmetry_group_IT_number 71
_symmetry_cell_setting 'orthorhombic'
loop_
_space_group_symop_operation_xyz
x,y,z
-x,-y,z
x,-y,-z
-x,y,-z
-x,-y,-z
x,y,-z
-x,y,z
x,-y,z
1/2+x,1/2+y,1/2+z
1/2-x,1/2-y,1/2+z
1/2+x,1/2-y,1/2-z
1/2-x,1/2+y,1/2-z
1/2-x,1/2-y,1/2-z
1/2+x,1/2+y,1/2-z
1/2-x,1/2+y,1/2+z
1/2+x,1/2-y,1/2+z
loop_
_atom_site_type_symbol
_atom_site_label
_atom_site_fract_x
_atom_site_fract_y
_atom_site_fract_z
Si Si1 0.776672 0.000000 0.894866
Si Si2 0.219591 0.812754 0.773148
Si Si3 0.224239 0.125996 0.079253
Si Si4 0.725017 0.564662 0.000000
Si Si5 0.775787 0.108031 0.650233
Si Si6 0.722948 0.500000 0.768077
O O1 0.719796 0.061183 0.919885
O O2 0.719536 0.000000 0.812762
O O3 0.000000 0.000000 0.903148
O O4 0.250000 0.750000 0.750000
O O5 0.284951 0.839131 0.849819
O O6 0.289401 0.845205 0.703470
O O7 0.000000 0.821097 0.776780
O O8 0.000000 0.125900 0.081790
O O9 0.276940 0.148096 0.000000
O O10 0.783945 0.598636 0.930604
O O11 0.781514 0.500000 0.000000
O O12 0.500000 0.562317 0.000000
O O13 0.000000 0.111384 0.647883
O O14 0.720450 0.053006 0.690232
O O15 0.500000 0.500000 0.766605
#
# Coordination Sequence:
#
# PCOD9521260 Si02
#       6
#     8  16  16   8  16   8
#     4   9  13  20  38  66  94 115 138 178 235 288
#     4  10  20  34  49  65  91 126 161 193 224 263
#     4   9  16  26  43  68  95 120 147 185 234 282
#     4   9  14  20  36  64  97 121 137 172 233 292
#     4   9  15  24  39  61  89 120 149 181 227 277
#     4   9  12  18  36  60  87 116 142 175 229 283
#
# _framework density 21.783591999999999
#
# number of rings (size 3 to 8) (size 9 to 14) (size 15 to 20)
#    0.000    2.778    3.333    0.333    0.000    1.333 
#    2.000    0.000    0.000    0.000    0.000    3.111 
#    0.000    2.667    0.000    0.000    0.000    0.000 
#
# Total GULP energy -200505.262150 kJ/mol
# GULP energy per Si atom -5569.590615 kJ/mol
# Density = 2.173401 g / cm^3
# Si number density = 21.783592 Si / 1000 Ang^3
#
#
#
# Elastic Constant Matrix: (Units=GPa)
#
#
# Indices 1 2 3 4 5 6 
#
# 1 97.1081 -1.7974 7.6106 0.0000 0.0000 0.0000
# 2 -1.7974 172.0445 119.4287 0.0000 0.0000 0.0000
# 3 7.6106 119.4287 268.4361 0.0000 0.0000 0.0000
# 4 0.0000 0.0000 0.0000 5.3786 0.0000 0.0000
# 5 0.0000 0.0000 0.0000 0.0000 -18.8016 0.0000
# 6 0.0000 0.0000 0.0000 0.0000 0.0000 323.3090
#
#
#
# Elastic Compliance Matrix: (Units=1/GPa)
#
#
# Indices 1 2 3 4 5 6 
#
# 1 0.010345 0.000451 -0.000494 0.000000 0.000000 0.000000
# 2 0.000451 0.008429 -0.003763 0.000000 0.000000 0.000000
# 3 -0.000494 -0.003763 0.005413 0.000000 0.000000 0.000000
# 4 0.000000 0.000000 0.000000 0.185924 0.000000 0.000000
# 5 0.000000 0.000000 0.000000 0.000000 -0.053187 0.000000
# 6 0.000000 0.000000 0.000000 0.000000 0.000000 0.003093
#
#
# Mechanical properties :
#
#
# Convention : Reuss Voigt Hill
#
# Bulk Modulus (GPa) = 60.32950 87.56362 73.94656
# Shear Modulus (GPa) = 28.87589 89.46697 59.17143
#
# Velocity S-wave (km/s) = 3.64480 6.41560 5.21750
# Velocity P-wave (km/s) = 6.74298 9.75522 8.38547
#
# Compressibility (1/GPa) = 0.01657564
#
# Stress axis : x y z
#
# Youngs Moduli (GPa) = 96.66643 118.63273 184.72366
#
# Poissons Ratio (x) = -0.05350 0.09124
# Poissons Ratio (y) = -0.04359 0.69513
# Poissons Ratio (z) = 0.04775 0.44642
#
# Static dielectric constant tensor:
#      x y z
#    x 1.892690 0.000000 0.000000 
#    y 0.000000 1.752410 0.000000 
#    z 0.000000 0.000000 1.828030 
# 
# From -- ./inp_files/43233.got.cif
#   From: 2010.05.17/outbox.cif.g08.bks.cpg/sg71_22_cif.got.tgz:43233.got - 2010.06.03 16:22:01.
