data_PCOD9521083
_publ_section_title
;
Structure prediction by ZEFSAII (Michael W. Deem and Ramdas Pophale) SiO2 
 PCOD9521083
Probable space group: I M M M
;
_chemical_formula_sum "Si O2"
_cell_formula_units_Z 104
_cell_length_a 29.811679
_cell_length_b 21.442289
_cell_length_c 8.846987
_cell_angle_alpha 90.000000
_cell_angle_beta 90.000000
_cell_angle_gamma 90.000000
_cell_volume 5655.265133
_symmetry_space_group_name_H-M "I M M M"
_symmetry_group_IT_number 71
_symmetry_cell_setting 'orthorhombic'
loop_
_space_group_symop_operation_xyz
x,y,z
-x,-y,z
x,-y,-z
-x,y,-z
-x,-y,-z
x,y,-z
-x,y,z
x,-y,z
1/2+x,1/2+y,1/2+z
1/2-x,1/2-y,1/2+z
1/2+x,1/2-y,1/2-z
1/2-x,1/2+y,1/2-z
1/2-x,1/2-y,1/2-z
1/2+x,1/2+y,1/2-z
1/2-x,1/2+y,1/2+z
1/2+x,1/2-y,1/2+z
loop_
_atom_site_type_symbol
_atom_site_label
_atom_site_fract_x
_atom_site_fract_y
_atom_site_fract_z
Si Si1 0.198107 0.572524 0.178510
Si Si2 0.893711 0.427764 0.335727
Si Si3 0.053976 0.000000 0.670857
Si Si4 0.947285 0.137867 0.684114
Si Si5 0.121849 0.235253 0.826673
Si Si6 0.711552 0.793989 0.818708
Si Si7 0.549081 0.843338 0.334770
O O1 0.209238 0.500000 0.227670
O O2 0.145095 0.580294 0.212528
O O3 0.217593 0.634223 0.260008
O O4 0.207026 0.576305 0.000000
O O5 0.875569 0.407768 0.500000
O O6 0.903952 0.500000 0.341196
O O7 0.937700 0.390783 0.293862
O O8 0.064137 0.067379 0.738847
O O9 0.072788 0.000000 0.500000
O O10 0.000000 0.000000 0.658284
O O11 0.946648 0.138609 0.500000
O O12 0.908139 0.182082 0.746636
O O13 0.000000 0.152020 0.726504
O O14 0.164907 0.262861 0.739725
O O15 0.086611 0.291474 0.834239
O O16 0.134161 0.217927 0.000000
O O17 0.750000 0.750000 0.750000
O O18 0.712644 0.793680 0.000000
O O19 0.549970 0.874684 0.500000
O O20 0.500000 0.815640 0.313440
#
# Coordination Sequence:
#
# PCOD9521083 Si02
#       7
#    16  16   8  16  16  16  16
#     4  10  20  37  63  92 121 154 192 235 286 347
#     4  10  20  33  51  77 108 146 193 241 285 329
#     4   7  12  26  49  77 109 147 193 239 281 335
#     4   9  17  31  54  83 114 152 197 241 287 344
#     4  11  22  37  56  81 115 152 191 236 289 345
#     4  12  25  42  66  93 120 151 192 240 295 353
#     4  10  21  35  51  73 107 152 195 234 281 338
#
# _framework density 18.389942999999999
#
# number of rings (size 3 to 8) (size 9 to 14) (size 15 to 20)
#    0.000    1.923    1.538    4.154    0.000    4.000 
#    0.000    1.923    1.692    1.385    0.000    0.000 
#    0.000    0.000    0.000    0.000    0.000    0.000 
#
# Total GULP energy -289476.829782 kJ/mol
# GULP energy per Si atom -5566.862111 kJ/mol
# Density = 1.834809 g / cm^3
# Si number density = 18.389943 Si / 1000 Ang^3
#
#
#
# Elastic Constant Matrix: (Units=GPa)
#
#
# Indices 1 2 3 4 5 6 
#
# 1 85.7779 52.3369 36.5838 0.0000 0.0000 0.0000
# 2 52.3369 122.2474 56.3398 0.0000 0.0000 0.0000
# 3 36.5838 56.3398 88.3874 0.0000 0.0000 0.0000
# 4 0.0000 0.0000 0.0000 25.1079 0.0000 0.0000
# 5 0.0000 0.0000 0.0000 0.0000 22.8434 0.0000
# 6 0.0000 0.0000 0.0000 0.0000 0.0000 118.4543
#
#
#
# Elastic Compliance Matrix: (Units=1/GPa)
#
#
# Indices 1 2 3 4 5 6 
#
# 1 0.016425 -0.005521 -0.003279 0.000000 0.000000 0.000000
# 2 -0.005521 0.013438 -0.006281 0.000000 0.000000 0.000000
# 3 -0.003279 -0.006281 0.016675 0.000000 0.000000 0.000000
# 4 0.000000 0.000000 0.000000 0.039828 0.000000 0.000000
# 5 0.000000 0.000000 0.000000 0.000000 0.043776 0.000000
# 6 0.000000 0.000000 0.000000 0.000000 0.000000 0.008442
#
#
# Mechanical properties :
#
#
# Convention : Reuss Voigt Hill
#
# Bulk Modulus (GPa) = 61.06374 65.21485 63.13929
# Shear Modulus (GPa) = 28.70184 43.35793 36.02988
#
# Velocity S-wave (km/s) = 3.95490 4.86088 4.43111
# Velocity P-wave (km/s) = 7.35745 8.18801 7.78381
#
# Compressibility (1/GPa) = 0.01637633
#
# Stress axis : x y z
#
# Youngs Moduli (GPa) = 60.88279 74.41470 59.97105
#
# Poissons Ratio (x) = 0.41081 0.19667
# Poissons Ratio (y) = 0.33610 0.37667
# Poissons Ratio (z) = 0.19966 0.46738
#
# Static dielectric constant tensor:
#      x y z
#    x 1.608680 0.000000 0.000000 
#    y 0.000000 1.683150 0.000000 
#    z 0.000000 0.000000 1.676290 
# 
# From -- ./inp_files/11515.got.cif
#   From: 2010.05.17/outbox.cif.g08.bks.cpg/sg71_6_cif.got.tgz:11515.got - 2010.06.03 16:22:01.
