data_PCOD9521898
_publ_section_title
;
Structure prediction by ZEFSAII (Michael W. Deem and Ramdas Pophale) SiO2 
 PCOD9521898
Probable space group: I M M M
;
_chemical_formula_sum "Si O2"
_cell_formula_units_Z 120
_cell_length_a 23.940590
_cell_length_b 22.511450
_cell_length_c 12.805728
_cell_angle_alpha 90.000000
_cell_angle_beta 90.000000
_cell_angle_gamma 90.000000
_cell_volume 6901.485686
_symmetry_space_group_name_H-M "I M M M"
_symmetry_group_IT_number 71
_symmetry_cell_setting 'orthorhombic'
loop_
_space_group_symop_operation_xyz
x,y,z
-x,-y,z
x,-y,-z
-x,y,-z
-x,-y,-z
x,y,-z
-x,y,z
x,-y,z
1/2+x,1/2+y,1/2+z
1/2-x,1/2-y,1/2+z
1/2+x,1/2-y,1/2-z
1/2-x,1/2+y,1/2-z
1/2-x,1/2-y,1/2-z
1/2+x,1/2+y,1/2-z
1/2-x,1/2+y,1/2+z
1/2+x,1/2-y,1/2+z
loop_
_atom_site_type_symbol
_atom_site_label
_atom_site_fract_x
_atom_site_fract_y
_atom_site_fract_z
Si Si1 0.435754 0.571665 0.274338
Si Si2 0.839000 0.754790 0.243643
Si Si3 0.348335 0.627689 0.876883
Si Si4 0.244161 0.321919 0.622623
Si Si5 0.568248 0.430888 0.500000
Si Si6 0.128557 0.566854 0.876867
Si Si7 0.434902 0.187673 0.375530
Si Si8 0.246873 0.430924 0.238073
O O1 0.500000 0.590528 0.260616
O O2 0.435562 0.500000 0.280199
O O3 0.397171 0.592387 0.181466
O O4 0.414721 0.595030 0.387993
O O5 0.848792 0.807139 0.326350
O O6 0.805943 0.703782 0.306327
O O7 0.797409 0.782273 0.156609
O O8 0.894400 0.730112 0.189936
O O9 0.290474 0.596023 0.844879
O O10 0.355007 0.629199 0.000000
O O11 0.233675 0.317309 0.500000
O O12 0.253030 0.389401 0.660636
O O13 0.585668 0.500000 0.500000
O O14 0.500000 0.430601 0.500000
O O15 0.106168 0.500000 0.858890
O O16 0.085756 0.620052 0.855796
O O17 0.184773 0.573605 0.809620
O O18 0.143563 0.570770 0.000000
O O19 0.428237 0.198742 0.500000
O O20 0.500000 0.194908 0.349621
O O21 0.259365 0.500000 0.257798
#
# Coordination Sequence:
#
# PCOD9521898 Si02
#       8
#    16  16  16  16   8  16  16  16
#     4   9  18  34  54  74 100 139 184 230 284 339
#     4  10  21  38  55  79 108 148 190 230 274 334
#     4  11  23  36  53  79 113 148 186 231 279 334
#     4  10  20  36  59  81 106 143 188 234 277 325
#     4   7  12  28  52  72  92 126 174 222 266 324
#     4   9  17  31  54  83 113 144 177 217 272 337
#     4  10  20  35  57  84 115 148 184 233 286 336
#     4  10  20  35  55  83 114 145 179 222 280 336
#
# _framework density 17.387560000000001
#
# number of rings (size 3 to 8) (size 9 to 14) (size 15 to 20)
#    0.000    2.333    1.333    2.400    0.000    2.933 
#    6.000    2.000    0.000    1.200    0.000    0.000 
#    0.000    2.133    0.000    0.000    0.000    0.000 
#
# Total GULP energy -334687.556100 kJ/mol
# GULP energy per Si atom -5578.125935 kJ/mol
# Density = 1.734799 g / cm^3
# Si number density = 17.387560 Si / 1000 Ang^3
#
#
#
# Elastic Constant Matrix: (Units=GPa)
#
#
# Indices 1 2 3 4 5 6 
#
# 1 100.7229 45.9132 53.9991 0.0000 0.0000 0.0000
# 2 45.9132 96.0935 53.0925 0.0000 0.0000 0.0000
# 3 53.9991 53.0925 91.6917 0.0000 0.0000 0.0000
# 4 0.0000 0.0000 0.0000 15.0434 0.0000 0.0000
# 5 0.0000 0.0000 0.0000 0.0000 7.0929 0.0000
# 6 0.0000 0.0000 0.0000 0.0000 0.0000 20.1388
#
#
#
# Elastic Compliance Matrix: (Units=1/GPa)
#
#
# Indices 1 2 3 4 5 6 
#
# 1 0.015235 -0.003414 -0.006995 0.000000 0.000000 0.000000
# 2 -0.003414 0.016067 -0.007293 0.000000 0.000000 0.000000
# 3 -0.006995 -0.007293 0.019248 0.000000 0.000000 0.000000
# 4 0.000000 0.000000 0.000000 0.066474 0.000000 0.000000
# 5 0.000000 0.000000 0.000000 0.000000 0.140986 0.000000
# 6 0.000000 0.000000 0.000000 0.000000 0.000000 0.049655
#
#
# Mechanical properties :
#
#
# Convention : Reuss Voigt Hill
#
# Bulk Modulus (GPa) = 66.02318 66.05753 66.04035
# Shear Modulus (GPa) = 14.36294 17.48859 15.92577
#
# Velocity S-wave (km/s) = 2.87722 3.17489 3.02971
# Velocity P-wave (km/s) = 7.00655 7.17730 7.09244
#
# Compressibility (1/GPa) = 0.01514620
#
# Stress axis : x y z
#
# Youngs Moduli (GPa) = 65.63942 62.23897 51.95251
#
# Poissons Ratio (x) = 0.21250 0.36341
# Poissons Ratio (y) = 0.22411 0.37887
# Poissons Ratio (z) = 0.45915 0.45389
#
# Static dielectric constant tensor:
#      x y z
#    x 1.583540 0.000000 0.000000 
#    y 0.000000 1.628080 0.000000 
#    z 0.000000 0.000000 1.565810 
# 
# From -- ./inp_files/27727.got.cif
#   From: 2010.05.17/outbox.cif.g08.bks.cpg/sg71_14_cif.got.tgz:27727.got - 2010.06.03 16:22:01.
