data_PCOD9521024
_publ_section_title
;
Structure prediction by ZEFSAII (Michael W. Deem and Ramdas Pophale) SiO2 
 PCOD9521024
Probable space group: I M M M
;
_chemical_formula_sum "Si O2"
_cell_formula_units_Z 104
_cell_length_a 28.916512
_cell_length_b 8.520623
_cell_length_c 21.780336
_cell_angle_alpha 90.000000
_cell_angle_beta 90.000000
_cell_angle_gamma 90.000000
_cell_volume 5366.385052
_symmetry_space_group_name_H-M "I M M M"
_symmetry_group_IT_number 71
_symmetry_cell_setting 'orthorhombic'
loop_
_space_group_symop_operation_xyz
x,y,z
-x,-y,z
x,-y,-z
-x,y,-z
-x,-y,-z
x,y,-z
-x,y,z
x,-y,z
1/2+x,1/2+y,1/2+z
1/2-x,1/2-y,1/2+z
1/2+x,1/2-y,1/2-z
1/2-x,1/2+y,1/2-z
1/2-x,1/2-y,1/2-z
1/2+x,1/2+y,1/2-z
1/2-x,1/2+y,1/2+z
1/2+x,1/2-y,1/2+z
loop_
_atom_site_type_symbol
_atom_site_label
_atom_site_fract_x
_atom_site_fract_y
_atom_site_fract_z
Si Si1 0.366239 0.688839 0.239002
Si Si2 0.446660 0.187807 0.000000
Si Si3 0.380663 0.187841 0.570752
Si Si4 0.624320 0.689862 0.099011
Si Si5 0.272347 0.688502 0.933324
Si Si6 0.447707 0.811864 0.323814
Si Si7 0.300557 0.685395 0.657152
O O1 0.362509 0.500000 0.236888
O O2 0.372810 0.744335 0.169570
O O3 0.411362 0.734984 0.277691
O O4 0.321535 0.746607 0.278074
O O5 0.417823 0.244969 0.940753
O O6 0.500000 0.243774 0.000000
O O7 0.447195 0.000000 0.000000
O O8 0.382898 0.233223 0.500000
O O9 0.427870 0.216322 0.607947
O O10 0.340582 0.275415 0.607706
O O11 0.370961 0.000000 0.573986
O O12 0.621046 0.500000 0.097898
O O13 0.673918 0.733079 0.070393
O O14 0.269736 0.500000 0.933111
O O15 0.245066 0.744639 0.873526
O O16 0.253229 0.742904 0.000000
O O17 0.500000 0.756100 0.316122
O O18 0.446721 0.000000 0.314125
O O19 0.294424 0.500000 0.662690
#
# Coordination Sequence:
#
# PCOD9521024 Si02
#       7
#    16   8  16  16  16  16  16
#     4   9  20  37  56  78 108 143 184 228 268 323
#     4  11  25  43  63  91 123 147 175 227 290 343
#     4   9  17  30  48  70  99 138 184 228 267 316
#     4  10  21  41  64  84 108 145 187 224 267 324
#     4  10  20  35  56  81 109 143 184 228 270 319
#     4   9  18  32  50  73 102 136 175 223 279 330
#     4  10  20  33  50  78 112 146 181 222 272 323
#
# _framework density 19.379899000000002
#
# number of rings (size 3 to 8) (size 9 to 14) (size 15 to 20)
#    0.000    2.385    0.769    1.154    0.000    6.769 
#    0.000    4.615    0.000    0.000    0.000    4.308 
#    0.000    0.000    0.000    0.000    0.000    0.000 
#
# Total GULP energy -290041.637729 kJ/mol
# GULP energy per Si atom -5577.723802 kJ/mol
# Density = 1.933579 g / cm^3
# Si number density = 19.379899 Si / 1000 Ang^3
#
#
#
# Elastic Constant Matrix: (Units=GPa)
#
#
# Indices 1 2 3 4 5 6 
#
# 1 118.0576 18.6825 54.0745 0.0000 0.0000 0.0000
# 2 18.6825 9.7926 20.5154 0.0000 0.0000 0.0000
# 3 54.0745 20.5154 152.2315 0.0000 0.0000 0.0000
# 4 0.0000 0.0000 0.0000 20.2045 0.0000 0.0000
# 5 0.0000 0.0000 0.0000 0.0000 10.6999 0.0000
# 6 0.0000 0.0000 0.0000 0.0000 0.0000 18.8230
#
#
#
# Elastic Compliance Matrix: (Units=1/GPa)
#
#
# Indices 1 2 3 4 5 6 
#
# 1 0.012442 -0.020174 -0.001701 0.000000 0.000000 0.000000
# 2 -0.020174 0.175002 -0.016418 0.000000 0.000000 0.000000
# 3 -0.001701 -0.016418 0.009386 0.000000 0.000000 0.000000
# 4 0.000000 0.000000 0.000000 0.049494 0.000000 0.000000
# 5 0.000000 0.000000 0.000000 0.000000 0.093459 0.000000
# 6 0.000000 0.000000 0.000000 0.000000 0.000000 0.053127
#
#
# Mechanical properties :
#
#
# Convention : Reuss Voigt Hill
#
# Bulk Modulus (GPa) = 8.31641 51.84739 30.08190
# Shear Modulus (GPa) = 9.81207 22.39941 16.10574
#
# Velocity S-wave (km/s) = 2.25256 3.40340 2.88593
# Velocity P-wave (km/s) = 3.32655 6.50042 5.16340
#
# Compressibility (1/GPa) = 0.12024416
#
# Stress axis : x y z
#
# Youngs Moduli (GPa) = 80.37295 5.71422 106.54549
#
# Poissons Ratio (x) = 0.11528 0.18121
# Poissons Ratio (y) = 1.62144 1.74927
# Poissons Ratio (z) = 0.13670 0.09382
#
# Static dielectric constant tensor:
#      x y z
#    x 1.671910 0.000000 0.000000 
#    y 0.000000 1.671120 0.000000 
#    z 0.000000 0.000000 1.698120 
# 
# From -- ./inp_files/15023.got.cif
#   From: 2010.05.17/outbox.cif.g08.bks.cpg/sg71_8_cif.got.tgz:15023.got - 2010.06.03 16:22:01.
