data_PCOD9521004
_publ_section_title
;
Structure prediction by ZEFSAII (Michael W. Deem and Ramdas Pophale) SiO2 
 PCOD9521004
Probable space group: I M M M
;
_chemical_formula_sum "Si O2"
_cell_formula_units_Z 72
_cell_length_a 8.988194
_cell_length_b 32.885926
_cell_length_c 13.884932
_cell_angle_alpha 90.000000
_cell_angle_beta 90.000000
_cell_angle_gamma 90.000000
_cell_volume 4104.178774
_symmetry_space_group_name_H-M "I M M M"
_symmetry_group_IT_number 71
_symmetry_cell_setting 'orthorhombic'
loop_
_space_group_symop_operation_xyz
x,y,z
-x,-y,z
x,-y,-z
-x,y,-z
-x,-y,-z
x,y,-z
-x,y,z
x,-y,z
1/2+x,1/2+y,1/2+z
1/2-x,1/2-y,1/2+z
1/2+x,1/2-y,1/2-z
1/2-x,1/2+y,1/2-z
1/2-x,1/2-y,1/2-z
1/2+x,1/2+y,1/2-z
1/2-x,1/2+y,1/2+z
1/2+x,1/2-y,1/2+z
loop_
_atom_site_type_symbol
_atom_site_label
_atom_site_fract_x
_atom_site_fract_y
_atom_site_fract_z
Si Si1 0.165591 0.355149 0.108480
Si Si2 0.678392 0.000000 0.614405
Si Si3 0.179295 0.135341 0.111128
Si Si4 0.174727 0.922337 0.286148
Si Si5 0.329615 0.791650 0.221418
O O1 0.290893 0.386952 0.137146
O O2 0.169280 0.318246 0.181532
O O3 0.000000 0.374747 0.117943
O O4 0.182062 0.341110 0.000000
O O5 0.739536 0.038851 0.672888
O O6 0.500000 0.000000 0.614971
O O7 0.724694 0.000000 0.500000
O O8 0.224360 0.099064 0.185136
O O9 0.248826 0.178145 0.146069
O O10 0.000000 0.138550 0.118382
O O11 0.218445 0.127013 0.000000
O O12 0.000000 0.931512 0.278931
O O13 0.500000 0.784185 0.190967
O O14 0.250000 0.750000 0.250000
#
# Coordination Sequence:
#
# PCOD9521004 Si02
#       5
#    16   8  16  16  16
#     4   9  18  33  51  70  97 134 168 200 249 310
#     4  11  23  37  54  77 108 144 173 201 250 315
#     4   9  19  37  58  77 102 139 178 217 266 318
#     4  10  20  34  54  80 105 130 167 214 257 301
#     4  10  20  33  50  75 105 136 174 218 260 306
#
# _framework density 17.543096999999999
#
# number of rings (size 3 to 8) (size 9 to 14) (size 15 to 20)
#    0.000    2.333    0.000    2.333    0.000    7.111 
#    0.000    2.778    0.000    3.333    0.000    0.000 
#    0.000    0.000    0.000    0.000    0.000    0.000 
#
# Total GULP energy -200563.033992 kJ/mol
# GULP energy per Si atom -5571.195389 kJ/mol
# Density = 1.750317 g / cm^3
# Si number density = 17.543097 Si / 1000 Ang^3
#
#
#
# Elastic Constant Matrix: (Units=GPa)
#
#
# Indices 1 2 3 4 5 6 
#
# 1 56.8353 45.6821 35.1384 0.0000 0.0000 0.0000
# 2 45.6821 107.2943 38.9605 -0.0002 0.0000 0.0000
# 3 35.1384 38.9605 113.9951 -0.0008 -0.0001 0.0000
# 4 0.0000 -0.0002 -0.0008 8.3966 -0.0001 0.0000
# 5 0.0000 0.0000 -0.0001 -0.0001 23.0722 0.0000
# 6 0.0000 0.0000 0.0000 0.0000 0.0000 34.3590
#
#
#
# Elastic Compliance Matrix: (Units=1/GPa)
#
#
# Indices 1 2 3 4 5 6 
#
# 1 0.029465 -0.010557 -0.005474 -0.000001 0.000000 0.000000
# 2 -0.010557 0.014423 -0.001675 0.000000 0.000000 0.000000
# 3 -0.005474 -0.001675 0.011032 0.000001 0.000000 0.000000
# 4 -0.000001 0.000000 0.000001 0.119096 0.000000 0.000000
# 5 0.000000 0.000000 0.000000 0.000000 0.043342 0.000000
# 6 0.000000 0.000000 0.000000 0.000000 0.000000 0.029104
#
#
# Mechanical properties :
#
#
# Convention : Reuss Voigt Hill
#
# Bulk Modulus (GPa) = 51.26392 57.52074 54.39233
# Shear Modulus (GPa) = 17.33829 23.72179 20.53004
#
# Velocity S-wave (km/s) = 3.14718 3.68122 3.42462
# Velocity P-wave (km/s) = 6.51854 7.13638 6.83445
#
# Compressibility (1/GPa) = 0.01950690
#
# Stress axis : x y z
#
# Youngs Moduli (GPa) = 33.93904 69.33188 90.64329
#
# Poissons Ratio (x) = 0.73195 0.49619
# Poissons Ratio (y) = 0.35830 0.15186
# Poissons Ratio (z) = 0.18579 0.11615
#
# Static dielectric constant tensor:
#      x y z
#    x 1.631990 0.000000 0.000000 
#    y 0.000000 1.593970 0.000000 
#    z 0.000000 0.000000 1.598820 
# 
# From -- ./inp_files/6010.got.cif
#   From: 2010.05.17/outbox.cif.g08.bks.cpg/sg71_4_cif.got.tgz:6010.got - 2010.06.03 16:22:01.
