data_PCOD9521970
_publ_section_title
;
Structure prediction by ZEFSAII (Michael W. Deem and Ramdas Pophale) SiO2 
 PCOD9521970
Probable space group: I M M M
;
_chemical_formula_sum "Si O2"
_cell_formula_units_Z 120
_cell_length_a 13.115919
_cell_length_b 22.692936
_cell_length_c 23.616127
_cell_angle_alpha 90.000000
_cell_angle_beta 90.000000
_cell_angle_gamma 90.000000
_cell_volume 7029.073586
_symmetry_space_group_name_H-M "I M M M"
_symmetry_group_IT_number 71
_symmetry_cell_setting 'orthorhombic'
loop_
_space_group_symop_operation_xyz
x,y,z
-x,-y,z
x,-y,-z
-x,y,-z
-x,-y,-z
x,y,-z
-x,y,z
x,-y,z
1/2+x,1/2+y,1/2+z
1/2-x,1/2-y,1/2+z
1/2+x,1/2-y,1/2-z
1/2-x,1/2+y,1/2-z
1/2-x,1/2-y,1/2-z
1/2+x,1/2+y,1/2-z
1/2-x,1/2+y,1/2+z
1/2+x,1/2-y,1/2+z
loop_
_atom_site_type_symbol
_atom_site_label
_atom_site_fract_x
_atom_site_fract_y
_atom_site_fract_z
Si Si1 0.619610 0.432884 0.138011
Si Si2 0.621443 0.317433 0.066282
Si Si3 0.884260 0.570872 0.566744
Si Si4 0.758240 0.255908 0.341974
Si Si5 0.808146 0.117367 0.865986
Si Si6 0.243332 0.568221 0.750201
Si Si7 0.119884 0.683460 0.241705
Si Si8 0.500000 0.570634 0.565759
O O1 0.500000 0.427752 0.153946
O O2 0.635831 0.500000 0.117308
O O3 0.640065 0.382792 0.091697
O O4 0.688887 0.424260 0.193400
O O5 0.500000 0.305704 0.071966
O O6 0.685129 0.272738 0.104911
O O7 0.647342 0.314045 0.000000
O O8 0.869764 0.584103 0.500000
O O9 0.876231 0.500000 0.572790
O O10 0.798591 0.600765 0.604192
O O11 0.000000 0.588093 0.582299
O O12 0.691610 0.312672 0.358100
O O13 0.840868 0.280440 0.296655
O O14 0.686415 0.209469 0.309840
O O15 0.808697 0.085943 0.804936
O O16 0.900042 0.094836 0.903768
O O17 0.211668 0.500000 0.746113
O O18 0.151979 0.615289 0.751095
O O19 0.000000 0.690434 0.233763
O O20 0.500000 0.500000 0.569339
O O21 0.500000 0.587354 0.500000
#
# Coordination Sequence:
#
# PCOD9521970 Si02
#       8
#    16  16  16  16  16  16  16   8
#     4   9  18  33  54  81 114 146 178 225 287 343
#     4  10  20  35  58  86 115 148 187 233 280 331
#     4   9  18  34  55  76 102 140 185 233 284 332
#     4  10  22  39  54  82 111 148 186 228 275 333
#     4  11  23  35  54  81 114 149 188 233 280 333
#     4  10  20  35  56  86 113 140 182 232 285 335
#     4  10  21  38  60  80 110 148 186 226 278 336
#     4  11  24  40  56  78 114 156 196 238 280 330
#
# _framework density 17.071950999999999
#
# number of rings (size 3 to 8) (size 9 to 14) (size 15 to 20)
#    0.000    2.067    1.333    2.400    1.867    5.333 
#    0.000    2.667    0.000    0.000    0.000    0.000 
#    0.000    2.133    0.000    0.000    0.000    0.000 
#
# Total GULP energy -334903.875123 kJ/mol
# GULP energy per Si atom -5581.731252 kJ/mol
# Density = 1.703309 g / cm^3
# Si number density = 17.071951 Si / 1000 Ang^3
#
#
#
# Elastic Constant Matrix: (Units=GPa)
#
#
# Indices 1 2 3 4 5 6 
#
# 1 76.8702 47.0464 52.8862 0.0000 0.0000 0.0000
# 2 47.0464 101.4858 57.5841 0.0000 0.0000 0.0000
# 3 52.8862 57.5841 117.6519 0.0000 0.0000 0.0000
# 4 0.0000 0.0000 0.0000 21.7734 0.0000 0.0000
# 5 0.0000 0.0000 0.0000 0.0000 39.3641 0.0000
# 6 0.0000 0.0000 0.0000 0.0000 0.0000 18.1804
#
#
#
# Elastic Compliance Matrix: (Units=1/GPa)
#
#
# Indices 1 2 3 4 5 6 
#
# 1 0.021282 -0.006144 -0.006559 0.000000 0.000000 0.000000
# 2 -0.006144 0.015416 -0.004783 0.000000 0.000000 0.000000
# 3 -0.006559 -0.004783 0.013789 0.000000 0.000000 0.000000
# 4 0.000000 0.000000 0.000000 0.045928 0.000000 0.000000
# 5 0.000000 0.000000 0.000000 0.000000 0.025404 0.000000
# 6 0.000000 0.000000 0.000000 0.000000 0.000000 0.055004
#
#
# Mechanical properties :
#
#
# Convention : Reuss Voigt Hill
#
# Bulk Modulus (GPa) = 64.45906 67.89349 66.17628
# Shear Modulus (GPa) = 23.04486 25.09633 24.07060
#
# Velocity S-wave (km/s) = 3.67804 3.83826 3.75900
# Velocity P-wave (km/s) = 7.47506 7.71352 7.59523
#
# Compressibility (1/GPa) = 0.01551372
#
# Stress axis : x y z
#
# Youngs Moduli (GPa) = 46.98798 64.86773 72.51917
#
# Poissons Ratio (x) = 0.39854 0.47569
# Poissons Ratio (y) = 0.28869 0.34689
# Poissons Ratio (z) = 0.30822 0.31029
#
# Static dielectric constant tensor:
#      x y z
#    x 1.546100 0.000000 0.000000 
#    y 0.000000 1.597050 0.000000 
#    z 0.000000 0.000000 1.565250 
# 
# From -- ./inp_files/52255.got.cif
#   From: 2010.05.17/outbox.cif.g08.bks.cpg/sg71_27_cif.got.tgz:52255.got - 2010.06.03 16:22:01.
