data_PCOD9521362
_publ_section_title
;
Structure prediction by ZEFSAII (Michael W. Deem and Ramdas Pophale) SiO2 
 PCOD9521362
Probable space group: I M M M
;
_chemical_formula_sum "Si O2"
_cell_formula_units_Z 116
_cell_length_a 28.053176
_cell_length_b 7.855419
_cell_length_c 29.107859
_cell_angle_alpha 90.000000
_cell_angle_beta 90.000000
_cell_angle_gamma 90.000000
_cell_volume 6414.482930
_symmetry_space_group_name_H-M "I M M M"
_symmetry_group_IT_number 71
_symmetry_cell_setting 'orthorhombic'
loop_
_space_group_symop_operation_xyz
x,y,z
-x,-y,z
x,-y,-z
-x,y,-z
-x,-y,-z
x,y,-z
-x,y,z
x,-y,z
1/2+x,1/2+y,1/2+z
1/2-x,1/2-y,1/2+z
1/2+x,1/2-y,1/2-z
1/2-x,1/2+y,1/2-z
1/2-x,1/2-y,1/2-z
1/2+x,1/2+y,1/2-z
1/2-x,1/2+y,1/2+z
1/2+x,1/2-y,1/2+z
loop_
_atom_site_type_symbol
_atom_site_label
_atom_site_fract_x
_atom_site_fract_y
_atom_site_fract_z
Si Si1 0.678577 0.693971 0.148271
Si Si2 0.296464 0.800655 0.051506
Si Si3 0.642384 0.293587 0.645150
Si Si4 0.053715 0.794509 0.203527
Si Si5 0.425338 0.704916 0.189328
Si Si6 0.232227 0.191228 0.799341
Si Si7 0.312637 0.202517 0.551291
Si Si8 0.000000 0.500000 0.663787
O O1 0.691263 0.500000 0.159972
O O2 0.676630 0.713388 0.093435
O O3 0.628519 0.732003 0.172088
O O4 0.722444 0.802263 0.167162
O O5 0.239645 0.781468 0.059430
O O6 0.308179 0.000000 0.052318
O O7 0.306059 0.733726 0.000000
O O8 0.642169 0.500000 0.646585
O O9 0.593312 0.232179 0.667855
O O10 0.686994 0.225149 0.675505
O O11 0.652330 0.246711 0.592571
O O12 0.069565 0.763258 0.256002
O O13 0.000000 0.727960 0.197081
O O14 0.051694 0.000000 0.198933
O O15 0.436659 0.500000 0.181847
O O16 0.458921 0.846139 0.166198
O O17 0.250000 0.250000 0.750000
O O18 0.216195 0.000000 0.791385
O O19 0.328460 0.255278 0.500000
O O20 0.305689 0.000000 0.551180
#
# Coordination Sequence:
#
# PCOD9521362 Si02
#       8
#    16  16  16  16  16  16  16   4
#     4  11  22  36  56  81 115 150 186 228 281 336
#     4  10  20  34  54  80 112 146 183 229 276 332
#     4  10  20  34  53  77 104 145 186 224 281 333
#     4   9  17  35  57  76 108 144 184 235 284 331
#     4  10  22  39  58  85 117 151 189 243 288 329
#     4  11  22  34  49  74 113 151 186 224 269 342
#     4  10  20  34  52  76 106 142 184 228 278 337
#     4  12  22  36  64  86 113 150 203 236 282 340
#
# _framework density 18.084076
#
# number of rings (size 3 to 8) (size 9 to 14) (size 15 to 20)
#    0.000    1.793    2.069    2.690    1.931    4.414 
#    1.241    0.000    0.000    0.414    0.000    3.862 
#    0.000    2.207    0.000    0.000    0.000    0.000 
#
# Total GULP energy -322957.036188 kJ/mol
# GULP energy per Si atom -5568.224762 kJ/mol
# Density = 1.804292 g / cm^3
# Si number density = 18.084076 Si / 1000 Ang^3
#
#
#
# Elastic Constant Matrix: (Units=GPa)
#
#
# Indices 1 2 3 4 5 6 
#
# 1 111.3013 15.4535 66.8344 0.0000 0.0000 0.0000
# 2 15.4535 42.5722 10.3737 0.0000 0.0000 0.0000
# 3 66.8344 10.3737 108.8969 0.0000 0.0000 0.0000
# 4 0.0000 0.0000 0.0000 24.2008 0.0000 0.0000
# 5 0.0000 0.0000 0.0000 0.0000 3.1058 0.0000
# 6 0.0000 0.0000 0.0000 0.0000 0.0000 22.4413
#
#
#
# Elastic Compliance Matrix: (Units=1/GPa)
#
#
# Indices 1 2 3 4 5 6 
#
# 1 0.014642 -0.003199 -0.008682 0.000000 0.000000 0.000000
# 2 -0.003199 0.024747 -0.000394 0.000000 0.000000 0.000000
# 3 -0.008682 -0.000394 0.014549 0.000000 0.000000 0.000000
# 4 0.000000 0.000000 0.000000 0.041321 0.000000 0.000000
# 5 0.000000 0.000000 0.000000 0.000000 0.321977 0.000000
# 6 0.000000 0.000000 0.000000 0.000000 0.000000 0.044561
#
#
# Mechanical properties :
#
#
# Convention : Reuss Voigt Hill
#
# Bulk Modulus (GPa) = 34.02761 49.78818 41.90790
# Shear Modulus (GPa) = 10.07775 21.29015 15.68395
#
# Velocity S-wave (km/s) = 2.36322 3.43488 2.94816
# Velocity P-wave (km/s) = 5.12870 6.58198 5.90026
#
# Compressibility (1/GPa) = 0.02938790
#
# Stress axis : x y z
#
# Youngs Moduli (GPa) = 68.29671 40.40915 68.73442
#
# Poissons Ratio (x) = 0.12929 0.59672
# Poissons Ratio (y) = 0.21851 0.02707
# Poissons Ratio (z) = 0.59292 0.01591
#
# Static dielectric constant tensor:
#      x y z
#    x 1.618300 0.000000 0.000000 
#    y 0.000000 1.676550 0.000000 
#    z 0.000000 0.000000 1.635840 
# 
# From -- ./inp_files/67127.got.cif
#   From: 2010.05.17/outbox.cif.g08.bks.cpg/sg71_34_cif.got.tgz:67127.got - 2010.06.03 16:22:01.
