data_PCOD9521219
_publ_section_title
;
Structure prediction by ZEFSAII (Michael W. Deem and Ramdas Pophale) SiO2 
 PCOD9521219
Probable space group: I M M M
;
_chemical_formula_sum "Si O2"
_cell_formula_units_Z 104
_cell_length_a 32.228739
_cell_length_b 22.848120
_cell_length_c 7.702808
_cell_angle_alpha 90.000000
_cell_angle_beta 90.000000
_cell_angle_gamma 90.000000
_cell_volume 5672.086656
_symmetry_space_group_name_H-M "I M M M"
_symmetry_group_IT_number 71
_symmetry_cell_setting 'orthorhombic'
loop_
_space_group_symop_operation_xyz
x,y,z
-x,-y,z
x,-y,-z
-x,y,-z
-x,-y,-z
x,y,-z
-x,y,z
x,-y,z
1/2+x,1/2+y,1/2+z
1/2-x,1/2-y,1/2+z
1/2+x,1/2-y,1/2-z
1/2-x,1/2+y,1/2-z
1/2-x,1/2-y,1/2-z
1/2+x,1/2+y,1/2-z
1/2-x,1/2+y,1/2+z
1/2+x,1/2-y,1/2+z
loop_
_atom_site_type_symbol
_atom_site_label
_atom_site_fract_x
_atom_site_fract_y
_atom_site_fract_z
Si Si1 0.951744 0.162900 0.000000
Si Si2 0.584976 0.136084 0.791640
Si Si3 0.391068 0.431492 0.500000
Si Si4 0.401968 0.270651 0.793223
Si Si5 0.000000 0.567338 0.794254
Si Si6 0.743300 0.432462 0.207577
Si Si7 0.339196 0.632731 0.793275
Si Si8 0.835572 0.566150 0.708427
O O1 0.936564 0.096267 0.000000
O O2 0.932144 0.192539 0.170629
O O3 0.000000 0.170334 0.000000
O O4 0.591087 0.203515 0.738990
O O5 0.541582 0.103911 0.750994
O O6 0.624923 0.101009 0.723265
O O7 0.587397 0.136545 0.000000
O O8 0.390358 0.500000 0.500000
O O9 0.367869 0.406680 0.329856
O O10 0.356499 0.300952 0.767410
O O11 0.410936 0.275447 0.000000
O O12 0.000000 0.500000 0.722137
O O13 0.000000 0.561892 0.000000
O O14 0.737277 0.500000 0.274947
O O15 0.707263 0.386991 0.258026
O O16 0.789355 0.411352 0.255044
O O17 0.741614 0.436587 0.000000
O O18 0.344110 0.620540 0.000000
O O19 0.839570 0.563935 0.500000
O O20 0.836756 0.500000 0.776830
#
# Coordination Sequence:
#
# PCOD9521219 Si02
#       8
#     8  16   8  16   8  16  16  16
#     4  10  22  37  56  80 110 144 176 226 277 319
#     4  10  21  37  57  78 102 139 180 220 269 325
#     4  10  20  33  54  82 108 144 184 219 272 324
#     4   9  20  37  57  80 107 141 183 227 270 322
#     4  11  25  39  55  83 111 137 173 224 279 326
#     4   9  17  29  48  74 103 139 177 215 265 317
#     4   9  18  34  53  78 112 143 180 228 269 314
#     4   9  18  32  50  73 103 136 171 216 268 321
#
# _framework density 18.335402999999999
#
# number of rings (size 3 to 8) (size 9 to 14) (size 15 to 20)
#    0.000    2.538    0.000    1.154    3.231    3.231 
#    0.000    2.308    0.000    0.000    0.000    4.308 
#    0.000    0.000    0.000    0.000    0.000    0.000 
#
# Total GULP energy -289567.573744 kJ/mol
# GULP energy per Si atom -5568.607187 kJ/mol
# Density = 1.829367 g / cm^3
# Si number density = 18.335403 Si / 1000 Ang^3
#
#
#
# Elastic Constant Matrix: (Units=GPa)
#
#
# Indices 1 2 3 4 5 6 
#
# 1 169.5984 84.7693 18.4509 0.0000 0.0000 0.0000
# 2 84.7693 131.5732 22.6812 0.0000 0.0000 0.0000
# 3 18.4509 22.6812 37.3906 0.0000 0.0000 0.0000
# 4 0.0000 0.0000 0.0000 18.1883 0.0000 0.0000
# 5 0.0000 0.0000 0.0000 0.0000 4.9128 0.0000
# 6 0.0000 0.0000 0.0000 0.0000 0.0000 23.8397
#
#
#
# Elastic Compliance Matrix: (Units=1/GPa)
#
#
# Indices 1 2 3 4 5 6 
#
# 1 0.008730 -0.005452 -0.001001 0.000000 0.000000 0.000000
# 2 -0.005452 0.011893 -0.004524 0.000000 0.000000 0.000000
# 3 -0.001001 -0.004524 0.029983 0.000000 0.000000 0.000000
# 4 0.000000 0.000000 0.000000 0.054980 0.000000 0.000000
# 5 0.000000 0.000000 0.000000 0.000000 0.203550 0.000000
# 6 0.000000 0.000000 0.000000 0.000000 0.000000 0.041947
#
#
# Mechanical properties :
#
#
# Convention : Reuss Voigt Hill
#
# Bulk Modulus (GPa) = 34.90112 65.59610 50.24861
# Shear Modulus (GPa) = 13.06892 23.56556 18.31724
#
# Velocity S-wave (km/s) = 2.67267 3.58893 3.16414
# Velocity P-wave (km/s) = 5.34793 7.28198 6.38857
#
# Compressibility (1/GPa) = 0.02865238
#
# Stress axis : x y z
#
# Youngs Moduli (GPa) = 114.54376 84.08403 33.35256
#
# Poissons Ratio (x) = 0.45844 0.03338
# Poissons Ratio (y) = 0.62451 0.15088
# Poissons Ratio (z) = 0.11463 0.38038
#
# Static dielectric constant tensor:
#      x y z
#    x 1.636430 0.000000 0.000000 
#    y 0.000000 1.653270 0.000000 
#    z 0.000000 0.000000 1.676400 
# 
# From -- ./inp_files/17104.got.cif
#   From: 2010.05.17/outbox.cif.g08.bks.cpg/sg71_9_cif.got.tgz:17104.got - 2010.06.03 16:22:01.
