data_PCOD9521049
_publ_section_title
;
Structure prediction by ZEFSAII (Michael W. Deem and Ramdas Pophale) SiO2 
 PCOD9521049
Probable space group: I M M M
;
_chemical_formula_sum "Si O2"
_cell_formula_units_Z 88
_cell_length_a 19.957143
_cell_length_b 8.042759
_cell_length_c 28.303742
_cell_angle_alpha 90.000000
_cell_angle_beta 90.000000
_cell_angle_gamma 90.000000
_cell_volume 4543.047539
_symmetry_space_group_name_H-M "I M M M"
_symmetry_group_IT_number 71
_symmetry_cell_setting 'orthorhombic'
loop_
_space_group_symop_operation_xyz
x,y,z
-x,-y,z
x,-y,-z
-x,y,-z
-x,-y,-z
x,y,-z
-x,y,z
x,-y,z
1/2+x,1/2+y,1/2+z
1/2-x,1/2-y,1/2+z
1/2+x,1/2-y,1/2-z
1/2-x,1/2+y,1/2-z
1/2-x,1/2-y,1/2-z
1/2+x,1/2+y,1/2-z
1/2-x,1/2+y,1/2+z
1/2+x,1/2-y,1/2+z
loop_
_atom_site_type_symbol
_atom_site_label
_atom_site_fract_x
_atom_site_fract_y
_atom_site_fract_z
Si Si1 0.000000 0.194160 0.556311
Si Si2 0.320179 0.204013 0.654628
Si Si3 0.575246 0.801763 0.727798
Si Si4 0.725667 0.200690 0.448215
Si Si5 0.818882 0.809765 0.304753
Si Si6 0.860134 0.307317 0.595600
O O1 0.066619 0.278508 0.575613
O O2 0.000000 0.203962 0.500000
O O3 0.000000 0.000000 0.570037
O O4 0.387856 0.259204 0.680237
O O5 0.310470 0.257939 0.600242
O O6 0.256262 0.259602 0.686536
O O7 0.317750 0.000000 0.654548
O O8 0.500000 0.734530 0.735776
O O9 0.628357 0.772291 0.769654
O O10 0.569240 0.000000 0.723244
O O11 0.701753 0.258542 0.500000
O O12 0.802784 0.253207 0.440963
O O13 0.722423 0.000000 0.448085
O O14 0.849385 0.798934 0.357265
O O15 0.811734 0.000000 0.289524
O O16 0.850193 0.500000 0.607922
#
# Coordination Sequence:
#
# PCOD9521049 Si02
#       6
#     8  16  16  16  16  16
#     4  11  23  37  51  67  95 137 177 211 252 301
#     4   8  16  32  52  75 101 134 172 210 256 308
#     4  10  20  33  51  75 105 136 169 213 265 314
#     4   9  17  32  54  76  99 130 170 211 252 303
#     4  10  20  35  54  73  98 134 176 215 253 305
#     4  11  22  34  50  73 102 131 167 213 259 305
#
# _framework density 19.370256999999999
#
# number of rings (size 3 to 8) (size 9 to 14) (size 15 to 20)
#    0.000    2.273    0.000    4.636    1.273    3.636 
#    0.000    3.636    0.000    0.545    0.000    3.818 
#    0.000    0.000    0.000    8.182    0.000    9.091 
#
# Total GULP energy -245391.516574 kJ/mol
# GULP energy per Si atom -5577.079922 kJ/mol
# Density = 1.932617 g / cm^3
# Si number density = 19.370257 Si / 1000 Ang^3
#
#
#
# Elastic Constant Matrix: (Units=GPa)
#
#
# Indices 1 2 3 4 5 6 
#
# 1 87.7249 11.3461 57.0298 0.0000 0.0000 0.0000
# 2 11.3461 23.3994 6.3203 0.0000 0.0000 0.0000
# 3 57.0298 6.3203 101.5931 0.0000 0.0000 0.0000
# 4 0.0000 0.0000 0.0000 9.9063 0.0000 0.0000
# 5 0.0000 0.0000 0.0000 0.0000 8.1777 0.0000
# 6 0.0000 0.0000 0.0000 0.0000 0.0000 -5.1064
#
#
#
# Elastic Compliance Matrix: (Units=1/GPa)
#
#
# Indices 1 2 3 4 5 6 
#
# 1 0.018844 -0.006387 -0.010181 0.000000 0.000000 0.000000
# 2 -0.006387 0.045632 0.000747 0.000000 0.000000 0.000000
# 3 -0.010181 0.000747 0.015512 0.000000 0.000000 0.000000
# 4 0.000000 0.000000 0.000000 0.100946 0.000000 0.000000
# 5 0.000000 0.000000 0.000000 0.000000 0.122284 0.000000
# 6 0.000000 0.000000 0.000000 0.000000 0.000000 -0.195834
#
#
# Mechanical properties :
#
#
# Convention : Reuss Voigt Hill
#
# Bulk Modulus (GPa) = 20.68483 40.23441 30.45962
# Shear Modulus (GPa) = 32.22893 11.79695 22.01294
#
# Velocity S-wave (km/s) = 4.08344 2.47052 3.37475
# Velocity P-wave (km/s) = 5.73886 5.38092 5.56277
#
# Compressibility (1/GPa) = 0.04834460
#
# Stress axis : x y z
#
# Youngs Moduli (GPa) = 53.06770 21.91464 64.46734
#
# Poissons Ratio (x) = 0.13998 0.65632
# Poissons Ratio (y) = 0.33896 -0.04814
# Poissons Ratio (z) = 0.54027 -0.01636
#
# Static dielectric constant tensor:
#      x y z
#    x 1.720260 0.000000 0.000000 
#    y 0.000000 1.696590 0.000000 
#    z 0.000000 0.000000 1.692440 
# 
# From -- ./inp_files/8775.got.cif
#   From: 2010.05.17/outbox.cif.g08.bks.cpg/sg71_5_cif.got.tgz:8775.got - 2010.06.03 16:22:01.
