data_PCOD9521011
_publ_section_title
;
Structure prediction by ZEFSAII (Michael W. Deem and Ramdas Pophale) SiO2 
 PCOD9521011
Probable space group: I M M M
;
_chemical_formula_sum "Si O2"
_cell_formula_units_Z 96
_cell_length_a 15.587232
_cell_length_b 17.140948
_cell_length_c 21.627039
_cell_angle_alpha 90.000000
_cell_angle_beta 90.000000
_cell_angle_gamma 90.000000
_cell_volume 5778.310835
_symmetry_space_group_name_H-M "I M M M"
_symmetry_group_IT_number 71
_symmetry_cell_setting 'orthorhombic'
loop_
_space_group_symop_operation_xyz
x,y,z
-x,-y,z
x,-y,-z
-x,y,-z
-x,-y,-z
x,y,-z
-x,y,z
x,-y,z
1/2+x,1/2+y,1/2+z
1/2-x,1/2-y,1/2+z
1/2+x,1/2-y,1/2-z
1/2-x,1/2+y,1/2-z
1/2-x,1/2-y,1/2-z
1/2+x,1/2+y,1/2-z
1/2-x,1/2+y,1/2+z
1/2+x,1/2-y,1/2+z
loop_
_atom_site_type_symbol
_atom_site_label
_atom_site_fract_x
_atom_site_fract_y
_atom_site_fract_z
Si Si1 0.096351 0.674721 0.391805
Si Si2 0.766976 0.158057 0.754443
Si Si3 0.601846 0.649577 0.852085
Si Si4 0.895646 0.000000 0.569649
Si Si5 0.232617 0.905842 0.894236
Si Si6 0.092369 0.408041 0.258019
Si Si7 0.901359 0.094550 0.000000
O O1 0.116779 0.766281 0.383881
O O2 0.177363 0.629239 0.419642
O O3 0.091185 0.639195 0.322379
O O4 0.000000 0.665709 0.418906
O O5 0.750000 0.250000 0.750000
O O6 0.848288 0.142282 0.711958
O O7 0.721038 0.371853 0.675221
O O8 0.681141 0.117172 0.727477
O O9 0.500000 0.644742 0.841575
O O10 0.629606 0.578351 0.895162
O O11 0.863793 0.000000 0.500000
O O12 0.000000 0.000000 0.568053
O O13 0.238704 0.000000 0.890930
O O14 0.154435 0.883991 0.939507
O O15 0.096436 0.500000 0.271628
O O16 0.000000 0.392597 0.226683
O O17 0.000000 0.122693 0.000000
O O18 0.904651 0.000000 0.000000
#
# Coordination Sequence:
#
# PCOD9521011 Si02
#       7
#    16  16  16   8  16  16   8
#     4   9  16  30  49  74 105 137 167 209 269 318
#     4  11  19  30  50  79 111 137 171 224 277 322
#     4  10  20  33  50  75 108 138 172 218 265 322
#     4   9  20  38  54  70  99 142 182 216 262 320
#     4  10  20  34  54  79 105 144 184 223 264 321
#     4   9  17  29  46  69 102 145 179 206 256 327
#     4   9  20  40  57  71 103 148 192 227 260 311
#
# _framework density 16.613852000000001
#
# number of rings (size 3 to 8) (size 9 to 14) (size 15 to 20)
#    0.000    2.333    3.333    2.000    2.333    1.667 
#    1.500    0.417    0.000    1.500    0.000    0.000 
#    0.000    0.667    0.000    0.000    0.000    0.000 
#
# Total GULP energy -267230.837886 kJ/mol
# GULP energy per Si atom -5567.309123 kJ/mol
# Density = 1.657604 g / cm^3
# Si number density = 16.613852 Si / 1000 Ang^3
#
#
#
# Elastic Constant Matrix: (Units=GPa)
#
#
# Indices 1 2 3 4 5 6 
#
# 1 117.1284 42.8072 48.4442 0.0000 0.0000 0.0000
# 2 42.8072 119.7634 40.0692 0.0000 0.0000 0.0000
# 3 48.4442 40.0692 77.3558 0.0000 0.0000 0.0000
# 4 0.0000 0.0000 0.0000 0.6786 0.0000 0.0000
# 5 0.0000 0.0000 0.0000 0.0000 16.4233 0.0000
# 6 0.0000 0.0000 0.0000 0.0000 0.0000 24.0479
#
#
#
# Elastic Compliance Matrix: (Units=1/GPa)
#
#
# Indices 1 2 3 4 5 6 
#
# 1 0.011959 -0.002140 -0.006381 0.000000 0.000000 0.000000
# 2 -0.002140 0.010483 -0.004090 0.000000 0.000000 0.000000
# 3 -0.006381 -0.004090 0.019042 0.000000 0.000000 0.000000
# 4 0.000000 0.000000 0.000000 1.473692 0.000000 0.000000
# 5 0.000000 0.000000 0.000000 0.000000 0.060889 0.000000
# 6 0.000000 0.000000 0.000000 0.000000 0.000000 0.041584
#
#
# Mechanical properties :
#
#
# Convention : Reuss Voigt Hill
#
# Bulk Modulus (GPa) = 61.49131 64.09876 62.79504
# Shear Modulus (GPa) = 3.03344 20.42508 11.72926
#
# Velocity S-wave (km/s) = 1.35271 3.51008 2.65994
# Velocity P-wave (km/s) = 6.28746 7.42246 6.87841
#
# Compressibility (1/GPa) = 0.01626246
#
# Stress axis : x y z
#
# Youngs Moduli (GPa) = 83.62083 95.39273 52.51560
#
# Poissons Ratio (x) = 0.20410 0.33510
# Poissons Ratio (y) = 0.17891 0.21480
# Poissons Ratio (z) = 0.53358 0.39017
#
# Static dielectric constant tensor:
#      x y z
#    x 1.619770 0.000000 0.000000 
#    y 0.000000 1.563630 0.000000 
#    z 0.000000 0.000000 1.554070 
# 
# From -- ./inp_files/65465.got.cif
#   From: 2010.05.17/outbox.cif.g08.bks.cpg/sg71_33_cif.got.tgz:65465.got - 2010.06.03 16:22:01.
