data_PCOD9521207
_publ_section_title
;
Structure prediction by ZEFSAII (Michael W. Deem and Ramdas Pophale) SiO2 
 PCOD9521207
Probable space group: I M M M
;
_chemical_formula_sum "Si O2"
_cell_formula_units_Z 88
_cell_length_a 18.128426
_cell_length_b 14.575282
_cell_length_c 18.203079
_cell_angle_alpha 90.000000
_cell_angle_beta 90.000000
_cell_angle_gamma 90.000000
_cell_volume 4809.743520
_symmetry_space_group_name_H-M "I M M M"
_symmetry_group_IT_number 71
_symmetry_cell_setting 'orthorhombic'
loop_
_space_group_symop_operation_xyz
x,y,z
-x,-y,z
x,-y,-z
-x,y,-z
-x,-y,-z
x,y,-z
-x,y,z
x,-y,z
1/2+x,1/2+y,1/2+z
1/2-x,1/2-y,1/2+z
1/2+x,1/2-y,1/2-z
1/2-x,1/2+y,1/2-z
1/2-x,1/2-y,1/2-z
1/2+x,1/2+y,1/2-z
1/2-x,1/2+y,1/2+z
1/2+x,1/2-y,1/2+z
loop_
_atom_site_type_symbol
_atom_site_label
_atom_site_fract_x
_atom_site_fract_y
_atom_site_fract_z
Si Si1 0.083319 0.108540 0.366357
Si Si2 0.329263 0.678429 0.362993
Si Si3 0.240625 0.840835 0.580559
Si Si4 0.581600 0.768762 0.747493
Si Si5 0.583995 0.500000 0.413264
Si Si6 0.782802 0.393969 0.755040
O O1 0.152280 0.144803 0.413566
O O2 0.083109 0.175831 0.295992
O O3 0.000000 0.114837 0.398464
O O4 0.095584 0.000000 0.348838
O O5 0.273203 0.737428 0.412483
O O6 0.396263 0.741812 0.335181
O O7 0.367415 0.588147 0.392948
O O8 0.282919 0.653342 0.289885
O O9 0.263533 0.876939 0.500000
O O10 0.269835 0.884774 0.657085
O O11 0.500000 0.807482 0.752926
O O12 0.643805 0.841004 0.769404
O O13 0.500000 0.500000 0.380462
O O14 0.575402 0.500000 0.500000
O O15 0.785418 0.500000 0.735683
#
# Coordination Sequence:
#
# PCOD9521207 Si02
#       6
#    16  16  16  16   8  16
#     4  10  20  33  53  83 117 149 187 235 290 345
#     4  11  20  38  57  84 111 151 191 237 286 344
#     4  11  22  37  56  80 116 157 191 233 289 348
#     4  10  20  35  56  84 113 145 189 238 283 337
#     4  11  24  38  58  90 120 148 188 239 300 356
#     4  11  21  37  60  84 112 149 195 239 282 338
#
# _framework density 18.296192999999999
#
# number of rings (size 3 to 8) (size 9 to 14) (size 15 to 20)
#    0.000    1.364    4.545    2.727    1.273    2.182 
#    0.000    0.909    0.000    4.909    0.000    5.091 
#    0.000    5.818    0.000    0.000    0.000    0.000 
#
# Total GULP energy -245067.724493 kJ/mol
# GULP energy per Si atom -5569.721011 kJ/mol
# Density = 1.825455 g / cm^3
# Si number density = 18.296193 Si / 1000 Ang^3
#
#
#
# Elastic Constant Matrix: (Units=GPa)
#
#
# Indices 1 2 3 4 5 6 
#
# 1 136.0501 41.3748 25.1330 0.0000 0.0000 0.0000
# 2 41.3748 61.2104 3.6010 0.0000 0.0000 0.0000
# 3 25.1330 3.6010 69.9223 0.0000 0.0000 0.0000
# 4 0.0000 0.0000 0.0000 8.3769 0.0000 0.0000
# 5 0.0000 0.0000 0.0000 0.0000 12.3781 0.0000
# 6 0.0000 0.0000 0.0000 0.0000 0.0000 44.3334
#
#
#
# Elastic Compliance Matrix: (Units=1/GPa)
#
#
# Indices 1 2 3 4 5 6 
#
# 1 0.009931 -0.006523 -0.003234 0.000000 0.000000 0.000000
# 2 -0.006523 0.020671 0.001280 0.000000 0.000000 0.000000
# 3 -0.003234 0.001280 0.015398 0.000000 0.000000 0.000000
# 4 0.000000 0.000000 0.000000 0.119376 0.000000 0.000000
# 5 0.000000 0.000000 0.000000 0.000000 0.080788 0.000000
# 6 0.000000 0.000000 0.000000 0.000000 0.000000 0.022556
#
#
# Mechanical properties :
#
#
# Convention : Reuss Voigt Hill
#
# Bulk Modulus (GPa) = 34.42693 45.26671 39.84682
# Shear Modulus (GPa) = 16.92875 26.15594 21.54234
#
# Velocity S-wave (km/s) = 3.04511 3.78509 3.43508
# Velocity P-wave (km/s) = 5.58757 6.62550 6.12855
#
# Compressibility (1/GPa) = 0.02904703
#
# Stress axis : x y z
#
# Youngs Moduli (GPa) = 100.69183 48.37739 64.94334
#
# Poissons Ratio (x) = 0.31555 0.21001
# Poissons Ratio (y) = 0.65679 -0.08313
# Poissons Ratio (z) = 0.32562 -0.06192
#
# Static dielectric constant tensor:
#      x y z
#    x 1.657700 0.000000 0.000000 
#    y 0.000000 1.634270 0.000000 
#    z 0.000000 0.000000 1.650310 
# 
# From -- ./inp_files/36387.got.cif
#   From: 2010.05.17/outbox.cif.g08.bks.cpg/sg71_19_cif.got.tgz:36387.got - 2010.06.03 16:22:01.
