data_PCOD9521550
_publ_section_title
;
Structure prediction by ZEFSAII (Michael W. Deem and Ramdas Pophale) SiO2 
 PCOD9521550
Probable space group: I M M M
;
_chemical_formula_sum "Si O2"
_cell_formula_units_Z 104
_cell_length_a 26.014230
_cell_length_b 7.430517
_cell_length_c 24.332033
_cell_angle_alpha 90.000000
_cell_angle_beta 90.000000
_cell_angle_gamma 90.000000
_cell_volume 4703.361984
_symmetry_space_group_name_H-M "I M M M"
_symmetry_group_IT_number 71
_symmetry_cell_setting 'orthorhombic'
loop_
_space_group_symop_operation_xyz
x,y,z
-x,-y,z
x,-y,-z
-x,y,-z
-x,-y,-z
x,y,-z
-x,y,z
x,-y,z
1/2+x,1/2+y,1/2+z
1/2-x,1/2-y,1/2+z
1/2+x,1/2-y,1/2-z
1/2-x,1/2+y,1/2-z
1/2-x,1/2-y,1/2-z
1/2+x,1/2+y,1/2-z
1/2-x,1/2+y,1/2+z
1/2+x,1/2-y,1/2+z
loop_
_atom_site_type_symbol
_atom_site_label
_atom_site_fract_x
_atom_site_fract_y
_atom_site_fract_z
Si Si1 0.191486 0.286074 0.234158
Si Si2 0.500000 0.789972 0.185752
Si Si3 0.883696 0.720010 0.665379
Si Si4 0.059168 0.698101 0.000000
Si Si5 0.500000 0.718906 0.685383
Si Si6 0.311044 0.780414 0.935901
Si Si7 0.299037 0.296450 0.608886
Si Si8 0.906578 0.203573 0.113546
O O1 0.183009 0.500000 0.227560
O O2 0.250000 0.250000 0.250000
O O3 0.150499 0.224889 0.280827
O O4 0.193406 0.198782 0.174430
O O5 0.556518 0.719103 0.167273
O O6 0.500000 0.772568 0.251517
O O7 0.500000 0.000000 0.169721
O O8 0.883868 0.500000 0.666768
O O9 0.853836 0.774243 0.609361
O O10 0.068394 0.805087 0.054838
O O11 0.084676 0.500000 0.000000
O O12 0.000000 0.665695 0.000000
O O13 0.500000 0.500000 0.681122
O O14 0.447835 0.784730 0.655613
O O15 0.255189 0.721895 0.912050
O O16 0.311636 0.000000 0.935452
O O17 0.318028 0.725688 0.000000
O O18 0.300067 0.500000 0.585611
O O19 0.352934 0.203699 0.597229
O O20 0.896543 0.000000 0.133859
#
# Coordination Sequence:
#
# PCOD9521550 Si02
#       8
#    16   8  16   8   8  16  16  16
#     4  11  20  33  54  80 112 145 177 220 269 320
#     4  10  20  34  56  79 104 140 173 217 276 333
#     4   9  18  33  52  79 110 138 177 221 267 323
#     4  11  23  37  53  73 101 143 191 232 269 318
#     4  10  20  35  51  75 108 137 172 223 272 317
#     4   9  17  31  52  77 107 140 173 216 265 317
#     4  10  20  34  54  81 107 137 182 221 265 331
#     4  10  21  35  54  76 103 140 182 229 273 321
#
# _framework density 22.111841999999999
#
# number of rings (size 3 to 8) (size 9 to 14) (size 15 to 20)
#    0.000    2.077    2.308    1.615    1.077    1.538 
#    0.000    1.154    0.000    2.308    0.000    0.000 
#    0.000    0.615    0.000    0.000    0.000    0.000 
#
# Total GULP energy -289495.791113 kJ/mol
# GULP energy per Si atom -5567.226752 kJ/mol
# Density = 2.206151 g / cm^3
# Si number density = 22.111842 Si / 1000 Ang^3
#
#
#
# Elastic Constant Matrix: (Units=GPa)
#
#
# Indices 1 2 3 4 5 6 
#
# 1 211.5359 3.6973 83.5115 0.0000 0.0000 0.0000
# 2 3.6973 75.5724 -3.7211 0.0000 0.0000 0.0000
# 3 83.5115 -3.7211 137.7889 0.0000 0.0000 0.0000
# 4 0.0000 0.0000 0.0000 18.7386 0.0000 0.0000
# 5 0.0000 0.0000 0.0000 0.0000 33.0429 0.0000
# 6 0.0000 0.0000 0.0000 0.0000 0.0000 -4.8150
#
#
#
# Elastic Compliance Matrix: (Units=1/GPa)
#
#
# Indices 1 2 3 4 5 6 
#
# 1 0.006232 -0.000492 -0.003791 0.000000 0.000000 0.000000
# 2 -0.000492 0.013289 0.000657 0.000000 0.000000 0.000000
# 3 -0.003791 0.000657 0.009573 0.000000 0.000000 0.000000
# 4 0.000000 0.000000 0.000000 0.053366 0.000000 0.000000
# 5 0.000000 0.000000 0.000000 0.000000 0.030264 0.000000
# 6 0.000000 0.000000 0.000000 0.000000 0.000000 -0.207686
#
#
# Mechanical properties :
#
#
# Convention : Reuss Voigt Hill
#
# Bulk Modulus (GPa) = 45.78123 65.76362 55.77243
# Shear Modulus (GPa) = -62.16529 32.15393 -15.00568
#
# Velocity S-wave (km/s) = -5.30802 3.81747 -2.60787
# Velocity P-wave (km/s) = 4.10090 7.01689 4.02612
#
# Compressibility (1/GPa) = 0.02184301
#
# Stress axis : x y z
#
# Youngs Moduli (GPa) = 160.45149 75.25171 104.46422
#
# Poissons Ratio (x) = 0.03699 0.39599
# Poissons Ratio (y) = 0.07887 -0.06861
# Poissons Ratio (z) = 0.60821 -0.04943
#
# Static dielectric constant tensor:
#      x y z
#    x 1.792370 0.000000 0.000000 
#    y 0.000000 1.946870 0.000000 
#    z 0.000000 0.000000 1.833600 
# 
# From -- ./inp_files/66896.got.cif
#   From: 2010.05.17/outbox.cif.g08.bks.cpg/sg71_34_cif.got.tgz:66896.got - 2010.06.03 16:22:01.
