data_PCOD9521766
_publ_section_title
;
Structure prediction by ZEFSAII (Michael W. Deem and Ramdas Pophale) SiO2 
 PCOD9521766
Probable space group: I M M M
;
_chemical_formula_sum "Si O2"
_cell_formula_units_Z 116
_cell_length_a 13.575230
_cell_length_b 18.215400
_cell_length_c 25.001200
_cell_angle_alpha 90.000000
_cell_angle_beta 90.000000
_cell_angle_gamma 90.000000
_cell_volume 6182.252847
_symmetry_space_group_name_H-M "I M M M"
_symmetry_group_IT_number 71
_symmetry_cell_setting 'orthorhombic'
loop_
_space_group_symop_operation_xyz
x,y,z
-x,-y,z
x,-y,-z
-x,y,-z
-x,-y,-z
x,y,-z
-x,y,z
x,-y,z
1/2+x,1/2+y,1/2+z
1/2-x,1/2-y,1/2+z
1/2+x,1/2-y,1/2-z
1/2-x,1/2+y,1/2-z
1/2-x,1/2-y,1/2-z
1/2+x,1/2+y,1/2-z
1/2-x,1/2+y,1/2+z
1/2+x,1/2-y,1/2+z
loop_
_atom_site_type_symbol
_atom_site_label
_atom_site_fract_x
_atom_site_fract_y
_atom_site_fract_z
Si Si1 0.387259 0.166811 0.700265
Si Si2 0.612005 0.581785 0.335332
Si Si3 0.801604 0.082944 0.278062
Si Si4 0.385700 0.581160 0.064852
Si Si5 0.389430 0.727573 0.403298
Si Si6 0.000000 0.266010 0.500000
Si Si7 0.114608 0.762457 0.304799
Si Si8 0.817739 0.238542 0.581641
O O1 0.500000 0.142443 0.707695
O O2 0.308281 0.102128 0.702826
O O3 0.383675 0.213778 0.645744
O O4 0.360748 0.221412 0.749538
O O5 0.500000 0.587002 0.312259
O O6 0.621908 0.500000 0.358909
O O7 0.686739 0.587981 0.286185
O O8 0.619250 0.646962 0.377167
O O9 0.866030 0.150751 0.298965
O O10 0.831534 0.000000 0.292815
O O11 0.500000 0.589917 0.081601
O O12 0.351349 0.500000 0.080329
O O13 0.324085 0.649963 0.083464
O O14 0.387285 0.584260 0.000000
O O15 0.500000 0.734441 0.426813
O O16 0.291073 0.739893 0.437361
O O17 0.088611 0.262226 0.453747
O O18 0.170674 0.734412 0.357236
O O19 0.000000 0.750568 0.314536
#
# Coordination Sequence:
#
# PCOD9521766 Si02
#       8
#    16  16  16  16  16   4  16  16
#     4  10  20  35  51  71 108 147 190 227 263 328
#     4   9  17  31  52  80 115 147 178 224 278 331
#     4  11  20  30  46  74 111 149 186 226 273 320
#     4   9  16  30  51  73 100 135 176 226 281 322
#     4  10  20  35  57  82 108 148 184 227 277 340
#     4  12  24  40  55  88 113 144 180 256 292 328
#     4  11  20  31  52  79 103 142 186 228 277 336
#     4  12  20  35  56  77 113 139 188 232 286 333
#
# _framework density 18.763386000000001
#
# number of rings (size 3 to 8) (size 9 to 14) (size 15 to 20)
#    0.000    1.655    4.828    2.069    0.000    1.655 
#    0.000    0.345    0.000    0.414    0.000    1.931 
#    0.000    2.207    0.000    0.000    0.000    0.000 
#
# Total GULP energy -322928.353956 kJ/mol
# GULP energy per Si atom -5567.730241 kJ/mol
# Density = 1.872068 g / cm^3
# Si number density = 18.763386 Si / 1000 Ang^3
#
#
#
# Elastic Constant Matrix: (Units=GPa)
#
#
# Indices 1 2 3 4 5 6 
#
# 1 119.1331 7.9689 12.9170 0.0000 0.0000 0.0000
# 2 7.9689 48.3961 1.0637 0.0000 0.0000 0.0000
# 3 12.9170 1.0637 52.3367 0.0000 0.0000 0.0000
# 4 0.0000 0.0000 0.0000 9.8163 0.0000 0.0000
# 5 0.0000 0.0000 0.0000 0.0000 13.4866 0.0000
# 6 0.0000 0.0000 0.0000 0.0000 0.0000 23.9601
#
#
#
# Elastic Compliance Matrix: (Units=1/GPa)
#
#
# Indices 1 2 3 4 5 6 
#
# 1 0.008717 -0.001389 -0.002123 0.000000 0.000000 0.000000
# 2 -0.001389 0.020893 -0.000082 0.000000 0.000000 0.000000
# 3 -0.002123 -0.000082 0.019633 0.000000 0.000000 0.000000
# 4 0.000000 0.000000 0.000000 0.101871 0.000000 0.000000
# 5 0.000000 0.000000 0.000000 0.000000 0.074148 0.000000
# 6 0.000000 0.000000 0.000000 0.000000 0.000000 0.041736
#
#
# Mechanical properties :
#
#
# Convention : Reuss Voigt Hill
#
# Bulk Modulus (GPa) = 23.77810 29.30723 26.54266
# Shear Modulus (GPa) = 17.34882 22.64702 19.99792
#
# Velocity S-wave (km/s) = 3.04404 3.47793 3.26819
# Velocity P-wave (km/s) = 5.00550 5.63749 5.33087
#
# Compressibility (1/GPa) = 0.04205550
#
# Stress axis : x y z
#
# Youngs Moduli (GPa) = 114.71743 47.86228 50.93538
#
# Poissons Ratio (x) = 0.06647 0.10815
# Poissons Ratio (y) = 0.15931 0.00417
# Poissons Ratio (z) = 0.24357 0.00392
#
# Static dielectric constant tensor:
#      x y z
#    x 1.686840 0.000000 0.000000 
#    y 0.000000 1.642780 0.000000 
#    z 0.000000 0.000000 1.684970 
# 
# From -- ./inp_files/65700.got.cif
#   From: 2010.05.17/outbox.cif.g08.bks.cpg/sg71_33_cif.got.tgz:65700.got - 2010.06.03 16:22:01.
