data_PCOD9521794
_publ_section_title
;
Structure prediction by ZEFSAII (Michael W. Deem and Ramdas Pophale) SiO2 
 PCOD9521794
Probable space group: I M M M
;
_chemical_formula_sum "Si O2"
_cell_formula_units_Z 96
_cell_length_a 13.251841
_cell_length_b 30.078264
_cell_length_c 14.060113
_cell_angle_alpha 90.000000
_cell_angle_beta 90.000000
_cell_angle_gamma 90.000000
_cell_volume 5604.253792
_symmetry_space_group_name_H-M "I M M M"
_symmetry_group_IT_number 71
_symmetry_cell_setting 'orthorhombic'
loop_
_space_group_symop_operation_xyz
x,y,z
-x,-y,z
x,-y,-z
-x,y,-z
-x,-y,-z
x,y,-z
-x,y,z
x,-y,z
1/2+x,1/2+y,1/2+z
1/2-x,1/2-y,1/2+z
1/2+x,1/2-y,1/2-z
1/2-x,1/2+y,1/2-z
1/2-x,1/2-y,1/2-z
1/2+x,1/2+y,1/2-z
1/2-x,1/2+y,1/2+z
1/2+x,1/2-y,1/2+z
loop_
_atom_site_type_symbol
_atom_site_label
_atom_site_fract_x
_atom_site_fract_y
_atom_site_fract_z
Si Si1 0.000000 0.155091 0.691956
Si Si2 0.116916 0.353950 0.111031
Si Si3 0.879570 0.000000 0.386581
Si Si4 0.679127 0.790181 0.779484
Si Si5 0.000000 0.166732 0.100237
Si Si6 0.199595 0.908149 0.696975
Si Si7 0.719808 0.371896 0.607494
Si Si8 0.000000 0.246457 0.392732
O O1 0.000000 0.183772 0.791398
O O2 0.898604 0.124922 0.687494
O O3 0.000000 0.193092 0.613665
O O4 0.136571 0.313993 0.184996
O O5 0.204579 0.388921 0.139231
O O6 0.000000 0.369220 0.123495
O O7 0.128768 0.341473 0.000000
O O8 0.832996 0.044233 0.341233
O O9 0.862798 0.000000 0.500000
O O10 0.000000 0.000000 0.370201
O O11 0.750000 0.750000 0.750000
O O12 0.732685 0.827732 0.844429
O O13 0.594544 0.767238 0.841036
O O14 0.100730 0.137602 0.098095
O O15 0.000000 0.193826 0.000000
O O16 0.229868 0.908104 0.808872
O O17 0.758353 0.380407 0.500000
O O18 0.000000 0.261139 0.500000
#
# Coordination Sequence:
#
# PCOD9521794 Si02
#       8
#     8  16   8  16   8  16  16   8
#     4  10  20  35  53  79 110 151 190 233 283 341
#     4  10  21  39  59  80 111 153 195 233 286 348
#     4  11  22  36  58  92 122 145 182 239 308 370
#     4  11  22  36  54  78 114 147 193 246 288 329
#     4   8  14  28  49  72  97 131 180 221 261 321
#     4  10  20  37  60  83 117 148 188 236 289 354
#     4   9  18  33  55  78 107 152 191 227 278 336
#     4  12  24  36  51  77 111 145 194 245 286 329
#
# _framework density 17.129845
#
# number of rings (size 3 to 8) (size 9 to 14) (size 15 to 20)
#    0.000    1.917    1.667    4.000    0.000    4.000 
#    0.000    1.667    0.000    2.000    0.000    0.000 
#    0.000    3.000    0.000    0.000    0.000    0.000 
#
# Total GULP energy -267336.877087 kJ/mol
# GULP energy per Si atom -5569.518273 kJ/mol
# Density = 1.709086 g / cm^3
# Si number density = 17.129845 Si / 1000 Ang^3
#
#
#
# Elastic Constant Matrix: (Units=GPa)
#
#
# Indices 1 2 3 4 5 6 
#
# 1 115.2789 53.7043 66.2700 0.0000 0.0001 -0.0001
# 2 53.7043 103.9534 66.5005 0.0000 0.0000 0.0000
# 3 66.2700 66.5005 163.6850 -0.0004 0.0000 0.0000
# 4 0.0000 0.0000 -0.0004 16.8315 -0.0001 0.0000
# 5 0.0001 0.0000 0.0000 -0.0001 66.0353 0.0002
# 6 -0.0001 0.0000 0.0000 0.0000 0.0002 41.8469
#
#
#
# Elastic Compliance Matrix: (Units=1/GPa)
#
#
# Indices 1 2 3 4 5 6 
#
# 1 0.012638 -0.004399 -0.003329 0.000000 0.000000 0.000000
# 2 -0.004399 0.014529 -0.004122 0.000000 0.000000 0.000000
# 3 -0.003329 -0.004122 0.009132 0.000000 0.000000 0.000000
# 4 0.000000 0.000000 0.000000 0.059413 0.000000 0.000000
# 5 0.000000 0.000000 0.000000 0.000000 0.015143 0.000000
# 6 0.000000 0.000000 0.000000 0.000000 0.000000 0.023897
#
#
# Mechanical properties :
#
#
# Convention : Reuss Voigt Hill
#
# Bulk Modulus (GPa) = 79.37552 83.98521 81.68037
# Shear Modulus (GPa) = 30.74059 38.03889 34.38974
#
# Velocity S-wave (km/s) = 4.24082 4.71746 4.48548
# Velocity P-wave (km/s) = 8.39152 8.87736 8.63786
#
# Compressibility (1/GPa) = 0.01259834
#
# Stress axis : x y z
#
# Youngs Moduli (GPa) = 79.12647 68.82740 109.50768
#
# Poissons Ratio (x) = 0.30278 0.36460
# Poissons Ratio (y) = 0.34809 0.45136
# Poissons Ratio (z) = 0.26344 0.28369
#
# Static dielectric constant tensor:
#      x y z
#    x 1.575830 0.000000 0.000000 
#    y 0.000000 1.557840 0.000000 
#    z 0.000000 0.000000 1.637120 
# 
# From -- ./inp_files/33259.got.cif
#   From: 2010.05.17/outbox.cif.g08.bks.cpg/sg71_17_cif.got.tgz:33259.got - 2010.06.03 16:22:01.
