data_PCOD9521652
_publ_section_title
;
Structure prediction by ZEFSAII (Michael W. Deem and Ramdas Pophale) SiO2 
 PCOD9521652
Probable space group: I M M M
;
_chemical_formula_sum "Si O2"
_cell_formula_units_Z 64
_cell_length_a 9.539628
_cell_length_b 16.281154
_cell_length_c 21.166741
_cell_angle_alpha 90.000000
_cell_angle_beta 90.000000
_cell_angle_gamma 90.000000
_cell_volume 3287.536775
_symmetry_space_group_name_H-M "I M M M"
_symmetry_group_IT_number 71
_symmetry_cell_setting 'orthorhombic'
loop_
_space_group_symop_operation_xyz
x,y,z
-x,-y,z
x,-y,-z
-x,y,-z
-x,-y,-z
x,y,-z
-x,y,z
x,-y,z
1/2+x,1/2+y,1/2+z
1/2-x,1/2-y,1/2+z
1/2+x,1/2-y,1/2-z
1/2-x,1/2+y,1/2-z
1/2-x,1/2-y,1/2-z
1/2+x,1/2+y,1/2-z
1/2-x,1/2+y,1/2+z
1/2+x,1/2-y,1/2+z
loop_
_atom_site_type_symbol
_atom_site_label
_atom_site_fract_x
_atom_site_fract_y
_atom_site_fract_z
Si Si1 0.158882 0.098708 0.122419
Si Si2 0.662453 0.900871 0.383233
Si Si3 0.338234 0.899729 0.240582
Si Si4 0.839872 0.357702 0.500000
Si Si5 0.841476 0.838364 0.500000
O O1 0.235135 0.129850 0.185809
O O2 0.254411 0.116151 0.061909
O O3 0.000000 0.130578 0.115308
O O4 0.150081 0.000000 0.128010
O O5 0.500000 0.877429 0.394080
O O6 0.701162 0.874813 0.311861
O O7 0.759868 0.866696 0.437704
O O8 0.668432 0.000000 0.385216
O O9 0.500000 0.875617 0.228462
O O10 0.336552 0.000000 0.239908
O O11 0.846338 0.259625 0.500000
O O12 0.000000 0.389880 0.500000
O O13 0.000000 0.871065 0.500000
#
# Coordination Sequence:
#
# PCOD9521652 Si02
#       5
#    16  16  16   8   8
#     4  10  20  34  55  83 108 130 165 214 263 309
#     4   9  18  34  57  82 106 136 174 211 252 309
#     4   8  15  30  53  80 107 134 166 205 251 306
#     4  11  24  39  52  70 102 143 182 215 252 306
#     4  11  24  37  50  74 106 139 178 221 260 300
#
# _framework density 19.467462999999999
#
# number of rings (size 3 to 8) (size 9 to 14) (size 15 to 20)
#    0.000    2.500    0.000    3.750    0.000    8.000 
#    0.000    3.750    0.000    0.000    0.000    0.000 
#    0.000    0.000    0.000    0.000    0.000    0.000 
#
# Total GULP energy -178606.401018 kJ/mol
# GULP energy per Si atom -5581.450032 kJ/mol
# Density = 1.942315 g / cm^3
# Si number density = 19.467463 Si / 1000 Ang^3
#
#
#
# Elastic Constant Matrix: (Units=GPa)
#
#
# Indices 1 2 3 4 5 6 
#
# 1 173.0568 17.5511 137.2436 0.0000 0.0000 0.0000
# 2 17.5511 11.3247 14.9409 0.0000 0.0000 0.0000
# 3 137.2436 14.9409 188.1339 0.0000 0.0000 0.0000
# 4 0.0000 0.0000 0.0000 -49.0579 0.0000 0.0000
# 5 0.0000 0.0000 0.0000 0.0000 -64.0645 0.0000
# 6 0.0000 0.0000 0.0000 0.0000 0.0000 16.2683
#
#
#
# Elastic Compliance Matrix: (Units=1/GPa)
#
#
# Indices 1 2 3 4 5 6 
#
# 1 0.014583 -0.009568 -0.009878 0.000000 0.000000 0.000000
# 2 -0.009568 0.104915 -0.001352 0.000000 0.000000 0.000000
# 3 -0.009878 -0.001352 0.012629 0.000000 0.000000 0.000000
# 4 0.000000 0.000000 0.000000 -0.020384 0.000000 0.000000
# 5 0.000000 0.000000 0.000000 0.000000 -0.015609 0.000000
# 6 0.000000 0.000000 0.000000 0.000000 0.000000 0.061469
#
#
# Mechanical properties :
#
#
# Convention : Reuss Voigt Hill
#
# Bulk Modulus (GPa) = 11.04608 79.10961 45.07784
# Shear Modulus (GPa) = 21.79827 -5.85217 7.97305
#
# Velocity S-wave (km/s) = 3.34986 -1.73570 2.02595
# Velocity P-wave (km/s) = 4.54407 6.05873 5.35522
#
# Compressibility (1/GPa) = 0.09052987
#
# Stress axis : x y z
#
# Youngs Moduli (GPa) = 68.57337 9.53154 79.18266
#
# Poissons Ratio (x) = 0.09120 0.78220
# Poissons Ratio (y) = 0.65611 0.10706
# Poissons Ratio (z) = 0.67739 0.01289
#
# Static dielectric constant tensor:
#      x y z
#    x 1.676780 0.000000 0.000000 
#    y 0.000000 1.682160 0.000000 
#    z 0.000000 0.000000 1.659110 
# 
# From -- ./inp_files/9520.got.cif
#   From: 2010.05.17/outbox.cif.g08.bks.cpg/sg71_5_cif.got.tgz:9520.got - 2010.06.03 16:22:01.
