data_PCOD9521914
_publ_section_title
;
Structure prediction by ZEFSAII (Michael W. Deem and Ramdas Pophale) SiO2 
 PCOD9521914
Probable space group: I M M M
;
_chemical_formula_sum "Si O2"
_cell_formula_units_Z 104
_cell_length_a 23.704356
_cell_length_b 8.129786
_cell_length_c 28.782916
_cell_angle_alpha 90.000000
_cell_angle_beta 90.000000
_cell_angle_gamma 90.000000
_cell_volume 5546.794356
_symmetry_space_group_name_H-M "I M M M"
_symmetry_group_IT_number 71
_symmetry_cell_setting 'orthorhombic'
loop_
_space_group_symop_operation_xyz
x,y,z
-x,-y,z
x,-y,-z
-x,y,-z
-x,-y,-z
x,y,-z
-x,y,z
x,-y,z
1/2+x,1/2+y,1/2+z
1/2-x,1/2-y,1/2+z
1/2+x,1/2-y,1/2-z
1/2-x,1/2+y,1/2-z
1/2-x,1/2-y,1/2-z
1/2+x,1/2+y,1/2-z
1/2-x,1/2+y,1/2+z
1/2+x,1/2-y,1/2+z
loop_
_atom_site_type_symbol
_atom_site_label
_atom_site_fract_x
_atom_site_fract_y
_atom_site_fract_z
Si Si1 0.937015 0.799578 0.734640
Si Si2 0.238101 0.809286 0.697427
Si Si3 0.931627 0.693254 0.000000
Si Si4 0.356583 0.692483 0.683354
Si Si5 0.433531 0.800590 0.600738
Si Si6 0.564548 0.802034 0.052803
Si Si7 0.627303 0.301589 0.144186
O O1 0.889107 0.744150 0.770710
O O2 0.919534 0.753661 0.682594
O O3 0.000000 0.742400 0.746735
O O4 0.937298 0.000000 0.737169
O O5 0.250000 0.750000 0.750000
O O6 0.298163 0.782274 0.673371
O O7 0.186478 0.739222 0.666693
O O8 0.224595 0.000000 0.702379
O O9 0.913731 0.760009 0.049823
O O10 0.916813 0.500000 0.000000
O O11 0.000000 0.699990 0.000000
O O12 0.344034 0.500000 0.690242
O O13 0.399102 0.718083 0.641325
O O14 0.500000 0.765593 0.605563
O O15 0.427438 0.000000 0.602761
O O16 0.500000 0.745077 0.063154
O O17 0.607660 0.753283 0.093347
O O18 0.563103 0.000000 0.051801
O O19 0.578717 0.746360 0.000000
O O20 0.629622 0.500000 0.142645
#
# Coordination Sequence:
#
# PCOD9521914 Si02
#       7
#    16  16   8  16  16  16  16
#     4   9  17  30  48  73 107 140 168 205 257 312
#     4  11  22  38  57  78 104 139 183 226 266 313
#     4   7  12  26  49  73  99 133 169 207 256 311
#     4  11  21  34  51  75 107 144 179 216 267 319
#     4   9  17  31  52  78 106 137 175 218 265 318
#     4   9  19  36  57  84 118 149 176 215 273 334
#     4  10  20  35  56  80 106 140 184 226 264 314
#
# _framework density 18.749569000000001
#
# number of rings (size 3 to 8) (size 9 to 14) (size 15 to 20)
#    0.000    2.385    1.538    3.231    0.000    3.385 
#    0.000    1.154    1.692    4.154    0.000    0.000 
#    0.000    0.000    0.000    0.000    0.000    0.000 
#
# Total GULP energy -289822.506467 kJ/mol
# GULP energy per Si atom -5573.509740 kJ/mol
# Density = 1.870689 g / cm^3
# Si number density = 18.749569 Si / 1000 Ang^3
#
#
#
# Elastic Constant Matrix: (Units=GPa)
#
#
# Indices 1 2 3 4 5 6 
#
# 1 94.2289 12.0174 50.8444 0.0000 0.0000 0.0000
# 2 12.0174 14.5945 13.3005 0.0000 0.0000 0.0000
# 3 50.8444 13.3005 137.0374 0.0000 0.0000 0.0000
# 4 0.0000 0.0000 0.0000 24.8686 0.0000 0.0000
# 5 0.0000 0.0000 0.0000 0.0000 19.2147 0.0000
# 6 0.0000 0.0000 0.0000 0.0000 0.0000 20.2554
#
#
#
# Elastic Compliance Matrix: (Units=1/GPa)
#
#
# Indices 1 2 3 4 5 6 
#
# 1 0.013968 -0.007436 -0.004461 0.000000 0.000000 0.000000
# 2 -0.007436 0.079126 -0.004921 0.000000 0.000000 0.000000
# 3 -0.004461 -0.004921 0.009430 0.000000 0.000000 0.000000
# 4 0.000000 0.000000 0.000000 0.040211 0.000000 0.000000
# 5 0.000000 0.000000 0.000000 0.000000 0.052043 0.000000
# 6 0.000000 0.000000 0.000000 0.000000 0.000000 0.049370
#
#
# Mechanical properties :
#
#
# Convention : Reuss Voigt Hill
#
# Bulk Modulus (GPa) = 14.51613 44.24283 29.37948
# Shear Modulus (GPa) = 16.62530 24.18099 20.40315
#
# Velocity S-wave (km/s) = 2.98099 3.59511 3.30236
# Velocity P-wave (km/s) = 4.42801 6.39383 5.49947
#
# Compressibility (1/GPa) = 0.06888888
#
# Stress axis : x y z
#
# Youngs Moduli (GPa) = 71.59372 12.63799 106.04577
#
# Poissons Ratio (x) = 0.09398 0.47303
# Poissons Ratio (y) = 0.53238 0.52183
# Poissons Ratio (z) = 0.31935 0.06219
#
# Static dielectric constant tensor:
#      x y z
#    x 1.663370 0.000000 0.000000 
#    y 0.000000 1.682580 0.000000 
#    z 0.000000 0.000000 1.669340 
# 
# From -- ./inp_files/50883.got.cif
#   From: 2010.05.17/outbox.cif.g08.bks.cpg/sg71_26_cif.got.tgz:50883.got - 2010.06.03 16:22:01.
