data_PCOD9521347
_publ_section_title
;
Structure prediction by ZEFSAII (Michael W. Deem and Ramdas Pophale) SiO2 
 PCOD9521347
Probable space group: I M M M
;
_chemical_formula_sum "Si O2"
_cell_formula_units_Z 104
_cell_length_a 26.104575
_cell_length_b 9.679197
_cell_length_c 20.273163
_cell_angle_alpha 90.000000
_cell_angle_beta 90.000000
_cell_angle_gamma 90.000000
_cell_volume 5122.446937
_symmetry_space_group_name_H-M "I M M M"
_symmetry_group_IT_number 71
_symmetry_cell_setting 'orthorhombic'
loop_
_space_group_symop_operation_xyz
x,y,z
-x,-y,z
x,-y,-z
-x,y,-z
-x,-y,-z
x,y,-z
-x,y,z
x,-y,z
1/2+x,1/2+y,1/2+z
1/2-x,1/2-y,1/2+z
1/2+x,1/2-y,1/2-z
1/2-x,1/2+y,1/2-z
1/2-x,1/2-y,1/2-z
1/2+x,1/2+y,1/2-z
1/2-x,1/2+y,1/2+z
1/2+x,1/2-y,1/2+z
loop_
_atom_site_type_symbol
_atom_site_label
_atom_site_fract_x
_atom_site_fract_y
_atom_site_fract_z
Si Si1 0.500000 0.844493 0.919022
Si Si2 0.202734 0.836975 0.365018
Si Si3 0.557927 0.665430 0.718519
Si Si4 0.409798 0.335137 0.571130
Si Si5 0.091145 0.847633 0.578867
Si Si6 0.686779 0.157647 0.602667
Si Si7 0.655415 0.159599 0.755593
O O1 0.550609 0.763732 0.897482
O O2 0.500000 0.000000 0.895242
O O3 0.500000 0.846933 0.000000
O O4 0.149929 0.819875 0.404556
O O5 0.253812 0.804534 0.405962
O O6 0.194958 0.738052 0.302819
O O7 0.206829 0.000000 0.346149
O O8 0.500000 0.695466 0.740561
O O9 0.567064 0.500000 0.725680
O O10 0.561963 0.699165 0.639715
O O11 0.602729 0.752292 0.753174
O O12 0.434399 0.300202 0.500000
O O13 0.403026 0.500000 0.572567
O O14 0.355084 0.259777 0.573818
O O15 0.086191 0.852595 0.500000
O O16 0.077789 0.000000 0.605414
O O17 0.677172 0.159351 0.681469
O O18 0.678484 0.000000 0.579844
O O19 0.647172 0.000000 0.775459
#
# Coordination Sequence:
#
# PCOD9521347 Si02
#       7
#     8  16  16  16  16  16  16
#     4   9  17  31  51  71  93 123 155 189 234 287
#     4  10  20  34  53  77 101 130 171 212 250 301
#     4   9  18  34  55  76 102 139 178 217 260 306
#     4   9  18  32  51  78 109 139 174 215 260 309
#     4   9  18  33  52  73  97 126 161 201 244 291
#     4   9  19  34  52  74 102 137 173 210 253 302
#     4  10  20  34  52  75 103 134 169 212 261 308
#
# _framework density 20.302797000000002
#
# number of rings (size 3 to 8) (size 9 to 14) (size 15 to 20)
#    0.000    2.692    0.000    1.154    0.000    4.308 
#    1.385    3.077    0.000    1.846    0.000    4.308 
#    0.000    0.000    0.000    0.000    0.000    0.000 
#
# Total GULP energy -290188.519866 kJ/mol
# GULP energy per Si atom -5580.548459 kJ/mol
# Density = 2.025659 g / cm^3
# Si number density = 20.302797 Si / 1000 Ang^3
#
#
#
# Elastic Constant Matrix: (Units=GPa)
#
#
# Indices 1 2 3 4 5 6 
#
# 1 112.2671 43.7988 -6.5236 0.0000 0.0000 0.0000
# 2 43.7988 48.2734 3.4581 0.0000 0.0000 0.0000
# 3 -6.5236 3.4581 43.0953 0.0000 0.0000 0.0000
# 4 0.0000 0.0000 0.0000 12.7413 0.0000 0.0000
# 5 0.0000 0.0000 0.0000 0.0000 10.7334 0.0000
# 6 0.0000 0.0000 0.0000 0.0000 0.0000 22.7397
#
#
#
# Elastic Compliance Matrix: (Units=1/GPa)
#
#
# Indices 1 2 3 4 5 6 
#
# 1 0.014215 -0.013127 0.003205 0.000000 0.000000 0.000000
# 2 -0.013127 0.032957 -0.004632 0.000000 0.000000 0.000000
# 3 0.003205 -0.004632 0.024061 0.000000 0.000000 0.000000
# 4 0.000000 0.000000 0.000000 0.078485 0.000000 0.000000
# 5 0.000000 0.000000 0.000000 0.000000 0.093167 0.000000
# 6 0.000000 0.000000 0.000000 0.000000 0.000000 0.043976
#
#
# Mechanical properties :
#
#
# Convention : Reuss Voigt Hill
#
# Bulk Modulus (GPa) = 23.73804 31.67806 27.70805
# Shear Modulus (GPa) = 15.15108 20.10304 17.62706
#
# Velocity S-wave (km/s) = 2.73473 3.15010 2.94973
# Velocity P-wave (km/s) = 4.65715 5.37285 5.02775
#
# Compressibility (1/GPa) = 0.04212647
#
# Stress axis : x y z
#
# Youngs Moduli (GPa) = 70.34967 30.34248 41.56069
#
# Poissons Ratio (x) = 0.39830 -0.13321
# Poissons Ratio (y) = 0.92346 0.19249
# Poissons Ratio (z) = -0.22548 0.14054
#
# Static dielectric constant tensor:
#      x y z
#    x 1.695580 0.000000 0.000000 
#    y 0.000000 1.691570 0.000000 
#    z 0.000000 0.000000 1.773830 
# 
# From -- ./inp_files/13282.got.cif
#   From: 2010.05.17/outbox.cif.g08.bks.cpg/sg71_7_cif.got.tgz:13282.got - 2010.06.03 16:22:01.
