data_PCOD9521292
_publ_section_title
;
Structure prediction by ZEFSAII (Michael W. Deem and Ramdas Pophale) SiO2 
 PCOD9521292
Probable space group: I M M M
;
_chemical_formula_sum "Si O2"
_cell_formula_units_Z 104
_cell_length_a 23.215535
_cell_length_b 26.511427
_cell_length_c 7.574919
_cell_angle_alpha 90.000000
_cell_angle_beta 90.000000
_cell_angle_gamma 90.000000
_cell_volume 4662.188129
_symmetry_space_group_name_H-M "I M M M"
_symmetry_group_IT_number 71
_symmetry_cell_setting 'orthorhombic'
loop_
_space_group_symop_operation_xyz
x,y,z
-x,-y,z
x,-y,-z
-x,y,-z
-x,-y,-z
x,y,-z
-x,y,z
x,-y,z
1/2+x,1/2+y,1/2+z
1/2-x,1/2-y,1/2+z
1/2+x,1/2-y,1/2-z
1/2-x,1/2+y,1/2-z
1/2-x,1/2-y,1/2-z
1/2+x,1/2+y,1/2-z
1/2-x,1/2+y,1/2+z
1/2+x,1/2-y,1/2+z
loop_
_atom_site_type_symbol
_atom_site_label
_atom_site_fract_x
_atom_site_fract_y
_atom_site_fract_z
Si Si1 0.000000 0.057540 0.284232
Si Si2 0.900291 0.132630 0.283897
Si Si3 0.905026 0.500000 0.712384
Si Si4 0.564715 0.255457 0.212195
Si Si5 0.838523 0.326584 0.788377
Si Si6 0.271226 0.613019 0.210984
Si Si7 0.059917 0.391161 0.793628
Si Si8 0.273331 0.000000 0.789813
O O1 0.056306 0.088619 0.228788
O O2 0.000000 0.056991 0.500000
O O3 0.000000 0.000000 0.224240
O O4 0.899979 0.132626 0.500000
O O5 0.924096 0.187164 0.229952
O O6 0.835292 0.123679 0.221166
O O7 0.906143 0.500000 0.500000
O O8 0.935639 0.549542 0.779254
O O9 0.839105 0.500000 0.776395
O O10 0.500000 0.239612 0.276720
O O11 0.622333 0.223140 0.256113
O O12 0.561757 0.254549 0.000000
O O13 0.776060 0.345819 0.721890
O O14 0.882513 0.368623 0.715971
O O15 0.832845 0.329060 0.000000
O O16 0.254213 0.554108 0.238731
O O17 0.273647 0.619526 0.000000
O O18 0.000000 0.373638 0.711886
O O19 0.059570 0.376912 0.000000
O O20 0.274794 0.000000 0.000000
#
# Coordination Sequence:
#
# PCOD9521292 Si02
#       8
#     8  16   8  16  16  16  16   8
#     4   9  16  28  52  90 126 146 174 231 288 331
#     4   9  18  34  56  87 120 146 183 232 283 335
#     4  11  22  34  51  74 103 139 179 231 286 337
#     4  10  20  36  58  83 115 152 186 232 289 340
#     4  10  21  36  54  79 111 146 192 240 277 328
#     4  10  21  37  60  85 110 148 195 237 279 333
#     4  10  20  34  51  72 102 142 186 231 280 330
#     4  11  23  38  56  80 117 154 184 227 288 346
#
# _framework density 22.307122
#
# number of rings (size 3 to 8) (size 9 to 14) (size 15 to 20)
#    0.000    2.077    2.308    1.154    1.077    4.615 
#    0.000    0.769    0.000    0.000    0.000    0.538 
#    0.000    0.000    0.000    0.000    0.000    0.000 
#
# Total GULP energy -289992.913040 kJ/mol
# GULP energy per Si atom -5576.786789 kJ/mol
# Density = 2.225635 g / cm^3
# Si number density = 22.307122 Si / 1000 Ang^3
#
#
#
# Elastic Constant Matrix: (Units=GPa)
#
#
# Indices 1 2 3 4 5 6 
#
# 1 221.4884 93.3690 13.6282 0.0000 0.0000 0.0000
# 2 93.3690 164.8717 -8.2751 0.0000 0.0000 0.0000
# 3 13.6282 -8.2751 55.9856 0.0000 0.0000 0.0000
# 4 0.0000 0.0000 0.0000 13.5011 0.0000 0.0000
# 5 0.0000 0.0000 0.0000 0.0000 -31.3374 0.0000
# 6 0.0000 0.0000 0.0000 0.0000 0.0000 -374.1282
#
#
#
# Elastic Compliance Matrix: (Units=1/GPa)
#
#
# Indices 1 2 3 4 5 6 
#
# 1 0.006151 -0.003585 -0.002027 0.000000 0.000000 0.000000
# 2 -0.003585 0.008200 0.002085 0.000000 0.000000 0.000000
# 3 -0.002027 0.002085 0.018663 0.000000 0.000000 0.000000
# 4 0.000000 0.000000 0.000000 0.074068 0.000000 0.000000
# 5 0.000000 0.000000 0.000000 0.000000 -0.031911 0.000000
# 6 0.000000 0.000000 0.000000 0.000000 0.000000 -0.002673
#
#
# Mechanical properties :
#
#
# Convention : Reuss Voigt Hill
#
# Bulk Modulus (GPa) = 38.52158 71.08777 54.80467
# Shear Modulus (GPa) = 56.68464 -55.48467 0.59998
#
# Velocity S-wave (km/s) = 5.04640 -4.99270 0.51918
# Velocity P-wave (km/s) = 7.15969 1.13981 4.99810
#
# Compressibility (1/GPa) = 0.02595948
#
# Stress axis : x y z
#
# Youngs Moduli (GPa) = 162.57630 121.94738 53.58094
#
# Poissons Ratio (x) = 0.43720 0.10862
# Poissons Ratio (y) = 0.58285 -0.11170
# Poissons Ratio (z) = 0.32957 -0.25423
#
# Static dielectric constant tensor:
#      x y z
#    x 1.849810 0.000000 0.000000 
#    y 0.000000 1.834430 0.000000 
#    z 0.000000 0.000000 1.821660 
# 
# From -- ./inp_files/11208.got.cif
#   From: 2010.05.17/outbox.cif.g08.bks.cpg/sg71_6_cif.got.tgz:11208.got - 2010.06.03 16:22:01.
