data_PCOD9521780
_publ_section_title
;
Structure prediction by ZEFSAII (Michael W. Deem and Ramdas Pophale) SiO2 
 PCOD9521780
Probable space group: I M M M
;
_chemical_formula_sum "Si O2"
_cell_formula_units_Z 104
_cell_length_a 22.899755
_cell_length_b 26.563080
_cell_length_c 7.603191
_cell_angle_alpha 90.000000
_cell_angle_beta 90.000000
_cell_angle_gamma 90.000000
_cell_volume 4624.930030
_symmetry_space_group_name_H-M "I M M M"
_symmetry_group_IT_number 71
_symmetry_cell_setting 'orthorhombic'
loop_
_space_group_symop_operation_xyz
x,y,z
-x,-y,z
x,-y,-z
-x,y,-z
-x,-y,-z
x,y,-z
-x,y,z
x,-y,z
1/2+x,1/2+y,1/2+z
1/2-x,1/2-y,1/2+z
1/2+x,1/2-y,1/2-z
1/2-x,1/2+y,1/2-z
1/2-x,1/2-y,1/2-z
1/2+x,1/2+y,1/2-z
1/2-x,1/2+y,1/2+z
1/2+x,1/2-y,1/2+z
loop_
_atom_site_type_symbol
_atom_site_label
_atom_site_fract_x
_atom_site_fract_y
_atom_site_fract_z
Si Si1 0.000000 0.057651 0.285006
Si Si2 0.899414 0.133473 0.285122
Si Si3 0.912707 0.500000 0.703574
Si Si4 0.565799 0.254057 0.215276
Si Si5 0.836890 0.322541 0.695331
Si Si6 0.270424 0.608438 0.208341
Si Si7 0.062646 0.389683 0.797113
Si Si8 0.276940 0.000000 0.714938
O O1 0.056896 0.089200 0.230131
O O2 0.000000 0.056967 0.500000
O O3 0.000000 0.000000 0.225721
O O4 0.899142 0.133533 0.500000
O O5 0.923367 0.188151 0.234732
O O6 0.833485 0.124835 0.222256
O O7 0.929584 0.500000 0.500000
O O8 0.935080 0.550533 0.790646
O O9 0.843166 0.500000 0.721983
O O10 0.500000 0.239403 0.273028
O O11 0.621346 0.220753 0.277066
O O12 0.565928 0.250326 0.000000
O O13 0.821400 0.304899 0.500000
O O14 0.778525 0.348137 0.769470
O O15 0.883144 0.368209 0.692913
O O16 0.251362 0.553000 0.274639
O O17 0.277035 0.601738 0.000000
O O18 0.000000 0.372943 0.726033
O O19 0.068278 0.373752 0.000000
O O20 0.277522 0.000000 0.500000
#
# Coordination Sequence:
#
# PCOD9521780 Si02
#       8
#     8  16   8  16  16  16  16   8
#     4   9  16  26  48  84 121 147 179 228 277 338
#     4   9  17  31  52  80 114 150 184 224 283 350
#     4  12  23  35  56  81 107 145 190 237 284 337
#     4   9  17  32  53  77 108 146 185 234 294 346
#     4  11  22  35  54  79 108 146 198 245 281 330
#     4  10  21  35  54  80 112 149 188 228 283 347
#     4  11  23  38  55  77 108 146 188 237 297 348
#     4  10  20  35  53  73 112 159 189 225 284 344
#
# _framework density 22.486825
#
# number of rings (size 3 to 8) (size 9 to 14) (size 15 to 20)
#    0.000    1.923    2.308    2.308    1.077    3.385 
#    0.000    0.000    0.000    0.923    0.000    0.538 
#    0.000    0.615    0.000    0.000    0.000    0.000 
#
# Total GULP energy -290334.012128 kJ/mol
# GULP energy per Si atom -5583.346387 kJ/mol
# Density = 2.243564 g / cm^3
# Si number density = 22.486825 Si / 1000 Ang^3
#
#
#
# Elastic Constant Matrix: (Units=GPa)
#
#
# Indices 1 2 3 4 5 6 
#
# 1 188.1854 82.0194 -0.6688 0.0000 0.0000 0.0000
# 2 82.0194 174.3915 -4.4371 0.0000 0.0000 0.0000
# 3 -0.6688 -4.4371 53.2390 0.0000 0.0000 0.0000
# 4 0.0000 0.0000 0.0000 4.1898 0.0000 0.0000
# 5 0.0000 0.0000 0.0000 0.0000 98.6466 0.0000
# 6 0.0000 0.0000 0.0000 0.0000 0.0000 -21.2464
#
#
#
# Elastic Compliance Matrix: (Units=1/GPa)
#
#
# Indices 1 2 3 4 5 6 
#
# 1 0.006686 -0.003149 -0.000178 0.000000 0.000000 0.000000
# 2 -0.003149 0.007230 0.000563 0.000000 0.000000 0.000000
# 3 -0.000178 0.000563 0.018828 0.000000 0.000000 0.000000
# 4 0.000000 0.000000 0.000000 0.238674 0.000000 0.000000
# 5 0.000000 0.000000 0.000000 0.000000 0.010137 0.000000
# 6 0.000000 0.000000 0.000000 0.000000 0.000000 -0.047067
#
#
# Mechanical properties :
#
#
# Convention : Reuss Voigt Hill
#
# Bulk Modulus (GPa) = 36.74539 63.29366 50.01953
# Shear Modulus (GPa) = 20.07325 38.91150 29.49237
#
# Velocity S-wave (km/s) = 2.99100 4.16434 3.62545
# Velocity P-wave (km/s) = 5.32019 7.16452 6.31010
#
# Compressibility (1/GPa) = 0.02721430
#
# Stress axis : x y z
#
# Youngs Moduli (GPa) = 149.57233 138.32101 53.11271
#
# Poissons Ratio (x) = 0.43557 0.00948
# Poissons Ratio (y) = 0.47100 -0.02990
# Poissons Ratio (z) = 0.02669 -0.07787
#
# Static dielectric constant tensor:
#      x y z
#    x 1.804210 0.000000 0.000000 
#    y 0.000000 1.826430 0.000000 
#    z 0.000000 0.000000 1.861480 
# 
# From -- ./inp_files/11206.got.cif
#   From: 2010.05.17/outbox.cif.g08.bks.cpg/sg71_6_cif.got.tgz:11206.got - 2010.06.03 16:22:01.
