data_PCOD9521882
_publ_section_title
;
Structure prediction by ZEFSAII (Michael W. Deem and Ramdas Pophale) SiO2 
 PCOD9521882
Probable space group: I M M M
;
_chemical_formula_sum "Si O2"
_cell_formula_units_Z 104
_cell_length_a 28.295931
_cell_length_b 9.133707
_cell_length_c 21.447172
_cell_angle_alpha 90.000000
_cell_angle_beta 90.000000
_cell_angle_gamma 90.000000
_cell_volume 5542.951751
_symmetry_space_group_name_H-M "I M M M"
_symmetry_group_IT_number 71
_symmetry_cell_setting 'orthorhombic'
loop_
_space_group_symop_operation_xyz
x,y,z
-x,-y,z
x,-y,-z
-x,y,-z
-x,-y,-z
x,y,-z
-x,y,z
x,-y,z
1/2+x,1/2+y,1/2+z
1/2-x,1/2-y,1/2+z
1/2+x,1/2-y,1/2-z
1/2-x,1/2+y,1/2-z
1/2-x,1/2-y,1/2-z
1/2+x,1/2+y,1/2-z
1/2-x,1/2+y,1/2+z
1/2+x,1/2-y,1/2+z
loop_
_atom_site_type_symbol
_atom_site_label
_atom_site_fract_x
_atom_site_fract_y
_atom_site_fract_z
Si Si1 0.732476 0.671252 0.569000
Si Si2 0.299210 0.673215 0.161277
Si Si3 0.552884 0.824627 0.171980
Si Si4 0.625708 0.328519 0.607333
Si Si5 0.888887 0.174044 0.571158
Si Si6 0.359855 0.174935 0.738420
Si Si7 0.445466 0.321592 0.500000
O O1 0.748053 0.723703 0.500000
O O2 0.746039 0.500000 0.574949
O O3 0.754228 0.759617 0.626442
O O4 0.675864 0.678442 0.572173
O O5 0.293980 0.500000 0.171535
O O6 0.341519 0.699242 0.111265
O O7 0.316239 0.751570 0.224486
O O8 0.500000 0.778278 0.189526
O O9 0.569227 0.754294 0.107240
O O10 0.592807 0.786002 0.222450
O O11 0.553510 0.000000 0.166105
O O12 0.617381 0.500000 0.623059
O O13 0.632257 0.236629 0.669803
O O14 0.584025 0.277208 0.561373
O O15 0.883406 0.222867 0.500000
O O16 0.897368 0.000000 0.571655
O O17 0.354020 0.000000 0.738334
O O18 0.444853 0.500000 0.500000
O O19 0.500000 0.273953 0.500000
#
# Coordination Sequence:
#
# PCOD9521882 Si02
#       7
#    16  16  16  16  16  16   8
#     4  10  20  35  56  81 112 149 184 222 272 330
#     4  10  20  35  55  80 109 145 187 230 273 321
#     4   9  19  35  52  71  99 136 177 220 266 318
#     4  10  20  37  59  84 113 144 179 223 275 328
#     4   9  18  32  49  72 104 137 172 219 270 315
#     4  10  21  37  56  79 109 145 184 227 276 333
#     4   9  18  36  63  91 117 147 187 233 282 341
#
# _framework density 18.762566
#
# number of rings (size 3 to 8) (size 9 to 14) (size 15 to 20)
#    0.000    2.385    0.769    1.385    0.000    4.923 
#    0.000    1.923    0.000    0.462    0.000    0.000 
#    0.000    0.000    0.000    0.000    0.000    0.000 
#
# Total GULP energy -290149.704454 kJ/mol
# GULP energy per Si atom -5579.802009 kJ/mol
# Density = 1.871986 g / cm^3
# Si number density = 18.762566 Si / 1000 Ang^3
#
#
#
# Elastic Constant Matrix: (Units=GPa)
#
#
# Indices 1 2 3 4 5 6 
#
# 1 82.7187 32.0577 33.8674 0.0000 0.0000 0.0000
# 2 32.0577 36.3246 46.6765 0.0000 0.0000 0.0000
# 3 33.8674 46.6765 137.8529 0.0000 0.0000 0.0000
# 4 0.0000 0.0000 0.0000 23.9821 0.0000 0.0000
# 5 0.0000 0.0000 0.0000 0.0000 17.8090 0.0000
# 6 0.0000 0.0000 0.0000 0.0000 0.0000 19.4302
#
#
#
# Elastic Compliance Matrix: (Units=1/GPa)
#
#
# Indices 1 2 3 4 5 6 
#
# 1 0.018609 -0.018673 0.001751 0.000000 0.000000 0.000000
# 2 -0.018673 0.067469 -0.018257 0.000000 0.000000 0.000000
# 3 0.001751 -0.018257 0.013006 0.000000 0.000000 0.000000
# 4 0.000000 0.000000 0.000000 0.041698 0.000000 0.000000
# 5 0.000000 0.000000 0.000000 0.000000 0.056151 0.000000
# 6 0.000000 0.000000 0.000000 0.000000 0.000000 0.051466
#
#
# Mechanical properties :
#
#
# Convention : Reuss Voigt Hill
#
# Bulk Modulus (GPa) = 34.81239 53.56660 44.18950
# Shear Modulus (GPa) = 15.22839 21.86389 18.54614
#
# Velocity S-wave (km/s) = 2.85202 3.41734 3.14740
# Velocity P-wave (km/s) = 5.42584 6.64700 6.06723
#
# Compressibility (1/GPa) = 0.02872540
#
# Stress axis : x y z
#
# Youngs Moduli (GPa) = 53.73741 14.82152 76.88811
#
# Poissons Ratio (x) = 0.27676 -0.13461
# Poissons Ratio (y) = 1.00342 1.40378
# Poissons Ratio (z) = -0.09408 0.27060
#
# Static dielectric constant tensor:
#      x y z
#    x 1.663360 0.000000 0.000000 
#    y 0.000000 1.631910 0.000000 
#    z 0.000000 0.000000 1.642600 
# 
# From -- ./inp_files/11121.got.cif
#   From: 2010.05.17/outbox.cif.g08.bks.cpg/sg71_6_cif.got.tgz:11121.got - 2010.06.03 16:22:01.
