data_PCOD9521997
_publ_section_title
;
Structure prediction by ZEFSAII (Michael W. Deem and Ramdas Pophale) SiO2 
 PCOD9521997
Probable space group: I M M M
;
_chemical_formula_sum "Si O2"
_cell_formula_units_Z 82
_cell_length_a 7.492372
_cell_length_b 23.711357
_cell_length_c 21.416401
_cell_angle_alpha 90.000000
_cell_angle_beta 90.000000
_cell_angle_gamma 90.000000
_cell_volume 3804.715884
_symmetry_space_group_name_H-M "I M M M"
_symmetry_group_IT_number 71
_symmetry_cell_setting 'orthorhombic'
loop_
_space_group_symop_operation_xyz
x,y,z
-x,-y,z
x,-y,-z
-x,y,-z
-x,-y,-z
x,y,-z
-x,y,z
x,-y,z
1/2+x,1/2+y,1/2+z
1/2-x,1/2-y,1/2+z
1/2+x,1/2-y,1/2-z
1/2-x,1/2+y,1/2-z
1/2-x,1/2-y,1/2-z
1/2+x,1/2+y,1/2-z
1/2-x,1/2+y,1/2+z
1/2+x,1/2-y,1/2+z
loop_
_atom_site_type_symbol
_atom_site_label
_atom_site_fract_x
_atom_site_fract_y
_atom_site_fract_z
Si Si1 0.500000 0.000000 0.000000
Si Si2 0.214504 0.816030 0.254114
Si Si3 0.708831 0.500000 0.609188
Si Si4 0.713885 0.375936 0.368372
Si Si5 0.211182 0.120899 0.377998
Si Si6 0.781558 0.825715 0.000000
Si Si7 0.218669 0.000000 0.426879
Si Si8 0.712979 0.804800 0.500000
O O1 0.344104 0.000000 0.053051
O O2 0.250000 0.750000 0.250000
O O3 0.286241 0.841835 0.189861
O O4 0.282877 0.847337 0.316463
O O5 0.000000 0.823339 0.254463
O O6 0.500000 0.500000 0.588697
O O7 0.739906 0.558216 0.644472
O O8 0.500000 0.366266 0.371077
O O9 0.779917 0.357032 0.436821
O O10 0.232488 0.160968 0.438341
O O11 0.000000 0.113599 0.368128
O O12 0.280056 0.058174 0.394423
O O13 0.724323 0.760246 0.000000
O O14 0.000000 0.827058 0.000000
O O15 0.270739 0.000000 0.500000
O O16 0.000000 0.000000 0.426319
O O17 0.500000 0.802277 0.500000
#
# Coordination Sequence:
#
# PCOD9521997 Si02
#       8
#     2  16   8  16  16   8   8   8
#     4  12  22  36  60  94 128 152 210 246 312 384
#     4  10  21  37  58  85 117 155 197 244 294 361
#     4  10  21  38  63  88 121 165 201 258 316 365
#     4   9  18  35  58  83 112 150 200 244 300 362
#     4  10  20  35  57  82 112 148 192 241 291 347
#     4   9  17  29  50  77 105 143 187 235 281 346
#     4   9  16  31  55  80 107 143 181 233 288 333
#     4  11  21  33  54  81 113 149 191 238 292 352
#
# _framework density 21.552199999999999
#
# number of rings (size 3 to 8) (size 9 to 14) (size 15 to 20)
#    0.000    2.244    0.976    2.195    0.000    4.683 
#    1.756    4.878   12.878    0.000    0.000    0.000 
#    0.000    0.000    0.000    0.000    0.000    0.000 
#
# Total GULP energy -228672.273994 kJ/mol
# GULP energy per Si atom -5577.372536 kJ/mol
# Density = 2.150315 g / cm^3
# Si number density = 21.552200 Si / 1000 Ang^3
#
#
#
# Elastic Constant Matrix: (Units=GPa)
#
#
# Indices 1 2 3 4 5 6 
#
# 1 58.7050 11.9313 1.1685 0.0000 0.0000 0.0000
# 2 11.9313 210.5871 122.5300 0.0000 0.0000 0.0000
# 3 1.1685 122.5300 201.2112 0.0000 0.0000 0.0000
# 4 0.0000 0.0000 0.0000 23.8547 0.0000 0.0000
# 5 0.0000 0.0000 0.0000 0.0000 -15.0386 0.0000
# 6 0.0000 0.0000 0.0000 0.0000 0.0000 13.9218
#
#
#
# Elastic Compliance Matrix: (Units=1/GPa)
#
#
# Indices 1 2 3 4 5 6 
#
# 1 0.017309 -0.001428 0.000769 0.000000 0.000000 0.000000
# 2 -0.001428 0.007472 -0.004542 0.000000 0.000000 0.000000
# 3 0.000769 -0.004542 0.007731 0.000000 0.000000 0.000000
# 4 0.000000 0.000000 0.000000 0.041921 0.000000 0.000000
# 5 0.000000 0.000000 0.000000 0.000000 -0.066496 0.000000
# 6 0.000000 0.000000 0.000000 0.000000 0.000000 0.071830
#
#
# Mechanical properties :
#
#
# Convention : Reuss Voigt Hill
#
# Bulk Modulus (GPa) = 45.22679 82.41813 63.82246
# Shear Modulus (GPa) = 51.26092 26.87247 39.06669
#
# Velocity S-wave (km/s) = 4.88223 3.53491 4.26215
# Velocity P-wave (km/s) = 7.26718 7.41519 7.34156
#
# Compressibility (1/GPa) = 0.02211079
#
# Stress axis : x y z
#
# Youngs Moduli (GPa) = 57.77244 133.82636 129.34262
#
# Poissons Ratio (x) = 0.19114 -0.09950
# Poissons Ratio (y) = 0.08252 0.58749
# Poissons Ratio (z) = -0.04444 0.60785
#
# Static dielectric constant tensor:
#      x y z
#    x 1.830300 0.000000 0.000000 
#    y 0.000000 1.793200 0.000000 
#    z 0.000000 0.000000 1.742600 
# 
# From -- ./inp_files/50478.got.cif
#   From: 2010.05.17/outbox.cif.g08.bks.cpg/sg71_26_cif.got.tgz:50478.got - 2010.06.03 16:22:01.
