data_PCOD9521645
_publ_section_title
;
Structure prediction by ZEFSAII (Michael W. Deem and Ramdas Pophale) SiO2 
 PCOD9521645
Probable space group: I M M M
;
_chemical_formula_sum "Si O2"
_cell_formula_units_Z 104
_cell_length_a 12.199940
_cell_length_b 25.983997
_cell_length_c 16.160939
_cell_angle_alpha 90.000000
_cell_angle_beta 90.000000
_cell_angle_gamma 90.000000
_cell_volume 5123.069448
_symmetry_space_group_name_H-M "I M M M"
_symmetry_group_IT_number 71
_symmetry_cell_setting 'orthorhombic'
loop_
_space_group_symop_operation_xyz
x,y,z
-x,-y,z
x,-y,-z
-x,y,-z
-x,-y,-z
x,y,-z
-x,y,z
x,-y,z
1/2+x,1/2+y,1/2+z
1/2-x,1/2-y,1/2+z
1/2+x,1/2-y,1/2-z
1/2-x,1/2+y,1/2-z
1/2-x,1/2-y,1/2-z
1/2+x,1/2+y,1/2-z
1/2-x,1/2+y,1/2+z
1/2+x,1/2-y,1/2+z
loop_
_atom_site_type_symbol
_atom_site_label
_atom_site_fract_x
_atom_site_fract_y
_atom_site_fract_z
Si Si1 0.738129 0.058534 0.857409
Si Si2 0.226214 0.257799 0.097212
Si Si3 0.241464 0.555807 0.159460
Si Si4 0.874871 0.843760 0.665267
Si Si5 0.000000 0.698660 0.902823
Si Si6 0.000000 0.423926 0.903669
Si Si7 0.000000 0.559279 0.598837
Si Si8 0.874471 0.847117 0.134842
O O1 0.752471 0.055382 0.758681
O O2 0.616170 0.080969 0.872401
O O3 0.828616 0.097402 0.891472
O O4 0.743380 0.000000 0.890835
O O5 0.322450 0.289323 0.140091
O O6 0.209669 0.197010 0.106676
O O7 0.111835 0.279812 0.133749
O O8 0.233152 0.270326 0.000000
O O9 0.283810 0.500000 0.128511
O O10 0.303353 0.607837 0.131619
O O11 0.113055 0.558507 0.137268
O O12 0.874788 0.846395 0.765116
O O13 0.000000 0.848158 0.636745
O O14 0.000000 0.637716 0.898765
O O15 0.000000 0.714047 0.000000
O O16 0.000000 0.438871 0.000000
O O17 0.000000 0.500000 0.630073
O O18 0.000000 0.558949 0.500000
O O19 0.000000 0.837559 0.106742
#
# Coordination Sequence:
#
# PCOD9521645 Si02
#       8
#    16  16  16  16   8   8   8  16
#     4   9  19  36  56  81 113 149 186 223 273 331
#     4  11  21  38  60  81 109 144 184 227 277 333
#     4  10  20  34  55  82 113 147 184 229 276 327
#     4  10  22  39  57  81 113 148 185 225 274 331
#     4   9  18  32  55  80 102 141 181 218 274 326
#     4  11  20  33  54  83 113 141 184 236 280 320
#     4   9  17  32  54  76 106 149 187 220 264 323
#     4  10  21  37  59  86 112 142 184 231 278 329
#
# _framework density 20.300329000000001
#
# number of rings (size 3 to 8) (size 9 to 14) (size 15 to 20)
#    0.000    2.077    2.308    1.154    0.000    3.385 
#    1.385    3.077    0.000    0.000    0.000    5.385 
#    0.000    0.000    0.000    0.000    0.000    0.000 
#
# Total GULP energy -290035.711369 kJ/mol
# GULP energy per Si atom -5577.609834 kJ/mol
# Density = 2.025412 g / cm^3
# Si number density = 20.300329 Si / 1000 Ang^3
#
#
#
# Elastic Constant Matrix: (Units=GPa)
#
#
# Indices 1 2 3 4 5 6 
#
# 1 111.0103 54.5667 7.8303 0.0000 0.0000 0.0000
# 2 54.5667 109.2595 9.5007 0.0000 0.0000 0.0000
# 3 7.8303 9.5007 21.1354 0.0005 0.0000 0.0000
# 4 0.0000 0.0000 0.0005 -165.1107 -0.0001 0.0000
# 5 0.0000 0.0000 0.0000 -0.0001 -0.9297 0.0000
# 6 0.0000 0.0000 0.0000 0.0000 0.0000 3.7175
#
#
#
# Elastic Compliance Matrix: (Units=1/GPa)
#
#
# Indices 1 2 3 4 5 6 
#
# 1 0.012006 -0.005838 -0.001824 0.000000 0.000000 0.000000
# 2 -0.005838 0.012363 -0.003395 0.000000 0.000000 0.000000
# 3 -0.001824 -0.003395 0.049516 0.000000 -0.000001 0.000000
# 4 0.000000 0.000000 0.000000 -0.006057 0.000000 0.000000
# 5 0.000000 0.000000 -0.000001 0.000000 -1.075598 -0.000003
# 6 0.000000 0.000000 0.000000 0.000000 -0.000003 0.268996
#
#
# Mechanical properties :
#
#
# Convention : Reuss Voigt Hill
#
# Bulk Modulus (GPa) = 19.31531 42.80008 31.05769
# Shear Modulus (GPa) = -7.14896 -21.16407 -14.15651
#
# Velocity S-wave (km/s) = -1.87863 -3.23235 -2.64361
# Velocity P-wave (km/s) = 2.19768 2.68298 2.45236
#
# Compressibility (1/GPa) = 0.05177241
#
# Stress axis : x y z
#
# Youngs Moduli (GPa) = 83.28976 80.88563 20.19564
#
# Poissons Ratio (x) = 0.47218 0.03684
# Poissons Ratio (y) = 0.48621 0.06856
# Poissons Ratio (z) = 0.15192 0.27458
#
# Static dielectric constant tensor:
#      x y z
#    x 1.724880 0.000000 0.000000 
#    y 0.000000 1.757300 0.000000 
#    z 0.000000 0.000000 1.709390 
# 
# From -- ./inp_files/43835.got.cif
#   From: 2010.05.17/outbox.cif.g08.bks.cpg/sg71_22_cif.got.tgz:43835.got - 2010.06.03 16:22:01.
