data_PCOD9521958
_publ_section_title
;
Structure prediction by ZEFSAII (Michael W. Deem and Ramdas Pophale) SiO2 
 PCOD9521958
Probable space group: I M M M
;
_chemical_formula_sum "Si O2"
_cell_formula_units_Z 104
_cell_length_a 22.432808
_cell_length_b 28.933618
_cell_length_c 8.880648
_cell_angle_alpha 90.000000
_cell_angle_beta 90.000000
_cell_angle_gamma 90.000000
_cell_volume 5764.093793
_symmetry_space_group_name_H-M "I M M M"
_symmetry_group_IT_number 71
_symmetry_cell_setting 'orthorhombic'
loop_
_space_group_symop_operation_xyz
x,y,z
-x,-y,z
x,-y,-z
-x,y,-z
-x,-y,-z
x,y,-z
-x,y,z
x,-y,z
1/2+x,1/2+y,1/2+z
1/2-x,1/2-y,1/2+z
1/2+x,1/2-y,1/2-z
1/2-x,1/2+y,1/2-z
1/2-x,1/2-y,1/2-z
1/2+x,1/2+y,1/2-z
1/2-x,1/2+y,1/2+z
1/2+x,1/2-y,1/2+z
loop_
_atom_site_type_symbol
_atom_site_label
_atom_site_fract_x
_atom_site_fract_y
_atom_site_fract_z
Si Si1 0.145901 0.097077 0.319962
Si Si2 0.860116 0.000000 0.170712
Si Si3 0.000000 0.555251 0.181665
Si Si4 0.569456 0.320675 0.682201
Si Si5 0.070298 0.719673 0.169464
Si Si6 0.783995 0.500000 0.327860
Si Si7 0.902923 0.375395 0.322219
Si Si8 0.714340 0.903969 0.678905
O O1 0.141410 0.095762 0.500000
O O2 0.124847 0.047623 0.254502
O O3 0.107984 0.138580 0.252078
O O4 0.216244 0.103887 0.282142
O O5 0.787904 0.000000 0.163768
O O6 0.883182 0.000000 0.000000
O O7 0.942959 0.584597 0.242926
O O8 0.000000 0.500000 0.223307
O O9 0.000000 0.557541 0.000000
O O10 0.571868 0.322650 0.500000
O O11 0.500000 0.325969 0.727311
O O12 0.593356 0.269437 0.725156
O O13 0.075521 0.675302 0.273568
O O14 0.000000 0.728359 0.153365
O O15 0.093783 0.709497 0.000000
O O16 0.806867 0.500000 0.500000
O O17 0.801075 0.544532 0.233797
O O18 0.907239 0.382370 0.500000
O O19 0.834614 0.375125 0.266954
O O20 0.707517 0.899139 0.500000
#
# Coordination Sequence:
#
# PCOD9521958 Si02
#       8
#    16   8   8  16  16   8  16  16
#     4  10  20  35  56  84 115 148 186 232 277 326
#     4   9  17  31  54  78 108 148 183 219 268 327
#     4  11  25  43  61  81 113 157 195 230 284 343
#     4   9  19  36  60  87 112 144 184 226 277 337
#     4   9  18  36  60  81 106 144 186 226 277 340
#     4   9  17  31  51  77 103 135 183 232 270 311
#     4  12  24  37  57  85 114 144 187 239 285 326
#     4  10  21  36  54  76 109 151 189 223 274 339
#
# _framework density 18.042732999999998
#
# number of rings (size 3 to 8) (size 9 to 14) (size 15 to 20)
#    0.000    2.077    0.769    3.923    1.077    5.231 
#    0.000    2.692    0.000    2.308    0.000    0.000 
#    0.000    0.000    0.000    0.000    0.000    0.000 
#
# Total GULP energy -289852.724704 kJ/mol
# GULP energy per Si atom -5574.090860 kJ/mol
# Density = 1.800167 g / cm^3
# Si number density = 18.042733 Si / 1000 Ang^3
#
#
#
# Elastic Constant Matrix: (Units=GPa)
#
#
# Indices 1 2 3 4 5 6 
#
# 1 62.2935 53.9907 38.5608 0.0000 0.0000 0.0000
# 2 53.9907 146.3127 57.5052 0.0000 0.0000 0.0000
# 3 38.5608 57.5052 83.2044 0.0000 0.0000 0.0000
# 4 0.0000 0.0000 0.0000 15.5028 0.0000 0.0000
# 5 0.0000 0.0000 0.0000 0.0000 25.6119 0.0000
# 6 0.0000 0.0000 0.0000 0.0000 0.0000 13.6955
#
#
#
# Elastic Compliance Matrix: (Units=1/GPa)
#
#
# Indices 1 2 3 4 5 6 
#
# 1 0.026732 -0.006858 -0.007649 0.000000 0.000000 0.000000
# 2 -0.006858 0.011143 -0.004523 0.000000 0.000000 0.000000
# 3 -0.007649 -0.004523 0.018689 0.000000 0.000000 0.000000
# 4 0.000000 0.000000 0.000000 0.064504 0.000000 0.000000
# 5 0.000000 0.000000 0.000000 0.000000 0.039044 0.000000
# 6 0.000000 0.000000 0.000000 0.000000 0.000000 0.073017
#
#
# Mechanical properties :
#
#
# Convention : Reuss Voigt Hill
#
# Bulk Modulus (GPa) = 54.04129 65.76934 59.90531
# Shear Modulus (GPa) = 18.02726 20.41231 19.21978
#
# Velocity S-wave (km/s) = 3.16435 3.36718 3.26734
# Velocity P-wave (km/s) = 6.58541 7.18667 6.89260
#
# Compressibility (1/GPa) = 0.01850437
#
# Stress axis : x y z
#
# Youngs Moduli (GPa) = 37.40862 89.74245 53.50614
#
# Poissons Ratio (x) = 0.61545 0.40927
# Poissons Ratio (y) = 0.25655 0.24201
# Poissons Ratio (z) = 0.28614 0.40590
#
# Static dielectric constant tensor:
#      x y z
#    x 1.623330 0.000000 0.000000 
#    y 0.000000 1.530760 0.000000 
#    z 0.000000 0.000000 1.611370 
# 
# From -- ./inp_files/11174.got.cif
#   From: 2010.05.17/outbox.cif.g08.bks.cpg/sg71_6_cif.got.tgz:11174.got - 2010.06.03 16:22:01.
