data_PCOD9521525
_publ_section_title
;
Structure prediction by ZEFSAII (Michael W. Deem and Ramdas Pophale) SiO2 
 PCOD9521525
Probable space group: I M M M
;
_chemical_formula_sum "Si O2"
_cell_formula_units_Z 80
_cell_length_a 16.538500
_cell_length_b 27.256996
_cell_length_c 9.113698
_cell_angle_alpha 90.000000
_cell_angle_beta 90.000000
_cell_angle_gamma 90.000000
_cell_volume 4108.362357
_symmetry_space_group_name_H-M "I M M M"
_symmetry_group_IT_number 71
_symmetry_cell_setting 'orthorhombic'
loop_
_space_group_symop_operation_xyz
x,y,z
-x,-y,z
x,-y,-z
-x,y,-z
-x,-y,-z
x,y,-z
-x,y,z
x,-y,z
1/2+x,1/2+y,1/2+z
1/2-x,1/2-y,1/2+z
1/2+x,1/2-y,1/2-z
1/2-x,1/2+y,1/2-z
1/2-x,1/2-y,1/2-z
1/2+x,1/2+y,1/2-z
1/2-x,1/2+y,1/2+z
1/2+x,1/2-y,1/2+z
loop_
_atom_site_type_symbol
_atom_site_label
_atom_site_fract_x
_atom_site_fract_y
_atom_site_fract_z
Si Si1 0.595476 0.947301 0.821761
Si Si2 0.098582 0.945320 0.829628
Si Si3 0.902848 0.658855 0.331597
Si Si4 0.836669 0.247153 0.825693
Si Si5 0.402468 0.347895 0.166755
O O1 0.500000 0.948252 0.782548
O O2 0.628986 0.894219 0.776393
O O3 0.630793 0.000000 0.773645
O O4 0.598743 0.946396 0.000000
O O5 0.126628 0.899587 0.733522
O O6 0.000000 0.945080 0.826731
O O7 0.124108 0.000000 0.781607
O O8 0.122390 0.938865 0.000000
O O9 0.874276 0.667474 0.500000
O O10 0.882078 0.704361 0.230420
O O11 0.000000 0.654635 0.338899
O O12 0.750000 0.250000 0.750000
O O13 0.877972 0.197754 0.766397
O O14 0.831404 0.246192 0.000000
O O15 0.500000 0.349812 0.163256
O O16 0.373483 0.340770 0.000000
#
# Coordination Sequence:
#
# PCOD9521525 Si02
#       5
#    16  16  16  16  16
#     4   7  10  19  40  72 105 133 161 194 233 279
#     4   8  14  26  46  74 107 139 170 205 246 294
#     4   9  17  31  53  80 108 135 166 206 248 294
#     4  12  25  39  54  71  97 133 173 217 263 312
#     4  10  20  34  54  80 108 136 169 210 255 305
#
# _framework density 19.472477999999999
#
# number of rings (size 3 to 8) (size 9 to 14) (size 15 to 20)
#    0.000    2.800    0.000    5.400    0.000    4.400 
#    0.000    2.000    0.000    1.800    0.000    5.600 
#    0.000    0.000    0.000    0.000    0.000    0.000 
#
# Total GULP energy -222905.020591 kJ/mol
# GULP energy per Si atom -5572.625515 kJ/mol
# Density = 1.942816 g / cm^3
# Si number density = 19.472478 Si / 1000 Ang^3
#
#
#
# Elastic Constant Matrix: (Units=GPa)
#
#
# Indices 1 2 3 4 5 6 
#
# 1 9.0503 16.7937 13.4970 0.0001 -0.0002 0.0000
# 2 16.7937 209.0586 93.9879 0.0006 0.0001 -0.0001
# 3 13.4970 93.9879 121.7046 0.0046 0.0009 0.0001
# 4 0.0001 0.0006 0.0046 20.9957 0.0005 0.0000
# 5 -0.0002 0.0001 0.0009 0.0005 17.1496 -0.0002
# 6 0.0000 -0.0001 0.0001 0.0000 -0.0002 -21.2864
#
#
#
# Elastic Compliance Matrix: (Units=1/GPa)
#
#
# Indices 1 2 3 4 5 6 
#
# 1 0.137814 -0.006433 -0.010316 0.000002 0.000002 0.000000
# 2 -0.006433 0.007628 -0.005177 0.000001 0.000000 0.000000
# 3 -0.010316 -0.005177 0.013359 -0.000003 -0.000001 0.000000
# 4 0.000002 0.000001 -0.000003 0.047629 -0.000001 0.000000
# 5 0.000002 0.000000 -0.000001 -0.000001 0.058311 0.000000
# 6 0.000000 0.000000 0.000000 0.000000 0.000000 -0.046978
#
#
# Mechanical properties :
#
#
# Convention : Reuss Voigt Hill
#
# Bulk Modulus (GPa) = 8.69949 65.37452 37.03701
# Shear Modulus (GPa) = 16.67058 17.74075 17.20567
#
# Velocity S-wave (km/s) = 2.92911 3.02167 2.97575
# Velocity P-wave (km/s) = 3.98959 6.76902 5.55592
#
# Compressibility (1/GPa) = 0.11494921
#
# Stress axis : x y z
#
# Youngs Moduli (GPa) = 7.25614 131.10259 74.85750
#
# Poissons Ratio (x) = 0.84337 0.77221
# Poissons Ratio (y) = 0.04668 0.38755
# Poissons Ratio (z) = 0.07485 0.67873
#
# Static dielectric constant tensor:
#      x y z
#    x 1.717030 0.000000 0.000000 
#    y 0.000000 1.748700 0.000000 
#    z 0.000000 0.000000 1.659800 
# 
# From -- ./inp_files/8379.got.cif
#   From: 2010.05.17/outbox.cif.g08.bks.cpg/sg71_5_cif.got.tgz:8379.got - 2010.06.03 16:22:01.
