data_PCOD9521735
_publ_section_title
;
Structure prediction by ZEFSAII (Michael W. Deem and Ramdas Pophale) SiO2 
 PCOD9521735
Probable space group: I M M M
;
_chemical_formula_sum "Si O2"
_cell_formula_units_Z 104
_cell_length_a 17.637409
_cell_length_b 16.706288
_cell_length_c 18.956212
_cell_angle_alpha 90.000000
_cell_angle_beta 90.000000
_cell_angle_gamma 90.000000
_cell_volume 5585.554671
_symmetry_space_group_name_H-M "I M M M"
_symmetry_group_IT_number 71
_symmetry_cell_setting 'orthorhombic'
loop_
_space_group_symop_operation_xyz
x,y,z
-x,-y,z
x,-y,-z
-x,y,-z
-x,-y,-z
x,y,-z
-x,y,z
x,-y,z
1/2+x,1/2+y,1/2+z
1/2-x,1/2-y,1/2+z
1/2+x,1/2-y,1/2-z
1/2-x,1/2+y,1/2-z
1/2-x,1/2-y,1/2-z
1/2+x,1/2+y,1/2-z
1/2-x,1/2+y,1/2+z
1/2+x,1/2-y,1/2+z
loop_
_atom_site_type_symbol
_atom_site_label
_atom_site_fract_x
_atom_site_fract_y
_atom_site_fract_z
Si Si1 0.000000 0.592322 0.688967
Si Si2 0.000000 0.725584 0.813927
Si Si3 0.831659 0.090292 0.710974
Si Si4 0.873428 0.243643 0.921228
Si Si5 0.299857 0.303301 0.077609
Si Si6 0.801701 0.091832 0.866906
Si Si7 0.865147 0.628974 0.419231
Si Si8 0.000000 0.910861 0.763875
O O1 0.073143 0.602962 0.637957
O O2 0.000000 0.500000 0.716556
O O3 0.000000 0.662681 0.748783
O O4 0.925792 0.715931 0.862744
O O5 0.000000 0.821497 0.797120
O O6 0.812862 0.141099 0.643487
O O7 0.798486 0.121122 0.785536
O O8 0.922163 0.088715 0.720618
O O9 0.803202 0.000000 0.702242
O O10 0.787545 0.275714 0.919570
O O11 0.860775 0.149420 0.905608
O O12 0.903950 0.255082 0.000000
O O13 0.352437 0.224728 0.083512
O O14 0.313369 0.339588 0.000000
O O15 0.718691 0.096009 0.901215
O O16 0.827173 0.000000 0.865623
O O17 0.885637 0.607120 0.500000
O O18 0.000000 0.000000 0.801401
#
# Coordination Sequence:
#
# PCOD9521735 Si02
#       8
#     8   8  16  16  16  16  16   8
#     4  12  27  41  59  87 117 158 205 243 293 351
#     4  12  23  39  62  84 120 157 196 249 286 345
#     4  10  20  34  57  84 119 157 194 239 287 343
#     4  10  22  38  59  85 114 152 192 241 298 350
#     4   9  20  38  58  84 115 150 197 244 294 351
#     4  10  20  34  58  90 118 150 189 234 289 355
#     4  10  22  39  60  85 118 155 191 240 297 350
#     4  10  20  37  57  89 123 154 187 228 291 351
#
# _framework density 18.619458000000002
#
# number of rings (size 3 to 8) (size 9 to 14) (size 15 to 20)
#    0.000    1.846    1.538    3.231    2.154    4.000 
#    0.000    1.154    0.000    4.615    0.000    0.000 
#    0.000    0.000    0.000    0.000    0.000    0.000 
#
# Total GULP energy -289897.452480 kJ/mol
# GULP energy per Si atom -5574.951009 kJ/mol
# Density = 1.857708 g / cm^3
# Si number density = 18.619458 Si / 1000 Ang^3
#
#
#
# Elastic Constant Matrix: (Units=GPa)
#
#
# Indices 1 2 3 4 5 6 
#
# 1 60.6854 14.7101 25.0470 0.0000 0.0000 0.0000
# 2 14.7101 66.3447 59.0014 0.0000 0.0000 0.0000
# 3 25.0470 59.0014 123.2979 0.0000 0.0000 0.0000
# 4 0.0000 0.0000 0.0000 19.1196 0.0000 0.0000
# 5 0.0000 0.0000 0.0000 0.0000 23.5092 0.0000
# 6 0.0000 0.0000 0.0000 0.0000 0.0000 9.0712
#
#
#
# Elastic Compliance Matrix: (Units=1/GPa)
#
#
# Indices 1 2 3 4 5 6 
#
# 1 0.018050 -0.001290 -0.003049 0.000000 0.000000 0.000000
# 2 -0.001290 0.026331 -0.012338 0.000000 0.000000 0.000000
# 3 -0.003049 -0.012338 0.014634 0.000000 0.000000 0.000000
# 4 0.000000 0.000000 0.000000 0.052302 0.000000 0.000000
# 5 0.000000 0.000000 0.000000 0.000000 0.042536 0.000000
# 6 0.000000 0.000000 0.000000 0.000000 0.000000 0.110239
#
#
# Mechanical properties :
#
#
# Convention : Reuss Voigt Hill
#
# Bulk Modulus (GPa) = 38.97156 49.76056 44.36606
# Shear Modulus (GPa) = 16.33978 20.44464 18.39221
#
# Velocity S-wave (km/s) = 2.96559 3.31724 3.14633
# Velocity P-wave (km/s) = 5.71859 6.43857 6.08923
#
# Compressibility (1/GPa) = 0.02565974
#
# Stress axis : x y z
#
# Youngs Moduli (GPa) = 55.40256 37.97742 68.33388
#
# Poissons Ratio (x) = 0.04900 0.20836
# Poissons Ratio (y) = 0.07149 0.84312
# Poissons Ratio (z) = 0.16893 0.46857
#
# Static dielectric constant tensor:
#      x y z
#    x 1.632360 0.000000 0.000000 
#    y 0.000000 1.667620 0.000000 
#    z 0.000000 0.000000 1.651010 
# 
# From -- ./inp_files/46192.got.cif
#   From: 2010.05.17/outbox.cif.g08.bks.cpg/sg71_24_cif.got.tgz:46192.got - 2010.06.03 16:22:01.
