data_PCOD9521516
_publ_section_title
;
Structure prediction by ZEFSAII (Michael W. Deem and Ramdas Pophale) SiO2 
 PCOD9521516
Probable space group: I M M M
;
_chemical_formula_sum "Si O2"
_cell_formula_units_Z 72
_cell_length_a 15.770590
_cell_length_b 12.800742
_cell_length_c 20.542720
_cell_angle_alpha 90.000000
_cell_angle_beta 90.000000
_cell_angle_gamma 90.000000
_cell_volume 4147.066813
_symmetry_space_group_name_H-M "I M M M"
_symmetry_group_IT_number 71
_symmetry_cell_setting 'orthorhombic'
loop_
_space_group_symop_operation_xyz
x,y,z
-x,-y,z
x,-y,-z
-x,y,-z
-x,-y,-z
x,y,-z
-x,y,z
x,-y,z
1/2+x,1/2+y,1/2+z
1/2-x,1/2-y,1/2+z
1/2+x,1/2-y,1/2-z
1/2-x,1/2+y,1/2-z
1/2-x,1/2-y,1/2-z
1/2+x,1/2+y,1/2-z
1/2-x,1/2+y,1/2+z
1/2+x,1/2-y,1/2+z
loop_
_atom_site_type_symbol
_atom_site_label
_atom_site_fract_x
_atom_site_fract_y
_atom_site_fract_z
Si Si1 0.404818 0.238049 0.000000
Si Si2 0.000000 0.622079 0.921714
Si Si3 0.729427 0.623412 0.500000
Si Si4 0.154414 0.876681 0.619756
Si Si5 0.668983 0.240554 0.621065
Si Si6 0.099386 0.877911 0.766963
O O1 0.390458 0.310644 0.936698
O O2 0.500000 0.195215 0.000000
O O3 0.329162 0.153810 0.000000
O O4 0.916149 0.677826 0.895238
O O5 0.000000 0.500000 0.904082
O O6 0.000000 0.629969 0.000000
O O7 0.717147 0.500000 0.500000
O O8 0.688335 0.677515 0.436725
O O9 0.251374 0.837403 0.623094
O O10 0.113876 0.858281 0.690549
O O11 0.150128 0.000000 0.605374
O O12 0.654857 0.303405 0.687733
O O13 0.000000 0.862856 0.782494
O O14 0.120212 0.000000 0.778951
#
# Coordination Sequence:
#
# PCOD9521516 Si02
#       6
#     8   8   8  16  16  16
#     4  10  21  37  59  83 109 141 180 225 280 322
#     4  11  22  36  56  82 114 147 184 227 273 328
#     4  10  22  37  56  81 109 141 183 223 268 324
#     4  10  21  35  55  82 110 143 182 228 276 329
#     4  11  20  37  54  80 110 148 183 225 274 324
#     4  10  20  34  54  79 108 142 183 228 277 325
#
# _framework density 17.361668999999999
#
# number of rings (size 3 to 8) (size 9 to 14) (size 15 to 20)
#    0.000    1.667    2.222    3.000    0.000    2.000 
#    0.000    0.556    0.000    1.333    0.000    0.000 
#    0.000    0.000    0.000    0.000    0.000    0.000 
#
# Total GULP energy -201053.990921 kJ/mol
# GULP energy per Si atom -5584.833081 kJ/mol
# Density = 1.732215 g / cm^3
# Si number density = 17.361669 Si / 1000 Ang^3
#
#
#
# Elastic Constant Matrix: (Units=GPa)
#
#
# Indices 1 2 3 4 5 6 
#
# 1 84.3336 15.8786 3.5301 0.0000 0.0000 0.0000
# 2 15.8786 70.6115 22.1981 0.0000 0.0000 0.0000
# 3 3.5301 22.1981 62.9037 0.0000 0.0000 0.0000
# 4 0.0000 0.0000 0.0000 25.4252 0.0000 0.0000
# 5 0.0000 0.0000 0.0000 0.0000 22.0532 0.0000
# 6 0.0000 0.0000 0.0000 0.0000 0.0000 12.0709
#
#
#
# Elastic Compliance Matrix: (Units=1/GPa)
#
#
# Indices 1 2 3 4 5 6 
#
# 1 0.012388 -0.002887 0.000324 0.000000 0.000000 0.000000
# 2 -0.002887 0.016602 -0.005697 0.000000 0.000000 0.000000
# 3 0.000324 -0.005697 0.017889 0.000000 0.000000 0.000000
# 4 0.000000 0.000000 0.000000 0.039331 0.000000 0.000000
# 5 0.000000 0.000000 0.000000 0.000000 0.045345 0.000000
# 6 0.000000 0.000000 0.000000 0.000000 0.000000 0.082844
#
#
# Mechanical properties :
#
#
# Convention : Reuss Voigt Hill
#
# Bulk Modulus (GPa) = 32.93958 33.45139 33.19548
# Shear Modulus (GPa) = 20.74349 23.65933 22.20141
#
# Velocity S-wave (km/s) = 3.46032 3.69553 3.57986
# Velocity P-wave (km/s) = 5.91429 6.12523 6.02068
#
# Compressibility (1/GPa) = 0.03035861
#
# Stress axis : x y z
#
# Youngs Moduli (GPa) = 80.72475 60.23303 55.89886
#
# Poissons Ratio (x) = 0.17392 -0.01810
# Poissons Ratio (y) = 0.23309 0.31844
# Poissons Ratio (z) = -0.02614 0.34313
#
# Static dielectric constant tensor:
#      x y z
#    x 1.577430 0.000000 0.000000 
#    y 0.000000 1.551930 0.000000 
#    z 0.000000 0.000000 1.570540 
# 
# From -- ./inp_files/36090.got.cif
#   From: 2010.05.17/outbox.cif.g08.bks.cpg/sg71_19_cif.got.tgz:36090.got - 2010.06.03 16:22:01.
