data_PCOD9521533
_publ_section_title
;
Structure prediction by ZEFSAII (Michael W. Deem and Ramdas Pophale) SiO2 
 PCOD9521533
Probable space group: I M M M
;
_chemical_formula_sum "Si O2"
_cell_formula_units_Z 104
_cell_length_a 29.764746
_cell_length_b 20.143357
_cell_length_c 8.923505
_cell_angle_alpha 90.000000
_cell_angle_beta 90.000000
_cell_angle_gamma 90.000000
_cell_volume 5350.193654
_symmetry_space_group_name_H-M "I M M M"
_symmetry_group_IT_number 71
_symmetry_cell_setting 'orthorhombic'
loop_
_space_group_symop_operation_xyz
x,y,z
-x,-y,z
x,-y,-z
-x,y,-z
-x,-y,-z
x,y,-z
-x,y,z
x,-y,z
1/2+x,1/2+y,1/2+z
1/2-x,1/2-y,1/2+z
1/2+x,1/2-y,1/2-z
1/2-x,1/2+y,1/2-z
1/2-x,1/2-y,1/2-z
1/2+x,1/2+y,1/2-z
1/2-x,1/2+y,1/2+z
1/2+x,1/2-y,1/2+z
loop_
_atom_site_type_symbol
_atom_site_label
_atom_site_fract_x
_atom_site_fract_y
_atom_site_fract_z
Si Si1 0.889191 0.298703 0.819612
Si Si2 0.421329 0.342181 0.323813
Si Si3 0.000000 0.924545 0.321722
Si Si4 0.247411 0.073468 0.827530
Si Si5 0.346468 0.422928 0.825498
Si Si6 0.552085 0.924007 0.682471
Si Si7 0.792186 0.711595 0.324321
O O1 0.920960 0.235671 0.786642
O O2 0.913058 0.366972 0.768013
O O3 0.840820 0.281052 0.750143
O O4 0.883684 0.302101 0.000000
O O5 0.429545 0.349220 0.500000
O O6 0.457149 0.384635 0.234316
O O7 0.373719 0.373794 0.279420
O O8 0.000000 0.927220 0.500000
O O9 0.000000 0.000000 0.263511
O O10 0.205741 0.081544 0.716462
O O11 0.281098 0.133539 0.809725
O O12 0.267137 0.000000 0.805326
O O13 0.230246 0.076359 0.000000
O O14 0.360155 0.500000 0.800453
O O15 0.353958 0.407402 0.000000
O O16 0.552660 0.922985 0.500000
O O17 0.500000 0.910317 0.726504
O O18 0.563121 0.000000 0.728320
O O19 0.794062 0.729643 0.500000
O O20 0.750000 0.750000 0.250000
#
# Coordination Sequence:
#
# PCOD9521533 Si02
#       7
#    16  16   8  16  16  16  16
#     4  10  22  37  57  86 118 150 190 237 286 339
#     4  11  23  37  56  82 112 147 185 226 274 332
#     4  11  25  43  61  83 112 145 182 228 277 321
#     4   9  19  36  56  78 106 144 189 234 281 334
#     4  10  20  34  54  80 109 143 186 235 283 331
#     4   8  15  31  58  88 116 149 190 237 289 345
#     4  11  23  38  57  81 114 153 194 238 289 345
#
# _framework density 19.438548999999998
#
# number of rings (size 3 to 8) (size 9 to 14) (size 15 to 20)
#    0.000    2.077    0.000    3.462    1.077   10.154 
#    0.000    0.000    0.000    0.000    0.000    1.077 
#    0.000    0.000    0.000    0.000    0.000    0.000 
#
# Total GULP energy -290213.344841 kJ/mol
# GULP energy per Si atom -5581.025862 kJ/mol
# Density = 1.939431 g / cm^3
# Si number density = 19.438549 Si / 1000 Ang^3
#
#
#
# Elastic Constant Matrix: (Units=GPa)
#
#
# Indices 1 2 3 4 5 6 
#
# 1 81.8821 62.4313 29.0634 0.0000 0.0000 0.0000
# 2 62.4313 121.3216 48.5913 0.0000 0.0000 0.0000
# 3 29.0634 48.5913 36.1289 0.0000 0.0000 0.0000
# 4 0.0000 0.0000 0.0000 16.8825 0.0000 0.0000
# 5 0.0000 0.0000 0.0000 0.0000 31.4413 0.0000
# 6 0.0000 0.0000 0.0000 0.0000 0.0000 23.8325
#
#
#
# Elastic Compliance Matrix: (Units=1/GPa)
#
#
# Indices 1 2 3 4 5 6 
#
# 1 0.020506 -0.008552 -0.004993 0.000000 0.000000 0.000000
# 2 -0.008552 0.021434 -0.021948 0.000000 0.000000 0.000000
# 3 -0.004993 -0.021948 0.061214 0.000000 0.000000 0.000000
# 4 0.000000 0.000000 0.000000 0.059233 0.000000 0.000000
# 5 0.000000 0.000000 0.000000 0.000000 0.031805 0.000000
# 6 0.000000 0.000000 0.000000 0.000000 0.000000 0.041959
#
#
# Mechanical properties :
#
#
# Convention : Reuss Voigt Hill
#
# Bulk Modulus (GPa) = 31.08773 57.72272 44.40523
# Shear Modulus (GPa) = 15.73023 21.04771 18.38897
#
# Velocity S-wave (km/s) = 2.84778 3.29414 3.07906
# Velocity P-wave (km/s) = 5.18080 6.65040 5.96106
#
# Compressibility (1/GPa) = 0.03216703
#
# Stress axis : x y z
#
# Youngs Moduli (GPa) = 48.76699 46.65533 16.33622
#
# Poissons Ratio (x) = 0.39900 0.08157
# Poissons Ratio (y) = 0.41706 0.35854
# Poissons Ratio (z) = 0.24351 1.02397
#
# Static dielectric constant tensor:
#      x y z
#    x 1.567850 0.000000 0.000000 
#    y 0.000000 1.711030 0.000000 
#    z 0.000000 0.000000 1.663130 
# 
# From -- ./inp_files/15036.got.cif
#   From: 2010.05.17/outbox.cif.g08.bks.cpg/sg71_8_cif.got.tgz:15036.got - 2010.06.03 16:22:01.
