data_PCOD9521393
_publ_section_title
;
Structure prediction by ZEFSAII (Michael W. Deem and Ramdas Pophale) SiO2 
 PCOD9521393
Probable space group: I M M M
;
_chemical_formula_sum "Si O2"
_cell_formula_units_Z 96
_cell_length_a 7.663892
_cell_length_b 24.597626
_cell_length_c 24.067195
_cell_angle_alpha 90.000000
_cell_angle_beta 90.000000
_cell_angle_gamma 90.000000
_cell_volume 4536.992347
_symmetry_space_group_name_H-M "I M M M"
_symmetry_group_IT_number 71
_symmetry_cell_setting 'orthorhombic'
loop_
_space_group_symop_operation_xyz
x,y,z
-x,-y,z
x,-y,-z
-x,y,-z
-x,-y,-z
x,y,-z
-x,y,z
x,-y,z
1/2+x,1/2+y,1/2+z
1/2-x,1/2-y,1/2+z
1/2+x,1/2-y,1/2-z
1/2-x,1/2+y,1/2-z
1/2-x,1/2-y,1/2-z
1/2+x,1/2+y,1/2-z
1/2-x,1/2+y,1/2+z
1/2+x,1/2-y,1/2+z
loop_
_atom_site_type_symbol
_atom_site_label
_atom_site_fract_x
_atom_site_fract_y
_atom_site_fract_z
Si Si1 0.208337 0.558731 0.932807
Si Si2 0.209968 0.563832 0.440531
Si Si3 0.293388 0.744829 0.166905
Si Si4 0.289103 0.177650 0.436215
Si Si5 0.707683 0.438662 0.318614
Si Si6 0.797793 0.839140 0.756412
O O1 0.279044 0.500000 0.912884
O O2 0.274911 0.618078 0.914656
O O3 0.000000 0.558027 0.921978
O O4 0.228291 0.559236 0.000000
O O5 0.270473 0.587327 0.500000
O O6 0.261874 0.500000 0.440651
O O7 0.268826 0.584667 0.380943
O O8 0.000000 0.565847 0.440528
O O9 0.500000 0.750564 0.176904
O O10 0.264756 0.725827 0.104373
O O11 0.210444 0.799817 0.189849
O O12 0.221689 0.696140 0.206209
O O13 0.231058 0.184854 0.500000
O O14 0.500000 0.175326 0.436913
O O15 0.500000 0.442250 0.309947
O O16 0.780005 0.500000 0.316207
O O17 0.781722 0.396507 0.274018
O O18 0.000000 0.848539 0.741959
#
# Coordination Sequence:
#
# PCOD9521393 Si02
#       6
#    16  16  16  16  16  16
#     4   7  10  19  38  64  92 123 159 193 225 270
#     4   8  14  25  41  63  94 129 158 185 225 278
#     4  10  20  34  53  74  95 125 166 206 241 281
#     4   9  17  30  50  75 102 131 161 198 246 292
#     4   9  17  30  50  74  97 122 155 196 240 287
#     4   9  19  36  54  71  94 126 163 200 240 287
#
# _framework density 21.159393999999999
#
# number of rings (size 3 to 8) (size 9 to 14) (size 15 to 20)
#    0.000    3.333    0.000    2.500    0.000    2.000 
#    0.000    3.333    0.000    2.500    0.000    2.333 
#    0.000    0.000    0.000    0.000    0.000    0.000 
#
# Total GULP energy -267229.883531 kJ/mol
# GULP energy per Si atom -5567.289240 kJ/mol
# Density = 2.111123 g / cm^3
# Si number density = 21.159394 Si / 1000 Ang^3
#
#
#
# Elastic Constant Matrix: (Units=GPa)
#
#
# Indices 1 2 3 4 5 6 
#
# 1 40.7909 -6.4790 -3.6687 0.0000 0.0000 0.0000
# 2 -6.4790 46.0617 28.2887 0.0000 0.0000 0.0000
# 3 -3.6687 28.2887 43.7414 0.0000 0.0000 0.0000
# 4 0.0000 0.0000 0.0000 23.2673 0.0000 0.0000
# 5 0.0000 0.0000 0.0000 0.0000 32.3301 0.0000
# 6 0.0000 0.0000 0.0000 0.0000 0.0000 0.8032
#
#
#
# Elastic Compliance Matrix: (Units=1/GPa)
#
#
# Indices 1 2 3 4 5 6 
#
# 1 0.025078 0.003709 -0.000295 0.000000 0.000000 0.000000
# 2 0.003709 0.036563 -0.023335 0.000000 0.000000 0.000000
# 3 -0.000295 -0.023335 0.037928 0.000000 0.000000 0.000000
# 4 0.000000 0.000000 0.000000 0.042979 0.000000 0.000000
# 5 0.000000 0.000000 0.000000 0.000000 0.030931 0.000000
# 6 0.000000 0.000000 0.000000 0.000000 0.000000 1.244947
#
#
# Mechanical properties :
#
#
# Convention : Reuss Voigt Hill
#
# Bulk Modulus (GPa) = 16.74317 18.54177 17.64247
# Shear Modulus (GPa) = 3.38254 18.77700 11.07977
#
# Velocity S-wave (km/s) = 1.26573 2.98217 2.29079
# Velocity P-wave (km/s) = 3.17272 4.54309 3.91828
#
# Compressibility (1/GPa) = 0.05972584
#
# Stress axis : x y z
#
# Youngs Moduli (GPa) = 39.87590 27.35025 26.36560
#
# Poissons Ratio (x) = -0.10143 0.00778
# Poissons Ratio (y) = -0.14789 0.61524
# Poissons Ratio (z) = 0.01177 0.63822
#
# Static dielectric constant tensor:
#      x y z
#    x 1.787210 0.000000 0.000000 
#    y 0.000000 1.810770 0.000000 
#    z 0.000000 0.000000 1.802870 
# 
# From -- ./inp_files/57740.got.cif
#   From: 2010.05.17/outbox.cif.g08.bks.cpg/sg71_29_cif.got.tgz:57740.got - 2010.06.03 16:22:01.
