data_PCOD9521844
_publ_section_title
;
Structure prediction by ZEFSAII (Michael W. Deem and Ramdas Pophale) SiO2 
 PCOD9521844
Probable space group: I M M M
;
_chemical_formula_sum "Si O2"
_cell_formula_units_Z 72
_cell_length_a 7.723501
_cell_length_b 18.037315
_cell_length_c 26.225661
_cell_angle_alpha 90.000000
_cell_angle_beta 90.000000
_cell_angle_gamma 90.000000
_cell_volume 3653.528841
_symmetry_space_group_name_H-M "I M M M"
_symmetry_group_IT_number 71
_symmetry_cell_setting 'orthorhombic'
loop_
_space_group_symop_operation_xyz
x,y,z
-x,-y,z
x,-y,-z
-x,y,-z
-x,-y,-z
x,y,-z
-x,y,z
x,-y,z
1/2+x,1/2+y,1/2+z
1/2-x,1/2-y,1/2+z
1/2+x,1/2-y,1/2-z
1/2-x,1/2+y,1/2-z
1/2-x,1/2-y,1/2-z
1/2+x,1/2+y,1/2-z
1/2-x,1/2+y,1/2+z
1/2+x,1/2-y,1/2+z
loop_
_atom_site_type_symbol
_atom_site_label
_atom_site_fract_x
_atom_site_fract_y
_atom_site_fract_z
Si Si1 0.212376 0.586127 0.500000
Si Si2 0.210138 0.865693 0.443490
Si Si3 0.206219 0.737829 0.808685
Si Si4 0.297993 0.921581 0.338405
Si Si5 0.794168 0.299757 0.586372
O O1 0.268496 0.500000 0.500000
O O2 0.269008 0.633073 0.550369
O O3 0.000000 0.584679 0.500000
O O4 0.258715 0.888743 0.500000
O O5 0.285875 0.915528 0.399210
O O6 0.268387 0.780399 0.433999
O O7 0.000000 0.867269 0.439666
O O8 0.250000 0.750000 0.750000
O O9 0.281521 0.656164 0.821026
O O10 0.263491 0.795825 0.852563
O O11 0.000000 0.735060 0.814022
O O12 0.500000 0.921413 0.323135
O O13 0.221213 0.000000 0.321146
O O14 0.000000 0.299667 0.579208
#
# Coordination Sequence:
#
# PCOD9521844 Si02
#       5
#     8  16  16  16  16
#     4   9  16  28  51  81 108 137 176 218 259 305
#     4   9  16  27  45  69  97 130 162 191 228 279
#     4  10  20  35  55  76  96 127 170 212 254 305
#     4   9  19  34  49  68  95 124 156 197 242 285
#     4   9  16  30  51  74 102 134 168 208 249 295
#
# _framework density 19.706973999999999
#
# number of rings (size 3 to 8) (size 9 to 14) (size 15 to 20)
#    0.000    2.778    1.111    0.667    0.000    2.222 
#    0.000    3.889    0.000    8.000    0.000    0.000 
#    0.000    0.000    0.000    0.000    0.000    0.000 
#
# Total GULP energy -200469.151900 kJ/mol
# GULP energy per Si atom -5568.587553 kJ/mol
# Density = 1.966212 g / cm^3
# Si number density = 19.706974 Si / 1000 Ang^3
#
#
#
# Elastic Constant Matrix: (Units=GPa)
#
#
# Indices 1 2 3 4 5 6 
#
# 1 29.2927 5.9290 -10.3645 0.0000 0.0000 0.0000
# 2 5.9290 136.5278 60.7195 0.0000 0.0000 0.0000
# 3 -10.3645 60.7195 126.6472 0.0000 0.0000 0.0000
# 4 0.0000 0.0000 0.0000 10.1491 0.0000 0.0000
# 5 0.0000 0.0000 0.0000 0.0000 21.7284 0.0000
# 6 0.0000 0.0000 0.0000 0.0000 0.0000 8.5931
#
#
#
# Elastic Compliance Matrix: (Units=1/GPa)
#
#
# Indices 1 2 3 4 5 6 
#
# 1 0.036578 -0.003711 0.004773 0.000000 0.000000 0.000000
# 2 -0.003711 0.009686 -0.004948 0.000000 0.000000 0.000000
# 3 0.004773 -0.004948 0.010659 0.000000 0.000000 0.000000
# 4 0.000000 0.000000 0.000000 0.098531 0.000000 0.000000
# 5 0.000000 0.000000 0.000000 0.000000 0.046023 0.000000
# 6 0.000000 0.000000 0.000000 0.000000 0.000000 0.116372
#
#
# Mechanical properties :
#
#
# Convention : Reuss Voigt Hill
#
# Bulk Modulus (GPa) = 20.34560 45.00397 32.67479
# Shear Modulus (GPa) = 14.61973 23.83971 19.22972
#
# Velocity S-wave (km/s) = 2.72666 3.48186 3.12714
# Velocity P-wave (km/s) = 4.50104 6.24905 5.44564
#
# Compressibility (1/GPa) = 0.04915067
#
# Stress axis : x y z
#
# Youngs Moduli (GPa) = 27.33887 103.24114 93.82110
#
# Poissons Ratio (x) = 0.38313 -0.44778
# Poissons Ratio (y) = 0.10146 0.46419
# Poissons Ratio (z) = -0.13048 0.51079
#
# Static dielectric constant tensor:
#      x y z
#    x 1.742510 0.000000 0.000000 
#    y 0.000000 1.730380 0.000000 
#    z 0.000000 0.000000 1.724330 
# 
# From -- ./inp_files/8142.got.cif
#   From: 2010.05.17/outbox.cif.g08.bks.cpg/sg71_5_cif.got.tgz:8142.got - 2010.06.03 16:22:01.
