data_PCOD9521835
_publ_section_title
;
Structure prediction by ZEFSAII (Michael W. Deem and Ramdas Pophale) SiO2 
 PCOD9521835
Probable space group: I M M M
;
_chemical_formula_sum "Si O2"
_cell_formula_units_Z 108
_cell_length_a 14.266424
_cell_length_b 23.554183
_cell_length_c 16.199841
_cell_angle_alpha 90.000000
_cell_angle_beta 90.000000
_cell_angle_gamma 90.000000
_cell_volume 5443.696749
_symmetry_space_group_name_H-M "I M M M"
_symmetry_group_IT_number 71
_symmetry_cell_setting 'orthorhombic'
loop_
_space_group_symop_operation_xyz
x,y,z
-x,-y,z
x,-y,-z
-x,y,-z
-x,-y,-z
x,y,-z
-x,y,z
x,-y,z
1/2+x,1/2+y,1/2+z
1/2-x,1/2-y,1/2+z
1/2+x,1/2-y,1/2-z
1/2-x,1/2+y,1/2-z
1/2-x,1/2-y,1/2-z
1/2+x,1/2+y,1/2-z
1/2-x,1/2+y,1/2+z
1/2+x,1/2-y,1/2+z
loop_
_atom_site_type_symbol
_atom_site_label
_atom_site_fract_x
_atom_site_fract_y
_atom_site_fract_z
Si Si1 0.393364 0.726626 0.186192
Si Si2 0.298531 0.393282 0.830755
Si Si3 0.604875 0.744361 0.380442
Si Si4 0.605675 0.432322 0.000000
Si Si5 0.709314 0.825677 0.092675
Si Si6 0.781079 0.938889 0.841078
Si Si7 0.348920 0.500000 0.500000
Si Si8 0.607416 0.122090 0.405782
O O1 0.500000 0.710756 0.163993
O O2 0.325955 0.672710 0.177054
O O3 0.391500 0.744270 0.281449
O O4 0.357227 0.779377 0.133877
O O5 0.345101 0.413675 0.915529
O O6 0.330090 0.424569 0.746434
O O7 0.187296 0.400199 0.845056
O O8 0.500000 0.725623 0.404645
O O9 0.687657 0.703330 0.408187
O O10 0.617239 0.809316 0.408015
O O11 0.603248 0.500000 0.000000
O O12 0.500000 0.409404 0.000000
O O13 0.717605 0.884507 0.141209
O O14 0.678864 0.837509 0.000000
O O15 0.841891 0.951210 0.924576
O O16 0.731176 0.000000 0.830983
O O17 0.622698 0.101526 0.500000
O O18 0.500000 0.109612 0.382007
#
# Coordination Sequence:
#
# PCOD9521835 Si02
#       8
#    16  16  16   8  16  16   4  16
#     4  11  24  37  56  93 129 165 215 266 322 396
#     4  12  21  40  67  93 129 177 210 266 330 392
#     4  10  20  35  54  83 121 161 207 250 308 386
#     4  11  26  44  62  93 131 175 229 267 310 387
#     4  12  21  36  61  87 127 168 209 265 327 389
#     4  10  21  40  67  95 124 165 225 274 323 387
#     4   8  20  44  62 106 116 158 224 286 312 376
#     4  10  20  35  57  91 130 166 206 256 317 391
#
# _framework density 19.839459000000002
#
# number of rings (size 3 to 8) (size 9 to 14) (size 15 to 20)
#    0.444    0.815    4.444    2.667    1.037    1.185 
#    0.000    0.000    0.000    4.889    0.000    8.815 
#    0.000    0.000    0.000    0.000    0.000    0.000 
#
# Total GULP energy -300671.548582 kJ/mol
# GULP energy per Si atom -5567.991640 kJ/mol
# Density = 1.979430 g / cm^3
# Si number density = 19.839459 Si / 1000 Ang^3
#
#
#
# Elastic Constant Matrix: (Units=GPa)
#
#
# Indices 1 2 3 4 5 6 
#
# 1 74.9122 -7.2319 31.3189 0.0000 0.0000 0.0000
# 2 -7.2319 31.1336 27.0711 0.0000 0.0000 0.0000
# 3 31.3189 27.0711 157.7097 0.0000 0.0000 0.0000
# 4 0.0000 0.0000 0.0000 39.0912 0.0000 0.0000
# 5 0.0000 0.0000 0.0000 0.0000 16.3359 0.0000
# 6 0.0000 0.0000 0.0000 0.0000 0.0000 -4.0316
#
#
#
# Elastic Compliance Matrix: (Units=1/GPa)
#
#
# Indices 1 2 3 4 5 6 
#
# 1 0.015951 0.007593 -0.004471 0.000000 0.000000 0.000000
# 2 0.007593 0.041369 -0.008609 0.000000 0.000000 0.000000
# 3 -0.004471 -0.008609 0.008706 0.000000 0.000000 0.000000
# 4 0.000000 0.000000 0.000000 0.025581 0.000000 0.000000
# 5 0.000000 0.000000 0.000000 0.000000 0.061215 0.000000
# 6 0.000000 0.000000 0.000000 0.000000 0.000000 -0.248040
#
#
# Mechanical properties :
#
#
# Convention : Reuss Voigt Hill
#
# Bulk Modulus (GPa) = 18.16454 40.67465 29.41960
# Shear Modulus (GPa) = -75.88058 24.45226 -25.71416
#
# Velocity S-wave (km/s) = -6.19115 3.51452 -3.60406
# Velocity P-wave (km/s) = 6.47545 6.08404 1.56780
#
# Compressibility (1/GPa) = 0.05505230
#
# Stress axis : x y z
#
# Youngs Moduli (GPa) = 62.69136 24.17279 114.85861
#
# Poissons Ratio (x) = -0.18354 0.51353
# Poissons Ratio (y) = -0.47600 0.98880
# Poissons Ratio (z) = 0.28029 0.20810
#
# Static dielectric constant tensor:
#      x y z
#    x 1.707010 0.000000 0.000000 
#    y 0.000000 1.689630 0.000000 
#    z 0.000000 0.000000 1.740190 
# 
# From -- ./inp_files/34932.got.cif
#   From: 2010.05.17/outbox.cif.g08.bks.cpg/sg71_18_cif.got.tgz:34932.got - 2010.06.03 16:22:01.
