data_PCOD9521872
_publ_section_title
;
Structure prediction by ZEFSAII (Michael W. Deem and Ramdas Pophale) SiO2 
 PCOD9521872
Probable space group: I M M M
;
_chemical_formula_sum "Si O2"
_cell_formula_units_Z 96
_cell_length_a 26.068721
_cell_length_b 24.235748
_cell_length_c 8.572699
_cell_angle_alpha 90.000000
_cell_angle_beta 90.000000
_cell_angle_gamma 90.000000
_cell_volume 5416.187960
_symmetry_space_group_name_H-M "I M M M"
_symmetry_group_IT_number 71
_symmetry_cell_setting 'orthorhombic'
loop_
_space_group_symop_operation_xyz
x,y,z
-x,-y,z
x,-y,-z
-x,y,-z
-x,-y,-z
x,y,-z
-x,y,z
x,-y,z
1/2+x,1/2+y,1/2+z
1/2-x,1/2-y,1/2+z
1/2+x,1/2-y,1/2-z
1/2-x,1/2+y,1/2-z
1/2-x,1/2-y,1/2-z
1/2+x,1/2+y,1/2-z
1/2-x,1/2+y,1/2+z
1/2+x,1/2-y,1/2+z
loop_
_atom_site_type_symbol
_atom_site_label
_atom_site_fract_x
_atom_site_fract_y
_atom_site_fract_z
Si Si1 0.248790 0.687955 0.686259
Si Si2 0.058360 0.189422 0.688283
Si Si3 0.845919 0.616308 0.812437
Si Si4 0.654962 0.619265 0.810983
Si Si5 0.441443 0.810970 0.311748
Si Si6 0.189914 0.500000 0.314246
Si Si7 0.193874 0.000000 0.311586
O O1 0.246160 0.688636 0.500000
O O2 0.250000 0.750000 0.750000
O O3 0.200091 0.655034 0.753077
O O4 0.299566 0.656033 0.741500
O O5 0.058329 0.190978 0.500000
O O6 0.100542 0.144910 0.737762
O O7 0.072365 0.250338 0.748717
O O8 0.000000 0.177471 0.740323
O O9 0.899570 0.644127 0.762926
O O10 0.836970 0.555222 0.747984
O O11 0.844140 0.614432 0.000000
O O12 0.664765 0.555923 0.765297
O O13 0.657988 0.622206 0.000000
O O14 0.440860 0.808598 0.500000
O O15 0.500000 0.823146 0.261762
O O16 0.189751 0.500000 0.500000
O O17 0.248801 0.500000 0.255836
O O18 0.198316 0.000000 0.500000
#
# Coordination Sequence:
#
# PCOD9521872 Si02
#       7
#    16  16  16  16  16   8   8
#     4  12  24  36  53  80 113 144 181 229 281 336
#     4   9  18  33  54  81 113 147 183 227 279 331
#     4  11  22  38  59  82 111 146 184 229 280 332
#     4  10  20  35  55  79 109 146 188 230 277 331
#     4   9  19  36  58  83 109 141 183 227 275 332
#     4  12  24  38  57  82 111 148 189 230 274 333
#     4  10  20  36  57  77 107 150 191 229 274 325
#
# _framework density 17.724643
#
# number of rings (size 3 to 8) (size 9 to 14) (size 15 to 20)
#    0.000    1.667    1.667    3.750    0.000    4.667 
#    0.000    0.833    0.000    5.000    0.000    0.000 
#    0.000    4.667    0.000    0.000    0.000    0.000 
#
# Total GULP energy -268116.173619 kJ/mol
# GULP energy per Si atom -5585.753617 kJ/mol
# Density = 1.768430 g / cm^3
# Si number density = 17.724643 Si / 1000 Ang^3
#
#
#
# Elastic Constant Matrix: (Units=GPa)
#
#
# Indices 1 2 3 4 5 6 
#
# 1 140.9876 115.3411 35.2728 0.0000 0.0000 0.0000
# 2 115.3411 199.4502 45.0436 0.0000 0.0000 0.0000
# 3 35.2728 45.0436 35.3226 0.0000 0.0000 0.0000
# 4 0.0000 0.0000 0.0000 26.9896 0.0000 0.0000
# 5 0.0000 0.0000 0.0000 0.0000 4.6278 0.0000
# 6 0.0000 0.0000 0.0000 0.0000 0.0000 16.2894
#
#
#
# Elastic Compliance Matrix: (Units=1/GPa)
#
#
# Indices 1 2 3 4 5 6 
#
# 1 0.014104 -0.006988 -0.005173 0.000000 0.000000 0.000000
# 2 -0.006988 0.010504 -0.006417 0.000000 0.000000 0.000000
# 3 -0.005173 -0.006417 0.041659 0.000000 0.000000 0.000000
# 4 0.000000 0.000000 0.000000 0.037051 0.000000 0.000000
# 5 0.000000 0.000000 0.000000 0.000000 0.216086 0.000000
# 6 0.000000 0.000000 0.000000 0.000000 0.000000 0.061389
#
#
# Mechanical properties :
#
#
# Convention : Reuss Voigt Hill
#
# Bulk Modulus (GPa) = 34.35070 85.23061 59.79066
# Shear Modulus (GPa) = 11.69175 21.58822 16.63998
#
# Velocity S-wave (km/s) = 2.57112 3.49374 3.06732
# Velocity P-wave (km/s) = 5.31380 8.02903 6.80815
#
# Compressibility (1/GPa) = 0.02911149
#
# Stress axis : x y z
#
# Youngs Moduli (GPa) = 70.90317 95.20192 24.00460
#
# Poissons Ratio (x) = 0.66526 0.12417
# Poissons Ratio (y) = 0.49546 0.15403
# Poissons Ratio (z) = 0.36677 0.61088
#
# Static dielectric constant tensor:
#      x y z
#    x 1.600810 0.000000 0.000000 
#    y 0.000000 1.573080 0.000000 
#    z 0.000000 0.000000 1.599660 
# 
# From -- ./inp_files/12907.got.cif
#   From: 2010.05.17/outbox.cif.g08.bks.cpg/sg71_7_cif.got.tgz:12907.got - 2010.06.03 16:22:01.
