data_PCOD9521239
_publ_section_title
;
Structure prediction by ZEFSAII (Michael W. Deem and Ramdas Pophale) SiO2 
 PCOD9521239
Probable space group: I M M M
;
_chemical_formula_sum "Si O2"
_cell_formula_units_Z 90
_cell_length_a 7.637495
_cell_length_b 21.070384
_cell_length_c 25.668004
_cell_angle_alpha 90.000000
_cell_angle_beta 90.000000
_cell_angle_gamma 90.000000
_cell_volume 4130.622323
_symmetry_space_group_name_H-M "I M M M"
_symmetry_group_IT_number 71
_symmetry_cell_setting 'orthorhombic'
loop_
_space_group_symop_operation_xyz
x,y,z
-x,-y,z
x,-y,-z
-x,y,-z
-x,-y,-z
x,y,-z
-x,y,z
x,-y,z
1/2+x,1/2+y,1/2+z
1/2-x,1/2-y,1/2+z
1/2+x,1/2-y,1/2-z
1/2-x,1/2+y,1/2-z
1/2-x,1/2-y,1/2-z
1/2+x,1/2+y,1/2-z
1/2-x,1/2+y,1/2+z
1/2+x,1/2-y,1/2+z
loop_
_atom_site_type_symbol
_atom_site_label
_atom_site_fract_x
_atom_site_fract_y
_atom_site_fract_z
Si Si1 0.798765 0.862217 0.444843
Si Si2 0.500000 0.000000 0.000000
Si Si3 0.702680 0.573760 0.844201
Si Si4 0.796547 0.225883 0.919457
Si Si5 0.701640 0.930232 0.226826
Si Si6 0.713147 0.384055 0.500000
Si Si7 0.709792 0.206297 0.800394
O O1 0.719189 0.881963 0.500000
O O2 0.717689 0.887325 0.391563
O O3 0.801448 0.786528 0.441891
O O4 0.000000 0.885754 0.444011
O O5 0.343273 0.056155 0.000000
O O6 0.500000 0.593991 0.834766
O O7 0.701724 0.500000 0.859176
O O8 0.796534 0.578441 0.789119
O O9 0.749385 0.160706 0.949189
O O10 0.771283 0.227773 0.857217
O O11 0.000000 0.236047 0.931399
O O12 0.500000 0.932803 0.208959
O O13 0.781927 0.865473 0.205814
O O14 0.781065 0.000000 0.215747
O O15 0.500000 0.398372 0.500000
O O16 0.500000 0.203306 0.802201
O O17 0.750000 0.250000 0.750000
#
# Coordination Sequence:
#
# PCOD9521239 Si02
#       7
#    16   2  16  16  16   8  16
#     4  10  20  33  55  83 112 151 203 248 293 365
#     4  12  26  44  84  98 132 184 216 280 352 412
#     4   9  18  32  51  78 114 154 194 243 297 352
#     4  11  23  41  63  88 126 162 203 268 323 383
#     4   9  19  37  56  78 108 145 188 237 288 353
#     4  10  25  47  69 104 136 170 225 276 339 413
#     4  11  23  38  60  90 123 159 206 258 317 387
#
# _framework density 21.788484
#
# number of rings (size 3 to 8) (size 9 to 14) (size 15 to 20)
#    0.000    1.956    0.889    2.267    2.489    5.333 
#    1.600    1.778    0.000    0.000    0.000    3.733 
#    0.000    0.000    0.000    0.000    0.000    0.000 
#
# Total GULP energy -250729.094373 kJ/mol
# GULP energy per Si atom -5571.757653 kJ/mol
# Density = 2.173889 g / cm^3
# Si number density = 21.788484 Si / 1000 Ang^3
#
#
#
# Elastic Constant Matrix: (Units=GPa)
#
#
# Indices 1 2 3 4 5 6 
#
# 1 69.6944 -3.4259 -6.5436 0.0000 0.0000 0.0000
# 2 -3.4259 28.5311 17.5225 0.0000 0.0000 0.0000
# 3 -6.5436 17.5225 87.6938 0.0000 0.0000 0.0000
# 4 0.0000 0.0000 0.0000 18.5102 0.0000 0.0000
# 5 0.0000 0.0000 0.0000 0.0000 33.7925 0.0000
# 6 0.0000 0.0000 0.0000 0.0000 0.0000 18.3151
#
#
#
# Elastic Compliance Matrix: (Units=1/GPa)
#
#
# Indices 1 2 3 4 5 6 
#
# 1 0.014487 0.001226 0.000836 0.000000 0.000000 0.000000
# 2 0.001226 0.040056 -0.007912 0.000000 0.000000 0.000000
# 3 0.000836 -0.007912 0.013047 0.000000 0.000000 0.000000
# 4 0.000000 0.000000 0.000000 0.054024 0.000000 0.000000
# 5 0.000000 0.000000 0.000000 0.000000 0.029592 0.000000
# 6 0.000000 0.000000 0.000000 0.000000 0.000000 0.054600
#
#
# Mechanical properties :
#
#
# Convention : Reuss Voigt Hill
#
# Bulk Modulus (GPa) = 17.89244 22.33613 20.11429
# Shear Modulus (GPa) = 21.17420 26.01465 23.59442
#
# Velocity S-wave (km/s) = 3.12076 3.45913 3.29429
# Velocity P-wave (km/s) = 4.60600 5.12130 4.87047
#
# Compressibility (1/GPa) = 0.05588952
#
# Stress axis : x y z
#
# Youngs Moduli (GPa) = 69.02683 24.96502 76.64778
#
# Poissons Ratio (x) = -0.03061 -0.06408
# Poissons Ratio (y) = -0.08463 0.60646
# Poissons Ratio (z) = -0.05771 0.19753
#
# Static dielectric constant tensor:
#      x y z
#    x 1.843400 0.000000 0.000000 
#    y 0.000000 1.825180 0.000000 
#    z 0.000000 0.000000 1.810590 
# 
# From -- ./inp_files/57582.got.cif
#   From: 2010.05.17/outbox.cif.g08.bks.cpg/sg71_29_cif.got.tgz:57582.got - 2010.06.03 16:22:01.
