data_PCOD9521227
_publ_section_title
;
Structure prediction by ZEFSAII (Michael W. Deem and Ramdas Pophale) SiO2 
 PCOD9521227
Probable space group: I M M M
;
_chemical_formula_sum "Si O2"
_cell_formula_units_Z 88
_cell_length_a 23.622173
_cell_length_b 7.568284
_cell_length_c 24.671122
_cell_angle_alpha 90.000000
_cell_angle_beta 90.000000
_cell_angle_gamma 90.000000
_cell_volume 4410.686266
_symmetry_space_group_name_H-M "I M M M"
_symmetry_group_IT_number 71
_symmetry_cell_setting 'orthorhombic'
loop_
_space_group_symop_operation_xyz
x,y,z
-x,-y,z
x,-y,-z
-x,y,-z
-x,-y,-z
x,y,-z
-x,y,z
x,-y,z
1/2+x,1/2+y,1/2+z
1/2-x,1/2-y,1/2+z
1/2+x,1/2-y,1/2-z
1/2-x,1/2+y,1/2-z
1/2-x,1/2-y,1/2-z
1/2+x,1/2+y,1/2-z
1/2-x,1/2+y,1/2+z
1/2+x,1/2-y,1/2+z
loop_
_atom_site_type_symbol
_atom_site_label
_atom_site_fract_x
_atom_site_fract_y
_atom_site_fract_z
Si Si1 0.568212 0.000000 0.435477
Si Si2 0.267971 0.210861 0.687802
Si Si3 0.890818 0.202876 0.143989
Si Si4 0.350254 0.291940 0.154286
Si Si5 0.562674 0.786878 0.062256
Si Si6 0.562024 0.284362 0.241896
O O1 0.595938 0.831189 0.405627
O O2 0.500000 0.000000 0.427196
O O3 0.578587 0.000000 0.500000
O O4 0.250000 0.250000 0.750000
O O5 0.326398 0.290902 0.666506
O O6 0.213562 0.276090 0.653656
O O7 0.275408 0.000000 0.682721
O O8 0.927234 0.263846 0.196060
O O9 0.905169 0.000000 0.131122
O O10 0.344041 0.500000 0.165708
O O11 0.387105 0.272079 0.100656
O O12 0.388282 0.217037 0.203186
O O13 0.500000 0.726412 0.080800
O O14 0.562117 0.000000 0.062724
O O15 0.569946 0.730178 0.000000
O O16 0.500000 0.226575 0.223339
O O17 0.563136 0.500000 0.239959
#
# Coordination Sequence:
#
# PCOD9521227 Si02
#       6
#     8  16  16  16  16  16
#     4  11  26  48  72 100 132 166 214 278 336 393
#     4  11  21  37  60  90 128 168 209 258 315 376
#     4  11  22  41  67  95 129 172 213 257 324 396
#     4  10  20  33  54  84 115 152 198 249 302 358
#     4   9  19  36  54  74 108 152 196 245 296 348
#     4   9  17  31  53  84 122 156 192 246 308 370
#
# _framework density 19.951544999999999
#
# number of rings (size 3 to 8) (size 9 to 14) (size 15 to 20)
#    0.000    1.909    2.727    2.182    0.000    4.364 
#    1.636    2.727    0.000    0.000    0.000    0.000 
#    0.000    0.000    0.000    0.000    0.000    0.000 
#
# Total GULP energy -245717.455839 kJ/mol
# GULP energy per Si atom -5584.487633 kJ/mol
# Density = 1.990613 g / cm^3
# Si number density = 19.951545 Si / 1000 Ang^3
#
#
#
# Elastic Constant Matrix: (Units=GPa)
#
#
# Indices 1 2 3 4 5 6 
#
# 1 105.8005 2.9758 36.0222 0.0000 0.0000 0.0000
# 2 2.9758 73.6953 16.9830 0.0000 0.0000 0.0000
# 3 36.0222 16.9830 90.8445 0.0000 0.0000 0.0000
# 4 0.0000 0.0000 0.0000 28.7210 0.0000 0.0000
# 5 0.0000 0.0000 0.0000 0.0000 7.1987 0.0000
# 6 0.0000 0.0000 0.0000 0.0000 0.0000 15.9796
#
#
#
# Elastic Compliance Matrix: (Units=1/GPa)
#
#
# Indices 1 2 3 4 5 6 
#
# 1 0.010951 0.000584 -0.004451 0.000000 0.000000 0.000000
# 2 0.000584 0.014211 -0.002888 0.000000 0.000000 0.000000
# 3 -0.004451 -0.002888 0.013313 0.000000 0.000000 0.000000
# 4 0.000000 0.000000 0.000000 0.034818 0.000000 0.000000
# 5 0.000000 0.000000 0.000000 0.000000 0.138914 0.000000
# 6 0.000000 0.000000 0.000000 0.000000 0.000000 0.062580
#
#
# Mechanical properties :
#
#
# Convention : Reuss Voigt Hill
#
# Bulk Modulus (GPa) = 40.05894 42.47803 41.26849
# Shear Modulus (GPa) = 16.85657 24.67047 20.76352
#
# Velocity S-wave (km/s) = 2.90983 3.52023 3.22948
# Velocity P-wave (km/s) = 5.60457 6.15301 5.88518
#
# Compressibility (1/GPa) = 0.02496322
#
# Stress axis : x y z
#
# Youngs Moduli (GPa) = 91.31643 70.36605 75.11533
#
# Poissons Ratio (x) = -0.04107 0.33437
# Poissons Ratio (y) = -0.05330 0.21695
# Poissons Ratio (z) = 0.40649 0.20323
#
# Static dielectric constant tensor:
#      x y z
#    x 1.737550 0.000000 0.000000 
#    y 0.000000 1.753200 0.000000 
#    z 0.000000 0.000000 1.673000 
# 
# From -- ./inp_files/10508.got.cif
#   From: 2010.05.17/outbox.cif.g08.bks.cpg/sg71_6_cif.got.tgz:10508.got - 2010.06.03 16:22:01.
