data_PCOD9521966
_publ_section_title
;
Structure prediction by ZEFSAII (Michael W. Deem and Ramdas Pophale) SiO2 
 PCOD9521966
Probable space group: I M M M
;
_chemical_formula_sum "Si O2"
_cell_formula_units_Z 108
_cell_length_a 14.060442
_cell_length_b 23.097117
_cell_length_c 17.249467
_cell_angle_alpha 90.000000
_cell_angle_beta 90.000000
_cell_angle_gamma 90.000000
_cell_volume 5601.862281
_symmetry_space_group_name_H-M "I M M M"
_symmetry_group_IT_number 71
_symmetry_cell_setting 'orthorhombic'
loop_
_space_group_symop_operation_xyz
x,y,z
-x,-y,z
x,-y,-z
-x,y,-z
-x,-y,-z
x,y,-z
-x,y,z
x,-y,z
1/2+x,1/2+y,1/2+z
1/2-x,1/2-y,1/2+z
1/2+x,1/2-y,1/2-z
1/2-x,1/2+y,1/2-z
1/2-x,1/2-y,1/2-z
1/2+x,1/2+y,1/2-z
1/2-x,1/2+y,1/2+z
1/2+x,1/2-y,1/2+z
loop_
_atom_site_type_symbol
_atom_site_label
_atom_site_fract_x
_atom_site_fract_y
_atom_site_fract_z
Si Si1 0.390431 0.718966 0.197609
Si Si2 0.285400 0.402381 0.811705
Si Si3 0.607596 0.738215 0.380525
Si Si4 0.613590 0.500000 0.089744
Si Si5 0.694144 0.816226 0.087263
Si Si6 0.742348 0.937572 0.860992
Si Si7 0.327769 0.500000 0.500000
Si Si8 0.610843 0.125804 0.412100
O O1 0.500000 0.704966 0.179964
O O2 0.326603 0.662361 0.186042
O O3 0.384857 0.737425 0.287289
O O4 0.354743 0.771057 0.144525
O O5 0.347080 0.444372 0.865143
O O6 0.285482 0.424234 0.723109
O O7 0.180147 0.400831 0.848339
O O8 0.500000 0.719551 0.401264
O O9 0.693130 0.698726 0.410182
O O10 0.619913 0.804294 0.407966
O O11 0.500000 0.500000 0.091878
O O12 0.644304 0.500000 0.000000
O O13 0.681945 0.881987 0.115096
O O14 0.659277 0.808734 0.000000
O O15 0.817012 0.950367 0.930504
O O16 0.689949 0.000000 0.857014
O O17 0.636513 0.107755 0.500000
O O18 0.500000 0.112144 0.398694
#
# Coordination Sequence:
#
# PCOD9521966 Si02
#       8
#    16  16  16   8  16  16   4  16
#     4  11  24  38  58  92 127 160 207 259 309 373
#     4  12  21  40  65  91 121 169 207 258 312 377
#     4  10  20  35  56  85 119 158 201 244 299 368
#     4  11  25  42  62  87 120 165 215 255 299 369
#     4  12  21  36  62  89 125 165 201 252 318 377
#     4  10  20  38  64  92 120 161 211 256 312 374
#     4   8  18  40  58  98 120 158 206 270 306 362
#     4  10  21  37  58  89 126 159 196 247 308 374
#
# _framework density 19.279302000000001
#
# number of rings (size 3 to 8) (size 9 to 14) (size 15 to 20)
#    0.444    0.815    4.444    2.667    0.000    1.778 
#    0.000    0.370    0.000    2.667    0.000    7.259 
#    0.000    0.000    0.000    0.000    0.000    0.000 
#
# Total GULP energy -300860.440970 kJ/mol
# GULP energy per Si atom -5571.489648 kJ/mol
# Density = 1.923542 g / cm^3
# Si number density = 19.279302 Si / 1000 Ang^3
#
#
#
# Elastic Constant Matrix: (Units=GPa)
#
#
# Indices 1 2 3 4 5 6 
#
# 1 61.5688 9.1580 39.5801 0.0000 0.0000 0.0000
# 2 9.1580 73.5003 41.8189 0.0000 0.0000 0.0000
# 3 39.5801 41.8189 139.3717 0.0003 0.0000 0.0000
# 4 0.0000 0.0000 0.0003 44.9279 0.0000 -0.0001
# 5 0.0000 0.0000 0.0000 0.0000 9.5603 0.0000
# 6 0.0000 0.0000 0.0000 -0.0001 0.0000 7.4809
#
#
#
# Elastic Compliance Matrix: (Units=1/GPa)
#
#
# Indices 1 2 3 4 5 6 
#
# 1 0.019917 0.000888 -0.005923 0.000000 0.000000 0.000000
# 2 0.000888 0.016446 -0.005187 0.000000 0.000000 0.000000
# 3 -0.005923 -0.005187 0.010413 0.000000 0.000000 0.000000
# 4 0.000000 0.000000 0.000000 0.022258 0.000000 0.000000
# 5 0.000000 0.000000 0.000000 0.000000 0.104599 0.000000
# 6 0.000000 0.000000 0.000000 0.000000 0.000000 0.133673
#
#
# Mechanical properties :
#
#
# Convention : Reuss Voigt Hill
#
# Bulk Modulus (GPa) = 37.97417 50.61719 44.29568
# Shear Modulus (GPa) = 14.85764 24.65277 19.75520
#
# Velocity S-wave (km/s) = 2.77907 3.57979 3.20454
# Velocity P-wave (km/s) = 5.48063 6.58773 6.05952
#
# Compressibility (1/GPa) = 0.02633369
#
# Stress axis : x y z
#
# Youngs Moduli (GPa) = 50.20729 60.80555 96.02985
#
# Poissons Ratio (x) = -0.05401 0.56877
# Poissons Ratio (y) = -0.04460 0.49810
# Poissons Ratio (z) = 0.29737 0.31539
#
# Static dielectric constant tensor:
#      x y z
#    x 1.665620 0.000000 0.000000 
#    y 0.000000 1.669270 0.000000 
#    z 0.000000 0.000000 1.683250 
# 
# From -- ./inp_files/34933.got.cif
#   From: 2010.05.17/outbox.cif.g08.bks.cpg/sg71_18_cif.got.tgz:34933.got - 2010.06.03 16:22:01.
