data_PCOD9521631
_publ_section_title
;
Structure prediction by ZEFSAII (Michael W. Deem and Ramdas Pophale) SiO2 
 PCOD9521631
Probable space group: I M M M
;
_chemical_formula_sum "Si O2"
_cell_formula_units_Z 104
_cell_length_a 32.399123
_cell_length_b 20.508911
_cell_length_c 9.190486
_cell_angle_alpha 90.000000
_cell_angle_beta 90.000000
_cell_angle_gamma 90.000000
_cell_volume 6106.808942
_symmetry_space_group_name_H-M "I M M M"
_symmetry_group_IT_number 71
_symmetry_cell_setting 'orthorhombic'
loop_
_space_group_symop_operation_xyz
x,y,z
-x,-y,z
x,-y,-z
-x,y,-z
-x,-y,-z
x,y,-z
-x,y,z
x,-y,z
1/2+x,1/2+y,1/2+z
1/2-x,1/2-y,1/2+z
1/2+x,1/2-y,1/2-z
1/2-x,1/2+y,1/2-z
1/2-x,1/2-y,1/2-z
1/2+x,1/2+y,1/2-z
1/2-x,1/2+y,1/2+z
1/2+x,1/2-y,1/2+z
loop_
_atom_site_type_symbol
_atom_site_label
_atom_site_fract_x
_atom_site_fract_y
_atom_site_fract_z
Si Si1 0.130581 0.304347 0.173846
Si Si2 0.775987 0.075529 0.174029
Si Si3 0.049336 0.000000 0.838009
Si Si4 0.164757 0.178169 0.331800
Si Si5 0.071368 0.871946 0.665203
Si Si6 0.188803 0.574339 0.171168
Si Si7 0.953740 0.728708 0.675607
O O1 0.156876 0.245843 0.247140
O O2 0.154275 0.371904 0.201259
O O3 0.084926 0.303857 0.244134
O O4 0.127759 0.293769 0.000000
O O5 0.804255 0.129050 0.252312
O O6 0.729387 0.084089 0.231844
O O7 0.788053 0.000000 0.209160
O O8 0.777941 0.083032 0.000000
O O9 0.062946 0.065310 0.759011
O O10 0.000000 0.000000 0.842409
O O11 0.066562 0.000000 0.000000
O O12 0.177122 0.189893 0.500000
O O13 0.119795 0.144513 0.334126
O O14 0.057942 0.884991 0.500000
O O15 0.049261 0.805533 0.714680
O O16 0.174121 0.500000 0.193649
O O17 0.200466 0.580514 0.000000
O O18 0.947680 0.724889 0.500000
O O19 0.000000 0.704718 0.709450
#
# Coordination Sequence:
#
# PCOD9521631 Si02
#       7
#    16  16   8  16  16  16  16
#     4  10  20  34  55  82 108 134 171 218 264 307
#     4  10  21  35  53  79 107 137 177 223 266 306
#     4  11  23  33  43  65  95 127 165 213 267 309
#     4  10  21  36  53  74 103 140 179 215 260 314
#     4   9  19  34  50  68  91 128 174 212 249 301
#     4   9  19  37  58  79 105 139 174 208 255 318
#     4   9  18  34  55  77 102 134 171 210 256 313
#
# _framework density 17.030170999999999
#
# number of rings (size 3 to 8) (size 9 to 14) (size 15 to 20)
#    0.000    2.385    0.000    3.000    1.077    7.385 
#    0.000    0.000    0.000    0.462    0.000    3.231 
#    0.000    0.000    0.000    0.000    0.000    0.000 
#
# Total GULP energy -290033.566152 kJ/mol
# GULP energy per Si atom -5577.568580 kJ/mol
# Density = 1.699141 g / cm^3
# Si number density = 17.030171 Si / 1000 Ang^3
#
#
#
# Elastic Constant Matrix: (Units=GPa)
#
#
# Indices 1 2 3 4 5 6 
#
# 1 93.9571 71.8704 55.1010 0.0000 0.0000 0.0000
# 2 71.8704 101.7613 63.7066 0.0000 0.0000 0.0000
# 3 55.1010 63.7066 81.3584 0.0000 0.0000 0.0000
# 4 0.0000 0.0000 0.0000 24.3753 0.0000 0.0000
# 5 0.0000 0.0000 0.0000 0.0000 29.3576 0.0000
# 6 0.0000 0.0000 0.0000 0.0000 0.0000 8.0336
#
#
#
# Elastic Compliance Matrix: (Units=1/GPa)
#
#
# Indices 1 2 3 4 5 6 
#
# 1 0.024549 -0.013593 -0.005982 0.000000 0.000000 0.000000
# 2 -0.013593 0.026803 -0.011782 0.000000 0.000000 0.000000
# 3 -0.005982 -0.011782 0.025568 0.000000 0.000000 0.000000
# 4 0.000000 0.000000 0.000000 0.041025 0.000000 0.000000
# 5 0.000000 0.000000 0.000000 0.000000 0.034063 0.000000
# 6 0.000000 0.000000 0.000000 0.000000 0.000000 0.124477
#
#
# Mechanical properties :
#
#
# Convention : Reuss Voigt Hill
#
# Bulk Modulus (GPa) = 70.39078 73.15918 71.77498
# Shear Modulus (GPa) = 14.53764 18.11323 16.32544
#
# Velocity S-wave (km/s) = 2.92488 3.26482 3.09952
# Velocity P-wave (km/s) = 7.26838 7.56729 7.41934
#
# Compressibility (1/GPa) = 0.01420641
#
# Stress axis : x y z
#
# Youngs Moduli (GPa) = 40.73455 37.30940 39.11068
#
# Poissons Ratio (x) = 0.50714 0.23398
# Poissons Ratio (y) = 0.55370 0.46079
# Poissons Ratio (z) = 0.24369 0.43957
#
# Static dielectric constant tensor:
#      x y z
#    x 1.568580 0.000000 0.000000 
#    y 0.000000 1.549930 0.000000 
#    z 0.000000 0.000000 1.584150 
# 
# From -- ./inp_files/16989.got.cif
#   From: 2010.05.17/outbox.cif.g08.bks.cpg/sg71_9_cif.got.tgz:16989.got - 2010.06.03 16:22:01.
