data_PCOD9521897
_publ_section_title
;
Structure prediction by ZEFSAII (Michael W. Deem and Ramdas Pophale) SiO2 
 PCOD9521897
Probable space group: I M M M
;
_chemical_formula_sum "Si O2"
_cell_formula_units_Z 90
_cell_length_a 7.491786
_cell_length_b 24.813906
_cell_length_c 23.560508
_cell_angle_alpha 90.000000
_cell_angle_beta 90.000000
_cell_angle_gamma 90.000000
_cell_volume 4379.909595
_symmetry_space_group_name_H-M "I M M M"
_symmetry_group_IT_number 71
_symmetry_cell_setting 'orthorhombic'
loop_
_space_group_symop_operation_xyz
x,y,z
-x,-y,z
x,-y,-z
-x,y,-z
-x,-y,-z
x,y,-z
-x,y,z
x,-y,z
1/2+x,1/2+y,1/2+z
1/2-x,1/2-y,1/2+z
1/2+x,1/2-y,1/2-z
1/2-x,1/2+y,1/2-z
1/2-x,1/2-y,1/2-z
1/2+x,1/2+y,1/2-z
1/2-x,1/2+y,1/2+z
1/2+x,1/2-y,1/2+z
loop_
_atom_site_type_symbol
_atom_site_label
_atom_site_fract_x
_atom_site_fract_y
_atom_site_fract_z
Si Si1 0.284354 0.938307 0.563478
Si Si2 0.207876 0.867229 0.329444
Si Si3 0.707606 0.362289 0.377233
Si Si4 0.211661 0.250541 0.317113
Si Si5 0.280732 0.562351 0.723054
Si Si6 0.500000 0.000000 0.000000
Si Si7 0.219905 0.899630 0.000000
O O1 0.227196 0.922589 0.500000
O O2 0.500000 0.937877 0.564268
O O3 0.219914 0.900246 0.612951
O O4 0.227202 0.000000 0.573546
O O5 0.284170 0.807418 0.337168
O O6 0.280774 0.903046 0.277599
O O7 0.000000 0.858949 0.314676
O O8 0.500000 0.375878 0.379849
O O9 0.720352 0.303477 0.348952
O O10 0.783455 0.406400 0.333189
O O11 0.768848 0.367759 0.442010
O O12 0.250000 0.250000 0.250000
O O13 0.000000 0.252816 0.325719
O O14 0.500000 0.561946 0.723824
O O15 0.224915 0.500000 0.725303
O O16 0.340702 0.952986 0.000000
O O17 0.000000 0.908854 0.000000
#
# Coordination Sequence:
#
# PCOD9521897 Si02
#       7
#    16  16  16  16  16   2   8
#     4   9  19  36  56  79 112 150 185 229 288 350
#     4  10  20  35  55  83 113 149 196 241 294 355
#     4  10  21  41  63  88 124 162 211 257 315 383
#     4  11  22  38  61  87 117 157 202 251 309 371
#     4   9  17  31  55  84 116 150 185 238 302 364
#     4  12  26  44  76  98 140 172 226 272 348 394
#     4  10  25  45  69 100 131 177 225 272 330 406
#
# _framework density 20.548369000000001
#
# number of rings (size 3 to 8) (size 9 to 14) (size 15 to 20)
#    0.000    2.133    1.778    1.733    2.489    2.844 
#    1.600    0.889    0.000    0.000    0.000    0.000 
#    0.000    0.000    0.000    0.000    0.000    0.000 
#
# Total GULP energy -250802.373537 kJ/mol
# GULP energy per Si atom -5573.386079 kJ/mol
# Density = 2.050160 g / cm^3
# Si number density = 20.548369 Si / 1000 Ang^3
#
#
#
# Elastic Constant Matrix: (Units=GPa)
#
#
# Indices 1 2 3 4 5 6 
#
# 1 58.8915 -2.5441 -7.1350 0.0000 0.0000 0.0000
# 2 -2.5441 151.3209 88.5699 0.0000 0.0000 0.0000
# 3 -7.1350 88.5699 136.1146 0.0000 0.0000 0.0000
# 4 0.0000 0.0000 0.0000 20.1346 0.0000 0.0000
# 5 0.0000 0.0000 0.0000 0.0000 76.9572 0.0000
# 6 0.0000 0.0000 0.0000 0.0000 0.0000 23.7589
#
#
#
# Elastic Compliance Matrix: (Units=1/GPa)
#
#
# Indices 1 2 3 4 5 6 
#
# 1 0.017103 -0.000383 0.001146 0.000000 0.000000 0.000000
# 2 -0.000383 0.010682 -0.006971 0.000000 0.000000 0.000000
# 3 0.001146 -0.006971 0.011943 0.000000 0.000000 0.000000
# 4 0.000000 0.000000 0.000000 0.049666 0.000000 0.000000
# 5 0.000000 0.000000 0.000000 0.000000 0.012994 0.000000
# 6 0.000000 0.000000 0.000000 0.000000 0.000000 0.042090
#
#
# Mechanical properties :
#
#
# Convention : Reuss Voigt Hill
#
# Bulk Modulus (GPa) = 36.61520 56.01207 46.31364
# Shear Modulus (GPa) = 30.12088 41.99920 36.06004
#
# Velocity S-wave (km/s) = 3.83280 4.52588 4.19368
# Velocity P-wave (km/s) = 6.11922 7.39116 6.78506
#
# Compressibility (1/GPa) = 0.02731106
#
# Stress axis : x y z
#
# Youngs Moduli (GPa) = 58.47051 93.61310 83.73189
#
# Poissons Ratio (x) = 0.03586 -0.09594
# Poissons Ratio (y) = 0.02240 0.58370
# Poissons Ratio (z) = -0.06699 0.65258
#
# Static dielectric constant tensor:
#      x y z
#    x 1.815700 0.000000 0.000000 
#    y 0.000000 1.716050 0.000000 
#    z 0.000000 0.000000 1.715550 
# 
# From -- ./inp_files/50613.got.cif
#   From: 2010.05.17/outbox.cif.g08.bks.cpg/sg71_26_cif.got.tgz:50613.got - 2010.06.03 16:22:01.
