data_PCOD9521234
_publ_section_title
;
Structure prediction by ZEFSAII (Michael W. Deem and Ramdas Pophale) SiO2 
 PCOD9521234
Probable space group: I M M M
;
_chemical_formula_sum "Si O2"
_cell_formula_units_Z 82
_cell_length_a 24.519219
_cell_length_b 7.481699
_cell_length_c 24.263315
_cell_angle_alpha 90.000000
_cell_angle_beta 90.000000
_cell_angle_gamma 90.000000
_cell_volume 4450.993920
_symmetry_space_group_name_H-M "I M M M"
_symmetry_group_IT_number 71
_symmetry_cell_setting 'orthorhombic'
loop_
_space_group_symop_operation_xyz
x,y,z
-x,-y,z
x,-y,-z
-x,y,-z
-x,-y,-z
x,y,-z
-x,y,z
x,-y,z
1/2+x,1/2+y,1/2+z
1/2-x,1/2-y,1/2+z
1/2+x,1/2-y,1/2-z
1/2-x,1/2+y,1/2-z
1/2-x,1/2-y,1/2-z
1/2+x,1/2+y,1/2-z
1/2-x,1/2+y,1/2+z
1/2+x,1/2-y,1/2+z
loop_
_atom_site_type_symbol
_atom_site_label
_atom_site_fract_x
_atom_site_fract_y
_atom_site_fract_z
Si Si1 0.743411 0.715992 0.937344
Si Si2 0.065149 0.500000 0.066355
Si Si3 0.440896 0.000000 0.112573
Si Si4 0.145220 0.215671 0.354955
Si Si5 0.000000 0.500000 0.500000
Si Si6 0.186855 0.212850 0.237152
Si Si7 0.856827 0.207587 0.118893
O O1 0.746154 0.500000 0.936558
O O2 0.696839 0.766646 0.893425
O O3 0.802398 0.783355 0.918461
O O4 0.730654 0.771636 0.000000
O O5 0.096283 0.670128 0.092737
O O6 0.000000 0.500000 0.077127
O O7 0.072960 0.500000 0.000000
O O8 0.406958 0.823616 0.125747
O O9 0.500000 0.000000 0.141515
O O10 0.453889 0.000000 0.048318
O O11 0.155881 0.271214 0.291971
O O12 0.139345 0.000000 0.357962
O O13 0.250000 0.250000 0.250000
O O14 0.163337 0.278587 0.178988
O O15 0.181949 0.000000 0.233800
O O16 0.873837 0.000000 0.123316
#
# Coordination Sequence:
#
# PCOD9521234 Si02
#       7
#    16   8   8  16   2  16  16
#     4  10  20  33  54  88 125 159 198 254 317 379
#     4  11  26  47  69  90 122 170 222 269 313 377
#     4  10  24  43  62  85 122 166 214 267 310 369
#     4  10  22  39  60  91 124 163 213 261 314 379
#     4   8  24  48  62  92 120 170 232 272 306 384
#     4  10  21  35  59  94 131 169 207 250 318 390
#     4  11  23  39  61  94 129 165 206 260 322 382
#
# _framework density 18.422853
#
# number of rings (size 3 to 8) (size 9 to 14) (size 15 to 20)
#    0.293    1.463    2.927    0.585    5.463    2.341 
#    0.000    3.415    0.000    3.512    0.000    0.000 
#    0.000    0.000    0.000    0.000    0.000    0.000 
#
# Total GULP energy -228513.611294 kJ/mol
# GULP energy per Si atom -5573.502714 kJ/mol
# Density = 1.838092 g / cm^3
# Si number density = 18.422853 Si / 1000 Ang^3
#
#
#
# Elastic Constant Matrix: (Units=GPa)
#
#
# Indices 1 2 3 4 5 6 
#
# 1 139.3480 51.1873 62.8064 0.0000 0.0000 0.0000
# 2 51.1873 84.3572 37.4005 0.0000 0.0000 0.0000
# 3 62.8064 37.4005 147.1444 0.0000 0.0000 0.0000
# 4 0.0000 0.0000 0.0000 12.4822 0.0000 0.0000
# 5 0.0000 0.0000 0.0000 0.0000 32.9824 0.0000
# 6 0.0000 0.0000 0.0000 0.0000 0.0000 14.7756
#
#
#
# Elastic Compliance Matrix: (Units=1/GPa)
#
#
# Indices 1 2 3 4 5 6 
#
# 1 0.010421 -0.004904 -0.003201 0.000000 0.000000 0.000000
# 2 -0.004904 0.015667 -0.001889 0.000000 0.000000 0.000000
# 3 -0.003201 -0.001889 0.008643 0.000000 0.000000 0.000000
# 4 0.000000 0.000000 0.000000 0.080114 0.000000 0.000000
# 5 0.000000 0.000000 0.000000 0.000000 0.030319 0.000000
# 6 0.000000 0.000000 0.000000 0.000000 0.000000 0.067679
#
#
# Mechanical properties :
#
#
# Convention : Reuss Voigt Hill
#
# Bulk Modulus (GPa) = 67.83338 74.84866 71.34102
# Shear Modulus (GPa) = 21.03084 26.67839 23.85461
#
# Velocity S-wave (km/s) = 3.38237 3.80954 3.60229
# Velocity P-wave (km/s) = 7.22178 7.75026 7.49068
#
# Compressibility (1/GPa) = 0.01474200
#
# Stress axis : x y z
#
# Youngs Moduli (GPa) = 95.96451 63.82651 115.70420
#
# Poissons Ratio (x) = 0.31299 0.37042
# Poissons Ratio (y) = 0.47058 0.21859
# Poissons Ratio (z) = 0.30723 0.12058
#
# Static dielectric constant tensor:
#      x y z
#    x 1.539340 0.000000 0.000000 
#    y 0.000000 1.661980 0.000000 
#    z 0.000000 0.000000 1.657470 
# 
# From -- ./inp_files/61057.got.cif
#   From: 2010.05.17/outbox.cif.g08.bks.cpg/sg71_31_cif.got.tgz:61057.got - 2010.06.03 16:22:01.
