data_PCOD9521744
_publ_section_title
;
Structure prediction by ZEFSAII (Michael W. Deem and Ramdas Pophale) SiO2 
 PCOD9521744
Probable space group: I M M M
;
_chemical_formula_sum "Si O2"
_cell_formula_units_Z 88
_cell_length_a 8.924680
_cell_length_b 27.968027
_cell_length_c 19.827941
_cell_angle_alpha 90.000000
_cell_angle_beta 90.000000
_cell_angle_gamma 90.000000
_cell_volume 4949.166919
_symmetry_space_group_name_H-M "I M M M"
_symmetry_group_IT_number 71
_symmetry_cell_setting 'orthorhombic'
loop_
_space_group_symop_operation_xyz
x,y,z
-x,-y,z
x,-y,-z
-x,y,-z
-x,-y,-z
x,y,-z
-x,y,z
x,-y,z
1/2+x,1/2+y,1/2+z
1/2-x,1/2-y,1/2+z
1/2+x,1/2-y,1/2-z
1/2-x,1/2+y,1/2-z
1/2-x,1/2-y,1/2-z
1/2+x,1/2+y,1/2-z
1/2-x,1/2+y,1/2+z
1/2+x,1/2-y,1/2+z
loop_
_atom_site_type_symbol
_atom_site_label
_atom_site_fract_x
_atom_site_fract_y
_atom_site_fract_z
Si Si1 0.678292 0.791244 0.837932
Si Si2 0.820904 0.444437 0.319512
Si Si3 0.321388 0.316766 0.805726
Si Si4 0.679491 0.914823 0.665307
Si Si5 0.820795 0.000000 0.420257
Si Si6 0.821324 0.129665 0.077305
O O1 0.500000 0.798725 0.833457
O O2 0.707035 0.734495 0.840616
O O3 0.752808 0.811150 0.769251
O O4 0.746237 0.820977 0.899018
O O5 0.784513 0.500000 0.330228
O O6 0.785374 0.430723 0.242309
O O7 0.737559 0.410674 0.371906
O O8 0.000000 0.438160 0.327777
O O9 0.500000 0.323773 0.800850
O O10 0.245904 0.361736 0.841834
O O11 0.500000 0.914654 0.657830
O O12 0.751089 0.953354 0.615331
O O13 0.788854 0.000000 0.500000
O O14 0.000000 0.000000 0.410830
O O15 0.000000 0.133692 0.083020
O O16 0.782645 0.118448 0.000000
#
# Coordination Sequence:
#
# PCOD9521744 Si02
#       6
#    16  16  16  16   8  16
#     4  10  20  35  56  84 116 151 194 241 291 348
#     4  10  21  38  59  85 115 149 195 243 289 346
#     4  10  20  34  57  88 118 149 190 242 293 344
#     4  11  21  37  62  91 121 153 194 242 292 351
#     4  11  25  43  63  89 122 159 196 237 293 356
#     4  11  24  39  56  82 118 158 199 245 297 352
#
# _framework density 17.78077
#
# number of rings (size 3 to 8) (size 9 to 14) (size 15 to 20)
#    0.000    1.545    2.727    2.455    0.000    5.818 
#    0.000    2.727    0.000    1.091    0.000    0.000 
#    0.000    0.000    0.000    0.000    0.000    0.000 
#
# Total GULP energy -245832.478441 kJ/mol
# GULP energy per Si atom -5587.101783 kJ/mol
# Density = 1.774030 g / cm^3
# Si number density = 17.780770 Si / 1000 Ang^3
#
#
#
# Elastic Constant Matrix: (Units=GPa)
#
#
# Indices 1 2 3 4 5 6 
#
# 1 79.7814 74.1224 70.9718 0.0000 0.0000 0.0000
# 2 74.1224 149.7940 75.2009 0.0000 0.0000 0.0000
# 3 70.9718 75.2009 113.3513 0.0001 0.0000 0.0000
# 4 0.0000 0.0000 0.0001 25.8747 0.0000 0.0000
# 5 0.0000 0.0000 0.0000 0.0000 26.4976 0.0000
# 6 0.0000 0.0000 0.0000 0.0000 0.0000 34.7764
#
#
#
# Elastic Compliance Matrix: (Units=1/GPa)
#
#
# Indices 1 2 3 4 5 6 
#
# 1 0.035680 -0.009656 -0.015934 0.000000 0.000000 0.000000
# 2 -0.009656 0.012623 -0.002329 0.000000 0.000000 0.000000
# 3 -0.015934 -0.002329 0.020343 0.000000 0.000000 0.000000
# 4 0.000000 0.000000 0.000000 0.038648 0.000000 0.000000
# 5 0.000000 0.000000 0.000000 0.000000 0.037739 0.000000
# 6 0.000000 0.000000 0.000000 0.000000 0.000000 0.028755
#
#
# Mechanical properties :
#
#
# Convention : Reuss Voigt Hill
#
# Bulk Modulus (GPa) = 78.06811 87.05744 82.56277
# Shear Modulus (GPa) = 21.37710 25.60518 23.49114
#
# Velocity S-wave (km/s) = 3.47112 3.79891 3.63871
# Velocity P-wave (km/s) = 7.75024 8.26500 8.01175
#
# Compressibility (1/GPa) = 0.01280933
#
# Stress axis : x y z
#
# Youngs Moduli (GPa) = 28.02703 79.22044 49.15596
#
# Poissons Ratio (x) = 0.76497 0.78324
# Poissons Ratio (y) = 0.27064 0.11446
# Poissons Ratio (z) = 0.44657 0.18447
#
# Static dielectric constant tensor:
#      x y z
#    x 1.591780 0.000000 0.000000 
#    y 0.000000 1.609960 0.000000 
#    z 0.000000 0.000000 1.579440 
# 
# From -- ./inp_files/42498.got.cif
#   From: 2010.05.17/outbox.cif.g08.bks.cpg/sg71_22_cif.got.tgz:42498.got - 2010.06.03 16:22:01.
