data_PCOD9521330
_publ_section_title
;
Structure prediction by ZEFSAII (Michael W. Deem and Ramdas Pophale) SiO2 
 PCOD9521330
Probable space group: I M M M
;
_chemical_formula_sum "Si O2"
_cell_formula_units_Z 104
_cell_length_a 20.313324
_cell_length_b 7.632166
_cell_length_c 31.957577
_cell_angle_alpha 90.000000
_cell_angle_beta 90.000000
_cell_angle_gamma 90.000000
_cell_volume 4954.532110
_symmetry_space_group_name_H-M "I M M M"
_symmetry_group_IT_number 71
_symmetry_cell_setting 'orthorhombic'
loop_
_space_group_symop_operation_xyz
x,y,z
-x,-y,z
x,-y,-z
-x,y,-z
-x,-y,-z
x,y,-z
-x,y,z
x,-y,z
1/2+x,1/2+y,1/2+z
1/2-x,1/2-y,1/2+z
1/2+x,1/2-y,1/2-z
1/2-x,1/2+y,1/2-z
1/2-x,1/2-y,1/2-z
1/2+x,1/2+y,1/2-z
1/2-x,1/2+y,1/2+z
1/2+x,1/2-y,1/2+z
loop_
_atom_site_type_symbol
_atom_site_label
_atom_site_fract_x
_atom_site_fract_y
_atom_site_fract_z
Si Si1 0.572756 0.791375 0.244711
Si Si2 0.302592 0.213868 0.097600
Si Si3 0.796737 0.199564 0.693715
Si Si4 0.157955 0.209417 0.919286
Si Si5 0.929274 0.713559 0.451722
Si Si6 0.348273 0.211752 0.321764
Si Si7 0.923872 0.784938 0.000000
O O1 0.500000 0.723299 0.231892
O O2 0.636947 0.766352 0.215537
O O3 0.594891 0.726048 0.290580
O O4 0.566321 0.000000 0.247661
O O5 0.307081 0.286390 0.144108
O O6 0.233741 0.269223 0.077035
O O7 0.365716 0.273822 0.072384
O O8 0.302387 0.000000 0.100090
O O9 0.722508 0.278792 0.696561
O O10 0.790617 0.000000 0.707703
O O11 0.140674 0.245387 0.870568
O O12 0.157907 0.000000 0.923413
O O13 0.112651 0.274707 0.957292
O O14 0.926296 0.766050 0.500000
O O15 0.928214 0.500000 0.451042
O O16 0.000000 0.768757 0.434001
O O17 0.344838 0.000000 0.319982
O O18 0.000000 0.731553 0.000000
O O19 0.922805 0.000000 0.000000
#
# Coordination Sequence:
#
# PCOD9521330 Si02
#       7
#    16  16  16  16  16  16   8
#     4  10  21  36  54  76 101 131 168 210 256 303
#     4   9  17  29  48  72  97 127 165 206 247 293
#     4  10  20  34  52  74 102 133 166 205 250 303
#     4   9  18  31  50  75  99 129 170 210 249 298
#     4   8  14  24  40  65  93 119 152 197 244 284
#     4   9  19  36  55  75 102 134 167 208 257 305
#     4   9  18  32  49  73 106 138 168 209 261 306
#
# _framework density 20.990884000000001
#
# number of rings (size 3 to 8) (size 9 to 14) (size 15 to 20)
#    0.000    2.846    0.000    1.385    1.077    2.769 
#    0.000    1.923    0.000    0.923    0.000    1.077 
#    0.000    0.000    0.000    0.000    0.000    0.000 
#
# Total GULP energy -289751.124601 kJ/mol
# GULP energy per Si atom -5572.137012 kJ/mol
# Density = 2.094311 g / cm^3
# Si number density = 20.990884 Si / 1000 Ang^3
#
#
#
# Elastic Constant Matrix: (Units=GPa)
#
#
# Indices 1 2 3 4 5 6 
#
# 1 161.8471 13.6493 102.0840 0.0000 0.0000 0.0000
# 2 13.6493 38.0576 7.8945 0.0000 0.0000 0.0000
# 3 102.0840 7.8945 94.6750 0.0000 0.0000 0.0000
# 4 0.0000 0.0000 0.0000 -20.3033 0.0000 0.0000
# 5 0.0000 0.0000 0.0000 0.0000 21.9578 0.0000
# 6 0.0000 0.0000 0.0000 0.0000 0.0000 5.6802
#
#
#
# Elastic Compliance Matrix: (Units=1/GPa)
#
#
# Indices 1 2 3 4 5 6 
#
# 1 0.019581 -0.002690 -0.020890 0.000000 0.000000 0.000000
# 2 -0.002690 0.027108 0.000640 0.000000 0.000000 0.000000
# 3 -0.020890 0.000640 0.033033 0.000000 0.000000 0.000000
# 4 0.000000 0.000000 0.000000 -0.049253 0.000000 0.000000
# 5 0.000000 0.000000 0.000000 0.000000 0.045542 0.000000
# 6 0.000000 0.000000 0.000000 0.000000 0.000000 0.176050
#
#
# Mechanical properties :
#
#
# Convention : Reuss Voigt Hill
#
# Bulk Modulus (GPa) = 29.54752 60.20394 44.87573
# Shear Modulus (GPa) = 16.16960 12.86372 14.51666
#
# Velocity S-wave (km/s) = 2.77847 2.47821 2.63262
# Velocity P-wave (km/s) = 4.93964 6.07717 5.53769
#
# Compressibility (1/GPa) = 0.03384379
#
# Stress axis : x y z
#
# Youngs Moduli (GPa) = 51.06868 36.88963 30.27232
#
# Poissons Ratio (x) = 0.09922 0.63238
# Poissons Ratio (y) = 0.13735 -0.01936
# Poissons Ratio (z) = 1.06680 -0.02360
#
# Static dielectric constant tensor:
#      x y z
#    x 1.793560 0.000000 0.000000 
#    y 0.000000 1.800210 0.000000 
#    z 0.000000 0.000000 1.728060 
# 
# From -- ./inp_files/70740.got.cif
#   From: 2010.05.17/outbox.cif.g08.bks.cpg/sg71_36_cif.got.tgz:70740.got - 2010.06.03 16:22:01.
