data_PCOD9521972
_publ_section_title
;
Structure prediction by ZEFSAII (Michael W. Deem and Ramdas Pophale) SiO2 
 PCOD9521972
Probable space group: I M M M
;
_chemical_formula_sum "Si O2"
_cell_formula_units_Z 72
_cell_length_a 32.941623
_cell_length_b 13.907939
_cell_length_c 7.878961
_cell_angle_alpha 90.000000
_cell_angle_beta 90.000000
_cell_angle_gamma 90.000000
_cell_volume 3609.746638
_symmetry_space_group_name_H-M "I M M M"
_symmetry_group_IT_number 71
_symmetry_cell_setting 'orthorhombic'
loop_
_space_group_symop_operation_xyz
x,y,z
-x,-y,z
x,-y,-z
-x,y,-z
-x,-y,-z
x,y,-z
-x,y,z
x,-y,z
1/2+x,1/2+y,1/2+z
1/2-x,1/2-y,1/2+z
1/2+x,1/2-y,1/2-z
1/2-x,1/2+y,1/2-z
1/2-x,1/2-y,1/2-z
1/2+x,1/2+y,1/2-z
1/2-x,1/2+y,1/2+z
1/2+x,1/2-y,1/2+z
loop_
_atom_site_type_symbol
_atom_site_label
_atom_site_fract_x
_atom_site_fract_y
_atom_site_fract_z
Si Si1 0.229899 0.500000 0.202247
Si Si2 0.000000 0.612168 0.707376
Si Si3 0.630683 0.610875 0.704758
Si Si4 0.363997 0.000000 0.206058
Si Si5 0.717898 0.326354 0.310416
Si Si6 0.086562 0.691951 0.704979
O O1 0.182003 0.500000 0.231133
O O2 0.252788 0.584584 0.295098
O O3 0.237861 0.500000 0.000000
O O4 0.040921 0.666044 0.761503
O O5 0.000000 0.500000 0.760520
O O6 0.000000 0.610757 0.500000
O O7 0.632757 0.603260 0.500000
O O8 0.621760 0.500000 0.764113
O O9 0.674993 0.645369 0.772988
O O10 0.601361 0.701447 0.743200
O O11 0.385868 0.900014 0.260612
O O12 0.364446 0.000000 0.000000
O O13 0.706546 0.297365 0.500000
O O14 0.750000 0.250000 0.250000
O O15 0.087336 0.690582 0.500000
#
# Coordination Sequence:
#
# PCOD9521972 Si02
#       6
#     8   8  16   8  16  16
#     4  12  24  36  53  81 115 155 197 240 290 344
#     4   9  16  34  62  91 124 152 183 232 299 364
#     4  10  22  41  59  78 114 162 200 239 296 352
#     4  10  20  35  56  86 122 154 193 243 300 358
#     4  11  22  39  59  81 111 152 199 249 300 347
#     4  10  20  35  61  92 117 151 194 241 294 356
#
# _framework density 19.945999
#
# number of rings (size 3 to 8) (size 9 to 14) (size 15 to 20)
#    0.000    1.667    2.222    3.000    0.000    6.667 
#    0.000    1.111    0.000    4.000    0.000    0.000 
#    0.000    0.000    0.000    0.000    0.000    0.000 
#
# Total GULP energy -200454.427483 kJ/mol
# GULP energy per Si atom -5568.178541 kJ/mol
# Density = 1.990060 g / cm^3
# Si number density = 19.945999 Si / 1000 Ang^3
#
#
#
# Elastic Constant Matrix: (Units=GPa)
#
#
# Indices 1 2 3 4 5 6 
#
# 1 156.8339 79.8513 -7.7669 0.0000 0.0000 0.0000
# 2 79.8513 196.6664 -5.8865 0.0000 0.0000 0.0000
# 3 -7.7669 -5.8865 22.0710 0.0000 0.0000 0.0000
# 4 0.0000 0.0000 0.0000 41.0437 0.0000 0.0000
# 5 0.0000 0.0000 0.0000 0.0000 8.2831 0.0000
# 6 0.0000 0.0000 0.0000 0.0000 0.0000 56.1676
#
#
#
# Elastic Compliance Matrix: (Units=1/GPa)
#
#
# Indices 1 2 3 4 5 6 
#
# 1 0.008124 -0.003239 0.001995 0.000000 0.000000 0.000000
# 2 -0.003239 0.006417 0.000572 0.000000 0.000000 0.000000
# 3 0.001995 0.000572 0.046163 0.000000 0.000000 0.000000
# 4 0.000000 0.000000 0.000000 0.024364 0.000000 0.000000
# 5 0.000000 0.000000 0.000000 0.000000 0.120728 0.000000
# 6 0.000000 0.000000 0.000000 0.000000 0.000000 0.017804
#
#
# Mechanical properties :
#
#
# Convention : Reuss Voigt Hill
#
# Bulk Modulus (GPa) = 16.84647 56.44079 36.64363
# Shear Modulus (GPa) = 20.43065 41.72377 31.07721
#
# Velocity S-wave (km/s) = 3.20394 4.57862 3.95152
# Velocity P-wave (km/s) = 4.70652 7.50399 6.26344
#
# Compressibility (1/GPa) = 0.05935962
#
# Stress axis : x y z
#
# Youngs Moduli (GPa) = 123.09193 155.83835 21.66242
#
# Poissons Ratio (x) = 0.50473 -0.04322
# Poissons Ratio (y) = 0.39867 -0.01238
# Poissons Ratio (z) = -0.24558 -0.08909
#
# Static dielectric constant tensor:
#      x y z
#    x 1.759110 0.000000 0.000000 
#    y 0.000000 1.682120 0.000000 
#    z 0.000000 0.000000 1.778490 
# 
# From -- ./inp_files/14369.got.cif
#   From: 2010.05.17/outbox.cif.g08.bks.cpg/sg71_8_cif.got.tgz:14369.got - 2010.06.03 16:22:01.
