data_PCOD9521448
_publ_section_title
;
Structure prediction by ZEFSAII (Michael W. Deem and Ramdas Pophale) SiO2 
 PCOD9521448
Probable space group: I M M M
;
_chemical_formula_sum "Si O2"
_cell_formula_units_Z 72
_cell_length_a 23.246094
_cell_length_b 9.449618
_cell_length_c 14.825664
_cell_angle_alpha 90.000000
_cell_angle_beta 90.000000
_cell_angle_gamma 90.000000
_cell_volume 3256.704809
_symmetry_space_group_name_H-M "I M M M"
_symmetry_group_IT_number 71
_symmetry_cell_setting 'orthorhombic'
loop_
_space_group_symop_operation_xyz
x,y,z
-x,-y,z
x,-y,-z
-x,y,-z
-x,-y,-z
x,y,-z
-x,y,z
x,-y,z
1/2+x,1/2+y,1/2+z
1/2-x,1/2-y,1/2+z
1/2+x,1/2-y,1/2-z
1/2-x,1/2+y,1/2-z
1/2-x,1/2-y,1/2-z
1/2+x,1/2+y,1/2-z
1/2-x,1/2+y,1/2+z
1/2+x,1/2-y,1/2+z
loop_
_atom_site_type_symbol
_atom_site_label
_atom_site_fract_x
_atom_site_fract_y
_atom_site_fract_z
Si Si1 0.322416 0.161522 0.343656
Si Si2 0.066167 0.166101 0.109203
Si Si3 0.284970 0.839129 0.865650
Si Si4 0.000000 0.660729 0.611167
Si Si5 0.395031 0.656204 0.104009
O O1 0.384726 0.234036 0.349729
O O2 0.298790 0.153177 0.241331
O O3 0.275775 0.266827 0.387594
O O4 0.323094 0.000000 0.379086
O O5 0.000000 0.200787 0.134504
O O6 0.076240 0.000000 0.131305
O O7 0.069917 0.178462 0.000000
O O8 0.335018 0.735985 0.897874
O O9 0.288566 0.000000 0.898962
O O10 0.055908 0.744580 0.643935
O O11 0.000000 0.500000 0.642529
O O12 0.000000 0.654309 0.500000
O O13 0.390907 0.500000 0.145435
O O14 0.412718 0.638850 0.000000
#
# Coordination Sequence:
#
# PCOD9521448 Si02
#       5
#    16  16  16   8  16
#     4  10  21  37  57  81 109 142 180 226 276 326
#     4   9  19  37  60  85 113 146 184 225 272 332
#     4  10  21  37  56  78 107 146 185 225 273 328
#     4   9  17  31  51  73 101 137 172 211 262 313
#     4  10  20  34  53  78 107 139 180 227 270 316
#
# _framework density 22.108236999999999
#
# number of rings (size 3 to 8) (size 9 to 14) (size 15 to 20)
#    0.000    2.333    0.000    3.000    0.000    7.111 
#    2.000    1.111    0.000    0.000    0.000    0.000 
#    0.000    0.000    0.000    0.000    0.000    0.000 
#
# Total GULP energy -201015.485329 kJ/mol
# GULP energy per Si atom -5583.763481 kJ/mol
# Density = 2.205792 g / cm^3
# Si number density = 22.108237 Si / 1000 Ang^3
#
#
#
# Elastic Constant Matrix: (Units=GPa)
#
#
# Indices 1 2 3 4 5 6 
#
# 1 181.8139 121.4972 6.6147 0.0000 0.0000 0.0000
# 2 121.4972 231.3865 11.4267 0.0000 0.0000 0.0000
# 3 6.6147 11.4267 46.1210 0.0000 0.0000 0.0000
# 4 0.0000 0.0000 0.0000 11.1214 0.0000 0.0000
# 5 0.0000 0.0000 0.0000 0.0000 25.8350 0.0000
# 6 0.0000 0.0000 0.0000 0.0000 0.0000 37.6855
#
#
#
# Elastic Compliance Matrix: (Units=1/GPa)
#
#
# Indices 1 2 3 4 5 6 
#
# 1 0.008474 -0.004444 -0.000114 0.000000 0.000000 0.000000
# 2 -0.004444 0.006706 -0.001024 0.000000 0.000000 0.000000
# 3 -0.000114 -0.001024 0.021952 0.000000 0.000000 0.000000
# 4 0.000000 0.000000 0.000000 0.089917 0.000000 0.000000
# 5 0.000000 0.000000 0.000000 0.000000 0.038707 0.000000
# 6 0.000000 0.000000 0.000000 0.000000 0.000000 0.026535
#
#
# Mechanical properties :
#
#
# Convention : Reuss Voigt Hill
#
# Bulk Modulus (GPa) = 38.50985 82.04429 60.27707
# Shear Modulus (GPa) = 23.57250 36.24724 29.90987
#
# Velocity S-wave (km/s) = 3.26886 4.05351 3.68215
# Velocity P-wave (km/s) = 5.63062 7.68757 6.73805
#
# Compressibility (1/GPa) = 0.02596738
#
# Stress axis : x y z
#
# Youngs Moduli (GPa) = 118.00953 149.12609 45.55346
#
# Poissons Ratio (x) = 0.66269 0.00521
# Poissons Ratio (y) = 0.52442 0.04665
# Poissons Ratio (z) = 0.01349 0.15271
#
# Static dielectric constant tensor:
#      x y z
#    x 1.764950 0.000000 0.000000 
#    y 0.000000 1.790050 0.000000 
#    z 0.000000 0.000000 1.926760 
# 
# From -- ./inp_files/9913.got.cif
#   From: 2010.05.17/outbox.cif.g08.bks.cpg/sg71_5_cif.got.tgz:9913.got - 2010.06.03 16:22:01.
