data_PCOD9521356
_publ_section_title
;
Structure prediction by ZEFSAII (Michael W. Deem and Ramdas Pophale) SiO2 
 PCOD9521356
Probable space group: I M M M
;
_chemical_formula_sum "Si O2"
_cell_formula_units_Z 72
_cell_length_a 17.692402
_cell_length_b 24.870436
_cell_length_c 7.422316
_cell_angle_alpha 90.000000
_cell_angle_beta 90.000000
_cell_angle_gamma 90.000000
_cell_volume 3265.950798
_symmetry_space_group_name_H-M "I M M M"
_symmetry_group_IT_number 71
_symmetry_cell_setting 'orthorhombic'
loop_
_space_group_symop_operation_xyz
x,y,z
-x,-y,z
x,-y,-z
-x,y,-z
-x,-y,-z
x,y,-z
-x,y,z
x,-y,z
1/2+x,1/2+y,1/2+z
1/2-x,1/2-y,1/2+z
1/2+x,1/2-y,1/2-z
1/2-x,1/2+y,1/2-z
1/2-x,1/2-y,1/2-z
1/2+x,1/2+y,1/2-z
1/2-x,1/2+y,1/2+z
1/2+x,1/2-y,1/2+z
loop_
_atom_site_type_symbol
_atom_site_label
_atom_site_fract_x
_atom_site_fract_y
_atom_site_fract_z
Si Si1 0.132616 0.361584 0.711728
Si Si2 0.700924 0.344971 0.291451
Si Si3 0.916569 0.241082 0.782111
Si Si4 0.914585 0.938182 0.282237
Si Si5 0.000000 0.562035 0.278954
O O1 0.140706 0.374381 0.500000
O O2 0.217179 0.357484 0.789462
O O3 0.096326 0.302719 0.730778
O O4 0.074291 0.405679 0.783759
O O5 0.714937 0.330105 0.500000
O O6 0.651221 0.296318 0.212846
O O7 0.647488 0.396954 0.285222
O O8 0.000000 0.223130 0.720920
O O9 0.916305 0.237835 0.000000
O O10 0.913327 0.936652 0.500000
O O11 0.000000 0.923521 0.224691
O O12 0.900596 0.000000 0.228052
O O13 0.000000 0.500000 0.225571
O O14 0.000000 0.563723 0.500000
#
# Coordination Sequence:
#
# PCOD9521356 Si02
#       5
#    16  16  16  16   8
#     4  10  20  35  55  78 104 138 181 225 269 324
#     4  10  21  34  52  81 110 139 179 223 272 326
#     4  10  20  34  52  75 108 143 173 217 277 329
#     4   9  19  36  55  76 106 143 180 218 263 316
#     4   9  18  34  55  77 103 137 178 227 274 313
#
# _framework density 22.045648
#
# number of rings (size 3 to 8) (size 9 to 14) (size 15 to 20)
#    0.000    2.333    1.111    2.000    0.000    4.444 
#    0.000    3.333    0.000    1.333    0.000    0.000 
#    0.000    0.000    0.000    0.000    0.000    0.000 
#
# Total GULP energy -201130.539653 kJ/mol
# GULP energy per Si atom -5586.959435 kJ/mol
# Density = 2.199547 g / cm^3
# Si number density = 22.045648 Si / 1000 Ang^3
#
#
#
# Elastic Constant Matrix: (Units=GPa)
#
#
# Indices 1 2 3 4 5 6 
#
# 1 199.1333 101.3276 3.1675 0.0000 0.0000 0.0000
# 2 101.3276 144.2528 -9.6013 0.0000 0.0000 0.0000
# 3 3.1675 -9.6013 69.2436 0.0000 0.0000 0.0000
# 4 0.0000 0.0000 0.0000 22.9242 0.0000 0.0000
# 5 0.0000 0.0000 0.0000 0.0000 5.6820 0.0000
# 6 0.0000 0.0000 0.0000 0.0000 0.0000 -68.4263
#
#
#
# Elastic Compliance Matrix: (Units=1/GPa)
#
#
# Indices 1 2 3 4 5 6 
#
# 1 0.007904 -0.005628 -0.001142 0.000000 0.000000 0.000000
# 2 -0.005628 0.011004 0.001783 0.000000 0.000000 0.000000
# 3 -0.001142 0.001783 0.014741 0.000000 0.000000 0.000000
# 4 0.000000 0.000000 0.000000 0.043622 0.000000 0.000000
# 5 0.000000 0.000000 0.000000 0.000000 0.175996 0.000000
# 6 0.000000 0.000000 0.000000 0.000000 0.000000 -0.014614
#
#
# Mechanical properties :
#
#
# Convention : Reuss Voigt Hill
#
# Bulk Modulus (GPa) = 42.23649 66.93524 54.58586
# Shear Modulus (GPa) = 19.49189 13.21837 16.35513
#
# Velocity S-wave (km/s) = 2.97671 2.45131 2.72669
# Velocity P-wave (km/s) = 5.56908 6.19999 5.89299
#
# Compressibility (1/GPa) = 0.02367621
#
# Stress axis : x y z
#
# Youngs Moduli (GPa) = 126.52564 90.87585 67.83674
#
# Poissons Ratio (x) = 0.51142 0.07746
# Poissons Ratio (y) = 0.71205 -0.12097
# Poissons Ratio (z) = 0.14448 -0.16205
#
# Static dielectric constant tensor:
#      x y z
#    x 1.815150 0.000000 0.000000 
#    y 0.000000 1.746650 0.000000 
#    z 0.000000 0.000000 1.825840 
# 
# From -- ./inp_files/6049.got.cif
#   From: 2010.05.17/outbox.cif.g08.bks.cpg/sg71_4_cif.got.tgz:6049.got - 2010.06.03 16:22:01.
