data_PCOD9521933
_publ_section_title
;
Structure prediction by ZEFSAII (Michael W. Deem and Ramdas Pophale) SiO2 
 PCOD9521933
Probable space group: I M M M
;
_chemical_formula_sum "Si O2"
_cell_formula_units_Z 88
_cell_length_a 13.942670
_cell_length_b 29.236795
_cell_length_c 12.990073
_cell_angle_alpha 90.000000
_cell_angle_beta 90.000000
_cell_angle_gamma 90.000000
_cell_volume 5295.260167
_symmetry_space_group_name_H-M "I M M M"
_symmetry_group_IT_number 71
_symmetry_cell_setting 'orthorhombic'
loop_
_space_group_symop_operation_xyz
x,y,z
-x,-y,z
x,-y,-z
-x,y,-z
-x,-y,-z
x,y,-z
-x,y,z
x,-y,z
1/2+x,1/2+y,1/2+z
1/2-x,1/2-y,1/2+z
1/2+x,1/2-y,1/2-z
1/2-x,1/2+y,1/2-z
1/2-x,1/2-y,1/2-z
1/2+x,1/2+y,1/2-z
1/2-x,1/2+y,1/2+z
1/2+x,1/2-y,1/2+z
loop_
_atom_site_type_symbol
_atom_site_label
_atom_site_fract_x
_atom_site_fract_y
_atom_site_fract_z
Si Si1 0.204547 0.295857 0.121766
Si Si2 0.726340 0.945576 0.796709
Si Si3 0.607844 0.944619 0.000000
Si Si4 0.886218 0.395969 0.121069
Si Si5 0.112359 0.116734 0.879197
Si Si6 0.612058 0.288559 0.739477
O O1 0.156615 0.345339 0.139299
O O2 0.311738 0.294557 0.168462
O O3 0.142757 0.257139 0.179123
O O4 0.205656 0.287151 0.000000
O O5 0.662405 0.931926 0.895983
O O6 0.670254 0.930245 0.695052
O O7 0.824192 0.917928 0.813004
O O8 0.741286 0.000000 0.798582
O O9 0.500000 0.926604 0.000000
O O10 0.603902 0.000000 0.000000
O O11 0.000000 0.396620 0.142700
O O12 0.873082 0.406647 0.000000
O O13 0.125047 0.167870 0.835678
O O14 0.000000 0.105390 0.870969
O O15 0.138721 0.114409 0.000000
O O16 0.500000 0.286768 0.770029
#
# Coordination Sequence:
#
# PCOD9521933 Si02
#       6
#    16  16   8  16  16  16
#     4  10  20  35  57  83 111 142 176 218 266 318
#     4  11  21  35  54  78 109 142 184 234 277 324
#     4   9  18  32  51  75 103 139 176 220 283 335
#     4  10  21  37  57  81 109 144 186 227 270 323
#     4  10  20  35  56  82 111 143 181 223 271 327
#     4  10  20  35  57  83 111 143 177 216 265 321
#
# _framework density 16.618635000000001
#
# number of rings (size 3 to 8) (size 9 to 14) (size 15 to 20)
#    0.000    1.909    2.727    1.636    0.000    4.000 
#    0.000    1.818    0.000    0.545    0.000    1.273 
#    0.000    0.000    0.000    0.000    0.000    0.000 
#
# Total GULP energy -245477.651003 kJ/mol
# GULP energy per Si atom -5579.037523 kJ/mol
# Density = 1.658081 g / cm^3
# Si number density = 16.618635 Si / 1000 Ang^3
#
#
#
# Elastic Constant Matrix: (Units=GPa)
#
#
# Indices 1 2 3 4 5 6 
#
# 1 69.6026 21.0370 7.5622 -0.0002 0.0000 0.0000
# 2 21.0370 53.7232 11.0043 -0.0002 0.0000 0.0000
# 3 7.5622 11.0043 33.9935 -0.0003 -0.0001 0.0000
# 4 -0.0002 -0.0002 -0.0003 26.8980 0.0000 0.0000
# 5 0.0000 0.0000 -0.0001 0.0000 27.1597 0.0000
# 6 0.0000 0.0000 0.0000 0.0000 0.0000 18.6240
#
#
#
# Elastic Compliance Matrix: (Units=1/GPa)
#
#
# Indices 1 2 3 4 5 6 
#
# 1 0.016385 -0.006072 -0.001679 0.000000 0.000000 0.000000
# 2 -0.006072 0.022186 -0.005831 0.000000 0.000000 0.000000
# 3 -0.001679 -0.005831 0.031679 0.000000 0.000000 0.000000
# 4 0.000000 0.000000 0.000000 0.037178 0.000000 0.000000
# 5 0.000000 0.000000 0.000000 0.000000 0.036819 0.000000
# 6 0.000000 0.000000 0.000000 0.000000 0.000000 0.053694
#
#
# Mechanical properties :
#
#
# Convention : Reuss Voigt Hill
#
# Bulk Modulus (GPa) = 23.21028 26.28070 24.74549
# Shear Modulus (GPa) = 20.87966 22.38405 21.63186
#
# Velocity S-wave (km/s) = 3.54842 3.67403 3.61177
# Velocity P-wave (km/s) = 5.54843 5.81776 5.68469
#
# Compressibility (1/GPa) = 0.04308436
#
# Stress axis : x y z
#
# Youngs Moduli (GPa) = 61.03145 45.07326 31.56702
#
# Poissons Ratio (x) = 0.27369 0.05301
# Poissons Ratio (y) = 0.37059 0.18408
# Poissons Ratio (z) = 0.10249 0.26283
#
# Static dielectric constant tensor:
#      x y z
#    x 1.553570 0.000000 0.000000 
#    y 0.000000 1.537230 0.000000 
#    z 0.000000 0.000000 1.541750 
# 
# From -- ./inp_files/20286.got.cif
#   From: 2010.05.17/outbox.cif.g08.bks.cpg/sg71_11_cif.got.tgz:20286.got - 2010.06.03 16:22:01.
