data_PCOD9521329
_publ_section_title
;
Structure prediction by ZEFSAII (Michael W. Deem and Ramdas Pophale) SiO2 
 PCOD9521329
Probable space group: I M M M
;
_chemical_formula_sum "Si O2"
_cell_formula_units_Z 88
_cell_length_a 29.260239
_cell_length_b 9.340904
_cell_length_c 15.129896
_cell_angle_alpha 90.000000
_cell_angle_beta 90.000000
_cell_angle_gamma 90.000000
_cell_volume 4135.259049
_symmetry_space_group_name_H-M "I M M M"
_symmetry_group_IT_number 71
_symmetry_cell_setting 'orthorhombic'
loop_
_space_group_symop_operation_xyz
x,y,z
-x,-y,z
x,-y,-z
-x,y,-z
-x,-y,-z
x,y,-z
-x,y,z
x,-y,z
1/2+x,1/2+y,1/2+z
1/2-x,1/2-y,1/2+z
1/2+x,1/2-y,1/2-z
1/2-x,1/2+y,1/2-z
1/2-x,1/2-y,1/2-z
1/2+x,1/2+y,1/2-z
1/2-x,1/2+y,1/2+z
1/2+x,1/2-y,1/2+z
loop_
_atom_site_type_symbol
_atom_site_label
_atom_site_fract_x
_atom_site_fract_y
_atom_site_fract_z
Si Si1 0.417473 0.342817 0.399422
Si Si2 0.758320 0.674314 0.654535
Si Si3 0.141998 0.336182 0.337108
Si Si4 0.000000 0.338156 0.109214
Si Si5 0.670605 0.165722 0.370304
Si Si6 0.051554 0.830071 0.393332
O O1 0.433711 0.362290 0.500000
O O2 0.411253 0.500000 0.359202
O O3 0.456145 0.246508 0.356593
O O4 0.371704 0.254133 0.405672
O O5 0.754616 0.500000 0.660735
O O6 0.750000 0.750000 0.750000
O O7 0.809274 0.708825 0.619402
O O8 0.716057 0.747052 0.605141
O O9 0.132359 0.500000 0.363266
O O10 0.157765 0.335684 0.234501
O O11 0.096527 0.245304 0.353410
O O12 0.000000 0.500000 0.140048
O O13 0.000000 0.345907 0.000000
O O14 0.673356 0.000000 0.397069
O O15 0.054083 0.811831 0.500000
O O16 0.000000 0.780818 0.366291
O O17 0.053956 0.000000 0.374980
#
# Coordination Sequence:
#
# PCOD9521329 Si02
#       6
#    16  16  16   8  16  16
#     4  10  20  34  52  74 101 135 176 218 260 309
#     4   9  17  31  51  75 104 136 172 213 259 313
#     4   9  19  34  53  79 105 132 169 212 257 309
#     4   9  17  31  51  71  93 127 168 207 250 301
#     4  10  20  34  52  77 106 137 175 217 264 313
#     4   9  19  36  56  78 105 137 173 213 258 311
#
# _framework density 21.28041
#
# number of rings (size 3 to 8) (size 9 to 14) (size 15 to 20)
#    0.000    2.636    0.000    3.545    0.000    7.273 
#    1.636    1.818    0.000    1.091    0.000    0.000 
#    0.000    0.000    0.000    0.000    0.000    0.000 
#
# Total GULP energy -245095.543818 kJ/mol
# GULP energy per Si atom -5570.353269 kJ/mol
# Density = 2.123197 g / cm^3
# Si number density = 21.280410 Si / 1000 Ang^3
#
#
#
# Elastic Constant Matrix: (Units=GPa)
#
#
# Indices 1 2 3 4 5 6 
#
# 1 241.3476 122.0836 24.3777 0.0000 0.0000 0.0000
# 2 122.0836 166.1461 13.3775 0.0000 0.0000 0.0000
# 3 24.3777 13.3775 32.9533 0.0000 0.0000 0.0000
# 4 0.0000 0.0000 0.0000 11.4322 0.0000 0.0000
# 5 0.0000 0.0000 0.0000 0.0000 37.6381 0.0000
# 6 0.0000 0.0000 0.0000 0.0000 0.0000 43.6892
#
#
#
# Elastic Compliance Matrix: (Units=1/GPa)
#
#
# Indices 1 2 3 4 5 6 
#
# 1 0.006896 -0.004814 -0.003147 0.000000 0.000000 0.000000
# 2 -0.004814 0.009583 -0.000329 0.000000 0.000000 0.000000
# 3 -0.003147 -0.000329 0.032808 0.000000 0.000000 0.000000
# 4 0.000000 0.000000 0.000000 0.087472 0.000000 0.000000
# 5 0.000000 0.000000 0.000000 0.000000 0.026569 0.000000
# 6 0.000000 0.000000 0.000000 0.000000 0.000000 0.022889
#
#
# Mechanical properties :
#
#
# Convention : Reuss Voigt Hill
#
# Bulk Modulus (GPa) = 30.57525 84.45831 57.51678
# Shear Modulus (GPa) = 23.39735 37.25912 30.32823
#
# Velocity S-wave (km/s) = 3.31944 4.18887 3.77924
# Velocity P-wave (km/s) = 5.39356 7.94796 6.79193
#
# Compressibility (1/GPa) = 0.03270619
#
# Stress axis : x y z
#
# Youngs Moduli (GPa) = 145.00139 104.35524 30.48052
#
# Poissons Ratio (x) = 0.50238 0.09594
# Poissons Ratio (y) = 0.69805 0.01002
# Poissons Ratio (z) = 0.45639 0.03431
#
# Static dielectric constant tensor:
#      x y z
#    x 1.665710 0.000000 0.000000 
#    y 0.000000 1.749160 0.000000 
#    z 0.000000 0.000000 1.582610 
# 
# From -- ./inp_files/42435.got.cif
#   From: 2010.05.17/outbox.cif.g08.bks.cpg/sg71_22_cif.got.tgz:42435.got - 2010.06.03 16:22:01.
