data_PCOD9521094
_publ_section_title
;
Structure prediction by ZEFSAII (Michael W. Deem and Ramdas Pophale) SiO2 
 PCOD9521094
Probable space group: I M M M
;
_chemical_formula_sum "Si O2"
_cell_formula_units_Z 104
_cell_length_a 8.920639
_cell_length_b 21.654680
_cell_length_c 28.961595
_cell_angle_alpha 90.000000
_cell_angle_beta 90.000000
_cell_angle_gamma 90.000000
_cell_volume 5594.615074
_symmetry_space_group_name_H-M "I M M M"
_symmetry_group_IT_number 71
_symmetry_cell_setting 'orthorhombic'
loop_
_space_group_symop_operation_xyz
x,y,z
-x,-y,z
x,-y,-z
-x,y,-z
-x,-y,-z
x,y,-z
-x,y,z
x,-y,z
1/2+x,1/2+y,1/2+z
1/2-x,1/2-y,1/2+z
1/2+x,1/2-y,1/2-z
1/2-x,1/2+y,1/2-z
1/2-x,1/2-y,1/2-z
1/2+x,1/2+y,1/2-z
1/2-x,1/2+y,1/2+z
1/2+x,1/2-y,1/2+z
loop_
_atom_site_type_symbol
_atom_site_label
_atom_site_fract_x
_atom_site_fract_y
_atom_site_fract_z
Si Si1 0.178766 0.680649 0.800617
Si Si2 0.820232 0.688950 0.692911
Si Si3 0.680014 0.500000 0.445640
Si Si4 0.178682 0.136480 0.447152
Si Si5 0.827820 0.233395 0.944451
Si Si6 0.179884 0.931231 0.356400
Si Si7 0.178506 0.618510 0.603877
O O1 0.218267 0.675467 0.746134
O O2 0.244857 0.745483 0.818693
O O3 0.245364 0.622582 0.827098
O O4 0.000000 0.682103 0.804786
O O5 0.778697 0.635382 0.656774
O O6 0.000000 0.696819 0.689842
O O7 0.500000 0.500000 0.444577
O O8 0.725891 0.500000 0.500000
O O9 0.741086 0.560345 0.419335
O O10 0.217136 0.120554 0.500000
O O11 0.265219 0.198792 0.433586
O O12 0.210642 0.083810 0.410087
O O13 0.000000 0.149340 0.445548
O O14 0.725891 0.179981 0.923574
O O15 0.000000 0.226501 0.928815
O O16 0.825322 0.227812 0.000000
O O17 0.000000 0.928279 0.350210
O O18 0.231128 0.000000 0.344132
O O19 0.000000 0.608984 0.601722
#
# Coordination Sequence:
#
# PCOD9521094 Si02
#       7
#    16  16   8  16  16  16  16
#     4  10  20  36  59  85 111 143 181 223 273 330
#     4   9  20  38  59  84 112 140 175 225 279 325
#     4  11  25  43  59  79 113 151 187 231 282 337
#     4   9  18  33  53  77 105 140 183 227 269 317
#     4  10  20  33  51  78 111 142 174 220 275 324
#     4  10  21  36  53  76 109 146 182 222 268 317
#     4  11  22  37  58  82 108 143 185 228 274 327
#
# _framework density 18.589303999999998
#
# number of rings (size 3 to 8) (size 9 to 14) (size 15 to 20)
#    0.000    2.077    0.000    3.000    0.000   10.154 
#    1.385    1.538    0.000    0.000    0.000    3.231 
#    0.000    0.000    0.000    0.000    0.000    0.000 
#
# Total GULP energy -290359.441339 kJ/mol
# GULP energy per Si atom -5583.835410 kJ/mol
# Density = 1.854699 g / cm^3
# Si number density = 18.589304 Si / 1000 Ang^3
#
#
#
# Elastic Constant Matrix: (Units=GPa)
#
#
# Indices 1 2 3 4 5 6 
#
# 1 31.7906 35.2497 38.3222 0.0000 0.0000 0.0000
# 2 35.2497 115.1410 67.7635 0.0000 0.0000 0.0000
# 3 38.3222 67.7635 94.3908 0.0000 0.0000 0.0000
# 4 0.0000 0.0000 0.0000 23.5500 0.0000 0.0000
# 5 0.0000 0.0000 0.0000 0.0000 26.3450 0.0000
# 6 0.0000 0.0000 0.0000 0.0000 0.0000 19.8426
#
#
#
# Elastic Compliance Matrix: (Units=1/GPa)
#
#
# Indices 1 2 3 4 5 6 
#
# 1 0.065226 -0.007591 -0.021032 0.000000 0.000000 0.000000
# 2 -0.007591 0.015922 -0.008349 0.000000 0.000000 0.000000
# 3 -0.021032 -0.008349 0.025127 0.000000 0.000000 0.000000
# 4 0.000000 0.000000 0.000000 0.042463 0.000000 0.000000
# 5 0.000000 0.000000 0.000000 0.000000 0.037958 0.000000
# 6 0.000000 0.000000 0.000000 0.000000 0.000000 0.050397
#
#
# Mechanical properties :
#
#
# Convention : Reuss Voigt Hill
#
# Bulk Modulus (GPa) = 30.92933 58.22147 44.57540
# Shear Modulus (GPa) = 15.53699 20.61332 18.07515
#
# Velocity S-wave (km/s) = 2.89416 3.33360 3.12162
# Velocity P-wave (km/s) = 5.27661 6.79743 6.08472
#
# Compressibility (1/GPa) = 0.03233177
#
# Stress axis : x y z
#
# Youngs Moduli (GPa) = 15.33141 62.80444 39.79785
#
# Poissons Ratio (x) = 0.47672 0.83703
# Poissons Ratio (y) = 0.11637 0.33227
# Poissons Ratio (z) = 0.32245 0.52436
#
# Static dielectric constant tensor:
#      x y z
#    x 1.624790 0.000000 0.000000 
#    y 0.000000 1.597390 0.000000 
#    z 0.000000 0.000000 1.673840 
# 
# From -- ./inp_files/16982.got.cif
#   From: 2010.05.17/outbox.cif.g08.bks.cpg/sg71_9_cif.got.tgz:16982.got - 2010.06.03 16:22:01.
