data_PCOD9521386
_publ_section_title
;
Structure prediction by ZEFSAII (Michael W. Deem and Ramdas Pophale) SiO2 
 PCOD9521386
Probable space group: I M M M
;
_chemical_formula_sum "Si O2"
_cell_formula_units_Z 88
_cell_length_a 23.674782
_cell_length_b 7.595362
_cell_length_c 20.763950
_cell_angle_alpha 90.000000
_cell_angle_beta 90.000000
_cell_angle_gamma 90.000000
_cell_volume 3733.743165
_symmetry_space_group_name_H-M "I M M M"
_symmetry_group_IT_number 71
_symmetry_cell_setting 'orthorhombic'
loop_
_space_group_symop_operation_xyz
x,y,z
-x,-y,z
x,-y,-z
-x,y,-z
-x,-y,-z
x,y,-z
-x,y,z
x,-y,z
1/2+x,1/2+y,1/2+z
1/2-x,1/2-y,1/2+z
1/2+x,1/2-y,1/2-z
1/2-x,1/2+y,1/2-z
1/2-x,1/2-y,1/2-z
1/2+x,1/2+y,1/2-z
1/2-x,1/2+y,1/2+z
1/2+x,1/2-y,1/2+z
loop_
_atom_site_type_symbol
_atom_site_label
_atom_site_fract_x
_atom_site_fract_y
_atom_site_fract_z
Si Si1 0.834381 0.201727 0.594629
Si Si2 0.933041 0.785085 0.500000
Si Si3 0.322198 0.800201 0.240077
Si Si4 0.940227 0.786154 0.794307
Si Si5 0.092166 0.207239 0.931007
Si Si6 0.715650 0.214135 0.381088
O O1 0.891957 0.269952 0.560849
O O2 0.829797 0.202385 0.672319
O O3 0.771846 0.280062 0.582404
O O4 0.832401 0.000000 0.573118
O O5 0.000000 0.726132 0.500000
O O6 0.937173 0.000000 0.500000
O O7 0.386537 0.799859 0.263741
O O8 0.288899 0.734152 0.304451
O O9 0.304753 0.000000 0.227627
O O10 0.939169 0.726370 0.868291
O O11 0.000000 0.744293 0.763307
O O12 0.933095 0.000000 0.792572
O O13 0.158650 0.226171 0.915385
O O14 0.079079 0.000000 0.934064
O O15 0.078938 0.286924 0.000000
O O16 0.715903 0.000000 0.380797
#
# Coordination Sequence:
#
# PCOD9521386 Si02
#       6
#    16   8  16  16  16  16
#     4  10  20  35  57  80 102 136 177 215 261 318
#     4   9  20  38  57  79 105 133 176 229 266 304
#     4  10  20  34  52  79 110 137 168 217 273 318
#     4   9  18  33  52  73 100 138 181 218 254 304
#     4   9  18  31  48  74 107 139 172 215 262 306
#     4   9  19  33  52  78 107 138 174 214 261 321
#
# _framework density 23.568842
#
# number of rings (size 3 to 8) (size 9 to 14) (size 15 to 20)
#    0.000    2.636    0.000    1.091    1.273    3.273 
#    0.000    4.091    0.000    0.545    0.000    5.091 
#    0.000    0.000    0.000    0.000    0.000    0.000 
#
# Total GULP energy -245126.971781 kJ/mol
# GULP energy per Si atom -5571.067540 kJ/mol
# Density = 2.351520 g / cm^3
# Si number density = 23.568842 Si / 1000 Ang^3
#
#
#
# Elastic Constant Matrix: (Units=GPa)
#
#
# Indices 1 2 3 4 5 6 
#
# 1 170.8690 15.2297 22.6117 0.0000 0.0000 0.0000
# 2 15.2297 64.4137 8.3769 0.0000 0.0000 0.0000
# 3 22.6117 8.3769 91.6687 0.0000 0.0000 0.0000
# 4 0.0000 0.0000 0.0000 -4.8385 0.0000 0.0000
# 5 0.0000 0.0000 0.0000 0.0000 -5.1930 0.0000
# 6 0.0000 0.0000 0.0000 0.0000 0.0000 36.4740
#
#
#
# Elastic Compliance Matrix: (Units=1/GPa)
#
#
# Indices 1 2 3 4 5 6 
#
# 1 0.006151 -0.001272 -0.001401 0.000000 0.000000 0.000000
# 2 -0.001272 0.015974 -0.001146 0.000000 0.000000 0.000000
# 3 -0.001401 -0.001146 0.011359 0.000000 0.000000 0.000000
# 4 0.000000 0.000000 0.000000 -0.206674 0.000000 0.000000
# 5 0.000000 0.000000 0.000000 0.000000 -0.192567 0.000000
# 6 0.000000 0.000000 0.000000 0.000000 0.000000 0.027417
#
#
# Mechanical properties :
#
#
# Convention : Reuss Voigt Hill
#
# Bulk Modulus (GPa) = 38.69001 46.59867 42.64434
# Shear Modulus (GPa) = -15.52382 24.00403 4.24010
#
# Velocity S-wave (km/s) = -2.56922 3.19480 1.34273
# Velocity P-wave (km/s) = 2.76590 5.78128 4.53175
#
# Compressibility (1/GPa) = 0.02584646
#
# Stress axis : x y z
#
# Youngs Moduli (GPa) = 162.56900 62.59990 88.03463
#
# Poissons Ratio (x) = 0.07964 0.12334
# Poissons Ratio (y) = 0.20682 0.10089
# Poissons Ratio (z) = 0.22777 0.07174
#
# Static dielectric constant tensor:
#      x y z
#    x 1.937650 0.000000 0.000000 
#    y 0.000000 1.919000 0.000000 
#    z 0.000000 0.000000 1.964990 
# 
# From -- ./inp_files/10489.got.cif
#   From: 2010.05.17/outbox.cif.g08.bks.cpg/sg71_6_cif.got.tgz:10489.got - 2010.06.03 16:22:01.
