data_PCOD9521358
_publ_section_title
;
Structure prediction by ZEFSAII (Michael W. Deem and Ramdas Pophale) SiO2 
 PCOD9521358
Probable space group: I M M M
;
_chemical_formula_sum "Si O2"
_cell_formula_units_Z 120
_cell_length_a 7.455486
_cell_length_b 26.403054
_cell_length_c 28.086154
_cell_angle_alpha 90.000000
_cell_angle_beta 90.000000
_cell_angle_gamma 90.000000
_cell_volume 5528.691993
_symmetry_space_group_name_H-M "I M M M"
_symmetry_group_IT_number 71
_symmetry_cell_setting 'orthorhombic'
loop_
_space_group_symop_operation_xyz
x,y,z
-x,-y,z
x,-y,-z
-x,y,-z
-x,-y,-z
x,y,-z
-x,y,z
x,-y,z
1/2+x,1/2+y,1/2+z
1/2-x,1/2-y,1/2+z
1/2+x,1/2-y,1/2-z
1/2-x,1/2+y,1/2-z
1/2-x,1/2-y,1/2-z
1/2+x,1/2+y,1/2-z
1/2-x,1/2+y,1/2+z
1/2+x,1/2-y,1/2+z
loop_
_atom_site_type_symbol
_atom_site_label
_atom_site_fract_x
_atom_site_fract_y
_atom_site_fract_z
Si Si1 0.790537 0.577407 0.948496
Si Si2 0.783098 0.196472 0.448032
Si Si3 0.279675 0.058306 0.104890
Si Si4 0.794049 0.438500 0.500000
Si Si5 0.720260 0.257740 0.848098
Si Si6 0.706981 0.348244 0.781183
Si Si7 0.217483 0.445107 0.844256
Si Si8 0.793518 0.645763 0.673891
O O1 0.778218 0.638293 0.945382
O O2 0.716766 0.557602 0.898817
O O3 0.000000 0.562954 0.949445
O O4 0.712804 0.562647 0.000000
O O5 0.727014 0.216754 0.500000
O O6 0.723804 0.225516 0.400977
O O7 0.000000 0.195840 0.447293
O O8 0.500000 0.057033 0.103898
O O9 0.218852 0.098159 0.144663
O O10 0.224089 0.000000 0.113509
O O11 0.218671 0.075054 0.051806
O O12 0.796569 0.500000 0.500000
O O13 0.000000 0.420314 0.500000
O O14 0.500000 0.258954 0.846860
O O15 0.780737 0.299490 0.809476
O O16 0.783403 0.201274 0.836793
O O17 0.500000 0.337332 0.770767
O O18 0.718448 0.396782 0.815322
O O19 0.791685 0.360822 0.730547
O O20 0.267553 0.500000 0.823806
O O21 0.000000 0.442230 0.845017
O O22 0.000000 0.648896 0.657986
#
# Coordination Sequence:
#
# PCOD9521358 Si02
#       8
#    16  16  16   8  16  16  16  16
#     4   9  17  30  50  76 103 131 166 208 254 306
#     4   9  16  29  50  73 101 137 170 204 254 312
#     4   8  14  26  46  72 102 132 158 192 240 294
#     4   7  10  20  40  68 101 131 155 183 232 293
#     4   9  18  33  51  74 102 133 170 213 257 305
#     4  11  22  37  54  71  98 135 176 218 261 307
#     4  10  21  36  54  77 103 133 171 213 260 312
#     4  10  20  34  52  76 104 132 170 214 257 302
#
# _framework density 21.704951999999999
#
# number of rings (size 3 to 8) (size 9 to 14) (size 15 to 20)
#    0.000    2.733    1.333    1.600    0.000    1.067 
#    1.200    4.000    0.000    0.000    0.000    3.267 
#    0.000    1.600    0.000    0.000    0.000    0.000 
#
# Total GULP energy -334750.354807 kJ/mol
# GULP energy per Si atom -5579.172580 kJ/mol
# Density = 2.165555 g / cm^3
# Si number density = 21.704952 Si / 1000 Ang^3
#
#
#
# Elastic Constant Matrix: (Units=GPa)
#
#
# Indices 1 2 3 4 5 6 
#
# 1 64.1118 0.7304 -0.4032 0.0000 0.0000 0.0000
# 2 0.7304 145.5025 97.0774 0.0000 0.0000 0.0000
# 3 -0.4032 97.0774 169.7195 0.0000 0.0000 0.0000
# 4 0.0000 0.0000 0.0000 -10.0987 0.0000 0.0000
# 5 0.0000 0.0000 0.0000 0.0000 -0.5479 0.0000
# 6 0.0000 0.0000 0.0000 0.0000 0.0000 2.5441
#
#
#
# Elastic Compliance Matrix: (Units=1/GPa)
#
#
# Indices 1 2 3 4 5 6 
#
# 1 0.015600 -0.000167 0.000132 0.000000 0.000000 0.000000
# 2 -0.000167 0.011116 -0.006359 0.000000 0.000000 0.000000
# 3 0.000132 -0.006359 0.009529 0.000000 0.000000 0.000000
# 4 0.000000 0.000000 0.000000 -0.099023 0.000000 0.000000
# 5 0.000000 0.000000 0.000000 0.000000 -1.825137 0.000000
# 6 0.000000 0.000000 0.000000 0.000000 0.000000 0.393072
#
#
# Mechanical properties :
#
#
# Convention : Reuss Voigt Hill
#
# Bulk Modulus (GPa) = 42.62541 63.79364 53.20953
# Shear Modulus (GPa) = -3.39159 17.17478 6.89160
#
# Velocity S-wave (km/s) = -1.25139 2.81603 1.78382
# Velocity P-wave (km/s) = 4.19443 6.32680 5.36757
#
# Compressibility (1/GPa) = 0.02346018
#
# Stress axis : x y z
#
# Youngs Moduli (GPa) = 64.10056 89.96105 104.93831
#
# Poissons Ratio (x) = 0.01499 -0.01389
# Poissons Ratio (y) = 0.01068 0.66726
# Poissons Ratio (z) = -0.00849 0.57202
#
# Static dielectric constant tensor:
#      x y z
#    x 1.867710 0.000000 0.000000 
#    y 0.000000 1.758910 0.000000 
#    z 0.000000 0.000000 1.785890 
# 
# From -- ./inp_files/63756.got.cif
#   From: 2010.05.17/outbox.cif.g08.bks.cpg/sg71_32_cif.got.tgz:63756.got - 2010.06.03 16:22:01.
