data_PCOD9521798
_publ_section_title
;
Structure prediction by ZEFSAII (Michael W. Deem and Ramdas Pophale) SiO2 
 PCOD9521798
Probable space group: I M M M
;
_chemical_formula_sum "Si O2"
_cell_formula_units_Z 82
_cell_length_a 7.427579
_cell_length_b 20.764319
_cell_length_c 25.834027
_cell_angle_alpha 90.000000
_cell_angle_beta 90.000000
_cell_angle_gamma 90.000000
_cell_volume 3984.346327
_symmetry_space_group_name_H-M "I M M M"
_symmetry_group_IT_number 71
_symmetry_cell_setting 'orthorhombic'
loop_
_space_group_symop_operation_xyz
x,y,z
-x,-y,z
x,-y,-z
-x,y,-z
-x,-y,-z
x,y,-z
-x,y,z
x,-y,z
1/2+x,1/2+y,1/2+z
1/2-x,1/2-y,1/2+z
1/2+x,1/2-y,1/2-z
1/2-x,1/2+y,1/2-z
1/2-x,1/2-y,1/2-z
1/2+x,1/2+y,1/2-z
1/2-x,1/2+y,1/2+z
1/2+x,1/2-y,1/2+z
loop_
_atom_site_type_symbol
_atom_site_label
_atom_site_fract_x
_atom_site_fract_y
_atom_site_fract_z
Si Si1 0.720325 0.620377 0.500000
Si Si2 0.219013 0.795715 0.898351
Si Si3 0.712780 0.927168 0.297271
Si Si4 0.280287 0.073013 0.500000
Si Si5 0.787016 0.184065 0.782272
Si Si6 0.220294 0.352083 0.101677
Si Si7 0.500000 0.000000 0.000000
O O1 0.500000 0.609620 0.500000
O O2 0.766194 0.661280 0.552017
O O3 0.840618 0.556585 0.500000
O O4 0.283629 0.816543 0.841135
O O5 0.277094 0.721637 0.903104
O O6 0.000000 0.795951 0.897561
O O7 0.500000 0.933779 0.306371
O O8 0.731994 0.879215 0.249119
O O9 0.784960 0.888515 0.346971
O O10 0.784405 0.000000 0.290907
O O11 0.500000 0.073004 0.500000
O O12 0.223388 0.109143 0.551412
O O13 0.219966 0.000000 0.500000
O O14 0.750000 0.250000 0.750000
O O15 0.000000 0.182150 0.786583
O O16 0.000000 0.351212 0.103434
#
# Coordination Sequence:
#
# PCOD9521798 Si02
#       7
#     8  16  16   8  16  16   2
#     4  10  22  45  69  94 129 167 208 268 331 381
#     4   9  18  35  61  85 111 152 203 250 308 367
#     4  10  20  35  53  80 118 159 191 236 301 365
#     4   9  15  21  36  71 109 145 183 227 273 329
#     4  11  21  37  59  86 116 155 204 253 306 369
#     4   9  15  27  49  77 112 148 192 238 287 350
#     4  12  26  48  68 102 128 168 212 264 328 424
#
# _framework density 20.580541
#
# number of rings (size 3 to 8) (size 9 to 14) (size 15 to 20)
#    0.000    2.244    1.951    1.902    0.000    5.073 
#    5.268    0.000    0.000    0.000    0.000    0.000 
#    0.000    2.341    0.000    0.000    0.000    0.000 
#
# Total GULP energy -228571.476628 kJ/mol
# GULP energy per Si atom -5574.914064 kJ/mol
# Density = 2.053370 g / cm^3
# Si number density = 20.580541 Si / 1000 Ang^3
#
#
#
# Elastic Constant Matrix: (Units=GPa)
#
#
# Indices 1 2 3 4 5 6 
#
# 1 79.2545 27.5107 14.6528 0.0000 0.0000 0.0000
# 2 27.5107 243.0669 140.3595 0.0000 0.0000 0.0000
# 3 14.6528 140.3595 211.7054 0.0000 0.0000 0.0000
# 4 0.0000 0.0000 0.0000 -110.5140 0.0000 0.0000
# 5 0.0000 0.0000 0.0000 0.0000 14.2724 0.0000
# 6 0.0000 0.0000 0.0000 0.0000 0.0000 9.6558
#
#
#
# Elastic Compliance Matrix: (Units=1/GPa)
#
#
# Indices 1 2 3 4 5 6 
#
# 1 0.013136 -0.001558 0.000124 0.000000 0.000000 0.000000
# 2 -0.001558 0.006851 -0.004434 0.000000 0.000000 0.000000
# 3 0.000124 -0.004434 0.007655 0.000000 0.000000 0.000000
# 4 0.000000 0.000000 0.000000 -0.009049 0.000000 0.000000
# 5 0.000000 0.000000 0.000000 0.000000 0.070065 0.000000
# 6 0.000000 0.000000 0.000000 0.000000 0.000000 0.103565
#
#
# Mechanical properties :
#
#
# Convention : Reuss Voigt Hill
#
# Bulk Modulus (GPa) = 62.87639 99.89699 81.38669
# Shear Modulus (GPa) = 23.89350 6.11642 15.00496
#
# Velocity S-wave (km/s) = 3.41101 1.72580 2.70309
# Velocity P-wave (km/s) = 6.79198 7.25370 7.02663
#
# Compressibility (1/GPa) = 0.01590422
#
# Stress axis : x y z
#
# Youngs Moduli (GPa) = 76.12910 145.96157 130.63451
#
# Poissons Ratio (x) = 0.22745 -0.01620
# Poissons Ratio (y) = 0.11863 0.57929
# Poissons Ratio (z) = -0.00944 0.64725
#
# Static dielectric constant tensor:
#      x y z
#    x 1.847850 0.000000 0.000000 
#    y 0.000000 1.675590 0.000000 
#    z 0.000000 0.000000 1.732640 
# 
# From -- ./inp_files/57491.got.cif
#   From: 2010.05.17/outbox.cif.g08.bks.cpg/sg71_29_cif.got.tgz:57491.got - 2010.06.03 16:22:01.
