data_PCOD9521852
_publ_section_title
;
Structure prediction by ZEFSAII (Michael W. Deem and Ramdas Pophale) SiO2 
 PCOD9521852
Probable space group: I M M M
;
_chemical_formula_sum "Si O2"
_cell_formula_units_Z 84
_cell_length_a 21.729773
_cell_length_b 17.295736
_cell_length_c 12.625324
_cell_angle_alpha 90.000000
_cell_angle_beta 90.000000
_cell_angle_gamma 90.000000
_cell_volume 4745.006036
_symmetry_space_group_name_H-M "I M M M"
_symmetry_group_IT_number 71
_symmetry_cell_setting 'orthorhombic'
loop_
_space_group_symop_operation_xyz
x,y,z
-x,-y,z
x,-y,-z
-x,y,-z
-x,-y,-z
x,y,-z
-x,y,z
x,-y,z
1/2+x,1/2+y,1/2+z
1/2-x,1/2-y,1/2+z
1/2+x,1/2-y,1/2-z
1/2-x,1/2+y,1/2-z
1/2-x,1/2-y,1/2-z
1/2+x,1/2+y,1/2-z
1/2-x,1/2+y,1/2+z
1/2+x,1/2-y,1/2+z
loop_
_atom_site_type_symbol
_atom_site_label
_atom_site_fract_x
_atom_site_fract_y
_atom_site_fract_z
Si Si1 0.500000 0.644503 0.000000
Si Si2 0.283805 0.667842 0.125072
Si Si3 0.406311 0.410414 0.823354
Si Si4 0.839552 0.306705 0.761496
Si Si5 0.071221 0.190016 0.877783
Si Si6 0.070650 0.592880 0.377370
O O1 0.446433 0.638387 0.093119
O O2 0.334670 0.603435 0.151771
O O3 0.217614 0.655098 0.178124
O O4 0.311264 0.745994 0.177183
O O5 0.277565 0.675961 0.000000
O O6 0.423167 0.500000 0.837166
O O7 0.419440 0.379529 0.705519
O O8 0.881978 0.256583 0.840665
O O9 0.882247 0.366436 0.699945
O O10 0.000000 0.215620 0.869071
O O11 0.082609 0.168428 0.000000
O O12 0.082804 0.614453 0.500000
O O13 0.074086 0.500000 0.370189
O O14 0.000000 0.616097 0.354205
#
# Coordination Sequence:
#
# PCOD9521852 Si02
#       6
#     4  16  16  16  16  16
#     4  12  21  36  58  82 116 144 175 236 291 322
#     4  10  21  35  52  76 107 143 185 226 269 327
#     4  11  22  36  56  82 111 145 182 230 282 326
#     4  10  20  35  55  77 107 145 181 223 271 326
#     4  10  21  36  55  80 109 144 184 223 268 325
#     4   9  18  34  57  85 113 139 175 228 284 333
#
# _framework density 17.702822999999999
#
# number of rings (size 3 to 8) (size 9 to 14) (size 15 to 20)
#    0.000    1.905    1.905    3.143    0.000    1.143 
#    0.000    1.905    0.000    1.714    0.000    6.667 
#    0.000    0.000    0.000    0.000    0.000    0.000 
#
# Total GULP energy -233898.950579 kJ/mol
# GULP energy per Si atom -5569.022633 kJ/mol
# Density = 1.766253 g / cm^3
# Si number density = 17.702823 Si / 1000 Ang^3
#
#
#
# Elastic Constant Matrix: (Units=GPa)
#
#
# Indices 1 2 3 4 5 6 
#
# 1 120.3558 17.6523 65.2538 0.0000 0.0000 0.0000
# 2 17.6523 9.5718 19.1786 0.0000 0.0000 0.0000
# 3 65.2538 19.1786 149.6461 0.0000 0.0000 0.0000
# 4 0.0000 0.0000 0.0000 10.2378 0.0000 0.0000
# 5 0.0000 0.0000 0.0000 0.0000 14.3516 0.0000
# 6 0.0000 0.0000 0.0000 0.0000 0.0000 14.1132
#
#
#
# Elastic Compliance Matrix: (Units=1/GPa)
#
#
# Indices 1 2 3 4 5 6 
#
# 1 0.012536 -0.016369 -0.003368 0.000000 0.000000 0.000000
# 2 -0.016369 0.161944 -0.013617 0.000000 0.000000 0.000000
# 3 -0.003368 -0.013617 0.009896 0.000000 0.000000 0.000000
# 4 0.000000 0.000000 0.000000 0.097677 0.000000 0.000000
# 5 0.000000 0.000000 0.000000 0.000000 0.069678 0.000000
# 6 0.000000 0.000000 0.000000 0.000000 0.000000 0.070856
#
#
# Mechanical properties :
#
#
# Convention : Reuss Voigt Hill
#
# Bulk Modulus (GPa) = 8.49852 53.74923 31.12388
# Shear Modulus (GPa) = 9.46039 19.57314 14.51676
#
# Velocity S-wave (km/s) = 2.31422 3.32874 2.86671
# Velocity P-wave (km/s) = 3.45715 6.72323 5.34573
#
# Compressibility (1/GPa) = 0.11766757
#
# Stress axis : x y z
#
# Youngs Moduli (GPa) = 79.77169 6.17496 101.04706
#
# Poissons Ratio (x) = 0.10108 0.34037
# Poissons Ratio (y) = 1.30580 1.37595
# Poissons Ratio (z) = 0.26870 0.08408
#
# Static dielectric constant tensor:
#      x y z
#    x 1.612090 0.000000 0.000000 
#    y 0.000000 1.604120 0.000000 
#    z 0.000000 0.000000 1.582250 
# 
# From -- ./inp_files/25899.got.cif
#   From: 2010.05.17/outbox.cif.g08.bks.cpg/sg71_13_cif.got.tgz:25899.got - 2010.06.03 16:22:01.
