data_PCOD9521146
_publ_section_title
;
Structure prediction by ZEFSAII (Michael W. Deem and Ramdas Pophale) SiO2 
 PCOD9521146
Probable space group: I M M M
;
_chemical_formula_sum "Si O2"
_cell_formula_units_Z 96
_cell_length_a 30.435613
_cell_length_b 19.445538
_cell_length_c 8.196884
_cell_angle_alpha 90.000000
_cell_angle_beta 90.000000
_cell_angle_gamma 90.000000
_cell_volume 4851.218163
_symmetry_space_group_name_H-M "I M M M"
_symmetry_group_IT_number 71
_symmetry_cell_setting 'orthorhombic'
loop_
_space_group_symop_operation_xyz
x,y,z
-x,-y,z
x,-y,-z
-x,y,-z
-x,-y,-z
x,y,-z
-x,y,z
x,-y,z
1/2+x,1/2+y,1/2+z
1/2-x,1/2-y,1/2+z
1/2+x,1/2-y,1/2-z
1/2-x,1/2+y,1/2-z
1/2-x,1/2-y,1/2-z
1/2+x,1/2+y,1/2-z
1/2-x,1/2+y,1/2+z
1/2+x,1/2-y,1/2+z
loop_
_atom_site_type_symbol
_atom_site_label
_atom_site_fract_x
_atom_site_fract_y
_atom_site_fract_z
Si Si1 0.932100 0.076061 0.691649
Si Si2 0.879705 0.689869 0.685786
Si Si3 0.949967 0.580151 0.301291
Si Si4 0.951771 0.781158 0.812705
Si Si5 0.668306 0.423595 0.302019
Si Si6 0.702719 0.275534 0.306562
O O1 0.941303 0.086554 0.500000
O O2 0.951656 0.137320 0.794956
O O3 0.879843 0.078039 0.723066
O O4 0.947285 0.000000 0.737693
O O5 0.869239 0.671399 0.500000
O O6 0.909706 0.627841 0.758325
O O7 0.914587 0.751880 0.696890
O O8 0.835478 0.720998 0.761173
O O9 0.950469 0.586481 0.500000
O O10 0.942610 0.500000 0.262362
O O11 0.000000 0.597544 0.245925
O O12 0.000000 0.755046 0.768476
O O13 0.941754 0.762511 0.000000
O O14 0.663515 0.420427 0.500000
O O15 0.687628 0.500000 0.264795
O O16 0.692358 0.353589 0.246753
O O17 0.703099 0.280162 0.500000
O O18 0.750000 0.250000 0.250000
#
# Coordination Sequence:
#
# PCOD9521146 Si02
#       6
#    16  16  16  16  16  16
#     4  10  20  33  52  78 107 141 183 231 277 319
#     4  11  21  35  58  85 113 145 185 236 290 340
#     4   8  15  30  54  85 118 151 189 232 280 339
#     4  11  23  36  51  75 110 152 192 228 272 330
#     4   9  18  35  59  82 106 142 186 228 274 331
#     4  11  23  39  60  85 114 147 186 235 291 347
#
# _framework density 19.788844000000001
#
# number of rings (size 3 to 8) (size 9 to 14) (size 15 to 20)
#    0.000    2.000    1.667    3.000    0.000    4.000 
#    0.000    2.500    0.000    7.000    0.000    5.833 
#    0.000    0.000    0.000    0.000    0.000    0.000 
#
# Total GULP energy -267658.752563 kJ/mol
# GULP energy per Si atom -5576.224012 kJ/mol
# Density = 1.974380 g / cm^3
# Si number density = 19.788844 Si / 1000 Ang^3
#
#
#
# Elastic Constant Matrix: (Units=GPa)
#
#
# Indices 1 2 3 4 5 6 
#
# 1 128.6216 74.5957 21.5626 0.0000 0.0000 0.0000
# 2 74.5957 144.1409 10.6703 0.0000 0.0000 0.0000
# 3 21.5626 10.6703 16.2068 0.0000 0.0000 0.0000
# 4 0.0000 0.0000 0.0000 18.4535 0.0000 0.0000
# 5 0.0000 0.0000 0.0000 0.0000 2.9967 0.0000
# 6 0.0000 0.0000 0.0000 0.0000 0.0000 43.1842
#
#
#
# Elastic Compliance Matrix: (Units=1/GPa)
#
#
# Indices 1 2 3 4 5 6 
#
# 1 0.013637 -0.006007 -0.014189 0.000000 0.000000 0.000000
# 2 -0.006007 0.009939 0.001449 0.000000 0.000000 0.000000
# 3 -0.014189 0.001449 0.079627 0.000000 0.000000 0.000000
# 4 0.000000 0.000000 0.000000 0.054190 0.000000 0.000000
# 5 0.000000 0.000000 0.000000 0.000000 0.333706 0.000000
# 6 0.000000 0.000000 0.000000 0.000000 0.000000 0.023157
#
#
# Mechanical properties :
#
#
# Convention : Reuss Voigt Hill
#
# Bulk Modulus (GPa) = 15.21879 55.84739 35.53309
# Shear Modulus (GPa) = 8.71605 25.06959 16.89282
#
# Velocity S-wave (km/s) = 2.10097 3.56315 2.92490
# Velocity P-wave (km/s) = 3.68683 6.72391 5.42235
#
# Compressibility (1/GPa) = 0.06570824
#
# Stress axis : x y z
#
# Youngs Moduli (GPa) = 73.32749 100.61077 12.55854
#
# Poissons Ratio (x) = 0.60440 0.17819
# Poissons Ratio (y) = 0.44050 -0.01819
# Poissons Ratio (z) = 1.04045 -0.14574
#
# Static dielectric constant tensor:
#      x y z
#    x 1.740990 0.000000 0.000000 
#    y 0.000000 1.760350 0.000000 
#    z 0.000000 0.000000 1.691440 
# 
# From -- ./inp_files/14856.got.cif
#   From: 2010.05.17/outbox.cif.g08.bks.cpg/sg71_8_cif.got.tgz:14856.got - 2010.06.03 16:22:01.
