data_PCOD9521218
_publ_section_title
;
Structure prediction by ZEFSAII (Michael W. Deem and Ramdas Pophale) SiO2 
 PCOD9521218
Probable space group: I M M M
;
_chemical_formula_sum "Si O2"
_cell_formula_units_Z 104
_cell_length_a 21.287238
_cell_length_b 32.833436
_cell_length_c 8.602714
_cell_angle_alpha 90.000000
_cell_angle_beta 90.000000
_cell_angle_gamma 90.000000
_cell_volume 6012.722136
_symmetry_space_group_name_H-M "I M M M"
_symmetry_group_IT_number 71
_symmetry_cell_setting 'orthorhombic'
loop_
_space_group_symop_operation_xyz
x,y,z
-x,-y,z
x,-y,-z
-x,y,-z
-x,-y,-z
x,y,-z
-x,y,z
x,-y,z
1/2+x,1/2+y,1/2+z
1/2-x,1/2-y,1/2+z
1/2+x,1/2-y,1/2-z
1/2-x,1/2+y,1/2-z
1/2-x,1/2-y,1/2-z
1/2+x,1/2+y,1/2-z
1/2-x,1/2+y,1/2+z
1/2+x,1/2-y,1/2+z
loop_
_atom_site_type_symbol
_atom_site_label
_atom_site_fract_x
_atom_site_fract_y
_atom_site_fract_z
Si Si1 0.929620 0.500000 0.189821
Si Si2 0.571193 0.309411 0.687257
Si Si3 0.182740 0.863910 0.686146
Si Si4 0.841606 0.571873 0.816360
Si Si5 0.071323 0.285944 0.812596
Si Si6 0.182352 0.341923 0.318053
Si Si7 0.801061 0.955123 0.315798
O O1 0.893475 0.459667 0.237034
O O2 0.000000 0.500000 0.244652
O O3 0.928391 0.500000 0.000000
O O4 0.576324 0.312180 0.500000
O O5 0.500000 0.321448 0.730699
O O6 0.623816 0.337232 0.763228
O O7 0.578932 0.261746 0.728597
O O8 0.187476 0.866259 0.500000
O O9 0.247578 0.843259 0.744717
O O10 0.175950 0.910982 0.745633
O O11 0.842010 0.612780 0.719126
O O12 0.774226 0.549866 0.804004
O O13 0.849952 0.581989 0.000000
O O14 0.129990 0.311373 0.748895
O O15 0.000000 0.298554 0.762451
O O16 0.072156 0.288911 0.000000
O O17 0.188902 0.334580 0.500000
O O18 0.816639 0.956065 0.500000
O O19 0.819313 0.000000 0.251476
#
# Coordination Sequence:
#
# PCOD9521218 Si02
#       7
#     8  16  16  16  16  16  16
#     4   9  16  26  45  71  93 123 172 219 256 299
#     4   9  19  37  59  80 105 136 168 209 263 319
#     4  10  20  33  54  82 108 136 174 217 259 307
#     4   9  16  29  48  68  94 130 171 216 258 300
#     4   9  19  37  58  76  97 134 181 220 258 310
#     4  11  22  34  50  75 108 140 171 216 268 314
#     4   8  13  25  47  71  95 127 166 210 251 287
#
# _framework density 17.296658000000001
#
# number of rings (size 3 to 8) (size 9 to 14) (size 15 to 20)
#    0.000    2.692    0.769    3.692    0.000    2.462 
#    0.000    3.462    0.000    2.308    0.000    3.231 
#    0.000    0.000    0.000    0.000    0.000    0.000 
#
# Total GULP energy -289613.875156 kJ/mol
# GULP energy per Si atom -5569.497599 kJ/mol
# Density = 1.725729 g / cm^3
# Si number density = 17.296658 Si / 1000 Ang^3
#
#
#
# Elastic Constant Matrix: (Units=GPa)
#
#
# Indices 1 2 3 4 5 6 
#
# 1 127.4397 86.5708 34.4412 0.0000 0.0000 0.0000
# 2 86.5708 106.1217 33.0646 0.0000 0.0000 0.0000
# 3 34.4412 33.0646 33.7889 0.0000 0.0001 0.0002
# 4 0.0000 0.0000 0.0000 9.1488 -0.0001 0.0000
# 5 0.0000 0.0000 0.0001 -0.0001 25.3542 0.0000
# 6 0.0000 0.0000 0.0002 0.0000 0.0000 36.1360
#
#
#
# Elastic Compliance Matrix: (Units=1/GPa)
#
#
# Indices 1 2 3 4 5 6 
#
# 1 0.018368 -0.013164 -0.005840 0.000000 0.000000 0.000000
# 2 -0.013164 0.022991 -0.009080 0.000000 0.000000 0.000000
# 3 -0.005840 -0.009080 0.044434 0.000000 0.000000 0.000000
# 4 0.000000 0.000000 0.000000 0.109304 0.000000 0.000000
# 5 0.000000 0.000000 0.000000 0.000000 0.039441 0.000000
# 6 0.000000 0.000000 0.000000 0.000000 0.000000 0.027673
#
#
# Mechanical properties :
#
#
# Convention : Reuss Voigt Hill
#
# Bulk Modulus (GPa) = 33.75662 63.94485 48.85073
# Shear Modulus (GPa) = 15.23205 21.67938 18.45571
#
# Velocity S-wave (km/s) = 2.97077 3.54416 3.27006
# Velocity P-wave (km/s) = 5.59696 7.33470 6.52395
#
# Compressibility (1/GPa) = 0.02962382
#
# Stress axis : x y z
#
# Youngs Moduli (GPa) = 54.44331 43.49506 22.50526
#
# Poissons Ratio (x) = 0.57257 0.13144
# Poissons Ratio (y) = 0.71670 0.20435
# Poissons Ratio (z) = 0.31797 0.39494
#
# Static dielectric constant tensor:
#      x y z
#    x 1.573750 0.000000 0.000000 
#    y 0.000000 1.615230 0.000000 
#    z 0.000000 0.000000 1.596700 
# 
# From -- ./inp_files/11475.got.cif
#   From: 2010.05.17/outbox.cif.g08.bks.cpg/sg71_6_cif.got.tgz:11475.got - 2010.06.03 16:22:01.
