data_PCOD9521710
_publ_section_title
;
Structure prediction by ZEFSAII (Michael W. Deem and Ramdas Pophale) SiO2 
 PCOD9521710
Probable space group: I M M M
;
_chemical_formula_sum "Si O2"
_cell_formula_units_Z 88
_cell_length_a 20.648846
_cell_length_b 9.423492
_cell_length_c 25.685548
_cell_angle_alpha 90.000000
_cell_angle_beta 90.000000
_cell_angle_gamma 90.000000
_cell_volume 4998.002710
_symmetry_space_group_name_H-M "I M M M"
_symmetry_group_IT_number 71
_symmetry_cell_setting 'orthorhombic'
loop_
_space_group_symop_operation_xyz
x,y,z
-x,-y,z
x,-y,-z
-x,y,-z
-x,-y,-z
x,y,-z
-x,y,z
x,-y,z
1/2+x,1/2+y,1/2+z
1/2-x,1/2-y,1/2+z
1/2+x,1/2-y,1/2-z
1/2-x,1/2+y,1/2-z
1/2-x,1/2-y,1/2-z
1/2+x,1/2+y,1/2-z
1/2-x,1/2+y,1/2+z
1/2+x,1/2-y,1/2+z
loop_
_atom_site_type_symbol
_atom_site_label
_atom_site_fract_x
_atom_site_fract_y
_atom_site_fract_z
Si Si1 0.770225 0.830165 0.000000
Si Si2 0.317105 0.336210 0.701826
Si Si3 0.664563 0.169275 0.803032
Si Si4 0.000000 0.341027 0.937787
Si Si5 0.626232 0.664307 0.412339
Si Si6 0.634235 0.669835 0.000000
Si Si7 0.076018 0.829763 0.612944
O O1 0.814052 0.794773 0.949728
O O2 0.702815 0.748844 0.000000
O O3 0.758434 0.000000 0.000000
O O4 0.319265 0.500000 0.720645
O O5 0.346638 0.235316 0.745832
O O6 0.241660 0.303200 0.689925
O O7 0.353516 0.326725 0.647448
O O8 0.621447 0.246263 0.846565
O O9 0.654214 0.000000 0.804481
O O10 0.935828 0.258854 0.921828
O O11 0.000000 0.500000 0.916373
O O12 0.000000 0.347609 0.000000
O O13 0.611109 0.500000 0.425149
O O14 0.596185 0.704384 0.946668
O O15 0.644438 0.500000 0.000000
O O16 0.000000 0.797326 0.620894
O O17 0.084524 0.000000 0.619952
#
# Coordination Sequence:
#
# PCOD9521710 Si02
#       7
#     8  16  16   8  16   8  16
#     4  10  20  34  56  85 115 143 178 227 276 327
#     4   9  19  36  58  84 111 143 184 227 274 329
#     4  10  20  36  59  85 113 143 180 230 279 323
#     4  11  23  37  53  77 113 147 181 230 281 324
#     4  10  20  36  58  80 107 147 189 224 267 333
#     4  10  21  36  57  85 112 143 183 227 274 322
#     4  10  21  38  58  80 111 150 188 224 267 327
#
# _framework density 17.607033000000001
#
# number of rings (size 3 to 8) (size 9 to 14) (size 15 to 20)
#    0.000    2.091    0.909    2.182    0.000    6.182 
#    1.636    0.000    0.000    1.636    0.000    0.000 
#    0.000    0.000    0.000    0.000    0.000    0.000 
#
# Total GULP energy -245549.042342 kJ/mol
# GULP energy per Si atom -5580.660053 kJ/mol
# Density = 1.756696 g / cm^3
# Si number density = 17.607033 Si / 1000 Ang^3
#
#
#
# Elastic Constant Matrix: (Units=GPa)
#
#
# Indices 1 2 3 4 5 6 
#
# 1 98.7141 63.1733 58.2994 0.0000 0.0000 0.0000
# 2 63.1733 73.2434 63.5932 0.0000 0.0000 0.0000
# 3 58.2994 63.5932 114.1456 0.0000 0.0000 0.0000
# 4 0.0000 0.0000 0.0000 22.6951 0.0000 0.0000
# 5 0.0000 0.0000 0.0000 0.0000 12.0728 0.0000
# 6 0.0000 0.0000 0.0000 0.0000 0.0000 36.3478
#
#
#
# Elastic Compliance Matrix: (Units=1/GPa)
#
#
# Indices 1 2 3 4 5 6 
#
# 1 0.022715 -0.018437 -0.001330 0.000000 0.000000 0.000000
# 2 -0.018437 0.041411 -0.013654 0.000000 0.000000 0.000000
# 3 -0.001330 -0.013654 0.017047 0.000000 0.000000 0.000000
# 4 0.000000 0.000000 0.000000 0.044062 0.000000 0.000000
# 5 0.000000 0.000000 0.000000 0.000000 0.082831 0.000000
# 6 0.000000 0.000000 0.000000 0.000000 0.000000 0.027512
#
#
# Mechanical properties :
#
#
# Convention : Reuss Voigt Hill
#
# Bulk Modulus (GPa) = 69.78253 72.91499 71.34876
# Shear Modulus (GPa) = 16.27628 20.95895 18.61762
#
# Velocity S-wave (km/s) = 3.04372 3.45392 3.25529
# Velocity P-wave (km/s) = 7.21607 7.57684 7.39865
#
# Compressibility (1/GPa) = 0.01433023
#
# Stress axis : x y z
#
# Youngs Moduli (GPa) = 44.02440 24.14843 58.66204
#
# Poissons Ratio (x) = 0.44523 0.07800
# Poissons Ratio (y) = 0.81169 0.80097
# Poissons Ratio (z) = 0.05853 0.32972
#
# Static dielectric constant tensor:
#      x y z
#    x 1.566210 0.000000 0.000000 
#    y 0.000000 1.600900 0.000000 
#    z 0.000000 0.000000 1.589760 
# 
# From -- ./inp_files/61160.got.cif
#   From: 2010.05.17/outbox.cif.g08.bks.cpg/sg71_31_cif.got.tgz:61160.got - 2010.06.03 16:22:01.
