data_PCOD9521672
_publ_section_title
;
Structure prediction by ZEFSAII (Michael W. Deem and Ramdas Pophale) SiO2 
 PCOD9521672
Probable space group: I M M M
;
_chemical_formula_sum "Si O2"
_cell_formula_units_Z 88
_cell_length_a 12.553607
_cell_length_b 11.799076
_cell_length_c 32.187222
_cell_angle_alpha 90.000000
_cell_angle_beta 90.000000
_cell_angle_gamma 90.000000
_cell_volume 4767.602321
_symmetry_space_group_name_H-M "I M M M"
_symmetry_group_IT_number 71
_symmetry_cell_setting 'orthorhombic'
loop_
_space_group_symop_operation_xyz
x,y,z
-x,-y,z
x,-y,-z
-x,y,-z
-x,-y,-z
x,y,-z
-x,y,z
x,-y,z
1/2+x,1/2+y,1/2+z
1/2-x,1/2-y,1/2+z
1/2+x,1/2-y,1/2-z
1/2-x,1/2+y,1/2-z
1/2-x,1/2-y,1/2-z
1/2+x,1/2+y,1/2-z
1/2-x,1/2+y,1/2+z
1/2+x,1/2-y,1/2+z
loop_
_atom_site_type_symbol
_atom_site_label
_atom_site_fract_x
_atom_site_fract_y
_atom_site_fract_z
Si Si1 0.848491 0.500000 0.452287
Si Si2 0.249933 0.787837 0.179635
Si Si3 0.704993 0.865391 0.397515
Si Si4 0.500000 0.137104 0.452721
Si Si5 0.381009 0.000000 0.144565
Si Si6 0.373638 0.627641 0.242460
Si Si7 0.127173 0.248499 0.547180
O O1 0.894929 0.500000 0.500000
O O2 0.892147 0.500000 0.405241
O O3 0.809767 0.369008 0.451848
O O4 0.201419 0.707993 0.144214
O O5 0.325943 0.712336 0.208703
O O6 0.164016 0.837987 0.211556
O O7 0.316429 0.889395 0.158865
O O8 0.606633 0.832689 0.427550
O O9 0.815109 0.833867 0.420881
O O10 0.699626 0.000000 0.389469
O O11 0.500000 0.180917 0.500000
O O12 0.500000 0.000000 0.455048
O O13 0.500000 0.000000 0.162779
O O14 0.500000 0.629652 0.240142
O O15 0.334753 0.500000 0.233957
O O16 0.133746 0.204220 0.500000
O O17 0.000000 0.268952 0.555694
#
# Coordination Sequence:
#
# PCOD9521672 Si02
#       7
#     8  16  16   8   8  16  16
#     4  10  20  35  56  84 120 162 200 236 290 358
#     4  11  23  39  61  91 120 151 199 247 301 362
#     4  11  23  38  59  86 119 155 201 252 300 359
#     4   9  20  40  62  83 115 165 213 250 297 355
#     4  12  22  37  61  91 125 161 204 248 292 359
#     4  10  22  42  65  87 118 155 191 241 309 374
#     4  10  20  34  55  84 117 154 195 242 295 350
#
# _framework density 18.457915
#
# number of rings (size 3 to 8) (size 9 to 14) (size 15 to 20)
#    0.000    1.545    2.727    2.455    1.273    4.182 
#    0.000    0.909    0.000    1.636    0.000    4.455 
#    0.000    0.000    0.000    0.000    0.000    0.000 
#
# Total GULP energy -244997.657809 kJ/mol
# GULP energy per Si atom -5568.128587 kJ/mol
# Density = 1.841590 g / cm^3
# Si number density = 18.457915 Si / 1000 Ang^3
#
#
#
# Elastic Constant Matrix: (Units=GPa)
#
#
# Indices 1 2 3 4 5 6 
#
# 1 47.0775 19.8139 26.8371 0.0000 0.0000 0.0000
# 2 19.8139 99.4400 40.4906 0.0000 0.0000 0.0000
# 3 26.8371 40.4906 117.9059 0.0000 0.0000 0.0000
# 4 0.0000 0.0000 0.0000 127.9597 0.0000 0.0000
# 5 0.0000 0.0000 0.0000 0.0000 0.1236 0.0000
# 6 0.0000 0.0000 0.0000 0.0000 0.0000 3.4710
#
#
#
# Elastic Compliance Matrix: (Units=1/GPa)
#
#
# Indices 1 2 3 4 5 6 
#
# 1 0.025217 -0.003124 -0.004667 0.000000 0.000000 0.000000
# 2 -0.003124 0.012078 -0.003437 0.000000 0.000000 0.000000
# 3 -0.004667 -0.003437 0.010724 0.000000 0.000000 0.000000
# 4 0.000000 0.000000 0.000000 0.007815 0.000000 0.000000
# 5 0.000000 0.000000 0.000000 0.000000 8.093566 -0.000001
# 6 0.000000 0.000000 0.000000 0.000000 -0.000001 0.288105
#
#
# Mechanical properties :
#
#
# Convention : Reuss Voigt Hill
#
# Bulk Modulus (GPa) = 39.11863 48.74518 43.93190
# Shear Modulus (GPa) = 0.59042 38.12963 19.36003
#
# Velocity S-wave (km/s) = 0.56619 4.54999 3.24215
# Velocity P-wave (km/s) = 4.65477 7.35319 6.15371
#
# Compressibility (1/GPa) = 0.02556327
#
# Stress axis : x y z
#
# Youngs Moduli (GPa) = 39.65592 82.79362 93.25066
#
# Poissons Ratio (x) = 0.25868 0.43518
# Poissons Ratio (y) = 0.12390 0.32047
# Poissons Ratio (z) = 0.18507 0.28454
#
# Static dielectric constant tensor:
#      x y z
#    x 1.622940 0.000000 0.000000 
#    y 0.000000 1.647750 0.000000 
#    z 0.000000 0.000000 1.621750 
# 
# From -- ./inp_files/69125.got.cif
#   From: 2010.05.17/outbox.cif.g08.bks.cpg/sg71_35_cif.got.tgz:69125.got - 2010.06.03 16:22:01.
