data_PCOD9521506
_publ_section_title
;
Structure prediction by ZEFSAII (Michael W. Deem and Ramdas Pophale) SiO2 
 PCOD9521506
Probable space group: I M M M
;
_chemical_formula_sum "Si O2"
_cell_formula_units_Z 88
_cell_length_a 20.968724
_cell_length_b 8.137520
_cell_length_c 25.602638
_cell_angle_alpha 90.000000
_cell_angle_beta 90.000000
_cell_angle_gamma 90.000000
_cell_volume 4368.665451
_symmetry_space_group_name_H-M "I M M M"
_symmetry_group_IT_number 71
_symmetry_cell_setting 'orthorhombic'
loop_
_space_group_symop_operation_xyz
x,y,z
-x,-y,z
x,-y,-z
-x,y,-z
-x,-y,-z
x,y,-z
-x,y,z
x,-y,z
1/2+x,1/2+y,1/2+z
1/2-x,1/2-y,1/2+z
1/2+x,1/2-y,1/2-z
1/2-x,1/2+y,1/2-z
1/2-x,1/2-y,1/2-z
1/2+x,1/2+y,1/2-z
1/2-x,1/2+y,1/2+z
1/2+x,1/2-y,1/2+z
loop_
_atom_site_type_symbol
_atom_site_label
_atom_site_fract_x
_atom_site_fract_y
_atom_site_fract_z
Si Si1 0.924331 0.798792 0.500000
Si Si2 0.805652 0.811013 0.059682
Si Si3 0.171808 0.809110 0.591470
Si Si4 0.068912 0.301669 0.231009
Si Si5 0.693377 0.804161 0.210596
Si Si6 0.569021 0.304695 0.612303
O O1 0.884039 0.743784 0.447922
O O2 0.000000 0.751780 0.500000
O O3 0.922610 0.000000 0.500000
O O4 0.739518 0.716656 0.063280
O O5 0.865105 0.735230 0.090419
O O6 0.793782 0.000000 0.078093
O O7 0.826245 0.819233 0.000000
O O8 0.187663 0.741915 0.649553
O O9 0.157304 0.000000 0.598351
O O10 0.073385 0.500000 0.224847
O O11 0.127909 0.241684 0.264051
O O12 0.070468 0.223145 0.174041
O O13 0.000000 0.265603 0.255418
O O14 0.750000 0.750000 0.250000
O O15 0.694842 0.000000 0.212130
O O16 0.500000 0.239799 0.593342
O O17 0.570003 0.500000 0.600739
#
# Coordination Sequence:
#
# PCOD9521506 Si02
#       6
#     8  16  16  16  16  16
#     4   9  20  40  63  87 116 153 200 252 305 361
#     4  10  20  34  54  78 108 145 184 229 276 326
#     4  11  22  38  60  85 114 150 191 241 295 351
#     4   9  19  36  55  75 104 142 180 220 271 328
#     4  11  23  38  58  86 118 152 191 239 290 350
#     4   9  18  32  51  77 108 143 183 225 268 317
#
# _framework density 20.143453000000001
#
# number of rings (size 3 to 8) (size 9 to 14) (size 15 to 20)
#    0.000    2.091    0.909    2.182    0.000    6.182 
#    0.000    1.818    0.000    3.818    0.000    3.818 
#    0.000    0.000    0.000    0.000    0.000    0.000 
#
# Total GULP energy -245046.544119 kJ/mol
# GULP energy per Si atom -5569.239639 kJ/mol
# Density = 2.009761 g / cm^3
# Si number density = 20.143453 Si / 1000 Ang^3
#
#
#
# Elastic Constant Matrix: (Units=GPa)
#
#
# Indices 1 2 3 4 5 6 
#
# 1 148.9471 12.9846 79.6838 0.0000 0.0000 0.0000
# 2 12.9846 16.9447 10.2523 0.0000 0.0000 0.0000
# 3 79.6838 10.2523 111.4771 0.0000 0.0000 0.0000
# 4 0.0000 0.0000 0.0000 21.3795 0.0000 0.0000
# 5 0.0000 0.0000 0.0000 0.0000 39.8809 0.0000
# 6 0.0000 0.0000 0.0000 0.0000 0.0000 20.8426
#
#
#
# Elastic Compliance Matrix: (Units=1/GPa)
#
#
# Indices 1 2 3 4 5 6 
#
# 1 0.011112 -0.003928 -0.007582 0.000000 0.000000 0.000000
# 2 -0.003928 0.063881 -0.003067 0.000000 0.000000 0.000000
# 3 -0.007582 -0.003067 0.014672 0.000000 0.000000 0.000000
# 4 0.000000 0.000000 0.000000 0.046774 0.000000 0.000000
# 5 0.000000 0.000000 0.000000 0.000000 0.025075 0.000000
# 6 0.000000 0.000000 0.000000 0.000000 0.000000 0.047979
#
#
# Mechanical properties :
#
#
# Convention : Reuss Voigt Hill
#
# Bulk Modulus (GPa) = 16.52578 53.69004 35.10791
# Shear Modulus (GPa) = 19.31861 28.05048 23.68454
#
# Velocity S-wave (km/s) = 3.10022 3.73572 3.43270
# Velocity P-wave (km/s) = 4.58661 6.73195 5.76004
#
# Compressibility (1/GPa) = 0.06051153
#
# Stress axis : x y z
#
# Youngs Moduli (GPa) = 89.98980 15.65400 68.15673
#
# Poissons Ratio (x) = 0.06149 0.51676
# Poissons Ratio (y) = 0.35348 0.20906
# Poissons Ratio (z) = 0.68229 0.04802
#
# Static dielectric constant tensor:
#      x y z
#    x 1.752330 0.000000 0.000000 
#    y 0.000000 1.736440 0.000000 
#    z 0.000000 0.000000 1.758730 
# 
# From -- ./inp_files/10382.got.cif
#   From: 2010.05.17/outbox.cif.g08.bks.cpg/sg71_6_cif.got.tgz:10382.got - 2010.06.03 16:22:01.
