data_PCOD9521056
_publ_section_title
;
Structure prediction by ZEFSAII (Michael W. Deem and Ramdas Pophale) SiO2 
 PCOD9521056
Probable space group: I M M M
;
_chemical_formula_sum "Si O2"
_cell_formula_units_Z 72
_cell_length_a 24.263701
_cell_length_b 9.061308
_cell_length_c 17.317637
_cell_angle_alpha 90.000000
_cell_angle_beta 90.000000
_cell_angle_gamma 90.000000
_cell_volume 3807.470702
_symmetry_space_group_name_H-M "I M M M"
_symmetry_group_IT_number 71
_symmetry_cell_setting 'orthorhombic'
loop_
_space_group_symop_operation_xyz
x,y,z
-x,-y,z
x,-y,-z
-x,y,-z
-x,-y,-z
x,y,-z
-x,y,z
x,-y,z
1/2+x,1/2+y,1/2+z
1/2-x,1/2-y,1/2+z
1/2+x,1/2-y,1/2-z
1/2-x,1/2+y,1/2-z
1/2-x,1/2-y,1/2-z
1/2+x,1/2+y,1/2-z
1/2-x,1/2+y,1/2+z
1/2+x,1/2-y,1/2+z
loop_
_atom_site_type_symbol
_atom_site_label
_atom_site_fract_x
_atom_site_fract_y
_atom_site_fract_z
Si Si1 0.879900 0.180206 0.910093
Si Si2 0.267584 0.676389 0.670276
Si Si3 0.561188 0.827965 0.905891
Si Si4 0.000000 0.828640 0.094155
Si Si5 0.169862 0.165663 0.592276
O O1 0.827847 0.225374 0.859156
O O2 0.940367 0.234812 0.883292
O O3 0.881827 0.000000 0.909414
O O4 0.871528 0.222769 0.000000
O O5 0.267704 0.500000 0.676182
O O6 0.250000 0.750000 0.750000
O O7 0.220701 0.729769 0.611455
O O8 0.500000 0.779005 0.880968
O O9 0.612310 0.732007 0.877428
O O10 0.568372 0.000000 0.885226
O O11 0.561439 0.822356 0.000000
O O12 0.000000 0.000000 0.118913
O O13 0.000000 0.828772 0.000000
O O14 0.164937 0.157390 0.500000
O O15 0.179102 0.000000 0.622624
#
# Coordination Sequence:
#
# PCOD9521056 Si02
#       5
#    16  16  16   8  16
#     4   8  14  26  48  77 103 127 159 203 257 316
#     4  11  22  35  51  71 101 140 177 213 257 311
#     4   8  14  26  46  72 100 129 161 200 249 301
#     4   7  10  20  42  74 105 123 144 193 258 313
#     4  10  20  33  51  76 103 131 169 216 261 307
#
# _framework density 18.910193
#
# number of rings (size 3 to 8) (size 9 to 14) (size 15 to 20)
#    0.000    3.000    0.000    4.000    0.000    2.667 
#    0.000    2.222    2.444    0.000    0.000    2.333 
#    0.000   12.444    0.000    0.000    0.000    0.000 
#
# Total GULP energy -200512.123466 kJ/mol
# GULP energy per Si atom -5569.781207 kJ/mol
# Density = 1.886715 g / cm^3
# Si number density = 18.910193 Si / 1000 Ang^3
#
#
#
# Elastic Constant Matrix: (Units=GPa)
#
#
# Indices 1 2 3 4 5 6 
#
# 1 202.9314 47.3092 45.6600 0.0000 0.0000 0.0000
# 2 47.3092 46.1558 14.8920 0.0000 0.0000 0.0000
# 3 45.6600 14.8920 28.2610 0.0000 0.0000 0.0000
# 4 0.0000 0.0000 0.0000 19.2210 0.0000 0.0000
# 5 0.0000 0.0000 0.0000 0.0000 3.6528 0.0000
# 6 0.0000 0.0000 0.0000 0.0000 0.0000 14.1199
#
#
#
# Elastic Compliance Matrix: (Units=1/GPa)
#
#
# Indices 1 2 3 4 5 6 
#
# 1 0.008692 -0.005275 -0.011263 0.000000 0.000000 0.000000
# 2 -0.005275 0.029305 -0.006920 0.000000 0.000000 0.000000
# 3 -0.011263 -0.006920 0.057229 0.000000 0.000000 0.000000
# 4 0.000000 0.000000 0.000000 0.052026 0.000000 0.000000
# 5 0.000000 0.000000 0.000000 0.000000 0.273766 0.000000
# 6 0.000000 0.000000 0.000000 0.000000 0.000000 0.070822
#
#
# Mechanical properties :
#
#
# Convention : Reuss Voigt Hill
#
# Bulk Modulus (GPa) = 20.69993 54.78561 37.74277
# Shear Modulus (GPa) = 9.01131 18.69788 13.85459
#
# Velocity S-wave (km/s) = 2.18533 3.14789 2.70969
# Velocity P-wave (km/s) = 4.16386 6.49974 5.45822
#
# Compressibility (1/GPa) = 0.04830935
#
# Stress axis : x y z
#
# Youngs Moduli (GPa) = 115.05133 34.12374 17.47380
#
# Poissons Ratio (x) = 0.18000 0.19681
# Poissons Ratio (y) = 0.60688 0.12092
# Poissons Ratio (z) = 1.29586 0.23613
#
# Static dielectric constant tensor:
#      x y z
#    x 1.695630 0.000000 0.000000 
#    y 0.000000 1.644710 0.000000 
#    z 0.000000 0.000000 1.670320 
# 
# From -- ./inp_files/7952.got.cif
#   From: 2010.05.17/outbox.cif.g08.bks.cpg/sg71_4_cif.got.tgz:7952.got - 2010.06.03 16:22:01.
