data_PCOD9521019
_publ_section_title
;
Structure prediction by ZEFSAII (Michael W. Deem and Ramdas Pophale) SiO2 
 PCOD9521019
Probable space group: I M M M
;
_chemical_formula_sum "Si O2"
_cell_formula_units_Z 120
_cell_length_a 23.142591
_cell_length_b 18.510645
_cell_length_c 16.735057
_cell_angle_alpha 90.000000
_cell_angle_beta 90.000000
_cell_angle_gamma 90.000000
_cell_volume 7169.035450
_symmetry_space_group_name_H-M "I M M M"
_symmetry_group_IT_number 71
_symmetry_cell_setting 'orthorhombic'
loop_
_space_group_symop_operation_xyz
x,y,z
-x,-y,z
x,-y,-z
-x,y,-z
-x,-y,-z
x,y,-z
-x,y,z
x,-y,z
1/2+x,1/2+y,1/2+z
1/2-x,1/2-y,1/2+z
1/2+x,1/2-y,1/2-z
1/2-x,1/2+y,1/2-z
1/2-x,1/2-y,1/2-z
1/2+x,1/2+y,1/2-z
1/2-x,1/2+y,1/2+z
1/2+x,1/2-y,1/2+z
loop_
_atom_site_type_symbol
_atom_site_label
_atom_site_fract_x
_atom_site_fract_y
_atom_site_fract_z
Si Si1 0.653195 0.191573 0.405390
Si Si2 0.227276 0.916622 0.190469
Si Si3 0.066271 0.416522 0.180148
Si Si4 0.622822 0.642743 0.595763
Si Si5 0.433460 0.916410 0.127004
Si Si6 0.227277 0.197403 0.320459
Si Si7 0.322690 0.174628 0.907862
Si Si8 0.000000 0.083378 0.902854
O O1 0.646560 0.182176 0.500000
O O2 0.611702 0.136892 0.359165
O O3 0.636777 0.274162 0.384732
O O4 0.719105 0.181990 0.378571
O O5 0.171024 0.906954 0.135513
O O6 0.212647 0.875350 0.273029
O O7 0.279429 0.875719 0.144226
O O8 0.242190 0.000000 0.202623
O O9 0.077300 0.500000 0.157492
O O10 0.069570 0.412780 0.276347
O O11 0.000000 0.398725 0.157183
O O12 0.625859 0.634853 0.500000
O O13 0.558730 0.621849 0.622979
O O14 0.500000 0.900860 0.103972
O O15 0.385527 0.861883 0.095093
O O16 0.420994 0.000000 0.104123
O O17 0.250000 0.250000 0.250000
O O18 0.180969 0.245761 0.368226
O O19 0.302567 0.177939 0.000000
O O20 0.000000 0.000000 0.878155
O O21 0.000000 0.084799 0.000000
#
# Coordination Sequence:
#
# PCOD9521019 Si02
#       8
#    16  16  16  16  16  16  16   8
#     4  11  21  33  51  75 104 139 177 221 265 309
#     4  11  22  35  56  80 103 135 177 222 264 314
#     4   9  19  35  53  74 105 146 187 222 256 304
#     4  10  20  33  50  77 107 136 170 209 263 319
#     4   9  19  35  54  78 109 142 174 213 266 323
#     4  10  20  36  53  71 104 137 173 214 266 315
#     4  11  21  34  54  80 108 139 175 218 269 322
#     4   9  18  32  48  68 103 141 164 196 252 315
#
# _framework density 16.738652999999999
#
# number of rings (size 3 to 8) (size 9 to 14) (size 15 to 20)
#    0.000    1.933    2.667    4.000    0.933    4.800 
#    0.000    1.333    0.000    1.200    0.000    0.000 
#    0.000    0.000    0.000    1.200    0.000    0.000 
#
# Total GULP energy -334744.506045 kJ/mol
# GULP energy per Si atom -5579.075101 kJ/mol
# Density = 1.670056 g / cm^3
# Si number density = 16.738653 Si / 1000 Ang^3
#
#
#
# Elastic Constant Matrix: (Units=GPa)
#
#
# Indices 1 2 3 4 5 6 
#
# 1 81.5982 30.4289 20.3776 0.0000 0.0000 0.0000
# 2 30.4289 83.7283 41.4880 0.0000 0.0000 0.0000
# 3 20.3776 41.4880 49.7462 0.0000 0.0000 0.0000
# 4 0.0000 0.0000 0.0000 -2.9878 0.0000 0.0000
# 5 0.0000 0.0000 0.0000 0.0000 22.1100 0.0000
# 6 0.0000 0.0000 0.0000 0.0000 0.0000 32.2059
#
#
#
# Elastic Compliance Matrix: (Units=1/GPa)
#
#
# Indices 1 2 3 4 5 6 
#
# 1 0.014372 -0.003930 -0.002610 0.000000 0.000000 0.000000
# 2 -0.003930 0.021430 -0.016262 0.000000 0.000000 0.000000
# 3 -0.002610 -0.016262 0.034734 0.000000 0.000000 0.000000
# 4 0.000000 0.000000 0.000000 -0.334698 0.000000 0.000000
# 5 0.000000 0.000000 0.000000 0.000000 0.045228 0.000000
# 6 0.000000 0.000000 0.000000 0.000000 0.000000 0.031050
#
#
# Mechanical properties :
#
#
# Convention : Reuss Voigt Hill
#
# Bulk Modulus (GPa) = 40.10980 44.40686 42.25833
# Shear Modulus (GPa) = -37.32238 18.45083 -9.43577
#
# Velocity S-wave (km/s) = -4.72711 3.32368 -2.37684
# Velocity P-wave (km/s) = 2.40409 6.42777 4.21524
#
# Compressibility (1/GPa) = 0.02493156
#
# Stress axis : x y z
#
# Youngs Moduli (GPa) = 69.57732 46.66371 28.79035
#
# Poissons Ratio (x) = 0.18340 0.07513
# Poissons Ratio (y) = 0.27345 0.46820
# Poissons Ratio (z) = 0.18157 0.75887
#
# Static dielectric constant tensor:
#      x y z
#    x 1.565640 0.000000 0.000000 
#    y 0.000000 1.561720 0.000000 
#    z 0.000000 0.000000 1.577950 
# 
# From -- ./inp_files/47586.got.cif
#   From: 2010.05.17/outbox.cif.g08.bks.cpg/sg71_24_cif.got.tgz:47586.got - 2010.06.03 16:22:01.
