data_PCOD9521048
_publ_section_title
;
Structure prediction by ZEFSAII (Michael W. Deem and Ramdas Pophale) SiO2 
 PCOD9521048
Probable space group: I M M M
;
_chemical_formula_sum "Si O2"
_cell_formula_units_Z 64
_cell_length_a 9.420055
_cell_length_b 14.158797
_cell_length_c 29.711349
_cell_angle_alpha 90.000000
_cell_angle_beta 90.000000
_cell_angle_gamma 90.000000
_cell_volume 3962.800092
_symmetry_space_group_name_H-M "I M M M"
_symmetry_group_IT_number 71
_symmetry_cell_setting 'orthorhombic'
loop_
_space_group_symop_operation_xyz
x,y,z
-x,-y,z
x,-y,-z
-x,y,-z
-x,-y,-z
x,y,-z
-x,y,z
x,-y,z
1/2+x,1/2+y,1/2+z
1/2-x,1/2-y,1/2+z
1/2+x,1/2-y,1/2-z
1/2-x,1/2+y,1/2-z
1/2-x,1/2-y,1/2-z
1/2+x,1/2+y,1/2-z
1/2-x,1/2+y,1/2+z
1/2+x,1/2-y,1/2+z
loop_
_atom_site_type_symbol
_atom_site_label
_atom_site_fract_x
_atom_site_fract_y
_atom_site_fract_z
Si Si1 0.838173 0.720952 0.911746
Si Si2 0.827046 0.609277 0.000000
Si Si3 0.000000 0.890273 0.054246
Si Si4 0.167775 0.889391 0.765714
Si Si5 0.668083 0.735357 0.821255
O O1 0.867298 0.829738 0.926769
O O2 0.741326 0.713018 0.868447
O O3 0.000000 0.686509 0.901418
O O4 0.782869 0.663349 0.954745
O O5 0.784888 0.500000 0.000000
O O6 0.000000 0.613978 0.000000
O O7 0.000000 0.000000 0.066889
O O8 0.000000 0.882667 0.000000
O O9 0.259805 0.828456 0.800202
O O10 0.192399 0.846256 0.716035
O O11 0.000000 0.876165 0.775933
O O12 0.199769 0.000000 0.767225
O O13 0.500000 0.747809 0.826284
#
# Coordination Sequence:
#
# PCOD9521048 Si02
#       5
#    16   8   8  16  16
#     4   9  17  32  49  74  99 129 169 202 243 299
#     4   9  16  30  51  75 103 130 166 213 246 279
#     4   9  16  30  52  74  94 126 170 212 236 279
#     4   9  19  36  54  71  95 133 173 205 243 297
#     4  10  20  33  51  75 104 130 160 211 254 297
#
# _framework density 16.150196000000001
#
# number of rings (size 3 to 8) (size 9 to 14) (size 15 to 20)
#    0.750    2.000    1.250    0.750    0.000    3.500 
#    0.000    0.625    0.000    0.750    0.000    1.750 
#    0.000    0.000    0.000    0.000    0.000    0.000 
#
# Total GULP energy -178159.857400 kJ/mol
# GULP energy per Si atom -5567.495544 kJ/mol
# Density = 1.611344 g / cm^3
# Si number density = 16.150196 Si / 1000 Ang^3
#
#
#
# Elastic Constant Matrix: (Units=GPa)
#
#
# Indices 1 2 3 4 5 6 
#
# 1 53.8578 41.2141 70.3301 0.0000 0.0000 0.0000
# 2 41.2141 103.8660 61.2919 0.0000 0.0000 0.0000
# 3 70.3301 61.2919 149.3258 0.0000 0.0000 0.0000
# 4 0.0000 0.0000 0.0000 4.9772 0.0000 0.0000
# 5 0.0000 0.0000 0.0000 0.0000 34.4200 0.0000
# 6 0.0000 0.0000 0.0000 0.0000 0.0000 13.4231
#
#
#
# Elastic Compliance Matrix: (Units=1/GPa)
#
#
# Indices 1 2 3 4 5 6 
#
# 1 0.053201 -0.008345 -0.021631 0.000000 0.000000 0.000000
# 2 -0.008345 0.014014 -0.001822 0.000000 0.000000 0.000000
# 3 -0.021631 -0.001822 0.017633 0.000000 0.000000 0.000000
# 4 0.000000 0.000000 0.000000 0.200915 0.000000 0.000000
# 5 0.000000 0.000000 0.000000 0.000000 0.029053 0.000000
# 6 0.000000 0.000000 0.000000 0.000000 0.000000 0.074498
#
#
# Mechanical properties :
#
#
# Convention : Reuss Voigt Hill
#
# Bulk Modulus (GPa) = 47.05710 72.52464 59.79087
# Shear Modulus (GPa) = 10.86968 19.51164 15.19066
#
# Velocity S-wave (km/s) = 2.59711 3.47960 3.07023
# Velocity P-wave (km/s) = 6.18011 7.81967 7.04773
#
# Compressibility (1/GPa) = 0.02125078
#
# Stress axis : x y z
#
# Youngs Moduli (GPa) = 18.79665 71.35598 56.71329
#
# Poissons Ratio (x) = 0.59549 1.22679
# Poissons Ratio (y) = 0.15687 0.10331
# Poissons Ratio (z) = 0.40660 0.12999
#
# Static dielectric constant tensor:
#      x y z
#    x 1.527050 0.000000 0.000000 
#    y 0.000000 1.536920 0.000000 
#    z 0.000000 0.000000 1.529180 
# 
# From -- ./inp_files/62790.got.cif
#   From: 2010.05.17/outbox.cif.g08.bks.cpg/sg71_32_cif.got.tgz:62790.got - 2010.06.03 16:22:01.
