data_PCOD9521366
_publ_section_title
;
Structure prediction by ZEFSAII (Michael W. Deem and Ramdas Pophale) SiO2 
 PCOD9521366
Probable space group: I M M M
;
_chemical_formula_sum "Si O2"
_cell_formula_units_Z 88
_cell_length_a 15.901833
_cell_length_b 23.594780
_cell_length_c 11.935464
_cell_angle_alpha 90.000000
_cell_angle_beta 90.000000
_cell_angle_gamma 90.000000
_cell_volume 4478.189091
_symmetry_space_group_name_H-M "I M M M"
_symmetry_group_IT_number 71
_symmetry_cell_setting 'orthorhombic'
loop_
_space_group_symop_operation_xyz
x,y,z
-x,-y,z
x,-y,-z
-x,y,-z
-x,-y,-z
x,y,-z
-x,y,z
x,-y,z
1/2+x,1/2+y,1/2+z
1/2-x,1/2-y,1/2+z
1/2+x,1/2-y,1/2-z
1/2-x,1/2+y,1/2-z
1/2-x,1/2-y,1/2-z
1/2+x,1/2+y,1/2-z
1/2-x,1/2+y,1/2+z
1/2+x,1/2-y,1/2+z
loop_
_atom_site_type_symbol
_atom_site_label
_atom_site_fract_x
_atom_site_fract_y
_atom_site_fract_z
Si Si1 0.665184 0.067572 0.261994
Si Si2 0.238686 0.153450 0.865640
Si Si3 0.500000 0.931610 0.872742
Si Si4 0.397428 0.433695 0.000000
Si Si5 0.099343 0.569246 0.000000
Si Si6 0.403062 0.346266 0.806618
Si Si7 0.906715 0.281969 0.370943
O O1 0.738685 0.092716 0.187574
O O2 0.582267 0.084937 0.193371
O O3 0.648661 0.087755 0.388664
O O4 0.670796 0.000000 0.266099
O O5 0.152422 0.166342 0.802678
O O6 0.318501 0.192374 0.827305
O O7 0.232347 0.154194 0.000000
O O8 0.500000 0.000000 0.873777
O O9 0.500000 0.912888 0.000000
O O10 0.372647 0.396718 0.890137
O O11 0.368613 0.500000 0.000000
O O12 0.500000 0.434534 0.000000
O O13 0.097654 0.500000 0.000000
O O14 0.000000 0.586028 0.000000
O O15 0.500000 0.359231 0.777845
O O16 0.401513 0.286091 0.869714
O O17 0.908881 0.300689 0.500000
O O18 0.000000 0.296058 0.321264
#
# Coordination Sequence:
#
# PCOD9521366 Si02
#       7
#    16  16   8   8   8  16  16
#     4  10  20  34  52  76 113 156 196 243 295 343
#     4  11  24  36  54  87 119 156 205 242 276 343
#     4   9  16  27  47  71 101 148 193 225 275 343
#     4   9  18  35  65  99 118 139 192 255 311 369
#     4   9  16  31  53  75 104 151 201 244 297 352
#     4  10  20  39  64  85 115 153 187 241 309 356
#     4   9  18  36  62  88 115 149 191 243 298 348
#
# _framework density 19.6508
#
# number of rings (size 3 to 8) (size 9 to 14) (size 15 to 20)
#    0.000    2.273    1.818    1.091    1.273    2.909 
#    0.000    0.909    2.000    0.000    0.000    3.818 
#    0.000    0.000    0.000    0.000    0.000    0.000 
#
# Total GULP energy -245134.555391 kJ/mol
# GULP energy per Si atom -5571.239895 kJ/mol
# Density = 1.960607 g / cm^3
# Si number density = 19.650800 Si / 1000 Ang^3
#
#
#
# Elastic Constant Matrix: (Units=GPa)
#
#
# Indices 1 2 3 4 5 6 
#
# 1 90.1359 24.0352 50.3134 0.0000 0.0000 0.0000
# 2 24.0352 81.4109 25.0854 0.0000 0.0000 0.0000
# 3 50.3134 25.0854 123.5659 0.0000 0.0000 0.0000
# 4 0.0000 0.0000 0.0000 14.1555 0.0000 0.0000
# 5 0.0000 0.0000 0.0000 0.0000 27.0673 0.0000
# 6 0.0000 0.0000 0.0000 0.0000 0.0000 11.6903
#
#
#
# Elastic Compliance Matrix: (Units=1/GPa)
#
#
# Indices 1 2 3 4 5 6 
#
# 1 0.014893 -0.002697 -0.005517 0.000000 0.000000 0.000000
# 2 -0.002697 0.013591 -0.001661 0.000000 0.000000 0.000000
# 3 -0.005517 -0.001661 0.010676 0.000000 0.000000 0.000000
# 4 0.000000 0.000000 0.000000 0.070644 0.000000 0.000000
# 5 0.000000 0.000000 0.000000 0.000000 0.036945 0.000000
# 6 0.000000 0.000000 0.000000 0.000000 0.000000 0.085541
#
#
# Mechanical properties :
#
#
# Convention : Reuss Voigt Hill
#
# Bulk Modulus (GPa) = 51.51627 54.88674 53.20150
# Shear Modulus (GPa) = 19.34162 23.62788 21.48475
#
# Velocity S-wave (km/s) = 3.14071 3.47131 3.31014
# Velocity P-wave (km/s) = 6.27892 6.63764 6.46077
#
# Compressibility (1/GPa) = 0.01941134
#
# Stress axis : x y z
#
# Youngs Moduli (GPa) = 67.14645 73.57564 93.66573
#
# Poissons Ratio (x) = 0.19844 0.51671
# Poissons Ratio (y) = 0.18110 0.15558
# Poissons Ratio (z) = 0.37041 0.12221
#
# Static dielectric constant tensor:
#      x y z
#    x 1.712640 0.000000 0.000000 
#    y 0.000000 1.730130 0.000000 
#    z 0.000000 0.000000 1.620620 
# 
# From -- ./inp_files/22041.got.cif
#   From: 2010.05.17/outbox.cif.g08.bks.cpg/sg71_12_cif.got.tgz:22041.got - 2010.06.03 16:22:01.
