data_PCOD9521571
_publ_section_title
;
Structure prediction by ZEFSAII (Michael W. Deem and Ramdas Pophale) SiO2 
 PCOD9521571
Probable space group: I M M M
;
_chemical_formula_sum "Si O2"
_cell_formula_units_Z 104
_cell_length_a 8.970130
_cell_length_b 20.713653
_cell_length_c 28.823907
_cell_angle_alpha 90.000000
_cell_angle_beta 90.000000
_cell_angle_gamma 90.000000
_cell_volume 5355.601833
_symmetry_space_group_name_H-M "I M M M"
_symmetry_group_IT_number 71
_symmetry_cell_setting 'orthorhombic'
loop_
_space_group_symop_operation_xyz
x,y,z
-x,-y,z
x,-y,-z
-x,y,-z
-x,-y,-z
x,y,-z
-x,y,z
x,-y,z
1/2+x,1/2+y,1/2+z
1/2-x,1/2-y,1/2+z
1/2+x,1/2-y,1/2-z
1/2-x,1/2+y,1/2-z
1/2-x,1/2-y,1/2-z
1/2+x,1/2+y,1/2-z
1/2-x,1/2+y,1/2+z
1/2+x,1/2-y,1/2+z
loop_
_atom_site_type_symbol
_atom_site_label
_atom_site_fract_x
_atom_site_fract_y
_atom_site_fract_z
Si Si1 0.825146 0.210655 0.793422
Si Si2 0.330832 0.369918 0.443583
Si Si3 0.170958 0.071576 0.693206
Si Si4 0.171784 0.500000 0.443049
Si Si5 0.170776 0.324658 0.866309
Si Si6 0.329361 0.737757 0.055284
Si Si7 0.177538 0.573269 0.708057
O O1 0.750000 0.250000 0.750000
O O2 0.814551 0.258859 0.836824
O O3 0.754118 0.141017 0.806708
O O4 0.000000 0.201467 0.782276
O O5 0.338159 0.373763 0.500000
O O6 0.500000 0.361035 0.426587
O O7 0.257572 0.436266 0.427243
O O8 0.226293 0.309763 0.433138
O O9 0.220911 0.124386 0.657107
O O10 0.279026 0.073970 0.737437
O O11 0.000000 0.081441 0.708795
O O12 0.180537 0.000000 0.672803
O O13 0.171584 0.500000 0.500000
O O14 0.000000 0.500000 0.428211
O O15 0.220865 0.310083 0.918188
O O16 0.000000 0.346208 0.863056
O O17 0.500000 0.728913 0.070228
O O18 0.321403 0.730590 0.000000
O O19 0.223298 0.500000 0.691356
O O20 0.000000 0.578169 0.701375
#
# Coordination Sequence:
#
# PCOD9521571 Si02
#       7
#    16  16  16   8  16  16  16
#     4  11  22  35  55  84 118 154 192 235 283 336
#     4   9  16  27  45  69  96 126 162 209 265 322
#     4  10  20  34  55  84 116 151 190 231 277 332
#     4   9  15  23  39  65  95 125 161 207 261 321
#     4  11  23  37  57  85 115 150 190 234 285 338
#     4  10  21  37  57  80 106 139 182 234 289 342
#     4  10  20  34  54  81 115 155 195 235 281 333
#
# _framework density 19.418918999999999
#
# number of rings (size 3 to 8) (size 9 to 14) (size 15 to 20)
#    0.000    1.923    1.538    3.000    0.000    7.385 
#    0.000    0.000    1.692    0.462    0.000    3.231 
#    0.000    0.000    0.000    0.000    0.000    0.000 
#
# Total GULP energy -290226.814552 kJ/mol
# GULP energy per Si atom -5581.284895 kJ/mol
# Density = 1.937472 g / cm^3
# Si number density = 19.418919 Si / 1000 Ang^3
#
#
#
# Elastic Constant Matrix: (Units=GPa)
#
#
# Indices 1 2 3 4 5 6 
#
# 1 82.9369 27.4897 8.5419 0.0000 0.0000 0.0000
# 2 27.4897 97.5752 6.6497 0.0000 0.0000 0.0000
# 3 8.5419 6.6497 17.9998 0.0000 0.0000 0.0000
# 4 0.0000 0.0000 0.0000 5.5453 0.0000 0.0000
# 5 0.0000 0.0000 0.0000 0.0000 19.1772 0.0000
# 6 0.0000 0.0000 0.0000 0.0000 0.0000 32.8641
#
#
#
# Elastic Compliance Matrix: (Units=1/GPa)
#
#
# Indices 1 2 3 4 5 6 
#
# 1 0.013763 -0.003521 -0.005231 0.000000 0.000000 0.000000
# 2 -0.003521 0.011414 -0.002546 0.000000 0.000000 0.000000
# 3 -0.005231 -0.002546 0.058979 0.000000 0.000000 0.000000
# 4 0.000000 0.000000 0.000000 0.180333 0.000000 0.000000
# 5 0.000000 0.000000 0.000000 0.000000 0.052145 0.000000
# 6 0.000000 0.000000 0.000000 0.000000 0.000000 0.030428
#
#
# Mechanical properties :
#
#
# Convention : Reuss Voigt Hill
#
# Bulk Modulus (GPa) = 16.24396 31.54159 23.89278
# Shear Modulus (GPa) = 12.81468 21.90602 17.36035
#
# Velocity S-wave (km/s) = 2.57165 3.36233 2.99321
# Velocity P-wave (km/s) = 4.14741 5.59925 4.92710
#
# Compressibility (1/GPa) = 0.06156133
#
# Stress axis : x y z
#
# Youngs Moduli (GPa) = 72.65793 87.61194 16.95518
#
# Poissons Ratio (x) = 0.30848 0.08869
# Poissons Ratio (y) = 0.25583 0.04316
# Poissons Ratio (z) = 0.38004 0.22304
#
# Static dielectric constant tensor:
#      x y z
#    x 1.667110 0.000000 0.000000 
#    y 0.000000 1.699000 0.000000 
#    z 0.000000 0.000000 1.706640 
# 
# From -- ./inp_files/63292.got.cif
#   From: 2010.05.17/outbox.cif.g08.bks.cpg/sg71_32_cif.got.tgz:63292.got - 2010.06.03 16:22:01.
