data_PCOD9521161
_publ_section_title
;
Structure prediction by ZEFSAII (Michael W. Deem and Ramdas Pophale) SiO2 
 PCOD9521161
Probable space group: I M M M
;
_chemical_formula_sum "Si O2"
_cell_formula_units_Z 96
_cell_length_a 29.943292
_cell_length_b 8.698120
_cell_length_c 19.350843
_cell_angle_alpha 90.000000
_cell_angle_beta 90.000000
_cell_angle_gamma 90.000000
_cell_volume 5039.933774
_symmetry_space_group_name_H-M "I M M M"
_symmetry_group_IT_number 71
_symmetry_cell_setting 'orthorhombic'
loop_
_space_group_symop_operation_xyz
x,y,z
-x,-y,z
x,-y,-z
-x,y,-z
-x,-y,-z
x,y,-z
-x,y,z
x,-y,z
1/2+x,1/2+y,1/2+z
1/2-x,1/2-y,1/2+z
1/2+x,1/2-y,1/2-z
1/2-x,1/2+y,1/2-z
1/2-x,1/2-y,1/2-z
1/2+x,1/2+y,1/2-z
1/2-x,1/2+y,1/2+z
1/2+x,1/2-y,1/2+z
loop_
_atom_site_type_symbol
_atom_site_label
_atom_site_fract_x
_atom_site_fract_y
_atom_site_fract_z
Si Si1 0.449016 0.684807 0.581125
Si Si2 0.333298 0.683639 0.922981
Si Si3 0.068885 0.678659 0.422200
Si Si4 0.450065 0.672715 0.786069
Si Si5 0.618307 0.822043 0.691994
Si Si6 0.297558 0.316432 0.771617
O O1 0.442209 0.719237 0.500000
O O2 0.500000 0.737817 0.598616
O O3 0.448895 0.500000 0.589315
O O4 0.409034 0.750972 0.627463
O O5 0.343981 0.500000 0.919051
O O6 0.378499 0.782034 0.921406
O O7 0.307303 0.722493 0.852511
O O8 0.312529 0.707838 0.000000
O O9 0.053051 0.704199 0.500000
O O10 0.060944 0.500000 0.404629
O O11 0.048373 0.791857 0.366639
O O12 0.500000 0.682260 0.757471
O O13 0.432793 0.500000 0.773023
O O14 0.417252 0.795258 0.753312
O O15 0.663432 0.744826 0.720805
O O16 0.626977 0.000000 0.679054
O O17 0.297080 0.500000 0.766771
O O18 0.250000 0.250000 0.750000
#
# Coordination Sequence:
#
# PCOD9521161 Si02
#       6
#    16  16  16  16  16  16
#     4   9  19  38  64  92 123 161 203 246 298 365
#     4   9  18  35  60  85 110 147 193 237 286 346
#     4  10  20  33  52  79 111 147 188 236 286 335
#     4  11  23  37  54  78 111 154 200 241 285 341
#     4  12  24  38  59  87 120 155 194 244 299 355
#     4  11  23  40  63  89 119 154 196 249 306 363
#
# _framework density 19.047868000000001
#
# number of rings (size 3 to 8) (size 9 to 14) (size 15 to 20)
#    0.000    1.667    1.667    4.000    0.000    6.000 
#    0.000    3.333    0.000    3.000    0.000    0.000 
#    0.000    0.000    0.000    0.000    0.000    0.000 
#
# Total GULP energy -267814.137212 kJ/mol
# GULP energy per Si atom -5579.461192 kJ/mol
# Density = 1.900451 g / cm^3
# Si number density = 19.047868 Si / 1000 Ang^3
#
#
#
# Elastic Constant Matrix: (Units=GPa)
#
#
# Indices 1 2 3 4 5 6 
#
# 1 125.4232 37.9724 69.3762 0.0000 0.0000 0.0000
# 2 37.9724 48.9145 41.3656 0.0000 0.0000 0.0000
# 3 69.3762 41.3656 138.3052 0.0000 0.0000 0.0000
# 4 0.0000 0.0000 0.0000 25.6906 0.0000 0.0000
# 5 0.0000 0.0000 0.0000 0.0000 40.4656 0.0000
# 6 0.0000 0.0000 0.0000 0.0000 0.0000 18.7482
#
#
#
# Elastic Compliance Matrix: (Units=1/GPa)
#
#
# Indices 1 2 3 4 5 6 
#
# 1 0.012120 -0.005712 -0.004371 0.000000 0.000000 0.000000
# 2 -0.005712 0.030058 -0.006124 0.000000 0.000000 0.000000
# 3 -0.004371 -0.006124 0.011255 0.000000 0.000000 0.000000
# 4 0.000000 0.000000 0.000000 0.038925 0.000000 0.000000
# 5 0.000000 0.000000 0.000000 0.000000 0.024712 0.000000
# 6 0.000000 0.000000 0.000000 0.000000 0.000000 0.053338
#
#
# Mechanical properties :
#
#
# Convention : Reuss Voigt Hill
#
# Bulk Modulus (GPa) = 47.58142 67.78570 57.68356
# Shear Modulus (GPa) = 23.82879 27.90947 25.86913
#
# Velocity S-wave (km/s) = 3.54078 3.83198 3.68925
# Velocity P-wave (km/s) = 6.46145 7.43257 6.96396
#
# Compressibility (1/GPa) = 0.02101661
#
# Stress axis : x y z
#
# Youngs Moduli (GPa) = 82.50577 33.26931 88.85058
#
# Poissons Ratio (x) = 0.19005 0.38839
# Poissons Ratio (y) = 0.47131 0.54416
# Poissons Ratio (z) = 0.36065 0.20376
#
# Static dielectric constant tensor:
#      x y z
#    x 1.651040 0.000000 0.000000 
#    y 0.000000 1.638290 0.000000 
#    z 0.000000 0.000000 1.710450 
# 
# From -- ./inp_files/14854.got.cif
#   From: 2010.05.17/outbox.cif.g08.bks.cpg/sg71_8_cif.got.tgz:14854.got - 2010.06.03 16:22:01.
