data_PCOD9521331
_publ_section_title
;
Structure prediction by ZEFSAII (Michael W. Deem and Ramdas Pophale) SiO2 
 PCOD9521331
Probable space group: I M M M
;
_chemical_formula_sum "Si O2"
_cell_formula_units_Z 104
_cell_length_a 24.404732
_cell_length_b 28.903497
_cell_length_c 8.954433
_cell_angle_alpha 90.000000
_cell_angle_beta 90.000000
_cell_angle_gamma 90.000000
_cell_volume 6316.296737
_symmetry_space_group_name_H-M "I M M M"
_symmetry_group_IT_number 71
_symmetry_cell_setting 'orthorhombic'
loop_
_space_group_symop_operation_xyz
x,y,z
-x,-y,z
x,-y,-z
-x,y,-z
-x,-y,-z
x,y,-z
-x,y,z
x,-y,z
1/2+x,1/2+y,1/2+z
1/2-x,1/2-y,1/2+z
1/2+x,1/2-y,1/2-z
1/2-x,1/2+y,1/2-z
1/2-x,1/2-y,1/2-z
1/2+x,1/2+y,1/2-z
1/2-x,1/2+y,1/2+z
1/2+x,1/2-y,1/2+z
loop_
_atom_site_type_symbol
_atom_site_label
_atom_site_fract_x
_atom_site_fract_y
_atom_site_fract_z
Si Si1 0.566527 0.272104 0.828270
Si Si2 0.434300 0.000000 0.324767
Si Si3 0.436265 0.368325 0.679675
Si Si4 0.150266 0.053467 0.179490
Si Si5 0.376484 0.088447 0.178239
Si Si6 0.732458 0.944912 0.676826
Si Si7 0.934376 0.676107 0.823024
O O1 0.500000 0.272398 0.826584
O O2 0.583055 0.320469 0.753768
O O3 0.582879 0.226467 0.737428
O O4 0.584424 0.269182 0.000000
O O5 0.410117 0.045459 0.247256
O O6 0.500000 0.000000 0.315093
O O7 0.418593 0.000000 0.500000
O O8 0.434530 0.363127 0.500000
O O9 0.500000 0.376448 0.721095
O O10 0.397592 0.411058 0.721493
O O11 0.207259 0.065112 0.259850
O O12 0.136389 0.000000 0.215252
O O13 0.158013 0.056191 0.000000
O O14 0.314732 0.082498 0.237709
O O15 0.403302 0.135510 0.237673
O O16 0.378061 0.086440 0.000000
O O17 0.729718 0.936179 0.500000
O O18 0.722652 0.000000 0.700850
O O19 0.000000 0.671273 0.798112
O O20 0.924790 0.672611 0.000000
#
# Coordination Sequence:
#
# PCOD9521331 Si02
#       7
#    16   8  16  16  16  16  16
#     4   9  17  30  49  73 101 133 171 213 252 298
#     4  11  23  37  51  71 103 139 172 209 258 311
#     4   9  17  30  50  77 108 141 172 204 251 307
#     4   9  18  32  51  76 106 137 173 215 253 297
#     4  12  23  34  52  75 101 133 171 216 260 306
#     4  10  20  35  54  72  96 132 176 218 257 306
#     4  10  20  34  52  74 102 135 170 210 257 309
#
# _framework density 16.465343000000001
#
# number of rings (size 3 to 8) (size 9 to 14) (size 15 to 20)
#    0.000    2.077    0.769    3.462    0.000    6.769 
#    0.000    1.538    0.000    0.923    0.000    4.308 
#    0.000    0.000    0.000    0.000    0.000    0.000 
#
# Total GULP energy -290210.981865 kJ/mol
# GULP energy per Si atom -5580.980420 kJ/mol
# Density = 1.642787 g / cm^3
# Si number density = 16.465343 Si / 1000 Ang^3
#
#
#
# Elastic Constant Matrix: (Units=GPa)
#
#
# Indices 1 2 3 4 5 6 
#
# 1 83.0944 75.3701 62.5708 0.0000 0.0000 0.0000
# 2 75.3701 138.6518 75.0161 0.0000 0.0000 0.0000
# 3 62.5708 75.0161 102.1304 0.0000 0.0000 0.0000
# 4 0.0000 0.0000 0.0000 24.2231 0.0000 0.0000
# 5 0.0000 0.0000 0.0000 0.0000 22.8351 0.0000
# 6 0.0000 0.0000 0.0000 0.0000 0.0000 1.9732
#
#
#
# Elastic Compliance Matrix: (Units=1/GPa)
#
#
# Indices 1 2 3 4 5 6 
#
# 1 0.029064 -0.010231 -0.010292 0.000000 0.000000 0.000000
# 2 -0.010231 0.015570 -0.005168 0.000000 0.000000 0.000000
# 3 -0.010292 -0.005168 0.019893 0.000000 0.000000 0.000000
# 4 0.000000 0.000000 0.000000 0.041283 0.000000 0.000000
# 5 0.000000 0.000000 0.000000 0.000000 0.043792 0.000000
# 6 0.000000 0.000000 0.000000 0.000000 0.000000 0.506788
#
#
# Mechanical properties :
#
#
# Convention : Reuss Voigt Hill
#
# Bulk Modulus (GPa) = 76.07299 83.31007 79.69153
# Shear Modulus (GPa) = 7.02097 17.20092 12.11094
#
# Velocity S-wave (km/s) = 2.06721 3.23565 2.71503
# Velocity P-wave (km/s) = 7.21110 8.04154 7.63761
#
# Compressibility (1/GPa) = 0.01314527
#
# Stress axis : x y z
#
# Youngs Moduli (GPa) = 34.40703 64.22611 50.26935
#
# Poissons Ratio (x) = 0.65708 0.51735
# Poissons Ratio (y) = 0.35201 0.25981
# Poissons Ratio (z) = 0.35410 0.33195
#
# Static dielectric constant tensor:
#      x y z
#    x 1.536280 0.000000 0.000000 
#    y 0.000000 1.535290 0.000000 
#    z 0.000000 0.000000 1.548860 
# 
# From -- ./inp_files/13270.got.cif
#   From: 2010.05.17/outbox.cif.g08.bks.cpg/sg71_7_cif.got.tgz:13270.got - 2010.06.03 16:22:01.
