data_PCOD9521104
_publ_section_title
;
Structure prediction by ZEFSAII (Michael W. Deem and Ramdas Pophale) SiO2 
 PCOD9521104
Probable space group: I M M M
;
_chemical_formula_sum "Si O2"
_cell_formula_units_Z 120
_cell_length_a 7.553038
_cell_length_b 26.384115
_cell_length_c 27.930456
_cell_angle_alpha 90.000000
_cell_angle_beta 90.000000
_cell_angle_gamma 90.000000
_cell_volume 5565.987506
_symmetry_space_group_name_H-M "I M M M"
_symmetry_group_IT_number 71
_symmetry_cell_setting 'orthorhombic'
loop_
_space_group_symop_operation_xyz
x,y,z
-x,-y,z
x,-y,-z
-x,y,-z
-x,-y,-z
x,y,-z
-x,y,z
x,-y,z
1/2+x,1/2+y,1/2+z
1/2-x,1/2-y,1/2+z
1/2+x,1/2-y,1/2-z
1/2-x,1/2+y,1/2-z
1/2-x,1/2-y,1/2-z
1/2+x,1/2+y,1/2-z
1/2-x,1/2+y,1/2+z
1/2+x,1/2-y,1/2+z
loop_
_atom_site_type_symbol
_atom_site_label
_atom_site_fract_x
_atom_site_fract_y
_atom_site_fract_z
Si Si1 0.286024 0.583727 0.947469
Si Si2 0.784945 0.202707 0.447748
Si Si3 0.282316 0.058392 0.105322
Si Si4 0.796306 0.438419 0.500000
Si Si5 0.717740 0.255162 0.846401
Si Si6 0.702538 0.349141 0.784099
Si Si7 0.204909 0.445375 0.842943
Si Si8 0.794945 0.643338 0.677630
O O1 0.500000 0.580143 0.945866
O O2 0.238473 0.643290 0.944233
O O3 0.215340 0.557522 0.900319
O O4 0.229305 0.565164 0.000000
O O5 0.725216 0.221598 0.500000
O O6 0.725569 0.231119 0.400257
O O7 0.000000 0.204636 0.447803
O O8 0.500000 0.057434 0.104240
O O9 0.221416 0.097383 0.145958
O O10 0.227960 0.000000 0.113675
O O11 0.221671 0.075361 0.052038
O O12 0.798492 0.500000 0.500000
O O13 0.000000 0.420463 0.500000
O O14 0.500000 0.256832 0.845433
O O15 0.778099 0.299198 0.809967
O O16 0.779232 0.199318 0.832268
O O17 0.500000 0.337619 0.772052
O O18 0.707261 0.395832 0.820885
O O19 0.788493 0.365127 0.734321
O O20 0.278820 0.500000 0.827447
O O21 0.000000 0.443182 0.828513
O O22 0.000000 0.646635 0.662971
#
# Coordination Sequence:
#
# PCOD9521104 Si02
#       8
#    16  16  16   8  16  16  16  16
#     4   9  17  32  56  81 107 143 182 219 263 319
#     4   8  13  25  48  76 105 136 169 211 264 314
#     4   8  14  26  45  70 104 140 166 197 245 302
#     4   7  10  20  40  66  99 137 167 189 230 295
#     4   9  17  31  51  76 105 136 172 219 268 317
#     4  11  22  38  57  73  98 138 182 224 269 323
#     4  11  24  39  55  78 107 138 175 224 279 327
#     4  10  20  33  51  79 109 135 173 220 268 314
#
# _framework density 21.559517
#
# number of rings (size 3 to 8) (size 9 to 14) (size 15 to 20)
#    0.000    2.733    1.333    2.800    0.000    2.133 
#    1.200    3.333    0.000    0.000    0.000    0.467 
#    0.000    1.600    0.000    0.000    0.000    0.000 
#
# Total GULP energy -334739.227915 kJ/mol
# GULP energy per Si atom -5578.987132 kJ/mol
# Density = 2.151045 g / cm^3
# Si number density = 21.559517 Si / 1000 Ang^3
#
#
#
# Elastic Constant Matrix: (Units=GPa)
#
#
# Indices 1 2 3 4 5 6 
#
# 1 48.6873 4.6976 -2.9595 0.0000 0.0000 0.0000
# 2 4.6976 126.2798 83.5290 0.0000 0.0000 0.0000
# 3 -2.9595 83.5290 158.2181 0.0000 0.0000 0.0000
# 4 0.0000 0.0000 0.0000 -1.0197 0.0000 0.0000
# 5 0.0000 0.0000 0.0000 0.0000 10.5074 0.0000
# 6 0.0000 0.0000 0.0000 0.0000 0.0000 11.0963
#
#
#
# Elastic Compliance Matrix: (Units=1/GPa)
#
#
# Indices 1 2 3 4 5 6 
#
# 1 0.020766 -0.001582 0.001224 0.000000 0.000000 0.000000
# 2 -0.001582 0.012289 -0.006517 0.000000 0.000000 0.000000
# 3 0.001224 -0.006517 0.009784 0.000000 0.000000 0.000000
# 4 0.000000 0.000000 0.000000 -0.980700 0.000000 0.000000
# 5 0.000000 0.000000 0.000000 0.000000 0.095171 0.000000
# 6 0.000000 0.000000 0.000000 0.000000 0.000000 0.090120
#
#
# Mechanical properties :
#
#
# Convention : Reuss Voigt Hill
#
# Bulk Modulus (GPa) = 34.37863 55.96883 45.17373
# Shear Modulus (GPa) = -6.85755 20.64468 6.89356
#
# Velocity S-wave (km/s) = -1.78540 3.09781 1.79008
# Velocity P-wave (km/s) = 3.42496 6.22991 5.02703
#
# Compressibility (1/GPa) = 0.02908784
#
# Stress axis : x y z
#
# Youngs Moduli (GPa) = 48.15507 81.37602 102.20838
#
# Poissons Ratio (x) = 0.12872 -0.12506
# Poissons Ratio (y) = 0.07617 0.66611
# Poissons Ratio (z) = -0.05892 0.53034
#
# Static dielectric constant tensor:
#      x y z
#    x 1.865870 0.000000 0.000000 
#    y 0.000000 1.763370 0.000000 
#    z 0.000000 0.000000 1.773000 
# 
# From -- ./inp_files/63755.got.cif
#   From: 2010.05.17/outbox.cif.g08.bks.cpg/sg71_32_cif.got.tgz:63755.got - 2010.06.03 16:22:01.
