data_PCOD9521980
_publ_section_title
;
Structure prediction by ZEFSAII (Michael W. Deem and Ramdas Pophale) SiO2 
 PCOD9521980
Probable space group: I M M M
;
_chemical_formula_sum "Si O2"
_cell_formula_units_Z 100
_cell_length_a 26.048374
_cell_length_b 20.048699
_cell_length_c 7.676282
_cell_angle_alpha 90.000000
_cell_angle_beta 90.000000
_cell_angle_gamma 90.000000
_cell_volume 4008.830882
_symmetry_space_group_name_H-M "I M M M"
_symmetry_group_IT_number 71
_symmetry_cell_setting 'orthorhombic'
loop_
_space_group_symop_operation_xyz
x,y,z
-x,-y,z
x,-y,-z
-x,y,-z
-x,-y,-z
x,y,-z
-x,y,z
x,-y,z
1/2+x,1/2+y,1/2+z
1/2-x,1/2-y,1/2+z
1/2+x,1/2-y,1/2-z
1/2-x,1/2+y,1/2-z
1/2-x,1/2-y,1/2-z
1/2+x,1/2+y,1/2-z
1/2-x,1/2+y,1/2+z
1/2+x,1/2-y,1/2+z
loop_
_atom_site_type_symbol
_atom_site_label
_atom_site_fract_x
_atom_site_fract_y
_atom_site_fract_z
Si Si1 0.421554 0.577530 0.207928
Si Si2 0.695845 0.883638 0.202153
Si Si3 0.915240 0.428109 0.710784
Si Si4 0.445224 0.219633 0.705479
Si Si5 0.665205 0.259942 0.701650
Si Si6 0.500000 0.625314 0.500000
Si Si7 0.305332 0.399468 0.195742
O O1 0.437994 0.500000 0.221325
O O2 0.455447 0.618565 0.344204
O O3 0.361449 0.580643 0.263055
O O4 0.425204 0.596091 0.000000
O O5 0.645272 0.923661 0.257873
O O6 0.691979 0.811677 0.291948
O O7 0.750938 0.917631 0.221633
O O8 0.688462 0.868737 0.000000
O O9 0.919884 0.425824 0.500000
O O10 0.935575 0.500000 0.768961
O O11 0.939981 0.360502 0.780262
O O12 0.447035 0.236490 0.500000
O O13 0.500000 0.239556 0.782912
O O14 0.392398 0.249494 0.775353
O O15 0.662394 0.280431 0.500000
O O16 0.692891 0.319036 0.799187
O O17 0.303521 0.424116 0.000000
#
# Coordination Sequence:
#
# PCOD9521980 Si02
#       7
#    16  16  16  16  16   4  16
#     4  10  23  42  63  91 123 154 196 246 293 352
#     4  10  20  35  57  80 111 151 190 235 287 345
#     4   9  19  35  54  80 111 145 187 231 277 333
#     4   9  19  36  55  78 109 145 185 233 283 330
#     4  10  20  36  57  80 110 149 193 236 285 349
#     4  12  23  42  72  90 114 164 202 234 295 360
#     4  11  23  38  57  85 118 148 185 237 289 343
#
# _framework density 24.944929999999999
#
# number of rings (size 3 to 8) (size 9 to 14) (size 15 to 20)
#    0.000    2.080    0.000    2.880    2.240    3.520 
#    1.440    1.600    0.000    0.000    0.000    0.000 
#    0.000    0.000    0.000    0.000    0.000    0.000 
#
# Total GULP energy -279073.301445 kJ/mol
# GULP energy per Si atom -5581.466029 kJ/mol
# Density = 2.488815 g / cm^3
# Si number density = 24.944930 Si / 1000 Ang^3
#
#
#
# Elastic Constant Matrix: (Units=GPa)
#
#
# Indices 1 2 3 4 5 6 
#
# 1 181.7737 6.4366 27.1464 0.0000 0.0000 0.0000
# 2 6.4366 96.2823 13.7768 0.0000 0.0000 0.0000
# 3 27.1464 13.7768 82.7239 0.0000 0.0000 0.0000
# 4 0.0000 0.0000 0.0000 11.8869 0.0000 0.0000
# 5 0.0000 0.0000 0.0000 0.0000 25.9044 0.0000
# 6 0.0000 0.0000 0.0000 0.0000 0.0000 -31.4562
#
#
#
# Elastic Compliance Matrix: (Units=1/GPa)
#
#
# Indices 1 2 3 4 5 6 
#
# 1 0.005786 -0.000118 -0.001879 0.000000 0.000000 0.000000
# 2 -0.000118 0.010642 -0.001734 0.000000 0.000000 0.000000
# 3 -0.001879 -0.001734 0.012994 0.000000 0.000000 0.000000
# 4 0.000000 0.000000 0.000000 0.084126 0.000000 0.000000
# 5 0.000000 0.000000 0.000000 0.000000 0.038604 0.000000
# 6 0.000000 0.000000 0.000000 0.000000 0.000000 -0.031790
#
#
# Mechanical properties :
#
#
# Convention : Reuss Voigt Hill
#
# Bulk Modulus (GPa) = 45.53606 50.61107 48.07357
# Shear Modulus (GPa) = 36.99776 22.16168 29.57972
#
# Velocity S-wave (km/s) = 3.85538 2.98388 3.44728
# Velocity P-wave (km/s) = 6.17356 5.67490 5.92948
#
# Compressibility (1/GPa) = 0.02196062
#
# Stress axis : x y z
#
# Youngs Moduli (GPa) = 172.82632 93.96669 76.95992
#
# Poissons Ratio (x) = 0.01108 0.14462
# Poissons Ratio (y) = 0.02038 0.13342
# Poissons Ratio (z) = 0.32476 0.16290
#
# Static dielectric constant tensor:
#      x y z
#    x 1.992670 0.000000 0.000000 
#    y 0.000000 2.002060 0.000000 
#    z 0.000000 0.000000 1.910990 
# 
# From -- ./inp_files/14995.got.cif
#   From: 2010.05.17/outbox.cif.g08.bks.cpg/sg71_8_cif.got.tgz:14995.got - 2010.06.03 16:22:01.
