data_PCOD9521486
_publ_section_title
;
Structure prediction by ZEFSAII (Michael W. Deem and Ramdas Pophale) SiO2 
 PCOD9521486
Probable space group: I M M M
;
_chemical_formula_sum "Si O2"
_cell_formula_units_Z 88
_cell_length_a 24.468099
_cell_length_b 8.538966
_cell_length_c 22.464635
_cell_angle_alpha 90.000000
_cell_angle_beta 90.000000
_cell_angle_gamma 90.000000
_cell_volume 4693.587083
_symmetry_space_group_name_H-M "I M M M"
_symmetry_group_IT_number 71
_symmetry_cell_setting 'orthorhombic'
loop_
_space_group_symop_operation_xyz
x,y,z
-x,-y,z
x,-y,-z
-x,y,-z
-x,-y,-z
x,y,-z
-x,y,z
x,-y,z
1/2+x,1/2+y,1/2+z
1/2-x,1/2-y,1/2+z
1/2+x,1/2-y,1/2-z
1/2-x,1/2+y,1/2-z
1/2-x,1/2-y,1/2-z
1/2+x,1/2+y,1/2-z
1/2-x,1/2+y,1/2+z
1/2+x,1/2-y,1/2+z
loop_
_atom_site_type_symbol
_atom_site_label
_atom_site_fract_x
_atom_site_fract_y
_atom_site_fract_z
Si Si1 0.435689 0.312242 0.500000
Si Si2 0.191930 0.817051 0.224540
Si Si3 0.731313 0.314760 0.934946
Si Si4 0.562303 0.190688 0.933948
Si Si5 0.651755 0.814313 0.159037
Si Si6 0.645846 0.816143 0.600157
O O1 0.435569 0.500000 0.500000
O O2 0.500000 0.260540 0.500000
O O3 0.401897 0.257001 0.559018
O O4 0.250000 0.750000 0.250000
O O5 0.153211 0.779593 0.280224
O O6 0.162971 0.747755 0.165613
O O7 0.200307 0.000000 0.214778
O O8 0.719342 0.500000 0.926794
O O9 0.705024 0.219903 0.881173
O O10 0.796433 0.298071 0.933792
O O11 0.710832 0.263915 0.000000
O O12 0.500000 0.237328 0.923295
O O13 0.602725 0.241109 0.882908
O O14 0.563888 0.000000 0.934702
O O15 0.578284 0.244517 0.000000
O O16 0.648067 0.000000 0.170878
O O17 0.633786 0.000000 0.606121
#
# Coordination Sequence:
#
# PCOD9521486 Si02
#       6
#     8  16  16  16  16  16
#     4  11  25  45  69  97 129 165 206 257 314 369
#     4  12  24  39  58  84 120 161 199 243 303 369
#     4  10  20  34  53  81 118 154 189 239 299 356
#     4   8  15  30  52  79 112 148 189 237 281 327
#     4  11  21  33  54  85 117 154 198 241 291 355
#     4  11  22  40  64  90 119 155 201 250 304 366
#
# _framework density 18.748985999999999
#
# number of rings (size 3 to 8) (size 9 to 14) (size 15 to 20)
#    0.000    1.545    2.727    4.091    0.000    2.545 
#    0.000    0.909    0.000    5.455    0.000    6.364 
#    0.000    0.000    0.000    0.000    0.000    0.000 
#
# Total GULP energy -245393.886197 kJ/mol
# GULP energy per Si atom -5577.133777 kJ/mol
# Density = 1.870631 g / cm^3
# Si number density = 18.748986 Si / 1000 Ang^3
#
#
#
# Elastic Constant Matrix: (Units=GPa)
#
#
# Indices 1 2 3 4 5 6 
#
# 1 109.1180 37.7144 65.8967 0.0000 0.0000 0.0000
# 2 37.7144 62.5706 44.4773 0.0000 0.0000 0.0000
# 3 65.8967 44.4773 162.9330 0.0000 0.0000 0.0000
# 4 0.0000 0.0000 0.0000 32.2690 0.0000 0.0000
# 5 0.0000 0.0000 0.0000 0.0000 461.6128 0.0000
# 6 0.0000 0.0000 0.0000 0.0000 0.0000 15.1157
#
#
#
# Elastic Compliance Matrix: (Units=1/GPa)
#
#
# Indices 1 2 3 4 5 6 
#
# 1 0.013378 -0.005233 -0.003982 0.000000 0.000000 0.000000
# 2 -0.005233 0.021877 -0.003855 0.000000 0.000000 0.000000
# 3 -0.003982 -0.003855 0.008800 0.000000 0.000000 0.000000
# 4 0.000000 0.000000 0.000000 0.030989 0.000000 0.000000
# 5 0.000000 0.000000 0.000000 0.000000 0.002166 0.000000
# 6 0.000000 0.000000 0.000000 0.000000 0.000000 0.066156
#
#
# Mechanical properties :
#
#
# Convention : Reuss Voigt Hill
#
# Bulk Modulus (GPa) = 55.82198 70.08873 62.95536
# Shear Modulus (GPa) = 28.49340 114.23505 71.36423
#
# Velocity S-wave (km/s) = 3.90260 7.81415 6.17621
# Velocity P-wave (km/s) = 7.08132 10.90314 9.19303
#
# Compressibility (1/GPa) = 0.01791409
#
# Stress axis : x y z
#
# Youngs Moduli (GPa) = 74.75056 45.71074 113.63030
#
# Poissons Ratio (x) = 0.23920 0.45248
# Poissons Ratio (y) = 0.39116 0.43810
# Poissons Ratio (z) = 0.29766 0.17624
#
# Static dielectric constant tensor:
#      x y z
#    x 1.674140 0.000000 0.000000 
#    y 0.000000 1.649870 0.000000 
#    z 0.000000 0.000000 1.684430 
# 
# From -- ./inp_files/55546.got.cif
#   From: 2010.05.17/outbox.cif.g08.bks.cpg/sg71_28_cif.got.tgz:55546.got - 2010.06.03 16:22:01.
