data_PCOD9521092
_publ_section_title
;
Structure prediction by ZEFSAII (Michael W. Deem and Ramdas Pophale) SiO2 
 PCOD9521092
Probable space group: I M M M
;
_chemical_formula_sum "Si O2"
_cell_formula_units_Z 88
_cell_length_a 28.494115
_cell_length_b 8.598361
_cell_length_c 19.751629
_cell_angle_alpha 90.000000
_cell_angle_beta 90.000000
_cell_angle_gamma 90.000000
_cell_volume 4839.202181
_symmetry_space_group_name_H-M "I M M M"
_symmetry_group_IT_number 71
_symmetry_cell_setting 'orthorhombic'
loop_
_space_group_symop_operation_xyz
x,y,z
-x,-y,z
x,-y,-z
-x,y,-z
-x,-y,-z
x,y,-z
-x,y,z
x,-y,z
1/2+x,1/2+y,1/2+z
1/2-x,1/2-y,1/2+z
1/2+x,1/2-y,1/2-z
1/2-x,1/2+y,1/2-z
1/2-x,1/2-y,1/2-z
1/2+x,1/2+y,1/2-z
1/2-x,1/2+y,1/2+z
1/2+x,1/2-y,1/2+z
loop_
_atom_site_type_symbol
_atom_site_label
_atom_site_fract_x
_atom_site_fract_y
_atom_site_fract_z
Si Si1 0.776360 0.821203 0.917868
Si Si2 0.822937 0.184786 0.421367
Si Si3 0.945968 0.187972 0.801696
Si Si4 0.500000 0.810531 0.077371
Si Si5 0.379775 0.690087 0.577689
Si Si6 0.909086 0.686121 0.337445
O O1 0.729924 0.727782 0.899291
O O2 0.827769 0.760534 0.897631
O O3 0.771111 0.000000 0.895203
O O4 0.778299 0.822741 0.000000
O O5 0.828817 0.238132 0.500000
O O6 0.861624 0.260867 0.373683
O O7 0.828645 0.000000 0.420261
O O8 0.919893 0.238341 0.870344
O O9 0.917427 0.245901 0.736831
O O10 0.000000 0.242100 0.797971
O O11 0.946413 0.000000 0.801067
O O12 0.453368 0.760891 0.116818
O O13 0.500000 0.000000 0.076497
O O14 0.500000 0.756567 0.000000
O O15 0.387420 0.740478 0.500000
O O16 0.378433 0.500000 0.576616
O O17 0.910106 0.500000 0.333866
#
# Coordination Sequence:
#
# PCOD9521092 Si02
#       6
#    16  16  16   8  16  16
#     4   8  14  28  51  76 102 134 172 212 254 303
#     4  10  20  33  51  78 109 136 167 213 266 313
#     4  10  20  34  53  77 108 141 171 213 268 315
#     4   9  18  32  51  73  94 123 170 220 253 287
#     4   8  15  30  54  82 107 134 173 216 256 307
#     4  11  21  35  53  73 102 140 180 216 253 307
#
# _framework density 18.184816000000001
#
# number of rings (size 3 to 8) (size 9 to 14) (size 15 to 20)
#    0.000    2.636    0.909    2.727    0.000    2.182 
#    0.000    3.636    0.000    3.818    0.000    1.273 
#    0.000    0.000    0.000    0.000    0.000    0.000 
#
# Total GULP energy -245322.844006 kJ/mol
# GULP energy per Si atom -5575.519182 kJ/mol
# Density = 1.814343 g / cm^3
# Si number density = 18.184816 Si / 1000 Ang^3
#
#
#
# Elastic Constant Matrix: (Units=GPa)
#
#
# Indices 1 2 3 4 5 6 
#
# 1 109.6569 20.2336 61.1735 0.0000 0.0000 0.0000
# 2 20.2336 15.9553 15.9022 0.0000 0.0000 0.0000
# 3 61.1735 15.9022 104.6324 0.0000 0.0000 0.0000
# 4 0.0000 0.0000 0.0000 15.2545 0.0000 0.0000
# 5 0.0000 0.0000 0.0000 0.0000 -32.1509 0.0000
# 6 0.0000 0.0000 0.0000 0.0000 0.0000 11.1359
#
#
#
# Elastic Compliance Matrix: (Units=1/GPa)
#
#
# Indices 1 2 3 4 5 6 
#
# 1 0.015371 -0.012417 -0.007100 0.000000 0.000000 0.000000
# 2 -0.012417 0.083894 -0.005491 0.000000 0.000000 0.000000
# 3 -0.007100 -0.005491 0.014543 0.000000 0.000000 0.000000
# 4 0.000000 0.000000 0.000000 0.065555 0.000000 0.000000
# 5 0.000000 0.000000 0.000000 0.000000 -0.031103 0.000000
# 6 0.000000 0.000000 0.000000 0.000000 0.000000 0.089799
#
#
# Mechanical properties :
#
#
# Convention : Reuss Voigt Hill
#
# Bulk Modulus (GPa) = 15.67567 47.20701 31.44134
# Shear Modulus (GPa) = 16.16363 7.71027 11.93695
#
# Velocity S-wave (km/s) = 2.98460 2.06135 2.56486
# Velocity P-wave (km/s) = 4.52946 5.62863 5.10869
#
# Compressibility (1/GPa) = 0.06379313
#
# Stress axis : x y z
#
# Youngs Moduli (GPa) = 65.05742 11.91983 68.76361
#
# Poissons Ratio (x) = 0.14800 0.48819
# Poissons Ratio (y) = 0.80780 0.37757
# Poissons Ratio (z) = 0.46188 0.06545
#
# Static dielectric constant tensor:
#      x y z
#    x 1.628000 0.000000 0.000000 
#    y 0.000000 1.616580 0.000000 
#    z 0.000000 0.000000 1.608460 
# 
# From -- ./inp_files/10396.got.cif
#   From: 2010.05.17/outbox.cif.g08.bks.cpg/sg71_6_cif.got.tgz:10396.got - 2010.06.03 16:22:01.
