data_PCOD9521626
_publ_section_title
;
Structure prediction by ZEFSAII (Michael W. Deem and Ramdas Pophale) SiO2 
 PCOD9521626
Probable space group: I M M M
;
_chemical_formula_sum "Si O2"
_cell_formula_units_Z 58
_cell_length_a 36.570293
_cell_length_b 10.065636
_cell_length_c 8.836329
_cell_angle_alpha 90.000000
_cell_angle_beta 90.000000
_cell_angle_gamma 90.000000
_cell_volume 3252.681491
_symmetry_space_group_name_H-M "I M M M"
_symmetry_group_IT_number 71
_symmetry_cell_setting 'orthorhombic'
loop_
_space_group_symop_operation_xyz
x,y,z
-x,-y,z
x,-y,-z
-x,y,-z
-x,-y,-z
x,y,-z
-x,y,z
x,-y,z
1/2+x,1/2+y,1/2+z
1/2-x,1/2-y,1/2+z
1/2+x,1/2-y,1/2-z
1/2-x,1/2+y,1/2-z
1/2-x,1/2-y,1/2-z
1/2+x,1/2+y,1/2-z
1/2-x,1/2+y,1/2+z
1/2+x,1/2-y,1/2+z
loop_
_atom_site_type_symbol
_atom_site_label
_atom_site_fract_x
_atom_site_fract_y
_atom_site_fract_z
Si Si1 0.000000 0.224918 0.167933
Si Si2 0.140178 0.345741 0.319142
Si Si3 0.500000 0.000000 0.500000
Si Si4 0.219379 0.655091 0.181048
Si Si5 0.579505 0.654586 0.681526
O O1 0.000000 0.381196 0.129270
O O2 0.038401 0.184133 0.239453
O O3 0.000000 0.157550 0.000000
O O4 0.142805 0.335883 0.500000
O O5 0.132080 0.500000 0.279543
O O6 0.179413 0.312093 0.246824
O O7 0.108882 0.250117 0.257353
O O8 0.226763 0.500000 0.218867
O O9 0.250000 0.750000 0.250000
O O10 0.218802 0.667695 0.000000
O O11 0.579666 0.681067 0.500000
O O12 0.588223 0.500000 0.705294
#
# Coordination Sequence:
#
# PCOD9521626 Si02
#       5
#     8  16   2  16  16
#     4   8  17  30  51  80 110 139 184 225 276 327
#     4  10  22  38  56  79 109 145 186 230 274 323
#     4   8  16  28  50  88 106 144 186 224 290 320
#     4  10  21  38  60  86 112 144 181 224 274 328
#     4  10  20  34  55  81 111 144 183 228 277 330
#
# _framework density 17.831443
#
# number of rings (size 3 to 8) (size 9 to 14) (size 15 to 20)
#    0.414    1.931    0.000    2.069    1.931    6.621 
#    0.000    0.690    0.000    3.310    0.000    0.000 
#    0.000    0.000    0.000    0.000    0.000    0.000 
#
# Total GULP energy -161475.698948 kJ/mol
# GULP energy per Si atom -5568.127550 kJ/mol
# Density = 1.779086 g / cm^3
# Si number density = 17.831443 Si / 1000 Ang^3
#
#
#
# Elastic Constant Matrix: (Units=GPa)
#
#
# Indices 1 2 3 4 5 6 
#
# 1 187.6697 103.6209 60.5623 0.0000 0.0000 0.0000
# 2 103.6209 105.2987 47.1020 0.0000 0.0000 0.0000
# 3 60.5623 47.1020 44.4972 0.0000 0.0000 0.0000
# 4 0.0000 0.0000 0.0000 27.9732 0.0000 0.0000
# 5 0.0000 0.0000 0.0000 0.0000 27.9046 0.0000
# 6 0.0000 0.0000 0.0000 0.0000 0.0000 19.1474
#
#
#
# Elastic Compliance Matrix: (Units=1/GPa)
#
#
# Indices 1 2 3 4 5 6 
#
# 1 0.012974 -0.009247 -0.007870 0.000000 0.000000 0.000000
# 2 -0.009247 0.024628 -0.013485 0.000000 0.000000 0.000000
# 3 -0.007870 -0.013485 0.047458 0.000000 0.000000 0.000000
# 4 0.000000 0.000000 0.000000 0.035748 0.000000 0.000000
# 5 0.000000 0.000000 0.000000 0.000000 0.035836 0.000000
# 6 0.000000 0.000000 0.000000 0.000000 0.000000 0.052226
#
#
# Mechanical properties :
#
#
# Convention : Reuss Voigt Hill
#
# Bulk Modulus (GPa) = 41.91474 84.44842 63.18158
# Shear Modulus (GPa) = 17.98394 23.41707 20.70050
#
# Velocity S-wave (km/s) = 3.17922 3.62780 3.41089
# Velocity P-wave (km/s) = 6.08553 8.06288 7.14296
#
# Compressibility (1/GPa) = 0.02385795
#
# Stress axis : x y z
#
# Youngs Moduli (GPa) = 77.07985 40.60400 21.07115
#
# Poissons Ratio (x) = 0.37545 0.16582
# Poissons Ratio (y) = 0.71273 0.28414
# Poissons Ratio (z) = 0.60658 0.54754
#
# Static dielectric constant tensor:
#      x y z
#    x 1.601170 0.000000 0.000000 
#    y 0.000000 1.593040 0.000000 
#    z 0.000000 0.000000 1.609090 
# 
# From -- ./inp_files/16106.got.cif
#   From: 2010.05.17/outbox.cif.g08.bks.cpg/sg71_9_cif.got.tgz:16106.got - 2010.06.03 16:22:01.
