data_PCOD9521536
_publ_section_title
;
Structure prediction by ZEFSAII (Michael W. Deem and Ramdas Pophale) SiO2 
 PCOD9521536
Probable space group: I M M M
;
_chemical_formula_sum "Si O2"
_cell_formula_units_Z 96
_cell_length_a 30.785899
_cell_length_b 20.376709
_cell_length_c 8.602420
_cell_angle_alpha 90.000000
_cell_angle_beta 90.000000
_cell_angle_gamma 90.000000
_cell_volume 5396.429728
_symmetry_space_group_name_H-M "I M M M"
_symmetry_group_IT_number 71
_symmetry_cell_setting 'orthorhombic'
loop_
_space_group_symop_operation_xyz
x,y,z
-x,-y,z
x,-y,-z
-x,y,-z
-x,-y,-z
x,y,-z
-x,y,z
x,-y,z
1/2+x,1/2+y,1/2+z
1/2-x,1/2-y,1/2+z
1/2+x,1/2-y,1/2-z
1/2-x,1/2+y,1/2-z
1/2-x,1/2-y,1/2-z
1/2+x,1/2+y,1/2-z
1/2-x,1/2+y,1/2+z
1/2+x,1/2-y,1/2+z
loop_
_atom_site_type_symbol
_atom_site_label
_atom_site_fract_x
_atom_site_fract_y
_atom_site_fract_z
Si Si1 0.671855 0.426590 0.686036
Si Si2 0.050291 0.713215 0.688132
Si Si3 0.731156 0.073987 0.314680
Si Si4 0.207574 0.712025 0.685078
Si Si5 0.372944 0.705714 0.685904
Si Si6 0.552729 0.929792 0.184058
O O1 0.680250 0.420994 0.500000
O O2 0.655163 0.500000 0.716318
O O3 0.717914 0.419462 0.771326
O O4 0.639778 0.368409 0.731249
O O5 0.051353 0.711593 0.500000
O O6 0.081715 0.768984 0.748758
O O7 0.066552 0.641167 0.745874
O O8 0.000000 0.721700 0.734435
O O9 0.726041 0.078398 0.500000
O O10 0.708374 0.135962 0.235954
O O11 0.717698 0.000000 0.264769
O O12 0.208517 0.716177 0.500000
O O13 0.250000 0.750000 0.750000
O O14 0.165247 0.748037 0.750048
O O15 0.373398 0.709537 0.500000
O O16 0.500000 0.929068 0.193422
O O17 0.567675 0.000000 0.251527
O O18 0.563251 0.930736 0.000000
#
# Coordination Sequence:
#
# PCOD9521536 Si02
#       6
#    16  16  16  16  16  16
#     4   9  18  33  53  76 102 135 177 223 269 322
#     4   9  18  33  53  77 105 138 177 223 274 327
#     4  10  20  34  54  80 110 144 181 222 269 320
#     4  12  23  36  55  79 110 145 180 221 267 321
#     4  11  22  35  54  80 108 140 178 223 273 326
#     4   7  10  20  42  70  95 121 160 209 255 300
#
# _framework density 17.789538
#
# number of rings (size 3 to 8) (size 9 to 14) (size 15 to 20)
#    0.000    2.333    1.667    4.000    0.000    2.000 
#    0.000    0.833    0.000    4.000    0.000    5.833 
#    0.000    0.000    0.000    0.000    0.000    0.000 
#
# Total GULP energy -267630.268307 kJ/mol
# GULP energy per Si atom -5575.630590 kJ/mol
# Density = 1.774905 g / cm^3
# Si number density = 17.789538 Si / 1000 Ang^3
#
#
#
# Elastic Constant Matrix: (Units=GPa)
#
#
# Indices 1 2 3 4 5 6 
#
# 1 61.2706 52.3626 21.0267 0.0000 0.0000 0.0000
# 2 52.3626 142.6875 28.5527 0.0000 0.0000 0.0000
# 3 21.0267 28.5527 28.0816 0.0000 0.0000 0.0000
# 4 0.0000 0.0000 0.0000 24.5447 0.0000 0.0000
# 5 0.0000 0.0000 0.0000 0.0000 20.5015 0.0000
# 6 0.0000 0.0000 0.0000 0.0000 0.0000 24.2676
#
#
#
# Elastic Compliance Matrix: (Units=1/GPa)
#
#
# Indices 1 2 3 4 5 6 
#
# 1 0.026969 -0.007352 -0.012718 0.000000 0.000000 0.000000
# 2 -0.007352 0.010803 -0.005479 0.000000 0.000000 0.000000
# 3 -0.012718 -0.005479 0.050704 0.000000 0.000000 0.000000
# 4 0.000000 0.000000 0.000000 0.040742 0.000000 0.000000
# 5 0.000000 0.000000 0.000000 0.000000 0.048777 0.000000
# 6 0.000000 0.000000 0.000000 0.000000 0.000000 0.041207
#
#
# Mechanical properties :
#
#
# Convention : Reuss Voigt Hill
#
# Bulk Modulus (GPa) = 26.75399 48.43595 37.59497
# Shear Modulus (GPa) = 17.68293 22.53595 20.10944
#
# Velocity S-wave (km/s) = 3.15621 3.56309 3.36580
# Velocity P-wave (km/s) = 5.32485 6.64934 6.02361
#
# Compressibility (1/GPa) = 0.03737761
#
# Stress axis : x y z
#
# Youngs Moduli (GPa) = 37.08025 92.57016 19.72218
#
# Poissons Ratio (x) = 0.68055 0.25083
# Poissons Ratio (y) = 0.27261 0.10806
# Poissons Ratio (z) = 0.47159 0.50719
#
# Static dielectric constant tensor:
#      x y z
#    x 1.584170 0.000000 0.000000 
#    y 0.000000 1.631610 0.000000 
#    z 0.000000 0.000000 1.605250 
# 
# From -- ./inp_files/14863.got.cif
#   From: 2010.05.17/outbox.cif.g08.bks.cpg/sg71_8_cif.got.tgz:14863.got - 2010.06.03 16:22:01.
