data_PCOD9521233
_publ_section_title
;
Structure prediction by ZEFSAII (Michael W. Deem and Ramdas Pophale) SiO2 
 PCOD9521233
Probable space group: I M M M
;
_chemical_formula_sum "Si O2"
_cell_formula_units_Z 88
_cell_length_a 27.422834
_cell_length_b 10.743836
_cell_length_c 15.328922
_cell_angle_alpha 90.000000
_cell_angle_beta 90.000000
_cell_angle_gamma 90.000000
_cell_volume 4516.305582
_symmetry_space_group_name_H-M "I M M M"
_symmetry_group_IT_number 71
_symmetry_cell_setting 'orthorhombic'
loop_
_space_group_symop_operation_xyz
x,y,z
-x,-y,z
x,-y,-z
-x,y,-z
-x,-y,-z
x,y,-z
-x,y,z
x,-y,z
1/2+x,1/2+y,1/2+z
1/2-x,1/2-y,1/2+z
1/2+x,1/2-y,1/2-z
1/2-x,1/2+y,1/2-z
1/2-x,1/2-y,1/2-z
1/2+x,1/2+y,1/2-z
1/2-x,1/2+y,1/2+z
1/2+x,1/2-y,1/2+z
loop_
_atom_site_type_symbol
_atom_site_label
_atom_site_fract_x
_atom_site_fract_y
_atom_site_fract_z
Si Si1 0.558384 0.000000 0.099127
Si Si2 0.195926 0.860133 0.153880
Si Si3 0.875691 0.356186 0.900524
Si Si4 0.803799 0.637516 0.600671
Si Si5 0.139582 0.865742 0.335098
Si Si6 0.942156 0.281857 0.262831
O O1 0.567887 0.882060 0.160799
O O2 0.500000 0.000000 0.087899
O O3 0.579743 0.000000 0.000000
O O4 0.167209 0.745884 0.109736
O O5 0.253784 0.840230 0.152398
O O6 0.174874 0.865281 0.251119
O O7 0.187232 0.000000 0.115548
O O8 0.859202 0.500000 0.887342
O O9 0.915686 0.325418 0.826322
O O10 0.894647 0.347347 0.000000
O O11 0.789014 0.632480 0.500000
O O12 0.823330 0.500000 0.625839
O O13 0.841495 0.748568 0.611265
O O14 0.085912 0.839911 0.296784
O O15 0.142418 0.000000 0.379023
O O16 0.000000 0.269118 0.251205
#
# Coordination Sequence:
#
# PCOD9521233 Si02
#       6
#     8  16  16  16  16  16
#     4   9  18  34  57  81 101 133 186 238 281 327
#     4   9  19  37  58  80 112 155 197 231 274 338
#     4  10  20  33  54  87 122 154 189 232 285 342
#     4  10  21  36  56  82 111 146 189 237 288 344
#     4  10  22  37  56  83 112 147 187 235 294 345
#     4  10  21  38  58  81 112 150 192 238 287 341
#
# _framework density 19.484953000000001
#
# number of rings (size 3 to 8) (size 9 to 14) (size 15 to 20)
#    0.000    2.273    0.909    1.091    1.273    4.364 
#    0.000    0.909    0.000    0.000    0.000    8.909 
#    0.000    0.000    0.000    0.000    0.000    0.000 
#
# Total GULP energy -245264.974218 kJ/mol
# GULP energy per Si atom -5574.203960 kJ/mol
# Density = 1.944060 g / cm^3
# Si number density = 19.484953 Si / 1000 Ang^3
#
#
#
# Elastic Constant Matrix: (Units=GPa)
#
#
# Indices 1 2 3 4 5 6 
#
# 1 86.2951 63.5944 6.0577 0.0000 0.0000 0.0000
# 2 63.5944 141.8653 26.8088 0.0000 0.0000 0.0000
# 3 6.0577 26.8088 62.0626 0.0000 0.0000 0.0000
# 4 0.0000 0.0000 0.0000 18.3445 0.0000 0.0000
# 5 0.0000 0.0000 0.0000 0.0000 21.8260 0.0000
# 6 0.0000 0.0000 0.0000 0.0000 0.0000 21.8833
#
#
#
# Elastic Compliance Matrix: (Units=1/GPa)
#
#
# Indices 1 2 3 4 5 6 
#
# 1 0.017493 -0.008188 0.001829 0.000000 0.000000 0.000000
# 2 -0.008188 0.011508 -0.004172 0.000000 0.000000 0.000000
# 3 0.001829 -0.004172 0.017736 0.000000 0.000000 0.000000
# 4 0.000000 0.000000 0.000000 0.054512 0.000000 0.000000
# 5 0.000000 0.000000 0.000000 0.000000 0.045817 0.000000
# 6 0.000000 0.000000 0.000000 0.000000 0.000000 0.045697
#
#
# Mechanical properties :
#
#
# Convention : Reuss Voigt Hill
#
# Bulk Modulus (GPa) = 38.94495 53.68278 46.31386
# Shear Modulus (GPa) = 22.48380 25.32823 23.90601
#
# Velocity S-wave (km/s) = 3.40060 3.60931 3.50651
# Velocity P-wave (km/s) = 5.95394 6.70672 6.34151
#
# Compressibility (1/GPa) = 0.02567727
#
# Stress axis : x y z
#
# Youngs Moduli (GPa) = 57.16423 86.89965 56.38179
#
# Poissons Ratio (x) = 0.71149 -0.10314
# Poissons Ratio (y) = 0.46803 0.23521
# Poissons Ratio (z) = -0.10457 0.36252
#
# Static dielectric constant tensor:
#      x y z
#    x 1.670080 0.000000 0.000000 
#    y 0.000000 1.729140 0.000000 
#    z 0.000000 0.000000 1.680020 
# 
# From -- ./inp_files/40162.got.cif
#   From: 2010.05.17/outbox.cif.g08.bks.cpg/sg71_21_cif.got.tgz:40162.got - 2010.06.03 16:22:01.
