data_PCOD9521931
_publ_section_title
;
Structure prediction by ZEFSAII (Michael W. Deem and Ramdas Pophale) SiO2 
 PCOD9521931
Probable space group: I M M M
;
_chemical_formula_sum "Si O2"
_cell_formula_units_Z 112
_cell_length_a 23.458146
_cell_length_b 15.065565
_cell_length_c 15.561458
_cell_angle_alpha 90.000000
_cell_angle_beta 90.000000
_cell_angle_gamma 90.000000
_cell_volume 5499.578347
_symmetry_space_group_name_H-M "I M M M"
_symmetry_group_IT_number 71
_symmetry_cell_setting 'orthorhombic'
loop_
_space_group_symop_operation_xyz
x,y,z
-x,-y,z
x,-y,-z
-x,y,-z
-x,-y,-z
x,y,-z
-x,y,z
x,-y,z
1/2+x,1/2+y,1/2+z
1/2-x,1/2-y,1/2+z
1/2+x,1/2-y,1/2-z
1/2-x,1/2+y,1/2-z
1/2-x,1/2-y,1/2-z
1/2+x,1/2+y,1/2-z
1/2-x,1/2+y,1/2+z
1/2+x,1/2-y,1/2+z
loop_
_atom_site_type_symbol
_atom_site_label
_atom_site_fract_x
_atom_site_fract_y
_atom_site_fract_z
Si Si1 0.735023 0.780414 0.155170
Si Si2 0.638757 0.899841 0.103037
Si Si3 0.431610 0.274192 0.902194
Si Si4 0.283278 0.594703 0.897920
Si Si5 0.636388 0.289285 0.600059
Si Si6 0.648385 0.094893 0.395711
Si Si7 0.932945 0.894801 0.240119
O O1 0.750000 0.750000 0.250000
O O2 0.696248 0.866805 0.148747
O O3 0.699184 0.695502 0.121521
O O4 0.794715 0.795012 0.106417
O O5 0.592963 0.822920 0.119904
O O6 0.622781 0.000000 0.127391
O O7 0.649088 0.898765 0.000000
O O8 0.500000 0.268139 0.903602
O O9 0.417834 0.346427 0.829474
O O10 0.413558 0.298464 0.000000
O O11 0.306434 0.500000 0.862435
O O12 0.215698 0.596010 0.874465
O O13 0.286855 0.588398 0.000000
O O14 0.620146 0.300365 0.500000
O O15 0.622255 0.188471 0.631292
O O16 0.605934 0.356476 0.663960
O O17 0.645705 0.095767 0.500000
O O18 0.624531 0.000000 0.365705
O O19 0.000000 0.876270 0.222040
O O20 0.926418 0.000000 0.247631
#
# Coordination Sequence:
#
# PCOD9521931 Si02
#       7
#    16  16  16  16  16  16  16
#     4  11  21  33  51  77 114 154 192 239 286 334
#     4  10  21  37  57  82 114 150 187 230 281 342
#     4   9  19  39  66  91 115 144 180 229 294 364
#     4   8  14  27  47  68  92 127 173 221 267 317
#     4  10  20  35  56  81 114 160 205 241 286 346
#     4   7  11  23  46  74 100 131 177 229 277 327
#     4  10  22  40  61  86 114 144 189 248 298 345
#
# _framework density 20.365199
#
# number of rings (size 3 to 8) (size 9 to 14) (size 15 to 20)
#    0.000    2.714    0.000    3.857    0.000    2.286 
#    0.000    9.286    0.000    2.143    0.000    2.000 
#    0.000    0.000    0.000    0.000    0.000    0.000 
#
# Total GULP energy -312236.627174 kJ/mol
# GULP energy per Si atom -5575.654057 kJ/mol
# Density = 2.031885 g / cm^3
# Si number density = 20.365199 Si / 1000 Ang^3
#
#
#
# Elastic Constant Matrix: (Units=GPa)
#
#
# Indices 1 2 3 4 5 6 
#
# 1 67.8877 41.8248 32.9766 0.0000 0.0000 0.0000
# 2 41.8248 127.3678 45.4991 0.0000 0.0000 0.0000
# 3 32.9766 45.4991 80.0904 0.0000 0.0000 0.0000
# 4 0.0000 0.0000 0.0000 29.5371 0.0000 0.0000
# 5 0.0000 0.0000 0.0000 0.0000 21.6670 0.0000
# 6 0.0000 0.0000 0.0000 0.0000 0.0000 29.3596
#
#
#
# Elastic Compliance Matrix: (Units=1/GPa)
#
#
# Indices 1 2 3 4 5 6 
#
# 1 0.020384 -0.004636 -0.005759 0.000000 0.000000 0.000000
# 2 -0.004636 0.010905 -0.004286 0.000000 0.000000 0.000000
# 3 -0.005759 -0.004286 0.017292 0.000000 0.000000 0.000000
# 4 0.000000 0.000000 0.000000 0.033856 0.000000 0.000000
# 5 0.000000 0.000000 0.000000 0.000000 0.046153 0.000000
# 6 0.000000 0.000000 0.000000 0.000000 0.000000 0.034060
#
#
# Mechanical properties :
#
#
# Convention : Reuss Voigt Hill
#
# Bulk Modulus (GPa) = 52.03456 57.32746 54.68101
# Shear Modulus (GPa) = 25.19917 26.44909 25.82413
#
# Velocity S-wave (km/s) = 3.52144 3.60771 3.56483
# Velocity P-wave (km/s) = 6.49155 6.75018 6.62213
#
# Compressibility (1/GPa) = 0.01921800
#
# Stress axis : x y z
#
# Youngs Moduli (GPa) = 49.05781 91.70229 57.83018
#
# Poissons Ratio (x) = 0.42517 0.33305
# Poissons Ratio (y) = 0.22745 0.24786
# Poissons Ratio (z) = 0.28253 0.39304
#
# Static dielectric constant tensor:
#      x y z
#    x 1.736200 0.000000 0.000000 
#    y 0.000000 1.810180 0.000000 
#    z 0.000000 0.000000 1.730670 
# 
# From -- ./inp_files/39255.got.cif
#   From: 2010.05.17/outbox.cif.g08.bks.cpg/sg71_20_cif.got.tgz:39255.got - 2010.06.03 16:22:01.
