data_PCOD9521169
_publ_section_title
;
Structure prediction by ZEFSAII (Michael W. Deem and Ramdas Pophale) SiO2 
 PCOD9521169
Probable space group: I M M M
;
_chemical_formula_sum "Si O2"
_cell_formula_units_Z 96
_cell_length_a 24.001180
_cell_length_b 9.382356
_cell_length_c 21.486242
_cell_angle_alpha 90.000000
_cell_angle_beta 90.000000
_cell_angle_gamma 90.000000
_cell_volume 4838.435595
_symmetry_space_group_name_H-M "I M M M"
_symmetry_group_IT_number 71
_symmetry_cell_setting 'orthorhombic'
loop_
_space_group_symop_operation_xyz
x,y,z
-x,-y,z
x,-y,-z
-x,y,-z
-x,-y,-z
x,y,-z
-x,y,z
x,-y,z
1/2+x,1/2+y,1/2+z
1/2-x,1/2-y,1/2+z
1/2+x,1/2-y,1/2-z
1/2-x,1/2+y,1/2-z
1/2-x,1/2-y,1/2-z
1/2+x,1/2+y,1/2-z
1/2-x,1/2+y,1/2+z
1/2+x,1/2-y,1/2+z
loop_
_atom_site_type_symbol
_atom_site_label
_atom_site_fract_x
_atom_site_fract_y
_atom_site_fract_z
Si Si1 0.434219 0.331540 0.694146
Si Si2 0.567475 0.836219 0.430597
Si Si3 0.670331 0.660972 0.074610
Si Si4 0.249512 0.835266 0.152823
Si Si5 0.836577 0.664710 0.233610
Si Si6 0.437296 0.835918 0.924063
O O1 0.500000 0.306295 0.704493
O O2 0.424028 0.500000 0.696759
O O3 0.419251 0.268353 0.625863
O O4 0.394784 0.245875 0.740895
O O5 0.587006 0.794050 0.500000
O O6 0.500000 0.839008 0.432920
O O7 0.585476 0.000000 0.418826
O O8 0.675508 0.500000 0.099277
O O9 0.722218 0.756106 0.095353
O O10 0.612579 0.733937 0.095853
O O11 0.668310 0.655216 0.000000
O O12 0.198189 0.747979 0.180842
O O13 0.297702 0.831054 0.205720
O O14 0.235356 0.000000 0.141055
O O15 0.845676 0.500000 0.217338
O O16 0.500000 0.795047 0.904279
O O17 0.426700 0.000000 0.904867
O O18 0.437545 0.835513 0.000000
#
# Coordination Sequence:
#
# PCOD9521169 Si02
#       6
#    16  16  16  16  16  16
#     4  10  20  33  52  80 112 143 175 216 265 313
#     4   8  14  26  45  69  99 137 177 213 253 305
#     4  10  20  33  52  80 112 143 175 216 266 316
#     4  10  21  38  60  82 104 136 177 219 264 314
#     4  10  21  38  60  82 104 135 176 220 264 313
#     4   8  14  26  45  69  99 137 178 216 256 307
#
# _framework density 19.841125000000002
#
# number of rings (size 3 to 8) (size 9 to 14) (size 15 to 20)
#    0.000    2.667    0.000    3.000    0.000    4.667 
#    0.000    5.000    0.000    6.000    0.000    0.000 
#    0.000    0.000    0.000    0.000    0.000    0.000 
#
# Total GULP energy -267788.946973 kJ/mol
# GULP energy per Si atom -5578.936395 kJ/mol
# Density = 1.979597 g / cm^3
# Si number density = 19.841125 Si / 1000 Ang^3
#
#
#
# Elastic Constant Matrix: (Units=GPa)
#
#
# Indices 1 2 3 4 5 6 
#
# 1 66.6226 56.2977 15.9824 0.0000 0.0000 0.0000
# 2 56.2977 131.3228 15.9507 0.0000 0.0000 0.0000
# 3 15.9824 15.9507 17.4645 0.0000 0.0000 0.0000
# 4 0.0000 0.0000 0.0000 20.6908 0.0000 0.0000
# 5 0.0000 0.0000 0.0000 0.0000 21.1495 0.0000
# 6 0.0000 0.0000 0.0000 0.0000 0.0000 31.2498
#
#
#
# Elastic Compliance Matrix: (Units=1/GPa)
#
#
# Indices 1 2 3 4 5 6 
#
# 1 0.026952 -0.009626 -0.015873 0.000000 0.000000 0.000000
# 2 -0.009626 0.012003 -0.002153 0.000000 0.000000 0.000000
# 3 -0.015873 -0.002153 0.073752 0.000000 0.000000 0.000000
# 4 0.000000 0.000000 0.000000 0.048331 0.000000 0.000000
# 5 0.000000 0.000000 0.000000 0.000000 0.047283 0.000000
# 6 0.000000 0.000000 0.000000 0.000000 0.000000 0.032000
#
#
# Mechanical properties :
#
#
# Convention : Reuss Voigt Hill
#
# Bulk Modulus (GPa) = 17.42107 43.54126 30.48116
# Shear Modulus (GPa) = 15.88513 23.09663 19.49088
#
# Velocity S-wave (km/s) = 2.83259 3.41556 3.13764
# Velocity P-wave (km/s) = 4.41559 6.12759 5.34063
#
# Compressibility (1/GPa) = 0.05740176
#
# Stress axis : x y z
#
# Youngs Moduli (GPa) = 37.10259 83.31128 13.55901
#
# Poissons Ratio (x) = 0.80199 0.21522
# Poissons Ratio (y) = 0.35716 0.02920
# Poissons Ratio (z) = 0.58893 0.17939
#
# Static dielectric constant tensor:
#      x y z
#    x 1.713490 0.000000 0.000000 
#    y 0.000000 1.677250 0.000000 
#    z 0.000000 0.000000 1.729080 
# 
# From -- ./inp_files/12857.got.cif
#   From: 2010.05.17/outbox.cif.g08.bks.cpg/sg71_7_cif.got.tgz:12857.got - 2010.06.03 16:22:01.
