data_PCOD9521716
_publ_section_title
;
Structure prediction by ZEFSAII (Michael W. Deem and Ramdas Pophale) SiO2 
 PCOD9521716
Probable space group: I M M M
;
_chemical_formula_sum "Si O2"
_cell_formula_units_Z 104
_cell_length_a 17.577525
_cell_length_b 28.753885
_cell_length_c 11.788252
_cell_angle_alpha 90.000000
_cell_angle_beta 90.000000
_cell_angle_gamma 90.000000
_cell_volume 5958.043464
_symmetry_space_group_name_H-M "I M M M"
_symmetry_group_IT_number 71
_symmetry_cell_setting 'orthorhombic'
loop_
_space_group_symop_operation_xyz
x,y,z
-x,-y,z
x,-y,-z
-x,y,-z
-x,-y,-z
x,y,-z
-x,y,z
x,-y,z
1/2+x,1/2+y,1/2+z
1/2-x,1/2-y,1/2+z
1/2+x,1/2-y,1/2-z
1/2-x,1/2+y,1/2-z
1/2-x,1/2-y,1/2-z
1/2+x,1/2+y,1/2-z
1/2-x,1/2+y,1/2+z
1/2+x,1/2-y,1/2+z
loop_
_atom_site_type_symbol
_atom_site_label
_atom_site_fract_x
_atom_site_fract_y
_atom_site_fract_z
Si Si1 0.409967 0.200572 0.500000
Si Si2 0.660841 0.716956 0.134339
Si Si3 0.329067 0.192999 0.723596
Si Si4 0.590684 0.362195 0.725214
Si Si5 0.842065 0.600803 0.634487
Si Si6 0.500000 0.053735 0.138272
Si Si7 0.407875 0.306897 0.500000
Si Si8 0.317649 0.554083 0.634688
O O1 0.500000 0.201444 0.500000
O O2 0.380301 0.179551 0.616334
O O3 0.380463 0.254126 0.500000
O O4 0.638328 0.762707 0.206961
O O5 0.747329 0.706427 0.171989
O O6 0.613406 0.671558 0.171893
O O7 0.655933 0.725353 0.000000
O O8 0.323061 0.149066 0.805234
O O9 0.500000 0.368723 0.721845
O O10 0.616027 0.333408 0.612931
O O11 0.633435 0.411074 0.711980
O O12 0.848068 0.609039 0.500000
O O13 0.922479 0.579477 0.673676
O O14 0.771267 0.566034 0.651555
O O15 0.500000 0.000000 0.174978
O O16 0.500000 0.053413 0.000000
O O17 0.500000 0.306030 0.500000
O O18 0.334833 0.562446 0.500000
O O19 0.332441 0.500000 0.657668
#
# Coordination Sequence:
#
# PCOD9521716 Si02
#       8
#     8  16  16  16  16   8   8  16
#     4  11  22  36  56  83 115 150 188 229 276 330
#     4  11  23  38  56  82 115 151 192 230 270 331
#     4  11  22  36  57  84 114 151 189 229 277 330
#     4  11  21  36  57  81 115 154 186 227 283 336
#     4  10  20  35  56  84 118 151 184 228 285 343
#     4   9  18  34  56  83 117 153 187 228 284 347
#     4   9  18  34  53  78 113 154 187 216 272 340
#     4  10  20  34  56  86 115 143 183 237 290 337
#
# _framework density 17.455394999999999
#
# number of rings (size 3 to 8) (size 9 to 14) (size 15 to 20)
#    0.000    1.615    4.615    0.923    1.077    2.462 
#    0.000    0.769    0.000    0.462    0.000    3.231 
#    0.000    0.000    0.000    0.000    0.000    0.000 
#
# Total GULP energy -290200.920773 kJ/mol
# GULP energy per Si atom -5580.786938 kJ/mol
# Density = 1.741567 g / cm^3
# Si number density = 17.455395 Si / 1000 Ang^3
#
#
#
# Elastic Constant Matrix: (Units=GPa)
#
#
# Indices 1 2 3 4 5 6 
#
# 1 58.6196 4.6523 23.6671 0.0000 0.0000 0.0000
# 2 4.6523 65.9227 22.9347 0.0000 0.0000 0.0000
# 3 23.6671 22.9347 72.7392 0.0000 0.0000 0.0001
# 4 0.0000 0.0000 0.0000 17.4171 0.0000 0.0000
# 5 0.0000 0.0000 0.0000 0.0000 19.7941 0.0000
# 6 0.0000 0.0000 0.0001 0.0000 0.0000 17.6038
#
#
#
# Elastic Compliance Matrix: (Units=1/GPa)
#
#
# Indices 1 2 3 4 5 6 
#
# 1 0.019691 0.000943 -0.006704 0.000000 0.000000 0.000000
# 2 0.000943 0.017083 -0.005693 0.000000 0.000000 0.000000
# 3 -0.006704 -0.005693 0.017724 0.000000 0.000000 0.000000
# 4 0.000000 0.000000 0.000000 0.057415 0.000000 0.000000
# 5 0.000000 0.000000 0.000000 0.000000 0.050520 0.000000
# 6 0.000000 0.000000 0.000000 0.000000 0.000000 0.056806
#
#
# Mechanical properties :
#
#
# Convention : Reuss Voigt Hill
#
# Bulk Modulus (GPa) = 31.65605 33.30995 32.48300
# Shear Modulus (GPa) = 19.78802 20.69817 20.24309
#
# Velocity S-wave (km/s) = 3.37060 3.44724 3.40914
# Velocity P-wave (km/s) = 5.77258 5.91346 5.84344
#
# Compressibility (1/GPa) = 0.03158954
#
# Stress axis : x y z
#
# Youngs Moduli (GPa) = 50.78457 58.53631 56.42041
#
# Poissons Ratio (x) = -0.05518 0.37825
# Poissons Ratio (y) = -0.04788 0.32121
# Poissons Ratio (z) = 0.34046 0.33325
#
# Static dielectric constant tensor:
#      x y z
#    x 1.602160 0.000000 0.000000 
#    y 0.000000 1.578360 0.000000 
#    z 0.000000 0.000000 1.587210 
# 
# From -- ./inp_files/24638.got.cif
#   From: 2010.05.17/outbox.cif.g08.bks.cpg/sg71_13_cif.got.tgz:24638.got - 2010.06.03 16:22:01.
