data_PCOD9521719
_publ_section_title
;
Structure prediction by ZEFSAII (Michael W. Deem and Ramdas Pophale) SiO2 
 PCOD9521719
Probable space group: I M M M
;
_chemical_formula_sum "Si O2"
_cell_formula_units_Z 80
_cell_length_a 29.723420
_cell_length_b 8.420798
_cell_length_c 16.059837
_cell_angle_alpha 90.000000
_cell_angle_beta 90.000000
_cell_angle_gamma 90.000000
_cell_volume 4019.695548
_symmetry_space_group_name_H-M "I M M M"
_symmetry_group_IT_number 71
_symmetry_cell_setting 'orthorhombic'
loop_
_space_group_symop_operation_xyz
x,y,z
-x,-y,z
x,-y,-z
-x,y,-z
-x,-y,-z
x,y,-z
-x,y,z
x,-y,z
1/2+x,1/2+y,1/2+z
1/2-x,1/2-y,1/2+z
1/2+x,1/2-y,1/2-z
1/2-x,1/2+y,1/2-z
1/2-x,1/2-y,1/2-z
1/2+x,1/2+y,1/2-z
1/2-x,1/2+y,1/2+z
1/2+x,1/2-y,1/2+z
loop_
_atom_site_type_symbol
_atom_site_label
_atom_site_fract_x
_atom_site_fract_y
_atom_site_fract_z
Si Si1 0.894489 0.688192 0.408235
Si Si2 0.301353 0.311939 0.150702
Si Si3 0.109350 0.191925 0.092014
Si Si4 0.448717 0.308769 0.749670
Si Si5 0.701093 0.190112 0.339058
O O1 0.907998 0.747444 0.500000
O O2 0.901451 0.500000 0.405334
O O3 0.841795 0.724039 0.394461
O O4 0.921957 0.763396 0.332638
O O5 0.307153 0.500000 0.138167
O O6 0.304478 0.272910 0.249160
O O7 0.250420 0.266896 0.126019
O O8 0.078153 0.248277 0.167970
O O9 0.159281 0.258804 0.105539
O O10 0.111676 0.000000 0.096346
O O11 0.092468 0.235266 0.000000
O O12 0.500000 0.250047 0.751574
O O13 0.449941 0.500000 0.744912
O O14 0.700860 0.000000 0.326404
#
# Coordination Sequence:
#
# PCOD9521719 Si02
#       5
#    16  16  16  16  16
#     4  11  24  40  60  88 120 155 196 242 294 350
#     4  10  20  35  57  85 118 157 199 240 286 342
#     4  10  21  37  59  88 121 157 196 238 287 345
#     4  10  22  41  64  88 115 151 196 245 297 352
#     4  10  20  34  56  86 120 158 197 238 287 343
#
# _framework density 19.902004999999999
#
# number of rings (size 3 to 8) (size 9 to 14) (size 15 to 20)
#    0.000    1.800    2.000    1.800    0.000    6.400 
#    0.000    8.000    0.000    0.000    0.000    2.800 
#    0.000    0.000    0.000    0.000    0.000    0.000 
#
# Total GULP energy -223444.014370 kJ/mol
# GULP energy per Si atom -5586.100359 kJ/mol
# Density = 1.985671 g / cm^3
# Si number density = 19.902005 Si / 1000 Ang^3
#
#
#
# Elastic Constant Matrix: (Units=GPa)
#
#
# Indices 1 2 3 4 5 6 
#
# 1 128.4500 11.2214 75.2966 0.0000 0.0000 0.0000
# 2 11.2214 8.1916 7.6850 0.0000 0.0000 0.0000
# 3 75.2966 7.6850 135.1562 0.0000 0.0000 0.0000
# 4 0.0000 0.0000 0.0000 12.1934 0.0000 0.0000
# 5 0.0000 0.0000 0.0000 0.0000 -2.1392 0.0000
# 6 0.0000 0.0000 0.0000 0.0000 0.0000 23.1220
#
#
#
# Elastic Compliance Matrix: (Units=1/GPa)
#
#
# Indices 1 2 3 4 5 6 
#
# 1 0.012455 -0.011146 -0.006305 0.000000 0.000000 0.000000
# 2 -0.011146 0.138931 -0.001690 0.000000 0.000000 0.000000
# 3 -0.006305 -0.001690 0.011007 0.000000 0.000000 0.000000
# 4 0.000000 0.000000 0.000000 0.082012 0.000000 0.000000
# 5 0.000000 0.000000 0.000000 0.000000 -0.467461 0.000000
# 6 0.000000 0.000000 0.000000 0.000000 0.000000 0.043249
#
#
# Mechanical properties :
#
#
# Convention : Reuss Voigt Hill
#
# Bulk Modulus (GPa) = 8.05732 51.13376 29.59554
# Shear Modulus (GPa) = -49.92265 18.47489 -15.72388
#
# Velocity S-wave (km/s) = -5.01385 3.05010 -2.81386
# Velocity P-wave (km/s) = 5.42780 6.17678 2.08467
#
# Compressibility (1/GPa) = 0.12411077
#
# Stress axis : x y z
#
# Youngs Moduli (GPa) = 80.29064 7.19782 90.84785
#
# Poissons Ratio (x) = 0.08023 0.57278
# Poissons Ratio (y) = 0.89495 0.15352
# Poissons Ratio (z) = 0.50622 0.01216
#
# Static dielectric constant tensor:
#      x y z
#    x 1.689340 0.000000 0.000000 
#    y 0.000000 1.683480 0.000000 
#    z 0.000000 0.000000 1.707840 
# 
# From -- ./inp_files/8606.got.cif
#   From: 2010.05.17/outbox.cif.g08.bks.cpg/sg71_5_cif.got.tgz:8606.got - 2010.06.03 16:22:01.
