data_PCOD9521324
_publ_section_title
;
Structure prediction by ZEFSAII (Michael W. Deem and Ramdas Pophale) SiO2 
 PCOD9521324
Probable space group: I M M M
;
_chemical_formula_sum "Si O2"
_cell_formula_units_Z 88
_cell_length_a 7.857941
_cell_length_b 18.309460
_cell_length_c 32.124683
_cell_angle_alpha 90.000000
_cell_angle_beta 90.000000
_cell_angle_gamma 90.000000
_cell_volume 4621.927729
_symmetry_space_group_name_H-M "I M M M"
_symmetry_group_IT_number 71
_symmetry_cell_setting 'orthorhombic'
loop_
_space_group_symop_operation_xyz
x,y,z
-x,-y,z
x,-y,-z
-x,y,-z
-x,-y,-z
x,y,-z
-x,y,z
x,-y,z
1/2+x,1/2+y,1/2+z
1/2-x,1/2-y,1/2+z
1/2+x,1/2-y,1/2-z
1/2-x,1/2+y,1/2-z
1/2-x,1/2-y,1/2-z
1/2+x,1/2+y,1/2-z
1/2-x,1/2+y,1/2+z
1/2+x,1/2-y,1/2+z
loop_
_atom_site_type_symbol
_atom_site_label
_atom_site_fract_x
_atom_site_fract_y
_atom_site_fract_z
Si Si1 0.205208 0.641046 0.587772
Si Si2 0.707727 0.414867 0.952850
Si Si3 0.206605 0.803533 0.618217
Si Si4 0.697992 0.760901 0.202613
Si Si5 0.198372 0.920214 0.172846
Si Si6 0.292155 0.083974 0.000000
O O1 0.241987 0.725021 0.597718
O O2 0.282460 0.590279 0.623344
O O3 0.265679 0.621233 0.542149
O O4 0.000000 0.631835 0.590155
O O5 0.500000 0.411710 0.952795
O O6 0.755184 0.500000 0.947761
O O7 0.767777 0.365740 0.913886
O O8 0.760236 0.391513 0.000000
O O9 0.272999 0.791093 0.665738
O O10 0.000000 0.812106 0.620231
O O11 0.500000 0.745623 0.200964
O O12 0.750000 0.750000 0.250000
O O13 0.723908 0.846067 0.191098
O O14 0.000000 0.919358 0.184071
O O15 0.269602 0.000000 0.184849
O O16 0.500000 0.087204 0.000000
O O17 0.242707 0.000000 0.000000
#
# Coordination Sequence:
#
# PCOD9521324 Si02
#       6
#    16  16  16  16  16   8
#     4   9  17  28  44  66  93 128 165 205 247 289
#     4   8  13  21  36  61  94 129 159 191 236 290
#     4   8  15  26  41  63  90 124 163 198 239 289
#     4  10  20  35  54  75 100 130 165 208 257 307
#     4  10  20  34  52  73  97 127 164 205 251 303
#     4   9  16  24  37  61  90 120 158 201 243 287
#
# _framework density 19.039674000000002
#
# number of rings (size 3 to 8) (size 9 to 14) (size 15 to 20)
#    0.000    3.000    0.000    3.273    1.273    2.182 
#    0.000    1.364    0.000    4.909    0.000    0.000 
#    0.000    6.545    0.000   50.000    0.000   45.455 
#
# Total GULP energy -245001.275666 kJ/mol
# GULP energy per Si atom -5568.210811 kJ/mol
# Density = 1.899634 g / cm^3
# Si number density = 19.039674 Si / 1000 Ang^3
#
#
#
# Elastic Constant Matrix: (Units=GPa)
#
#
# Indices 1 2 3 4 5 6 
#
# 1 15.7535 3.2728 10.3559 0.0000 0.0000 0.0000
# 2 3.2728 83.9205 75.9327 0.0000 0.0000 0.0000
# 3 10.3559 75.9327 183.5888 0.0000 0.0000 0.0000
# 4 0.0000 0.0000 0.0000 11.7292 0.0000 0.0000
# 5 0.0000 0.0000 0.0000 0.0000 17.5143 0.0000
# 6 0.0000 0.0000 0.0000 0.0000 0.0000 10.4877
#
#
#
# Elastic Compliance Matrix: (Units=1/GPa)
#
#
# Indices 1 2 3 4 5 6 
#
# 1 0.066007 0.001270 -0.004249 0.000000 0.000000 0.000000
# 2 0.001270 0.019067 -0.007958 0.000000 0.000000 0.000000
# 3 -0.004249 -0.007958 0.008978 0.000000 0.000000 0.000000
# 4 0.000000 0.000000 0.000000 0.085258 0.000000 0.000000
# 5 0.000000 0.000000 0.000000 0.000000 0.057096 0.000000
# 6 0.000000 0.000000 0.000000 0.000000 0.000000 0.095350
#
#
# Mechanical properties :
#
#
# Convention : Reuss Voigt Hill
#
# Bulk Modulus (GPa) = 13.85445 51.37618 32.61532
# Shear Modulus (GPa) = 13.23847 20.85967 17.04907
#
# Velocity S-wave (km/s) = 2.63973 3.31356 2.99565
# Velocity P-wave (km/s) = 4.07227 6.45615 5.39746
#
# Compressibility (1/GPa) = 0.07217896
#
# Stress axis : x y z
#
# Youngs Moduli (GPa) = 15.14994 52.44728 111.38428
#
# Poissons Ratio (x) = -0.06661 0.47323
# Poissons Ratio (y) = -0.01924 0.88636
# Poissons Ratio (z) = 0.06437 0.41736
#
# Static dielectric constant tensor:
#      x y z
#    x 1.707120 0.000000 0.000000 
#    y 0.000000 1.653710 0.000000 
#    z 0.000000 0.000000 1.766950 
# 
# From -- ./inp_files/67991.got.cif
#   From: 2010.05.17/outbox.cif.g08.bks.cpg/sg71_34_cif.got.tgz:67991.got - 2010.06.03 16:22:01.
