data_PCOD9521454
_publ_section_title
;
Structure prediction by ZEFSAII (Michael W. Deem and Ramdas Pophale) SiO2 
 PCOD9521454
Probable space group: I M M M
;
_chemical_formula_sum "Si O2"
_cell_formula_units_Z 96
_cell_length_a 30.326586
_cell_length_b 8.817357
_cell_length_c 20.219621
_cell_angle_alpha 90.000000
_cell_angle_beta 90.000000
_cell_angle_gamma 90.000000
_cell_volume 5406.733436
_symmetry_space_group_name_H-M "I M M M"
_symmetry_group_IT_number 71
_symmetry_cell_setting 'orthorhombic'
loop_
_space_group_symop_operation_xyz
x,y,z
-x,-y,z
x,-y,-z
-x,y,-z
-x,-y,-z
x,y,-z
-x,y,z
x,-y,z
1/2+x,1/2+y,1/2+z
1/2-x,1/2-y,1/2+z
1/2+x,1/2-y,1/2-z
1/2-x,1/2+y,1/2-z
1/2-x,1/2-y,1/2-z
1/2+x,1/2+y,1/2-z
1/2-x,1/2+y,1/2+z
1/2+x,1/2-y,1/2+z
loop_
_atom_site_type_symbol
_atom_site_label
_atom_site_fract_x
_atom_site_fract_y
_atom_site_fract_z
Si Si1 0.208191 0.819127 0.289010
Si Si2 0.672801 0.822268 0.424021
Si Si3 0.374997 0.680445 0.304056
Si Si4 0.946564 0.319648 0.570778
Si Si5 0.947997 0.316939 0.715252
Si Si6 0.769631 0.318673 0.574868
O O1 0.250000 0.750000 0.250000
O O2 0.164673 0.783324 0.246967
O O3 0.205589 0.754309 0.363192
O O4 0.213645 0.000000 0.291792
O O5 0.658327 0.805669 0.500000
O O6 0.637858 0.759263 0.372476
O O7 0.718678 0.731841 0.416803
O O8 0.681666 0.000000 0.411535
O O9 0.376560 0.500000 0.312590
O O10 0.419456 0.742214 0.272009
O O11 0.930746 0.255859 0.500000
O O12 0.936872 0.500000 0.570192
O O13 0.932027 0.261166 0.642311
O O14 0.000000 0.307370 0.571057
O O15 0.943286 0.500000 0.716865
O O16 0.000000 0.283838 0.721273
O O17 0.783194 0.272344 0.500000
O O18 0.772729 0.500000 0.578959
#
# Coordination Sequence:
#
# PCOD9521454 Si02
#       6
#    16  16  16  16  16  16
#     4  11  22  35  53  77 107 144 183 223 267 317
#     4  10  20  34  55  81 106 136 175 218 265 320
#     4  11  23  36  53  79 109 143 179 219 270 322
#     4   7  10  20  42  71  98 124 161 210 258 302
#     4   9  18  33  54  79 106 139 180 225 271 320
#     4  10  20  34  53  78 109 144 181 222 269 321
#
# _framework density 17.755638000000001
#
# number of rings (size 3 to 8) (size 9 to 14) (size 15 to 20)
#    0.000    2.333    1.667    3.500    0.000    4.333 
#    0.000    0.833    0.000    4.000    0.000    5.833 
#    0.000    0.000    0.000    0.000    0.000    0.000 
#
# Total GULP energy -267688.651541 kJ/mol
# GULP energy per Si atom -5576.846907 kJ/mol
# Density = 1.771523 g / cm^3
# Si number density = 17.755638 Si / 1000 Ang^3
#
#
#
# Elastic Constant Matrix: (Units=GPa)
#
#
# Indices 1 2 3 4 5 6 
#
# 1 31.4996 23.4004 24.2268 0.0000 0.0000 0.0000
# 2 23.4004 35.4176 37.6283 0.0000 0.0000 0.0000
# 3 24.2268 37.6283 106.1172 0.0000 0.0000 0.0000
# 4 0.0000 0.0000 0.0000 24.2625 0.0000 0.0000
# 5 0.0000 0.0000 0.0000 0.0000 25.2308 0.0000
# 6 0.0000 0.0000 0.0000 0.0000 0.0000 19.7974
#
#
#
# Elastic Compliance Matrix: (Units=1/GPa)
#
#
# Indices 1 2 3 4 5 6 
#
# 1 0.062372 -0.041844 0.000598 0.000000 0.000000 0.000000
# 2 -0.041844 0.073373 -0.016464 0.000000 0.000000 0.000000
# 3 0.000598 -0.016464 0.015125 0.000000 0.000000 0.000000
# 4 0.000000 0.000000 0.000000 0.041216 0.000000 0.000000
# 5 0.000000 0.000000 0.000000 0.000000 0.039634 0.000000
# 6 0.000000 0.000000 0.000000 0.000000 0.000000 0.050512
#
#
# Mechanical properties :
#
#
# Convention : Reuss Voigt Hill
#
# Bulk Modulus (GPa) = 28.20980 38.17172 33.19076
# Shear Modulus (GPa) = 12.21093 19.71006 15.96049
#
# Velocity S-wave (km/s) = 2.62529 3.33539 3.00141
# Velocity P-wave (km/s) = 5.01117 6.03143 5.54482
#
# Compressibility (1/GPa) = 0.03544867
#
# Stress axis : x y z
#
# Youngs Moduli (GPa) = 16.03287 13.62899 66.11525
#
# Poissons Ratio (x) = 0.57030 -0.03954
# Poissons Ratio (y) = 0.67089 1.08854
# Poissons Ratio (z) = -0.00959 0.22439
#
# Static dielectric constant tensor:
#      x y z
#    x 1.588780 0.000000 0.000000 
#    y 0.000000 1.598950 0.000000 
#    z 0.000000 0.000000 1.638740 
# 
# From -- ./inp_files/14828.got.cif
#   From: 2010.05.17/outbox.cif.g08.bks.cpg/sg71_8_cif.got.tgz:14828.got - 2010.06.03 16:22:01.
