data_PCOD9521864
_publ_section_title
;
Structure prediction by ZEFSAII (Michael W. Deem and Ramdas Pophale) SiO2 
 PCOD9521864
Probable space group: I M M M
;
_chemical_formula_sum "Si O2"
_cell_formula_units_Z 84
_cell_length_a 13.884637
_cell_length_b 15.362020
_cell_length_c 20.930101
_cell_angle_alpha 90.000000
_cell_angle_beta 90.000000
_cell_angle_gamma 90.000000
_cell_volume 4464.308315
_symmetry_space_group_name_H-M "I M M M"
_symmetry_group_IT_number 71
_symmetry_cell_setting 'orthorhombic'
loop_
_space_group_symop_operation_xyz
x,y,z
-x,-y,z
x,-y,-z
-x,y,-z
-x,-y,-z
x,y,-z
-x,y,z
x,-y,z
1/2+x,1/2+y,1/2+z
1/2-x,1/2-y,1/2+z
1/2+x,1/2-y,1/2-z
1/2-x,1/2+y,1/2-z
1/2-x,1/2-y,1/2-z
1/2+x,1/2+y,1/2-z
1/2-x,1/2+y,1/2+z
1/2+x,1/2-y,1/2+z
loop_
_atom_site_type_symbol
_atom_site_label
_atom_site_fract_x
_atom_site_fract_y
_atom_site_fract_z
Si Si1 0.385226 0.266421 0.813465
Si Si2 0.616112 0.674067 0.430234
Si Si3 0.113579 0.599969 0.765243
Si Si4 0.241213 0.500000 0.000000
Si Si5 0.776487 0.653068 0.894062
Si Si6 0.616664 0.403921 0.297225
O O1 0.500000 0.272420 0.825313
O O2 0.361394 0.169253 0.789709
O O3 0.322598 0.301031 0.871928
O O4 0.360568 0.329230 0.753439
O O5 0.644680 0.639245 0.500000
O O6 0.500000 0.676412 0.428182
O O7 0.656007 0.771240 0.422208
O O8 0.649099 0.620061 0.368501
O O9 0.124967 0.500000 0.745603
O O10 0.172380 0.618553 0.829564
O O11 0.000000 0.614847 0.779869
O O12 0.238913 0.423648 0.944032
O O13 0.500000 0.406413 0.298935
O O14 0.650200 0.500000 0.277418
#
# Coordination Sequence:
#
# PCOD9521864 Si02
#       6
#    16  16  16   4  16  16
#     4  10  22  39  60  84 115 157 200 252 303 343
#     4  10  20  35  55  78 113 153 187 230 294 361
#     4  10  20  36  61  93 122 149 190 244 305 368
#     4  12  28  40  58  88 122 158 218 238 292 376
#     4  12  22  40  55  82 119 158 196 247 290 360
#     4   9  18  32  52  81 111 145 193 236 281 349
#
# _framework density 18.815904
#
# number of rings (size 3 to 8) (size 9 to 14) (size 15 to 20)
#    0.000    1.714    3.810    1.143    1.333    0.381 
#    0.000    4.762    0.000    0.000    0.000    0.000 
#    0.000    3.048    0.000    0.000    0.000    0.000 
#
# Total GULP energy -233996.349226 kJ/mol
# GULP energy per Si atom -5571.341648 kJ/mol
# Density = 1.877308 g / cm^3
# Si number density = 18.815904 Si / 1000 Ang^3
#
#
#
# Elastic Constant Matrix: (Units=GPa)
#
#
# Indices 1 2 3 4 5 6 
#
# 1 67.6951 11.2564 18.6846 0.0000 0.0000 0.0000
# 2 11.2564 100.5131 19.9509 0.0000 0.0000 0.0000
# 3 18.6846 19.9509 56.9954 0.0000 0.0000 0.0000
# 4 0.0000 0.0000 0.0000 32.6996 0.0000 0.0000
# 5 0.0000 0.0000 0.0000 0.0000 15.1562 0.0000
# 6 0.0000 0.0000 0.0000 0.0000 0.0000 -5.9612
#
#
#
# Elastic Compliance Matrix: (Units=1/GPa)
#
#
# Indices 1 2 3 4 5 6 
#
# 1 0.016305 -0.000822 -0.005057 0.000000 0.000000 0.000000
# 2 -0.000822 0.010733 -0.003488 0.000000 0.000000 0.000000
# 3 -0.005057 -0.003488 0.020424 0.000000 0.000000 0.000000
# 4 0.000000 0.000000 0.000000 0.030581 0.000000 0.000000
# 5 0.000000 0.000000 0.000000 0.000000 0.065980 0.000000
# 6 0.000000 0.000000 0.000000 0.000000 0.000000 -0.167752
#
#
# Mechanical properties :
#
#
# Convention : Reuss Voigt Hill
#
# Bulk Modulus (GPa) = 34.80941 36.10972 35.45957
# Shear Modulus (GPa) = 1091.39127 20.06636 555.72881
#
# Velocity S-wave (km/s) = 24.11008 3.26921 17.20441
# Velocity P-wave (km/s) = 28.17093 5.78645 20.33573
#
# Compressibility (1/GPa) = 0.02872787
#
# Stress axis : x y z
#
# Youngs Moduli (GPa) = 61.33200 93.16821 48.96189
#
# Poissons Ratio (x) = 0.07659 0.24762
# Poissons Ratio (y) = 0.05042 0.17076
# Poissons Ratio (z) = 0.31018 0.32493
#
# Static dielectric constant tensor:
#      x y z
#    x 1.684430 0.000000 0.000000 
#    y 0.000000 1.650760 0.000000 
#    z 0.000000 0.000000 1.639700 
# 
# From -- ./inp_files/34378.got.cif
#   From: 2010.05.17/outbox.cif.g08.bks.cpg/sg71_18_cif.got.tgz:34378.got - 2010.06.03 16:22:01.
