data_PCOD9521605
_publ_section_title
;
Structure prediction by ZEFSAII (Michael W. Deem and Ramdas Pophale) SiO2 
 PCOD9521605
Probable space group: I M M M
;
_chemical_formula_sum "Si O2"
_cell_formula_units_Z 92
_cell_length_a 22.529489
_cell_length_b 9.824836
_cell_length_c 24.629304
_cell_angle_alpha 90.000000
_cell_angle_beta 90.000000
_cell_angle_gamma 90.000000
_cell_volume 5451.660348
_symmetry_space_group_name_H-M "I M M M"
_symmetry_group_IT_number 71
_symmetry_cell_setting 'orthorhombic'
loop_
_space_group_symop_operation_xyz
x,y,z
-x,-y,z
x,-y,-z
-x,y,-z
-x,-y,-z
x,y,-z
-x,y,z
x,-y,z
1/2+x,1/2+y,1/2+z
1/2-x,1/2-y,1/2+z
1/2+x,1/2-y,1/2-z
1/2-x,1/2+y,1/2-z
1/2-x,1/2-y,1/2-z
1/2+x,1/2+y,1/2-z
1/2-x,1/2+y,1/2+z
1/2+x,1/2-y,1/2+z
loop_
_atom_site_type_symbol
_atom_site_label
_atom_site_fract_x
_atom_site_fract_y
_atom_site_fract_z
Si Si1 0.277717 0.344193 0.063074
Si Si2 0.500000 0.500000 0.113259
Si Si3 0.930354 0.160299 0.155328
Si Si4 0.835754 0.161571 0.937448
Si Si5 0.604200 0.727169 0.124997
Si Si6 0.928854 0.500000 0.438359
Si Si7 0.428682 0.160469 0.761300
O O1 0.256767 0.500000 0.066213
O O2 0.223732 0.243827 0.075890
O O3 0.333286 0.325312 0.102500
O O4 0.296245 0.319365 0.000000
O O5 0.552288 0.618686 0.114159
O O6 0.888300 0.191598 0.104551
O O7 0.916662 0.257629 0.206063
O O8 0.000000 0.177803 0.141703
O O9 0.922310 0.000000 0.170019
O O10 0.823902 0.000000 0.934540
O O11 0.852057 0.193707 0.000000
O O12 0.603075 0.766865 0.188358
O O13 0.591056 0.865830 0.092730
O O14 0.906214 0.500000 0.500000
O O15 0.000000 0.500000 0.439511
O O16 0.500000 0.169721 0.771464
O O17 0.414012 0.000000 0.757785
#
# Coordination Sequence:
#
# PCOD9521605 Si02
#       7
#    16   4  16  16  16   8  16
#     4  10  22  38  55  78 109 148 191 233 282 336
#     4  12  24  34  59  80 114 148 199 242 284 338
#     4   9  19  34  58  89 116 143 179 226 281 337
#     4   9  19  37  59  84 114 148 184 224 275 340
#     4  12  22  38  54  81 109 152 191 235 288 334
#     4  11  22  36  52  74 107 143 187 237 286 330
#     4  10  20  34  55  79 112 146 185 232 278 338
#
# _framework density 16.875592999999999
#
# number of rings (size 3 to 8) (size 9 to 14) (size 15 to 20)
#    0.000    1.826    3.478    0.522    2.435    1.043 
#    0.000    4.348    0.000    0.000    0.000    4.870 
#    0.000    0.000    0.000    0.000    0.000    0.000 
#
# Total GULP energy -256102.289536 kJ/mol
# GULP energy per Si atom -5567.441077 kJ/mol
# Density = 1.683718 g / cm^3
# Si number density = 16.875593 Si / 1000 Ang^3
#
#
#
# Elastic Constant Matrix: (Units=GPa)
#
#
# Indices 1 2 3 4 5 6 
#
# 1 92.2851 52.3077 78.5719 0.0000 0.0000 0.0000
# 2 52.3077 97.8967 58.2030 0.0000 0.0000 0.0000
# 3 78.5719 58.2030 110.7694 0.0000 0.0000 0.0000
# 4 0.0000 0.0000 0.0000 19.8257 0.0000 0.0000
# 5 0.0000 0.0000 0.0000 0.0000 2.4277 0.0000
# 6 0.0000 0.0000 0.0000 0.0000 0.0000 21.5811
#
#
#
# Elastic Compliance Matrix: (Units=1/GPa)
#
#
# Indices 1 2 3 4 5 6 
#
# 1 0.028780 -0.004713 -0.017938 0.000000 0.000000 0.000000
# 2 -0.004713 0.015627 -0.004869 0.000000 0.000000 0.000000
# 3 -0.017938 -0.004869 0.024310 0.000000 0.000000 0.000000
# 4 0.000000 0.000000 0.000000 0.050440 0.000000 0.000000
# 5 0.000000 0.000000 0.000000 0.000000 0.411919 0.000000
# 6 0.000000 0.000000 0.000000 0.000000 0.000000 0.046337
#
#
# Mechanical properties :
#
#
# Convention : Reuss Voigt Hill
#
# Bulk Modulus (GPa) = 73.10701 75.45739 74.28220
# Shear Modulus (GPa) = 7.84917 16.22478 12.03698
#
# Velocity S-wave (km/s) = 2.15900 3.10407 2.67362
# Velocity P-wave (km/s) = 7.04487 7.59328 7.32421
#
# Compressibility (1/GPa) = 0.01367858
#
# Stress axis : x y z
#
# Youngs Moduli (GPa) = 34.74680 63.99035 41.13563
#
# Poissons Ratio (x) = 0.30156 0.73789
# Poissons Ratio (y) = 0.16375 0.20027
# Poissons Ratio (z) = 0.62329 0.31154
#
# Static dielectric constant tensor:
#      x y z
#    x 1.539780 0.000000 0.000000 
#    y 0.000000 1.567480 0.000000 
#    z 0.000000 0.000000 1.569840 
# 
# From -- ./inp_files/61569.got.cif
#   From: 2010.05.17/outbox.cif.g08.bks.cpg/sg71_31_cif.got.tgz:61569.got - 2010.06.03 16:22:01.
