data_PCOD9521636
_publ_section_title
;
Structure prediction by ZEFSAII (Michael W. Deem and Ramdas Pophale) SiO2 
 PCOD9521636
Probable space group: I M M M
;
_chemical_formula_sum "Si O2"
_cell_formula_units_Z 96
_cell_length_a 8.973493
_cell_length_b 29.394449
_cell_length_c 20.137026
_cell_angle_alpha 90.000000
_cell_angle_beta 90.000000
_cell_angle_gamma 90.000000
_cell_volume 5311.561116
_symmetry_space_group_name_H-M "I M M M"
_symmetry_group_IT_number 71
_symmetry_cell_setting 'orthorhombic'
loop_
_space_group_symop_operation_xyz
x,y,z
-x,-y,z
x,-y,-z
-x,y,-z
-x,-y,-z
x,y,-z
-x,y,z
x,-y,z
1/2+x,1/2+y,1/2+z
1/2-x,1/2-y,1/2+z
1/2+x,1/2-y,1/2-z
1/2-x,1/2+y,1/2-z
1/2-x,1/2-y,1/2-z
1/2+x,1/2+y,1/2-z
1/2-x,1/2+y,1/2+z
1/2+x,1/2-y,1/2+z
loop_
_atom_site_type_symbol
_atom_site_label
_atom_site_fract_x
_atom_site_fract_y
_atom_site_fract_z
Si Si1 0.821573 0.761805 0.425685
Si Si2 0.826605 0.555372 0.073651
Si Si3 0.676546 0.662381 0.576598
Si Si4 0.829067 0.054701 0.291840
Si Si5 0.823457 0.376911 0.297767
Si Si6 0.320906 0.294747 0.783668
O O1 0.783608 0.778878 0.500000
O O2 0.740590 0.713465 0.415911
O O3 0.786372 0.792919 0.362445
O O4 0.000000 0.753757 0.424061
O O5 0.822271 0.500000 0.073102
O O6 0.728768 0.570329 0.135773
O O7 0.000000 0.568121 0.083036
O O8 0.777870 0.570514 0.000000
O O9 0.701120 0.649006 0.500000
O O10 0.500000 0.662917 0.589638
O O11 0.758520 0.630568 0.628982
O O12 0.726782 0.076195 0.235514
O O13 0.000000 0.068997 0.282191
O O14 0.822546 0.000000 0.290503
O O15 0.749261 0.337919 0.252252
O O16 0.000000 0.371711 0.298060
O O17 0.500000 0.294210 0.775312
O O18 0.250000 0.250000 0.750000
#
# Coordination Sequence:
#
# PCOD9521636 Si02
#       6
#    16  16  16  16  16  16
#     4   9  18  33  53  77 107 145 185 224 271 325
#     4   8  14  27  49  76 105 137 174 217 266 322
#     4  10  20  34  55  82 110 140 178 226 274 325
#     4  10  21  37  57  81 109 142 184 236 287 333
#     4  12  24  37  56  81 111 149 187 227 274 329
#     4  11  21  34  54  80 112 146 182 227 273 323
#
# _framework density 18.073782999999999
#
# number of rings (size 3 to 8) (size 9 to 14) (size 15 to 20)
#    0.000    2.000    1.667    3.500    0.000    3.000 
#    0.000    2.500    0.000    3.500    0.000    3.500 
#    0.000    0.000    0.000    0.000    0.000    0.000 
#
# Total GULP energy -267923.505263 kJ/mol
# GULP energy per Si atom -5581.739693 kJ/mol
# Density = 1.803265 g / cm^3
# Si number density = 18.073783 Si / 1000 Ang^3
#
#
#
# Elastic Constant Matrix: (Units=GPa)
#
#
# Indices 1 2 3 4 5 6 
#
# 1 85.1723 18.2495 64.2396 0.0000 0.0000 0.0000
# 2 18.2495 20.0881 21.2468 0.0000 0.0000 0.0000
# 3 64.2396 21.2468 124.4171 0.0000 0.0000 0.0000
# 4 0.0000 0.0000 0.0000 23.5685 0.0000 0.0000
# 5 0.0000 0.0000 0.0000 0.0000 31.8638 0.0000
# 6 0.0000 0.0000 0.0000 0.0000 0.0000 23.9024
#
#
#
# Elastic Compliance Matrix: (Units=1/GPa)
#
#
# Indices 1 2 3 4 5 6 
#
# 1 0.020498 -0.009065 -0.009036 0.000000 0.000000 0.000000
# 2 -0.009065 0.064763 -0.006379 0.000000 0.000000 0.000000
# 3 -0.009036 -0.006379 0.013792 0.000000 0.000000 0.000000
# 4 0.000000 0.000000 0.000000 0.042430 0.000000 0.000000
# 5 0.000000 0.000000 0.000000 0.000000 0.031384 0.000000
# 6 0.000000 0.000000 0.000000 0.000000 0.000000 0.041837
#
#
# Mechanical properties :
#
#
# Convention : Reuss Voigt Hill
#
# Bulk Modulus (GPa) = 19.96259 48.57214 34.26736
# Shear Modulus (GPa) = 17.83414 24.26306 21.04860
#
# Velocity S-wave (km/s) = 3.14465 3.66791 3.41632
# Velocity P-wave (km/s) = 4.92485 6.69857 5.87899
#
# Compressibility (1/GPa) = 0.05009371
#
# Stress axis : x y z
#
# Youngs Moduli (GPa) = 48.78475 15.44087 72.50489
#
# Poissons Ratio (x) = 0.13997 0.65513
# Poissons Ratio (y) = 0.44224 0.46252
# Poissons Ratio (z) = 0.44080 0.09850
#
# Static dielectric constant tensor:
#      x y z
#    x 1.605110 0.000000 0.000000 
#    y 0.000000 1.614950 0.000000 
#    z 0.000000 0.000000 1.642690 
# 
# From -- ./inp_files/50801.got.cif
#   From: 2010.05.17/outbox.cif.g08.bks.cpg/sg71_26_cif.got.tgz:50801.got - 2010.06.03 16:22:01.
