data_PCOD9521016
_publ_section_title
;
Structure prediction by ZEFSAII (Michael W. Deem and Ramdas Pophale) SiO2 
 PCOD9521016
Probable space group: I M M M
;
_chemical_formula_sum "Si O2"
_cell_formula_units_Z 120
_cell_length_a 27.847432
_cell_length_b 28.424580
_cell_length_c 8.605383
_cell_angle_alpha 90.000000
_cell_angle_beta 90.000000
_cell_angle_gamma 90.000000
_cell_volume 6811.604327
_symmetry_space_group_name_H-M "I M M M"
_symmetry_group_IT_number 71
_symmetry_cell_setting 'orthorhombic'
loop_
_space_group_symop_operation_xyz
x,y,z
-x,-y,z
x,-y,-z
-x,y,-z
-x,-y,-z
x,y,-z
-x,y,z
x,-y,z
1/2+x,1/2+y,1/2+z
1/2-x,1/2-y,1/2+z
1/2+x,1/2-y,1/2-z
1/2-x,1/2+y,1/2-z
1/2-x,1/2-y,1/2-z
1/2+x,1/2+y,1/2-z
1/2-x,1/2+y,1/2+z
1/2+x,1/2-y,1/2+z
loop_
_atom_site_type_symbol
_atom_site_label
_atom_site_fract_x
_atom_site_fract_y
_atom_site_fract_z
Si Si1 0.290112 0.553435 0.310494
Si Si2 0.407852 0.886554 0.685914
Si Si3 0.054365 0.812814 0.687543
Si Si4 0.352596 0.640862 0.312654
Si Si5 0.820092 0.445546 0.687377
Si Si6 0.500000 0.053826 0.689654
Si Si7 0.802259 0.238429 0.813840
Si Si8 0.604024 0.784324 0.813992
O O1 0.290595 0.553564 0.500000
O O2 0.301271 0.500000 0.260961
O O3 0.327226 0.593086 0.257660
O O4 0.235029 0.564493 0.265444
O O5 0.408042 0.885243 0.500000
O O6 0.358593 0.910331 0.742295
O O7 0.452347 0.918689 0.739519
O O8 0.412928 0.833919 0.748831
O O9 0.055124 0.814007 0.500000
O O10 0.094485 0.848550 0.749071
O O11 0.071522 0.760302 0.735238
O O12 0.000000 0.821984 0.740012
O O13 0.355005 0.639722 0.500000
O O14 0.319723 0.685858 0.269325
O O15 0.822226 0.442540 0.500000
O O16 0.830697 0.500000 0.730579
O O17 0.500000 0.053297 0.500000
O O18 0.500000 0.000000 0.742922
O O19 0.750000 0.250000 0.750000
O O20 0.842483 0.273203 0.746157
O O21 0.802265 0.241493 0.000000
O O22 0.604257 0.786003 0.000000
#
# Coordination Sequence:
#
# PCOD9521016 Si02
#       8
#    16  16  16  16  16   8  16  16
#     4   8  15  30  53  79 107 138 170 206 252 304
#     4  11  22  35  53  77 101 133 175 222 272 323
#     4   9  19  36  56  76 101 135 171 212 264 316
#     4   9  18  32  52  79 105 135 174 212 254 306
#     4   9  18  33  53  76 102 136 175 214 260 313
#     4   9  20  38  55  71  99 139 175 215 276 335
#     4  10  20  33  50  76 109 141 175 212 256 312
#     4  10  21  36  53  74 102 136 173 217 266 314
#
# _framework density 17.616994999999999
#
# number of rings (size 3 to 8) (size 9 to 14) (size 15 to 20)
#    0.000    2.600    0.000    2.400    2.800    2.133 
#    0.000    1.667    0.000    4.000    0.000    2.800 
#    0.000    0.000    0.000    0.000    0.000    0.000 
#
# Total GULP energy -334749.011345 kJ/mol
# GULP energy per Si atom -5579.150189 kJ/mol
# Density = 1.757690 g / cm^3
# Si number density = 17.616995 Si / 1000 Ang^3
#
#
#
# Elastic Constant Matrix: (Units=GPa)
#
#
# Indices 1 2 3 4 5 6 
#
# 1 145.4659 84.2654 21.1556 0.0000 0.0000 0.0000
# 2 84.2654 126.5713 21.3966 0.0000 0.0000 0.0000
# 3 21.1556 21.3966 17.6735 0.0000 0.0000 0.0000
# 4 0.0000 0.0000 0.0000 18.1213 0.0000 0.0000
# 5 0.0000 0.0000 0.0000 0.0000 24.4235 0.0000
# 6 0.0000 0.0000 0.0000 0.0000 0.0000 20.3524
#
#
#
# Elastic Compliance Matrix: (Units=1/GPa)
#
#
# Indices 1 2 3 4 5 6 
#
# 1 0.011632 -0.006777 -0.005719 0.000000 0.000000 0.000000
# 2 -0.006777 0.013883 -0.008694 0.000000 0.000000 0.000000
# 3 -0.005719 -0.008694 0.073953 0.000000 0.000000 0.000000
# 4 0.000000 0.000000 0.000000 0.055184 0.000000 0.000000
# 5 0.000000 0.000000 0.000000 0.000000 0.040944 0.000000
# 6 0.000000 0.000000 0.000000 0.000000 0.000000 0.049134
#
#
# Mechanical properties :
#
#
# Convention : Reuss Voigt Hill
#
# Bulk Modulus (GPa) = 17.51716 60.37175 38.94446
# Shear Modulus (GPa) = 16.33240 23.43900 19.88570
#
# Velocity S-wave (km/s) = 3.04811 3.65153 3.36338
# Velocity P-wave (km/s) = 4.72788 7.21953 6.10223
#
# Compressibility (1/GPa) = 0.05708689
#
# Stress axis : x y z
#
# Youngs Moduli (GPa) = 85.96825 72.03299 13.52206
#
# Poissons Ratio (x) = 0.48820 0.07733
# Poissons Ratio (y) = 0.58264 0.11756
# Poissons Ratio (z) = 0.49164 0.62627
#
# Static dielectric constant tensor:
#      x y z
#    x 1.582940 0.000000 0.000000 
#    y 0.000000 1.593690 0.000000 
#    z 0.000000 0.000000 1.599890 
# 
# From -- ./inp_files/15603.got.cif
#   From: 2010.05.17/outbox.cif.g08.bks.cpg/sg71_8_cif.got.tgz:15603.got - 2010.06.03 16:22:01.
