data_PCOD9521274
_publ_section_title
;
Structure prediction by ZEFSAII (Michael W. Deem and Ramdas Pophale) SiO2 
 PCOD9521274
Probable space group: I M M M
;
_chemical_formula_sum "Si O2"
_cell_formula_units_Z 88
_cell_length_a 7.871037
_cell_length_b 29.392754
_cell_length_c 22.730370
_cell_angle_alpha 90.000000
_cell_angle_beta 90.000000
_cell_angle_gamma 90.000000
_cell_volume 5258.704156
_symmetry_space_group_name_H-M "I M M M"
_symmetry_group_IT_number 71
_symmetry_cell_setting 'orthorhombic'
loop_
_space_group_symop_operation_xyz
x,y,z
-x,-y,z
x,-y,-z
-x,y,-z
-x,-y,-z
x,y,-z
-x,y,z
x,-y,z
1/2+x,1/2+y,1/2+z
1/2-x,1/2-y,1/2+z
1/2+x,1/2-y,1/2-z
1/2-x,1/2+y,1/2-z
1/2-x,1/2-y,1/2-z
1/2+x,1/2+y,1/2-z
1/2-x,1/2+y,1/2+z
1/2+x,1/2-y,1/2+z
loop_
_atom_site_type_symbol
_atom_site_label
_atom_site_fract_x
_atom_site_fract_y
_atom_site_fract_z
Si Si1 0.000000 0.447195 0.755538
Si Si2 0.000000 0.294145 0.928274
Si Si3 0.800660 0.052555 0.837687
Si Si4 0.295255 0.628846 0.432521
Si Si5 0.000000 0.607100 0.126597
Si Si6 0.312515 0.770896 0.071265
Si Si7 0.806784 0.947342 0.570800
O O1 0.168120 0.442010 0.715395
O O2 0.000000 0.500000 0.778089
O O3 0.000000 0.409653 0.806282
O O4 0.000000 0.340358 0.891512
O O5 0.835591 0.263858 0.912982
O O6 0.000000 0.302657 0.000000
O O7 0.754366 0.087511 0.889397
O O8 0.000000 0.060112 0.821385
O O9 0.787204 0.000000 0.857735
O O10 0.238106 0.621108 0.500000
O O11 0.500000 0.633241 0.433966
O O12 0.224070 0.677159 0.410658
O O13 0.833297 0.584607 0.098047
O O14 0.500000 0.756631 0.090858
O O15 0.310873 0.772251 0.000000
O O16 0.797591 0.944887 0.500000
O O17 0.000000 0.935774 0.588136
O O18 0.775238 0.000000 0.587314
#
# Coordination Sequence:
#
# PCOD9521274 Si02
#       7
#     8   8  16  16   8  16  16
#     4  10  22  38  53  73 102 138 185 224 251 303
#     4  10  20  34  50  75 108 133 164 218 270 314
#     4   9  19  35  53  76 107 141 171 209 262 307
#     4   9  16  29  53  83 109 135 170 207 251 318
#     4  12  22  33  54  75  98 137 187 224 261 299
#     4   9  17  30  49  74 104 137 168 199 251 318
#     4   9  18  32  50  76 107 132 159 204 267 333
#
# _framework density 16.734159999999999
#
# number of rings (size 3 to 8) (size 9 to 14) (size 15 to 20)
#    0.000    2.545    0.909    2.182    1.273    2.545 
#    0.000    5.455    0.000    2.727    0.000    0.000 
#    0.000    0.000    0.000    0.000    0.000    0.000 
#
# Total GULP energy -245258.051627 kJ/mol
# GULP energy per Si atom -5574.046628 kJ/mol
# Density = 1.669607 g / cm^3
# Si number density = 16.734160 Si / 1000 Ang^3
#
#
#
# Elastic Constant Matrix: (Units=GPa)
#
#
# Indices 1 2 3 4 5 6 
#
# 1 112.6239 89.2973 44.0328 0.0000 0.0000 0.0000
# 2 89.2973 142.4679 62.3329 0.0000 0.0000 0.0000
# 3 44.0328 62.3329 51.5458 0.0000 0.0000 0.0000
# 4 0.0000 0.0000 0.0000 30.7547 0.0000 0.0000
# 5 0.0000 0.0000 0.0000 0.0000 25.3611 0.0000
# 6 0.0000 0.0000 0.0000 0.0000 0.0000 13.3822
#
#
#
# Elastic Compliance Matrix: (Units=1/GPa)
#
#
# Indices 1 2 3 4 5 6 
#
# 1 0.017973 -0.009658 -0.003675 0.000000 0.000000 0.000000
# 2 -0.009658 0.020095 -0.016050 0.000000 0.000000 0.000000
# 3 -0.003675 -0.016050 0.041948 0.000000 0.000000 0.000000
# 4 0.000000 0.000000 0.000000 0.032515 0.000000 0.000000
# 5 0.000000 0.000000 0.000000 0.000000 0.039430 0.000000
# 6 0.000000 0.000000 0.000000 0.000000 0.000000 0.074726
#
#
# Mechanical properties :
#
#
# Convention : Reuss Voigt Hill
#
# Bulk Modulus (GPa) = 47.05606 77.55150 62.30378
# Shear Modulus (GPa) = 17.09190 21.29791 19.19490
#
# Velocity S-wave (km/s) = 3.19937 3.57139 3.39049
# Velocity P-wave (km/s) = 6.46751 7.96557 7.25531
#
# Compressibility (1/GPa) = 0.02125125
#
# Stress axis : x y z
#
# Youngs Moduli (GPa) = 55.63853 49.76479 23.83895
#
# Poissons Ratio (x) = 0.48060 0.08761
# Poissons Ratio (y) = 0.53733 0.38261
# Poissons Ratio (z) = 0.20447 0.79872
#
# Static dielectric constant tensor:
#      x y z
#    x 1.585610 0.000000 0.000000 
#    y 0.000000 1.551710 0.000000 
#    z 0.000000 0.000000 1.542640 
# 
# From -- ./inp_files/50578.got.cif
#   From: 2010.05.17/outbox.cif.g08.bks.cpg/sg71_26_cif.got.tgz:50578.got - 2010.06.03 16:22:01.
