data_PCOD9521723
_publ_section_title
;
Structure prediction by ZEFSAII (Michael W. Deem and Ramdas Pophale) SiO2 
 PCOD9521723
Probable space group: I M M M
;
_chemical_formula_sum "Si O2"
_cell_formula_units_Z 64
_cell_length_a 7.381021
_cell_length_b 24.524133
_cell_length_c 17.285388
_cell_angle_alpha 90.000000
_cell_angle_beta 90.000000
_cell_angle_gamma 90.000000
_cell_volume 3128.882370
_symmetry_space_group_name_H-M "I M M M"
_symmetry_group_IT_number 71
_symmetry_cell_setting 'orthorhombic'
loop_
_space_group_symop_operation_xyz
x,y,z
-x,-y,z
x,-y,-z
-x,y,-z
-x,-y,-z
x,y,-z
-x,y,z
x,-y,z
1/2+x,1/2+y,1/2+z
1/2-x,1/2-y,1/2+z
1/2+x,1/2-y,1/2-z
1/2-x,1/2+y,1/2-z
1/2-x,1/2-y,1/2-z
1/2+x,1/2+y,1/2-z
1/2-x,1/2+y,1/2+z
1/2+x,1/2-y,1/2+z
loop_
_atom_site_type_symbol
_atom_site_label
_atom_site_fract_x
_atom_site_fract_y
_atom_site_fract_z
Si Si1 0.281944 0.243311 0.912140
Si Si2 0.280198 0.863903 0.819194
Si Si3 0.722151 0.063219 0.500000
Si Si4 0.500000 0.435347 0.408695
Si Si5 0.210834 0.634736 0.857029
O O1 0.500000 0.243948 0.913327
O O2 0.228664 0.195244 0.854006
O O3 0.223060 0.302964 0.885274
O O4 0.219282 0.232661 0.000000
O O5 0.500000 0.868813 0.823995
O O6 0.218914 0.868962 0.730183
O O7 0.175984 0.908267 0.869769
O O8 0.500000 0.065445 0.500000
O O9 0.786051 0.095445 0.423621
O O10 0.773780 0.000000 0.500000
O O11 0.500000 0.500000 0.396896
O O12 0.500000 0.423908 0.500000
O O13 0.000000 0.620182 0.850561
#
# Coordination Sequence:
#
# PCOD9521723 Si02
#       5
#    16  16   8   8  16
#     4  10  20  34  56  86 124 164 202 257 322 374
#     4  10  23  41  63  93 127 163 209 257 316 376
#     4   9  18  34  55  83 121 163 211 258 303 369
#     4  11  26  46  68  95 123 159 207 260 316 373
#     4  10  20  35  58  88 120 164 210 256 314 363
#
# _framework density 20.454588999999999
#
# number of rings (size 3 to 8) (size 9 to 14) (size 15 to 20)
#    0.000    2.000    1.250    1.500    3.500    3.000 
#    0.000    3.750    0.000    0.750    0.000    0.000 
#    0.000    0.000    0.000    0.000    0.000    0.000 
#
# Total GULP energy -178787.289952 kJ/mol
# GULP energy per Si atom -5587.102811 kJ/mol
# Density = 2.040803 g / cm^3
# Si number density = 20.454589 Si / 1000 Ang^3
#
#
#
# Elastic Constant Matrix: (Units=GPa)
#
#
# Indices 1 2 3 4 5 6 
#
# 1 75.8287 22.2418 29.0878 0.0000 0.0000 0.0000
# 2 22.2418 154.3792 124.2105 0.0000 0.0000 0.0000
# 3 29.0878 124.2105 212.4503 0.0000 0.0000 0.0000
# 4 0.0000 0.0000 0.0000 -75.5175 0.0000 -0.0001
# 5 0.0000 0.0000 0.0000 0.0000 85.6985 0.0000
# 6 0.0000 0.0000 0.0000 -0.0001 0.0000 -37.8734
#
#
#
# Elastic Compliance Matrix: (Units=1/GPa)
#
#
# Indices 1 2 3 4 5 6 
#
# 1 0.013984 -0.000895 -0.001391 0.000000 0.000000 0.000000
# 2 -0.000895 0.012288 -0.007062 0.000000 0.000000 0.000000
# 3 -0.001391 -0.007062 0.009026 0.000000 0.000000 0.000000
# 4 0.000000 0.000000 0.000000 -0.013242 0.000000 0.000000
# 5 0.000000 0.000000 0.000000 0.000000 0.011669 0.000000
# 6 0.000000 0.000000 0.000000 0.000000 0.000000 -0.026404
#
#
# Mechanical properties :
#
#
# Convention : Reuss Voigt Hill
#
# Bulk Modulus (GPa) = 60.23495 88.19317 74.21406
# Shear Modulus (GPa) = 158.46568 12.26938 85.36753
#
# Velocity S-wave (km/s) = 8.81136 2.45181 6.46728
# Velocity P-wave (km/s) = 11.53396 7.15719 9.59837
#
# Compressibility (1/GPa) = 0.01660166
#
# Stress axis : x y z
#
# Youngs Moduli (GPa) = 71.51086 81.37710 110.78795
#
# Poissons Ratio (x) = 0.07287 0.15411
# Poissons Ratio (y) = 0.06404 0.78238
# Poissons Ratio (z) = 0.09948 0.57468
#
# Static dielectric constant tensor:
#      x y z
#    x 1.681790 0.000000 0.000000 
#    y 0.000000 1.667320 0.000000 
#    z 0.000000 0.000000 1.722600 
# 
# From -- ./inp_files/7825.got.cif
#   From: 2010.05.17/outbox.cif.g08.bks.cpg/sg71_4_cif.got.tgz:7825.got - 2010.06.03 16:22:01.
