data_PCOD9521167
_publ_section_title
;
Structure prediction by ZEFSAII (Michael W. Deem and Ramdas Pophale) SiO2 
 PCOD9521167
Probable space group: I M M M
;
_chemical_formula_sum "Si O2"
_cell_formula_units_Z 96
_cell_length_a 24.352593
_cell_length_b 21.994959
_cell_length_c 9.265957
_cell_angle_alpha 90.000000
_cell_angle_beta 90.000000
_cell_angle_gamma 90.000000
_cell_volume 4963.164249
_symmetry_space_group_name_H-M "I M M M"
_symmetry_group_IT_number 71
_symmetry_cell_setting 'orthorhombic'
loop_
_space_group_symop_operation_xyz
x,y,z
-x,-y,z
x,-y,-z
-x,y,-z
-x,-y,-z
x,y,-z
-x,y,z
x,-y,z
1/2+x,1/2+y,1/2+z
1/2-x,1/2-y,1/2+z
1/2+x,1/2-y,1/2-z
1/2-x,1/2+y,1/2-z
1/2-x,1/2-y,1/2-z
1/2+x,1/2+y,1/2-z
1/2-x,1/2+y,1/2+z
1/2+x,1/2-y,1/2+z
loop_
_atom_site_type_symbol
_atom_site_label
_atom_site_fract_x
_atom_site_fract_y
_atom_site_fract_z
Si Si1 0.433413 0.932144 0.166407
Si Si2 0.064497 0.308458 0.171662
Si Si3 0.058763 0.072337 0.174775
Si Si4 0.178353 0.927060 0.166118
Si Si5 0.837637 0.736678 0.668460
Si Si6 0.751736 0.656621 0.832165
O O1 0.500000 0.934157 0.165414
O O2 0.419582 0.875175 0.266457
O O3 0.414593 0.000000 0.211346
O O4 0.415941 0.921929 0.000000
O O5 0.104950 0.261085 0.247915
O O6 0.000000 0.298297 0.204599
O O7 0.071242 0.306741 0.000000
O O8 0.118426 0.094884 0.222989
O O9 0.000000 0.098422 0.225365
O O10 0.057458 0.000000 0.206560
O O11 0.059664 0.077440 0.000000
O O12 0.227544 0.903970 0.263440
O O13 0.176417 0.000000 0.162985
O O14 0.185329 0.905712 0.000000
O O15 0.847076 0.724966 0.500000
O O16 0.801881 0.683476 0.741880
O O17 0.798716 0.795428 0.681669
O O18 0.766165 0.651420 0.000000
#
# Coordination Sequence:
#
# PCOD9521167 Si02
#       6
#    16  16  16  16  16  16
#     4   8  14  26  45  69  99 137 176 208 244 299
#     4  10  20  33  52  80 111 139 169 212 263 308
#     4   7  10  19  38  65  96 130 168 205 239 282
#     4   9  17  30  51  79 109 140 173 211 257 310
#     4  10  21  38  59  78  99 134 177 217 258 309
#     4  10  21  37  57  79 102 132 172 218 265 309
#
# _framework density 19.342500000000001
#
# number of rings (size 3 to 8) (size 9 to 14) (size 15 to 20)
#    0.000    3.000    0.000    3.500    0.000    3.667 
#    0.000    3.333    0.000    8.500    0.000    2.333 
#    0.000    0.000    0.000    0.000    0.000    0.000 
#
# Total GULP energy -267409.059631 kJ/mol
# GULP energy per Si atom -5571.022076 kJ/mol
# Density = 1.929848 g / cm^3
# Si number density = 19.342500 Si / 1000 Ang^3
#
#
#
# Elastic Constant Matrix: (Units=GPa)
#
#
# Indices 1 2 3 4 5 6 
#
# 1 66.0033 13.7812 41.6084 0.0000 0.0000 0.0000
# 2 13.7812 12.8323 14.4611 0.0000 0.0000 0.0000
# 3 41.6084 14.4611 69.9675 0.0000 0.0000 0.0000
# 4 0.0000 0.0000 0.0000 17.4529 0.0000 0.0000
# 5 0.0000 0.0000 0.0000 0.0000 22.7303 0.0000
# 6 0.0000 0.0000 0.0000 0.0000 0.0000 21.9953
#
#
#
# Elastic Compliance Matrix: (Units=1/GPa)
#
#
# Indices 1 2 3 4 5 6 
#
# 1 0.025952 -0.013661 -0.012610 0.000000 0.000000 0.000000
# 2 -0.013661 0.108782 -0.014359 0.000000 0.000000 0.000000
# 3 -0.012610 -0.014359 0.024759 0.000000 0.000000 0.000000
# 4 0.000000 0.000000 0.000000 0.057297 0.000000 0.000000
# 5 0.000000 0.000000 0.000000 0.000000 0.043994 0.000000
# 6 0.000000 0.000000 0.000000 0.000000 0.000000 0.045464
#
#
# Mechanical properties :
#
#
# Convention : Reuss Voigt Hill
#
# Bulk Modulus (GPa) = 12.78240 32.05604 22.41922
# Shear Modulus (GPa) = 12.08936 17.69920 14.89428
#
# Velocity S-wave (km/s) = 2.50274 3.02825 2.77795
# Velocity P-wave (km/s) = 3.86968 5.36990 4.68029
#
# Compressibility (1/GPa) = 0.07823260
#
# Stress axis : x y z
#
# Youngs Moduli (GPa) = 38.53206 9.19271 40.38930
#
# Poissons Ratio (x) = 0.12558 0.50930
# Poissons Ratio (y) = 0.52639 0.57996
# Poissons Ratio (z) = 0.48589 0.13200
#
# Static dielectric constant tensor:
#      x y z
#    x 1.727810 0.000000 0.000000 
#    y 0.000000 1.702750 0.000000 
#    z 0.000000 0.000000 1.640970 
# 
# From -- ./inp_files/12844.got.cif
#   From: 2010.05.17/outbox.cif.g08.bks.cpg/sg71_7_cif.got.tgz:12844.got - 2010.06.03 16:22:01.
