data_PCOD9521552
_publ_section_title
;
Structure prediction by ZEFSAII (Michael W. Deem and Ramdas Pophale) SiO2 
 PCOD9521552
Probable space group: I M M M
;
_chemical_formula_sum "Si O2"
_cell_formula_units_Z 88
_cell_length_a 9.529323
_cell_length_b 28.308092
_cell_length_c 16.852969
_cell_angle_alpha 90.000000
_cell_angle_beta 90.000000
_cell_angle_gamma 90.000000
_cell_volume 4546.205553
_symmetry_space_group_name_H-M "I M M M"
_symmetry_group_IT_number 71
_symmetry_cell_setting 'orthorhombic'
loop_
_space_group_symop_operation_xyz
x,y,z
-x,-y,z
x,-y,-z
-x,y,-z
-x,-y,-z
x,y,-z
-x,y,z
x,-y,z
1/2+x,1/2+y,1/2+z
1/2-x,1/2-y,1/2+z
1/2+x,1/2-y,1/2-z
1/2-x,1/2+y,1/2-z
1/2-x,1/2-y,1/2-z
1/2+x,1/2+y,1/2-z
1/2-x,1/2+y,1/2+z
1/2+x,1/2-y,1/2+z
loop_
_atom_site_type_symbol
_atom_site_label
_atom_site_fract_x
_atom_site_fract_y
_atom_site_fract_z
Si Si1 0.162683 0.673529 0.665187
Si Si2 0.661639 0.000000 0.902953
Si Si3 0.340150 0.409674 0.595402
Si Si4 0.337326 0.142450 0.651939
Si Si5 0.837005 0.771461 0.590929
Si Si6 0.165417 0.945603 0.404643
O O1 0.265206 0.638516 0.619419
O O2 0.169852 0.659451 0.756997
O O3 0.200419 0.727810 0.647739
O O4 0.000000 0.667470 0.638488
O O5 0.745453 0.046446 0.876561
O O6 0.500000 0.000000 0.876870
O O7 0.660512 0.000000 0.000000
O O8 0.345203 0.412572 0.500000
O O9 0.500000 0.412619 0.625188
O O10 0.500000 0.138367 0.628994
O O11 0.258680 0.183158 0.603165
O O12 0.258605 0.093106 0.638844
O O13 0.826245 0.754646 0.500000
O O14 0.000000 0.784456 0.605625
O O15 0.183642 0.940341 0.500000
O O16 0.000000 0.938162 0.388031
O O17 0.200007 0.000000 0.384293
#
# Coordination Sequence:
#
# PCOD9521552 Si02
#       6
#    16   8  16  16  16  16
#     4  10  22  39  56  79 113 155 194 228 278 343
#     4   9  17  31  53  77 103 141 184 227 278 335
#     4  10  20  34  54  81 110 141 186 242 291 335
#     4  11  23  37  56  86 120 151 185 232 290 344
#     4  10  21  38  61  84 108 147 197 240 280 339
#     4   9  19  38  63  87 112 148 194 237 279 337
#
# _framework density 19.356801999999998
#
# number of rings (size 3 to 8) (size 9 to 14) (size 15 to 20)
#    0.000    2.091    0.000    3.545    0.000    8.364 
#    1.636    0.909    0.000    0.000    0.000    0.000 
#    0.000    0.000    0.000    0.000    0.000    0.000 
#
# Total GULP energy -245761.184234 kJ/mol
# GULP energy per Si atom -5585.481460 kJ/mol
# Density = 1.931274 g / cm^3
# Si number density = 19.356802 Si / 1000 Ang^3
#
#
#
# Elastic Constant Matrix: (Units=GPa)
#
#
# Indices 1 2 3 4 5 6 
#
# 1 117.6052 92.5867 33.5715 -0.0001 0.0000 0.0000
# 2 92.5867 147.2440 37.0455 -0.0001 0.0000 0.0000
# 3 33.5715 37.0455 30.4520 -0.0003 0.0000 0.0001
# 4 -0.0001 -0.0001 -0.0003 -12.2179 0.0000 -0.0001
# 5 0.0000 0.0000 0.0000 0.0000 24.0109 0.0000
# 6 0.0000 0.0000 0.0001 -0.0001 0.0000 20.3800
#
#
#
# Elastic Compliance Matrix: (Units=1/GPa)
#
#
# Indices 1 2 3 4 5 6 
#
# 1 0.018386 -0.009311 -0.008942 0.000000 0.000000 0.000000
# 2 -0.009311 0.014503 -0.007377 0.000000 0.000000 0.000000
# 3 -0.008942 -0.007377 0.051672 -0.000001 0.000000 0.000000
# 4 0.000000 0.000000 -0.000001 -0.081847 0.000000 0.000000
# 5 0.000000 0.000000 0.000000 0.000000 0.041648 0.000000
# 6 0.000000 0.000000 0.000000 0.000000 0.000000 0.049068
#
#
# Mechanical properties :
#
#
# Convention : Reuss Voigt Hill
#
# Bulk Modulus (GPa) = 30.03150 69.07874 49.55512
# Shear Modulus (GPa) = 32.09449 15.24109 23.66779
#
# Velocity S-wave (km/s) = 4.07633 2.80907 3.50052
# Velocity P-wave (km/s) = 6.14033 6.80336 6.48033
#
# Compressibility (1/GPa) = 0.03329836
#
# Stress axis : x y z
#
# Youngs Moduli (GPa) = 54.38841 68.95341 19.35302
#
# Poissons Ratio (x) = 0.64206 0.17306
# Poissons Ratio (y) = 0.50643 0.14277
# Poissons Ratio (z) = 0.48635 0.50869
#
# Static dielectric constant tensor:
#      x y z
#    x 1.656450 0.000000 0.000000 
#    y 0.000000 1.647030 0.000000 
#    z 0.000000 0.000000 1.686060 
# 
# From -- ./inp_files/42434.got.cif
#   From: 2010.05.17/outbox.cif.g08.bks.cpg/sg71_22_cif.got.tgz:42434.got - 2010.06.03 16:22:01.
