data_PCOD9521586
_publ_section_title
;
Structure prediction by ZEFSAII (Michael W. Deem and Ramdas Pophale) SiO2 
 PCOD9521586
Probable space group: I M M M
;
_chemical_formula_sum "Si O2"
_cell_formula_units_Z 72
_cell_length_a 8.982964
_cell_length_b 28.189068
_cell_length_c 14.514695
_cell_angle_alpha 90.000000
_cell_angle_beta 90.000000
_cell_angle_gamma 90.000000
_cell_volume 3675.431142
_symmetry_space_group_name_H-M "I M M M"
_symmetry_group_IT_number 71
_symmetry_cell_setting 'orthorhombic'
loop_
_space_group_symop_operation_xyz
x,y,z
-x,-y,z
x,-y,-z
-x,y,-z
-x,-y,-z
x,y,-z
-x,y,z
x,-y,z
1/2+x,1/2+y,1/2+z
1/2-x,1/2-y,1/2+z
1/2+x,1/2-y,1/2-z
1/2-x,1/2+y,1/2-z
1/2-x,1/2-y,1/2-z
1/2+x,1/2+y,1/2-z
1/2-x,1/2+y,1/2+z
1/2+x,1/2-y,1/2+z
loop_
_atom_site_type_symbol
_atom_site_label
_atom_site_fract_x
_atom_site_fract_y
_atom_site_fract_z
Si Si1 0.323044 0.116169 0.601781
Si Si2 0.822673 0.500000 0.390395
Si Si3 0.179480 0.091092 0.794918
Si Si4 0.168024 0.786771 0.368482
Si Si5 0.168823 0.194296 0.850814
O O1 0.284090 0.096531 0.500000
O O2 0.500000 0.111503 0.614781
O O3 0.238965 0.094691 0.689952
O O4 0.277477 0.171598 0.600782
O O5 0.797201 0.500000 0.500000
O O6 0.748966 0.546167 0.344970
O O7 0.000000 0.500000 0.373736
O O8 0.221252 0.139838 0.848870
O O9 0.000000 0.089314 0.793245
O O10 0.161812 0.792358 0.257685
O O11 0.226982 0.734652 0.392480
O O12 0.000000 0.794981 0.400626
O O13 0.000000 0.196850 0.887091
#
# Coordination Sequence:
#
# PCOD9521586 Si02
#       5
#    16   8  16  16  16
#     4  10  20  34  54  82 119 161 198 233 278 336
#     4  11  25  45  68  91 114 141 177 228 290 351
#     4  10  21  38  62  88 114 148 190 239 291 341
#     4   9  16  26  45  74 108 149 193 233 272 319
#     4   8  15  28  47  74 107 144 185 228 277 328
#
# _framework density 19.589538000000001
#
# number of rings (size 3 to 8) (size 9 to 14) (size 15 to 20)
#    0.000    2.556    0.000    3.667    0.000    8.889 
#    0.000    1.667    0.000    4.667    0.000    0.000 
#    0.000    0.000    0.000    0.000    0.000    0.000 
#
# Total GULP energy -200820.266060 kJ/mol
# GULP energy per Si atom -5578.340724 kJ/mol
# Density = 1.954495 g / cm^3
# Si number density = 19.589538 Si / 1000 Ang^3
#
#
#
# Elastic Constant Matrix: (Units=GPa)
#
#
# Indices 1 2 3 4 5 6 
#
# 1 70.2535 49.2344 37.1670 0.0000 0.0000 0.0000
# 2 49.2344 148.4163 45.1636 0.0000 0.0000 0.0000
# 3 37.1670 45.1636 98.2276 0.0000 0.0000 0.0000
# 4 0.0000 0.0000 0.0000 -19.6083 0.0000 0.0000
# 5 0.0000 0.0000 0.0000 0.0000 -16.6838 0.0000
# 6 0.0000 0.0000 0.0000 0.0000 0.0000 31.3004
#
#
#
# Elastic Compliance Matrix: (Units=1/GPa)
#
#
# Indices 1 2 3 4 5 6 
#
# 1 0.020792 -0.005236 -0.005460 0.000000 0.000000 0.000000
# 2 -0.005236 0.009152 -0.002227 0.000000 0.000000 0.000000
# 3 -0.005460 -0.002227 0.013270 0.000000 0.000000 0.000000
# 4 0.000000 0.000000 0.000000 -0.050999 0.000000 0.000000
# 5 0.000000 0.000000 0.000000 0.000000 -0.059938 0.000000
# 6 0.000000 0.000000 0.000000 0.000000 0.000000 0.031949
#
#
# Mechanical properties :
#
#
# Convention : Reuss Voigt Hill
#
# Bulk Modulus (GPa) = 57.57314 64.44750 61.01032
# Shear Modulus (GPa) = -1208.09966 11.35714 -598.37126
#
# Velocity S-wave (km/s) = -24.86052 2.41042 -17.49622
# Velocity P-wave (km/s) = 28.18877 6.38100 19.41507
#
# Compressibility (1/GPa) = 0.01736921
#
# Stress axis : x y z
#
# Youngs Moduli (GPa) = 48.09530 109.26080 75.35662
#
# Poissons Ratio (x) = 0.57208 0.41143
# Poissons Ratio (y) = 0.25182 0.16782
# Poissons Ratio (z) = 0.26259 0.24332
#
# Static dielectric constant tensor:
#      x y z
#    x 1.659330 0.000000 0.000000 
#    y 0.000000 1.668890 0.000000 
#    z 0.000000 0.000000 1.742500 
# 
# From -- ./inp_files/31448.got.cif
#   From: 2010.05.17/outbox.cif.g08.bks.cpg/sg71_16_cif.got.tgz:31448.got - 2010.06.03 16:22:01.
