data_PCOD9521216
_publ_section_title
;
Structure prediction by ZEFSAII (Michael W. Deem and Ramdas Pophale) SiO2 
 PCOD9521216
Probable space group: I M M M
;
_chemical_formula_sum "Si O2"
_cell_formula_units_Z 80
_cell_length_a 7.513682
_cell_length_b 18.678850
_cell_length_c 32.298248
_cell_angle_alpha 90.000000
_cell_angle_beta 90.000000
_cell_angle_gamma 90.000000
_cell_volume 4532.960243
_symmetry_space_group_name_H-M "I M M M"
_symmetry_group_IT_number 71
_symmetry_cell_setting 'orthorhombic'
loop_
_space_group_symop_operation_xyz
x,y,z
-x,-y,z
x,-y,-z
-x,y,-z
-x,-y,-z
x,y,-z
-x,y,z
x,-y,z
1/2+x,1/2+y,1/2+z
1/2-x,1/2-y,1/2+z
1/2+x,1/2-y,1/2-z
1/2-x,1/2+y,1/2-z
1/2-x,1/2-y,1/2-z
1/2+x,1/2+y,1/2-z
1/2-x,1/2+y,1/2+z
1/2+x,1/2-y,1/2+z
loop_
_atom_site_type_symbol
_atom_site_label
_atom_site_fract_x
_atom_site_fract_y
_atom_site_fract_z
Si Si1 0.289234 0.642726 0.158816
Si Si2 0.500000 0.919283 0.598984
Si Si3 0.710645 0.080805 0.161355
Si Si4 0.786234 0.082106 0.745432
Si Si5 0.711741 0.786336 0.890982
Si Si6 0.000000 0.725116 0.950945
O O1 0.500000 0.625818 0.155356
O O2 0.170910 0.594825 0.128286
O O3 0.231350 0.628671 0.206021
O O4 0.264292 0.723901 0.143388
O O5 0.500000 0.857429 0.564429
O O6 0.500000 0.000000 0.583115
O O7 0.500000 0.076059 0.154075
O O8 0.732658 0.106103 0.208777
O O9 0.776650 0.139407 0.129030
O O10 0.785230 0.000000 0.158299
O O11 0.000000 0.080557 0.745271
O O12 0.722303 0.000000 0.740029
O O13 0.500000 0.789965 0.900172
O O14 0.828430 0.762393 0.929926
O O15 0.000000 0.730505 0.000000
#
# Coordination Sequence:
#
# PCOD9521216 Si02
#       6
#    16   8  16  16  16   8
#     4   9  18  32  48  71 104 142 180 213 241 286
#     4  10  20  33  54  79 105 140 170 203 254 298
#     4   9  18  31  48  72 101 135 173 213 255 300
#     4   9  17  27  41  66 100 138 177 213 247 285
#     4   9  19  36  55  75 101 133 169 208 259 311
#     4  10  22  39  59  82 102 125 165 212 260 320
#
# _framework density 17.648512
#
# number of rings (size 3 to 8) (size 9 to 14) (size 15 to 20)
#    0.000    2.800    0.000    0.600    2.800    2.600 
#    0.000    0.000    0.000    1.200    0.000    8.400 
#    0.000    0.000    0.000    0.000    0.000    0.000 
#
# Total GULP energy -222985.524678 kJ/mol
# GULP energy per Si atom -5574.638117 kJ/mol
# Density = 1.760834 g / cm^3
# Si number density = 17.648512 Si / 1000 Ang^3
#
#
#
# Elastic Constant Matrix: (Units=GPa)
#
#
# Indices 1 2 3 4 5 6 
#
# 1 63.2715 39.7498 37.5337 0.0000 0.0000 0.0000
# 2 39.7498 84.2395 86.3523 0.0000 0.0000 0.0000
# 3 37.5337 86.3523 143.4946 0.0000 0.0000 0.0000
# 4 0.0000 0.0000 0.0000 6.4202 0.0000 0.0000
# 5 0.0000 0.0000 0.0000 0.0000 19.9077 0.0000
# 6 0.0000 0.0000 0.0000 0.0000 0.0000 13.7478
#
#
#
# Elastic Compliance Matrix: (Units=1/GPa)
#
#
# Indices 1 2 3 4 5 6 
#
# 1 0.022560 -0.011997 0.001318 0.000000 0.000000 0.000000
# 2 -0.011997 0.037364 -0.019347 0.000000 0.000000 0.000000
# 3 0.001318 -0.019347 0.018267 0.000000 0.000000 0.000000
# 4 0.000000 0.000000 0.000000 0.155759 0.000000 0.000000
# 5 0.000000 0.000000 0.000000 0.000000 0.050232 0.000000
# 6 0.000000 0.000000 0.000000 0.000000 0.000000 0.072739
#
#
# Mechanical properties :
#
#
# Convention : Reuss Voigt Hill
#
# Bulk Modulus (GPa) = 55.12708 68.69748 61.91228
# Shear Modulus (GPa) = 11.81986 16.50646 14.16316
#
# Velocity S-wave (km/s) = 2.59073 3.06157 2.83594
# Velocity P-wave (km/s) = 6.34454 7.17687 6.77350
#
# Compressibility (1/GPa) = 0.01813991
#
# Stress axis : x y z
#
# Youngs Moduli (GPa) = 44.32708 26.76381 54.74460
#
# Poissons Ratio (x) = 0.32108 -0.07218
# Poissons Ratio (y) = 0.53178 1.05914
# Poissons Ratio (z) = -0.05844 0.51780
#
# Static dielectric constant tensor:
#      x y z
#    x 1.626910 0.000000 0.000000 
#    y 0.000000 1.623440 0.000000 
#    z 0.000000 0.000000 1.556390 
# 
# From -- ./inp_files/8424.got.cif
#   From: 2010.05.17/outbox.cif.g08.bks.cpg/sg71_5_cif.got.tgz:8424.got - 2010.06.03 16:22:01.
