data_PCOD9521771
_publ_section_title
;
Structure prediction by ZEFSAII (Michael W. Deem and Ramdas Pophale) SiO2 
 PCOD9521771
Probable space group: I M M M
;
_chemical_formula_sum "Si O2"
_cell_formula_units_Z 116
_cell_length_a 28.984037
_cell_length_b 7.832106
_cell_length_c 27.255682
_cell_angle_alpha 90.000000
_cell_angle_beta 90.000000
_cell_angle_gamma 90.000000
_cell_volume 6187.204713
_symmetry_space_group_name_H-M "I M M M"
_symmetry_group_IT_number 71
_symmetry_cell_setting 'orthorhombic'
loop_
_space_group_symop_operation_xyz
x,y,z
-x,-y,z
x,-y,-z
-x,y,-z
-x,-y,-z
x,y,-z
-x,y,z
x,-y,z
1/2+x,1/2+y,1/2+z
1/2-x,1/2-y,1/2+z
1/2+x,1/2-y,1/2-z
1/2-x,1/2+y,1/2-z
1/2-x,1/2-y,1/2-z
1/2+x,1/2+y,1/2-z
1/2-x,1/2+y,1/2+z
1/2+x,1/2-y,1/2+z
loop_
_atom_site_type_symbol
_atom_site_label
_atom_site_fract_x
_atom_site_fract_y
_atom_site_fract_z
Si Si1 0.696674 0.799611 0.348440
Si Si2 0.787944 0.811745 0.948386
Si Si3 0.854553 0.799888 0.249447
Si Si4 0.552379 0.793172 0.906693
Si Si5 0.803138 0.208860 0.346543
Si Si6 0.149359 0.797409 0.446201
Si Si7 0.245755 0.000000 0.500000
Si Si8 0.448397 0.205984 0.207055
O O1 0.682630 0.715262 0.399798
O O2 0.666269 0.768301 0.300834
O O3 0.749767 0.741335 0.341529
O O4 0.697776 0.000000 0.356863
O O5 0.753284 0.653081 0.957570
O O6 0.766058 0.000000 0.945498
O O7 0.815357 0.806524 0.000000
O O8 0.829960 0.728153 0.298353
O O9 0.908523 0.770351 0.257804
O O10 0.844963 0.000000 0.248870
O O11 0.500000 0.742957 0.920712
O O12 0.594488 0.721570 0.937867
O O13 0.559775 0.740962 0.849690
O O14 0.554281 0.000000 0.908973
O O15 0.826751 0.271233 0.396887
O O16 0.806027 0.000000 0.347195
O O17 0.161202 0.724240 0.500000
O O18 0.160562 0.000000 0.449877
O O19 0.500000 0.261571 0.220514
O O20 0.447517 0.000000 0.207139
#
# Coordination Sequence:
#
# PCOD9521771 Si02
#       8
#    16  16  16  16  16  16   4  16
#     4  11  20  34  53  75 104 145 186 221 276 326
#     4   9  17  31  51  77 105 136 181 224 259 315
#     4  11  21  34  52  78 106 134 174 222 272 327
#     4   9  18  33  53  73  96 128 168 217 274 331
#     4   9  20  35  50  69  99 139 181 221 271 333
#     4  10  20  35  52  73  99 131 174 223 274 326
#     4   8  14  32  52  74 104 144 171 218 275 310
#     4   9  18  34  55  77 100 133 173 214 268 332
#
# _framework density 18.748369
#
# number of rings (size 3 to 8) (size 9 to 14) (size 15 to 20)
#    0.414    1.931    2.069    2.069    0.000    1.655 
#    0.000    7.586    0.000    0.000    0.000    0.000 
#    0.000    0.552    0.000    6.828    0.000    5.931 
#
# Total GULP energy -323041.790441 kJ/mol
# GULP energy per Si atom -5569.686042 kJ/mol
# Density = 1.870570 g / cm^3
# Si number density = 18.748369 Si / 1000 Ang^3
#
#
#
# Elastic Constant Matrix: (Units=GPa)
#
#
# Indices 1 2 3 4 5 6 
#
# 1 58.3567 3.8512 60.7914 0.0000 0.0000 0.0000
# 2 3.8512 58.5164 20.4981 0.0000 0.0000 0.0000
# 3 60.7914 20.4981 163.4639 0.0000 0.0000 0.0000
# 4 0.0000 0.0000 0.0000 13.1883 0.0000 0.0000
# 5 0.0000 0.0000 0.0000 0.0000 -3.0063 0.0000
# 6 0.0000 0.0000 0.0000 0.0000 0.0000 19.4660
#
#
#
# Elastic Compliance Matrix: (Units=1/GPa)
#
#
# Indices 1 2 3 4 5 6 
#
# 1 0.028174 0.001900 -0.010716 0.000000 0.000000 0.000000
# 2 0.001900 0.018002 -0.002964 0.000000 0.000000 0.000000
# 3 -0.010716 -0.002964 0.010474 0.000000 0.000000 0.000000
# 4 0.000000 0.000000 0.000000 0.075825 0.000000 0.000000
# 5 0.000000 0.000000 0.000000 0.000000 -0.332635 0.000000
# 6 0.000000 0.000000 0.000000 0.000000 0.000000 0.051372
#
#
# Mechanical properties :
#
#
# Convention : Reuss Voigt Hill
#
# Bulk Modulus (GPa) = 30.22062 50.06871 40.14466
# Shear Modulus (GPa) = -43.78353 18.94267 -12.42043
#
# Velocity S-wave (km/s) = -4.83776 3.18207 -2.57666
# Velocity P-wave (km/s) = 3.87959 6.34542 3.55058
#
# Compressibility (1/GPa) = 0.03308999
#
# Stress axis : x y z
#
# Youngs Moduli (GPa) = 35.49435 55.54795 95.47112
#
# Poissons Ratio (x) = -0.10551 1.02305
# Poissons Ratio (y) = -0.06742 0.28297
# Poissons Ratio (z) = 0.38035 0.16464
#
# Static dielectric constant tensor:
#      x y z
#    x 1.660940 0.000000 0.000000 
#    y 0.000000 1.698170 0.000000 
#    z 0.000000 0.000000 1.692520 
# 
# From -- ./inp_files/62390.got.cif
#   From: 2010.05.17/outbox.cif.g08.bks.cpg/sg71_32_cif.got.tgz:62390.got - 2010.06.03 16:22:01.
