data_PCOD9521655
_publ_section_title
;
Structure prediction by ZEFSAII (Michael W. Deem and Ramdas Pophale) SiO2 
 PCOD9521655
Probable space group: I M M M
;
_chemical_formula_sum "Si O2"
_cell_formula_units_Z 80
_cell_length_a 26.106557
_cell_length_b 8.762675
_cell_length_c 18.868296
_cell_angle_alpha 90.000000
_cell_angle_beta 90.000000
_cell_angle_gamma 90.000000
_cell_volume 4316.373175
_symmetry_space_group_name_H-M "I M M M"
_symmetry_group_IT_number 71
_symmetry_cell_setting 'orthorhombic'
loop_
_space_group_symop_operation_xyz
x,y,z
-x,-y,z
x,-y,-z
-x,y,-z
-x,-y,-z
x,y,-z
-x,y,z
x,-y,z
1/2+x,1/2+y,1/2+z
1/2-x,1/2-y,1/2+z
1/2+x,1/2-y,1/2-z
1/2-x,1/2+y,1/2-z
1/2-x,1/2-y,1/2-z
1/2+x,1/2+y,1/2-z
1/2-x,1/2+y,1/2+z
1/2+x,1/2-y,1/2+z
loop_
_atom_site_type_symbol
_atom_site_label
_atom_site_fract_x
_atom_site_fract_y
_atom_site_fract_z
Si Si1 0.598920 0.315795 0.918469
Si Si2 0.191743 0.183646 0.175345
Si Si3 0.500000 0.181782 0.669120
Si Si4 0.190926 0.317570 0.669796
Si Si5 0.000000 0.815191 0.326820
Si Si6 0.905125 0.184284 0.917756
O O1 0.600565 0.500000 0.917402
O O2 0.650752 0.252851 0.884424
O O3 0.550496 0.269041 0.870613
O O4 0.592676 0.267143 0.000000
O O5 0.179326 0.258957 0.250856
O O6 0.249876 0.226484 0.155000
O O7 0.149337 0.224314 0.117444
O O8 0.190697 0.000000 0.184632
O O9 0.500000 0.246679 0.748636
O O10 0.450329 0.241966 0.627423
O O11 0.500000 0.000000 0.670976
O O12 0.187347 0.500000 0.667886
O O13 0.000000 0.000000 0.321310
O O14 0.910463 0.000000 0.914302
O O15 0.907796 0.229310 0.000000
#
# Coordination Sequence:
#
# PCOD9521655 Si02
#       6
#    16  16   8  16   8  16
#     4  10  21  37  57  81 109 142 181 224 269 318
#     4   9  19  36  57  80 108 144 185 225 263 311
#     4  12  25  38  55  82 113 140 171 218 276 328
#     4  10  20  34  55  83 113 144 179 222 271 320
#     4  10  21  39  61  80 103 141 187 226 260 310
#     4  10  21  38  59  80 104 140 185 225 262 313
#
# _framework density 18.534078999999998
#
# number of rings (size 3 to 8) (size 9 to 14) (size 15 to 20)
#    0.000    2.000    0.000    3.300    0.000   11.200 
#    0.000    2.000    0.000    1.800    0.000    0.000 
#    0.000    0.000    0.000    0.000    0.000    0.000 
#
# Total GULP energy -223455.936452 kJ/mol
# GULP energy per Si atom -5586.398411 kJ/mol
# Density = 1.849189 g / cm^3
# Si number density = 18.534079 Si / 1000 Ang^3
#
#
#
# Elastic Constant Matrix: (Units=GPa)
#
#
# Indices 1 2 3 4 5 6 
#
# 1 134.2482 40.1231 122.6935 0.0000 0.0000 0.0000
# 2 40.1231 19.3732 48.6350 0.0000 0.0000 0.0000
# 3 122.6935 48.6350 197.2888 0.0000 0.0000 0.0000
# 4 0.0000 0.0000 0.0000 15.8892 0.0000 0.0000
# 5 0.0000 0.0000 0.0000 0.0000 -12.6556 0.0000
# 6 0.0000 0.0000 0.0000 0.0000 0.0000 28.5955
#
#
#
# Elastic Compliance Matrix: (Units=1/GPa)
#
#
# Indices 1 2 3 4 5 6 
#
# 1 0.022355 -0.029903 -0.006531 0.000000 0.000000 0.000000
# 2 -0.029903 0.175432 -0.024650 0.000000 0.000000 0.000000
# 3 -0.006531 -0.024650 0.015207 0.000000 0.000000 0.000000
# 4 0.000000 0.000000 0.000000 0.062936 0.000000 0.000000
# 5 0.000000 0.000000 0.000000 0.000000 -0.079017 0.000000
# 6 0.000000 0.000000 0.000000 0.000000 0.000000 0.034970
#
#
# Mechanical properties :
#
#
# Convention : Reuss Voigt Hill
#
# Bulk Modulus (GPa) = 11.01015 85.97928 48.49471
# Shear Modulus (GPa) = 13.00975 15.66306 14.33640
#
# Velocity S-wave (km/s) = 2.65228 2.91021 2.78423
# Velocity P-wave (km/s) = 3.91572 7.60151 6.04631
#
# Compressibility (1/GPa) = 0.09082526
#
# Stress axis : x y z
#
# Youngs Moduli (GPa) = 44.73308 5.70021 65.75988
#
# Poissons Ratio (x) = 0.17046 0.42946
# Poissons Ratio (y) = 1.33767 1.62099
# Poissons Ratio (z) = 0.29214 0.14051
#
# Static dielectric constant tensor:
#      x y z
#    x 1.629400 0.000000 0.000000 
#    y 0.000000 1.622890 0.000000 
#    z 0.000000 0.000000 1.603400 
# 
# From -- ./inp_files/48609.got.cif
#   From: 2010.05.17/outbox.cif.g08.bks.cpg/sg71_25_cif.got.tgz:48609.got - 2010.06.03 16:22:01.
