data_PCOD9521647
_publ_section_title
;
Structure prediction by ZEFSAII (Michael W. Deem and Ramdas Pophale) SiO2 
 PCOD9521647
Probable space group: I M M M
;
_chemical_formula_sum "Si O2"
_cell_formula_units_Z 88
_cell_length_a 8.247249
_cell_length_b 25.841163
_cell_length_c 20.114670
_cell_angle_alpha 90.000000
_cell_angle_beta 90.000000
_cell_angle_gamma 90.000000
_cell_volume 4286.808413
_symmetry_space_group_name_H-M "I M M M"
_symmetry_group_IT_number 71
_symmetry_cell_setting 'orthorhombic'
loop_
_space_group_symop_operation_xyz
x,y,z
-x,-y,z
x,-y,-z
-x,y,-z
-x,-y,-z
x,y,-z
-x,y,z
x,-y,z
1/2+x,1/2+y,1/2+z
1/2-x,1/2-y,1/2+z
1/2+x,1/2-y,1/2-z
1/2-x,1/2+y,1/2-z
1/2-x,1/2-y,1/2-z
1/2+x,1/2+y,1/2-z
1/2-x,1/2+y,1/2+z
1/2+x,1/2-y,1/2+z
loop_
_atom_site_type_symbol
_atom_site_label
_atom_site_fract_x
_atom_site_fract_y
_atom_site_fract_z
Si Si1 0.312892 0.253797 0.075362
Si Si2 0.810276 0.411900 0.821676
Si Si3 0.316542 0.202753 0.704684
Si Si4 0.693322 0.556360 0.682834
Si Si5 0.806426 0.000000 0.577245
Si Si6 0.693977 0.361433 0.425953
O O1 0.500000 0.266422 0.091450
O O2 0.195204 0.277132 0.129574
O O3 0.287818 0.192300 0.077751
O O4 0.278967 0.270903 0.000000
O O5 0.738580 0.354629 0.803100
O O6 0.783736 0.441200 0.752498
O O7 0.743640 0.448508 0.880721
O O8 0.000000 0.404310 0.836278
O O9 0.500000 0.194993 0.728270
O O10 0.250000 0.250000 0.750000
O O11 0.500000 0.562322 0.695782
O O12 0.716756 0.500000 0.651692
O O13 0.744964 0.600713 0.632418
O O14 0.746384 0.000000 0.500000
O O15 0.000000 0.000000 0.574810
O O16 0.718145 0.383601 0.500000
O O17 0.500000 0.351219 0.419142
#
# Coordination Sequence:
#
# PCOD9521647 Si02
#       6
#    16  16  16  16   8  16
#     4  10  21  37  57  82 114 152 194 240 292 351
#     4  11  24  41  62  89 121 157 199 249 305 365
#     4  11  24  40  61  91 124 160 203 252 306 367
#     4  10  20  34  55  82 113 152 195 239 288 342
#     4  11  25  45  69  95 122 157 204 257 315 380
#     4   9  18  33  54  81 115 156 199 243 290 341
#
# _framework density 20.528093999999999
#
# number of rings (size 3 to 8) (size 9 to 14) (size 15 to 20)
#    0.000    1.727    0.909    3.000    0.000    9.455 
#    0.000    5.455    0.000    0.000    0.000    3.818 
#    0.000    0.000    0.000    0.000    0.000    0.000 
#
# Total GULP energy -245338.867252 kJ/mol
# GULP energy per Si atom -5575.883347 kJ/mol
# Density = 2.048137 g / cm^3
# Si number density = 20.528094 Si / 1000 Ang^3
#
#
#
# Elastic Constant Matrix: (Units=GPa)
#
#
# Indices 1 2 3 4 5 6 
#
# 1 22.8553 12.0843 9.1401 0.0000 0.0000 0.0000
# 2 12.0843 111.2319 40.6689 0.0000 0.0000 0.0000
# 3 9.1401 40.6689 78.2272 0.0000 0.0000 0.0000
# 4 0.0000 0.0000 0.0000 35.8825 0.0000 0.0000
# 5 0.0000 0.0000 0.0000 0.0000 19.2590 0.0000
# 6 0.0000 0.0000 0.0000 0.0000 0.0000 20.6547
#
#
#
# Elastic Compliance Matrix: (Units=1/GPa)
#
#
# Indices 1 2 3 4 5 6 
#
# 1 0.047191 -0.003841 -0.003517 0.000000 0.000000 0.000000
# 2 -0.003841 0.011413 -0.005485 0.000000 0.000000 0.000000
# 3 -0.003517 -0.005485 0.016045 0.000000 0.000000 0.000000
# 4 0.000000 0.000000 0.000000 0.027869 0.000000 0.000000
# 5 0.000000 0.000000 0.000000 0.000000 0.051924 0.000000
# 6 0.000000 0.000000 0.000000 0.000000 0.000000 0.048415
#
#
# Mechanical properties :
#
#
# Convention : Reuss Voigt Hill
#
# Bulk Modulus (GPa) = 20.42307 37.34455 28.88381
# Shear Modulus (GPa) = 20.41959 25.18731 22.80345
#
# Velocity S-wave (km/s) = 3.15733 3.50661 3.33654
# Velocity P-wave (km/s) = 4.82308 5.88443 5.37999
#
# Compressibility (1/GPa) = 0.04896424
#
# Stress axis : x y z
#
# Youngs Moduli (GPa) = 21.19057 87.62115 62.32286
#
# Poissons Ratio (x) = 0.33655 0.21919
# Poissons Ratio (y) = 0.08139 0.34181
# Poissons Ratio (z) = 0.07453 0.48056
#
# Static dielectric constant tensor:
#      x y z
#    x 1.756650 0.000000 0.000000 
#    y 0.000000 1.780360 0.000000 
#    z 0.000000 0.000000 1.717270 
# 
# From -- ./inp_files/10384.got.cif
#   From: 2010.05.17/outbox.cif.g08.bks.cpg/sg71_6_cif.got.tgz:10384.got - 2010.06.03 16:22:01.
