data_PCOD9521055
_publ_section_title
;
Structure prediction by ZEFSAII (Michael W. Deem and Ramdas Pophale) SiO2 
 PCOD9521055
Probable space group: I M M M
;
_chemical_formula_sum "Si O2"
_cell_formula_units_Z 88
_cell_length_a 19.397554
_cell_length_b 8.072979
_cell_length_c 28.330172
_cell_angle_alpha 90.000000
_cell_angle_beta 90.000000
_cell_angle_gamma 90.000000
_cell_volume 4436.392920
_symmetry_space_group_name_H-M "I M M M"
_symmetry_group_IT_number 71
_symmetry_cell_setting 'orthorhombic'
loop_
_space_group_symop_operation_xyz
x,y,z
-x,-y,z
x,-y,-z
-x,y,-z
-x,-y,-z
x,y,-z
-x,y,z
x,-y,z
1/2+x,1/2+y,1/2+z
1/2-x,1/2-y,1/2+z
1/2+x,1/2-y,1/2-z
1/2-x,1/2+y,1/2-z
1/2-x,1/2-y,1/2-z
1/2+x,1/2+y,1/2-z
1/2-x,1/2+y,1/2+z
1/2+x,1/2-y,1/2+z
loop_
_atom_site_type_symbol
_atom_site_label
_atom_site_fract_x
_atom_site_fract_y
_atom_site_fract_z
Si Si1 0.801149 0.809177 0.315821
Si Si2 0.923048 0.702281 0.500000
Si Si3 0.667923 0.301414 0.552215
Si Si4 0.648964 0.199797 0.343364
Si Si5 0.424124 0.801250 0.748252
Si Si6 0.323054 0.200250 0.917854
O O1 0.723675 0.736671 0.323585
O O2 0.857468 0.738085 0.280111
O O3 0.831272 0.787936 0.368127
O O4 0.791900 0.000000 0.302547
O O5 0.923593 0.500000 0.500000
O O6 0.881499 0.751334 0.453918
O O7 0.000000 0.763880 0.500000
O O8 0.645334 0.239212 0.500000
O O9 0.662497 0.500000 0.550780
O O10 0.635651 0.247040 0.602224
O O11 0.748757 0.259463 0.559580
O O12 0.592943 0.254493 0.305128
O O13 0.653045 0.000000 0.342840
O O14 0.500000 0.738768 0.763801
O O15 0.428017 0.000000 0.747682
O O16 0.324812 0.000000 0.911009
#
# Coordination Sequence:
#
# PCOD9521055 Si02
#       6
#    16   8  16  16  16  16
#     4  10  20  33  51  76 103 130 162 205 255 302
#     4   9  16  26  43  65  89 123 166 205 236 274
#     4   9  16  28  49  75 101 129 163 204 248 293
#     4   9  19  34  52  77 104 130 165 209 254 299
#     4  10  21  37  55  73  97 132 172 211 251 299
#     4   9  16  29  47  68  96 128 165 206 242 283
#
# _framework density 19.835936
#
# number of rings (size 3 to 8) (size 9 to 14) (size 15 to 20)
#    0.000    2.636    0.909    1.091    0.000    2.909 
#    0.000    2.273    0.000    1.091    0.000    3.818 
#    0.000    0.000    0.000    0.000    0.000    0.000 
#
# Total GULP energy -245096.851340 kJ/mol
# GULP energy per Si atom -5570.382985 kJ/mol
# Density = 1.979079 g / cm^3
# Si number density = 19.835936 Si / 1000 Ang^3
#
#
#
# Elastic Constant Matrix: (Units=GPa)
#
#
# Indices 1 2 3 4 5 6 
#
# 1 22.4147 5.3036 22.9434 0.0000 0.0000 0.0000
# 2 5.3036 9.7827 10.7007 0.0000 0.0000 0.0000
# 3 22.9434 10.7007 111.0087 0.0000 0.0000 0.0000
# 4 0.0000 0.0000 0.0000 28.6621 0.0000 0.0000
# 5 0.0000 0.0000 0.0000 0.0000 15.3087 0.0000
# 6 0.0000 0.0000 0.0000 0.0000 0.0000 11.3077
#
#
#
# Elastic Compliance Matrix: (Units=1/GPa)
#
#
# Indices 1 2 3 4 5 6 
#
# 1 0.060313 -0.021310 -0.010411 0.000000 0.000000 0.000000
# 2 -0.021310 0.121799 -0.007336 0.000000 0.000000 0.000000
# 3 -0.010411 -0.007336 0.011867 0.000000 0.000000 0.000000
# 4 0.000000 0.000000 0.000000 0.034889 0.000000 0.000000
# 5 0.000000 0.000000 0.000000 0.000000 0.065322 0.000000
# 6 0.000000 0.000000 0.000000 0.000000 0.000000 0.088435
#
#
# Mechanical properties :
#
#
# Convention : Reuss Voigt Hill
#
# Bulk Modulus (GPa) = 8.63082 24.56684 16.59883
# Shear Modulus (GPa) = 10.01276 18.00627 14.00952
#
# Velocity S-wave (km/s) = 2.24917 3.01617 2.66046
# Velocity P-wave (km/s) = 3.33250 4.95395 4.22180
#
# Compressibility (1/GPa) = 0.11586381
#
# Stress axis : x y z
#
# Youngs Moduli (GPa) = 16.58023 8.21023 84.26501
#
# Poissons Ratio (x) = 0.17496 0.87731
# Poissons Ratio (y) = 0.35332 0.61820
# Poissons Ratio (z) = 0.17262 0.06023
#
# Static dielectric constant tensor:
#      x y z
#    x 1.709070 0.000000 0.000000 
#    y 0.000000 1.719330 0.000000 
#    z 0.000000 0.000000 1.710780 
# 
# From -- ./inp_files/61103.got.cif
#   From: 2010.05.17/outbox.cif.g08.bks.cpg/sg71_31_cif.got.tgz:61103.got - 2010.06.03 16:22:01.
