data_PCOD9521217
_publ_section_title
;
Structure prediction by ZEFSAII (Michael W. Deem and Ramdas Pophale) SiO2 
 PCOD9521217
Probable space group: I M M M
;
_chemical_formula_sum "Si O2"
_cell_formula_units_Z 80
_cell_length_a 12.519560
_cell_length_b 16.912049
_cell_length_c 19.903288
_cell_angle_alpha 90.000000
_cell_angle_beta 90.000000
_cell_angle_gamma 90.000000
_cell_volume 4214.151275
_symmetry_space_group_name_H-M "I M M M"
_symmetry_group_IT_number 71
_symmetry_cell_setting 'orthorhombic'
loop_
_space_group_symop_operation_xyz
x,y,z
-x,-y,z
x,-y,-z
-x,y,-z
-x,-y,-z
x,y,-z
-x,y,z
x,-y,z
1/2+x,1/2+y,1/2+z
1/2-x,1/2-y,1/2+z
1/2+x,1/2-y,1/2-z
1/2-x,1/2+y,1/2-z
1/2-x,1/2-y,1/2-z
1/2+x,1/2+y,1/2-z
1/2-x,1/2+y,1/2+z
1/2+x,1/2-y,1/2+z
loop_
_atom_site_type_symbol
_atom_site_label
_atom_site_fract_x
_atom_site_fract_y
_atom_site_fract_z
Si Si1 0.379416 0.342669 0.261849
Si Si2 0.206529 0.312882 0.839285
Si Si3 0.176180 0.312097 0.575182
Si Si4 0.500000 0.903722 0.163196
Si Si5 0.616086 0.590173 0.596700
Si Si6 0.500000 0.093651 0.673852
O O1 0.500000 0.336403 0.234784
O O2 0.288683 0.359434 0.208122
O O3 0.346224 0.259670 0.296928
O O4 0.378276 0.404304 0.322541
O O5 0.280956 0.270634 0.894769
O O6 0.106042 0.366763 0.857119
O O7 0.130069 0.305239 0.500000
O O8 0.284014 0.362855 0.570720
O O9 0.099815 0.359081 0.627352
O O10 0.500000 0.892215 0.244178
O O11 0.500000 0.000000 0.150873
O O12 0.500000 0.624558 0.578361
O O13 0.620030 0.500000 0.575720
O O14 0.500000 0.000000 0.664451
#
# Coordination Sequence:
#
# PCOD9521217 Si02
#       6
#    16  16  16   8  16   8
#     4   9  16  29  52  77 107 143 183 228 290 333
#     4  10  20  33  54  79 110 146 193 243 287 343
#     4  11  24  37  53  78 115 163 201 226 267 331
#     4  11  23  38  59  91 127 157 192 237 283 344
#     4   9  18  32  50  77 110 144 184 227 271 326
#     4  11  22  39  63  91 116 142 186 253 325 362
#
# _framework density 18.983656
#
# number of rings (size 3 to 8) (size 9 to 14) (size 15 to 20)
#    0.000    2.000    1.000    4.500    2.800    4.800 
#    0.000    1.000    0.000    1.200    0.000    0.000 
#    0.000    1.600    0.000    0.000    0.000    0.000 
#
# Total GULP energy -223026.709849 kJ/mol
# GULP energy per Si atom -5575.667746 kJ/mol
# Density = 1.894045 g / cm^3
# Si number density = 18.983656 Si / 1000 Ang^3
#
#
#
# Elastic Constant Matrix: (Units=GPa)
#
#
# Indices 1 2 3 4 5 6 
#
# 1 107.6627 23.9392 23.8646 0.0000 0.0000 0.0000
# 2 23.9392 66.7993 25.0142 0.0000 0.0000 0.0000
# 3 23.8646 25.0142 50.4001 0.0000 0.0000 0.0000
# 4 0.0000 0.0000 0.0000 -8.9036 0.0000 0.0000
# 5 0.0000 0.0000 0.0000 0.0000 -10.7100 0.0000
# 6 0.0000 0.0000 0.0000 0.0000 0.0000 23.6203
#
#
#
# Elastic Compliance Matrix: (Units=1/GPa)
#
#
# Indices 1 2 3 4 5 6 
#
# 1 0.010675 -0.002374 -0.003877 0.000000 0.000000 0.000000
# 2 -0.002374 0.018916 -0.008264 0.000000 0.000000 0.000000
# 3 -0.003877 -0.008264 0.025778 0.000000 0.000000 0.000000
# 4 0.000000 0.000000 0.000000 -0.112314 0.000000 0.000000
# 5 0.000000 0.000000 0.000000 0.000000 -0.093371 0.000000
# 6 0.000000 0.000000 0.000000 0.000000 0.000000 0.042337
#
#
# Mechanical properties :
#
#
# Convention : Reuss Voigt Hill
#
# Bulk Modulus (GPa) = 37.96485 41.16645 39.56565
# Shear Modulus (GPa) = -71.25571 10.93761 -30.15905
#
# Velocity S-wave (km/s) = -6.13325 2.40294 -3.99016
# Velocity P-wave (km/s) = 5.48758 5.42504 0.58417
#
# Compressibility (1/GPa) = 0.02634015
#
# Stress axis : x y z
#
# Youngs Moduli (GPa) = 93.67285 52.86635 38.79245
#
# Poissons Ratio (x) = 0.12551 0.15038
# Poissons Ratio (y) = 0.22240 0.32058
# Poissons Ratio (z) = 0.36313 0.43688
#
# Static dielectric constant tensor:
#      x y z
#    x 1.688000 0.000000 0.000000 
#    y 0.000000 1.645330 0.000000 
#    z 0.000000 0.000000 1.703640 
# 
# From -- ./inp_files/51733.got.cif
#   From: 2010.05.17/outbox.cif.g08.bks.cpg/sg71_26_cif.got.tgz:51733.got - 2010.06.03 16:22:01.
