data_PCOD9521778
_publ_section_title
;
Structure prediction by ZEFSAII (Michael W. Deem and Ramdas Pophale) SiO2 
 PCOD9521778
Probable space group: I M M M
;
_chemical_formula_sum "Si O2"
_cell_formula_units_Z 104
_cell_length_a 29.423733
_cell_length_b 8.504603
_cell_length_c 24.952974
_cell_angle_alpha 90.000000
_cell_angle_beta 90.000000
_cell_angle_gamma 90.000000
_cell_volume 6244.161546
_symmetry_space_group_name_H-M "I M M M"
_symmetry_group_IT_number 71
_symmetry_cell_setting 'orthorhombic'
loop_
_space_group_symop_operation_xyz
x,y,z
-x,-y,z
x,-y,-z
-x,y,-z
-x,-y,-z
x,y,-z
-x,y,z
x,-y,z
1/2+x,1/2+y,1/2+z
1/2-x,1/2-y,1/2+z
1/2+x,1/2-y,1/2-z
1/2-x,1/2+y,1/2-z
1/2-x,1/2-y,1/2-z
1/2+x,1/2+y,1/2-z
1/2-x,1/2+y,1/2+z
1/2+x,1/2-y,1/2+z
loop_
_atom_site_type_symbol
_atom_site_label
_atom_site_fract_x
_atom_site_fract_y
_atom_site_fract_z
Si Si1 0.552283 0.309918 0.148316
Si Si2 0.552978 0.188123 0.265724
Si Si3 0.174873 0.309194 0.062323
Si Si4 0.088092 0.813326 0.125038
Si Si5 0.000000 0.311212 0.062208
Si Si6 0.626336 0.307243 0.061862
Si Si7 0.225827 0.818413 0.434898
O O1 0.500000 0.260501 0.138133
O O2 0.552908 0.500000 0.149799
O O3 0.565875 0.247214 0.206733
O O4 0.586796 0.257822 0.102088
O O5 0.500000 0.235287 0.274243
O O6 0.582065 0.258229 0.313844
O O7 0.555167 0.000000 0.267641
O O8 0.175847 0.500000 0.063354
O O9 0.134057 0.249921 0.098462
O O10 0.225045 0.250407 0.080154
O O11 0.167592 0.263338 0.000000
O O12 0.044917 0.748253 0.092085
O O13 0.087424 0.000000 0.122507
O O14 0.000000 0.500000 0.064091
O O15 0.000000 0.261498 0.000000
O O16 0.627780 0.500000 0.061993
O O17 0.676618 0.250205 0.079653
O O18 0.618336 0.260741 0.000000
O O19 0.225982 0.821564 0.500000
O O20 0.225745 0.000000 0.416458
#
# Coordination Sequence:
#
# PCOD9521778 Si02
#       7
#    16  16  16  16   8  16  16
#     4   9  17  28  45  72 104 131 158 197 241 284
#     4  10  20  35  53  67  86 122 168 206 238 285
#     4   9  17  30  48  69  94 125 161 199 238 285
#     4  12  23  33  49  71  96 123 155 201 248 289
#     4  11  23  37  51  69  97 131 162 191 230 285
#     4   8  13  23  43  73 105 133 160 192 234 284
#     4   7  11  22  42  67  93 124 163 199 229 272
#
# _framework density 16.655559
#
# number of rings (size 3 to 8) (size 9 to 14) (size 15 to 20)
#    0.000    2.692    0.769    4.385    0.000    3.692 
#    0.000    1.538    0.000    2.308    0.000    4.308 
#    0.000    0.000    0.000    0.000    0.000    0.000 
#
# Total GULP energy -289740.356896 kJ/mol
# GULP energy per Si atom -5571.929940 kJ/mol
# Density = 1.661765 g / cm^3
# Si number density = 16.655559 Si / 1000 Ang^3
#
#
#
# Elastic Constant Matrix: (Units=GPa)
#
#
# Indices 1 2 3 4 5 6 
#
# 1 155.7230 24.6423 97.4980 0.0000 0.0000 0.0000
# 2 24.6423 21.5320 23.4775 0.0000 0.0000 0.0000
# 3 97.4980 23.4775 114.7503 0.0000 0.0000 0.0000
# 4 0.0000 0.0000 0.0000 17.0203 0.0000 0.0000
# 5 0.0000 0.0000 0.0000 0.0000 1.8605 0.0000
# 6 0.0000 0.0000 0.0000 0.0000 0.0000 4.6809
#
#
#
# Elastic Compliance Matrix: (Units=1/GPa)
#
#
# Indices 1 2 3 4 5 6 
#
# 1 0.013973 -0.003921 -0.011070 0.000000 0.000000 0.000000
# 2 -0.003921 0.060878 -0.009124 0.000000 0.000000 0.000000
# 3 -0.011070 -0.009124 0.019987 0.000000 0.000000 0.000000
# 4 0.000000 0.000000 0.000000 0.058753 0.000000 0.000000
# 5 0.000000 0.000000 0.000000 0.000000 0.537500 0.000000
# 6 0.000000 0.000000 0.000000 0.000000 0.000000 0.213632
#
#
# Mechanical properties :
#
#
# Convention : Reuss Voigt Hill
#
# Bulk Modulus (GPa) = 21.45546 64.80455 43.13000
# Shear Modulus (GPa) = 5.16268 14.47151 9.81709
#
# Velocity S-wave (km/s) = 1.76250 2.95086 2.43043
# Velocity P-wave (km/s) = 4.12937 7.11359 5.81614
#
# Compressibility (1/GPa) = 0.04660819
#
# Stress axis : x y z
#
# Youngs Moduli (GPa) = 71.56600 16.42623 50.03262
#
# Poissons Ratio (x) = 0.06441 0.55386
# Poissons Ratio (y) = 0.28063 0.45649
# Poissons Ratio (z) = 0.79224 0.14987
#
# Static dielectric constant tensor:
#      x y z
#    x 1.587770 0.000000 0.000000 
#    y 0.000000 1.567560 0.000000 
#    z 0.000000 0.000000 1.535910 
# 
# From -- ./inp_files/61971.got.cif
#   From: 2010.05.17/outbox.cif.g08.bks.cpg/sg71_31_cif.got.tgz:61971.got - 2010.06.03 16:22:01.
