data_PCOD9521458
_publ_section_title
;
Structure prediction by ZEFSAII (Michael W. Deem and Ramdas Pophale) SiO2 
 PCOD9521458
Probable space group: I M M M
;
_chemical_formula_sum "Si O2"
_cell_formula_units_Z 56
_cell_length_a 8.965678
_cell_length_b 11.003955
_cell_length_c 31.039650
_cell_angle_alpha 90.000000
_cell_angle_beta 90.000000
_cell_angle_gamma 90.000000
_cell_volume 3062.307221
_symmetry_space_group_name_H-M "I M M M"
_symmetry_group_IT_number 71
_symmetry_cell_setting 'orthorhombic'
loop_
_space_group_symop_operation_xyz
x,y,z
-x,-y,z
x,-y,-z
-x,y,-z
-x,-y,-z
x,y,-z
-x,y,z
x,-y,z
1/2+x,1/2+y,1/2+z
1/2-x,1/2-y,1/2+z
1/2+x,1/2-y,1/2-z
1/2-x,1/2+y,1/2-z
1/2-x,1/2-y,1/2-z
1/2+x,1/2+y,1/2-z
1/2-x,1/2+y,1/2+z
1/2+x,1/2-y,1/2+z
loop_
_atom_site_type_symbol
_atom_site_label
_atom_site_fract_x
_atom_site_fract_y
_atom_site_fract_z
Si Si1 0.166483 0.356876 0.630939
Si Si2 0.821129 0.145000 0.780073
Si Si3 0.821770 0.247073 0.050033
Si Si4 0.669112 0.500000 0.051841
O O1 0.150327 0.500000 0.635926
O O2 0.266360 0.320789 0.671720
O O3 0.244477 0.335956 0.585281
O O4 0.000000 0.301077 0.631984
O O5 0.750000 0.250000 0.750000
O O6 0.000000 0.150707 0.777152
O O7 0.780118 0.000000 0.771571
O O8 0.761801 0.380450 0.062282
O O9 0.000000 0.241174 0.052761
O O10 0.780143 0.221980 0.000000
O O11 0.500000 0.500000 0.069207
O O12 0.657111 0.500000 0.000000
#
# Coordination Sequence:
#
# PCOD9521458 Si02
#       4
#    16  16  16   8
#     4  10  21  37  57  81 111 147 186 230 280 332
#     4  10  21  39  63  89 118 151 189 236 290 348
#     4  10  20  34  53  78 110 147 187 230 277 331
#     4   9  17  31  51  73 101 139 181 227 277 325
#
# _framework density 18.286864999999999
#
# number of rings (size 3 to 8) (size 9 to 14) (size 15 to 20)
#    0.000    2.143    0.000    3.000    0.000    7.429 
#    2.571    2.857    0.000    0.000    0.000    0.000 
#    0.000    0.000    0.000    0.000    0.000    0.000 
#
# Total GULP energy -155934.787341 kJ/mol
# GULP energy per Si atom -5569.099548 kJ/mol
# Density = 1.824524 g / cm^3
# Si number density = 18.286865 Si / 1000 Ang^3
#
#
#
# Elastic Constant Matrix: (Units=GPa)
#
#
# Indices 1 2 3 4 5 6 
#
# 1 104.8297 36.2551 58.2360 0.0000 0.0000 0.0000
# 2 36.2551 46.9951 43.1845 0.0000 0.0000 0.0000
# 3 58.2360 43.1845 113.9595 0.0000 0.0000 0.0000
# 4 0.0000 0.0000 0.0000 35.2897 0.0000 0.0000
# 5 0.0000 0.0000 0.0000 0.0000 29.1728 0.0000
# 6 0.0000 0.0000 0.0000 0.0000 0.0000 30.6738
#
#
#
# Elastic Compliance Matrix: (Units=1/GPa)
#
#
# Indices 1 2 3 4 5 6 
#
# 1 0.014599 -0.006762 -0.004898 0.000000 0.000000 0.000000
# 2 -0.006762 0.035779 -0.010103 0.000000 0.000000 0.000000
# 3 -0.004898 -0.010103 0.015107 0.000000 0.000000 0.000000
# 4 0.000000 0.000000 0.000000 0.028337 0.000000 0.000000
# 5 0.000000 0.000000 0.000000 0.000000 0.034279 0.000000
# 6 0.000000 0.000000 0.000000 0.000000 0.000000 0.032601
#
#
# Mechanical properties :
#
#
# Convention : Reuss Voigt Hill
#
# Bulk Modulus (GPa) = 45.53928 60.12616 52.83272
# Shear Modulus (GPa) = 23.63559 27.56783 25.60171
#
# Velocity S-wave (km/s) = 3.59902 3.88689 3.74572
# Velocity P-wave (km/s) = 6.49826 7.28661 6.90370
#
# Compressibility (1/GPa) = 0.02195906
#
# Stress axis : x y z
#
# Youngs Moduli (GPa) = 68.49897 27.94951 66.19648
#
# Poissons Ratio (x) = 0.18898 0.32423
# Poissons Ratio (y) = 0.46316 0.66878
# Poissons Ratio (z) = 0.33551 0.28237
#
# Static dielectric constant tensor:
#      x y z
#    x 1.646100 0.000000 0.000000 
#    y 0.000000 1.743930 0.000000 
#    z 0.000000 0.000000 1.607790 
# 
# From -- ./inp_files/3310.got.cif
#   From: 2010.05.17/outbox.cif.g08.bks.cpg/sg71_2_cif.got.tgz:3310.got - 2010.06.03 16:22:01.
