data_PCOD9521364
_publ_section_title
;
Structure prediction by ZEFSAII (Michael W. Deem and Ramdas Pophale) SiO2 
 PCOD9521364
Probable space group: I M M M
;
_chemical_formula_sum "Si O2"
_cell_formula_units_Z 72
_cell_length_a 12.197718
_cell_length_b 22.758750
_cell_length_c 14.263724
_cell_angle_alpha 90.000000
_cell_angle_beta 90.000000
_cell_angle_gamma 90.000000
_cell_volume 3959.678456
_symmetry_space_group_name_H-M "I M M M"
_symmetry_group_IT_number 71
_symmetry_cell_setting 'orthorhombic'
loop_
_space_group_symop_operation_xyz
x,y,z
-x,-y,z
x,-y,-z
-x,y,-z
-x,-y,-z
x,y,-z
-x,y,z
x,-y,z
1/2+x,1/2+y,1/2+z
1/2-x,1/2-y,1/2+z
1/2+x,1/2-y,1/2-z
1/2-x,1/2+y,1/2-z
1/2-x,1/2-y,1/2-z
1/2+x,1/2+y,1/2-z
1/2-x,1/2+y,1/2+z
1/2+x,1/2-y,1/2+z
loop_
_atom_site_type_symbol
_atom_site_label
_atom_site_fract_x
_atom_site_fract_y
_atom_site_fract_z
Si Si1 0.128003 0.092648 0.894246
Si Si2 0.500000 0.428701 0.892223
Si Si3 0.727209 0.433644 0.203074
Si Si4 0.243154 0.214742 0.107353
Si Si5 0.370213 0.821682 0.709385
O O1 0.200503 0.064578 0.813630
O O2 0.153479 0.162257 0.889174
O O3 0.000000 0.080754 0.876915
O O4 0.154241 0.073547 0.000000
O O5 0.500000 0.500000 0.888435
O O6 0.386886 0.410898 0.842759
O O7 0.500000 0.410040 0.000000
O O8 0.750149 0.500000 0.169420
O O9 0.821231 0.386032 0.188215
O O10 0.333158 0.196754 0.185023
O O11 0.187485 0.274721 0.141167
O O12 0.282984 0.218397 0.000000
O O13 0.500000 0.819965 0.700103
#
# Coordination Sequence:
#
# PCOD9521364 Si02
#       5
#    16   8  16  16  16
#     4   9  16  28  51  80 106 133 169 218 274 326
#     4   9  18  34  53  71  99 141 186 230 268 303
#     4  10  20  34  52  76 109 146 184 224 267 315
#     4   9  19  36  56  79 107 141 178 219 271 324
#     4  10  21  36  56  82 112 142 179 224 268 326
#
# _framework density 18.183295000000001
#
# number of rings (size 3 to 8) (size 9 to 14) (size 15 to 20)
#    0.000    2.556    1.111    0.667    0.000    3.556 
#    2.000    1.111    0.000    0.000    0.000   10.889 
#    0.000    0.000    0.000    0.000    0.000    0.000 
#
# Total GULP energy -200734.378259 kJ/mol
# GULP energy per Si atom -5575.954952 kJ/mol
# Density = 1.814191 g / cm^3
# Si number density = 18.183295 Si / 1000 Ang^3
#
#
#
# Elastic Constant Matrix: (Units=GPa)
#
#
# Indices 1 2 3 4 5 6 
#
# 1 45.8221 22.7937 -7.1944 0.0000 0.0000 0.0000
# 2 22.7937 94.3385 9.2426 0.0000 0.0000 0.0000
# 3 -7.1944 9.2426 53.1740 0.0000 0.0000 0.0000
# 4 0.0000 0.0000 0.0000 14.6048 0.0000 0.0000
# 5 0.0000 0.0000 0.0000 0.0000 12.1694 0.0000
# 6 0.0000 0.0000 0.0000 0.0000 0.0000 11.1352
#
#
#
# Elastic Compliance Matrix: (Units=1/GPa)
#
#
# Indices 1 2 3 4 5 6 
#
# 1 0.025897 -0.006715 0.004671 0.000000 0.000000 0.000000
# 2 -0.006715 0.012525 -0.003086 0.000000 0.000000 0.000000
# 3 0.004671 -0.003086 0.019974 0.000000 0.000000 0.000000
# 4 0.000000 0.000000 0.000000 0.068470 0.000000 0.000000
# 5 0.000000 0.000000 0.000000 0.000000 0.082173 0.000000
# 6 0.000000 0.000000 0.000000 0.000000 0.000000 0.089805
#
#
# Mechanical properties :
#
#
# Convention : Reuss Voigt Hill
#
# Bulk Modulus (GPa) = 20.77371 27.00203 23.88787
# Shear Modulus (GPa) = 15.37753 18.81475 17.09614
#
# Velocity S-wave (km/s) = 2.91124 3.22021 3.06961
# Velocity P-wave (km/s) = 4.76968 5.35803 5.07239
#
# Compressibility (1/GPa) = 0.04813776
#
# Stress axis : x y z
#
# Youngs Moduli (GPa) = 38.61433 79.84144 50.06392
#
# Poissons Ratio (x) = 0.53612 -0.23385
# Poissons Ratio (y) = 0.25929 0.15447
# Poissons Ratio (z) = -0.18037 0.24635
#
# Static dielectric constant tensor:
#      x y z
#    x 1.580040 0.000000 0.000000 
#    y 0.000000 1.649180 0.000000 
#    z 0.000000 0.000000 1.642770 
# 
# From -- ./inp_files/32609.got.cif
#   From: 2010.05.17/outbox.cif.g08.bks.cpg/sg71_17_cif.got.tgz:32609.got - 2010.06.03 16:22:01.
