data_PCOD9521157
_publ_section_title
;
Structure prediction by ZEFSAII (Michael W. Deem and Ramdas Pophale) SiO2 
 PCOD9521157
Probable space group: I M M M
;
_chemical_formula_sum "Si O2"
_cell_formula_units_Z 72
_cell_length_a 15.981524
_cell_length_b 9.455936
_cell_length_c 23.716331
_cell_angle_alpha 90.000000
_cell_angle_beta 90.000000
_cell_angle_gamma 90.000000
_cell_volume 3584.018300
_symmetry_space_group_name_H-M "I M M M"
_symmetry_group_IT_number 71
_symmetry_cell_setting 'orthorhombic'
loop_
_space_group_symop_operation_xyz
x,y,z
-x,-y,z
x,-y,-z
-x,y,-z
-x,-y,-z
x,y,-z
-x,y,z
x,-y,z
1/2+x,1/2+y,1/2+z
1/2-x,1/2-y,1/2+z
1/2+x,1/2-y,1/2-z
1/2-x,1/2+y,1/2-z
1/2-x,1/2-y,1/2-z
1/2+x,1/2+y,1/2-z
1/2-x,1/2+y,1/2+z
1/2+x,1/2-y,1/2+z
loop_
_atom_site_type_symbol
_atom_site_label
_atom_site_fract_x
_atom_site_fract_y
_atom_site_fract_z
Si Si1 0.100657 0.165070 0.109373
Si Si2 0.334473 0.669431 0.734102
Si Si3 0.902132 0.657730 0.332666
Si Si4 0.602418 0.837831 0.500000
Si Si5 0.102398 0.163049 0.436463
O O1 0.140653 0.199517 0.169666
O O2 0.129492 0.259167 0.056948
O O3 0.000000 0.181684 0.115142
O O4 0.116620 0.000000 0.096986
O O5 0.330822 0.500000 0.741313
O O6 0.250000 0.750000 0.750000
O O7 0.396285 0.740668 0.778959
O O8 0.866232 0.500000 0.322890
O O9 0.864869 0.735049 0.387505
O O10 0.000000 0.641037 0.344694
O O11 0.500000 0.834043 0.500000
O O12 0.629208 0.000000 0.500000
O O13 0.127690 0.203426 0.500000
O O14 0.000000 0.164804 0.435590
O O15 0.126811 0.000000 0.426146
#
# Coordination Sequence:
#
# PCOD9521157 Si02
#       5
#    16  16  16   8  16
#     4   9  18  34  57  83 110 143 182 222 269 328
#     4  11  23  38  56  77 107 146 185 226 273 326
#     4  10  20  33  52  79 108 138 176 222 269 319
#     4   9  17  29  51  85 117 141 170 217 274 325
#     4   8  14  26  46  72 101 133 169 211 259 307
#
# _framework density 20.089183999999999
#
# number of rings (size 3 to 8) (size 9 to 14) (size 15 to 20)
#    0.000    2.556    0.000    3.000    0.000    5.778 
#    0.000    4.444    2.444    0.000    0.000    0.000 
#    0.000    0.000    0.000    0.000    0.000    0.000 
#
# Total GULP energy -200834.021608 kJ/mol
# GULP energy per Si atom -5578.722822 kJ/mol
# Density = 2.004346 g / cm^3
# Si number density = 20.089184 Si / 1000 Ang^3
#
#
#
# Elastic Constant Matrix: (Units=GPa)
#
#
# Indices 1 2 3 4 5 6 
#
# 1 12.1900 26.1252 23.7147 0.0000 0.0000 0.0000
# 2 26.1252 151.8790 141.0492 0.0000 0.0000 0.0000
# 3 23.7147 141.0492 204.4626 0.0000 0.0000 0.0000
# 4 0.0000 0.0000 0.0000 25.9534 0.0000 0.0000
# 5 0.0000 0.0000 0.0000 0.0000 5.9493 0.0000
# 6 0.0000 0.0000 0.0000 0.0000 0.0000 17.4138
#
#
#
# Elastic Compliance Matrix: (Units=1/GPa)
#
#
# Indices 1 2 3 4 5 6 
#
# 1 0.130004 -0.023262 0.000969 0.000000 0.000000 0.000000
# 2 -0.023262 0.022486 -0.012814 0.000000 0.000000 0.000000
# 3 0.000969 -0.012814 0.013618 0.000000 0.000000 0.000000
# 4 0.000000 0.000000 0.000000 0.038531 0.000000 0.000000
# 5 0.000000 0.000000 0.000000 0.000000 0.168086 0.000000
# 6 0.000000 0.000000 0.000000 0.000000 0.000000 0.057426
#
#
# Mechanical properties :
#
#
# Convention : Reuss Voigt Hill
#
# Bulk Modulus (GPa) = 10.42819 83.36774 46.89797
# Shear Modulus (GPa) = 9.39270 21.70615 15.54942
#
# Velocity S-wave (km/s) = 2.16464 3.29065 2.78514
# Velocity P-wave (km/s) = 3.38375 7.48510 5.80846
#
# Compressibility (1/GPa) = 0.09589388
#
# Stress axis : x y z
#
# Youngs Moduli (GPa) = 7.69206 44.47293 73.43201
#
# Poissons Ratio (x) = 1.03454 -0.07115
# Poissons Ratio (y) = 0.17893 0.94093
# Poissons Ratio (z) = -0.00745 0.56986
#
# Static dielectric constant tensor:
#      x y z
#    x 1.797820 0.000000 0.000000 
#    y 0.000000 1.700670 0.000000 
#    z 0.000000 0.000000 1.706530 
# 
# From -- ./inp_files/7992.got.cif
#   From: 2010.05.17/outbox.cif.g08.bks.cpg/sg71_4_cif.got.tgz:7992.got - 2010.06.03 16:22:01.
