data_PCOD9521694
_publ_section_title
;
Structure prediction by ZEFSAII (Michael W. Deem and Ramdas Pophale) SiO2 
 PCOD9521694
Probable space group: I M M M
;
_chemical_formula_sum "Si O2"
_cell_formula_units_Z 96
_cell_length_a 9.193976
_cell_length_b 20.237382
_cell_length_c 29.432635
_cell_angle_alpha 90.000000
_cell_angle_beta 90.000000
_cell_angle_gamma 90.000000
_cell_volume 5476.295063
_symmetry_space_group_name_H-M "I M M M"
_symmetry_group_IT_number 71
_symmetry_cell_setting 'orthorhombic'
loop_
_space_group_symop_operation_xyz
x,y,z
-x,-y,z
x,-y,-z
-x,y,-z
-x,-y,-z
x,y,-z
-x,y,z
x,-y,z
1/2+x,1/2+y,1/2+z
1/2-x,1/2-y,1/2+z
1/2+x,1/2-y,1/2-z
1/2-x,1/2+y,1/2-z
1/2-x,1/2-y,1/2-z
1/2+x,1/2+y,1/2-z
1/2-x,1/2+y,1/2+z
1/2+x,1/2-y,1/2+z
loop_
_atom_site_type_symbol
_atom_site_label
_atom_site_fract_x
_atom_site_fract_y
_atom_site_fract_z
Si Si1 0.332502 0.808289 0.806587
Si Si2 0.334438 0.074439 0.054525
Si Si3 0.673052 0.306756 0.402351
Si Si4 0.674830 0.078179 0.636643
Si Si5 0.831929 0.847213 0.719235
Si Si6 0.823223 0.668340 0.051891
O O1 0.500000 0.828828 0.811361
O O2 0.247011 0.812098 0.853478
O O3 0.254685 0.849256 0.766642
O O4 0.330945 0.730527 0.793691
O O5 0.500000 0.090731 0.069339
O O6 0.222878 0.128968 0.070632
O O7 0.300415 0.000000 0.070367
O O8 0.335195 0.073361 0.000000
O O9 0.500000 0.303300 0.397355
O O10 0.720543 0.240223 0.428850
O O11 0.500000 0.087566 0.641665
O O12 0.754364 0.112380 0.679106
O O13 0.719584 0.114172 0.589577
O O14 0.703835 0.000000 0.634976
O O15 0.000000 0.867703 0.724344
O O16 0.000000 0.667518 0.050324
O O17 0.772118 0.657811 0.000000
#
# Coordination Sequence:
#
# PCOD9521694 Si02
#       6
#    16  16  16  16  16  16
#     4  10  20  34  56  82 109 139 177 220 270 331
#     4   9  19  36  55  75 105 146 186 223 269 329
#     4  11  20  32  54  83 115 146 180 229 281 326
#     4  10  20  35  56  80 111 152 193 233 279 331
#     4  10  20  35  56  81 108 139 177 223 274 326
#     4   9  18  32  51  79 113 146 186 235 279 320
#
# _framework density 17.530100000000001
#
# number of rings (size 3 to 8) (size 9 to 14) (size 15 to 20)
#    0.000    2.167    1.667    2.500    0.000    3.333 
#    0.000    3.333    0.000    6.500    0.000    1.167 
#    0.000    0.000    0.000    0.000    0.000    0.000 
#
# Total GULP energy -267708.618628 kJ/mol
# GULP energy per Si atom -5577.262888 kJ/mol
# Density = 1.749020 g / cm^3
# Si number density = 17.530100 Si / 1000 Ang^3
#
#
#
# Elastic Constant Matrix: (Units=GPa)
#
#
# Indices 1 2 3 4 5 6 
#
# 1 81.6908 50.2436 59.6691 0.0000 0.0000 0.0000
# 2 50.2436 83.8622 61.5302 0.0000 0.0000 0.0000
# 3 59.6691 61.5302 135.4205 0.0000 0.0000 0.0000
# 4 0.0000 0.0000 0.0000 18.6653 0.0000 0.0000
# 5 0.0000 0.0000 0.0000 0.0000 29.3562 0.0000
# 6 0.0000 0.0000 0.0000 0.0000 0.0000 24.5397
#
#
#
# Elastic Compliance Matrix: (Units=1/GPa)
#
#
# Indices 1 2 3 4 5 6 
#
# 1 0.021821 -0.009029 -0.005512 0.000000 0.000000 0.000000
# 2 -0.009029 0.021623 -0.005847 0.000000 0.000000 0.000000
# 3 -0.005512 -0.005847 0.012470 0.000000 0.000000 0.000000
# 4 0.000000 0.000000 0.000000 0.053575 0.000000 0.000000
# 5 0.000000 0.000000 0.000000 0.000000 0.034064 0.000000
# 6 0.000000 0.000000 0.000000 0.000000 0.000000 0.040750
#
#
# Mechanical properties :
#
#
# Convention : Reuss Voigt Hill
#
# Bulk Modulus (GPa) = 66.05728 71.53993 68.79860
# Shear Modulus (GPa) = 21.72725 23.14760 22.43743
#
# Velocity S-wave (km/s) = 3.52437 3.63774 3.58150
# Velocity P-wave (km/s) = 7.37059 7.65131 7.51226
#
# Compressibility (1/GPa) = 0.01513838
#
# Stress axis : x y z
#
# Youngs Moduli (GPa) = 45.82781 46.24620 80.19433
#
# Poissons Ratio (x) = 0.41755 0.44206
# Poissons Ratio (y) = 0.41377 0.46886
# Poissons Ratio (z) = 0.25262 0.27038
#
# Static dielectric constant tensor:
#      x y z
#    x 1.595580 0.000000 0.000000 
#    y 0.000000 1.585280 0.000000 
#    z 0.000000 0.000000 1.591220 
# 
# From -- ./inp_files/10868.got.cif
#   From: 2010.05.17/outbox.cif.g08.bks.cpg/sg71_6_cif.got.tgz:10868.got - 2010.06.03 16:22:01.
