data_PCOD9521053
_publ_section_title
;
Structure prediction by ZEFSAII (Michael W. Deem and Ramdas Pophale) SiO2 
 PCOD9521053
Probable space group: I M M M
;
_chemical_formula_sum "Si O2"
_cell_formula_units_Z 120
_cell_length_a 8.346733
_cell_length_b 27.996124
_cell_length_c 28.426658
_cell_angle_alpha 90.000000
_cell_angle_beta 90.000000
_cell_angle_gamma 90.000000
_cell_volume 6642.632626
_symmetry_space_group_name_H-M "I M M M"
_symmetry_group_IT_number 71
_symmetry_cell_setting 'orthorhombic'
loop_
_space_group_symop_operation_xyz
x,y,z
-x,-y,z
x,-y,-z
-x,y,-z
-x,-y,-z
x,y,-z
-x,y,z
x,-y,z
1/2+x,1/2+y,1/2+z
1/2-x,1/2-y,1/2+z
1/2+x,1/2-y,1/2-z
1/2-x,1/2+y,1/2-z
1/2-x,1/2-y,1/2-z
1/2+x,1/2+y,1/2-z
1/2-x,1/2+y,1/2+z
1/2+x,1/2-y,1/2+z
loop_
_atom_site_type_symbol
_atom_site_label
_atom_site_fract_x
_atom_site_fract_y
_atom_site_fract_z
Si Si1 0.308119 0.802511 0.737232
Si Si2 0.693525 0.553969 0.811885
Si Si3 0.803885 0.500000 0.554070
Si Si4 0.806965 0.592649 0.388484
Si Si5 0.193352 0.647602 0.140613
Si Si6 0.191158 0.103523 0.215585
Si Si7 0.806506 0.315207 0.554520
Si Si8 0.193265 0.709202 0.946503
O O1 0.500000 0.803616 0.738577
O O2 0.250000 0.750000 0.750000
O O3 0.255414 0.819849 0.685191
O O4 0.242664 0.842388 0.772844
O O5 0.500000 0.554034 0.811631
O O6 0.748487 0.500000 0.821254
O O7 0.749690 0.594137 0.848411
O O8 0.747657 0.571755 0.760021
O O9 0.752638 0.500000 0.500000
O O10 0.750941 0.452523 0.581192
O O11 0.000000 0.500000 0.554155
O O12 0.758081 0.588183 0.334484
O O13 0.749810 0.642265 0.411776
O O14 0.000000 0.593361 0.390915
O O15 0.250637 0.671387 0.092213
O O16 0.000000 0.647406 0.140119
O O17 0.000000 0.100763 0.214170
O O18 0.761235 0.324913 0.500000
O O19 0.742135 0.262964 0.567276
O O20 0.000000 0.313585 0.556306
O O21 0.000000 0.707190 0.947330
O O22 0.251327 0.700725 0.000000
#
# Coordination Sequence:
#
# PCOD9521053 Si02
#       8
#    16  16   8  16  16  16  16  16
#     4  10  20  34  51  74 106 138 172 211 253 304
#     4   9  19  36  56  76 100 132 169 209 255 308
#     4   9  18  34  55  75  99 135 177 223 276 327
#     4  10  20  33  51  76 100 130 173 221 267 314
#     4   9  19  34  52  77 104 133 170 209 250 300
#     4  10  21  35  51  73 102 136 171 210 260 310
#     4   9  18  32  49  71  99 131 170 213 255 302
#     4   9  18  33  53  77 106 137 167 202 248 302
#
# _framework density 18.065127
#
# number of rings (size 3 to 8) (size 9 to 14) (size 15 to 20)
#    0.000    2.600    0.000    1.200    2.800    4.000 
#    0.000    0.000    0.000    2.000    0.000    2.800 
#    0.000    0.000    0.000    0.000    0.000    0.000 
#
# Total GULP energy -334741.733394 kJ/mol
# GULP energy per Si atom -5579.028890 kJ/mol
# Density = 1.802401 g / cm^3
# Si number density = 18.065127 Si / 1000 Ang^3
#
#
#
# Elastic Constant Matrix: (Units=GPa)
#
#
# Indices 1 2 3 4 5 6 
#
# 1 3.1094 13.4789 13.8232 0.0000 0.0000 0.0000
# 2 13.4789 165.0065 95.6488 0.0000 0.0000 0.0000
# 3 13.8232 95.6488 127.3016 0.0000 0.0000 0.0000
# 4 0.0000 0.0000 0.0000 20.4477 0.0000 0.0000
# 5 0.0000 0.0000 0.0000 0.0000 17.7701 0.0000
# 6 0.0000 0.0000 0.0000 0.0000 0.0000 12.6588
#
#
#
# Elastic Compliance Matrix: (Units=1/GPa)
#
#
# Indices 1 2 3 4 5 6 
#
# 1 0.664128 -0.022052 -0.055546 0.000000 0.000000 0.000000
# 2 -0.022052 0.011469 -0.006223 0.000000 0.000000 0.000000
# 3 -0.055546 -0.006223 0.018562 0.000000 0.000000 0.000000
# 4 0.000000 0.000000 0.000000 0.048905 0.000000 0.000000
# 5 0.000000 0.000000 0.000000 0.000000 0.056274 0.000000
# 6 0.000000 0.000000 0.000000 0.000000 0.000000 0.078996
#
#
# Mechanical properties :
#
#
# Convention : Reuss Voigt Hill
#
# Bulk Modulus (GPa) = 1.89927 60.14659 31.02293
# Shear Modulus (GPa) = 4.09339 21.67311 12.88325
#
# Velocity S-wave (km/s) = 1.50693 3.46746 2.67339
# Velocity P-wave (km/s) = 2.02025 7.02834 5.17102
#
# Compressibility (1/GPa) = 0.52651711
#
# Stress axis : x y z
#
# Youngs Moduli (GPa) = 1.50573 87.19345 53.87286
#
# Poissons Ratio (x) = 1.92283 2.99242
# Poissons Ratio (y) = 0.03321 0.33522
# Poissons Ratio (z) = 0.08364 0.54256
#
# Static dielectric constant tensor:
#      x y z
#    x 1.627370 0.000000 0.000000 
#    y 0.000000 1.598670 0.000000 
#    z 0.000000 0.000000 1.616720 
# 
# From -- ./inp_files/63837.got.cif
#   From: 2010.05.17/outbox.cif.g08.bks.cpg/sg71_32_cif.got.tgz:63837.got - 2010.06.03 16:22:01.
