data_PCOD9521560
_publ_section_title
;
Structure prediction by ZEFSAII (Michael W. Deem and Ramdas Pophale) SiO2 
 PCOD9521560
Probable space group: I M M M
;
_chemical_formula_sum "Si O2"
_cell_formula_units_Z 104
_cell_length_a 9.025271
_cell_length_b 30.241177
_cell_length_c 22.904145
_cell_angle_alpha 90.000000
_cell_angle_beta 90.000000
_cell_angle_gamma 90.000000
_cell_volume 6251.338642
_symmetry_space_group_name_H-M "I M M M"
_symmetry_group_IT_number 71
_symmetry_cell_setting 'orthorhombic'
loop_
_space_group_symop_operation_xyz
x,y,z
-x,-y,z
x,-y,-z
-x,y,-z
-x,-y,-z
x,y,-z
-x,y,z
x,-y,z
1/2+x,1/2+y,1/2+z
1/2-x,1/2-y,1/2+z
1/2+x,1/2-y,1/2-z
1/2-x,1/2+y,1/2-z
1/2-x,1/2-y,1/2-z
1/2+x,1/2+y,1/2-z
1/2-x,1/2+y,1/2+z
1/2+x,1/2-y,1/2+z
loop_
_atom_site_type_symbol
_atom_site_label
_atom_site_fract_x
_atom_site_fract_y
_atom_site_fract_z
Si Si1 0.829790 0.712722 0.929061
Si Si2 0.823472 0.303075 0.431015
Si Si3 0.823966 0.878486 0.569397
Si Si4 0.824003 0.947641 0.779710
Si Si5 0.676572 0.051711 0.345579
Si Si6 0.678082 0.100037 0.111304
Si Si7 0.323826 0.552837 0.500000
O O1 0.760315 0.759288 0.910090
O O2 0.737031 0.669589 0.911884
O O3 0.000000 0.708424 0.910583
O O4 0.826484 0.713757 0.000000
O O5 0.789573 0.310130 0.500000
O O6 0.786669 0.348100 0.397561
O O7 0.000000 0.295526 0.426993
O O8 0.794660 0.883350 0.500000
O O9 0.743003 0.916406 0.605616
O O10 0.000000 0.880682 0.578242
O O11 0.753540 0.938738 0.716480
O O12 0.744854 0.919478 0.829575
O O13 0.000000 0.939320 0.778961
O O14 0.801950 0.000000 0.792154
O O15 0.500000 0.057660 0.340728
O O16 0.705257 0.000000 0.359365
O O17 0.500000 0.095252 0.109978
O O18 0.748859 0.073859 0.057003
O O19 0.303800 0.500000 0.500000
O O20 0.500000 0.561991 0.500000
#
# Coordination Sequence:
#
# PCOD9521560 Si02
#       7
#    16  16  16  16  16  16   8
#     4   9  17  29  48  75 104 136 173 212 254 304
#     4   9  17  31  48  70 102 136 172 214 263 314
#     4  10  20  34  54  81 112 144 173 206 254 308
#     4  10  21  37  55  75 101 136 178 220 262 313
#     4  10  21  37  57  80 106 138 176 217 257 302
#     4  11  21  34  52  75 102 136 177 222 269 318
#     4  11  23  35  47  69 103 139 175 221 276 325
#
# _framework density 16.636437000000001
#
# number of rings (size 3 to 8) (size 9 to 14) (size 15 to 20)
#    0.000    2.077    0.769    3.000    0.000    8.615 
#    0.000    1.538    0.000    0.923    0.000    0.000 
#    0.000    0.000    0.000    0.000    0.000    0.000 
#
# Total GULP energy -290233.059002 kJ/mol
# GULP energy per Si atom -5581.404981 kJ/mol
# Density = 1.659857 g / cm^3
# Si number density = 16.636437 Si / 1000 Ang^3
#
#
#
# Elastic Constant Matrix: (Units=GPa)
#
#
# Indices 1 2 3 4 5 6 
#
# 1 101.4205 88.7712 61.9560 0.0000 0.0000 0.0000
# 2 88.7712 132.6711 75.7041 0.0000 0.0000 0.0000
# 3 61.9560 75.7041 70.8534 0.0002 0.0000 0.0000
# 4 0.0000 0.0000 0.0002 -3.2060 0.0000 0.0000
# 5 0.0000 0.0000 0.0000 0.0000 29.6656 0.0000
# 6 0.0000 0.0000 0.0000 0.0000 0.0000 34.2496
#
#
#
# Elastic Compliance Matrix: (Units=1/GPa)
#
#
# Indices 1 2 3 4 5 6 
#
# 1 0.026735 -0.011654 -0.010926 0.000000 0.000000 0.000000
# 2 -0.011654 0.024391 -0.015870 -0.000001 0.000000 0.000000
# 3 -0.010926 -0.015870 0.040624 0.000002 0.000000 0.000000
# 4 0.000000 -0.000001 0.000002 -0.311917 0.000000 0.000000
# 5 0.000000 0.000000 0.000000 0.000000 0.033709 0.000000
# 6 0.000000 0.000000 0.000000 0.000000 0.000000 0.029197
#
#
# Mechanical properties :
#
#
# Convention : Reuss Voigt Hill
#
# Bulk Modulus (GPa) = 67.34042 84.20085 75.77064
# Shear Modulus (GPa) = -66.30414 17.37609 -24.46402
#
# Velocity S-wave (km/s) = -6.31991 3.23532 -3.83888
# Velocity P-wave (km/s) = 3.56223 8.04230 5.09848
#
# Compressibility (1/GPa) = 0.01484992
#
# Stress axis : x y z
#
# Youngs Moduli (GPa) = 37.40428 40.99845 24.61599
#
# Poissons Ratio (x) = 0.47780 0.26894
# Poissons Ratio (y) = 0.43592 0.39066
# Poissons Ratio (z) = 0.40866 0.65066
#
# Static dielectric constant tensor:
#      x y z
#    x 1.553380 0.000000 0.000000 
#    y 0.000000 1.549200 0.000000 
#    z 0.000000 0.000000 1.528830 
# 
# From -- ./inp_files/16960.got.cif
#   From: 2010.05.17/outbox.cif.g08.bks.cpg/sg71_9_cif.got.tgz:16960.got - 2010.06.03 16:22:01.
