data_PCOD9521754
_publ_section_title
;
Structure prediction by ZEFSAII (Michael W. Deem and Ramdas Pophale) SiO2 
 PCOD9521754
Probable space group: I M M M
;
_chemical_formula_sum "Si O2"
_cell_formula_units_Z 92
_cell_length_a 19.498312
_cell_length_b 27.453107
_cell_length_c 9.869224
_cell_angle_alpha 90.000000
_cell_angle_beta 90.000000
_cell_angle_gamma 90.000000
_cell_volume 5282.889470
_symmetry_space_group_name_H-M "I M M M"
_symmetry_group_IT_number 71
_symmetry_cell_setting 'orthorhombic'
loop_
_space_group_symop_operation_xyz
x,y,z
-x,-y,z
x,-y,-z
-x,y,-z
-x,-y,-z
x,y,-z
-x,y,z
x,-y,z
1/2+x,1/2+y,1/2+z
1/2-x,1/2-y,1/2+z
1/2+x,1/2-y,1/2-z
1/2-x,1/2+y,1/2-z
1/2-x,1/2-y,1/2-z
1/2+x,1/2+y,1/2-z
1/2-x,1/2+y,1/2+z
1/2+x,1/2-y,1/2+z
loop_
_atom_site_type_symbol
_atom_site_label
_atom_site_fract_x
_atom_site_fract_y
_atom_site_fract_z
Si Si1 0.687261 0.191687 0.343236
Si Si2 0.855667 0.500000 0.000000
Si Si3 0.419263 0.377404 0.840336
Si Si4 0.420678 0.058672 0.000000
Si Si5 0.166962 0.419258 0.235752
Si Si6 0.819985 0.057678 0.159057
Si Si7 0.654869 0.721094 0.158859
O O1 0.674925 0.203590 0.500000
O O2 0.667370 0.136255 0.315023
O O3 0.649914 0.230757 0.248378
O O4 0.769077 0.198433 0.318257
O O5 0.853456 0.457230 0.880879
O O6 0.500000 0.385272 0.821822
O O7 0.374295 0.412291 0.746721
O O8 0.398711 0.321589 0.810003
O O9 0.402388 0.385550 0.000000
O O10 0.382079 0.076015 0.865432
O O11 0.500000 0.073721 0.000000
O O12 0.417653 0.000000 0.000000
O O13 0.244096 0.431962 0.284308
O O14 0.833182 0.000000 0.171030
O O15 0.822779 0.070894 0.000000
O O16 0.649547 0.733420 0.000000
#
# Coordination Sequence:
#
# PCOD9521754 Si02
#       7
#    16   4  16   8  16  16  16
#     4  10  20  34  58  89 120 146 198 257 305 354
#     4  12  24  34  67  98 129 160 194 258 310 354
#     4  10  22  40  61  86 121 166 211 255 311 372
#     4  11  24  44  64  85 123 161 197 238 295 378
#     4  12  22  39  62  96 122 160 204 250 305 363
#     4  11  23  37  59  89 123 161 208 261 303 360
#     4   9  19  35  55  84 117 157 199 250 305 362
#
# _framework density 17.414712000000002
#
# number of rings (size 3 to 8) (size 9 to 14) (size 15 to 20)
#    0.000    1.478    5.217    0.000    2.435    1.739 
#    0.000    3.478    0.000    1.043    0.000    0.000 
#    0.000    0.000    0.000    0.000    0.000    0.000 
#
# Total GULP energy -256298.494301 kJ/mol
# GULP energy per Si atom -5571.706398 kJ/mol
# Density = 1.737508 g / cm^3
# Si number density = 17.414712 Si / 1000 Ang^3
#
#
#
# Elastic Constant Matrix: (Units=GPa)
#
#
# Indices 1 2 3 4 5 6 
#
# 1 61.8623 22.6209 43.7442 0.0000 0.0000 0.0000
# 2 22.6209 104.3129 57.0885 0.0000 0.0000 0.0000
# 3 43.7442 57.0885 108.8918 0.0000 0.0000 0.0000
# 4 0.0000 0.0000 0.0000 39.1272 0.0000 0.0000
# 5 0.0000 0.0000 0.0000 0.0000 9.5819 0.0000
# 6 0.0000 0.0000 0.0000 0.0000 0.0000 9.6330
#
#
#
# Elastic Compliance Matrix: (Units=1/GPa)
#
#
# Indices 1 2 3 4 5 6 
#
# 1 0.022579 0.000095 -0.009120 0.000000 0.000000 0.000000
# 2 0.000095 0.013444 -0.007087 0.000000 0.000000 0.000000
# 3 -0.009120 -0.007087 0.016563 0.000000 0.000000 0.000000
# 4 0.000000 0.000000 0.000000 0.025558 0.000000 0.000000
# 5 0.000000 0.000000 0.000000 0.000000 0.104364 0.000000
# 6 0.000000 0.000000 0.000000 0.000000 0.000000 0.103810
#
#
# Mechanical properties :
#
#
# Convention : Reuss Voigt Hill
#
# Bulk Modulus (GPa) = 49.11054 57.99713 53.55384
# Shear Modulus (GPa) = 15.36905 21.77598 18.57252
#
# Velocity S-wave (km/s) = 2.97397 3.53999 3.26925
# Velocity P-wave (km/s) = 6.32886 7.07704 6.71338
#
# Compressibility (1/GPa) = 0.02036223
#
# Stress axis : x y z
#
# Youngs Moduli (GPa) = 44.28796 74.38107 60.37712
#
# Poissons Ratio (x) = -0.00706 0.55067
# Poissons Ratio (y) = -0.00420 0.42787
# Poissons Ratio (z) = 0.40393 0.52710
#
# Static dielectric constant tensor:
#      x y z
#    x 1.581580 0.000000 0.000000 
#    y 0.000000 1.573970 0.000000 
#    z 0.000000 0.000000 1.579480 
# 
# From -- ./inp_files/10990.got.cif
#   From: 2010.05.17/outbox.cif.g08.bks.cpg/sg71_6_cif.got.tgz:10990.got - 2010.06.03 16:22:01.
