data_PCOD9521139
_publ_section_title
;
Structure prediction by ZEFSAII (Michael W. Deem and Ramdas Pophale) SiO2 
 PCOD9521139
Probable space group: I M M M
;
_chemical_formula_sum "Si O2"
_cell_formula_units_Z 80
_cell_length_a 13.353249
_cell_length_b 10.692777
_cell_length_c 31.866110
_cell_angle_alpha 90.000000
_cell_angle_beta 90.000000
_cell_angle_gamma 90.000000
_cell_volume 4549.948783
_symmetry_space_group_name_H-M "I M M M"
_symmetry_group_IT_number 71
_symmetry_cell_setting 'orthorhombic'
loop_
_space_group_symop_operation_xyz
x,y,z
-x,-y,z
x,-y,-z
-x,y,-z
-x,-y,-z
x,y,-z
-x,y,z
x,-y,z
1/2+x,1/2+y,1/2+z
1/2-x,1/2-y,1/2+z
1/2+x,1/2-y,1/2-z
1/2-x,1/2+y,1/2-z
1/2-x,1/2-y,1/2-z
1/2+x,1/2+y,1/2-z
1/2-x,1/2+y,1/2+z
1/2+x,1/2-y,1/2+z
loop_
_atom_site_type_symbol
_atom_site_label
_atom_site_fract_x
_atom_site_fract_y
_atom_site_fract_z
Si Si1 0.817256 0.143445 0.888091
Si Si2 0.379250 0.859714 0.451182
Si Si3 0.887564 0.360918 0.343392
Si Si4 0.884849 0.756096 0.798507
Si Si5 0.820815 0.865386 0.713632
O O1 0.842367 0.246677 0.922605
O O2 0.698982 0.148257 0.877795
O O3 0.869634 0.182865 0.844218
O O4 0.844348 0.000000 0.898963
O O5 0.350178 0.844615 0.500000
O O6 0.500000 0.858683 0.449606
O O7 0.347034 0.000000 0.437235
O O8 0.876582 0.500000 0.323800
O O9 0.868923 0.251525 0.310284
O O10 0.000000 0.351392 0.360099
O O11 0.854518 0.852608 0.761783
O O12 0.798821 0.651698 0.792173
O O13 0.000000 0.716168 0.793549
O O14 0.852047 0.000000 0.696849
#
# Coordination Sequence:
#
# PCOD9521139 Si02
#       5
#    16  16  16  16  16
#     4  10  20  33  52  78 102 127 166 211 250 293
#     4   9  19  36  55  75 103 136 163 193 244 306
#     4   9  19  36  54  72 101 139 172 206 252 299
#     4  10  21  34  48  70 104 139 166 204 259 304
#     4  10  21  35  51  73  99 132 178 220 249 287
#
# _framework density 17.582615000000001
#
# number of rings (size 3 to 8) (size 9 to 14) (size 15 to 20)
#    0.000    2.400    0.000    2.400    0.000   12.800 
#    0.000    1.000    0.000    0.600    0.000    4.200 
#    0.000    0.000    0.000    0.000    0.000    0.000 
#
# Total GULP energy -222971.022264 kJ/mol
# GULP energy per Si atom -5574.275557 kJ/mol
# Density = 1.754260 g / cm^3
# Si number density = 17.582615 Si / 1000 Ang^3
#
#
#
# Elastic Constant Matrix: (Units=GPa)
#
#
# Indices 1 2 3 4 5 6 
#
# 1 90.4083 21.2613 24.7567 0.0000 0.0000 0.0000
# 2 21.2613 151.7203 76.0172 0.0000 0.0000 0.0000
# 3 24.7567 76.0172 81.8620 0.0000 0.0000 0.0000
# 4 0.0000 0.0000 0.0000 3.7676 0.0000 0.0000
# 5 0.0000 0.0000 0.0000 0.0000 8.9524 0.0000
# 6 0.0000 0.0000 0.0000 0.0000 0.0000 8.0262
#
#
#
# Elastic Compliance Matrix: (Units=1/GPa)
#
#
# Indices 1 2 3 4 5 6 
#
# 1 0.012065 0.000257 -0.003887 0.000000 0.000000 0.000000
# 2 0.000257 0.012331 -0.011529 0.000000 0.000000 0.000000
# 3 -0.003887 -0.011529 0.024097 0.000000 0.000000 0.000000
# 4 0.000000 0.000000 0.000000 0.265417 0.000000 0.000000
# 5 0.000000 0.000000 0.000000 0.000000 0.111702 0.000000
# 6 0.000000 0.000000 0.000000 0.000000 0.000000 0.124591
#
#
# Mechanical properties :
#
#
# Convention : Reuss Voigt Hill
#
# Bulk Modulus (GPa) = 55.02010 63.11789 59.06899
# Shear Modulus (GPa) = 8.52398 17.61294 13.06846
#
# Velocity S-wave (km/s) = 2.20420 3.16844 2.72924
# Velocity P-wave (km/s) = 6.15128 7.02575 6.60301
#
# Compressibility (1/GPa) = 0.01817518
#
# Stress axis : x y z
#
# Youngs Moduli (GPa) = 82.88458 81.09460 41.49943
#
# Poissons Ratio (x) = -0.02084 0.16132
# Poissons Ratio (y) = -0.02130 0.47843
# Poissons Ratio (z) = 0.32220 0.93490
#
# Static dielectric constant tensor:
#      x y z
#    x 1.621430 0.000000 0.000000 
#    y 0.000000 1.627470 0.000000 
#    z 0.000000 0.000000 1.575340 
# 
# From -- ./inp_files/65265.got.cif
#   From: 2010.05.17/outbox.cif.g08.bks.cpg/sg71_33_cif.got.tgz:65265.got - 2010.06.03 16:22:01.
