data_PCOD9521625
_publ_section_title
;
Structure prediction by ZEFSAII (Michael W. Deem and Ramdas Pophale) SiO2 
 PCOD9521625
Probable space group: I M M M
;
_chemical_formula_sum "Si O2"
_cell_formula_units_Z 116
_cell_length_a 22.486136
_cell_length_b 8.903396
_cell_length_c 33.230065
_cell_angle_alpha 90.000000
_cell_angle_beta 90.000000
_cell_angle_gamma 90.000000
_cell_volume 6652.757817
_symmetry_space_group_name_H-M "I M M M"
_symmetry_group_IT_number 71
_symmetry_cell_setting 'orthorhombic'
loop_
_space_group_symop_operation_xyz
x,y,z
-x,-y,z
x,-y,-z
-x,y,-z
-x,-y,-z
x,y,-z
-x,y,z
x,-y,z
1/2+x,1/2+y,1/2+z
1/2-x,1/2-y,1/2+z
1/2+x,1/2-y,1/2-z
1/2-x,1/2+y,1/2-z
1/2-x,1/2-y,1/2-z
1/2+x,1/2+y,1/2-z
1/2-x,1/2+y,1/2+z
1/2+x,1/2-y,1/2+z
loop_
_atom_site_type_symbol
_atom_site_label
_atom_site_fract_x
_atom_site_fract_y
_atom_site_fract_z
Si Si1 0.570955 0.673274 0.322946
Si Si2 0.715901 0.678550 0.900167
Si Si3 0.273375 0.179469 0.187299
Si Si4 0.569850 0.179569 0.408470
Si Si5 0.321371 0.679696 0.546938
Si Si6 0.160880 0.321031 0.232856
Si Si7 0.000000 0.733389 0.500000
Si Si8 0.378900 0.176874 0.044164
O O1 0.500000 0.676966 0.318932
O O2 0.590081 0.500000 0.327197
O O3 0.586091 0.762876 0.363705
O O4 0.601816 0.748458 0.284842
O O5 0.721212 0.500000 0.898156
O O6 0.715412 0.748261 0.855758
O O7 0.771109 0.745923 0.925257
O O8 0.656358 0.727403 0.923736
O O9 0.214125 0.249572 0.206729
O O10 0.324557 0.209896 0.220465
O O11 0.266628 0.000000 0.183583
O O12 0.500000 0.216419 0.415383
O O13 0.614629 0.258788 0.439005
O O14 0.576331 0.000000 0.410522
O O15 0.311569 0.714954 0.500000
O O16 0.319144 0.500000 0.551994
O O17 0.160564 0.500000 0.227270
O O18 0.946687 0.723863 0.534371
O O19 0.378264 0.000000 0.054511
O O20 0.348231 0.191538 0.000000
#
# Coordination Sequence:
#
# PCOD9521625 Si02
#       8
#    16  16  16  16  16  16   4  16
#     4  10  20  34  55  81 110 145 181 220 266 318
#     4  12  24  36  54  82 115 147 180 227 278 323
#     4  10  21  37  57  80 108 144 181 219 268 327
#     4  10  21  37  57  81 110 145 185 230 276 324
#     4  11  24  40  57  78 107 146 188 230 276 328
#     4  10  20  35  57  83 109 138 177 224 272 321
#     4   8  17  36  65  90 109 144 187 226 265 324
#     4   9  17  34  59  84 109 140 181 222 266 321
#
# _framework density 17.436377
#
# number of rings (size 3 to 8) (size 9 to 14) (size 15 to 20)
#    0.414    1.379    0.000    4.966    0.000    6.621 
#    0.000    2.069    1.517    0.000    0.000    0.000 
#    0.000    0.000    0.000    0.000    0.000    0.000 
#
# Total GULP energy -323177.949682 kJ/mol
# GULP energy per Si atom -5572.033615 kJ/mol
# Density = 1.739669 g / cm^3
# Si number density = 17.436377 Si / 1000 Ang^3
#
#
#
# Elastic Constant Matrix: (Units=GPa)
#
#
# Indices 1 2 3 4 5 6 
#
# 1 59.6926 39.3136 50.0556 0.0000 0.0000 0.0000
# 2 39.3136 80.0090 64.2260 0.0000 0.0000 0.0000
# 3 50.0556 64.2260 125.6490 0.0000 0.0000 0.0000
# 4 0.0000 0.0000 0.0000 26.5161 0.0000 0.0000
# 5 0.0000 0.0000 0.0000 0.0000 29.6621 0.0000
# 6 0.0000 0.0000 0.0000 0.0000 0.0000 18.7273
#
#
#
# Elastic Compliance Matrix: (Units=1/GPa)
#
#
# Indices 1 2 3 4 5 6 
#
# 1 0.027966 -0.008137 -0.006982 0.000000 0.000000 0.000000
# 2 -0.008137 0.023563 -0.008803 0.000000 0.000000 0.000000
# 3 -0.006982 -0.008803 0.015240 0.000000 0.000000 0.000000
# 4 0.000000 0.000000 0.000000 0.037713 0.000000 0.000000
# 5 0.000000 0.000000 0.000000 0.000000 0.033713 0.000000
# 6 0.000000 0.000000 0.000000 0.000000 0.000000 0.053398
#
#
# Mechanical properties :
#
#
# Convention : Reuss Voigt Hill
#
# Bulk Modulus (GPa) = 52.83815 63.61566 58.22691
# Shear Modulus (GPa) = 20.34631 22.43145 21.38888
#
# Velocity S-wave (km/s) = 3.41968 3.59064 3.50620
# Velocity P-wave (km/s) = 6.77949 7.33170 7.06100
#
# Compressibility (1/GPa) = 0.01892572
#
# Stress axis : x y z
#
# Youngs Moduli (GPa) = 35.75745 42.43918 65.61837
#
# Poissons Ratio (x) = 0.34533 0.45813
# Poissons Ratio (y) = 0.29096 0.57762
# Poissons Ratio (z) = 0.24965 0.37358
#
# Static dielectric constant tensor:
#      x y z
#    x 1.588880 0.000000 0.000000 
#    y 0.000000 1.588380 0.000000 
#    z 0.000000 0.000000 1.575310 
# 
# From -- ./inp_files/66911.got.cif
#   From: 2010.05.17/outbox.cif.g08.bks.cpg/sg71_34_cif.got.tgz:66911.got - 2010.06.03 16:22:01.
