data_PCOD9521565
_publ_section_title
;
Structure prediction by ZEFSAII (Michael W. Deem and Ramdas Pophale) SiO2 
 PCOD9521565
Probable space group: I M M M
;
_chemical_formula_sum "Si O2"
_cell_formula_units_Z 104
_cell_length_a 21.454714
_cell_length_b 8.834987
_cell_length_c 28.838123
_cell_angle_alpha 90.000000
_cell_angle_beta 90.000000
_cell_angle_gamma 90.000000
_cell_volume 5466.327331
_symmetry_space_group_name_H-M "I M M M"
_symmetry_group_IT_number 71
_symmetry_cell_setting 'orthorhombic'
loop_
_space_group_symop_operation_xyz
x,y,z
-x,-y,z
x,-y,-z
-x,y,-z
-x,-y,-z
x,y,-z
-x,y,z
x,-y,z
1/2+x,1/2+y,1/2+z
1/2-x,1/2-y,1/2+z
1/2+x,1/2-y,1/2-z
1/2-x,1/2+y,1/2-z
1/2-x,1/2-y,1/2-z
1/2+x,1/2+y,1/2-z
1/2-x,1/2+y,1/2+z
1/2+x,1/2-y,1/2+z
loop_
_atom_site_type_symbol
_atom_site_label
_atom_site_fract_x
_atom_site_fract_y
_atom_site_fract_z
Si Si1 0.377620 0.820026 0.945883
Si Si2 0.256030 0.175560 0.555539
Si Si3 0.569558 0.319976 0.858160
Si Si4 0.625919 0.681688 0.393167
Si Si5 0.816947 0.320031 0.302080
Si Si6 0.683792 0.820143 0.307119
Si Si7 0.500000 0.315744 0.446235
O O1 0.307366 0.765952 0.934526
O O2 0.422378 0.733018 0.911101
O O3 0.382759 0.000000 0.939280
O O4 0.389080 0.785721 0.000000
O O5 0.264815 0.179790 0.500000
O O6 0.315384 0.249837 0.579462
O O7 0.249115 0.000000 0.569707
O O8 0.500000 0.280878 0.841715
O O9 0.577719 0.500000 0.854998
O O10 0.623510 0.238113 0.829600
O O11 0.628839 0.500000 0.393983
O O12 0.634619 0.740385 0.340829
O O13 0.562181 0.730225 0.418565
O O14 0.809409 0.500000 0.307700
O O15 0.753346 0.239653 0.318259
O O16 0.825723 0.286882 0.247316
O O17 0.681259 0.000000 0.313836
O O18 0.500000 0.500000 0.447310
O O19 0.500000 0.264602 0.500000
#
# Coordination Sequence:
#
# PCOD9521565 Si02
#       7
#    16  16  16  16  16  16   8
#     4  10  21  37  58  84 113 147 189 235 279 328
#     4  10  20  34  54  81 113 147 185 233 287 338
#     4  11  24  40  58  82 114 153 190 228 278 334
#     4  11  21  35  57  83 112 149 192 238 287 343
#     4  10  21  39  63  88 114 148 189 235 284 338
#     4  10  21  38  61  88 117 146 182 233 290 344
#     4   9  20  38  57  79 111 153 199 243 286 339
#
# _framework density 19.025572
#
# number of rings (size 3 to 8) (size 9 to 14) (size 15 to 20)
#    0.000    1.769    0.000    4.154    0.000    5.846 
#    1.385    3.077    0.000    2.769    0.000    0.000 
#    0.000    0.000    0.000    0.000    0.000    0.000 
#
# Total GULP energy -290648.244590 kJ/mol
# GULP energy per Si atom -5589.389319 kJ/mol
# Density = 1.898227 g / cm^3
# Si number density = 19.025572 Si / 1000 Ang^3
#
#
#
# Elastic Constant Matrix: (Units=GPa)
#
#
# Indices 1 2 3 4 5 6 
#
# 1 77.1512 12.0028 42.4704 0.0000 0.0000 0.0000
# 2 12.0028 34.9554 19.7450 0.0000 0.0000 0.0000
# 3 42.4704 19.7450 70.4521 0.0000 0.0000 0.0000
# 4 0.0000 0.0000 0.0000 33.7722 0.0000 0.0000
# 5 0.0000 0.0000 0.0000 0.0000 22.6454 0.0000
# 6 0.0000 0.0000 0.0000 0.0000 0.0000 24.8813
#
#
#
# Elastic Compliance Matrix: (Units=1/GPa)
#
#
# Indices 1 2 3 4 5 6 
#
# 1 0.019399 -0.000066 -0.011676 0.000000 0.000000 0.000000
# 2 -0.000066 0.033989 -0.009486 0.000000 0.000000 0.000000
# 3 -0.011676 -0.009486 0.023891 0.000000 0.000000 0.000000
# 4 0.000000 0.000000 0.000000 0.029610 0.000000 0.000000
# 5 0.000000 0.000000 0.000000 0.000000 0.044159 0.000000
# 6 0.000000 0.000000 0.000000 0.000000 0.000000 0.040191
#
#
# Mechanical properties :
#
#
# Convention : Reuss Voigt Hill
#
# Bulk Modulus (GPa) = 28.71623 36.77724 32.74674
# Shear Modulus (GPa) = 20.38298 23.48246 21.93272
#
# Velocity S-wave (km/s) = 3.27669 3.51701 3.39898
# Velocity P-wave (km/s) = 5.42604 5.98873 5.71431
#
# Compressibility (1/GPa) = 0.03482352
#
# Stress axis : x y z
#
# Youngs Moduli (GPa) = 51.54862 29.42143 41.85662
#
# Poissons Ratio (x) = 0.00194 0.48871
# Poissons Ratio (y) = 0.00340 0.39705
# Poissons Ratio (z) = 0.60187 0.27909
#
# Static dielectric constant tensor:
#      x y z
#    x 1.628740 0.000000 0.000000 
#    y 0.000000 1.634260 0.000000 
#    z 0.000000 0.000000 1.684710 
# 
# From -- ./inp_files/17004.got.cif
#   From: 2010.05.17/outbox.cif.g08.bks.cpg/sg71_9_cif.got.tgz:17004.got - 2010.06.03 16:22:01.
