data_PCOD9521299
_publ_section_title
;
Structure prediction by ZEFSAII (Michael W. Deem and Ramdas Pophale) SiO2 
 PCOD9521299
Probable space group: I M M M
;
_chemical_formula_sum "Si O2"
_cell_formula_units_Z 96
_cell_length_a 22.414905
_cell_length_b 15.505930
_cell_length_c 15.285661
_cell_angle_alpha 90.000000
_cell_angle_beta 90.000000
_cell_angle_gamma 90.000000
_cell_volume 5312.744683
_symmetry_space_group_name_H-M "I M M M"
_symmetry_group_IT_number 71
_symmetry_cell_setting 'orthorhombic'
loop_
_space_group_symop_operation_xyz
x,y,z
-x,-y,z
x,-y,-z
-x,y,-z
-x,-y,-z
x,y,-z
-x,y,z
x,-y,z
1/2+x,1/2+y,1/2+z
1/2-x,1/2-y,1/2+z
1/2+x,1/2-y,1/2-z
1/2-x,1/2+y,1/2-z
1/2-x,1/2-y,1/2-z
1/2+x,1/2+y,1/2-z
1/2-x,1/2+y,1/2+z
1/2+x,1/2-y,1/2+z
loop_
_atom_site_type_symbol
_atom_site_label
_atom_site_fract_x
_atom_site_fract_y
_atom_site_fract_z
Si Si1 0.760712 0.776714 0.150223
Si Si2 0.133995 0.903405 0.105881
Si Si3 0.000000 0.122410 0.099384
Si Si4 0.901185 0.598311 0.777591
Si Si5 0.209484 0.405474 0.903886
Si Si6 0.651217 0.896708 0.099483
Si Si7 0.000000 0.673658 0.099118
O O1 0.750000 0.750000 0.250000
O O2 0.824044 0.826372 0.140010
O O3 0.756520 0.684870 0.101055
O O4 0.711558 0.843380 0.115134
O O5 0.064966 0.900732 0.137670
O O6 0.157897 0.000000 0.125745
O O7 0.132831 0.894155 0.000000
O O8 0.000000 0.224528 0.092773
O O9 0.000000 0.088361 0.000000
O O10 0.922939 0.500000 0.773467
O O11 0.836997 0.598135 0.824612
O O12 0.893082 0.629611 0.678267
O O13 0.943576 0.647506 0.843351
O O14 0.240514 0.500000 0.897159
O O15 0.179131 0.405857 0.000000
O O16 0.661941 0.000000 0.109881
O O17 0.630130 0.882744 0.000000
O O18 0.000000 0.637289 0.000000
#
# Coordination Sequence:
#
# PCOD9521299 Si02
#       7
#    16  16   8  16  16  16   8
#     4  12  22  33  54  79 111 149 190 239 284 341
#     4  10  20  35  56  83 114 149 191 234 281 342
#     4   9  19  33  53  80 113 150 182 221 278 337
#     4  10  20  34  51  76 106 141 186 231 278 335
#     4  10  20  34  51  73 107 144 177 218 272 332
#     4  10  21  38  57  77 106 146 191 240 290 339
#     4  11  21  33  54  81 113 148 184 225 279 352
#
# _framework density 18.069756999999999
#
# number of rings (size 3 to 8) (size 9 to 14) (size 15 to 20)
#    0.000    1.667    1.667    4.000    0.000    5.667 
#    0.000    0.417    0.000    2.000    0.000    0.000 
#    0.000    0.000    0.000    1.500    0.000    0.000 
#
# Total GULP energy -267364.790293 kJ/mol
# GULP energy per Si atom -5570.099798 kJ/mol
# Density = 1.802863 g / cm^3
# Si number density = 18.069757 Si / 1000 Ang^3
#
#
#
# Elastic Constant Matrix: (Units=GPa)
#
#
# Indices 1 2 3 4 5 6 
#
# 1 52.7769 40.8609 26.9671 0.0000 0.0000 0.0000
# 2 40.8609 108.1500 36.3752 0.0000 0.0000 0.0000
# 3 26.9671 36.3752 133.8050 0.0000 0.0000 0.0000
# 4 0.0000 0.0000 0.0000 20.6782 0.0000 0.0000
# 5 0.0000 0.0000 0.0000 0.0000 18.2580 0.0000
# 6 0.0000 0.0000 0.0000 0.0000 0.0000 30.4458
#
#
#
# Elastic Compliance Matrix: (Units=1/GPa)
#
#
# Indices 1 2 3 4 5 6 
#
# 1 0.027855 -0.009505 -0.003030 0.000000 0.000000 0.000000
# 2 -0.009505 0.013420 -0.001733 0.000000 0.000000 0.000000
# 3 -0.003030 -0.001733 0.008555 0.000000 0.000000 0.000000
# 4 0.000000 0.000000 0.000000 0.048360 0.000000 0.000000
# 5 0.000000 0.000000 0.000000 0.000000 0.054771 0.000000
# 6 0.000000 0.000000 0.000000 0.000000 0.000000 0.032845
#
#
# Mechanical properties :
#
#
# Convention : Reuss Voigt Hill
#
# Bulk Modulus (GPa) = 46.95891 55.90428 51.43160
# Shear Modulus (GPa) = 22.57950 26.57831 24.57890
#
# Velocity S-wave (km/s) = 3.53877 3.83936 3.69212
# Velocity P-wave (km/s) = 6.53767 7.11754 6.83376
#
# Compressibility (1/GPa) = 0.02129521
#
# Stress axis : x y z
#
# Youngs Moduli (GPa) = 35.90048 74.51387 116.88719
#
# Poissons Ratio (x) = 0.70825 0.35416
# Poissons Ratio (y) = 0.34123 0.20253
# Poissons Ratio (z) = 0.10878 0.12911
#
# Static dielectric constant tensor:
#      x y z
#    x 1.646600 0.000000 0.000000 
#    y 0.000000 1.658790 0.000000 
#    z 0.000000 0.000000 1.655790 
# 
# From -- ./inp_files/39187.got.cif
#   From: 2010.05.17/outbox.cif.g08.bks.cpg/sg71_20_cif.got.tgz:39187.got - 2010.06.03 16:22:01.
