data_PCOD9521109
_publ_section_title
;
Structure prediction by ZEFSAII (Michael W. Deem and Ramdas Pophale) SiO2 
 PCOD9521109
Probable space group: I M M M
;
_chemical_formula_sum "Si O2"
_cell_formula_units_Z 112
_cell_length_a 23.269534
_cell_length_b 17.371583
_cell_length_c 13.900026
_cell_angle_alpha 90.000000
_cell_angle_beta 90.000000
_cell_angle_gamma 90.000000
_cell_volume 5618.788623
_symmetry_space_group_name_H-M "I M M M"
_symmetry_group_IT_number 71
_symmetry_cell_setting 'orthorhombic'
loop_
_space_group_symop_operation_xyz
x,y,z
-x,-y,z
x,-y,-z
-x,y,-z
-x,-y,-z
x,y,-z
-x,y,z
x,-y,z
1/2+x,1/2+y,1/2+z
1/2-x,1/2-y,1/2+z
1/2+x,1/2-y,1/2-z
1/2-x,1/2+y,1/2-z
1/2-x,1/2-y,1/2-z
1/2+x,1/2+y,1/2-z
1/2-x,1/2+y,1/2+z
1/2+x,1/2-y,1/2+z
loop_
_atom_site_type_symbol
_atom_site_label
_atom_site_fract_x
_atom_site_fract_y
_atom_site_fract_z
Si Si1 0.432384 0.828308 0.886546
Si Si2 0.401858 0.412375 0.612465
Si Si3 0.339299 0.087262 0.763104
Si Si4 0.064458 0.841540 0.300200
Si Si5 0.270679 0.627783 0.613370
Si Si6 0.324369 0.585285 0.115151
Si Si7 0.782676 0.691230 0.114653
O O1 0.500000 0.847808 0.878797
O O2 0.391631 0.886902 0.830793
O O3 0.424328 0.744338 0.838419
O O4 0.417690 0.823845 0.000000
O O5 0.411536 0.394632 0.500000
O O6 0.421781 0.500000 0.630789
O O7 0.430357 0.353043 0.685693
O O8 0.333109 0.408952 0.629506
O O9 0.281223 0.093661 0.826246
O O10 0.330557 0.147630 0.676452
O O11 0.346212 0.000000 0.728503
O O12 0.113898 0.895360 0.342447
O O13 0.000000 0.862830 0.331004
O O14 0.257458 0.620161 0.500000
O O15 0.277453 0.718605 0.635456
O O16 0.304918 0.500000 0.145151
O O17 0.277264 0.649064 0.140365
O O18 0.329015 0.586092 0.000000
O O19 0.792057 0.682402 0.000000
#
# Coordination Sequence:
#
# PCOD9521109 Si02
#       7
#    16  16  16  16  16  16  16
#     4  10  23  43  63  84 113 147 185 234 289 340
#     4  10  21  36  54  81 120 157 187 231 290 341
#     4  12  23  35  59  90 118 150 189 233 282 341
#     4  11  22  37  58  79 103 145 199 242 278 331
#     4  10  20  35  57  83 112 148 191 238 285 336
#     4  10  20  33  51  79 115 149 182 229 290 343
#     4  10  21  38  60  85 116 154 193 233 279 335
#
# _framework density 19.933122999999998
#
# number of rings (size 3 to 8) (size 9 to 14) (size 15 to 20)
#    0.000    1.571    0.000    5.143    0.000    6.286 
#    0.000    2.143    0.000    1.286    0.000    1.000 
#    0.000    0.000    0.000    0.000    0.000    0.000 
#
# Total GULP energy -313191.022869 kJ/mol
# GULP energy per Si atom -5592.696837 kJ/mol
# Density = 1.988775 g / cm^3
# Si number density = 19.933123 Si / 1000 Ang^3
#
#
#
# Elastic Constant Matrix: (Units=GPa)
#
#
# Indices 1 2 3 4 5 6 
#
# 1 50.7523 23.9789 31.5322 0.0000 0.0000 0.0000
# 2 23.9789 73.2597 24.2052 0.0000 0.0000 0.0000
# 3 31.5322 24.2052 64.8838 0.0000 0.0000 0.0000
# 4 0.0000 0.0000 0.0000 17.9779 0.0000 0.0000
# 5 0.0000 0.0000 0.0000 0.0000 29.5045 0.0000
# 6 0.0000 0.0000 0.0000 0.0000 0.0000 241.3016
#
#
#
# Elastic Compliance Matrix: (Units=1/GPa)
#
#
# Indices 1 2 3 4 5 6 
#
# 1 0.030207 -0.005745 -0.012537 0.000000 0.000000 0.000000
# 2 -0.005745 0.016662 -0.003424 0.000000 0.000000 0.000000
# 3 -0.012537 -0.003424 0.022782 0.000000 0.000000 0.000000
# 4 0.000000 0.000000 0.000000 0.055624 0.000000 0.000000
# 5 0.000000 0.000000 0.000000 0.000000 0.033893 0.000000
# 6 0.000000 0.000000 0.000000 0.000000 0.000000 0.004144
#
#
# Mechanical properties :
#
#
# Convention : Reuss Voigt Hill
#
# Bulk Modulus (GPa) = 38.11029 38.70315 38.40672
# Shear Modulus (GPa) = 23.20515 65.03543 44.12029
#
# Velocity S-wave (km/s) = 3.41567 5.71819 4.70980
# Velocity P-wave (km/s) = 5.89205 7.94075 6.99184
#
# Compressibility (1/GPa) = 0.02623964
#
# Stress axis : x y z
#
# Youngs Moduli (GPa) = 33.10505 60.01793 43.89429
#
# Poissons Ratio (x) = 0.34480 0.55029
# Poissons Ratio (y) = 0.19019 0.15028
# Poissons Ratio (z) = 0.41503 0.20549
#
# Static dielectric constant tensor:
#      x y z
#    x 1.683210 0.000000 0.000000 
#    y 0.000000 1.682970 0.000000 
#    z 0.000000 0.000000 1.733620 
# 
# From -- ./inp_files/34854.got.cif
#   From: 2010.05.17/outbox.cif.g08.bks.cpg/sg71_18_cif.got.tgz:34854.got - 2010.06.03 16:22:01.
