data_PCOD9521185
_publ_section_title
;
Structure prediction by ZEFSAII (Michael W. Deem and Ramdas Pophale) SiO2 
 PCOD9521185
Probable space group: I M M M
;
_chemical_formula_sum "Si O2"
_cell_formula_units_Z 58
_cell_length_a 7.449252
_cell_length_b 14.415006
_cell_length_c 25.845408
_cell_angle_alpha 90.000000
_cell_angle_beta 90.000000
_cell_angle_gamma 90.000000
_cell_volume 2775.306074
_symmetry_space_group_name_H-M "I M M M"
_symmetry_group_IT_number 71
_symmetry_cell_setting 'orthorhombic'
loop_
_space_group_symop_operation_xyz
x,y,z
-x,-y,z
x,-y,-z
-x,y,-z
-x,-y,-z
x,y,-z
-x,y,z
x,-y,z
1/2+x,1/2+y,1/2+z
1/2-x,1/2-y,1/2+z
1/2+x,1/2-y,1/2-z
1/2-x,1/2+y,1/2-z
1/2-x,1/2-y,1/2-z
1/2+x,1/2+y,1/2-z
1/2-x,1/2+y,1/2+z
1/2+x,1/2-y,1/2+z
loop_
_atom_site_type_symbol
_atom_site_label
_atom_site_fract_x
_atom_site_fract_y
_atom_site_fract_z
Si Si1 0.286126 0.188119 0.299653
Si Si2 0.000000 0.500000 0.000000
Si Si3 0.204033 0.831086 0.500000
Si Si4 0.282116 0.000000 0.251000
Si Si5 0.287859 0.500000 0.627718
Si Si6 0.781929 0.795771 0.900771
O O1 0.500000 0.178751 0.307088
O O2 0.250000 0.250000 0.250000
O O3 0.216368 0.088520 0.282700
O O4 0.217231 0.238856 0.350519
O O5 0.843470 0.583468 0.000000
O O6 0.230766 0.763298 0.549267
O O7 0.000000 0.866065 0.500000
O O8 0.232066 0.000000 0.190337
O O9 0.500000 0.000000 0.250942
O O10 0.500000 0.500000 0.617070
O O11 0.217828 0.597413 0.604621
O O12 0.000000 0.799263 0.899294
#
# Coordination Sequence:
#
# PCOD9521185 Si02
#       6
#    16   2   8   8   8  16
#     4  10  20  34  57  88 127 175 222 276 343 403
#     4  12  26  56  80  96 148 164 222 296 344 390
#     4  12  27  48  78 107 130 179 231 277 350 412
#     4  10  20  33  52  89 129 171 218 272 338 401
#     4  10  20  35  64  95 131 184 226 265 344 414
#     4  10  21  41  64  96 137 182 227 288 348 405
#
# _framework density 20.898595
#
# number of rings (size 3 to 8) (size 9 to 14) (size 15 to 20)
#    0.000    1.655    4.138    0.207    0.000    3.862 
#    2.483    2.759    0.000    0.000    0.000    0.000 
#    0.000    0.000    0.000    0.000    0.000    0.000 
#
# Total GULP energy -161642.390270 kJ/mol
# GULP energy per Si atom -5573.875527 kJ/mol
# Density = 2.085103 g / cm^3
# Si number density = 20.898595 Si / 1000 Ang^3
#
#
#
# Elastic Constant Matrix: (Units=GPa)
#
#
# Indices 1 2 3 4 5 6 
#
# 1 102.3757 43.5234 11.9624 0.0000 0.0000 0.0000
# 2 43.5234 257.4910 108.7052 0.0000 0.0000 0.0000
# 3 11.9624 108.7052 168.3004 0.0000 0.0000 0.0000
# 4 0.0000 0.0000 0.0000 17.9375 0.0000 0.0000
# 5 0.0000 0.0000 0.0000 0.0000 23.1382 0.0000
# 6 0.0000 0.0000 0.0000 0.0000 0.0000 9.9801
#
#
#
# Elastic Compliance Matrix: (Units=1/GPa)
#
#
# Indices 1 2 3 4 5 6 
#
# 1 0.010562 -0.002019 0.000553 0.000000 0.000000 0.000000
# 2 -0.002019 0.005726 -0.003555 0.000000 0.000000 0.000000
# 3 0.000553 -0.003555 0.008198 0.000000 0.000000 0.000000
# 4 0.000000 0.000000 0.000000 0.055749 0.000000 0.000000
# 5 0.000000 0.000000 0.000000 0.000000 0.043219 0.000000
# 6 0.000000 0.000000 0.000000 0.000000 0.000000 0.100199
#
#
# Mechanical properties :
#
#
# Convention : Reuss Voigt Hill
#
# Bulk Modulus (GPa) = 69.22755 95.17213 82.19984
# Shear Modulus (GPa) = 20.96366 34.47623 27.71995
#
# Velocity S-wave (km/s) = 3.17063 4.06605 3.64593
# Velocity P-wave (km/s) = 6.82651 8.22694 7.55922
#
# Compressibility (1/GPa) = 0.01444512
#
# Stress axis : x y z
#
# Youngs Moduli (GPa) = 94.68312 174.65663 121.97551
#
# Poissons Ratio (x) = 0.35259 -0.06748
# Poissons Ratio (y) = 0.19114 0.43358
# Poissons Ratio (z) = -0.05238 0.62084
#
# Static dielectric constant tensor:
#      x y z
#    x 1.716690 0.000000 0.000000 
#    y 0.000000 1.682750 0.000000 
#    z 0.000000 0.000000 1.701910 
# 
# From -- ./inp_files/3434.got.cif
#   From: 2010.05.17/outbox.cif.g08.bks.cpg/sg71_2_cif.got.tgz:3434.got - 2010.06.03 16:22:01.
