data_PCOD9521950
_publ_section_title
;
Structure prediction by ZEFSAII (Michael W. Deem and Ramdas Pophale) SiO2 
 PCOD9521950
Probable space group: I M M M
;
_chemical_formula_sum "Si O2"
_cell_formula_units_Z 72
_cell_length_a 18.098966
_cell_length_b 13.984508
_cell_length_c 13.927906
_cell_angle_alpha 90.000000
_cell_angle_beta 90.000000
_cell_angle_gamma 90.000000
_cell_volume 3525.224526
_symmetry_space_group_name_H-M "I M M M"
_symmetry_group_IT_number 71
_symmetry_cell_setting 'orthorhombic'
loop_
_space_group_symop_operation_xyz
x,y,z
-x,-y,z
x,-y,-z
-x,y,-z
-x,-y,-z
x,y,-z
-x,y,z
x,-y,z
1/2+x,1/2+y,1/2+z
1/2-x,1/2-y,1/2+z
1/2+x,1/2-y,1/2-z
1/2-x,1/2+y,1/2-z
1/2-x,1/2-y,1/2-z
1/2+x,1/2+y,1/2-z
1/2-x,1/2+y,1/2+z
1/2+x,1/2-y,1/2+z
loop_
_atom_site_type_symbol
_atom_site_label
_atom_site_fract_x
_atom_site_fract_y
_atom_site_fract_z
Si Si1 0.500000 0.396495 0.115384
Si Si2 0.699936 0.390861 0.759023
Si Si3 0.087670 0.789065 0.115007
Si Si4 0.129111 0.247125 0.387826
Si Si5 0.624854 0.892754 0.259392
O O1 0.500000 0.500000 0.160486
O O2 0.570353 0.334748 0.137653
O O3 0.500000 0.405510 0.000000
O O4 0.679135 0.500000 0.790471
O O5 0.645762 0.357168 0.672375
O O6 0.697728 0.304939 0.837517
O O7 0.787120 0.396977 0.739210
O O8 0.104094 0.682693 0.157353
O O9 0.000000 0.811029 0.133684
O O10 0.098925 0.793429 0.000000
O O11 0.138745 0.258446 0.500000
O O12 0.098869 0.341873 0.338128
O O13 0.598326 0.000000 0.277291
#
# Coordination Sequence:
#
# PCOD9521950 Si02
#       5
#     8  16  16  16  16
#     4   9  18  32  51  79 110 137 173 223 279 337
#     4  10  22  38  58  87 120 155 197 245 296 354
#     4  10  22  40  62  89 119 154 200 252 306 361
#     4  10  20  35  56  83 114 149 188 231 285 345
#     4  10  23  40  57  84 119 157 203 246 290 349
#
# _framework density 20.424232
#
# number of rings (size 3 to 8) (size 9 to 14) (size 15 to 20)
#    0.000    2.111    0.000    3.333    6.222    7.111 
#    0.000    6.667    0.000    2.000    0.000    0.000 
#    0.000    0.000    0.000    0.000    0.000    0.000 
#
# Total GULP energy -200480.511209 kJ/mol
# GULP energy per Si atom -5568.903089 kJ/mol
# Density = 2.037775 g / cm^3
# Si number density = 20.424232 Si / 1000 Ang^3
#
#
#
# Elastic Constant Matrix: (Units=GPa)
#
#
# Indices 1 2 3 4 5 6 
#
# 1 67.0131 -9.7750 3.4585 0.0000 0.0000 0.0000
# 2 -9.7750 46.5265 -27.1421 0.0000 0.0000 0.0000
# 3 3.4585 -27.1421 95.4075 0.0000 0.0000 0.0000
# 4 0.0000 0.0000 0.0000 17.8165 0.0000 0.0000
# 5 0.0000 0.0000 0.0000 0.0000 23.8526 0.0000
# 6 0.0000 0.0000 0.0000 0.0000 0.0000 23.4048
#
#
#
# Elastic Compliance Matrix: (Units=1/GPa)
#
#
# Indices 1 2 3 4 5 6 
#
# 1 0.015409 0.003491 0.000435 0.000000 0.000000 0.000000
# 2 0.003491 0.026561 0.007430 0.000000 0.000000 0.000000
# 3 0.000435 0.007430 0.012579 0.000000 0.000000 0.000000
# 4 0.000000 0.000000 0.000000 0.056128 0.000000 0.000000
# 5 0.000000 0.000000 0.000000 0.000000 0.041924 0.000000
# 6 0.000000 0.000000 0.000000 0.000000 0.000000 0.042726
#
#
# Mechanical properties :
#
#
# Convention : Reuss Voigt Hill
#
# Bulk Modulus (GPa) = 12.94340 15.78108 14.36224
# Shear Modulus (GPa) = 25.20536 29.17516 27.19026
#
# Velocity S-wave (km/s) = 3.51677 3.78359 3.65262
# Velocity P-wave (km/s) = 4.77926 5.17985 4.98358
#
# Compressibility (1/GPa) = 0.07725946
#
# Stress axis : x y z
#
# Youngs Moduli (GPa) = 64.89609 37.64948 79.49616
#
# Poissons Ratio (x) = -0.13143 -0.03454
# Poissons Ratio (y) = -0.22655 -0.59063
# Poissons Ratio (z) = -0.02820 -0.27972
#
# Static dielectric constant tensor:
#      x y z
#    x 2.083530 0.000000 0.000000 
#    y 0.000000 1.761050 0.000000 
#    z 0.000000 0.000000 1.733660 
# 
# From -- ./inp_files/36087.got.cif
#   From: 2010.05.17/outbox.cif.g08.bks.cpg/sg71_19_cif.got.tgz:36087.got - 2010.06.03 16:22:01.
