data_PCOD9521848
_publ_section_title
;
Structure prediction by ZEFSAII (Michael W. Deem and Ramdas Pophale) SiO2 
 PCOD9521848
Probable space group: I M M M
;
_chemical_formula_sum "Si O2"
_cell_formula_units_Z 88
_cell_length_a 7.563480
_cell_length_b 29.150528
_cell_length_c 19.405999
_cell_angle_alpha 90.000000
_cell_angle_beta 90.000000
_cell_angle_gamma 90.000000
_cell_volume 4278.623705
_symmetry_space_group_name_H-M "I M M M"
_symmetry_group_IT_number 71
_symmetry_cell_setting 'orthorhombic'
loop_
_space_group_symop_operation_xyz
x,y,z
-x,-y,z
x,-y,-z
-x,y,-z
-x,-y,-z
x,y,-z
-x,y,z
x,-y,z
1/2+x,1/2+y,1/2+z
1/2-x,1/2-y,1/2+z
1/2+x,1/2-y,1/2-z
1/2-x,1/2+y,1/2-z
1/2-x,1/2-y,1/2-z
1/2+x,1/2+y,1/2-z
1/2-x,1/2+y,1/2+z
1/2+x,1/2-y,1/2+z
loop_
_atom_site_type_symbol
_atom_site_label
_atom_site_fract_x
_atom_site_fract_y
_atom_site_fract_z
Si Si1 0.288398 0.000000 0.265827
Si Si2 0.213037 0.817305 0.289040
Si Si3 0.783081 0.053302 0.500000
Si Si4 0.784213 0.500000 0.609037
Si Si5 0.790674 0.910577 0.645347
Si Si6 0.788319 0.778602 0.855545
Si Si7 0.208453 0.182628 0.000000
Si Si8 0.713563 0.075377 0.000000
O O1 0.222278 0.000000 0.187322
O O2 0.231467 0.045185 0.306650
O O3 0.500000 0.000000 0.263645
O O4 0.282267 0.864957 0.319127
O O5 0.280195 0.805469 0.212183
O O6 0.254224 0.774642 0.338901
O O7 0.000000 0.820076 0.283968
O O8 0.720582 0.077554 0.430378
O O9 0.000000 0.053401 0.500000
O O10 0.730346 0.000000 0.500000
O O11 0.729956 0.454873 0.566090
O O12 0.000000 0.500000 0.609079
O O13 0.000000 0.902876 0.636582
O O14 0.000000 0.785251 0.856658
O O15 0.717852 0.796439 0.928713
O O16 0.225607 0.127598 0.000000
O O17 0.000000 0.193844 0.000000
O O18 0.500000 0.076251 0.000000
#
# Coordination Sequence:
#
# PCOD9521848 Si02
#       8
#     8  16   8   8  16  16   8   8
#     4  11  22  34  51  80 110 137 172 214 262 319
#     4   9  19  35  56  79 101 133 178 220 254 300
#     4   9  16  31  52  72  98 133 168 207 255 300
#     4   8  18  36  53  73 107 141 176 219 262 305
#     4  10  20  35  55  77 103 136 175 217 262 307
#     4   9  19  36  53  74 109 142 167 207 264 315
#     4  10  21  34  52  81 115 142 168 212 269 319
#     4   9  18  36  57  75 101 144 184 216 254 304
#
# _framework density 20.567361999999999
#
# number of rings (size 3 to 8) (size 9 to 14) (size 15 to 20)
#    0.000    2.636    0.909    0.818    2.545    2.182 
#    0.000    3.636    0.000    0.000    0.000    0.000 
#    0.000    0.000    0.000    0.000    0.000    0.000 
#
# Total GULP energy -245603.873430 kJ/mol
# GULP energy per Si atom -5581.906214 kJ/mol
# Density = 2.052055 g / cm^3
# Si number density = 20.567362 Si / 1000 Ang^3
#
#
#
# Elastic Constant Matrix: (Units=GPa)
#
#
# Indices 1 2 3 4 5 6 
#
# 1 46.1320 -9.0329 1.8556 0.0000 0.0000 0.0000
# 2 -9.0329 186.5216 134.2271 0.0000 0.0000 0.0000
# 3 1.8556 134.2271 221.0613 0.0000 0.0001 0.0000
# 4 0.0000 0.0000 0.0000 28.2323 0.0000 0.0000
# 5 0.0000 0.0000 0.0001 0.0000 -39.4520 0.0000
# 6 0.0000 0.0000 0.0000 0.0000 0.0000 20.0728
#
#
#
# Elastic Compliance Matrix: (Units=1/GPa)
#
#
# Indices 1 2 3 4 5 6 
#
# 1 0.022156 0.002143 -0.001487 0.000000 0.000000 0.000000
# 2 0.002143 0.009729 -0.005926 0.000000 0.000000 0.000000
# 3 -0.001487 -0.005926 0.008134 0.000000 0.000000 0.000000
# 4 0.000000 0.000000 0.000000 0.035420 0.000000 0.000000
# 5 0.000000 0.000000 0.000000 0.000000 -0.025347 0.000000
# 6 0.000000 0.000000 0.000000 0.000000 0.000000 0.049819
#
#
# Mechanical properties :
#
#
# Convention : Reuss Voigt Hill
#
# Bulk Modulus (GPa) = 33.92057 78.64605 56.28331
# Shear Modulus (GPa) = 41.57038 23.54830 32.55934
#
# Velocity S-wave (km/s) = 4.50063 3.38736 3.98308
# Velocity P-wave (km/s) = 6.59817 7.32258 6.96979
#
# Compressibility (1/GPa) = 0.02948064
#
# Stress axis : x y z
#
# Youngs Moduli (GPa) = 45.13361 102.78149 122.93904
#
# Poissons Ratio (x) = -0.22030 0.18287
# Poissons Ratio (y) = -0.09674 0.72849
# Poissons Ratio (z) = 0.06713 0.60904
#
# Static dielectric constant tensor:
#      x y z
#    x 1.759870 0.000000 0.000000 
#    y 0.000000 1.679600 0.000000 
#    z 0.000000 0.000000 1.737600 
# 
# From -- ./inp_files/42574.got.cif
#   From: 2010.05.17/outbox.cif.g08.bks.cpg/sg71_22_cif.got.tgz:42574.got - 2010.06.03 16:22:01.
