data_PCOD9521937
_publ_section_title
;
Structure prediction by ZEFSAII (Michael W. Deem and Ramdas Pophale) SiO2 
 PCOD9521937
Probable space group: I M M M
;
_chemical_formula_sum "Si O2"
_cell_formula_units_Z 88
_cell_length_a 12.262939
_cell_length_b 18.476852
_cell_length_c 22.724086
_cell_angle_alpha 90.000000
_cell_angle_beta 90.000000
_cell_angle_gamma 90.000000
_cell_volume 5148.834972
_symmetry_space_group_name_H-M "I M M M"
_symmetry_group_IT_number 71
_symmetry_cell_setting 'orthorhombic'
loop_
_space_group_symop_operation_xyz
x,y,z
-x,-y,z
x,-y,-z
-x,y,-z
-x,-y,-z
x,y,-z
-x,y,z
x,-y,z
1/2+x,1/2+y,1/2+z
1/2-x,1/2-y,1/2+z
1/2+x,1/2-y,1/2-z
1/2-x,1/2+y,1/2-z
1/2-x,1/2-y,1/2-z
1/2+x,1/2+y,1/2-z
1/2-x,1/2+y,1/2+z
1/2+x,1/2-y,1/2+z
loop_
_atom_site_type_symbol
_atom_site_label
_atom_site_fract_x
_atom_site_fract_y
_atom_site_fract_z
Si Si1 0.129402 0.415191 0.000000
Si Si2 0.259588 0.347743 0.320170
Si Si3 0.633181 0.500000 0.710909
Si Si4 0.231777 0.143767 0.604387
Si Si5 0.871433 0.707240 0.569270
Si Si6 0.871843 0.000000 0.651335
Si Si7 0.126201 0.296929 0.789459
O O1 0.178874 0.375324 0.055950
O O2 0.161448 0.500000 0.000000
O O3 0.000000 0.411733 0.000000
O O4 0.311804 0.427054 0.314594
O O5 0.208390 0.333597 0.384790
O O6 0.163458 0.327776 0.273699
O O7 0.350130 0.288526 0.299489
O O8 0.500000 0.500000 0.704147
O O9 0.662108 0.500000 0.780368
O O10 0.155061 0.208362 0.581991
O O11 0.168252 0.071238 0.618918
O O12 0.294066 0.167479 0.663095
O O13 0.849936 0.692144 0.500000
O O14 0.000000 0.692879 0.580534
O O15 0.000000 0.000000 0.651744
O O16 0.000000 0.312509 0.799789
#
# Coordination Sequence:
#
# PCOD9521937 Si02
#       7
#     8  16   8  16  16   8  16
#     4  11  22  34  50  74 116 165 198 233 282 332
#     4  10  21  37  59  85 114 144 190 236 284 343
#     4  11  22  40  62  86 116 150 185 234 297 343
#     4  11  20  37  54  81 114 153 196 237 274 342
#     4  10  21  38  61  85 114 152 189 236 290 339
#     4  11  22  35  55  85 118 151 190 235 285 338
#     4  10  20  35  56  82 111 146 188 237 284 330
#
# _framework density 17.091245000000001
#
# number of rings (size 3 to 8) (size 9 to 14) (size 15 to 20)
#    0.000    1.545    3.636    2.182    0.000    0.000 
#    0.000    3.636    0.000    1.636    0.000    0.000 
#    0.000    0.000    0.000    0.000    0.000    0.000 
#
# Total GULP energy -245398.428857 kJ/mol
# GULP energy per Si atom -5577.237019 kJ/mol
# Density = 1.705234 g / cm^3
# Si number density = 17.091245 Si / 1000 Ang^3
#
#
#
# Elastic Constant Matrix: (Units=GPa)
#
#
# Indices 1 2 3 4 5 6 
#
# 1 47.3203 16.9710 25.7340 0.0000 0.0000 0.0000
# 2 16.9710 108.9844 34.7541 0.0000 0.0000 0.0000
# 3 25.7340 34.7541 110.9702 0.0000 0.0000 0.0000
# 4 0.0000 0.0000 0.0000 17.7974 0.0000 0.0000
# 5 0.0000 0.0000 0.0000 0.0000 24.5677 0.0000
# 6 0.0000 0.0000 0.0000 0.0000 0.0000 13.7289
#
#
#
# Elastic Compliance Matrix: (Units=1/GPa)
#
#
# Indices 1 2 3 4 5 6 
#
# 1 0.024665 -0.002241 -0.005018 0.000000 0.000000 0.000000
# 2 -0.002241 0.010397 -0.002737 0.000000 0.000000 0.000000
# 3 -0.005018 -0.002737 0.011032 0.000000 0.000000 0.000000
# 4 0.000000 0.000000 0.000000 0.056188 0.000000 0.000000
# 5 0.000000 0.000000 0.000000 0.000000 0.040704 0.000000
# 6 0.000000 0.000000 0.000000 0.000000 0.000000 0.072839
#
#
# Mechanical properties :
#
#
# Convention : Reuss Voigt Hill
#
# Bulk Modulus (GPa) = 38.30860 46.91034 42.60947
# Shear Modulus (GPa) = 20.44846 23.87320 22.16083
#
# Velocity S-wave (km/s) = 3.46270 3.74144 3.60477
# Velocity P-wave (km/s) = 6.20079 6.79493 6.50465
#
# Compressibility (1/GPa) = 0.02610380
#
# Stress axis : x y z
#
# Youngs Moduli (GPa) = 40.54309 96.17953 90.64369
#
# Poissons Ratio (x) = 0.21550 0.45486
# Poissons Ratio (y) = 0.09084 0.24806
# Poissons Ratio (z) = 0.20345 0.26321
#
# Static dielectric constant tensor:
#      x y z
#    x 1.547340 0.000000 0.000000 
#    y 0.000000 1.575020 0.000000 
#    z 0.000000 0.000000 1.587950 
# 
# From -- ./inp_files/24007.got.cif
#   From: 2010.05.17/outbox.cif.g08.bks.cpg/sg71_13_cif.got.tgz:24007.got - 2010.06.03 16:22:01.
