data_PCOD9521519
_publ_section_title
;
Structure prediction by ZEFSAII (Michael W. Deem and Ramdas Pophale) SiO2 
 PCOD9521519
Probable space group: I M M M
;
_chemical_formula_sum "Si O2"
_cell_formula_units_Z 96
_cell_length_a 29.157618
_cell_length_b 21.008133
_cell_length_c 7.865128
_cell_angle_alpha 90.000000
_cell_angle_beta 90.000000
_cell_angle_gamma 90.000000
_cell_volume 4817.761481
_symmetry_space_group_name_H-M "I M M M"
_symmetry_group_IT_number 71
_symmetry_cell_setting 'orthorhombic'
loop_
_space_group_symop_operation_xyz
x,y,z
-x,-y,z
x,-y,-z
-x,y,-z
-x,-y,-z
x,y,-z
-x,y,z
x,-y,z
1/2+x,1/2+y,1/2+z
1/2-x,1/2-y,1/2+z
1/2+x,1/2-y,1/2-z
1/2-x,1/2+y,1/2-z
1/2-x,1/2-y,1/2-z
1/2+x,1/2+y,1/2-z
1/2-x,1/2+y,1/2+z
1/2+x,1/2-y,1/2+z
loop_
_atom_site_type_symbol
_atom_site_label
_atom_site_fract_x
_atom_site_fract_y
_atom_site_fract_z
Si Si1 0.184446 0.200150 0.804632
Si Si2 0.718732 0.836751 0.797493
Si Si3 0.948398 0.339985 0.201356
Si Si4 0.083854 0.201580 0.693773
Si Si5 0.445133 0.432137 0.799700
Si Si6 0.136110 0.426608 0.206028
O O1 0.227665 0.157150 0.749143
O O2 0.201114 0.273263 0.794616
O O3 0.138696 0.198200 0.696535
O O4 0.172834 0.184980 0.000000
O O5 0.683548 0.893204 0.760153
O O6 0.718455 0.824223 0.000000
O O7 0.933497 0.266581 0.223321
O O8 0.907424 0.384889 0.269091
O O9 0.000000 0.349863 0.271306
O O10 0.950782 0.352836 0.000000
O O11 0.066339 0.203628 0.500000
O O12 0.068758 0.135216 0.777052
O O13 0.500000 0.433667 0.796112
O O14 0.428385 0.500000 0.727763
O O15 0.431198 0.430896 0.000000
O O16 0.133299 0.500000 0.261197
O O17 0.135222 0.425493 0.000000
#
# Coordination Sequence:
#
# PCOD9521519 Si02
#       6
#    16  16  16  16  16  16
#     4  10  20  34  54  79 109 139 172 215 267 328
#     4  10  20  35  56  81 105 137 178 222 270 319
#     4  10  21  36  54  78 110 147 186 231 282 332
#     4  11  20  31  53  84 111 140 180 226 274 321
#     4   8  15  29  48  71 102 139 176 215 261 312
#     4  10  21  37  57  80 110 150 190 229 277 333
#
# _framework density 19.926266999999999
#
# number of rings (size 3 to 8) (size 9 to 14) (size 15 to 20)
#    0.000    2.167    1.667    2.500    0.000    3.667 
#    0.000    2.500    0.000    5.000    0.000    8.167 
#    0.000    0.000    0.000    0.000    0.000    0.000 
#
# Total GULP energy -267589.264229 kJ/mol
# GULP energy per Si atom -5574.776338 kJ/mol
# Density = 1.988091 g / cm^3
# Si number density = 19.926267 Si / 1000 Ang^3
#
#
#
# Elastic Constant Matrix: (Units=GPa)
#
#
# Indices 1 2 3 4 5 6 
#
# 1 89.7081 45.0287 2.5445 0.0000 0.0000 0.0000
# 2 45.0287 125.2153 -1.7037 0.0000 0.0000 0.0000
# 3 2.5445 -1.7037 29.3664 0.0000 0.0000 0.0000
# 4 0.0000 0.0000 0.0000 10.3872 0.0000 0.0000
# 5 0.0000 0.0000 0.0000 0.0000 5.3799 0.0000
# 6 0.0000 0.0000 0.0000 0.0000 0.0000 20.7794
#
#
#
# Elastic Compliance Matrix: (Units=1/GPa)
#
#
# Indices 1 2 3 4 5 6 
#
# 1 0.013666 -0.004934 -0.001470 0.000000 0.000000 0.000000
# 2 -0.004934 0.009774 0.000995 0.000000 0.000000 0.000000
# 3 -0.001470 0.000995 0.034238 0.000000 0.000000 0.000000
# 4 0.000000 0.000000 0.000000 0.096272 0.000000 0.000000
# 5 0.000000 0.000000 0.000000 0.000000 0.185877 0.000000
# 6 0.000000 0.000000 0.000000 0.000000 0.000000 0.048125
#
#
# Mechanical properties :
#
#
# Convention : Reuss Voigt Hill
#
# Bulk Modulus (GPa) = 21.34136 37.33652 29.33894
# Shear Modulus (GPa) = 12.06592 20.53732 16.30162
#
# Velocity S-wave (km/s) = 2.46342 3.21388 2.86334
# Velocity P-wave (km/s) = 4.33874 5.70527 5.06827
#
# Compressibility (1/GPa) = 0.04685737
#
# Stress axis : x y z
#
# Youngs Moduli (GPa) = 73.17562 102.30996 29.20766
#
# Poissons Ratio (x) = 0.50483 0.04294
# Poissons Ratio (y) = 0.36107 -0.02905
# Poissons Ratio (z) = 0.10759 -0.10176
#
# Static dielectric constant tensor:
#      x y z
#    x 1.725530 0.000000 0.000000 
#    y 0.000000 1.705900 0.000000 
#    z 0.000000 0.000000 1.734930 
# 
# From -- ./inp_files/10871.got.cif
#   From: 2010.05.17/outbox.cif.g08.bks.cpg/sg71_6_cif.got.tgz:10871.got - 2010.06.03 16:22:01.
