data_PCOD9521036
_publ_section_title
;
Structure prediction by ZEFSAII (Michael W. Deem and Ramdas Pophale) SiO2 
 PCOD9521036
Probable space group: I M M M
;
_chemical_formula_sum "Si O2"
_cell_formula_units_Z 104
_cell_length_a 25.693142
_cell_length_b 9.727720
_cell_length_c 20.366984
_cell_angle_alpha 90.000000
_cell_angle_beta 90.000000
_cell_angle_gamma 90.000000
_cell_volume 5090.436226
_symmetry_space_group_name_H-M "I M M M"
_symmetry_group_IT_number 71
_symmetry_cell_setting 'orthorhombic'
loop_
_space_group_symop_operation_xyz
x,y,z
-x,-y,z
x,-y,-z
-x,y,-z
-x,-y,-z
x,y,-z
-x,y,z
x,-y,z
1/2+x,1/2+y,1/2+z
1/2-x,1/2-y,1/2+z
1/2+x,1/2-y,1/2-z
1/2-x,1/2+y,1/2-z
1/2-x,1/2-y,1/2-z
1/2+x,1/2+y,1/2-z
1/2-x,1/2+y,1/2+z
1/2+x,1/2-y,1/2+z
loop_
_atom_site_type_symbol
_atom_site_label
_atom_site_fract_x
_atom_site_fract_y
_atom_site_fract_z
Si Si1 0.842531 0.840585 0.749761
Si Si2 0.500000 0.845927 0.419263
Si Si3 0.707913 0.661894 0.385624
Si Si4 0.595105 0.160704 0.071324
Si Si5 0.409728 0.651955 0.577200
Si Si6 0.558333 0.836194 0.782587
Si Si7 0.194588 0.160767 0.398710
O O1 0.803167 0.809198 0.808783
O O2 0.893782 0.746061 0.749139
O O3 0.814659 0.828739 0.679794
O O4 0.858334 0.000000 0.757783
O O5 0.500000 0.851694 0.500000
O O6 0.551046 0.764994 0.396656
O O7 0.500000 0.000000 0.394577
O O8 0.721384 0.500000 0.393748
O O9 0.650920 0.684445 0.416037
O O10 0.752377 0.758937 0.413643
O O11 0.563444 0.187194 0.138136
O O12 0.645205 0.258853 0.072746
O O13 0.611420 0.000000 0.075367
O O14 0.568584 0.178305 0.000000
O O15 0.421310 0.643016 0.500000
O O16 0.418889 0.500000 0.605873
O O17 0.500000 0.795564 0.761943
O O18 0.564409 0.000000 0.771776
O O19 0.195980 0.000000 0.416704
#
# Coordination Sequence:
#
# PCOD9521036 Si02
#       7
#    16   8  16  16  16  16  16
#     4   9  19  35  52  72  99 134 173 210 252 305
#     4   9  17  31  51  71  93 123 155 189 234 287
#     4  10  20  34  52  75 100 130 172 213 250 301
#     4   9  18  33  53  76 103 138 176 210 250 305
#     4   9  18  33  52  72  95 125 161 201 244 291
#     4   9  18  33  53  77 105 135 169 214 263 306
#     4  10  20  33  51  74 102 134 167 209 259 303
#
# _framework density 20.430468999999999
#
# number of rings (size 3 to 8) (size 9 to 14) (size 15 to 20)
#    0.000    2.692    0.000    1.154    0.000    4.308 
#    1.385    3.077    0.000    0.000    0.000    4.308 
#    0.000    0.000    0.000    0.000    0.000    0.000 
#
# Total GULP energy -290175.842748 kJ/mol
# GULP energy per Si atom -5580.304668 kJ/mol
# Density = 2.038397 g / cm^3
# Si number density = 20.430469 Si / 1000 Ang^3
#
#
#
# Elastic Constant Matrix: (Units=GPa)
#
#
# Indices 1 2 3 4 5 6 
#
# 1 104.6322 76.8737 -8.5486 0.0000 0.0000 0.0000
# 2 76.8737 92.2953 4.7203 0.0000 0.0000 0.0000
# 3 -8.5486 4.7203 43.1466 0.0000 0.0000 0.0000
# 4 0.0000 0.0000 0.0000 13.0249 0.0000 0.0000
# 5 0.0000 0.0000 0.0000 0.0000 38.6736 0.0000
# 6 0.0000 0.0000 0.0000 0.0000 0.0000 28.2188
#
#
#
# Elastic Compliance Matrix: (Units=1/GPa)
#
#
# Indices 1 2 3 4 5 6 
#
# 1 0.027047 -0.022930 0.007867 0.000000 0.000000 0.000000
# 2 -0.022930 0.030335 -0.007862 0.000000 0.000000 0.000000
# 3 0.007867 -0.007862 0.025596 0.000000 0.000000 0.000000
# 4 0.000000 0.000000 0.000000 0.076776 0.000000 0.000000
# 5 0.000000 0.000000 0.000000 0.000000 0.025857 0.000000
# 6 0.000000 0.000000 0.000000 0.000000 0.000000 0.035437
#
#
# Mechanical properties :
#
#
# Convention : Reuss Voigt Hill
#
# Bulk Modulus (GPa) = 26.93312 42.90721 34.92017
# Shear Modulus (GPa) = 17.90362 27.11871 22.51116
#
# Velocity S-wave (km/s) = 2.96348 3.64726 3.32300
# Velocity P-wave (km/s) = 4.99210 6.22766 5.64380
#
# Compressibility (1/GPa) = 0.03712901
#
# Stress axis : x y z
#
# Youngs Moduli (GPa) = 36.97319 32.96490 39.06916
#
# Poissons Ratio (x) = 0.75588 -0.30737
# Poissons Ratio (y) = 0.84779 0.30715
# Poissons Ratio (z) = -0.29088 0.25916
#
# Static dielectric constant tensor:
#      x y z
#    x 1.682050 0.000000 0.000000 
#    y 0.000000 1.697630 0.000000 
#    z 0.000000 0.000000 1.802280 
# 
# From -- ./inp_files/13280.got.cif
#   From: 2010.05.17/outbox.cif.g08.bks.cpg/sg71_7_cif.got.tgz:13280.got - 2010.06.03 16:22:01.
