data_PCOD9521337
_publ_section_title
;
Structure prediction by ZEFSAII (Michael W. Deem and Ramdas Pophale) SiO2 
 PCOD9521337
Probable space group: I M M M
;
_chemical_formula_sum "Si O2"
_cell_formula_units_Z 88
_cell_length_a 8.157509
_cell_length_b 19.452193
_cell_length_c 28.370114
_cell_angle_alpha 90.000000
_cell_angle_beta 90.000000
_cell_angle_gamma 90.000000
_cell_volume 4501.810527
_symmetry_space_group_name_H-M "I M M M"
_symmetry_group_IT_number 71
_symmetry_cell_setting 'orthorhombic'
loop_
_space_group_symop_operation_xyz
x,y,z
-x,-y,z
x,-y,-z
-x,y,-z
-x,-y,-z
x,y,-z
-x,y,z
x,-y,z
1/2+x,1/2+y,1/2+z
1/2-x,1/2-y,1/2+z
1/2+x,1/2-y,1/2-z
1/2-x,1/2+y,1/2-z
1/2-x,1/2-y,1/2-z
1/2+x,1/2+y,1/2-z
1/2-x,1/2+y,1/2+z
1/2+x,1/2-y,1/2+z
loop_
_atom_site_type_symbol
_atom_site_label
_atom_site_fract_x
_atom_site_fract_y
_atom_site_fract_z
Si Si1 0.303449 0.423930 0.745583
Si Si2 0.189301 0.418668 0.000000
Si Si3 0.802296 0.178347 0.948260
Si Si4 0.810323 0.307969 0.817250
Si Si5 0.808351 0.171761 0.581997
Si Si6 0.700814 0.344667 0.656119
O O1 0.500000 0.428040 0.743947
O O2 0.240760 0.500000 0.759214
O O3 0.264786 0.361355 0.780676
O O4 0.246880 0.401937 0.693305
O O5 0.276593 0.388807 0.954208
O O6 0.191841 0.500000 0.000000
O O7 0.000000 0.394602 0.000000
O O8 0.753366 0.258069 0.942276
O O9 0.745734 0.146116 0.898278
O O10 0.000000 0.173465 0.948700
O O11 0.743371 0.153889 0.000000
O O12 0.788874 0.337969 0.869657
O O13 0.743655 0.229932 0.823431
O O14 0.000000 0.300958 0.804633
O O15 0.000000 0.178445 0.592968
O O16 0.500000 0.342469 0.655246
#
# Coordination Sequence:
#
# PCOD9521337 Si02
#       6
#    16   8  16  16  16  16
#     4  10  20  34  52  74 104 138 172 216 268 317
#     4  11  23  37  51  67  95 137 176 207 246 299
#     4   9  16  29  52  76 102 133 167 208 252 301
#     4  10  20  35  55  75  99 133 175 219 258 307
#     4  11  21  33  51  75 102 128 163 212 259 302
#     4   8  16  31  51  77 103 134 174 213 260 310
#
# _framework density 19.547691
#
# number of rings (size 3 to 8) (size 9 to 14) (size 15 to 20)
#    0.000    2.273    0.909    4.091    0.000    1.818 
#    0.000    3.636    0.000    0.545    0.000    3.818 
#    0.000    0.000    0.000    8.182    0.000    9.091 
#
# Total GULP energy -245276.647371 kJ/mol
# GULP energy per Si atom -5574.469258 kJ/mol
# Density = 1.950320 g / cm^3
# Si number density = 19.547691 Si / 1000 Ang^3
#
#
#
# Elastic Constant Matrix: (Units=GPa)
#
#
# Indices 1 2 3 4 5 6 
#
# 1 13.5083 4.2663 1.5474 0.0000 0.0000 0.0000
# 2 4.2663 26.5719 23.2567 0.0000 0.0000 0.0000
# 3 1.5474 23.2567 92.2057 0.0000 0.0000 0.0000
# 4 0.0000 0.0000 0.0000 13.9227 0.0000 0.0000
# 5 0.0000 0.0000 0.0000 0.0000 12.2942 0.0000
# 6 0.0000 0.0000 0.0000 0.0000 0.0000 7.8437
#
#
#
# Elastic Compliance Matrix: (Units=1/GPa)
#
#
# Indices 1 2 3 4 5 6 
#
# 1 0.078390 -0.014674 0.002386 0.000000 0.000000 0.000000
# 2 -0.014674 0.051042 -0.012628 0.000000 0.000000 0.000000
# 3 0.002386 -0.012628 0.013990 0.000000 0.000000 0.000000
# 4 0.000000 0.000000 0.000000 0.071825 0.000000 0.000000
# 5 0.000000 0.000000 0.000000 0.000000 0.081339 0.000000
# 6 0.000000 0.000000 0.000000 0.000000 0.000000 0.127491
#
#
# Mechanical properties :
#
#
# Convention : Reuss Voigt Hill
#
# Bulk Modulus (GPa) = 10.68493 21.15852 15.92172
# Shear Modulus (GPa) = 9.89888 13.69314 11.79601
#
# Velocity S-wave (km/s) = 2.25277 2.64957 2.45918
# Velocity P-wave (km/s) = 3.49922 4.49531 4.02817
#
# Compressibility (1/GPa) = 0.09358978
#
# Stress axis : x y z
#
# Youngs Moduli (GPa) = 12.75672 19.59166 71.47775
#
# Poissons Ratio (x) = 0.28749 -0.17052
# Poissons Ratio (y) = 0.18719 0.90261
# Poissons Ratio (z) = -0.03043 0.24740
#
# Static dielectric constant tensor:
#      x y z
#    x 1.700610 0.000000 0.000000 
#    y 0.000000 1.676470 0.000000 
#    z 0.000000 0.000000 1.711160 
# 
# From -- ./inp_files/68010.got.cif
#   From: 2010.05.17/outbox.cif.g08.bks.cpg/sg71_35_cif.got.tgz:68010.got - 2010.06.03 16:22:01.
