data_PCOD9521142
_publ_section_title
;
Structure prediction by ZEFSAII (Michael W. Deem and Ramdas Pophale) SiO2 
 PCOD9521142
Probable space group: I M M M
;
_chemical_formula_sum "Si O2"
_cell_formula_units_Z 96
_cell_length_a 8.844098
_cell_length_b 20.286969
_cell_length_c 30.815844
_cell_angle_alpha 90.000000
_cell_angle_beta 90.000000
_cell_angle_gamma 90.000000
_cell_volume 5528.976942
_symmetry_space_group_name_H-M "I M M M"
_symmetry_group_IT_number 71
_symmetry_cell_setting 'orthorhombic'
loop_
_space_group_symop_operation_xyz
x,y,z
-x,-y,z
x,-y,-z
-x,y,-z
-x,-y,-z
x,y,-z
-x,y,z
x,-y,z
1/2+x,1/2+y,1/2+z
1/2-x,1/2-y,1/2+z
1/2+x,1/2-y,1/2-z
1/2-x,1/2+y,1/2-z
1/2-x,1/2-y,1/2-z
1/2+x,1/2+y,1/2-z
1/2-x,1/2+y,1/2+z
1/2+x,1/2-y,1/2+z
loop_
_atom_site_type_symbol
_atom_site_label
_atom_site_fract_x
_atom_site_fract_y
_atom_site_fract_z
Si Si1 0.677277 0.428124 0.447327
Si Si2 0.818461 0.202564 0.628026
Si Si3 0.818381 0.708336 0.450399
Si Si4 0.317979 0.284675 0.707181
Si Si5 0.319896 0.075279 0.333763
Si Si6 0.318264 0.426279 0.262237
O O1 0.687812 0.428910 0.500000
O O2 0.500000 0.423331 0.436275
O O3 0.733707 0.500000 0.432109
O O4 0.761447 0.362391 0.433202
O O5 0.772272 0.234019 0.582122
O O6 0.750906 0.248541 0.665779
O O7 0.756645 0.129683 0.636328
O O8 0.000000 0.202525 0.631162
O O9 0.763845 0.717282 0.500000
O O10 0.000000 0.706469 0.451504
O O11 0.500000 0.277815 0.707452
O O12 0.250000 0.250000 0.750000
O O13 0.279576 0.362626 0.709112
O O14 0.500000 0.084815 0.333009
O O15 0.256849 0.083078 0.284871
O O16 0.287406 0.000000 0.347090
O O17 0.500000 0.425201 0.256521
O O18 0.276956 0.500000 0.278269
#
# Coordination Sequence:
#
# PCOD9521142 Si02
#       6
#    16  16  16  16  16  16
#     4   8  14  26  46  72  99 127 163 208 257 308
#     4  11  22  35  53  77 105 138 174 214 262 313
#     4   9  19  35  53  74 101 135 178 224 265 307
#     4  11  21  33  52  77 107 139 172 212 255 306
#     4  10  20  33  52  78 104 131 168 213 256 305
#     4   9  18  33  52  73 100 137 176 211 252 302
#
# _framework density 17.363067000000001
#
# number of rings (size 3 to 8) (size 9 to 14) (size 15 to 20)
#    0.000    2.333    1.667    2.000    0.000    3.333 
#    0.000    2.500    0.000    3.500    0.000    3.500 
#    0.000    0.000    0.000    0.000    0.000    0.000 
#
# Total GULP energy -267650.644184 kJ/mol
# GULP energy per Si atom -5576.055087 kJ/mol
# Density = 1.732355 g / cm^3
# Si number density = 17.363067 Si / 1000 Ang^3
#
#
#
# Elastic Constant Matrix: (Units=GPa)
#
#
# Indices 1 2 3 4 5 6 
#
# 1 28.1196 45.5683 21.9824 0.0000 0.0000 0.0000
# 2 45.5683 153.3121 54.3856 0.0000 0.0000 0.0000
# 3 21.9824 54.3856 58.6574 0.0000 0.0000 0.0000
# 4 0.0000 0.0000 0.0000 26.8274 0.0000 0.0000
# 5 0.0000 0.0000 0.0000 0.0000 16.8061 0.0000
# 6 0.0000 0.0000 0.0000 0.0000 0.0000 29.4192
#
#
#
# Elastic Compliance Matrix: (Units=1/GPa)
#
#
# Indices 1 2 3 4 5 6 
#
# 1 0.072909 -0.017848 -0.010775 0.000000 0.000000 0.000000
# 2 -0.017848 0.014089 -0.006374 0.000000 0.000000 0.000000
# 3 -0.010775 -0.006374 0.026996 0.000000 0.000000 0.000000
# 4 0.000000 0.000000 0.000000 0.037275 0.000000 0.000000
# 5 0.000000 0.000000 0.000000 0.000000 0.059502 0.000000
# 6 0.000000 0.000000 0.000000 0.000000 0.000000 0.033991
#
#
# Mechanical properties :
#
#
# Convention : Reuss Voigt Hill
#
# Bulk Modulus (GPa) = 22.72755 53.77352 38.25053
# Shear Modulus (GPa) = 15.17807 22.48737 18.83272
#
# Velocity S-wave (km/s) = 2.95982 3.60269 3.29696
# Velocity P-wave (km/s) = 4.97983 6.95292 6.04739
#
# Compressibility (1/GPa) = 0.04399947
#
# Stress axis : x y z
#
# Youngs Moduli (GPa) = 13.71576 70.97942 37.04269
#
# Poissons Ratio (x) = 1.26685 0.39914
# Poissons Ratio (y) = 0.24480 0.23610
# Poissons Ratio (z) = 0.14779 0.45241
#
# Static dielectric constant tensor:
#      x y z
#    x 1.581380 0.000000 0.000000 
#    y 0.000000 1.617750 0.000000 
#    z 0.000000 0.000000 1.575360 
# 
# From -- ./inp_files/63195.got.cif
#   From: 2010.05.17/outbox.cif.g08.bks.cpg/sg71_32_cif.got.tgz:63195.got - 2010.06.03 16:22:01.
