data_PCOD9521857
_publ_section_title
;
Structure prediction by ZEFSAII (Michael W. Deem and Ramdas Pophale) SiO2 
 PCOD9521857
Probable space group: I M M M
;
_chemical_formula_sum "Si O2"
_cell_formula_units_Z 64
_cell_length_a 15.450236
_cell_length_b 7.522981
_cell_length_c 26.510441
_cell_angle_alpha 90.000000
_cell_angle_beta 90.000000
_cell_angle_gamma 90.000000
_cell_volume 3081.357121
_symmetry_space_group_name_H-M "I M M M"
_symmetry_group_IT_number 71
_symmetry_cell_setting 'orthorhombic'
loop_
_space_group_symop_operation_xyz
x,y,z
-x,-y,z
x,-y,-z
-x,y,-z
-x,-y,-z
x,y,-z
-x,y,z
x,-y,z
1/2+x,1/2+y,1/2+z
1/2-x,1/2-y,1/2+z
1/2+x,1/2-y,1/2-z
1/2-x,1/2+y,1/2-z
1/2-x,1/2-y,1/2-z
1/2+x,1/2+y,1/2-z
1/2-x,1/2+y,1/2+z
1/2+x,1/2-y,1/2+z
loop_
_atom_site_type_symbol
_atom_site_label
_atom_site_fract_x
_atom_site_fract_y
_atom_site_fract_z
Si Si1 0.500000 0.210227 0.833818
Si Si2 0.500000 0.285522 0.716248
Si Si3 0.900035 0.787935 0.500000
Si Si4 0.831331 0.288845 0.389716
Si Si5 0.641570 0.717145 0.363283
Si Si6 0.500000 0.283443 0.443198
O O1 0.500000 0.230359 0.773974
O O2 0.586589 0.285355 0.859278
O O3 0.500000 0.000000 0.845613
O O4 0.500000 0.500000 0.714763
O O5 0.585561 0.226405 0.685405
O O6 0.850636 0.734135 0.550975
O O7 0.000000 0.719584 0.500000
O O8 0.904871 0.000000 0.500000
O O9 0.827766 0.500000 0.380289
O O10 0.739142 0.218199 0.370551
O O11 0.643009 0.500000 0.362194
O O12 0.584009 0.769630 0.411458
O O13 0.500000 0.500000 0.444222
O O14 0.500000 0.218894 0.500000
#
# Coordination Sequence:
#
# PCOD9521857 Si02
#       6
#     8   8   8  16  16   8
#     4  10  21  34  50  76 104 133 176 221 260 309
#     4   9  18  35  55  76 104 137 173 218 263 302
#     4  11  23  37  53  76 109 140 170 211 259 310
#     4  10  20  35  55  78 104 137 176 214 255 306
#     4   8  16  30  49  75 104 132 171 215 254 300
#     4   8  13  22  40  72 103 126 161 213 257 290
#
# _framework density 20.770068999999999
#
# number of rings (size 3 to 8) (size 9 to 14) (size 15 to 20)
#    0.000    2.750    1.250    1.875    1.750    2.500 
#    0.000    1.250    0.000    0.000    0.000    1.750 
#    0.000    0.000    0.000    0.000    0.000    0.000 
#
# Total GULP energy -178585.574294 kJ/mol
# GULP energy per Si atom -5580.799197 kJ/mol
# Density = 2.072280 g / cm^3
# Si number density = 20.770069 Si / 1000 Ang^3
#
#
#
# Elastic Constant Matrix: (Units=GPa)
#
#
# Indices 1 2 3 4 5 6 
#
# 1 234.0756 9.1370 104.6633 0.0000 0.0000 0.0000
# 2 9.1370 51.4638 -16.4111 0.0000 0.0000 0.0000
# 3 104.6633 -16.4111 160.2871 0.0000 0.0000 0.0000
# 4 0.0000 0.0000 0.0000 18.0649 0.0000 0.0000
# 5 0.0000 0.0000 0.0000 0.0000 43.3229 0.0000
# 6 0.0000 0.0000 0.0000 0.0000 0.0000 -4.5706
#
#
#
# Elastic Compliance Matrix: (Units=1/GPa)
#
#
# Indices 1 2 3 4 5 6 
#
# 1 0.006336 -0.002527 -0.004396 0.000000 0.000000 0.000000
# 2 -0.002527 0.021095 0.003810 0.000000 0.000000 0.000000
# 3 -0.004396 0.003810 0.009500 0.000000 0.000000 0.000000
# 4 0.000000 0.000000 0.000000 0.055356 0.000000 0.000000
# 5 0.000000 0.000000 0.000000 0.000000 0.023082 0.000000
# 6 0.000000 0.000000 0.000000 0.000000 0.000000 -0.218790
#
#
# Mechanical properties :
#
#
# Convention : Reuss Voigt Hill
#
# Bulk Modulus (GPa) = 32.56915 71.17831 51.87373
# Shear Modulus (GPa) = -57.49823 34.59259 -11.45282
#
# Velocity S-wave (km/s) = -5.26719 4.08548 -2.35076
# Velocity P-wave (km/s) = 4.61262 7.52323 4.20254
#
# Compressibility (1/GPa) = 0.03070390
#
# Stress axis : x y z
#
# Youngs Moduli (GPa) = 157.81617 47.40534 105.26838
#
# Poissons Ratio (x) = 0.11979 0.46279
# Poissons Ratio (y) = 0.39879 -0.40105
# Poissons Ratio (z) = 0.69380 -0.18060
#
# Static dielectric constant tensor:
#      x y z
#    x 1.762580 0.000000 0.000000 
#    y 0.000000 1.777680 0.000000 
#    z 0.000000 0.000000 1.691700 
# 
# From -- ./inp_files/38797.got.cif
#   From: 2010.05.17/outbox.cif.g08.bks.cpg/sg71_20_cif.got.tgz:38797.got - 2010.06.03 16:22:01.
