data_PCOD9521273
_publ_section_title
;
Structure prediction by ZEFSAII (Michael W. Deem and Ramdas Pophale) SiO2 
 PCOD9521273
Probable space group: I M M M
;
_chemical_formula_sum "Si O2"
_cell_formula_units_Z 96
_cell_length_a 17.950136
_cell_length_b 16.013100
_cell_length_c 19.449339
_cell_angle_alpha 90.000000
_cell_angle_beta 90.000000
_cell_angle_gamma 90.000000
_cell_volume 5590.465932
_symmetry_space_group_name_H-M "I M M M"
_symmetry_group_IT_number 71
_symmetry_cell_setting 'orthorhombic'
loop_
_space_group_symop_operation_xyz
x,y,z
-x,-y,z
x,-y,-z
-x,y,-z
-x,-y,-z
x,y,-z
-x,y,z
x,-y,z
1/2+x,1/2+y,1/2+z
1/2-x,1/2-y,1/2+z
1/2+x,1/2-y,1/2-z
1/2-x,1/2+y,1/2-z
1/2-x,1/2-y,1/2-z
1/2+x,1/2+y,1/2-z
1/2-x,1/2+y,1/2+z
1/2+x,1/2-y,1/2+z
loop_
_atom_site_type_symbol
_atom_site_label
_atom_site_fract_x
_atom_site_fract_y
_atom_site_fract_z
Si Si1 0.087738 0.592487 0.226832
Si Si2 0.585512 0.165530 0.578818
Si Si3 0.262394 0.272447 0.577002
Si Si4 0.914792 0.903777 0.228430
Si Si5 0.327348 0.250284 0.209624
Si Si6 0.375213 0.400816 0.424661
O O1 0.116469 0.500000 0.245063
O O2 0.093115 0.604593 0.144009
O O3 0.127688 0.669035 0.264902
O O4 0.000000 0.596228 0.243275
O O5 0.590396 0.132353 0.500000
O O6 0.500000 0.200516 0.584600
O O7 0.657364 0.225824 0.587462
O O8 0.237990 0.253387 0.500000
O O9 0.199036 0.252544 0.631046
O O10 0.290725 0.367876 0.581799
O O11 0.869478 0.834805 0.269720
O O12 0.913323 0.879249 0.147447
O O13 0.000000 0.902793 0.251483
O O14 0.886968 0.000000 0.233991
O O15 0.250000 0.250000 0.250000
O O16 0.403153 0.368949 0.500000
O O17 0.379735 0.500000 0.428161
#
# Coordination Sequence:
#
# PCOD9521273 Si02
#       6
#    16  16  16  16  16  16
#     4  10  21  35  53  79 109 142 179 218 262 313
#     4   9  17  31  51  75 107 144 176 205 245 310
#     4  10  20  34  50  75 107 139 177 215 262 314
#     4  10  21  36  55  79 107 141 180 220 262 311
#     4  12  21  35  55  81 105 142 177 219 267 312
#     4   9  17  29  46  72 108 143 172 203 246 308
#
# _framework density 17.172091999999999
#
# number of rings (size 3 to 8) (size 9 to 14) (size 15 to 20)
#    0.000    2.000    3.333    0.500    0.000    4.000 
#    0.000    5.000    0.000    2.500    0.000    2.333 
#    0.000    0.000    0.000    0.000    0.000    0.000 
#
# Total GULP energy -267203.198957 kJ/mol
# GULP energy per Si atom -5566.733312 kJ/mol
# Density = 1.713301 g / cm^3
# Si number density = 17.172092 Si / 1000 Ang^3
#
#
#
# Elastic Constant Matrix: (Units=GPa)
#
#
# Indices 1 2 3 4 5 6 
#
# 1 67.1177 47.6721 51.2474 0.0000 0.0000 0.0000
# 2 47.6721 84.7098 48.1703 0.0000 0.0000 0.0000
# 3 51.2474 48.1703 107.4250 0.0000 0.0000 0.0000
# 4 0.0000 0.0000 0.0000 19.2878 0.0000 0.0000
# 5 0.0000 0.0000 0.0000 0.0000 24.5886 0.0000
# 6 0.0000 0.0000 0.0000 0.0000 0.0000 14.6436
#
#
#
# Elastic Compliance Matrix: (Units=1/GPa)
#
#
# Indices 1 2 3 4 5 6 
#
# 1 0.030295 -0.011853 -0.009137 0.000000 0.000000 0.000000
# 2 -0.011853 0.020483 -0.003530 0.000000 0.000000 0.000000
# 3 -0.009137 -0.003530 0.015251 0.000000 0.000000 0.000000
# 4 0.000000 0.000000 0.000000 0.051846 0.000000 0.000000
# 5 0.000000 0.000000 0.000000 0.000000 0.040669 0.000000
# 6 0.000000 0.000000 0.000000 0.000000 0.000000 0.068289
#
#
# Mechanical properties :
#
#
# Convention : Reuss Voigt Hill
#
# Bulk Modulus (GPa) = 58.86666 61.49245 60.17955
# Shear Modulus (GPa) = 17.75965 19.18151 18.47058
#
# Velocity S-wave (km/s) = 3.21941 3.34581 3.28322
# Velocity P-wave (km/s) = 6.94077 7.12833 7.03518
#
# Compressibility (1/GPa) = 0.01698755
#
# Stress axis : x y z
#
# Youngs Moduli (GPa) = 33.00890 48.82092 65.57076
#
# Poissons Ratio (x) = 0.57868 0.59913
# Poissons Ratio (y) = 0.39126 0.23148
# Poissons Ratio (z) = 0.30161 0.17235
#
# Static dielectric constant tensor:
#      x y z
#    x 1.565350 0.000000 0.000000 
#    y 0.000000 1.654360 0.000000 
#    z 0.000000 0.000000 1.626000 
# 
# From -- ./inp_files/52996.got.cif
#   From: 2010.05.17/outbox.cif.g08.bks.cpg/sg71_27_cif.got.tgz:52996.got - 2010.06.03 16:22:01.
