data_PCOD9521061
_publ_section_title
;
Structure prediction by ZEFSAII (Michael W. Deem and Ramdas Pophale) SiO2 
 PCOD9521061
Probable space group: I M M M
;
_chemical_formula_sum "Si O2"
_cell_formula_units_Z 88
_cell_length_a 28.383417
_cell_length_b 19.517411
_cell_length_c 8.040971
_cell_angle_alpha 90.000000
_cell_angle_beta 90.000000
_cell_angle_gamma 90.000000
_cell_volume 4454.463260
_symmetry_space_group_name_H-M "I M M M"
_symmetry_group_IT_number 71
_symmetry_cell_setting 'orthorhombic'
loop_
_space_group_symop_operation_xyz
x,y,z
-x,-y,z
x,-y,-z
-x,y,-z
-x,-y,-z
x,y,-z
-x,y,z
x,-y,z
1/2+x,1/2+y,1/2+z
1/2-x,1/2-y,1/2+z
1/2+x,1/2-y,1/2-z
1/2-x,1/2+y,1/2-z
1/2-x,1/2-y,1/2-z
1/2+x,1/2+y,1/2-z
1/2-x,1/2+y,1/2+z
1/2+x,1/2-y,1/2+z
loop_
_atom_site_type_symbol
_atom_site_label
_atom_site_fract_x
_atom_site_fract_y
_atom_site_fract_z
Si Si1 0.903221 0.641768 0.194481
Si Si2 0.194340 0.688037 0.307698
Si Si3 0.846215 0.169073 0.301284
Si Si4 0.052069 0.783783 0.200068
Si Si5 0.056108 0.500000 0.307763
Si Si6 0.233087 0.076921 0.198815
O O1 0.855478 0.649441 0.297375
O O2 0.937666 0.704122 0.243545
O O3 0.925600 0.568444 0.222222
O O4 0.891562 0.651346 0.000000
O O5 0.207767 0.699656 0.500000
O O6 0.181780 0.762948 0.234539
O O7 0.232680 0.636627 0.231118
O O8 0.842340 0.169482 0.500000
O O9 0.901298 0.176464 0.258508
O O10 0.819637 0.103125 0.231939
O O11 0.000000 0.804213 0.262072
O O12 0.051204 0.788445 0.000000
O O13 0.071654 0.500000 0.500000
O O14 0.000000 0.500000 0.303160
O O15 0.241466 0.000000 0.263868
O O16 0.241000 0.074492 0.000000
#
# Coordination Sequence:
#
# PCOD9521061 Si02
#       6
#    16  16  16  16   8  16
#     4  10  20  33  51  76 104 135 176 224 269 314
#     4   9  19  35  54  78 107 142 181 218 263 317
#     4  10  20  34  54  81 111 141 175 221 269 317
#     4   9  18  34  56  79 104 136 174 217 265 320
#     4  11  23  35  47  65  97 143 185 223 270 319
#     4  10  21  36  55  78 106 144 184 221 264 317
#
# _framework density 19.755465999999998
#
# number of rings (size 3 to 8) (size 9 to 14) (size 15 to 20)
#    0.000    2.273    0.000    2.455    1.273    4.364 
#    0.000    0.000    0.000    0.545    0.000    3.818 
#    0.000    0.000    0.000    0.000    0.000    0.000 
#
# Total GULP energy -245438.422457 kJ/mol
# GULP energy per Si atom -5578.145965 kJ/mol
# Density = 1.971050 g / cm^3
# Si number density = 19.755466 Si / 1000 Ang^3
#
#
#
# Elastic Constant Matrix: (Units=GPa)
#
#
# Indices 1 2 3 4 5 6 
#
# 1 95.7903 38.2045 4.3304 0.0000 0.0000 0.0000
# 2 38.2045 42.8754 2.0459 0.0000 0.0000 0.0000
# 3 4.3304 2.0459 21.3320 0.0000 0.0000 0.0000
# 4 0.0000 0.0000 0.0000 -11.7579 0.0000 0.0000
# 5 0.0000 0.0000 0.0000 0.0000 21.2761 0.0000
# 6 0.0000 0.0000 0.0000 0.0000 0.0000 5.7154
#
#
#
# Elastic Compliance Matrix: (Units=1/GPa)
#
#
# Indices 1 2 3 4 5 6 
#
# 1 0.016273 -0.014408 -0.001921 0.000000 0.000000 0.000000
# 2 -0.014408 0.036188 -0.000546 0.000000 0.000000 0.000000
# 3 -0.001921 -0.000546 0.047320 0.000000 0.000000 0.000000
# 4 0.000000 0.000000 0.000000 -0.085049 0.000000 0.000000
# 5 0.000000 0.000000 0.000000 0.000000 0.047001 0.000000
# 6 0.000000 0.000000 0.000000 0.000000 0.000000 0.174964
#
#
# Mechanical properties :
#
#
# Convention : Reuss Voigt Hill
#
# Bulk Modulus (GPa) = 15.14468 27.68438 21.41453
# Shear Modulus (GPa) = 17.09639 10.74119 13.91879
#
# Velocity S-wave (km/s) = 2.94496 2.33428 2.65722
# Velocity P-wave (km/s) = 4.38708 4.61618 4.50309
#
# Compressibility (1/GPa) = 0.06602980
#
# Stress axis : x y z
#
# Youngs Moduli (GPa) = 61.45178 27.63332 21.13257
#
# Poissons Ratio (x) = 0.39815 0.04061
# Poissons Ratio (y) = 0.88542 0.01154
# Poissons Ratio (z) = 0.11808 0.01509
#
# Static dielectric constant tensor:
#      x y z
#    x 1.701370 0.000000 0.000000 
#    y 0.000000 1.736330 0.000000 
#    z 0.000000 0.000000 1.721460 
# 
# From -- ./inp_files/10407.got.cif
#   From: 2010.05.17/outbox.cif.g08.bks.cpg/sg71_6_cif.got.tgz:10407.got - 2010.06.03 16:22:01.
