data_PCOD9521034
_publ_section_title
;
Structure prediction by ZEFSAII (Michael W. Deem and Ramdas Pophale) SiO2 
 PCOD9521034
Probable space group: I M M M
;
_chemical_formula_sum "Si O2"
_cell_formula_units_Z 88
_cell_length_a 12.816323
_cell_length_b 30.298402
_cell_length_c 12.821766
_cell_angle_alpha 90.000000
_cell_angle_beta 90.000000
_cell_angle_gamma 90.000000
_cell_volume 4978.872607
_symmetry_space_group_name_H-M "I M M M"
_symmetry_group_IT_number 71
_symmetry_cell_setting 'orthorhombic'
loop_
_space_group_symop_operation_xyz
x,y,z
-x,-y,z
x,-y,-z
-x,y,-z
-x,-y,-z
x,y,-z
-x,y,z
x,-y,z
1/2+x,1/2+y,1/2+z
1/2-x,1/2-y,1/2+z
1/2+x,1/2-y,1/2-z
1/2-x,1/2+y,1/2-z
1/2-x,1/2-y,1/2-z
1/2+x,1/2+y,1/2-z
1/2-x,1/2+y,1/2+z
1/2+x,1/2-y,1/2+z
loop_
_atom_site_type_symbol
_atom_site_label
_atom_site_fract_x
_atom_site_fract_y
_atom_site_fract_z
Si Si1 0.123584 0.744546 0.378229
Si Si2 0.876628 0.599001 0.883160
Si Si3 0.377220 0.050854 0.173644
Si Si4 0.000000 0.950471 0.873413
Si Si5 0.739156 0.820183 0.723745
Si Si6 0.310841 0.388849 0.381598
O O1 0.144003 0.732823 0.500000
O O2 0.192819 0.786632 0.344656
O O3 0.158412 0.706716 0.296858
O O4 0.000000 0.753079 0.368330
O O5 0.861842 0.561088 0.796639
O O6 0.817722 0.642903 0.845520
O O7 0.000000 0.608630 0.883313
O O8 0.845059 0.586372 0.000000
O O9 0.500000 0.058074 0.149360
O O10 0.300176 0.085756 0.120740
O O11 0.352042 0.000000 0.148177
O O12 0.102935 0.923707 0.844335
O O13 0.000000 0.000000 0.832430
O O14 0.000000 0.952843 0.000000
O O15 0.808861 0.847533 0.805422
O O16 0.334607 0.375674 0.500000
#
# Coordination Sequence:
#
# PCOD9521034 Si02
#       6
#    16  16  16   8  16  16
#     4  10  21  36  54  75 101 133 168 209 259 315
#     4   9  17  30  49  72  99 131 167 208 253 301
#     4   9  18  31  47  72 103 134 170 209 252 304
#     4   9  18  32  50  72  99 133 171 207 246 296
#     4  10  20  34  53  74 102 129 169 210 256 306
#     4  10  20  33  51  74 101 134 170 211 255 303
#
# _framework density 17.674683999999999
#
# number of rings (size 3 to 8) (size 9 to 14) (size 15 to 20)
#    0.000    2.455    0.000    2.182    1.273    2.545 
#    0.000    2.727    0.000    3.273    0.000    0.000 
#    0.000    7.636    0.000    0.000    0.000    0.000 
#
# Total GULP energy -245297.107873 kJ/mol
# GULP energy per Si atom -5574.934270 kJ/mol
# Density = 1.763446 g / cm^3
# Si number density = 17.674684 Si / 1000 Ang^3
#
#
#
# Elastic Constant Matrix: (Units=GPa)
#
#
# Indices 1 2 3 4 5 6 
#
# 1 41.6489 -3.3755 6.4601 0.0001 0.0002 0.0001
# 2 -3.3755 22.4447 -13.9470 0.0002 0.0001 0.0000
# 3 6.4601 -13.9470 61.2825 -0.0003 0.0007 0.0001
# 4 0.0001 0.0002 -0.0003 12.8421 0.0001 0.0001
# 5 0.0002 0.0001 0.0007 0.0001 12.3423 -0.0003
# 6 0.0001 0.0000 0.0001 0.0001 -0.0003 21.8339
#
#
#
# Elastic Compliance Matrix: (Units=1/GPa)
#
#
# Indices 1 2 3 4 5 6 
#
# 1 0.024522 0.002424 -0.002033 0.000000 0.000000 0.000000
# 2 0.002424 0.052132 0.011609 -0.000001 -0.000001 0.000000
# 3 -0.002033 0.011609 0.019174 0.000000 -0.000001 0.000000
# 4 0.000000 -0.000001 0.000000 0.077869 -0.000001 0.000000
# 5 0.000000 -0.000001 -0.000001 -0.000001 0.081022 0.000001
# 6 0.000000 0.000000 0.000000 0.000000 0.000001 0.045800
#
#
# Mechanical properties :
#
#
# Convention : Reuss Voigt Hill
#
# Bulk Modulus (GPa) = 8.34524 11.51682 9.93103
# Shear Modulus (GPa) = 15.79965 18.48622 17.14293
#
# Velocity S-wave (km/s) = 2.99308 3.23757 3.11772
# Velocity P-wave (km/s) = 4.08369 4.52835 4.31176
#
# Compressibility (1/GPa) = 0.11982873
#
# Stress axis : x y z
#
# Youngs Moduli (GPa) = 40.77956 19.18203 52.15337
#
# Poissons Ratio (x) = -0.04651 0.10604
# Poissons Ratio (y) = -0.09887 -0.60544
# Poissons Ratio (z) = 0.08291 -0.22268
#
# Static dielectric constant tensor:
#      x y z
#    x 1.595450 0.000000 0.000000 
#    y 0.000000 1.581330 0.000000 
#    z 0.000000 0.000000 1.618120 
# 
# From -- ./inp_files/20260.got.cif
#   From: 2010.05.17/outbox.cif.g08.bks.cpg/sg71_11_cif.got.tgz:20260.got - 2010.06.03 16:22:01.
