data_PCOD9521629
_publ_section_title
;
Structure prediction by ZEFSAII (Michael W. Deem and Ramdas Pophale) SiO2 
 PCOD9521629
Probable space group: I M M M
;
_chemical_formula_sum "Si O2"
_cell_formula_units_Z 72
_cell_length_a 33.002450
_cell_length_b 13.547887
_cell_length_c 8.115133
_cell_angle_alpha 90.000000
_cell_angle_beta 90.000000
_cell_angle_gamma 90.000000
_cell_volume 3628.385221
_symmetry_space_group_name_H-M "I M M M"
_symmetry_group_IT_number 71
_symmetry_cell_setting 'orthorhombic'
loop_
_space_group_symop_operation_xyz
x,y,z
-x,-y,z
x,-y,-z
-x,y,-z
-x,-y,-z
x,y,-z
-x,y,z
x,-y,z
1/2+x,1/2+y,1/2+z
1/2-x,1/2-y,1/2+z
1/2+x,1/2-y,1/2-z
1/2-x,1/2+y,1/2-z
1/2-x,1/2-y,1/2-z
1/2+x,1/2+y,1/2-z
1/2-x,1/2+y,1/2+z
1/2+x,1/2-y,1/2+z
loop_
_atom_site_type_symbol
_atom_site_label
_atom_site_fract_x
_atom_site_fract_y
_atom_site_fract_z
Si Si1 0.832359 0.618219 0.180069
Si Si2 0.783196 0.379117 0.500000
Si Si3 0.914771 0.697118 0.308962
Si Si4 0.690336 0.620065 0.500000
Si Si5 0.000000 0.386403 0.802864
Si Si6 0.134661 0.884165 0.688799
O O1 0.828177 0.500000 0.179062
O O2 0.806711 0.654409 0.336167
O O3 0.879457 0.643027 0.207922
O O4 0.819104 0.654854 0.000000
O O5 0.783885 0.500000 0.500000
O O6 0.736723 0.346533 0.500000
O O7 0.909261 0.669106 0.500000
O O8 0.903949 0.812864 0.293509
O O9 0.959351 0.667393 0.255486
O O10 0.692037 0.500000 0.500000
O O11 0.665913 0.644931 0.667100
O O12 0.000000 0.500000 0.742819
O O13 0.000000 0.388108 0.000000
O O14 0.150093 0.870861 0.500000
O O15 0.125160 0.000000 0.708329
#
# Coordination Sequence:
#
# PCOD9521629 Si02
#       6
#    16   8  16   8   8  16
#     4  10  20  34  55  81 115 158 194 237 296 351
#     4   9  18  34  54  83 116 149 200 249 290 349
#     4  11  22  38  62  85 117 155 196 239 292 345
#     4   9  18  34  60  85 111 153 199 249 297 339
#     4  11  25  41  60  93 126 156 192 233 284 346
#     4   9  20  38  60  86 115 152 199 243 292 347
#
# _framework density 19.843539
#
# number of rings (size 3 to 8) (size 9 to 14) (size 15 to 20)
#    0.000    2.111    1.111    1.667    3.111    4.444 
#    0.000    6.111    0.000    3.333    0.000    0.000 
#    0.000    0.000    0.000    0.000    0.000    0.000 
#
# Total GULP energy -201069.430571 kJ/mol
# GULP energy per Si atom -5585.261960 kJ/mol
# Density = 1.979837 g / cm^3
# Si number density = 19.843539 Si / 1000 Ang^3
#
#
#
# Elastic Constant Matrix: (Units=GPa)
#
#
# Indices 1 2 3 4 5 6 
#
# 1 156.7889 42.5802 90.1335 0.0000 0.0000 0.0000
# 2 42.5802 72.9229 59.2388 0.0000 0.0000 0.0000
# 3 90.1335 59.2388 164.6547 0.0000 0.0000 0.0000
# 4 0.0000 0.0000 0.0000 29.6877 0.0000 0.0000
# 5 0.0000 0.0000 0.0000 0.0000 -6.5757 0.0000
# 6 0.0000 0.0000 0.0000 0.0000 0.0000 24.7140
#
#
#
# Elastic Compliance Matrix: (Units=1/GPa)
#
#
# Indices 1 2 3 4 5 6 
#
# 1 0.009483 -0.001865 -0.004520 0.000000 0.000000 0.000000
# 2 -0.001865 0.019743 -0.006082 0.000000 0.000000 0.000000
# 3 -0.004520 -0.006082 0.010736 0.000000 0.000000 0.000000
# 4 0.000000 0.000000 0.000000 0.033684 0.000000 0.000000
# 5 0.000000 0.000000 0.000000 0.000000 -0.152074 0.000000
# 6 0.000000 0.000000 0.000000 0.000000 0.000000 0.040463
#
#
# Mechanical properties :
#
#
# Convention : Reuss Voigt Hill
#
# Bulk Modulus (GPa) = 66.54631 86.47462 76.51047
# Shear Modulus (GPa) = -623.27282 23.05946 -300.10668
#
# Velocity S-wave (km/s) = -17.74191 3.41260 -12.31117
# Velocity P-wave (km/s) = 19.64923 7.69420 12.78459
#
# Compressibility (1/GPa) = 0.01502713
#
# Stress axis : x y z
#
# Youngs Moduli (GPa) = 105.45189 50.65100 93.14726
#
# Poissons Ratio (x) = 0.09449 0.42102
# Poissons Ratio (y) = 0.19671 0.56651
# Poissons Ratio (z) = 0.47664 0.30805
#
# Static dielectric constant tensor:
#      x y z
#    x 1.633680 0.000000 0.000000 
#    y 0.000000 1.738170 0.000000 
#    z 0.000000 0.000000 1.723950 
# 
# From -- ./inp_files/14372.got.cif
#   From: 2010.05.17/outbox.cif.g08.bks.cpg/sg71_8_cif.got.tgz:14372.got - 2010.06.03 16:22:01.
