data_PCOD9521290
_publ_section_title
;
Structure prediction by ZEFSAII (Michael W. Deem and Ramdas Pophale) SiO2 
 PCOD9521290
Probable space group: I M M M
;
_chemical_formula_sum "Si O2"
_cell_formula_units_Z 128
_cell_length_a 22.670703
_cell_length_b 15.747963
_cell_length_c 18.446894
_cell_angle_alpha 90.000000
_cell_angle_beta 90.000000
_cell_angle_gamma 90.000000
_cell_volume 6585.861987
_symmetry_space_group_name_H-M "I M M M"
_symmetry_group_IT_number 71
_symmetry_cell_setting 'orthorhombic'
loop_
_space_group_symop_operation_xyz
x,y,z
-x,-y,z
x,-y,-z
-x,y,-z
-x,-y,-z
x,y,-z
-x,y,z
x,-y,z
1/2+x,1/2+y,1/2+z
1/2-x,1/2-y,1/2+z
1/2+x,1/2-y,1/2-z
1/2-x,1/2+y,1/2-z
1/2-x,1/2-y,1/2-z
1/2+x,1/2+y,1/2-z
1/2-x,1/2+y,1/2+z
1/2+x,1/2-y,1/2+z
loop_
_atom_site_type_symbol
_atom_site_label
_atom_site_fract_x
_atom_site_fract_y
_atom_site_fract_z
Si Si1 0.932462 0.602492 0.916289
Si Si2 0.743058 0.599040 0.269182
Si Si3 0.808650 0.103737 0.080439
Si Si4 0.115530 0.851563 0.724669
Si Si5 0.428861 0.274256 0.081192
Si Si6 0.929128 0.406710 0.646910
Si Si7 0.136342 0.336835 0.781810
Si Si8 0.563585 0.598684 0.630861
O O1 0.928022 0.500000 0.911787
O O2 0.886915 0.643225 0.861205
O O3 0.000000 0.625055 0.896030
O O4 0.923007 0.626379 0.000000
O O5 0.759810 0.500000 0.271793
O O6 0.731649 0.630224 0.351829
O O7 0.680016 0.607679 0.230424
O O8 0.794492 0.649140 0.229685
O O9 0.876072 0.132869 0.095713
O O10 0.809466 0.000000 0.083197
O O11 0.789812 0.129395 0.000000
O O12 0.094011 0.837259 0.643277
O O13 0.120074 0.757462 0.758135
O O14 0.073494 0.898096 0.782286
O O15 0.500000 0.276639 0.082956
O O16 0.411919 0.176535 0.100915
O O17 0.408967 0.294845 0.000000
O O18 0.914666 0.500000 0.615682
O O19 0.897754 0.396683 0.724329
O O20 0.000000 0.403122 0.656346
O O21 0.500000 0.638165 0.612367
O O22 0.561388 0.500000 0.608807
#
# Coordination Sequence:
#
# PCOD9521290 Si02
#       8
#    16  16  16  16  16  16  16  16
#     4   9  18  33  53  77 106 138 169 207 257 304
#     4  10  20  35  54  73  95 131 176 213 247 293
#     4   8  15  29  48  71 101 132 161 201 249 289
#     4  10  20  34  51  72 101 134 165 208 260 300
#     4   9  18  32  50  72  99 132 165 200 250 306
#     4   9  17  29  48  75 103 130 161 198 240 290
#     4  11  20  32  52  76 101 130 170 209 245 298
#     4   9  17  30  51  77 102 134 175 209 242 295
#
# _framework density 19.435573000000002
#
# number of rings (size 3 to 8) (size 9 to 14) (size 15 to 20)
#    0.000    2.625    0.000    3.750    0.000    3.000 
#    0.000    8.125    0.000    5.250    0.000    4.375 
#    0.000    0.000    0.000    0.000    0.000    0.000 
#
# Total GULP energy -356941.905354 kJ/mol
# GULP energy per Si atom -5577.217271 kJ/mol
# Density = 1.939134 g / cm^3
# Si number density = 19.435573 Si / 1000 Ang^3
#
#
#
# Elastic Constant Matrix: (Units=GPa)
#
#
# Indices 1 2 3 4 5 6 
#
# 1 65.4454 2.0343 36.3751 0.0000 0.0000 0.0000
# 2 2.0343 23.8850 8.2345 0.0000 0.0000 0.0000
# 3 36.3751 8.2345 97.4380 0.0000 0.0000 0.0000
# 4 0.0000 0.0000 0.0000 18.7695 0.0000 0.0000
# 5 0.0000 0.0000 0.0000 0.0000 19.2093 0.0000
# 6 0.0000 0.0000 0.0000 0.0000 0.0000 24.5628
#
#
#
# Elastic Compliance Matrix: (Units=1/GPa)
#
#
# Indices 1 2 3 4 5 6 
#
# 1 0.019298 0.000865 -0.007277 0.000000 0.000000 0.000000
# 2 0.000865 0.043162 -0.003971 0.000000 0.000000 0.000000
# 3 -0.007277 -0.003971 0.013315 0.000000 0.000000 0.000000
# 4 0.000000 0.000000 0.000000 0.053278 0.000000 0.000000
# 5 0.000000 0.000000 0.000000 0.000000 0.052058 0.000000
# 6 0.000000 0.000000 0.000000 0.000000 0.000000 0.040712
#
#
# Mechanical properties :
#
#
# Convention : Reuss Voigt Hill
#
# Bulk Modulus (GPa) = 18.17847 31.11735 24.64791
# Shear Modulus (GPa) = 19.16255 21.84995 20.50625
#
# Velocity S-wave (km/s) = 3.14339 3.35658 3.25174
# Velocity P-wave (km/s) = 4.74848 5.57382 5.17762
#
# Compressibility (1/GPa) = 0.05501013
#
# Stress axis : x y z
#
# Youngs Moduli (GPa) = 51.81935 23.16829 75.10199
#
# Poissons Ratio (x) = -0.02005 0.54654
# Poissons Ratio (y) = -0.04484 0.29821
# Poissons Ratio (z) = 0.37710 0.09199
#
# Static dielectric constant tensor:
#      x y z
#    x 1.679900 0.000000 0.000000 
#    y 0.000000 1.700380 0.000000 
#    z 0.000000 0.000000 1.681220 
# 
# From -- ./inp_files/48424.got.cif
#   From: 2010.05.17/outbox.cif.g08.bks.cpg/sg71_25_cif.got.tgz:48424.got - 2010.06.03 16:22:01.
