data_PCOD9521737
_publ_section_title
;
Structure prediction by ZEFSAII (Michael W. Deem and Ramdas Pophale) SiO2 
 PCOD9521737
Probable space group: I M M M
;
_chemical_formula_sum "Si O2"
_cell_formula_units_Z 90
_cell_length_a 7.446163
_cell_length_b 23.679181
_cell_length_c 22.485090
_cell_angle_alpha 90.000000
_cell_angle_beta 90.000000
_cell_angle_gamma 90.000000
_cell_volume 3964.549515
_symmetry_space_group_name_H-M "I M M M"
_symmetry_group_IT_number 71
_symmetry_cell_setting 'orthorhombic'
loop_
_space_group_symop_operation_xyz
x,y,z
-x,-y,z
x,-y,-z
-x,y,-z
-x,-y,-z
x,y,-z
-x,y,z
x,-y,z
1/2+x,1/2+y,1/2+z
1/2-x,1/2-y,1/2+z
1/2+x,1/2-y,1/2-z
1/2-x,1/2+y,1/2-z
1/2-x,1/2-y,1/2-z
1/2+x,1/2+y,1/2-z
1/2-x,1/2+y,1/2+z
1/2+x,1/2-y,1/2+z
loop_
_atom_site_type_symbol
_atom_site_label
_atom_site_fract_x
_atom_site_fract_y
_atom_site_fract_z
Si Si1 0.702754 0.885920 0.821637
Si Si2 0.714675 0.281299 0.000000
Si Si3 0.791232 0.440287 0.868674
Si Si4 0.777124 0.500000 0.612685
Si Si5 0.280067 0.831340 0.300338
Si Si6 0.290485 0.725341 0.625899
Si Si7 0.500000 0.500000 0.500000
Si Si8 0.284204 0.589566 0.000000
O O1 0.500000 0.900411 0.803327
O O2 0.781086 0.854002 0.763800
O O3 0.702562 0.835839 0.869759
O O4 0.772994 0.943698 0.849540
O O5 0.773341 0.251402 0.060489
O O6 0.779282 0.345699 0.000000
O O7 0.500000 0.282364 0.000000
O O8 0.711900 0.500000 0.847328
O O9 0.719191 0.381303 0.844484
O O10 0.000000 0.440602 0.851050
O O11 0.779385 0.438199 0.939491
O O12 0.659796 0.500000 0.552673
O O13 0.000000 0.500000 0.603521
O O14 0.500000 0.827251 0.300668
O O15 0.217967 0.771098 0.326105
O O16 0.500000 0.716733 0.638005
O O17 0.500000 0.587879 0.000000
#
# Coordination Sequence:
#
# PCOD9521737 Si02
#       8
#    16   8  16   8  16  16   2   8
#     4  10  22  42  66  95 131 165 211 258 322 400
#     4  11  23  39  59  83 118 163 211 260 317 373
#     4  10  20  34  57  85 114 158 210 253 301 357
#     4  10  25  47  77 108 135 180 223 274 346 410
#     4   9  19  36  61  92 127 166 208 260 311 379
#     4  11  22  38  63  94 125 164 211 262 326 383
#     4  12  26  48  84  98 152 168 226 290 346 410
#     4  11  22  36  54  77 119 161 204 256 312 361
#
# _framework density 22.701194000000001
#
# number of rings (size 3 to 8) (size 9 to 14) (size 15 to 20)
#    0.000    1.778    1.778    2.000    2.489    2.844 
#    0.000    2.667    0.000    0.000    0.000    0.000 
#    0.000    0.000    0.000    0.000    0.000    0.000 
#
# Total GULP energy -250996.076385 kJ/mol
# GULP energy per Si atom -5577.690586 kJ/mol
# Density = 2.264953 g / cm^3
# Si number density = 22.701194 Si / 1000 Ang^3
#
#
#
# Elastic Constant Matrix: (Units=GPa)
#
#
# Indices 1 2 3 4 5 6 
#
# 1 92.5557 9.5771 6.1749 0.0000 0.0000 0.0000
# 2 9.5771 197.3677 59.6307 0.0000 0.0000 0.0000
# 3 6.1749 59.6307 113.6781 0.0000 0.0000 0.0000
# 4 0.0000 0.0000 0.0000 24.8055 0.0000 0.0000
# 5 0.0000 0.0000 0.0000 0.0000 -10.0244 0.0000
# 6 0.0000 0.0000 0.0000 0.0000 0.0000 185.0956
#
#
#
# Elastic Compliance Matrix: (Units=1/GPa)
#
#
# Indices 1 2 3 4 5 6 
#
# 1 0.010872 -0.000415 -0.000373 0.000000 0.000000 0.000000
# 2 -0.000415 0.006037 -0.003144 0.000000 0.000000 0.000000
# 3 -0.000373 -0.003144 0.010466 0.000000 0.000000 0.000000
# 4 0.000000 0.000000 0.000000 0.040314 0.000000 0.000000
# 5 0.000000 0.000000 0.000000 0.000000 -0.099757 0.000000
# 6 0.000000 0.000000 0.000000 0.000000 0.000000 0.005403
#
#
# Mechanical properties :
#
#
# Convention : Reuss Voigt Hill
#
# Bulk Modulus (GPa) = 51.25226 61.59633 56.42430
# Shear Modulus (GPa) = -406.57459 61.85661 -172.35899
#
# Velocity S-wave (km/s) = -13.39728 5.22564 -8.72295
# Velocity P-wave (km/s) = 14.72040 7.97510 8.74894
#
# Compressibility (1/GPa) = 0.01951133
#
# Stress axis : x y z
#
# Youngs Moduli (GPa) = 91.97839 165.65245 95.54502
#
# Poissons Ratio (x) = 0.06873 0.03563
# Poissons Ratio (y) = 0.03816 0.30040
# Poissons Ratio (z) = 0.03430 0.52082
#
# Static dielectric constant tensor:
#      x y z
#    x 1.907740 0.000000 0.000000 
#    y 0.000000 1.848910 0.000000 
#    z 0.000000 0.000000 1.831010 
# 
# From -- ./inp_files/50659.got.cif
#   From: 2010.05.17/outbox.cif.g08.bks.cpg/sg71_26_cif.got.tgz:50659.got - 2010.06.03 16:22:01.
