data_PCOD9521681
_publ_section_title
;
Structure prediction by ZEFSAII (Michael W. Deem and Ramdas Pophale) SiO2 
 PCOD9521681
Probable space group: I M M M
;
_chemical_formula_sum "Si O2"
_cell_formula_units_Z 64
_cell_length_a 10.988442
_cell_length_b 23.092975
_cell_length_c 12.615197
_cell_angle_alpha 90.000000
_cell_angle_beta 90.000000
_cell_angle_gamma 90.000000
_cell_volume 3201.179614
_symmetry_space_group_name_H-M "I M M M"
_symmetry_group_IT_number 71
_symmetry_cell_setting 'orthorhombic'
loop_
_space_group_symop_operation_xyz
x,y,z
-x,-y,z
x,-y,-z
-x,y,-z
-x,-y,-z
x,y,-z
-x,y,z
x,-y,z
1/2+x,1/2+y,1/2+z
1/2-x,1/2-y,1/2+z
1/2+x,1/2-y,1/2-z
1/2-x,1/2+y,1/2-z
1/2-x,1/2-y,1/2-z
1/2+x,1/2+y,1/2-z
1/2-x,1/2+y,1/2+z
1/2+x,1/2-y,1/2+z
loop_
_atom_site_type_symbol
_atom_site_label
_atom_site_fract_x
_atom_site_fract_y
_atom_site_fract_z
Si Si1 0.000000 0.570039 0.622296
Si Si2 0.765687 0.430917 0.768041
Si Si3 0.133547 0.737680 0.383416
Si Si4 0.639879 0.929630 0.500000
Si Si5 0.134099 0.173466 0.810638
O O1 0.881482 0.583046 0.693175
O O2 0.000000 0.500000 0.614258
O O3 0.000000 0.591593 0.500000
O O4 0.744986 0.500000 0.765298
O O5 0.656883 0.392369 0.723636
O O6 0.796972 0.413370 0.889344
O O7 0.135974 0.764415 0.500000
O O8 0.139299 0.786531 0.294286
O O9 0.249276 0.695977 0.374724
O O10 0.000000 0.708395 0.370491
O O11 0.500000 0.908898 0.500000
O O12 0.635692 0.000000 0.500000
O O13 0.000000 0.181107 0.859072
#
# Coordination Sequence:
#
# PCOD9521681 Si02
#       5
#     8  16  16   8  16
#     4   9  18  33  53  79 113 152 195 239 278 327
#     4  10  20  34  55  85 120 156 193 234 287 350
#     4   9  20  40  63  83 109 149 196 245 292 341
#     4   9  16  30  51  79 117 155 193 241 282 327
#     4  10  22  38  58  86 119 150 189 238 292 353
#
# _framework density 19.992629999999998
#
# number of rings (size 3 to 8) (size 9 to 14) (size 15 to 20)
#    0.000    2.500    1.250    0.000    3.500    2.000 
#    0.000    0.000    0.000    2.250    0.000    5.250 
#    0.000    0.000    0.000    0.000    0.000    0.000 
#
# Total GULP energy -178379.165489 kJ/mol
# GULP energy per Si atom -5574.348922 kJ/mol
# Density = 1.994713 g / cm^3
# Si number density = 19.992630 Si / 1000 Ang^3
#
#
#
# Elastic Constant Matrix: (Units=GPa)
#
#
# Indices 1 2 3 4 5 6 
#
# 1 127.5113 30.6039 28.2868 0.0000 0.0000 0.0000
# 2 30.6039 52.6703 8.5771 0.0000 0.0000 0.0000
# 3 28.2868 8.5771 110.9968 -0.0001 0.0000 0.0000
# 4 0.0000 0.0000 -0.0001 3.9483 0.0000 0.0000
# 5 0.0000 0.0000 0.0000 0.0000 7.6684 0.0000
# 6 0.0000 0.0000 0.0000 0.0000 0.0000 31.0565
#
#
#
# Elastic Compliance Matrix: (Units=1/GPa)
#
#
# Indices 1 2 3 4 5 6 
#
# 1 0.009544 -0.005215 -0.002029 0.000000 0.000000 0.000000
# 2 -0.005215 0.022078 -0.000377 0.000000 0.000000 0.000000
# 3 -0.002029 -0.000377 0.009556 0.000000 0.000000 0.000000
# 4 0.000000 0.000000 0.000000 0.253276 0.000001 0.000000
# 5 0.000000 0.000000 0.000000 0.000001 0.130405 0.000000
# 6 0.000000 0.000000 0.000000 0.000000 0.000000 0.032199
#
#
# Mechanical properties :
#
#
# Convention : Reuss Voigt Hill
#
# Bulk Modulus (GPa) = 38.55852 47.34599 42.95226
# Shear Modulus (GPa) = 10.39619 23.44869 16.92244
#
# Velocity S-wave (km/s) = 2.28283 3.42843 2.91251
# Velocity P-wave (km/s) = 5.12607 6.27736 5.73070
#
# Compressibility (1/GPa) = 0.02593460
#
# Stress axis : x y z
#
# Youngs Moduli (GPa) = 104.77431 45.29453 104.65120
#
# Poissons Ratio (x) = 0.23622 0.21237
# Poissons Ratio (y) = 0.54642 0.03945
# Poissons Ratio (z) = 0.21262 0.01707
#
# Static dielectric constant tensor:
#      x y z
#    x 1.723490 0.000000 0.000000 
#    y 0.000000 1.710920 0.000000 
#    z 0.000000 0.000000 1.689010 
# 
# From -- ./inp_files/19626.got.cif
#   From: 2010.05.17/outbox.cif.g08.bks.cpg/sg71_10_cif.got.tgz:19626.got - 2010.06.03 16:22:01.
