data_PCOD9521752
_publ_section_title
;
Structure prediction by ZEFSAII (Michael W. Deem and Ramdas Pophale) SiO2 
 PCOD9521752
Probable space group: I M M M
;
_chemical_formula_sum "Si O2"
_cell_formula_units_Z 88
_cell_length_a 15.475781
_cell_length_b 14.607632
_cell_length_c 19.151884
_cell_angle_alpha 90.000000
_cell_angle_beta 90.000000
_cell_angle_gamma 90.000000
_cell_volume 4329.561344
_symmetry_space_group_name_H-M "I M M M"
_symmetry_group_IT_number 71
_symmetry_cell_setting 'orthorhombic'
loop_
_space_group_symop_operation_xyz
x,y,z
-x,-y,z
x,-y,-z
-x,y,-z
-x,-y,-z
x,y,-z
-x,y,z
x,-y,z
1/2+x,1/2+y,1/2+z
1/2-x,1/2-y,1/2+z
1/2+x,1/2-y,1/2-z
1/2-x,1/2+y,1/2-z
1/2-x,1/2-y,1/2-z
1/2+x,1/2+y,1/2-z
1/2-x,1/2+y,1/2+z
1/2+x,1/2-y,1/2+z
loop_
_atom_site_type_symbol
_atom_site_label
_atom_site_fract_x
_atom_site_fract_y
_atom_site_fract_z
Si Si1 0.253362 0.853361 0.675476
Si Si2 0.105230 0.000000 0.085113
Si Si3 0.095922 0.364712 0.419235
Si Si4 0.404011 0.642161 0.080160
Si Si5 0.764609 0.132105 0.835349
Si Si6 0.403976 0.891609 0.424524
O O1 0.173837 0.887165 0.628605
O O2 0.238674 0.889500 0.753263
O O3 0.260209 0.742771 0.668112
O O4 0.342676 0.880163 0.640445
O O5 0.155375 0.086199 0.122467
O O6 0.000000 0.000000 0.096506
O O7 0.118548 0.000000 0.000000
O O8 0.106508 0.392055 0.500000
O O9 0.096189 0.253444 0.418762
O O10 0.176159 0.396387 0.373673
O O11 0.000000 0.392829 0.395369
O O12 0.500000 0.612970 0.102642
O O13 0.391081 0.613964 0.000000
O O14 0.369102 0.856403 0.500000
O O15 0.500000 0.852049 0.414798
O O16 0.412399 0.000000 0.431552
#
# Coordination Sequence:
#
# PCOD9521752 Si02
#       6
#    16   8  16  16  16  16
#     4  10  20  34  58  86 114 150 192 247 305 355
#     4  11  26  46  63  81 118 173 221 259 297 348
#     4   8  14  28  51  76 104 137 173 223 285 342
#     4   8  14  26  47  76 107 138 174 219 276 342
#     4  10  22  37  56  86 115 149 201 249 297 356
#     4   9  19  35  55  82 115 150 188 233 291 358
#
# _framework density 20.325385000000001
#
# number of rings (size 3 to 8) (size 9 to 14) (size 15 to 20)
#    0.000    2.818    0.000    2.727    1.273    4.364 
#    0.000    5.909    0.000    1.636    0.000    2.545 
#    0.000    0.000    0.000    0.000    0.000    0.000 
#
# Total GULP energy -245143.392993 kJ/mol
# GULP energy per Si atom -5571.440750 kJ/mol
# Density = 2.027912 g / cm^3
# Si number density = 20.325385 Si / 1000 Ang^3
#
#
#
# Elastic Constant Matrix: (Units=GPa)
#
#
# Indices 1 2 3 4 5 6 
#
# 1 160.1702 18.1140 102.0209 0.0000 0.0000 0.0000
# 2 18.1140 73.1810 19.4082 0.0000 0.0000 0.0000
# 3 102.0209 19.4082 135.8979 0.0000 0.0000 0.0000
# 4 0.0000 0.0000 0.0000 28.8015 0.0000 0.0000
# 5 0.0000 0.0000 0.0000 0.0000 123.0883 0.0000
# 6 0.0000 0.0000 0.0000 0.0000 0.0000 22.6969
#
#
#
# Elastic Compliance Matrix: (Units=1/GPa)
#
#
# Indices 1 2 3 4 5 6 
#
# 1 0.011990 -0.000603 -0.008915 0.000000 0.000000 0.000000
# 2 -0.000603 0.014233 -0.001580 0.000000 0.000000 0.000000
# 3 -0.008915 -0.001580 0.014277 0.000000 0.000000 0.000000
# 4 0.000000 0.000000 0.000000 0.034720 0.000000 0.000000
# 5 0.000000 0.000000 0.000000 0.000000 0.008124 0.000000
# 6 0.000000 0.000000 0.000000 0.000000 0.000000 0.044059
#
#
# Mechanical properties :
#
#
# Convention : Reuss Voigt Hill
#
# Bulk Modulus (GPa) = 54.63402 72.03726 63.33564
# Shear Modulus (GPa) = 32.11293 50.23107 41.17200
#
# Velocity S-wave (km/s) = 3.97916 4.97666 4.50560
# Velocity P-wave (km/s) = 6.93179 8.27900 7.63516
#
# Compressibility (1/GPa) = 0.01830361
#
# Stress axis : x y z
#
# Youngs Moduli (GPa) = 83.40290 70.25896 70.04449
#
# Poissons Ratio (x) = 0.04240 0.62444
# Poissons Ratio (y) = 0.05033 0.11064
# Poissons Ratio (z) = 0.74353 0.11098
#
# Static dielectric constant tensor:
#      x y z
#    x 1.711210 0.000000 0.000000 
#    y 0.000000 1.811620 0.000000 
#    z 0.000000 0.000000 1.703520 
# 
# From -- ./inp_files/44722.got.cif
#   From: 2010.05.17/outbox.cif.g08.bks.cpg/sg71_23_cif.got.tgz:44722.got - 2010.06.03 16:22:01.
