data_PCOD9521824
_publ_section_title
;
Structure prediction by ZEFSAII (Michael W. Deem and Ramdas Pophale) SiO2 
 PCOD9521824
Probable space group: I M M M
;
_chemical_formula_sum "Si O2"
_cell_formula_units_Z 80
_cell_length_a 20.210076
_cell_length_b 25.476425
_cell_length_c 7.623466
_cell_angle_alpha 90.000000
_cell_angle_beta 90.000000
_cell_angle_gamma 90.000000
_cell_volume 3925.173875
_symmetry_space_group_name_H-M "I M M M"
_symmetry_group_IT_number 71
_symmetry_cell_setting 'orthorhombic'
loop_
_space_group_symop_operation_xyz
x,y,z
-x,-y,z
x,-y,-z
-x,y,-z
-x,-y,-z
x,y,-z
-x,y,z
x,-y,z
1/2+x,1/2+y,1/2+z
1/2-x,1/2-y,1/2+z
1/2+x,1/2-y,1/2-z
1/2-x,1/2+y,1/2-z
1/2-x,1/2-y,1/2-z
1/2+x,1/2+y,1/2-z
1/2-x,1/2+y,1/2+z
1/2+x,1/2-y,1/2+z
loop_
_atom_site_type_symbol
_atom_site_label
_atom_site_fract_x
_atom_site_fract_y
_atom_site_fract_z
Si Si1 0.000000 0.340196 0.787590
Si Si2 0.888954 0.856946 0.789882
Si Si3 0.578863 0.000000 0.784082
Si Si4 0.500000 0.720403 0.713598
Si Si5 0.500000 0.559050 0.208311
Si Si6 0.250455 0.812861 0.211513
Si Si7 0.136671 0.608596 0.298085
O O1 0.065026 0.365579 0.710822
O O2 0.000000 0.279860 0.737242
O O3 0.000000 0.345244 0.000000
O O4 0.933180 0.908721 0.755264
O O5 0.815510 0.843697 0.725395
O O6 0.935729 0.810158 0.724198
O O7 0.884614 0.853987 0.000000
O O8 0.620133 0.948995 0.723201
O O9 0.500000 0.000000 0.731833
O O10 0.577266 0.000000 0.000000
O O11 0.500000 0.717688 0.500000
O O12 0.500000 0.500000 0.281758
O O13 0.500000 0.555831 0.000000
O O14 0.250000 0.750000 0.250000
O O15 0.312171 0.848311 0.277158
O O16 0.252008 0.814545 0.000000
O O17 0.157448 0.599750 0.500000
#
# Coordination Sequence:
#
# PCOD9521824 Si02
#       7
#     8  16   8   8   8  16  16
#     4  11  20  31  51  79 107 140 180 223 271 318
#     4   9  18  35  55  78 107 140 179 223 270 322
#     4   9  16  32  56  74 100 141 178 223 267 300
#     4   8  15  28  48  70 100 135 167 207 260 316
#     4  10  21  37  57  81 108 141 182 228 280 334
#     4  10  21  36  56  84 115 144 179 222 273 334
#     4  10  20  35  54  77 105 142 184 223 266 318
#
# _framework density 20.381263000000001
#
# number of rings (size 3 to 8) (size 9 to 14) (size 15 to 20)
#    0.000    2.400    1.000    2.400    0.000    4.000 
#    1.800    7.000    0.000    0.000    0.000    0.000 
#    0.000    0.000    0.000    0.000    0.000    0.000 
#
# Total GULP energy -222805.390963 kJ/mol
# GULP energy per Si atom -5570.134774 kJ/mol
# Density = 2.033487 g / cm^3
# Si number density = 20.381263 Si / 1000 Ang^3
#
#
#
# Elastic Constant Matrix: (Units=GPa)
#
#
# Indices 1 2 3 4 5 6 
#
# 1 174.3102 94.6560 0.3904 0.0000 0.0000 0.0000
# 2 94.6560 205.7403 -0.0456 0.0000 0.0000 0.0000
# 3 0.3904 -0.0456 46.1910 0.0000 0.0000 0.0000
# 4 0.0000 0.0000 0.0000 17.9176 0.0000 0.0000
# 5 0.0000 0.0000 0.0000 0.0000 -10.0988 0.0000
# 6 0.0000 0.0000 0.0000 0.0000 0.0000 21.7912
#
#
#
# Elastic Compliance Matrix: (Units=1/GPa)
#
#
# Indices 1 2 3 4 5 6 
#
# 1 0.007648 -0.003519 -0.000068 0.000000 0.000000 0.000000
# 2 -0.003519 0.006479 0.000036 0.000000 0.000000 0.000000
# 3 -0.000068 0.000036 0.021650 0.000000 0.000000 0.000000
# 4 0.000000 0.000000 0.000000 0.055811 0.000000 0.000000
# 5 0.000000 0.000000 0.000000 0.000000 -0.099022 0.000000
# 6 0.000000 0.000000 0.000000 0.000000 0.000000 0.045890
#
#
# Mechanical properties :
#
#
# Convention : Reuss Voigt Hill
#
# Bulk Modulus (GPa) = 34.87256 68.47146 51.67201
# Shear Modulus (GPa) = 90.71759 28.00471 59.36115
#
# Velocity S-wave (km/s) = 6.67884 3.71083 5.40265
# Velocity P-wave (km/s) = 8.75346 7.21308 8.02034
#
# Compressibility (1/GPa) = 0.02867584
#
# Stress axis : x y z
#
# Youngs Moduli (GPa) = 130.75764 154.33761 46.18970
#
# Poissons Ratio (x) = 0.54304 0.00315
# Poissons Ratio (y) = 0.46008 -0.00167
# Poissons Ratio (z) = 0.00891 -0.00558
#
# Static dielectric constant tensor:
#      x y z
#    x 1.745280 0.000000 0.000000 
#    y 0.000000 1.745290 0.000000 
#    z 0.000000 0.000000 1.777430 
# 
# From -- ./inp_files/10319.got.cif
#   From: 2010.05.17/outbox.cif.g08.bks.cpg/sg71_6_cif.got.tgz:10319.got - 2010.06.03 16:22:01.
