data_PCOD9521272
_publ_section_title
;
Structure prediction by ZEFSAII (Michael W. Deem and Ramdas Pophale) SiO2 
 PCOD9521272
Probable space group: I M M M
;
_chemical_formula_sum "Si O2"
_cell_formula_units_Z 104
_cell_length_a 14.535728
_cell_length_b 16.634074
_cell_length_c 26.237439
_cell_angle_alpha 90.000000
_cell_angle_beta 90.000000
_cell_angle_gamma 90.000000
_cell_volume 6343.907745
_symmetry_space_group_name_H-M "I M M M"
_symmetry_group_IT_number 71
_symmetry_cell_setting 'orthorhombic'
loop_
_space_group_symop_operation_xyz
x,y,z
-x,-y,z
x,-y,-z
-x,y,-z
-x,-y,-z
x,y,-z
-x,y,z
x,-y,z
1/2+x,1/2+y,1/2+z
1/2-x,1/2-y,1/2+z
1/2+x,1/2-y,1/2-z
1/2-x,1/2+y,1/2-z
1/2-x,1/2-y,1/2-z
1/2+x,1/2+y,1/2-z
1/2-x,1/2+y,1/2+z
1/2+x,1/2-y,1/2+z
loop_
_atom_site_type_symbol
_atom_site_label
_atom_site_fract_x
_atom_site_fract_y
_atom_site_fract_z
Si Si1 0.194703 0.140508 0.097548
Si Si2 0.279576 0.315642 0.098872
Si Si3 0.688852 0.910588 0.000000
Si Si4 0.110476 0.904756 0.313172
Si Si5 0.604256 0.595048 0.300883
Si Si6 0.500000 0.593462 0.439643
Si Si7 0.608593 0.731278 0.000000
Si Si8 0.601840 0.096705 0.559601
O O1 0.242266 0.225655 0.105729
O O2 0.177205 0.106466 0.154096
O O3 0.090957 0.140343 0.076270
O O4 0.250647 0.095806 0.052226
O O5 0.335877 0.352855 0.145410
O O6 0.188679 0.367818 0.088209
O O7 0.344260 0.308966 0.049168
O O8 0.629938 0.827919 0.000000
O O9 0.644953 0.000000 0.000000
O O10 0.131273 0.875531 0.255438
O O11 0.000000 0.898151 0.319718
O O12 0.133684 0.000000 0.318475
O O13 0.500000 0.625418 0.313683
O O14 0.594850 0.500000 0.294229
O O15 0.500000 0.500000 0.418824
O O16 0.500000 0.586071 0.500000
O O17 0.500000 0.719344 0.000000
O O18 0.609046 0.120366 0.500000
O O19 0.500000 0.122550 0.577903
O O20 0.604424 0.000000 0.561657
#
# Coordination Sequence:
#
# PCOD9521272 Si02
#       8
#    16  16   8  16  16   8   8  16
#     4  11  21  29  48  77 108 140 164 202 254 306
#     4  11  21  34  50  75 106 133 168 216 256 310
#     4  10  20  34  50  75 104 134 171 204 242 301
#     4   9  19  36  57  75  94 130 178 226 268 303
#     4   9  17  31  51  74 100 133 174 213 253 307
#     4  11  20  30  48  74 109 145 171 200 239 295
#     4  10  22  37  51  73  99 133 168 208 267 299
#     4   9  18  32  50  70  98 136 170 201 243 304
#
# _framework density 16.39368
#
# number of rings (size 3 to 8) (size 9 to 14) (size 15 to 20)
#    0.000    2.077    2.308    3.692    1.077    0.769 
#    0.000    0.000    0.000    1.846    0.000    1.077 
#    0.000    4.923    0.000    0.000    0.000    0.000 
#
# Total GULP energy -289546.821152 kJ/mol
# GULP energy per Si atom -5568.208099 kJ/mol
# Density = 1.635637 g / cm^3
# Si number density = 16.393680 Si / 1000 Ang^3
#
#
#
# Elastic Constant Matrix: (Units=GPa)
#
#
# Indices 1 2 3 4 5 6 
#
# 1 81.2492 22.8694 50.2144 0.0000 0.0000 0.0000
# 2 22.8694 44.5417 40.5805 0.0000 0.0000 0.0000
# 3 50.2144 40.5805 130.7657 0.0000 0.0000 0.0000
# 4 0.0000 0.0000 0.0000 22.3068 0.0000 0.0000
# 5 0.0000 0.0000 0.0000 0.0000 19.3958 0.0000
# 6 0.0000 0.0000 0.0000 0.0000 0.0000 20.2429
#
#
#
# Elastic Compliance Matrix: (Units=1/GPa)
#
#
# Indices 1 2 3 4 5 6 
#
# 1 0.016582 -0.003782 -0.005194 0.000000 0.000000 0.000000
# 2 -0.003782 0.032163 -0.008529 0.000000 0.000000 0.000000
# 3 -0.005194 -0.008529 0.012289 0.000000 0.000000 0.000000
# 4 0.000000 0.000000 0.000000 0.044829 0.000000 0.000000
# 5 0.000000 0.000000 0.000000 0.000000 0.051558 0.000000
# 6 0.000000 0.000000 0.000000 0.000000 0.000000 0.049400
#
#
# Mechanical properties :
#
#
# Convention : Reuss Voigt Hill
#
# Bulk Modulus (GPa) = 38.42560 53.76501 46.09531
# Shear Modulus (GPa) = 19.95965 21.91525 20.93745
#
# Velocity S-wave (km/s) = 3.49308 3.66021 3.57762
# Velocity P-wave (km/s) = 6.30547 7.12251 6.72641
#
# Compressibility (1/GPa) = 0.02602431
#
# Stress axis : x y z
#
# Youngs Moduli (GPa) = 60.30490 31.09158 81.37644
#
# Poissons Ratio (x) = 0.11759 0.42267
# Poissons Ratio (y) = 0.22807 0.69405
# Poissons Ratio (z) = 0.31323 0.26518
#
# Static dielectric constant tensor:
#      x y z
#    x 1.541160 0.000000 0.000000 
#    y 0.000000 1.555350 0.000000 
#    z 0.000000 0.000000 1.578700 
# 
# From -- ./inp_files/64689.got.cif
#   From: 2010.05.17/outbox.cif.g08.bks.cpg/sg71_33_cif.got.tgz:64689.got - 2010.06.03 16:22:01.
