data_PCOD9521038
_publ_section_title
;
Structure prediction by ZEFSAII (Michael W. Deem and Ramdas Pophale) SiO2 
 PCOD9521038
Probable space group: I M M M
;
_chemical_formula_sum "Si O2"
_cell_formula_units_Z 88
_cell_length_a 24.637519
_cell_length_b 16.246643
_cell_length_c 12.666510
_cell_angle_alpha 90.000000
_cell_angle_beta 90.000000
_cell_angle_gamma 90.000000
_cell_volume 5070.112314
_symmetry_space_group_name_H-M "I M M M"
_symmetry_group_IT_number 71
_symmetry_cell_setting 'orthorhombic'
loop_
_space_group_symop_operation_xyz
x,y,z
-x,-y,z
x,-y,-z
-x,y,-z
-x,-y,-z
x,y,-z
-x,y,z
x,-y,z
1/2+x,1/2+y,1/2+z
1/2-x,1/2-y,1/2+z
1/2+x,1/2-y,1/2-z
1/2-x,1/2+y,1/2-z
1/2-x,1/2-y,1/2-z
1/2+x,1/2+y,1/2-z
1/2-x,1/2+y,1/2+z
1/2+x,1/2-y,1/2+z
loop_
_atom_site_type_symbol
_atom_site_label
_atom_site_fract_x
_atom_site_fract_y
_atom_site_fract_z
Si Si1 0.763600 0.906598 0.623247
Si Si2 0.937757 0.195932 0.194885
Si Si3 0.934984 0.903704 0.000000
Si Si4 0.562006 0.881752 0.378687
Si Si5 0.660745 0.909282 0.777060
Si Si6 0.145882 0.232357 0.376628
O O1 0.747194 0.900301 0.500000
O O2 0.711651 0.900127 0.698210
O O3 0.805345 0.832368 0.643853
O O4 0.786640 0.000000 0.637376
O O5 0.938344 0.283216 0.134800
O O6 0.902642 0.206063 0.299358
O O7 0.000000 0.173461 0.220649
O O8 0.913508 0.133836 0.108718
O O9 0.000000 0.884332 0.000000
O O10 0.928051 0.000000 0.000000
O O11 0.575258 0.902928 0.500000
O O12 0.500000 0.908553 0.356956
O O13 0.606571 0.910200 0.295245
O O14 0.659418 0.827600 0.848812
O O15 0.664794 0.000000 0.829329
O O16 0.131891 0.226200 0.500000
#
# Coordination Sequence:
#
# PCOD9521038 Si02
#       6
#    16  16   8  16  16  16
#     4   9  18  34  55  77 100 128 169 221 271 318
#     4   9  17  31  50  74 105 138 173 213 259 311
#     4   9  16  28  50  78 105 135 169 211 269 323
#     4   9  16  28  48  73 103 133 163 207 261 313
#     4  10  20  33  51  74 102 137 176 216 260 311
#     4  10  21  35  53  76 103 142 182 216 257 305
#
# _framework density 17.356617
#
# number of rings (size 3 to 8) (size 9 to 14) (size 15 to 20)
#    0.000    2.636    0.909    1.091    0.000    2.909 
#    0.000    0.909    2.000    0.000    0.000   10.182 
#    0.000    0.000    0.000    0.000    0.000    0.000 
#
# Total GULP energy -245097.983119 kJ/mol
# GULP energy per Si atom -5570.408707 kJ/mol
# Density = 1.731711 g / cm^3
# Si number density = 17.356617 Si / 1000 Ang^3
#
#
#
# Elastic Constant Matrix: (Units=GPa)
#
#
# Indices 1 2 3 4 5 6 
#
# 1 54.6086 35.9954 45.4198 0.0000 0.0000 0.0000
# 2 35.9954 90.3128 52.8802 0.0000 0.0000 0.0000
# 3 45.4198 52.8802 91.2533 0.0000 0.0000 0.0000
# 4 0.0000 0.0000 0.0000 15.7801 0.0000 0.0000
# 5 0.0000 0.0000 0.0000 0.0000 20.3770 0.0000
# 6 0.0000 0.0000 0.0000 0.0000 0.0000 14.8071
#
#
#
# Elastic Compliance Matrix: (Units=1/GPa)
#
#
# Indices 1 2 3 4 5 6 
#
# 1 0.032859 -0.005328 -0.013268 0.000000 0.000000 0.000000
# 2 -0.005328 0.017623 -0.007560 0.000000 0.000000 0.000000
# 3 -0.013268 -0.007560 0.021943 0.000000 0.000000 0.000000
# 4 0.000000 0.000000 0.000000 0.063371 0.000000 0.000000
# 5 0.000000 0.000000 0.000000 0.000000 0.049075 0.000000
# 6 0.000000 0.000000 0.000000 0.000000 0.000000 0.067535
#
#
# Mechanical properties :
#
#
# Convention : Reuss Voigt Hill
#
# Bulk Modulus (GPa) = 49.71762 56.08507 52.90135
# Shear Modulus (GPa) = 16.05533 16.98480 16.52006
#
# Velocity S-wave (km/s) = 3.04472 3.13162 3.08848
# Velocity P-wave (km/s) = 6.40839 6.74237 6.57750
#
# Compressibility (1/GPa) = 0.02011359
#
# Stress axis : x y z
#
# Youngs Moduli (GPa) = 30.43281 56.74429 45.57183
#
# Poissons Ratio (x) = 0.30233 0.60463
# Poissons Ratio (y) = 0.16215 0.34454
# Poissons Ratio (z) = 0.40377 0.42901
#
# Static dielectric constant tensor:
#      x y z
#    x 1.577220 0.000000 0.000000 
#    y 0.000000 1.623580 0.000000 
#    z 0.000000 0.000000 1.559390 
# 
# From -- ./inp_files/28588.got.cif
#   From: 2010.05.17/outbox.cif.g08.bks.cpg/sg71_15_cif.got.tgz:28588.got - 2010.06.03 16:22:01.
