data_PCOD9521007
_publ_section_title
;
Structure prediction by ZEFSAII (Michael W. Deem and Ramdas Pophale) SiO2 
 PCOD9521007
Probable space group: I M M M
;
_chemical_formula_sum "Si O2"
_cell_formula_units_Z 112
_cell_length_a 21.752970
_cell_length_b 11.411410
_cell_length_c 23.460293
_cell_angle_alpha 90.000000
_cell_angle_beta 90.000000
_cell_angle_gamma 90.000000
_cell_volume 5823.596845
_symmetry_space_group_name_H-M "I M M M"
_symmetry_group_IT_number 71
_symmetry_cell_setting 'orthorhombic'
loop_
_space_group_symop_operation_xyz
x,y,z
-x,-y,z
x,-y,-z
-x,y,-z
-x,-y,-z
x,y,-z
-x,y,z
x,-y,z
1/2+x,1/2+y,1/2+z
1/2-x,1/2-y,1/2+z
1/2+x,1/2-y,1/2-z
1/2-x,1/2+y,1/2-z
1/2-x,1/2-y,1/2-z
1/2+x,1/2+y,1/2-z
1/2-x,1/2+y,1/2+z
1/2+x,1/2-y,1/2+z
loop_
_atom_site_type_symbol
_atom_site_label
_atom_site_fract_x
_atom_site_fract_y
_atom_site_fract_z
Si Si1 0.257157 0.132142 0.176858
Si Si2 0.926079 0.130391 0.365175
Si Si3 0.069409 0.725049 0.936485
Si Si4 0.305209 0.640464 0.437199
Si Si5 0.425307 0.867582 0.933469
Si Si6 0.427940 0.126866 0.685069
Si Si7 0.150348 0.801445 0.258605
O O1 0.234455 0.182607 0.116226
O O2 0.198344 0.130050 0.219024
O O3 0.308105 0.211321 0.205605
O O4 0.279340 0.000000 0.168738
O O5 0.906995 0.249102 0.399620
O O6 0.891452 0.133682 0.304699
O O7 0.000000 0.138552 0.357565
O O8 0.914035 0.000000 0.391402
O O9 0.124458 0.817445 0.931812
O O10 0.076896 0.639716 0.883106
O O11 0.000000 0.775331 0.931828
O O12 0.073863 0.671560 0.000000
O O13 0.282893 0.678079 0.500000
O O14 0.304142 0.500000 0.435077
O O15 0.500000 0.868819 0.931725
O O16 0.405755 0.000000 0.913748
O O17 0.407098 0.857412 0.000000
O O18 0.500000 0.132697 0.699432
O O19 0.392750 0.229386 0.716061
O O20 0.403506 0.000000 0.703026
#
# Coordination Sequence:
#
# PCOD9521007 Si02
#       7
#    16  16  16  16  16  16  16
#     4  10  21  36  55  77 100 136 185 231 278 329
#     4  10  21  36  56  84 116 149 184 226 283 343
#     4   9  17  30  49  75 107 139 173 218 275 339
#     4   9  17  32  54  78 105 135 172 222 277 333
#     4   8  15  30  53  81 112 145 181 220 265 322
#     4  10  20  33  50  75 106 141 184 232 282 337
#     4  11  21  36  54  74 106 144 184 229 272 331
#
# _framework density 19.232101
#
# number of rings (size 3 to 8) (size 9 to 14) (size 15 to 20)
#    0.000    2.429    1.429    1.714    0.000    2.000 
#    0.000    6.429    0.000    1.714    0.000    0.000 
#    0.000    0.000    0.000    0.000    0.000    0.000 
#
# Total GULP energy -311950.755554 kJ/mol
# GULP energy per Si atom -5570.549206 kJ/mol
# Density = 1.918833 g / cm^3
# Si number density = 19.232101 Si / 1000 Ang^3
#
#
#
# Elastic Constant Matrix: (Units=GPa)
#
#
# Indices 1 2 3 4 5 6 
#
# 1 36.4057 22.8740 32.8467 0.0000 0.0000 0.0000
# 2 22.8740 97.5287 42.7889 0.0000 0.0000 0.0000
# 3 32.8467 42.7889 96.4076 0.0000 0.0000 0.0000
# 4 0.0000 0.0000 0.0000 20.3066 0.0000 0.0000
# 5 0.0000 0.0000 0.0000 0.0000 31.6617 0.0000
# 6 0.0000 0.0000 0.0000 0.0000 0.0000 -8.7497
#
#
#
# Elastic Compliance Matrix: (Units=1/GPa)
#
#
# Indices 1 2 3 4 5 6 
#
# 1 0.041087 -0.004340 -0.012073 0.000000 0.000000 0.000000
# 2 -0.004340 0.013191 -0.004376 0.000000 0.000000 0.000000
# 3 -0.012073 -0.004376 0.016428 0.000000 0.000000 0.000000
# 4 0.000000 0.000000 0.000000 0.049245 0.000000 0.000000
# 5 0.000000 0.000000 0.000000 0.000000 0.031584 0.000000
# 6 0.000000 0.000000 0.000000 0.000000 0.000000 -0.114290
#
#
# Mechanical properties :
#
#
# Convention : Reuss Voigt Hill
#
# Bulk Modulus (GPa) = 34.32933 47.48457 40.90695
# Shear Modulus (GPa) = 56.47661 17.43256 36.95458
#
# Velocity S-wave (km/s) = 5.42490 3.01396 4.38825
# Velocity P-wave (km/s) = 7.55832 6.07090 6.85507
#
# Compressibility (1/GPa) = 0.02912961
#
# Stress axis : x y z
#
# Youngs Moduli (GPa) = 24.33844 75.80830 60.87150
#
# Poissons Ratio (x) = 0.32900 0.73487
# Poissons Ratio (y) = 0.10563 0.26638
# Poissons Ratio (z) = 0.29383 0.33174
#
# Static dielectric constant tensor:
#      x y z
#    x 1.652080 0.000000 0.000000 
#    y 0.000000 1.674060 0.000000 
#    z 0.000000 0.000000 1.689190 
# 
# From -- ./inp_files/52189.got.cif
#   From: 2010.05.17/outbox.cif.g08.bks.cpg/sg71_27_cif.got.tgz:52189.got - 2010.06.03 16:22:01.
