data_PCOD9521353
_publ_section_title
;
Structure prediction by ZEFSAII (Michael W. Deem and Ramdas Pophale) SiO2 
 PCOD9521353
Probable space group: I M M M
;
_chemical_formula_sum "Si O2"
_cell_formula_units_Z 96
_cell_length_a 18.442736
_cell_length_b 28.100508
_cell_length_c 9.878094
_cell_angle_alpha 90.000000
_cell_angle_beta 90.000000
_cell_angle_gamma 90.000000
_cell_volume 5119.324690
_symmetry_space_group_name_H-M "I M M M"
_symmetry_group_IT_number 71
_symmetry_cell_setting 'orthorhombic'
loop_
_space_group_symop_operation_xyz
x,y,z
-x,-y,z
x,-y,-z
-x,y,-z
-x,-y,-z
x,y,-z
-x,y,z
x,-y,z
1/2+x,1/2+y,1/2+z
1/2-x,1/2-y,1/2+z
1/2+x,1/2-y,1/2-z
1/2-x,1/2+y,1/2-z
1/2-x,1/2-y,1/2-z
1/2+x,1/2+y,1/2-z
1/2-x,1/2+y,1/2+z
1/2+x,1/2-y,1/2+z
loop_
_atom_site_type_symbol
_atom_site_label
_atom_site_fract_x
_atom_site_fract_y
_atom_site_fract_z
Si Si1 0.412469 0.700409 0.845065
Si Si2 0.175648 0.384912 0.849342
Si Si3 0.919418 0.554533 0.661418
Si Si4 0.414289 0.789511 0.344302
Si Si5 0.680987 0.445433 0.152319
Si Si6 0.912769 0.111124 0.842758
O O1 0.500000 0.698169 0.853960
O O2 0.396680 0.749144 0.765351
O O3 0.390973 0.656656 0.748719
O O4 0.384200 0.698133 0.000000
O O5 0.137475 0.412727 0.730699
O O6 0.145863 0.331145 0.835480
O O7 0.257665 0.404267 0.842291
O O8 0.149938 0.399872 0.000000
O O9 0.915198 0.556305 0.500000
O O10 0.909401 0.500000 0.702951
O O11 0.000000 0.569752 0.702114
O O12 0.411988 0.771058 0.500000
O O13 0.500000 0.804726 0.323540
O O14 0.709523 0.500000 0.167458
O O15 0.623855 0.433445 0.268509
O O16 0.648946 0.442707 0.000000
O O17 0.000000 0.107676 0.839294
O O18 0.890908 0.115896 0.000000
#
# Coordination Sequence:
#
# PCOD9521353 Si02
#       6
#    16  16  16  16  16  16
#     4   9  17  31  54  83 112 141 174 214 263 318
#     4  10  20  34  52  75 105 143 185 225 266 313
#     4   9  18  31  46  67  97 134 178 228 277 320
#     4   9  17  30  50  78 112 147 183 223 263 303
#     4  10  22  39  57  79 109 143 179 222 272 325
#     4  10  21  38  61  86 109 134 169 216 269 328
#
# _framework density 18.752472999999998
#
# number of rings (size 3 to 8) (size 9 to 14) (size 15 to 20)
#    0.000    2.500    0.000    2.500    0.000    7.000 
#    0.000    5.000    0.000    0.000    0.000    0.000 
#    0.000    0.000    0.000    0.000    0.000    0.000 
#
# Total GULP energy -267217.607116 kJ/mol
# GULP energy per Si atom -5567.033482 kJ/mol
# Density = 1.870979 g / cm^3
# Si number density = 18.752473 Si / 1000 Ang^3
#
#
#
# Elastic Constant Matrix: (Units=GPa)
#
#
# Indices 1 2 3 4 5 6 
#
# 1 36.6933 19.4946 43.0628 0.0000 0.0000 0.0000
# 2 19.4946 86.4203 49.1067 0.0000 0.0000 0.0000
# 3 43.0628 49.1067 114.7174 -0.0001 0.0000 0.0000
# 4 0.0000 0.0000 -0.0001 33.0078 0.0000 0.0000
# 5 0.0000 0.0000 0.0000 0.0000 26.4890 0.0000
# 6 0.0000 0.0000 0.0000 0.0000 0.0000 38.3054
#
#
#
# Elastic Compliance Matrix: (Units=1/GPa)
#
#
# Indices 1 2 3 4 5 6 
#
# 1 0.048754 -0.000791 -0.017963 0.000000 0.000000 0.000000
# 2 -0.000791 0.015304 -0.006254 0.000000 0.000000 0.000000
# 3 -0.017963 -0.006254 0.018137 0.000000 0.000000 0.000000
# 4 0.000000 0.000000 0.000000 0.030296 0.000000 0.000000
# 5 0.000000 0.000000 0.000000 0.000000 0.037752 0.000000
# 6 0.000000 0.000000 0.000000 0.000000 0.000000 0.026106
#
#
# Mechanical properties :
#
#
# Convention : Reuss Voigt Hill
#
# Bulk Modulus (GPa) = 31.07595 51.23990 41.15793
# Shear Modulus (GPa) = 21.08906 27.97155 24.53030
#
# Velocity S-wave (km/s) = 3.35715 3.86634 3.62070
# Velocity P-wave (km/s) = 5.62449 6.87860 6.28291
#
# Compressibility (1/GPa) = 0.03217922
#
# Stress axis : x y z
#
# Youngs Moduli (GPa) = 20.51116 65.34446 55.13554
#
# Poissons Ratio (x) = 0.05168 0.99039
# Poissons Ratio (y) = 0.01622 0.34482
# Poissons Ratio (z) = 0.36844 0.40867
#
# Static dielectric constant tensor:
#      x y z
#    x 1.663510 0.000000 0.000000 
#    y 0.000000 1.660010 0.000000 
#    z 0.000000 0.000000 1.629020 
# 
# From -- ./inp_files/10972.got.cif
#   From: 2010.05.17/outbox.cif.g08.bks.cpg/sg71_6_cif.got.tgz:10972.got - 2010.06.03 16:22:01.
