data_PCOD9521442
_publ_section_title
;
Structure prediction by ZEFSAII (Michael W. Deem and Ramdas Pophale) SiO2 
 PCOD9521442
Probable space group: I M M M
;
_chemical_formula_sum "Si O2"
_cell_formula_units_Z 104
_cell_length_a 24.331784
_cell_length_b 26.126575
_cell_length_c 9.007988
_cell_angle_alpha 90.000000
_cell_angle_beta 90.000000
_cell_angle_gamma 90.000000
_cell_volume 5726.433637
_symmetry_space_group_name_H-M "I M M M"
_symmetry_group_IT_number 71
_symmetry_cell_setting 'orthorhombic'
loop_
_space_group_symop_operation_xyz
x,y,z
-x,-y,z
x,-y,-z
-x,y,-z
-x,-y,-z
x,y,-z
-x,y,z
x,-y,z
1/2+x,1/2+y,1/2+z
1/2-x,1/2-y,1/2+z
1/2+x,1/2-y,1/2-z
1/2-x,1/2+y,1/2-z
1/2-x,1/2-y,1/2-z
1/2+x,1/2+y,1/2-z
1/2-x,1/2+y,1/2+z
1/2+x,1/2-y,1/2+z
loop_
_atom_site_type_symbol
_atom_site_label
_atom_site_fract_x
_atom_site_fract_y
_atom_site_fract_z
Si Si1 0.936784 0.000000 0.180626
Si Si2 0.789793 0.711570 0.832616
Si Si3 0.717950 0.391146 0.167302
Si Si4 0.884581 0.345161 0.677587
Si Si5 0.174040 0.441991 0.179749
Si Si6 0.396387 0.611228 0.321103
Si Si7 0.000000 0.294897 0.321520
Si Si8 0.000000 0.817873 0.179947
O O1 0.910092 0.053208 0.228341
O O2 0.000000 0.000000 0.226642
O O3 0.935729 0.000000 0.000000
O O4 0.750000 0.750000 0.750000
O O5 0.755665 0.659082 0.841398
O O6 0.844036 0.698414 0.740795
O O7 0.803158 0.728599 0.000000
O O8 0.762179 0.432415 0.226241
O O9 0.664195 0.378276 0.260451
O O10 0.701027 0.405810 0.000000
O O11 0.879531 0.348401 0.500000
O O12 0.864353 0.398678 0.748313
O O13 0.945929 0.327618 0.716869
O O14 0.157662 0.500000 0.215781
O O15 0.172908 0.435783 0.000000
O O16 0.395667 0.612208 0.500000
O O17 0.445260 0.649979 0.275173
O O18 0.000000 0.239131 0.245855
O O19 0.000000 0.287195 0.500000
O O20 0.000000 0.815144 0.000000
#
# Coordination Sequence:
#
# PCOD9521442 Si02
#       8
#     8  16  16  16  16  16   8   8
#     4   9  16  32  53  69  99 141 177 224 277 318
#     4  10  21  37  57  81 111 148 186 229 283 337
#     4   9  20  35  52  77 110 144 177 218 273 332
#     4  10  21  39  60  85 114 148 192 235 283 344
#     4   9  19  38  61  85 116 151 185 228 286 347
#     4  10  20  34  53  78 105 139 187 234 277 325
#     4  10  24  42  60  82 115 153 186 231 290 343
#     4  10  22  37  54  79 107 144 194 242 282 331
#
# _framework density 18.161390000000001
#
# number of rings (size 3 to 8) (size 9 to 14) (size 15 to 20)
#    0.000    2.385    0.769    1.846    3.231    5.231 
#    0.000    0.385    0.000    2.769    0.000    0.000 
#    0.000    0.000    0.000    0.000    0.000    0.000 
#
# Total GULP energy -289903.493045 kJ/mol
# GULP energy per Si atom -5575.067174 kJ/mol
# Density = 1.812005 g / cm^3
# Si number density = 18.161390 Si / 1000 Ang^3
#
#
#
# Elastic Constant Matrix: (Units=GPa)
#
#
# Indices 1 2 3 4 5 6 
#
# 1 154.3220 57.2119 46.6762 0.0000 0.0000 0.0000
# 2 57.2119 96.0174 37.3909 0.0000 0.0000 0.0000
# 3 46.6762 37.3909 42.5918 0.0000 0.0000 0.0000
# 4 0.0000 0.0000 0.0000 23.1097 0.0000 0.0000
# 5 0.0000 0.0000 0.0000 0.0000 24.4773 0.0000
# 6 0.0000 0.0000 0.0000 0.0000 0.0000 9.2712
#
#
#
# Elastic Compliance Matrix: (Units=1/GPa)
#
#
# Indices 1 2 3 4 5 6 
#
# 1 0.010101 -0.002595 -0.008792 0.000000 0.000000 0.000000
# 2 -0.002595 0.016491 -0.011634 0.000000 0.000000 0.000000
# 3 -0.008792 -0.011634 0.043326 0.000000 0.000000 0.000000
# 4 0.000000 0.000000 0.000000 0.043272 0.000000 0.000000
# 5 0.000000 0.000000 0.000000 0.000000 0.040854 0.000000
# 6 0.000000 0.000000 0.000000 0.000000 0.000000 0.107861
#
#
# Mechanical properties :
#
#
# Convention : Reuss Voigt Hill
#
# Bulk Modulus (GPa) = 41.87912 63.94324 52.91118
# Shear Modulus (GPa) = 15.82752 21.48179 18.65465
#
# Velocity S-wave (km/s) = 2.95531 3.44296 3.20841
# Velocity P-wave (km/s) = 5.89530 7.14773 6.55151
#
# Compressibility (1/GPa) = 0.02387825
#
# Stress axis : x y z
#
# Youngs Moduli (GPa) = 98.99855 60.63745 23.08071
#
# Poissons Ratio (x) = 0.15737 0.20291
# Poissons Ratio (y) = 0.25692 0.26851
# Poissons Ratio (z) = 0.87035 0.70543
#
# Static dielectric constant tensor:
#      x y z
#    x 1.619230 0.000000 0.000000 
#    y 0.000000 1.653860 0.000000 
#    z 0.000000 0.000000 1.624640 
# 
# From -- ./inp_files/13386.got.cif
#   From: 2010.05.17/outbox.cif.g08.bks.cpg/sg71_7_cif.got.tgz:13386.got - 2010.06.03 16:22:01.
