data_PCOD9521813
_publ_section_title
;
Structure prediction by ZEFSAII (Michael W. Deem and Ramdas Pophale) SiO2 
 PCOD9521813
Probable space group: I M M M
;
_chemical_formula_sum "Si O2"
_cell_formula_units_Z 88
_cell_length_a 28.116583
_cell_length_b 7.465177
_cell_length_c 19.964045
_cell_angle_alpha 90.000000
_cell_angle_beta 90.000000
_cell_angle_gamma 90.000000
_cell_volume 4190.358590
_symmetry_space_group_name_H-M "I M M M"
_symmetry_group_IT_number 71
_symmetry_cell_setting 'orthorhombic'
loop_
_space_group_symop_operation_xyz
x,y,z
-x,-y,z
x,-y,-z
-x,y,-z
-x,-y,-z
x,y,-z
-x,y,z
x,-y,z
1/2+x,1/2+y,1/2+z
1/2-x,1/2-y,1/2+z
1/2+x,1/2-y,1/2-z
1/2-x,1/2+y,1/2-z
1/2-x,1/2-y,1/2-z
1/2+x,1/2+y,1/2-z
1/2-x,1/2+y,1/2+z
1/2+x,1/2-y,1/2+z
loop_
_atom_site_type_symbol
_atom_site_label
_atom_site_fract_x
_atom_site_fract_y
_atom_site_fract_z
Si Si1 0.727099 0.211553 0.321930
Si Si2 0.054863 0.281753 0.073882
Si Si3 0.380070 0.780375 0.304153
Si Si4 0.000000 0.718636 0.577933
Si Si5 0.903458 0.719172 0.653302
Si Si6 0.190158 0.711524 0.575083
O O1 0.750000 0.250000 0.250000
O O2 0.673429 0.282432 0.319512
O O3 0.762869 0.271176 0.379879
O O4 0.723178 0.000000 0.329808
O O5 0.055492 0.500000 0.074510
O O6 0.085899 0.221319 0.136049
O O7 0.000000 0.227502 0.080745
O O8 0.072105 0.226211 0.000000
O O9 0.397934 0.725340 0.230655
O O10 0.379679 0.000000 0.303370
O O11 0.952120 0.774932 0.616826
O O12 0.000000 0.500000 0.577690
O O13 0.000000 0.774790 0.500000
O O14 0.903533 0.500000 0.653218
O O15 0.856513 0.781788 0.613422
O O16 0.195590 0.784893 0.500000
O O17 0.181561 0.500000 0.569002
#
# Coordination Sequence:
#
# PCOD9521813 Si02
#       6
#    16  16  16   8  16  16
#     4  11  21  35  53  74 103 137 175 216 257 304
#     4   8  14  24  38  59  91 128 158 188 238 301
#     4   9  17  27  43  65  92 126 162 202 247 297
#     4   9  16  24  38  64  96 128 162 203 249 301
#     4   9  16  27  43  67  98 131 164 202 253 307
#     4  10  20  35  54  75 104 139 172 210 260 314
#
# _framework density 21.000589000000002
#
# number of rings (size 3 to 8) (size 9 to 14) (size 15 to 20)
#    0.000    2.636    1.818    1.636    1.273    3.273 
#    0.000    1.818    0.000    0.000    0.000    0.636 
#    0.000    4.364    0.000   10.000    0.000    8.727 
#
# Total GULP energy -245645.447305 kJ/mol
# GULP energy per Si atom -5582.851075 kJ/mol
# Density = 2.095279 g / cm^3
# Si number density = 21.000589 Si / 1000 Ang^3
#
#
#
# Elastic Constant Matrix: (Units=GPa)
#
#
# Indices 1 2 3 4 5 6 
#
# 1 181.7841 1.7709 150.7702 0.0000 0.0000 0.0000
# 2 1.7709 58.6590 4.1105 0.0000 0.0000 0.0000
# 3 150.7702 4.1105 260.3315 0.0000 0.0000 0.0000
# 4 0.0000 0.0000 0.0000 2.2247 0.0000 0.0000
# 5 0.0000 0.0000 0.0000 0.0000 36.5477 0.0000
# 6 0.0000 0.0000 0.0000 0.0000 0.0000 11.7277
#
#
#
# Elastic Compliance Matrix: (Units=1/GPa)
#
#
# Indices 1 2 3 4 5 6 
#
# 1 0.010587 0.000110 -0.006133 0.000000 0.000000 0.000000
# 2 0.000110 0.017068 -0.000333 0.000000 0.000000 0.000000
# 3 -0.006133 -0.000333 0.007398 0.000000 0.000000 0.000000
# 4 0.000000 0.000000 0.000000 0.449499 0.000000 0.000000
# 5 0.000000 0.000000 0.000000 0.000000 0.027362 0.000000
# 6 0.000000 0.000000 0.000000 0.000000 0.000000 0.085268
#
#
# Mechanical properties :
#
#
# Convention : Reuss Voigt Hill
#
# Bulk Modulus (GPa) = 44.76166 90.45310 67.60738
# Shear Modulus (GPa) = 8.09926 33.04155 20.57041
#
# Velocity S-wave (km/s) = 1.96597 3.97087 3.13312
# Velocity P-wave (km/s) = 5.14919 8.01180 6.73436
#
# Compressibility (1/GPa) = 0.02234055
#
# Stress axis : x y z
#
# Youngs Moduli (GPa) = 94.45971 58.59017 135.16504
#
# Poissons Ratio (x) = -0.00645 0.82895
# Poissons Ratio (y) = -0.01040 0.04505
# Poissons Ratio (z) = 0.57931 0.01953
#
# Static dielectric constant tensor:
#      x y z
#    x 1.731350 0.000000 0.000000 
#    y 0.000000 1.868290 0.000000 
#    z 0.000000 0.000000 1.712540 
# 
# From -- ./inp_files/49229.got.cif
#   From: 2010.05.17/outbox.cif.g08.bks.cpg/sg71_25_cif.got.tgz:49229.got - 2010.06.03 16:22:01.
