data_PCOD9521189
_publ_section_title
;
Structure prediction by ZEFSAII (Michael W. Deem and Ramdas Pophale) SiO2 
 PCOD9521189
Probable space group: I M M M
;
_chemical_formula_sum "Si O2"
_cell_formula_units_Z 112
_cell_length_a 27.904170
_cell_length_b 14.302824
_cell_length_c 13.858854
_cell_angle_alpha 90.000000
_cell_angle_beta 90.000000
_cell_angle_gamma 90.000000
_cell_volume 5531.185494
_symmetry_space_group_name_H-M "I M M M"
_symmetry_group_IT_number 71
_symmetry_cell_setting 'orthorhombic'
loop_
_space_group_symop_operation_xyz
x,y,z
-x,-y,z
x,-y,-z
-x,y,-z
-x,-y,-z
x,y,-z
-x,y,z
x,-y,z
1/2+x,1/2+y,1/2+z
1/2-x,1/2-y,1/2+z
1/2+x,1/2-y,1/2-z
1/2-x,1/2+y,1/2-z
1/2-x,1/2-y,1/2-z
1/2+x,1/2+y,1/2-z
1/2-x,1/2+y,1/2+z
1/2+x,1/2-y,1/2+z
loop_
_atom_site_type_symbol
_atom_site_label
_atom_site_fract_x
_atom_site_fract_y
_atom_site_fract_z
Si Si1 0.251221 0.391790 0.882782
Si Si2 0.553154 0.734518 0.884481
Si Si3 0.142731 0.109358 0.382869
Si Si4 0.101270 0.388901 0.723773
Si Si5 0.698240 0.886804 0.109009
Si Si6 0.303983 0.606272 0.617843
Si Si7 0.151485 0.708222 0.115122
O O1 0.245890 0.500000 0.851385
O O2 0.304003 0.357750 0.851076
O O3 0.203073 0.337215 0.858648
O O4 0.252812 0.391913 0.000000
O O5 0.500000 0.696288 0.864548
O O6 0.596853 0.668465 0.851646
O O7 0.560531 0.833262 0.832232
O O8 0.557169 0.746908 0.000000
O O9 0.142767 0.113137 0.500000
O O10 0.138291 0.000000 0.357298
O O11 0.095218 0.500000 0.724561
O O12 0.150800 0.364781 0.667210
O O13 0.110555 0.346777 0.829050
O O14 0.750574 0.862201 0.149401
O O15 0.699929 0.000000 0.102779
O O16 0.693830 0.848470 0.000000
O O17 0.300632 0.605446 0.500000
O O18 0.313377 0.500000 0.648451
O O19 0.343388 0.682891 0.642388
O O20 0.145973 0.700787 0.000000
#
# Coordination Sequence:
#
# PCOD9521189 Si02
#       7
#    16  16  16  16  16  16  16
#     4   8  14  26  45  71 105 143 179 212 248 298
#     4  10  22  39  59  82 106 136 178 227 279 333
#     4   8  15  30  53  80 110 144 179 216 262 316
#     4  11  23  36  52  77 107 140 181 229 276 324
#     4   8  15  29  47  68  98 136 176 216 258 307
#     4   8  15  29  48  71 103 144 185 222 262 308
#     4  10  20  33  53  78 107 148 187 221 263 314
#
# _framework density 20.248823999999999
#
# number of rings (size 3 to 8) (size 9 to 14) (size 15 to 20)
#    0.000    3.000    0.000    2.571    2.000    2.857 
#    0.000    2.857    0.000    0.429    0.000    1.000 
#    0.000    0.000    0.000    4.857    0.000    0.143 
#
# Total GULP energy -312797.961634 kJ/mol
# GULP energy per Si atom -5585.677886 kJ/mol
# Density = 2.020274 g / cm^3
# Si number density = 20.248824 Si / 1000 Ang^3
#
#
#
# Elastic Constant Matrix: (Units=GPa)
#
#
# Indices 1 2 3 4 5 6 
#
# 1 68.3547 25.1027 19.0348 0.0000 0.0000 0.0000
# 2 25.1027 66.8066 6.1405 0.0000 0.0000 0.0000
# 3 19.0348 6.1405 62.2498 0.0000 0.0000 0.0000
# 4 0.0000 0.0000 0.0000 16.2255 0.0000 0.0000
# 5 0.0000 0.0000 0.0000 0.0000 22.6148 0.0000
# 6 0.0000 0.0000 0.0000 0.0000 0.0000 19.8433
#
#
#
# Elastic Compliance Matrix: (Units=1/GPa)
#
#
# Indices 1 2 3 4 5 6 
#
# 1 0.018387 -0.006451 -0.004986 0.000000 0.000000 0.000000
# 2 -0.006451 0.017369 0.000259 0.000000 0.000000 0.000000
# 3 -0.004986 0.000259 0.017563 0.000000 0.000000 0.000000
# 4 0.000000 0.000000 0.000000 0.061631 0.000000 0.000000
# 5 0.000000 0.000000 0.000000 0.000000 0.044219 0.000000
# 6 0.000000 0.000000 0.000000 0.000000 0.000000 0.050395
#
#
# Mechanical properties :
#
#
# Convention : Reuss Voigt Hill
#
# Bulk Modulus (GPa) = 32.29564 33.10744 32.70154
# Shear Modulus (GPa) = 20.64065 21.54559 21.09312
#
# Velocity S-wave (km/s) = 3.19619 3.26550 3.23103
# Velocity P-wave (km/s) = 5.44104 5.53207 5.48674
#
# Compressibility (1/GPa) = 0.03096393
#
# Stress axis : x y z
#
# Youngs Moduli (GPa) = 54.38626 57.57518 56.93663
#
# Poissons Ratio (x) = 0.37140 0.28389
# Poissons Ratio (y) = 0.35083 -0.01476
# Poissons Ratio (z) = 0.27117 -0.01492
#
# Static dielectric constant tensor:
#      x y z
#    x 1.680900 0.000000 0.000000 
#    y 0.000000 1.743340 0.000000 
#    z 0.000000 0.000000 1.781090 
# 
# From -- ./inp_files/40340.got.cif
#   From: 2010.05.17/outbox.cif.g08.bks.cpg/sg71_21_cif.got.tgz:40340.got - 2010.06.03 16:22:01.
