data_PCOD9521733
_publ_section_title
;
Structure prediction by ZEFSAII (Michael W. Deem and Ramdas Pophale) SiO2 
 PCOD9521733
Probable space group: I M M M
;
_chemical_formula_sum "Si O2"
_cell_formula_units_Z 72
_cell_length_a 16.747543
_cell_length_b 20.290833
_cell_length_c 11.751995
_cell_angle_alpha 90.000000
_cell_angle_beta 90.000000
_cell_angle_gamma 90.000000
_cell_volume 3993.581723
_symmetry_space_group_name_H-M "I M M M"
_symmetry_group_IT_number 71
_symmetry_cell_setting 'orthorhombic'
loop_
_space_group_symop_operation_xyz
x,y,z
-x,-y,z
x,-y,-z
-x,y,-z
-x,-y,-z
x,y,-z
-x,y,z
x,-y,z
1/2+x,1/2+y,1/2+z
1/2-x,1/2-y,1/2+z
1/2+x,1/2-y,1/2-z
1/2-x,1/2+y,1/2-z
1/2-x,1/2-y,1/2-z
1/2+x,1/2+y,1/2-z
1/2-x,1/2+y,1/2+z
1/2+x,1/2-y,1/2+z
loop_
_atom_site_type_symbol
_atom_site_label
_atom_site_fract_x
_atom_site_fract_y
_atom_site_fract_z
Si Si1 0.189337 0.874487 0.281631
Si Si2 0.409926 0.724393 0.365414
Si Si3 0.266538 0.500000 0.368282
Si Si4 0.595040 0.577434 0.000000
Si Si5 0.588557 0.000000 0.782321
Si Si6 0.130282 0.373241 0.866064
O O1 0.153325 0.813965 0.211131
O O2 0.131973 0.891354 0.386746
O O3 0.276912 0.864041 0.333906
O O4 0.199377 0.936412 0.196885
O O5 0.392042 0.716105 0.500000
O O6 0.500000 0.699214 0.344556
O O7 0.408647 0.802535 0.342169
O O8 0.288750 0.500000 0.500000
O O9 0.169504 0.500000 0.357054
O O10 0.616526 0.500000 0.000000
O O11 0.500000 0.583875 0.000000
O O12 0.596452 0.065550 0.704862
O O13 0.500000 0.000000 0.836474
O O14 0.122193 0.387560 0.000000
#
# Coordination Sequence:
#
# PCOD9521733 Si02
#       6
#    16  16   8   8   8  16
#     4  11  20  37  58  82 114 146 191 231 277 341
#     4  10  21  36  54  79 113 150 188 232 279 329
#     4  10  22  37  58  83 110 148 193 231 272 338
#     4  11  22  36  58  86 116 149 181 233 292 334
#     4  10  21  35  58  86 115 147 183 235 285 331
#     4  10  20  34  57  84 114 147 189 233 280 336
#
# _framework density 18.028929000000002
#
# number of rings (size 3 to 8) (size 9 to 14) (size 15 to 20)
#    0.000    1.667    2.222    3.000    0.000    2.000 
#    0.000    0.000    2.444    2.667    0.000    0.000 
#    0.000    0.000    0.000    0.000    0.000    0.000 
#
# Total GULP energy -200982.820662 kJ/mol
# GULP energy per Si atom -5582.856130 kJ/mol
# Density = 1.798789 g / cm^3
# Si number density = 18.028929 Si / 1000 Ang^3
#
#
#
# Elastic Constant Matrix: (Units=GPa)
#
#
# Indices 1 2 3 4 5 6 
#
# 1 44.3593 23.9143 12.4058 0.0000 0.0000 0.0000
# 2 23.9143 73.8236 34.1731 0.0000 0.0000 0.0000
# 3 12.4058 34.1731 79.9769 0.0000 0.0000 0.0000
# 4 0.0000 0.0000 0.0000 26.3655 0.0000 0.0000
# 5 0.0000 0.0000 0.0000 0.0000 8.5644 0.0000
# 6 0.0000 0.0000 0.0000 0.0000 0.0000 12.4689
#
#
#
# Elastic Compliance Matrix: (Units=1/GPa)
#
#
# Indices 1 2 3 4 5 6 
#
# 1 0.027334 -0.008591 -0.000569 0.000000 0.000000 0.000000
# 2 -0.008591 0.019586 -0.007036 0.000000 0.000000 0.000000
# 3 -0.000569 -0.007036 0.015598 0.000000 0.000000 0.000000
# 4 0.000000 0.000000 0.000000 0.037928 0.000000 0.000000
# 5 0.000000 0.000000 0.000000 0.000000 0.116762 0.000000
# 6 0.000000 0.000000 0.000000 0.000000 0.000000 0.080200
#
#
# Mechanical properties :
#
#
# Convention : Reuss Voigt Hill
#
# Bulk Modulus (GPa) = 33.19459 37.68292 35.43875
# Shear Modulus (GPa) = 14.71270 17.99086 16.35178
#
# Velocity S-wave (km/s) = 2.85978 3.16236 3.01487
# Velocity P-wave (km/s) = 5.41814 5.85498 5.64079
#
# Compressibility (1/GPa) = 0.03012539
#
# Stress axis : x y z
#
# Youngs Moduli (GPa) = 36.58468 51.05731 64.10933
#
# Poissons Ratio (x) = 0.43864 0.03649
# Poissons Ratio (y) = 0.31430 0.45108
# Poissons Ratio (z) = 0.02082 0.35925
#
# Static dielectric constant tensor:
#      x y z
#    x 1.621250 0.000000 0.000000 
#    y 0.000000 1.596010 0.000000 
#    z 0.000000 0.000000 1.574970 
# 
# From -- ./inp_files/23525.got.cif
#   From: 2010.05.17/outbox.cif.g08.bks.cpg/sg71_12_cif.got.tgz:23525.got - 2010.06.03 16:22:01.
