data_PCOD9521554
_publ_section_title
;
Structure prediction by ZEFSAII (Michael W. Deem and Ramdas Pophale) SiO2 
 PCOD9521554
Probable space group: I M M M
;
_chemical_formula_sum "Si O2"
_cell_formula_units_Z 120
_cell_length_a 8.868411
_cell_length_b 27.622305
_cell_length_c 28.251414
_cell_angle_alpha 90.000000
_cell_angle_beta 90.000000
_cell_angle_gamma 90.000000
_cell_volume 6920.634568
_symmetry_space_group_name_H-M "I M M M"
_symmetry_group_IT_number 71
_symmetry_cell_setting 'orthorhombic'
loop_
_space_group_symop_operation_xyz
x,y,z
-x,-y,z
x,-y,-z
-x,y,-z
-x,-y,-z
x,y,-z
-x,y,z
x,-y,z
1/2+x,1/2+y,1/2+z
1/2-x,1/2-y,1/2+z
1/2+x,1/2-y,1/2-z
1/2-x,1/2+y,1/2-z
1/2-x,1/2-y,1/2-z
1/2+x,1/2+y,1/2-z
1/2-x,1/2+y,1/2+z
1/2+x,1/2-y,1/2+z
loop_
_atom_site_type_symbol
_atom_site_label
_atom_site_fract_x
_atom_site_fract_y
_atom_site_fract_z
Si Si1 0.680683 0.819410 0.055876
Si Si2 0.180817 0.348113 0.859827
Si Si3 0.180488 0.899907 0.781168
Si Si4 0.180955 0.908878 0.889910
Si Si5 0.318368 0.053889 0.689266
Si Si6 0.819926 0.200500 0.268385
Si Si7 0.180919 0.500000 0.555546
Si Si8 0.681371 0.292164 0.945055
O O1 0.500000 0.824451 0.062235
O O2 0.765256 0.858469 0.087395
O O3 0.721749 0.763701 0.066812
O O4 0.711649 0.827663 0.000000
O O5 0.228020 0.402880 0.845991
O O6 0.249412 0.314628 0.818526
O O7 0.241325 0.329013 0.909487
O O8 0.000000 0.345418 0.858503
O O9 0.226813 0.911005 0.834720
O O10 0.257899 0.932413 0.741200
O O11 0.213277 0.844171 0.767135
O O12 0.000000 0.906454 0.777704
O O13 0.253584 0.952632 0.919066
O O14 0.000000 0.912209 0.892167
O O15 0.500000 0.054282 0.690864
O O16 0.267950 0.000000 0.675724
O O17 0.750000 0.250000 0.250000
O O18 0.000000 0.204797 0.272793
O O19 0.221441 0.500000 0.500000
O O20 0.000000 0.500000 0.559046
O O21 0.500000 0.295732 0.941044
O O22 0.721089 0.300403 0.000000
#
# Coordination Sequence:
#
# PCOD9521554 Si02
#       8
#    16  16  16  16  16  16   8  16
#     4   9  19  36  55  76 103 137 177 218 263 318
#     4  10  20  34  54  81 111 142 180 223 270 324
#     4   9  21  37  51  75 109 139 171 215 266 316
#     4  11  23  37  55  80 107 135 171 223 279 324
#     4   9  19  36  57  80 106 138 178 222 264 317
#     4  10  20  35  53  76 109 146 181 218 263 317
#     4  11  25  43  59  75  99 137 183 229 276 327
#     4   9  19  36  57  82 113 147 182 221 265 316
#
# _framework density 17.339449999999999
#
# number of rings (size 3 to 8) (size 9 to 14) (size 15 to 20)
#    0.000    2.333    0.000    2.600    2.800    5.600 
#    0.000    1.333    0.000    0.400    0.000    2.800 
#    0.000    0.000    0.000    0.000    0.000    0.000 
#
# Total GULP energy -334910.767054 kJ/mol
# GULP energy per Si atom -5581.846118 kJ/mol
# Density = 1.729998 g / cm^3
# Si number density = 17.339450 Si / 1000 Ang^3
#
#
#
# Elastic Constant Matrix: (Units=GPa)
#
#
# Indices 1 2 3 4 5 6 
#
# 1 35.6936 45.5922 45.9440 0.0000 0.0000 0.0000
# 2 45.5922 140.8270 87.9555 0.0000 0.0000 0.0000
# 3 45.9440 87.9555 126.2513 0.0000 0.0000 0.0000
# 4 0.0000 0.0000 0.0000 14.6156 0.0000 0.0000
# 5 0.0000 0.0000 0.0000 0.0000 29.7816 0.0000
# 6 0.0000 0.0000 0.0000 0.0000 0.0000 23.0339
#
#
#
# Elastic Compliance Matrix: (Units=1/GPa)
#
#
# Indices 1 2 3 4 5 6 
#
# 1 0.060044 -0.010253 -0.014707 0.000000 0.000000 0.000000
# 2 -0.010253 0.014321 -0.006246 0.000000 0.000000 0.000000
# 3 -0.014707 -0.006246 0.017624 0.000000 0.000000 0.000000
# 4 0.000000 0.000000 0.000000 0.068420 0.000000 0.000000
# 5 0.000000 0.000000 0.000000 0.000000 0.033578 0.000000
# 6 0.000000 0.000000 0.000000 0.000000 0.000000 0.043414
#
#
# Mechanical properties :
#
#
# Convention : Reuss Voigt Hill
#
# Bulk Modulus (GPa) = 33.81088 73.52837 53.66963
# Shear Modulus (GPa) = 16.14600 21.70490 18.92545
#
# Velocity S-wave (km/s) = 3.05482 3.54187 3.30732
# Velocity P-wave (km/s) = 5.65547 7.69570 6.75307
#
# Compressibility (1/GPa) = 0.02957628
#
# Stress axis : x y z
#
# Youngs Moduli (GPa) = 16.65442 69.82540 56.73989
#
# Poissons Ratio (x) = 0.71594 0.83450
# Poissons Ratio (y) = 0.17076 0.35440
# Poissons Ratio (z) = 0.24494 0.43613
#
# Static dielectric constant tensor:
#      x y z
#    x 1.579560 0.000000 0.000000 
#    y 0.000000 1.586110 0.000000 
#    z 0.000000 0.000000 1.567400 
# 
# From -- ./inp_files/63852.got.cif
#   From: 2010.05.17/outbox.cif.g08.bks.cpg/sg71_32_cif.got.tgz:63852.got - 2010.06.03 16:22:01.
