data_PCOD9521422
_publ_section_title
;
Structure prediction by ZEFSAII (Michael W. Deem and Ramdas Pophale) SiO2 
 PCOD9521422
Probable space group: I M M M
;
_chemical_formula_sum "Si O2"
_cell_formula_units_Z 56
_cell_length_a 9.342962
_cell_length_b 7.679527
_cell_length_c 37.751856
_cell_angle_alpha 90.000000
_cell_angle_beta 90.000000
_cell_angle_gamma 90.000000
_cell_volume 2708.677885
_symmetry_space_group_name_H-M "I M M M"
_symmetry_group_IT_number 71
_symmetry_cell_setting 'orthorhombic'
loop_
_space_group_symop_operation_xyz
x,y,z
-x,-y,z
x,-y,-z
-x,y,-z
-x,-y,-z
x,y,-z
-x,y,z
x,-y,z
1/2+x,1/2+y,1/2+z
1/2-x,1/2-y,1/2+z
1/2+x,1/2-y,1/2-z
1/2-x,1/2+y,1/2-z
1/2-x,1/2-y,1/2-z
1/2+x,1/2+y,1/2-z
1/2-x,1/2+y,1/2+z
1/2+x,1/2-y,1/2+z
loop_
_atom_site_type_symbol
_atom_site_label
_atom_site_fract_x
_atom_site_fract_y
_atom_site_fract_z
Si Si1 0.836344 0.792320 0.923092
Si Si2 0.836714 0.706926 0.000000
Si Si3 0.837259 0.209314 0.785392
Si Si4 0.835338 0.713544 0.645452
O O1 0.773346 0.760000 0.962231
O O2 0.741670 0.727249 0.890591
O O3 0.000000 0.722390 0.921965
O O4 0.846190 0.000000 0.918871
O O5 0.844321 0.500000 0.000000
O O6 0.000000 0.780268 0.000000
O O7 0.750000 0.250000 0.750000
O O8 0.753441 0.271607 0.820213
O O9 0.000000 0.275912 0.783695
O O10 0.844676 0.000000 0.788250
O O11 0.835196 0.500000 0.645437
O O12 0.000000 0.768872 0.647284
#
# Coordination Sequence:
#
# PCOD9521422 Si02
#       4
#    16   8  16  16
#     4   9  16  28  48  71  92 118 157 201 240 282
#     4   9  17  29  46  69  96 124 154 191 238 290
#     4  10  20  34  53  77 104 134 168 206 249 297
#     4   9  17  30  49  72  97 126 162 204 246 287
#
# _framework density 20.674292999999999
#
# number of rings (size 3 to 8) (size 9 to 14) (size 15 to 20)
#    0.000    2.714    0.000    2.143    0.000    6.857 
#    0.000    2.143    0.000   10.286    0.000    0.000 
#    0.000    0.000    0.000    0.000    0.000    0.000 
#
# Total GULP energy -156246.403273 kJ/mol
# GULP energy per Si atom -5580.228688 kJ/mol
# Density = 2.062724 g / cm^3
# Si number density = 20.674293 Si / 1000 Ang^3
#
#
#
# Elastic Constant Matrix: (Units=GPa)
#
#
# Indices 1 2 3 4 5 6 
#
# 1 162.1508 7.2885 126.4428 0.0000 0.0000 0.0000
# 2 7.2885 35.4657 1.2683 0.0000 0.0000 0.0000
# 3 126.4428 1.2683 250.2169 0.0000 0.0000 0.0000
# 4 0.0000 0.0000 0.0000 17.7716 0.0000 0.0000
# 5 0.0000 0.0000 0.0000 0.0000 29.7116 0.0000
# 6 0.0000 0.0000 0.0000 0.0000 0.0000 7.9015
#
#
#
# Elastic Compliance Matrix: (Units=1/GPa)
#
#
# Indices 1 2 3 4 5 6 
#
# 1 0.010308 -0.001933 -0.005199 0.000000 0.000000 0.000000
# 2 -0.001933 0.028564 0.000832 0.000000 0.000000 0.000000
# 3 -0.005199 0.000832 0.006620 0.000000 0.000000 0.000000
# 4 0.000000 0.000000 0.000000 0.056270 0.000000 0.000000
# 5 0.000000 0.000000 0.000000 0.000000 0.033657 0.000000
# 6 0.000000 0.000000 0.000000 0.000000 0.000000 0.126558
#
#
# Mechanical properties :
#
#
# Convention : Reuss Voigt Hill
#
# Bulk Modulus (GPa) = 30.40296 79.75917 55.08106
# Shear Modulus (GPa) = 17.51069 31.93254 24.72162
#
# Velocity S-wave (km/s) = 2.91345 3.93434 3.46174
# Velocity P-wave (km/s) = 5.10443 7.70074 6.53286
#
# Compressibility (1/GPa) = 0.03289154
#
# Stress axis : x y z
#
# Youngs Moduli (GPa) = 97.00891 35.00954 151.06398
#
# Poissons Ratio (x) = 0.06766 0.78543
# Poissons Ratio (y) = 0.18747 -0.12565
# Poissons Ratio (z) = 0.50438 -0.02912
#
# Static dielectric constant tensor:
#      x y z
#    x 1.721040 0.000000 0.000000 
#    y 0.000000 1.786350 0.000000 
#    z 0.000000 0.000000 1.726440 
# 
# From -- ./inp_files/18413.got.cif
#   From: 2010.05.17/outbox.cif.g08.bks.cpg/sg71_10_cif.got.tgz:18413.got - 2010.06.03 16:22:01.
