data_PCOD9521721
_publ_section_title
;
Structure prediction by ZEFSAII (Michael W. Deem and Ramdas Pophale) SiO2 
 PCOD9521721
Probable space group: I M M M
;
_chemical_formula_sum "Si O2"
_cell_formula_units_Z 112
_cell_length_a 27.614279
_cell_length_b 15.323023
_cell_length_c 13.724022
_cell_angle_alpha 90.000000
_cell_angle_beta 90.000000
_cell_angle_gamma 90.000000
_cell_volume 5807.103512
_symmetry_space_group_name_H-M "I M M M"
_symmetry_group_IT_number 71
_symmetry_cell_setting 'orthorhombic'
loop_
_space_group_symop_operation_xyz
x,y,z
-x,-y,z
x,-y,-z
-x,y,-z
-x,-y,-z
x,y,-z
-x,y,z
x,-y,z
1/2+x,1/2+y,1/2+z
1/2-x,1/2-y,1/2+z
1/2+x,1/2-y,1/2-z
1/2-x,1/2+y,1/2-z
1/2-x,1/2-y,1/2-z
1/2+x,1/2+y,1/2-z
1/2-x,1/2+y,1/2+z
1/2+x,1/2-y,1/2+z
loop_
_atom_site_type_symbol
_atom_site_label
_atom_site_fract_x
_atom_site_fract_y
_atom_site_fract_z
Si Si1 0.266800 0.845038 0.215245
Si Si2 0.823939 0.403027 0.108661
Si Si3 0.881567 0.101967 0.610964
Si Si4 0.335437 0.598588 0.317090
Si Si5 0.944571 0.261195 0.316659
Si Si6 0.135165 0.601986 0.383710
Si Si7 0.097877 0.748797 0.889266
O O1 0.250000 0.750000 0.250000
O O2 0.281821 0.894764 0.313398
O O3 0.220956 0.886847 0.162454
O O4 0.315701 0.851226 0.152681
O O5 0.844906 0.500000 0.112965
O O6 0.865558 0.332424 0.126481
O O7 0.804776 0.387848 0.000000
O O8 0.863544 0.116277 0.500000
O O9 0.844015 0.113540 0.700511
O O10 0.922704 0.173476 0.634277
O O11 0.897687 0.000000 0.616225
O O12 0.349722 0.500000 0.339089
O O13 0.368533 0.666487 0.373860
O O14 0.910184 0.341721 0.346579
O O15 0.939504 0.251066 0.199582
O O16 0.000000 0.274583 0.344830
O O17 0.134347 0.602222 0.500000
O O18 0.134997 0.500000 0.351089
O O19 0.079141 0.745043 0.000000
#
# Coordination Sequence:
#
# PCOD9521721 Si02
#       7
#    16  16  16  16  16  16  16
#     4  12  21  36  58  85 121 158 196 241 283 336
#     4  10  20  35  57  81 109 148 190 235 286 337
#     4   9  19  37  59  87 124 158 191 241 303 360
#     4  10  20  34  56  86 120 159 199 238 283 344
#     4  11  23  40  63  89 114 148 198 253 304 357
#     4  11  25  43  61  85 122 164 201 242 294 352
#     4  10  21  39  59  84 116 149 190 240 295 353
#
# _framework density 19.286724
#
# number of rings (size 3 to 8) (size 9 to 14) (size 15 to 20)
#    0.000    1.571    2.857    2.571    0.000    4.000 
#    0.000    2.857    0.000    0.000    0.000    7.000 
#    0.000    0.000    0.000    0.000    0.000    0.000 
#
# Total GULP energy -312545.336641 kJ/mol
# GULP energy per Si atom -5581.166726 kJ/mol
# Density = 1.924283 g / cm^3
# Si number density = 19.286724 Si / 1000 Ang^3
#
#
#
# Elastic Constant Matrix: (Units=GPa)
#
#
# Indices 1 2 3 4 5 6 
#
# 1 98.9185 33.9588 3.5082 0.0000 0.0000 0.0000
# 2 33.9588 120.5844 7.8619 0.0000 0.0000 0.0000
# 3 3.5082 7.8619 64.3444 0.0000 0.0000 0.0000
# 4 0.0000 0.0000 0.0000 26.5938 0.0000 0.0000
# 5 0.0000 0.0000 0.0000 0.0000 4.1193 0.0000
# 6 0.0000 0.0000 0.0000 0.0000 0.0000 -13.2835
#
#
#
# Elastic Compliance Matrix: (Units=1/GPa)
#
#
# Indices 1 2 3 4 5 6 
#
# 1 0.011195 -0.003138 -0.000227 0.000000 0.000000 0.000000
# 2 -0.003138 0.009239 -0.000958 0.000000 0.000000 0.000000
# 3 -0.000227 -0.000958 0.015671 0.000000 0.000000 0.000000
# 4 0.000000 0.000000 0.000000 0.037603 0.000000 0.000000
# 5 0.000000 0.000000 0.000000 0.000000 0.242761 0.000000
# 6 0.000000 0.000000 0.000000 0.000000 0.000000 -0.075281
#
#
# Mechanical properties :
#
#
# Convention : Reuss Voigt Hill
#
# Bulk Modulus (GPa) = 36.41752 41.61166 39.01459
# Shear Modulus (GPa) = 19.30613 19.38714 19.34663
#
# Velocity S-wave (km/s) = 3.16730 3.17394 3.17062
# Velocity P-wave (km/s) = 5.68321 5.92064 5.80314
#
# Compressibility (1/GPa) = 0.02745931
#
# Stress axis : x y z
#
# Youngs Moduli (GPa) = 89.32890 108.23618 63.81306
#
# Poissons Ratio (x) = 0.33962 0.01448
# Poissons Ratio (y) = 0.28030 0.06112
# Poissons Ratio (z) = 0.02027 0.10367
#
# Static dielectric constant tensor:
#      x y z
#    x 1.634230 0.000000 0.000000 
#    y 0.000000 1.688140 0.000000 
#    z 0.000000 0.000000 1.701840 
# 
# From -- ./inp_files/35109.got.cif
#   From: 2010.05.17/outbox.cif.g08.bks.cpg/sg71_18_cif.got.tgz:35109.got - 2010.06.03 16:22:01.
