data_PCOD9521803
_publ_section_title
;
Structure prediction by ZEFSAII (Michael W. Deem and Ramdas Pophale) SiO2 
 PCOD9521803
Probable space group: I M M M
;
_chemical_formula_sum "Si O2"
_cell_formula_units_Z 96
_cell_length_a 7.461816
_cell_length_b 25.912090
_cell_length_c 22.975900
_cell_angle_alpha 90.000000
_cell_angle_beta 90.000000
_cell_angle_gamma 90.000000
_cell_volume 4442.418933
_symmetry_space_group_name_H-M "I M M M"
_symmetry_group_IT_number 71
_symmetry_cell_setting 'orthorhombic'
loop_
_space_group_symop_operation_xyz
x,y,z
-x,-y,z
x,-y,-z
-x,y,-z
-x,-y,-z
x,y,-z
-x,y,z
x,-y,z
1/2+x,1/2+y,1/2+z
1/2-x,1/2-y,1/2+z
1/2+x,1/2-y,1/2-z
1/2-x,1/2+y,1/2-z
1/2-x,1/2-y,1/2-z
1/2+x,1/2+y,1/2-z
1/2-x,1/2+y,1/2+z
1/2+x,1/2-y,1/2+z
loop_
_atom_site_type_symbol
_atom_site_label
_atom_site_fract_x
_atom_site_fract_y
_atom_site_fract_z
Si Si1 0.284935 0.556228 0.901915
Si Si2 0.781713 0.087136 0.725285
Si Si3 0.781604 0.056684 0.143360
Si Si4 0.280183 0.741393 0.500000
Si Si5 0.281238 0.334610 0.602608
Si Si6 0.790427 0.359727 0.000000
Si Si7 0.712990 0.692975 0.269427
O O1 0.500000 0.553923 0.899236
O O2 0.222115 0.500000 0.924118
O O3 0.219319 0.563456 0.835472
O O4 0.248565 0.604458 0.943923
O O5 0.727746 0.064917 0.788571
O O6 0.724839 0.147100 0.727754
O O7 0.000000 0.082943 0.724489
O O8 0.726210 0.105079 0.103376
O O9 0.000000 0.057468 0.143942
O O10 0.723441 0.000000 0.124182
O O11 0.500000 0.742441 0.500000
O O12 0.222980 0.706485 0.445160
O O13 0.214893 0.801002 0.500000
O O14 0.500000 0.334642 0.600176
O O15 0.219679 0.315638 0.665686
O O16 0.000000 0.351551 0.000000
O O17 0.500000 0.686065 0.272651
O O18 0.750000 0.750000 0.250000
#
# Coordination Sequence:
#
# PCOD9521803 Si02
#       7
#    16  16  16   8  16   8  16
#     4  10  20  35  54  72  92 120 155 197 244 289
#     4   8  15  27  44  69  95 118 147 187 237 284
#     4   8  12  21  40  66  93 119 149 187 231 276
#     4   9  18  32  45  59  87 128 166 191 222 274
#     4   8  15  27  42  61  88 122 156 189 225 270
#     4  11  24  36  49  67  90 127 166 199 234 278
#     4   9  17  28  45  68  94 122 152 190 231 273
#
# _framework density 21.609849000000001
#
# number of rings (size 3 to 8) (size 9 to 14) (size 15 to 20)
#    0.000    3.167    0.000    3.000    2.333    3.333 
#    0.000    0.417    0.000    2.500    0.000    0.000 
#    0.000    6.000    0.000    0.000    0.000   10.667 
#
# Total GULP energy -267498.764501 kJ/mol
# GULP energy per Si atom -5572.890927 kJ/mol
# Density = 2.156066 g / cm^3
# Si number density = 21.609849 Si / 1000 Ang^3
#
#
#
# Elastic Constant Matrix: (Units=GPa)
#
#
# Indices 1 2 3 4 5 6 
#
# 1 59.5289 5.1874 5.8875 0.0000 0.0000 0.0000
# 2 5.1874 241.3879 84.7670 0.0000 0.0000 0.0000
# 3 5.8875 84.7670 90.6943 0.0000 0.0000 0.0000
# 4 0.0000 0.0000 0.0000 23.9864 0.0000 0.0000
# 5 0.0000 0.0000 0.0000 0.0000 -17.3257 0.0000
# 6 0.0000 0.0000 0.0000 0.0000 0.0000 7.6003
#
#
#
# Elastic Compliance Matrix: (Units=1/GPa)
#
#
# Indices 1 2 3 4 5 6 
#
# 1 0.016907 0.000033 -0.001128 0.000000 0.000000 0.000000
# 2 0.000033 0.006167 -0.005766 0.000000 0.000000 0.000000
# 3 -0.001128 -0.005766 0.016488 0.000000 0.000000 0.000000
# 4 0.000000 0.000000 0.000000 0.041690 0.000000 0.000000
# 5 0.000000 0.000000 0.000000 0.000000 -0.057718 0.000000
# 6 0.000000 0.000000 0.000000 0.000000 0.000000 0.131573
#
#
# Mechanical properties :
#
#
# Convention : Reuss Voigt Hill
#
# Bulk Modulus (GPa) = 38.69994 64.81056 51.75525
# Shear Modulus (GPa) = 28.17790 22.57014 25.37402
#
# Velocity S-wave (km/s) = 3.61493 3.23528 3.43036
# Velocity P-wave (km/s) = 5.94735 6.63418 6.30013
#
# Compressibility (1/GPa) = 0.02583983
#
# Stress axis : x y z
#
# Youngs Moduli (GPa) = 59.14610 162.15908 60.64880
#
# Poissons Ratio (x) = -0.00533 0.06843
# Poissons Ratio (y) = -0.00194 0.34969
# Poissons Ratio (z) = 0.06673 0.93499
#
# Static dielectric constant tensor:
#      x y z
#    x 1.869740 0.000000 0.000000 
#    y 0.000000 1.423490 0.000000 
#    z 0.000000 0.000000 1.777230 
# 
# From -- ./inp_files/59108.got.cif
#   From: 2010.05.17/outbox.cif.g08.bks.cpg/sg71_30_cif.got.tgz:59108.got - 2010.06.03 16:22:01.
