data_PCOD9521488
_publ_section_title
;
Structure prediction by ZEFSAII (Michael W. Deem and Ramdas Pophale) SiO2 
 PCOD9521488
Probable space group: I M M M
;
_chemical_formula_sum "Si O2"
_cell_formula_units_Z 104
_cell_length_a 18.260932
_cell_length_b 14.920328
_cell_length_c 20.751626
_cell_angle_alpha 90.000000
_cell_angle_beta 90.000000
_cell_angle_gamma 90.000000
_cell_volume 5653.969240
_symmetry_space_group_name_H-M "I M M M"
_symmetry_group_IT_number 71
_symmetry_cell_setting 'orthorhombic'
loop_
_space_group_symop_operation_xyz
x,y,z
-x,-y,z
x,-y,-z
-x,y,-z
-x,-y,-z
x,y,-z
-x,y,z
x,-y,z
1/2+x,1/2+y,1/2+z
1/2-x,1/2-y,1/2+z
1/2+x,1/2-y,1/2-z
1/2-x,1/2+y,1/2-z
1/2-x,1/2-y,1/2-z
1/2+x,1/2+y,1/2-z
1/2-x,1/2+y,1/2+z
1/2+x,1/2-y,1/2+z
loop_
_atom_site_type_symbol
_atom_site_label
_atom_site_fract_x
_atom_site_fract_y
_atom_site_fract_z
Si Si1 0.677484 0.761205 0.792318
Si Si2 0.412877 0.202857 0.570225
Si Si3 0.586237 0.399564 0.744609
Si Si4 0.862289 0.098094 0.098210
Si Si5 0.789435 0.675887 0.429772
Si Si6 0.080409 0.605332 0.500000
Si Si7 0.088230 0.392881 0.203968
O O1 0.750000 0.750000 0.750000
O O2 0.624700 0.676239 0.785484
O O3 0.704655 0.768755 0.865298
O O4 0.632470 0.844848 0.761703
O O5 0.384990 0.170312 0.500000
O O6 0.500000 0.189773 0.570065
O O7 0.397494 0.309515 0.573739
O O8 0.387634 0.153787 0.635935
O O9 0.500000 0.381251 0.735162
O O10 0.593789 0.500000 0.771351
O O11 0.624312 0.398698 0.674678
O O12 0.776923 0.107008 0.080470
O O13 0.890108 0.000000 0.076443
O O14 0.775535 0.720744 0.500000
O O15 0.868833 0.631984 0.440022
O O16 0.073552 0.500000 0.500000
O O17 0.000000 0.646930 0.500000
O O18 0.100495 0.500000 0.201993
O O19 0.000000 0.378139 0.211244
#
# Coordination Sequence:
#
# PCOD9521488 Si02
#       7
#    16  16  16  16  16   8  16
#     4  12  22  39  62  91 120 157 205 252 303 366
#     4  10  20  34  53  81 119 159 199 242 292 357
#     4  10  21  37  61  92 125 160 198 248 308 367
#     4  11  20  34  58  86 119 158 197 241 301 367
#     4  10  23  38  57  84 119 158 196 241 306 364
#     4   9  20  38  56  80 114 154 202 245 294 364
#     4  10  22  39  58  82 113 154 204 254 302 351
#
# _framework density 18.394157
#
# number of rings (size 3 to 8) (size 9 to 14) (size 15 to 20)
#    0.462    1.154    3.077    1.846    0.000    5.231 
#    0.000    3.846    0.000    0.462    0.000    1.077 
#    0.000    0.000    0.000    0.000    0.000    0.000 
#
# Total GULP energy -289659.402315 kJ/mol
# GULP energy per Si atom -5570.373121 kJ/mol
# Density = 1.835229 g / cm^3
# Si number density = 18.394157 Si / 1000 Ang^3
#
#
#
# Elastic Constant Matrix: (Units=GPa)
#
#
# Indices 1 2 3 4 5 6 
#
# 1 74.8151 21.8967 22.1781 0.0000 0.0000 0.0000
# 2 21.8967 85.0323 46.5853 0.0000 0.0000 0.0000
# 3 22.1781 46.5853 126.6147 0.0000 0.0000 0.0000
# 4 0.0000 0.0000 0.0000 -9.0043 0.0000 0.0000
# 5 0.0000 0.0000 0.0000 0.0000 43.9576 0.0000
# 6 0.0000 0.0000 0.0000 0.0000 0.0000 23.9528
#
#
#
# Elastic Compliance Matrix: (Units=1/GPa)
#
#
# Indices 1 2 3 4 5 6 
#
# 1 0.014673 -0.002969 -0.001478 0.000000 0.000000 0.000000
# 2 -0.002969 0.015330 -0.005120 0.000000 0.000000 0.000000
# 3 -0.001478 -0.005120 0.010041 0.000000 0.000000 0.000000
# 4 0.000000 0.000000 0.000000 -0.111058 0.000000 0.000000
# 5 0.000000 0.000000 0.000000 0.000000 0.022749 0.000000
# 6 0.000000 0.000000 0.000000 0.000000 0.000000 0.041749
#
#
# Mechanical properties :
#
#
# Convention : Reuss Voigt Hill
#
# Bulk Modulus (GPa) = 47.82422 51.97580 49.90001
# Shear Modulus (GPa) = 255.26428 24.83469 140.04948
#
# Velocity S-wave (km/s) = 11.79305 3.67841 8.73518
# Velocity P-wave (km/s) = 14.54272 6.80874 11.35451
#
# Compressibility (1/GPa) = 0.02090991
#
# Stress axis : x y z
#
# Youngs Moduli (GPa) = 68.15100 65.23185 99.59412
#
# Poissons Ratio (x) = 0.19366 0.14719
# Poissons Ratio (y) = 0.20233 0.50995
# Poissons Ratio (z) = 0.10072 0.33401
#
# Static dielectric constant tensor:
#      x y z
#    x 1.651670 0.000000 0.000000 
#    y 0.000000 1.634550 0.000000 
#    z 0.000000 0.000000 1.649280 
# 
# From -- ./inp_files/54140.got.cif
#   From: 2010.05.17/outbox.cif.g08.bks.cpg/sg71_28_cif.got.tgz:54140.got - 2010.06.03 16:22:01.
