data_PCOD9521096
_publ_section_title
;
Structure prediction by ZEFSAII (Michael W. Deem and Ramdas Pophale) SiO2 
 PCOD9521096
Probable space group: I M M M
;
_chemical_formula_sum "Si O2"
_cell_formula_units_Z 104
_cell_length_a 21.536077
_cell_length_b 8.865531
_cell_length_c 29.223509
_cell_angle_alpha 90.000000
_cell_angle_beta 90.000000
_cell_angle_gamma 90.000000
_cell_volume 5579.608285
_symmetry_space_group_name_H-M "I M M M"
_symmetry_group_IT_number 71
_symmetry_cell_setting 'orthorhombic'
loop_
_space_group_symop_operation_xyz
x,y,z
-x,-y,z
x,-y,-z
-x,y,-z
-x,-y,-z
x,y,-z
-x,y,z
x,-y,z
1/2+x,1/2+y,1/2+z
1/2-x,1/2-y,1/2+z
1/2+x,1/2-y,1/2-z
1/2-x,1/2+y,1/2-z
1/2-x,1/2-y,1/2-z
1/2+x,1/2+y,1/2-z
1/2-x,1/2+y,1/2+z
1/2+x,1/2-y,1/2+z
loop_
_atom_site_type_symbol
_atom_site_label
_atom_site_fract_x
_atom_site_fract_y
_atom_site_fract_z
Si Si1 0.264046 0.673365 0.445135
Si Si2 0.131520 0.819718 0.448105
Si Si3 0.681053 0.680374 0.304267
Si Si4 0.500000 0.816193 0.553249
Si Si5 0.177515 0.680201 0.703782
Si Si6 0.068943 0.818826 0.356223
Si Si7 0.376348 0.180081 0.607997
O O1 0.272081 0.677190 0.500000
O O2 0.269032 0.500000 0.429321
O O3 0.195595 0.736984 0.435835
O O4 0.317100 0.771407 0.421908
O O5 0.113969 0.777984 0.500000
O O6 0.080921 0.786675 0.409731
O O7 0.142954 0.000000 0.447403
O O8 0.675501 0.500000 0.302988
O O9 0.753463 0.719149 0.314930
O O10 0.670201 0.747683 0.253982
O O11 0.635620 0.747174 0.342465
O O12 0.500000 0.765650 0.500000
O O13 0.561567 0.769635 0.581113
O O14 0.500000 0.000000 0.552023
O O15 0.174615 0.500000 0.707488
O O16 0.123424 0.741711 0.671906
O O17 0.000000 0.770072 0.342369
O O18 0.073129 0.000000 0.350200
O O19 0.378835 0.000000 0.612695
#
# Coordination Sequence:
#
# PCOD9521096 Si02
#       7
#    16  16  16   8  16  16  16
#     4  10  20  33  51  78 111 144 181 229 282 330
#     4   9  18  33  54  80 109 144 187 231 273 323
#     4  10  21  38  61  87 114 141 177 229 286 337
#     4   9  20  38  57  79 111 151 193 235 276 327
#     4  10  21  38  60  85 111 144 185 229 278 335
#     4  10  21  36  54  79 112 149 186 225 274 326
#     4  11  21  35  57  83 110 145 188 231 279 336
#
# _framework density 18.639301
#
# number of rings (size 3 to 8) (size 9 to 14) (size 15 to 20)
#    0.000    2.077    0.000    3.231    0.000    7.077 
#    1.385    3.077    0.000    2.769    0.000    3.231 
#    0.000    0.000    0.000    0.000    0.000    0.000 
#
# Total GULP energy -290365.108535 kJ/mol
# GULP energy per Si atom -5583.944395 kJ/mol
# Density = 1.859688 g / cm^3
# Si number density = 18.639301 Si / 1000 Ang^3
#
#
#
# Elastic Constant Matrix: (Units=GPa)
#
#
# Indices 1 2 3 4 5 6 
#
# 1 95.2625 38.2087 70.0178 0.0000 0.0000 0.0000
# 2 38.2087 45.2637 38.6313 0.0000 0.0000 0.0000
# 3 70.0178 38.6313 100.0800 0.0000 0.0000 0.0000
# 4 0.0000 0.0000 0.0000 31.1614 0.0000 0.0000
# 5 0.0000 0.0000 0.0000 0.0000 24.9814 0.0000
# 6 0.0000 0.0000 0.0000 0.0000 0.0000 17.7512
#
#
#
# Elastic Compliance Matrix: (Units=1/GPa)
#
#
# Indices 1 2 3 4 5 6 
#
# 1 0.023721 -0.008739 -0.013222 0.000000 0.000000 0.000000
# 2 -0.008739 0.036166 -0.007847 0.000000 0.000000 0.000000
# 3 -0.013222 -0.007847 0.022271 0.000000 0.000000 0.000000
# 4 0.000000 0.000000 0.000000 0.032091 0.000000 0.000000
# 5 0.000000 0.000000 0.000000 0.000000 0.040030 0.000000
# 6 0.000000 0.000000 0.000000 0.000000 0.000000 0.056334
#
#
# Mechanical properties :
#
#
# Convention : Reuss Voigt Hill
#
# Bulk Modulus (GPa) = 44.35918 59.36910 51.86414
# Shear Modulus (GPa) = 18.00231 21.02870 19.51550
#
# Velocity S-wave (km/s) = 3.11114 3.36250 3.23926
# Velocity P-wave (km/s) = 6.06267 6.85536 6.47117
#
# Compressibility (1/GPa) = 0.02254325
#
# Stress axis : x y z
#
# Youngs Moduli (GPa) = 42.15756 27.65013 44.90075
#
# Poissons Ratio (x) = 0.24162 0.59369
# Poissons Ratio (y) = 0.36840 0.35232
# Poissons Ratio (z) = 0.55742 0.21696
#
# Static dielectric constant tensor:
#      x y z
#    x 1.615190 0.000000 0.000000 
#    y 0.000000 1.628500 0.000000 
#    z 0.000000 0.000000 1.649760 
# 
# From -- ./inp_files/66418.got.cif
#   From: 2010.05.17/outbox.cif.g08.bks.cpg/sg71_34_cif.got.tgz:66418.got - 2010.06.03 16:22:01.
