data_PCOD9521197
_publ_section_title
;
Structure prediction by ZEFSAII (Michael W. Deem and Ramdas Pophale) SiO2 
 PCOD9521197
Probable space group: I M M M
;
_chemical_formula_sum "Si O2"
_cell_formula_units_Z 56
_cell_length_a 14.360193
_cell_length_b 10.024560
_cell_length_c 17.955457
_cell_angle_alpha 90.000000
_cell_angle_beta 90.000000
_cell_angle_gamma 90.000000
_cell_volume 2584.770924
_symmetry_space_group_name_H-M "I M M M"
_symmetry_group_IT_number 71
_symmetry_cell_setting 'orthorhombic'
loop_
_space_group_symop_operation_xyz
x,y,z
-x,-y,z
x,-y,-z
-x,y,-z
-x,-y,-z
x,y,-z
-x,y,z
x,-y,z
1/2+x,1/2+y,1/2+z
1/2-x,1/2-y,1/2+z
1/2+x,1/2-y,1/2-z
1/2-x,1/2+y,1/2-z
1/2-x,1/2-y,1/2-z
1/2+x,1/2+y,1/2-z
1/2-x,1/2+y,1/2+z
1/2+x,1/2-y,1/2+z
loop_
_atom_site_type_symbol
_atom_site_label
_atom_site_fract_x
_atom_site_fract_y
_atom_site_fract_z
Si Si1 0.671167 0.655272 0.786710
Si Si2 0.103647 0.793634 0.867321
Si Si3 0.190825 0.352255 0.413511
Si Si4 0.889439 0.500000 0.916597
O O1 0.694760 0.500000 0.800043
O O2 0.750000 0.750000 0.750000
O O3 0.600048 0.659752 0.717961
O O4 0.649727 0.735140 0.862139
O O5 0.195881 0.853848 0.904950
O O6 0.127630 0.636211 0.873544
O O7 0.000000 0.815787 0.900679
O O8 0.168850 0.333186 0.500000
O O9 0.158525 0.500000 0.389035
O O10 0.000000 0.500000 0.926542
O O11 0.846247 0.500000 0.000000
#
# Coordination Sequence:
#
# PCOD9521197 Si02
#       4
#    16  16  16   8
#     4  10  21  35  54  78 106 146 188 225 269 321
#     4  10  20  33  53  81 112 143 177 224 274 325
#     4  10  22  37  55  80 110 146 184 226 275 325
#     4   9  18  30  46  76 113 145 174 207 259 325
#
# _framework density 21.665362999999999
#
# number of rings (size 3 to 8) (size 9 to 14) (size 15 to 20)
#    0.000    2.143    0.000    4.286   10.000    4.571 
#    0.000    1.429    0.000    0.857    0.000    4.000 
#    0.000    0.000    0.000    0.000    0.000    0.000 
#
# Total GULP energy -155953.233519 kJ/mol
# GULP energy per Si atom -5569.758340 kJ/mol
# Density = 2.161605 g / cm^3
# Si number density = 21.665363 Si / 1000 Ang^3
#
#
#
# Elastic Constant Matrix: (Units=GPa)
#
#
# Indices 1 2 3 4 5 6 
#
# 1 12.5516 -2.2933 -5.3029 0.0000 0.0000 0.0000
# 2 -2.2933 215.0568 73.9922 0.0000 0.0000 0.0000
# 3 -5.3029 73.9922 105.6984 0.0000 0.0000 0.0000
# 4 0.0000 0.0000 0.0000 29.1812 0.0000 0.0000
# 5 0.0000 0.0000 0.0000 0.0000 9.8805 0.0000
# 6 0.0000 0.0000 0.0000 0.0000 0.0000 43.9105
#
#
#
# Elastic Compliance Matrix: (Units=1/GPa)
#
#
# Indices 1 2 3 4 5 6 
#
# 1 0.081478 -0.000708 0.004584 0.000000 0.000000 0.000000
# 2 -0.000708 0.006131 -0.004328 0.000000 0.000000 0.000000
# 3 0.004584 -0.004328 0.012720 0.000000 0.000000 0.000000
# 4 0.000000 0.000000 0.000000 0.034269 0.000000 0.000000
# 5 0.000000 0.000000 0.000000 0.000000 0.101210 0.000000
# 6 0.000000 0.000000 0.000000 0.000000 0.000000 0.022774
#
#
# Mechanical properties :
#
#
# Convention : Reuss Voigt Hill
#
# Bulk Modulus (GPa) = 10.05778 51.78876 30.92327
# Shear Modulus (GPa) = 17.08651 34.38849 25.73750
#
# Velocity S-wave (km/s) = 2.81135 3.98836 3.45041
# Velocity P-wave (km/s) = 3.89752 6.72051 5.49344
#
# Compressibility (1/GPa) = 0.09942555
#
# Stress axis : x y z
#
# Youngs Moduli (GPa) = 12.27319 163.09603 78.61420
#
# Poissons Ratio (x) = 0.11550 -0.36033
# Poissons Ratio (y) = 0.00869 0.34022
# Poissons Ratio (z) = -0.05625 0.70583
#
# Static dielectric constant tensor:
#      x y z
#    x 1.836200 0.000000 0.000000 
#    y 0.000000 1.825560 0.000000 
#    z 0.000000 0.000000 1.861260 
# 
# From -- ./inp_files/41724.got.cif
#   From: 2010.05.17/outbox.cif.g08.bks.cpg/sg71_21_cif.got.tgz:41724.got - 2010.06.03 16:22:01.
