data_PCOD9521801
_publ_section_title
;
Structure prediction by ZEFSAII (Michael W. Deem and Ramdas Pophale) SiO2 
 PCOD9521801
Probable space group: I M M M
;
_chemical_formula_sum "Si O2"
_cell_formula_units_Z 116
_cell_length_a 22.985316
_cell_length_b 9.861237
_cell_length_c 29.188744
_cell_angle_alpha 90.000000
_cell_angle_beta 90.000000
_cell_angle_gamma 90.000000
_cell_volume 6616.027213
_symmetry_space_group_name_H-M "I M M M"
_symmetry_group_IT_number 71
_symmetry_cell_setting 'orthorhombic'
loop_
_space_group_symop_operation_xyz
x,y,z
-x,-y,z
x,-y,-z
-x,y,-z
-x,-y,-z
x,y,-z
-x,y,z
x,-y,z
1/2+x,1/2+y,1/2+z
1/2-x,1/2-y,1/2+z
1/2+x,1/2-y,1/2-z
1/2-x,1/2+y,1/2-z
1/2-x,1/2-y,1/2-z
1/2+x,1/2+y,1/2-z
1/2-x,1/2+y,1/2+z
1/2+x,1/2-y,1/2+z
loop_
_atom_site_type_symbol
_atom_site_label
_atom_site_fract_x
_atom_site_fract_y
_atom_site_fract_z
Si Si1 0.397875 0.659159 0.303442
Si Si2 0.154943 0.658571 0.640282
Si Si3 0.218468 0.279840 0.550326
Si Si4 0.431169 0.340175 0.197920
Si Si5 0.762659 0.842326 0.793527
Si Si6 0.649843 0.346917 0.555054
Si Si7 0.566569 0.840329 0.613813
Si Si8 0.724242 0.500000 0.000000
O O1 0.412741 0.500000 0.311784
O O2 0.412803 0.688937 0.250502
O O3 0.328631 0.676678 0.310114
O O4 0.428751 0.760619 0.338153
O O5 0.140605 0.500000 0.645603
O O6 0.170109 0.689147 0.587705
O O7 0.105675 0.750492 0.662995
O O8 0.214639 0.685470 0.668130
O O9 0.206237 0.341952 0.500000
O O10 0.281870 0.330881 0.566185
O O11 0.223816 0.120581 0.539217
O O12 0.500000 0.317269 0.193295
O O13 0.419437 0.500000 0.190261
O O14 0.750000 0.750000 0.750000
O O15 0.757465 0.000000 0.779960
O O16 0.645269 0.331579 0.500000
O O17 0.631335 0.500000 0.567686
O O18 0.610884 0.235991 0.580109
O O19 0.500000 0.829330 0.596983
O O20 0.580333 0.000000 0.618674
#
# Coordination Sequence:
#
# PCOD9521801 Si02
#       8
#    16  16  16  16  16  16  16   4
#     4  10  20  38  60  80 109 150 193 238 282 340
#     4  11  22  35  58  87 122 154 186 233 287 339
#     4   9  20  37  60  90 119 146 184 227 282 345
#     4  10  22  38  58  82 110 152 200 239 278 332
#     4  10  20  35  53  84 115 144 183 228 282 336
#     4  10  21  38  61  84 112 146 184 233 287 344
#     4  11  25  39  54  79 110 149 196 243 289 335
#     4   8  20  36  58  96 122 148 186 224 284 350
#
# _framework density 17.533180000000002
#
# number of rings (size 3 to 8) (size 9 to 14) (size 15 to 20)
#    0.414    1.517    1.379    2.069    1.931    5.517 
#    0.000    1.379    0.000    0.414    0.000    2.414 
#    0.000    0.000    0.000    0.000    0.000    0.000 
#
# Total GULP energy -323125.028455 kJ/mol
# GULP energy per Si atom -5571.121180 kJ/mol
# Density = 1.749327 g / cm^3
# Si number density = 17.533180 Si / 1000 Ang^3
#
#
#
# Elastic Constant Matrix: (Units=GPa)
#
#
# Indices 1 2 3 4 5 6 
#
# 1 84.0762 50.9095 45.9174 0.0000 0.0000 0.0000
# 2 50.9095 94.3912 46.1141 0.0000 0.0000 0.0000
# 3 45.9174 46.1141 84.6099 0.0000 0.0000 0.0000
# 4 0.0000 0.0000 0.0000 33.5906 0.0000 0.0000
# 5 0.0000 0.0000 0.0000 0.0000 17.9299 0.0000
# 6 0.0000 0.0000 0.0000 0.0000 0.0000 21.0597
#
#
#
# Elastic Compliance Matrix: (Units=1/GPa)
#
#
# Indices 1 2 3 4 5 6 
#
# 1 0.020209 -0.007553 -0.006851 0.000000 0.000000 0.000000
# 2 -0.007553 0.017261 -0.005309 0.000000 0.000000 0.000000
# 3 -0.006851 -0.005309 0.018430 0.000000 0.000000 0.000000
# 4 0.000000 0.000000 0.000000 0.029770 0.000000 0.000000
# 5 0.000000 0.000000 0.000000 0.000000 0.055773 0.000000
# 6 0.000000 0.000000 0.000000 0.000000 0.000000 0.047484
#
#
# Mechanical properties :
#
#
# Convention : Reuss Voigt Hill
#
# Bulk Modulus (GPa) = 60.69610 60.99550 60.84580
# Shear Modulus (GPa) = 21.38173 22.52511 21.95342
#
# Velocity S-wave (km/s) = 3.49592 3.58818 3.54235
# Velocity P-wave (km/s) = 7.14061 7.21324 7.17702
#
# Compressibility (1/GPa) = 0.01647552
#
# Stress axis : x y z
#
# Youngs Moduli (GPa) = 49.48360 57.93295 54.25811
#
# Poissons Ratio (x) = 0.43754 0.37172
# Poissons Ratio (y) = 0.37373 0.28806
# Poissons Ratio (z) = 0.33901 0.30757
#
# Static dielectric constant tensor:
#      x y z
#    x 1.589890 0.000000 0.000000 
#    y 0.000000 1.586350 0.000000 
#    z 0.000000 0.000000 1.602500 
# 
# From -- ./inp_files/66938.got.cif
#   From: 2010.05.17/outbox.cif.g08.bks.cpg/sg71_34_cif.got.tgz:66938.got - 2010.06.03 16:22:01.
