data_PCOD9521388
_publ_section_title
;
Structure prediction by ZEFSAII (Michael W. Deem and Ramdas Pophale) SiO2 
 PCOD9521388
Probable space group: I M M M
;
_chemical_formula_sum "Si O2"
_cell_formula_units_Z 88
_cell_length_a 19.409206
_cell_length_b 18.244701
_cell_length_c 14.070270
_cell_angle_alpha 90.000000
_cell_angle_beta 90.000000
_cell_angle_gamma 90.000000
_cell_volume 4982.495914
_symmetry_space_group_name_H-M "I M M M"
_symmetry_group_IT_number 71
_symmetry_cell_setting 'orthorhombic'
loop_
_space_group_symop_operation_xyz
x,y,z
-x,-y,z
x,-y,-z
-x,y,-z
-x,-y,-z
x,y,-z
-x,y,z
x,-y,z
1/2+x,1/2+y,1/2+z
1/2-x,1/2-y,1/2+z
1/2+x,1/2-y,1/2-z
1/2-x,1/2+y,1/2-z
1/2-x,1/2-y,1/2-z
1/2+x,1/2+y,1/2-z
1/2-x,1/2+y,1/2+z
1/2+x,1/2-y,1/2+z
loop_
_atom_site_type_symbol
_atom_site_label
_atom_site_fract_x
_atom_site_fract_y
_atom_site_fract_z
Si Si1 0.422056 0.101183 0.000000
Si Si2 0.917010 0.157961 0.689055
Si Si3 0.131720 0.237931 0.500000
Si Si4 0.702558 0.255453 0.500000
Si Si5 0.822891 0.579139 0.330447
Si Si6 0.787939 0.917209 0.000000
Si Si7 0.583549 0.500000 0.886975
Si Si8 0.824323 0.725580 0.210045
O O1 0.410796 0.187889 0.000000
O O2 0.384926 0.075767 0.905054
O O3 0.500000 0.080991 0.000000
O O4 0.891205 0.193583 0.591299
O O5 0.897074 0.072581 0.673169
O O6 0.877957 0.209181 0.765123
O O7 0.000000 0.162371 0.699282
O O8 0.213183 0.256564 0.500000
O O9 0.674073 0.339275 0.500000
O O10 0.680182 0.217421 0.402910
O O11 0.815472 0.500000 0.281248
O O12 0.758439 0.587633 0.403676
O O13 0.835897 0.648454 0.263414
O O14 0.818837 0.000000 0.000000
O O15 0.500000 0.500000 0.892768
O O16 0.606548 0.500000 0.000000
O O17 0.750000 0.750000 0.250000
#
# Coordination Sequence:
#
# PCOD9521388 Si02
#       8
#     8  16   8   8  16   8   8  16
#     4  11  18  30  55  89 119 142 181 234 292 355
#     4  11  21  36  59  86 120 158 192 235 293 352
#     4  12  18  31  58  88 115 147 188 237 289 350
#     4  12  22  39  56  83 115 152 197 246 283 336
#     4  10  20  34  52  79 116 150 179 226 291 346
#     4   9  15  30  53  75 104 141 178 223 284 341
#     4   9  18  32  54  87 123 153 188 240 295 350
#     4  12  22  39  58  82 113 153 198 240 290 345
#
# _framework density 17.661830999999999
#
# number of rings (size 3 to 8) (size 9 to 14) (size 15 to 20)
#    0.000    1.182    8.182    1.636    0.000    0.727 
#    3.273    0.909    2.000    0.000    0.000    1.909 
#    0.000    2.909    0.000    0.000    0.000    0.000 
#
# Total GULP energy -245136.900355 kJ/mol
# GULP energy per Si atom -5571.293190 kJ/mol
# Density = 1.762163 g / cm^3
# Si number density = 17.661831 Si / 1000 Ang^3
#
#
#
# Elastic Constant Matrix: (Units=GPa)
#
#
# Indices 1 2 3 4 5 6 
#
# 1 45.5661 23.8291 22.7769 0.0000 0.0000 0.0000
# 2 23.8291 170.3421 52.1004 0.0000 0.0000 0.0000
# 3 22.7769 52.1004 118.0437 0.0000 0.0000 0.0000
# 4 0.0000 0.0000 0.0000 -2.9507 0.0000 0.0000
# 5 0.0000 0.0000 0.0000 0.0000 15.1038 0.0000
# 6 0.0000 0.0000 0.0000 0.0000 0.0000 0.5599
#
#
#
# Elastic Compliance Matrix: (Units=1/GPa)
#
#
# Indices 1 2 3 4 5 6 
#
# 1 0.025073 -0.002344 -0.003803 0.000000 0.000000 0.000000
# 2 -0.002344 0.007006 -0.002640 0.000000 0.000000 0.000000
# 3 -0.003803 -0.002640 0.010370 0.000000 0.000000 0.000000
# 4 0.000000 0.000000 0.000000 -0.338904 0.000000 0.000000
# 5 0.000000 0.000000 0.000000 0.000000 0.066209 0.000000
# 6 0.000000 0.000000 0.000000 0.000000 0.000000 1.786065
#
#
# Mechanical properties :
#
#
# Convention : Reuss Voigt Hill
#
# Bulk Modulus (GPa) = 40.20131 59.04053 49.62092
# Shear Modulus (GPa) = 3.16118 18.22563 10.69341
#
# Velocity S-wave (km/s) = 1.33930 3.21584 2.46326
# Velocity P-wave (km/s) = 5.02023 6.87675 6.02048
#
# Compressibility (1/GPa) = 0.02487481
#
# Stress axis : x y z
#
# Youngs Moduli (GPa) = 39.88323 142.73719 96.42805
#
# Poissons Ratio (x) = 0.33461 0.36674
# Poissons Ratio (y) = 0.09349 0.25455
# Poissons Ratio (z) = 0.15169 0.37680
#
# Static dielectric constant tensor:
#      x y z
#    x 1.604100 0.000000 0.000000 
#    y 0.000000 1.681850 0.000000 
#    z 0.000000 0.000000 1.610310 
# 
# From -- ./inp_files/36454.got.cif
#   From: 2010.05.17/outbox.cif.g08.bks.cpg/sg71_19_cif.got.tgz:36454.got - 2010.06.03 16:22:01.
