data_PCOD9521247
_publ_section_title
;
Structure prediction by ZEFSAII (Michael W. Deem and Ramdas Pophale) SiO2 
 PCOD9521247
Probable space group: I M M M
;
_chemical_formula_sum "Si O2"
_cell_formula_units_Z 82
_cell_length_a 22.497607
_cell_length_b 8.847062
_cell_length_c 22.936983
_cell_angle_alpha 90.000000
_cell_angle_beta 90.000000
_cell_angle_gamma 90.000000
_cell_volume 4565.324891
_symmetry_space_group_name_H-M "I M M M"
_symmetry_group_IT_number 71
_symmetry_cell_setting 'orthorhombic'
loop_
_space_group_symop_operation_xyz
x,y,z
-x,-y,z
x,-y,-z
-x,y,-z
-x,-y,-z
x,y,-z
-x,y,z
x,-y,z
1/2+x,1/2+y,1/2+z
1/2-x,1/2-y,1/2+z
1/2+x,1/2-y,1/2-z
1/2-x,1/2+y,1/2-z
1/2-x,1/2-y,1/2-z
1/2+x,1/2+y,1/2-z
1/2-x,1/2+y,1/2+z
1/2+x,1/2-y,1/2+z
loop_
_atom_site_type_symbol
_atom_site_label
_atom_site_fract_x
_atom_site_fract_y
_atom_site_fract_z
Si Si1 0.000000 0.000000 0.000000
Si Si2 0.842809 0.681118 0.404603
Si Si3 0.120856 0.681396 0.842088
Si Si4 0.500000 0.665107 0.379353
Si Si5 0.070264 0.181637 0.500000
Si Si6 0.687506 0.182108 0.227515
Si Si7 0.781536 0.679720 0.064568
O O1 0.000000 0.871067 0.948016
O O2 0.849211 0.500000 0.406916
O O3 0.895204 0.754377 0.443040
O O4 0.835041 0.728476 0.336642
O O5 0.780126 0.732462 0.431798
O O6 0.118520 0.500000 0.845961
O O7 0.139598 0.722426 0.776760
O O8 0.173087 0.732116 0.885996
O O9 0.058856 0.748495 0.861219
O O10 0.500000 0.500000 0.349928
O O11 0.000000 0.221232 0.500000
O O12 0.075422 0.000000 0.500000
O O13 0.750000 0.250000 0.250000
O O14 0.694501 0.000000 0.226436
O O15 0.769754 0.500000 0.072688
O O16 0.807912 0.699444 0.000000
#
# Coordination Sequence:
#
# PCOD9521247 Si02
#       7
#     2  16  16   8   8  16  16
#     4   8  24  44  58  80 120 148 198 254 314 356
#     4  11  22  37  60  92 123 154 195 247 308 364
#     4  10  21  39  61  85 118 162 206 249 296 364
#     4  10  23  41  59  83 117 161 199 254 305 357
#     4  11  25  45  66  87 117 162 208 258 308 367
#     4  10  21  37  60  91 124 158 198 245 303 362
#     4  10  20  33  56  88 119 154 196 244 297 356
#
# _framework density 17.961483000000001
#
# number of rings (size 3 to 8) (size 9 to 14) (size 15 to 20)
#    0.293    1.463    2.927    1.171    1.366    3.122 
#    1.756    0.488    0.000    0.000    0.000    0.000 
#    0.000    0.000    0.000    0.000    0.000    0.000 
#
# Total GULP energy -228428.192688 kJ/mol
# GULP energy per Si atom -5571.419334 kJ/mol
# Density = 1.792060 g / cm^3
# Si number density = 17.961483 Si / 1000 Ang^3
#
#
#
# Elastic Constant Matrix: (Units=GPa)
#
#
# Indices 1 2 3 4 5 6 
#
# 1 143.0492 39.1477 78.5377 0.0000 0.0000 0.0000
# 2 39.1477 30.1037 41.4085 0.0000 0.0000 0.0000
# 3 78.5377 41.4085 172.4699 0.0000 0.0000 0.0000
# 4 0.0000 0.0000 0.0000 25.8403 0.0000 0.0000
# 5 0.0000 0.0000 0.0000 0.0000 11.6717 0.0000
# 6 0.0000 0.0000 0.0000 0.0000 0.0000 19.8585
#
#
#
# Elastic Compliance Matrix: (Units=1/GPa)
#
#
# Indices 1 2 3 4 5 6 
#
# 1 0.011512 -0.011586 -0.002461 0.000000 0.000000 0.000000
# 2 -0.011586 0.061259 -0.009432 0.000000 0.000000 0.000000
# 3 -0.002461 -0.009432 0.009183 0.000000 0.000000 0.000000
# 4 0.000000 0.000000 0.000000 0.038699 0.000000 0.000000
# 5 0.000000 0.000000 0.000000 0.000000 0.085678 0.000000
# 6 0.000000 0.000000 0.000000 0.000000 0.000000 0.050356
#
#
# Mechanical properties :
#
#
# Convention : Reuss Voigt Hill
#
# Bulk Modulus (GPa) = 28.57352 73.75674 51.16513
# Shear Modulus (GPa) = 15.85734 23.90934 19.88334
#
# Velocity S-wave (km/s) = 2.97451 3.65244 3.33077
# Velocity P-wave (km/s) = 5.26685 7.67725 6.58330
#
# Compressibility (1/GPa) = 0.03499744
#
# Stress axis : x y z
#
# Youngs Moduli (GPa) = 86.86339 16.32400 108.89596
#
# Poissons Ratio (x) = 0.18914 0.26795
# Poissons Ratio (y) = 1.00643 1.02708
# Poissons Ratio (z) = 0.21374 0.15396
#
# Static dielectric constant tensor:
#      x y z
#    x 1.582200 0.000000 0.000000 
#    y 0.000000 1.612170 0.000000 
#    z 0.000000 0.000000 1.660870 
# 
# From -- ./inp_files/12446.got.cif
#   From: 2010.05.17/outbox.cif.g08.bks.cpg/sg71_7_cif.got.tgz:12446.got - 2010.06.03 16:22:01.
