data_PCOD9521704
_publ_section_title
;
Structure prediction by ZEFSAII (Michael W. Deem and Ramdas Pophale) SiO2 
 PCOD9521704
Probable space group: I M M M
;
_chemical_formula_sum "Si O2"
_cell_formula_units_Z 128
_cell_length_a 24.209959
_cell_length_b 22.703069
_cell_length_c 12.981129
_cell_angle_alpha 90.000000
_cell_angle_beta 90.000000
_cell_angle_gamma 90.000000
_cell_volume 7134.952542
_symmetry_space_group_name_H-M "I M M M"
_symmetry_group_IT_number 71
_symmetry_cell_setting 'orthorhombic'
loop_
_space_group_symop_operation_xyz
x,y,z
-x,-y,z
x,-y,-z
-x,y,-z
-x,-y,-z
x,y,-z
-x,y,z
x,-y,z
1/2+x,1/2+y,1/2+z
1/2-x,1/2-y,1/2+z
1/2+x,1/2-y,1/2-z
1/2-x,1/2+y,1/2-z
1/2-x,1/2-y,1/2-z
1/2+x,1/2+y,1/2-z
1/2-x,1/2+y,1/2+z
1/2+x,1/2-y,1/2+z
loop_
_atom_site_type_symbol
_atom_site_label
_atom_site_fract_x
_atom_site_fract_y
_atom_site_fract_z
Si Si1 0.840818 0.145566 0.878220
Si Si2 0.166740 0.745020 0.269763
Si Si3 0.562368 0.435305 0.374925
Si Si4 0.435093 0.183626 0.881995
Si Si5 0.437520 0.071093 0.612924
Si Si6 0.623588 0.931207 0.817877
Si Si7 0.254573 0.174676 0.622129
Si Si8 0.749213 0.569549 0.731723
O O1 0.837992 0.205583 0.817360
O O2 0.896851 0.114657 0.842259
O O3 0.792408 0.100944 0.846964
O O4 0.840666 0.154979 0.000000
O O5 0.109182 0.720812 0.314865
O O6 0.204920 0.778026 0.355714
O O7 0.199881 0.694982 0.206937
O O8 0.561907 0.435287 0.500000
O O9 0.500000 0.426914 0.339963
O O10 0.581812 0.500000 0.342556
O O11 0.500000 0.184732 0.848763
O O12 0.410760 0.116841 0.880816
O O13 0.433415 0.204909 0.000000
O O14 0.422192 0.093666 0.500000
O O15 0.500000 0.090941 0.637396
O O16 0.394974 0.083989 0.701362
O O17 0.439726 0.000000 0.607282
O O18 0.689503 0.926053 0.817848
O O19 0.609191 0.000000 0.839727
O O20 0.268360 0.175775 0.500000
O O21 0.242597 0.108380 0.663617
O O22 0.738444 0.500000 0.747583
#
# Coordination Sequence:
#
# PCOD9521704 Si02
#       8
#    16  16  16  16  16  16  16  16
#     4  10  20  34  56  84 116 150 186 231 287 344
#     4  10  21  39  57  84 109 143 191 241 285 343
#     4   8  14  26  46  74 108 144 177 210 262 338
#     4  11  24  41  60  81 110 149 191 241 296 342
#     4   8  14  26  46  70  95 128 171 219 272 328
#     4  10  20  36  54  77 110 148 193 241 286 336
#     4  10  20  37  61  82 108 146 188 238 293 344
#     4  10  21  35  53  84 119 152 190 234 285 341
#
# _framework density 17.939852999999999
#
# number of rings (size 3 to 8) (size 9 to 14) (size 15 to 20)
#    0.000    2.375    1.250    2.250    0.000    3.500 
#    0.000    3.125    0.000    1.875    0.000    0.000 
#    0.000    0.000    0.000   23.250    0.000    0.750 
#
# Total GULP energy -356358.709890 kJ/mol
# GULP energy per Si atom -5568.104842 kJ/mol
# Density = 1.789902 g / cm^3
# Si number density = 17.939853 Si / 1000 Ang^3
#
#
#
# Elastic Constant Matrix: (Units=GPa)
#
#
# Indices 1 2 3 4 5 6 
#
# 1 67.3007 43.1286 22.4450 0.0000 0.0000 0.0000
# 2 43.1286 104.9121 30.2259 0.0000 0.0000 0.0000
# 3 22.4450 30.2259 67.3405 0.0000 0.0000 0.0000
# 4 0.0000 0.0000 0.0000 4.9059 0.0000 0.0000
# 5 0.0000 0.0000 0.0000 0.0000 17.7170 0.0000
# 6 0.0000 0.0000 0.0000 0.0000 0.0000 15.4820
#
#
#
# Elastic Compliance Matrix: (Units=1/GPa)
#
#
# Indices 1 2 3 4 5 6 
#
# 1 0.020895 -0.007561 -0.003571 0.000000 0.000000 0.000000
# 2 -0.007561 0.013684 -0.003622 0.000000 0.000000 0.000000
# 3 -0.003571 -0.003622 0.017666 0.000000 0.000000 0.000000
# 4 0.000000 0.000000 0.000000 0.203837 0.000000 0.000000
# 5 0.000000 0.000000 0.000000 0.000000 0.056443 0.000000
# 6 0.000000 0.000000 0.000000 0.000000 0.000000 0.064591
#
#
# Mechanical properties :
#
#
# Convention : Reuss Voigt Hill
#
# Bulk Modulus (GPa) = 43.98061 47.90580 45.94321
# Shear Modulus (GPa) = 12.07143 17.20457 14.63800
#
# Velocity S-wave (km/s) = 2.59681 3.10015 2.85958
# Velocity P-wave (km/s) = 5.79311 6.29096 6.04716
#
# Compressibility (1/GPa) = 0.02273729
#
# Stress axis : x y z
#
# Youngs Moduli (GPa) = 47.85871 73.08063 56.60711
#
# Poissons Ratio (x) = 0.55256 0.20212
# Poissons Ratio (y) = 0.36186 0.20502
# Poissons Ratio (z) = 0.17088 0.26468
#
# Static dielectric constant tensor:
#      x y z
#    x 1.673300 0.000000 0.000000 
#    y 0.000000 1.681420 0.000000 
#    z 0.000000 0.000000 1.620180 
# 
# From -- ./inp_files/27895.got.cif
#   From: 2010.05.17/outbox.cif.g08.bks.cpg/sg71_14_cif.got.tgz:27895.got - 2010.06.03 16:22:01.
