data_PCOD9521943
_publ_section_title
;
Structure prediction by ZEFSAII (Michael W. Deem and Ramdas Pophale) SiO2 
 PCOD9521943
Probable space group: I M M M
;
_chemical_formula_sum "Si O2"
_cell_formula_units_Z 80
_cell_length_a 18.985860
_cell_length_b 7.692010
_cell_length_c 24.080612
_cell_angle_alpha 90.000000
_cell_angle_beta 90.000000
_cell_angle_gamma 90.000000
_cell_volume 3516.718730
_symmetry_space_group_name_H-M "I M M M"
_symmetry_group_IT_number 71
_symmetry_cell_setting 'orthorhombic'
loop_
_space_group_symop_operation_xyz
x,y,z
-x,-y,z
x,-y,-z
-x,y,-z
-x,-y,-z
x,y,-z
-x,y,z
x,-y,z
1/2+x,1/2+y,1/2+z
1/2-x,1/2-y,1/2+z
1/2+x,1/2-y,1/2-z
1/2-x,1/2+y,1/2-z
1/2-x,1/2-y,1/2-z
1/2+x,1/2+y,1/2-z
1/2-x,1/2+y,1/2+z
1/2+x,1/2-y,1/2+z
loop_
_atom_site_type_symbol
_atom_site_label
_atom_site_fract_x
_atom_site_fract_y
_atom_site_fract_z
Si Si1 0.419327 0.213491 0.782803
Si Si2 0.890621 0.703409 0.000000
Si Si3 0.924245 0.199800 0.880042
Si Si4 0.173225 0.296813 0.620330
Si Si5 0.774312 0.287264 0.500000
Si Si6 0.306445 0.807221 0.691623
O O1 0.500000 0.268817 0.771617
O O2 0.392431 0.271020 0.843651
O O3 0.357640 0.269307 0.739537
O O4 0.419020 0.000000 0.780305
O O5 0.921264 0.790806 0.945671
O O6 0.806514 0.728121 0.000000
O O7 0.907997 0.500000 0.000000
O O8 0.861729 0.314835 0.858223
O O9 0.000000 0.261111 0.859533
O O10 0.913569 0.000000 0.862793
O O11 0.159779 0.500000 0.611497
O O12 0.191239 0.227150 0.558717
O O13 0.239667 0.282208 0.662897
O O14 0.773744 0.500000 0.500000
O O15 0.283951 0.000000 0.709816
#
# Coordination Sequence:
#
# PCOD9521943 Si02
#       6
#    16   8  16  16   8  16
#     4   9  19  36  57  83 115 149 188 239 294 342
#     4  12  23  35  54  78 109 148 191 238 281 332
#     4  11  23  37  53  76 111 153 192 233 282 337
#     4  10  20  36  59  83 112 151 190 234 289 346
#     4  10  20  35  56  82 114 148 187 236 284 336
#     4  11  21  34  56  84 114 149 190 236 282 336
#
# _framework density 22.748477999999999
#
# number of rings (size 3 to 8) (size 9 to 14) (size 15 to 20)
#    0.000    1.600    2.000    3.600    0.000    3.600 
#    0.000    1.500    0.000    6.000    0.000    0.000 
#    0.000    2.400    0.000    0.000    0.000    0.000 
#
# Total GULP energy -223220.875929 kJ/mol
# GULP energy per Si atom -5580.521898 kJ/mol
# Density = 2.269670 g / cm^3
# Si number density = 22.748478 Si / 1000 Ang^3
#
#
#
# Elastic Constant Matrix: (Units=GPa)
#
#
# Indices 1 2 3 4 5 6 
#
# 1 64.1370 -7.0019 64.5058 0.0000 0.0000 0.0000
# 2 -7.0019 48.1535 -3.6723 0.0000 0.0000 0.0000
# 3 64.5058 -3.6723 149.8451 0.0000 0.0000 0.0000
# 4 0.0000 0.0000 0.0000 7.2872 0.0000 0.0000
# 5 0.0000 0.0000 0.0000 0.0000 86.9618 0.0000
# 6 0.0000 0.0000 0.0000 0.0000 0.0000 65.6932
#
#
#
# Elastic Compliance Matrix: (Units=1/GPa)
#
#
# Indices 1 2 3 4 5 6 
#
# 1 0.027967 0.003154 -0.011962 0.000000 0.000000 0.000000
# 2 0.003154 0.021162 -0.000839 0.000000 0.000000 0.000000
# 3 -0.011962 -0.000839 0.011802 0.000000 0.000000 0.000000
# 4 0.000000 0.000000 0.000000 0.137226 0.000000 0.000000
# 5 0.000000 0.000000 0.000000 0.000000 0.011499 0.000000
# 6 0.000000 0.000000 0.000000 0.000000 0.000000 0.015222
#
#
# Mechanical properties :
#
#
# Convention : Reuss Voigt Hill
#
# Bulk Modulus (GPa) = 24.01713 41.08877 32.55295
# Shear Modulus (GPa) = 19.37602 45.87538 32.62570
#
# Velocity S-wave (km/s) = 2.92164 4.49557 3.79118
# Velocity P-wave (km/s) = 4.68636 6.71180 5.78836
#
# Compressibility (1/GPa) = 0.04163695
#
# Stress axis : x y z
#
# Youngs Moduli (GPa) = 35.75690 47.25549 84.72872
#
# Poissons Ratio (x) = -0.14906 1.01351
# Poissons Ratio (y) = -0.11279 0.07111
# Poissons Ratio (z) = 0.42772 0.03966
#
# Static dielectric constant tensor:
#      x y z
#    x 1.819900 0.000000 0.000000 
#    y 0.000000 1.868960 0.000000 
#    z 0.000000 0.000000 1.903180 
# 
# From -- ./inp_files/10240.got.cif
#   From: 2010.05.17/outbox.cif.g08.bks.cpg/sg71_6_cif.got.tgz:10240.got - 2010.06.03 16:22:01.
