data_PCOD9521978
_publ_section_title
;
Structure prediction by ZEFSAII (Michael W. Deem and Ramdas Pophale) SiO2 
 PCOD9521978
Probable space group: I M M M
;
_chemical_formula_sum "Si O2"
_cell_formula_units_Z 72
_cell_length_a 7.717513
_cell_length_b 29.353905
_cell_length_c 14.673408
_cell_angle_alpha 90.000000
_cell_angle_beta 90.000000
_cell_angle_gamma 90.000000
_cell_volume 3324.101280
_symmetry_space_group_name_H-M "I M M M"
_symmetry_group_IT_number 71
_symmetry_cell_setting 'orthorhombic'
loop_
_space_group_symop_operation_xyz
x,y,z
-x,-y,z
x,-y,-z
-x,y,-z
-x,-y,-z
x,y,-z
-x,y,z
x,-y,z
1/2+x,1/2+y,1/2+z
1/2-x,1/2-y,1/2+z
1/2+x,1/2-y,1/2-z
1/2-x,1/2+y,1/2-z
1/2-x,1/2-y,1/2-z
1/2+x,1/2+y,1/2-z
1/2-x,1/2+y,1/2+z
1/2+x,1/2-y,1/2+z
loop_
_atom_site_type_symbol
_atom_site_label
_atom_site_fract_x
_atom_site_fract_y
_atom_site_fract_z
Si Si1 0.700989 0.778171 0.610853
Si Si2 0.705994 0.000000 0.897146
Si Si3 0.291679 0.409231 0.712540
Si Si4 0.287866 0.679779 0.605994
Si Si5 0.298227 0.378752 0.898375
O O1 0.707366 0.774714 0.500000
O O2 0.500000 0.782624 0.636822
O O3 0.770619 0.729206 0.643108
O O4 0.790829 0.825736 0.632715
O O5 0.756385 0.045228 0.842732
O O6 0.500000 0.000000 0.903908
O O7 0.779122 0.000000 0.000000
O O8 0.500000 0.404547 0.717664
O O9 0.227227 0.364220 0.660389
O O10 0.222777 0.408130 0.815995
O O11 0.237655 0.675168 0.500000
O O12 0.500000 0.681219 0.607769
O O13 0.500000 0.390853 0.907012
O O14 0.219890 0.382144 0.000000
#
# Coordination Sequence:
#
# PCOD9521978 Si02
#       5
#    16   8  16  16  16
#     4   8  14  26  45  69 100 139 177 212 254 301
#     4  11  25  43  60  81 108 128 149 201 272 323
#     4  10  20  35  57  79  99 135 182 215 249 306
#     4   8  14  26  46  73 101 129 171 222 257 293
#     4   9  18  32  49  74 109 142 174 216 257 291
#
# _framework density 21.659990000000001
#
# number of rings (size 3 to 8) (size 9 to 14) (size 15 to 20)
#    0.000    3.000    0.000    2.333    0.000    3.556 
#    0.000    1.667    0.000    7.333    0.000    0.000 
#    0.000    0.000    0.000    0.000    0.000    0.000 
#
# Total GULP energy -200842.015958 kJ/mol
# GULP energy per Si atom -5578.944888 kJ/mol
# Density = 2.161069 g / cm^3
# Si number density = 21.659990 Si / 1000 Ang^3
#
#
#
# Elastic Constant Matrix: (Units=GPa)
#
#
# Indices 1 2 3 4 5 6 
#
# 1 33.7309 -4.6280 7.3922 0.0000 0.0000 0.0000
# 2 -4.6280 103.3938 97.9734 0.0000 0.0000 0.0000
# 3 7.3922 97.9734 152.3282 -0.0002 0.0000 0.0001
# 4 0.0000 0.0000 -0.0002 30.1805 0.0000 0.0000
# 5 0.0000 0.0000 0.0000 0.0000 5.4205 0.0000
# 6 0.0000 0.0000 0.0001 0.0000 0.0000 16.6690
#
#
#
# Elastic Compliance Matrix: (Units=1/GPa)
#
#
# Indices 1 2 3 4 5 6 
#
# 1 0.032059 0.007449 -0.006347 0.000000 0.000000 0.000000
# 2 0.007449 0.026496 -0.017403 0.000000 0.000000 0.000000
# 3 -0.006347 -0.017403 0.018066 0.000000 0.000000 0.000000
# 4 0.000000 0.000000 0.000000 0.033134 0.000000 0.000000
# 5 0.000000 0.000000 0.000000 0.000000 0.184486 0.000000
# 6 0.000000 0.000000 0.000000 0.000000 0.000000 0.059991
#
#
# Mechanical properties :
#
#
# Convention : Reuss Voigt Hill
#
# Bulk Modulus (GPa) = 22.71711 54.54756 38.63234
# Shear Modulus (GPa) = 12.45311 23.03502 17.74406
#
# Velocity S-wave (km/s) = 2.40038 3.26465 2.86529
# Velocity P-wave (km/s) = 4.26536 6.28083 5.36852
#
# Compressibility (1/GPa) = 0.04401969
#
# Stress axis : x y z
#
# Youngs Moduli (GPa) = 31.19218 37.74221 55.35348
#
# Poissons Ratio (x) = -0.28114 0.35132
# Poissons Ratio (y) = -0.23235 0.96330
# Poissons Ratio (z) = 0.19797 0.65682
#
# Static dielectric constant tensor:
#      x y z
#    x 1.789420 0.000000 0.000000 
#    y 0.000000 1.768550 0.000000 
#    z 0.000000 0.000000 1.849490 
# 
# From -- ./inp_files/31427.got.cif
#   From: 2010.05.17/outbox.cif.g08.bks.cpg/sg71_16_cif.got.tgz:31427.got - 2010.06.03 16:22:01.
