data_PCOD9521156
_publ_section_title
;
Structure prediction by ZEFSAII (Michael W. Deem and Ramdas Pophale) SiO2 
 PCOD9521156
Probable space group: I M M M
;
_chemical_formula_sum "Si O2"
_cell_formula_units_Z 72
_cell_length_a 14.322424
_cell_length_b 33.481584
_cell_length_c 7.918178
_cell_angle_alpha 90.000000
_cell_angle_beta 90.000000
_cell_angle_gamma 90.000000
_cell_volume 3797.062825
_symmetry_space_group_name_H-M "I M M M"
_symmetry_group_IT_number 71
_symmetry_cell_setting 'orthorhombic'
loop_
_space_group_symop_operation_xyz
x,y,z
-x,-y,z
x,-y,-z
-x,y,-z
-x,-y,-z
x,y,-z
-x,y,z
x,-y,z
1/2+x,1/2+y,1/2+z
1/2-x,1/2-y,1/2+z
1/2+x,1/2-y,1/2-z
1/2-x,1/2+y,1/2-z
1/2-x,1/2-y,1/2-z
1/2+x,1/2+y,1/2-z
1/2-x,1/2+y,1/2+z
1/2+x,1/2-y,1/2+z
loop_
_atom_site_type_symbol
_atom_site_label
_atom_site_fract_x
_atom_site_fract_y
_atom_site_fract_z
Si Si1 0.104733 0.609604 0.298007
Si Si2 0.894372 0.229261 0.796781
Si Si3 0.708342 0.809519 0.298795
Si Si4 0.605638 0.451463 0.000000
Si Si5 0.258755 0.452270 0.698256
O O1 0.097085 0.607627 0.500000
O O2 0.161653 0.649499 0.256507
O O3 0.165973 0.571379 0.248522
O O4 0.000000 0.610672 0.226338
O O5 0.815709 0.196714 0.753906
O O6 0.851669 0.271506 0.733078
O O7 0.000000 0.222583 0.734467
O O8 0.898870 0.231563 0.000000
O O9 0.705211 0.807872 0.500000
O O10 0.660948 0.440064 0.169895
O O11 0.602658 0.500000 0.000000
O O12 0.500000 0.436472 0.000000
O O13 0.279775 0.443228 0.500000
O O14 0.245919 0.500000 0.710265
#
# Coordination Sequence:
#
# PCOD9521156 Si02
#       5
#    16  16  16   8  16
#     4  10  21  36  55  79 108 144 182 221 271 330
#     4   9  18  34  54  75 103 140 179 220 270 325
#     4  10  20  33  52  79 108 137 176 225 271 323
#     4   9  18  34  57  83 109 141 184 230 277 331
#     4   9  19  36  57  83 115 148 186 233 279 328
#
# _framework density 18.962024
#
# number of rings (size 3 to 8) (size 9 to 14) (size 15 to 20)
#    0.000    2.556    0.000    1.333    1.556    3.556 
#    0.000    5.556    0.000    3.333    0.000    0.000 
#    0.000    0.000    0.000    0.000    0.000    0.000 
#
# Total GULP energy -200737.260158 kJ/mol
# GULP energy per Si atom -5576.035004 kJ/mol
# Density = 1.891887 g / cm^3
# Si number density = 18.962024 Si / 1000 Ang^3
#
#
#
# Elastic Constant Matrix: (Units=GPa)
#
#
# Indices 1 2 3 4 5 6 
#
# 1 204.9356 66.8707 47.8684 -0.0004 0.0013 0.0003
# 2 66.8707 54.6793 26.6161 -0.0004 -0.0007 0.0001
# 3 47.8684 26.6161 43.7066 -0.0059 0.0197 0.0018
# 4 -0.0004 -0.0004 -0.0059 15.0019 0.0016 -0.0019
# 5 0.0013 -0.0007 0.0197 0.0016 19.3955 -0.0021
# 6 0.0003 0.0001 0.0018 -0.0019 -0.0021 25.8808
#
#
#
# Elastic Compliance Matrix: (Units=1/GPa)
#
#
# Indices 1 2 3 4 5 6 
#
# 1 0.008656 -0.008487 -0.004312 -0.000002 0.000003 0.000000
# 2 -0.008487 0.034315 -0.011602 -0.000004 0.000014 0.000001
# 3 -0.004312 -0.011602 0.034667 0.000013 -0.000035 -0.000002
# 4 -0.000002 -0.000004 0.000013 0.066658 -0.000006 0.000005
# 5 0.000003 0.000014 -0.000035 -0.000006 0.051558 0.000004
# 6 0.000000 0.000001 -0.000002 0.000005 0.000004 0.038639
#
#
# Mechanical properties :
#
#
# Convention : Reuss Voigt Hill
#
# Bulk Modulus (GPa) = 34.67732 65.11465 49.89599
# Shear Modulus (GPa) = 17.07019 22.85340 19.96180
#
# Velocity S-wave (km/s) = 3.00364 3.47539 3.24809
# Velocity P-wave (km/s) = 5.50968 7.10764 6.35905
#
# Compressibility (1/GPa) = 0.02883729
#
# Stress axis : x y z
#
# Youngs Moduli (GPa) = 115.52494 29.14150 28.84552
#
# Poissons Ratio (x) = 0.24733 0.12438
# Poissons Ratio (y) = 0.98049 0.33466
# Poissons Ratio (z) = 0.49813 0.33809
#
# Static dielectric constant tensor:
#      x y z
#    x 1.664720 0.000000 0.000000 
#    y 0.000000 1.648580 0.000000 
#    z 0.000000 0.000000 1.666620 
# 
# From -- ./inp_files/6478.got.cif
#   From: 2010.05.17/outbox.cif.g08.bks.cpg/sg71_4_cif.got.tgz:6478.got - 2010.06.03 16:22:01.
