data_PCOD9521642
_publ_section_title
;
Structure prediction by ZEFSAII (Michael W. Deem and Ramdas Pophale) SiO2 
 PCOD9521642
Probable space group: I M M M
;
_chemical_formula_sum "Si O2"
_cell_formula_units_Z 120
_cell_length_a 15.334143
_cell_length_b 19.796779
_cell_length_c 22.066424
_cell_angle_alpha 90.000000
_cell_angle_beta 90.000000
_cell_angle_gamma 90.000000
_cell_volume 6698.630193
_symmetry_space_group_name_H-M "I M M M"
_symmetry_group_IT_number 71
_symmetry_cell_setting 'orthorhombic'
loop_
_space_group_symop_operation_xyz
x,y,z
-x,-y,z
x,-y,-z
-x,y,-z
-x,-y,-z
x,y,-z
-x,y,z
x,-y,z
1/2+x,1/2+y,1/2+z
1/2-x,1/2-y,1/2+z
1/2+x,1/2-y,1/2-z
1/2-x,1/2+y,1/2-z
1/2-x,1/2-y,1/2-z
1/2+x,1/2+y,1/2-z
1/2-x,1/2+y,1/2+z
1/2+x,1/2-y,1/2+z
loop_
_atom_site_type_symbol
_atom_site_label
_atom_site_fract_x
_atom_site_fract_y
_atom_site_fract_z
Si Si1 0.150511 0.676337 0.122042
Si Si2 0.000000 0.578871 0.927812
Si Si3 0.223706 0.427912 0.213783
Si Si4 0.599466 0.857355 0.929172
Si Si5 0.901400 0.868811 0.691212
Si Si6 0.661194 0.297882 0.930693
Si Si7 0.249771 0.923648 0.146739
Si Si8 0.900908 0.180431 0.823923
O O1 0.184479 0.635753 0.180384
O O2 0.235182 0.692702 0.080934
O O3 0.111133 0.746606 0.145634
O O4 0.082676 0.624528 0.091962
O O5 0.000000 0.500000 0.905496
O O6 0.000000 0.574907 0.000000
O O7 0.189062 0.500000 0.191397
O O8 0.327060 0.423939 0.201197
O O9 0.212250 0.423213 0.285214
O O10 0.500000 0.863541 0.905599
O O11 0.631163 0.779672 0.925005
O O12 0.671885 0.901451 0.896181
O O13 0.597774 0.875052 0.000000
O O14 0.884543 0.835805 0.625572
O O15 0.889164 0.819517 0.750193
O O16 0.000000 0.894076 0.694054
O O17 0.640152 0.319887 0.000000
O O18 0.170151 0.870726 0.148448
O O19 0.220025 0.000000 0.133455
O O20 0.000000 0.157114 0.834684
#
# Coordination Sequence:
#
# PCOD9521642 Si02
#       8
#    16   8  16  16  16  16  16  16
#     4  11  20  36  60  81 110 145 189 237 284 338
#     4  11  24  40  58  84 117 151 188 232 291 358
#     4   9  20  35  54  81 114 147 182 228 283 341
#     4  10  21  36  55  80 113 152 193 237 284 340
#     4   9  19  32  54  83 112 144 185 227 283 332
#     4  10  20  34  55  82 112 147 189 234 282 333
#     4  10  21  38  58  82 116 153 189 235 290 345
#     4  10  20  36  59  89 113 144 189 239 290 343
#
# _framework density 17.914110000000001
#
# number of rings (size 3 to 8) (size 9 to 14) (size 15 to 20)
#    0.000    2.067    2.000    1.200    1.867    3.467 
#    1.200    3.333    0.000    3.600    0.000    4.667 
#    0.000    0.000    0.000    0.000    0.000    0.000 
#
# Total GULP energy -334292.805180 kJ/mol
# GULP energy per Si atom -5571.546753 kJ/mol
# Density = 1.787334 g / cm^3
# Si number density = 17.914110 Si / 1000 Ang^3
#
#
#
# Elastic Constant Matrix: (Units=GPa)
#
#
# Indices 1 2 3 4 5 6 
#
# 1 117.3295 46.5904 37.8543 0.0000 0.0000 0.0000
# 2 46.5904 104.2233 44.5165 0.0000 0.0000 0.0000
# 3 37.8543 44.5165 67.6417 0.0000 0.0000 0.0000
# 4 0.0000 0.0000 0.0000 4.8037 0.0000 0.0000
# 5 0.0000 0.0000 0.0000 0.0000 25.1293 0.0000
# 6 0.0000 0.0000 0.0000 0.0000 0.0000 -12.2250
#
#
#
# Elastic Compliance Matrix: (Units=1/GPa)
#
#
# Indices 1 2 3 4 5 6 
#
# 1 0.011127 -0.003219 -0.004108 0.000000 0.000000 0.000000
# 2 -0.003219 0.014278 -0.007595 0.000000 0.000000 0.000000
# 3 -0.004108 -0.007595 0.022081 0.000000 0.000000 0.000000
# 4 0.000000 0.000000 0.000000 0.208171 0.000000 0.000000
# 5 0.000000 0.000000 0.000000 0.000000 0.039794 0.000000
# 6 0.000000 0.000000 0.000000 0.000000 0.000000 -0.081799
#
#
# Mechanical properties :
#
#
# Convention : Reuss Voigt Hill
#
# Bulk Modulus (GPa) = 56.68601 60.79076 58.73839
# Shear Modulus (GPa) = 20.04993 14.22383 17.13688
#
# Velocity S-wave (km/s) = 3.34911 2.82086 3.09627
# Velocity P-wave (km/s) = 6.83135 6.67966 6.75593
#
# Compressibility (1/GPa) = 0.01764104
#
# Stress axis : x y z
#
# Youngs Moduli (GPa) = 89.87337 70.03830 45.28707
#
# Poissons Ratio (x) = 0.22547 0.18605
# Poissons Ratio (y) = 0.28932 0.34396
# Poissons Ratio (z) = 0.36922 0.53194
#
# Static dielectric constant tensor:
#      x y z
#    x 1.624050 0.000000 0.000000 
#    y 0.000000 1.600880 0.000000 
#    z 0.000000 0.000000 1.607560 
# 
# From -- ./inp_files/53430.got.cif
#   From: 2010.05.17/outbox.cif.g08.bks.cpg/sg71_27_cif.got.tgz:53430.got - 2010.06.03 16:22:01.
