data_PCOD9521725
_publ_section_title
;
Structure prediction by ZEFSAII (Michael W. Deem and Ramdas Pophale) SiO2 
 PCOD9521725
Probable space group: I M M M
;
_chemical_formula_sum "Si O2"
_cell_formula_units_Z 80
_cell_length_a 29.513077
_cell_length_b 8.704983
_cell_length_c 16.002271
_cell_angle_alpha 90.000000
_cell_angle_beta 90.000000
_cell_angle_gamma 90.000000
_cell_volume 4111.156782
_symmetry_space_group_name_H-M "I M M M"
_symmetry_group_IT_number 71
_symmetry_cell_setting 'orthorhombic'
loop_
_space_group_symop_operation_xyz
x,y,z
-x,-y,z
x,-y,-z
-x,y,-z
-x,-y,-z
x,y,-z
-x,y,z
x,-y,z
1/2+x,1/2+y,1/2+z
1/2-x,1/2-y,1/2+z
1/2+x,1/2-y,1/2-z
1/2-x,1/2+y,1/2-z
1/2-x,1/2-y,1/2-z
1/2+x,1/2+y,1/2-z
1/2-x,1/2+y,1/2+z
1/2+x,1/2-y,1/2+z
loop_
_atom_site_type_symbol
_atom_site_label
_atom_site_fract_x
_atom_site_fract_y
_atom_site_fract_z
Si Si1 0.699614 0.184226 0.248384
Si Si2 0.140404 0.314976 0.092397
Si Si3 0.644082 0.683372 0.906937
Si Si4 0.550874 0.317106 0.663710
Si Si5 0.448928 0.183699 0.850407
O O1 0.750000 0.250000 0.250000
O O2 0.672359 0.235111 0.331416
O O3 0.672657 0.240076 0.166823
O O4 0.701191 0.000000 0.248550
O O5 0.136634 0.500000 0.096850
O O6 0.090956 0.243944 0.106499
O O7 0.157741 0.274394 0.000000
O O8 0.646784 0.500000 0.897991
O O9 0.591986 0.735530 0.897671
O O10 0.660366 0.725533 0.000000
O O11 0.500000 0.287095 0.631320
O O12 0.555479 0.500000 0.676234
O O13 0.554858 0.234338 0.753540
O O14 0.500000 0.224674 0.878556
O O15 0.443955 0.000000 0.856484
#
# Coordination Sequence:
#
# PCOD9521725 Si02
#       5
#    16  16  16  16  16
#     4  11  24  43  67  92 121 159 200 252 312 367
#     4  10  22  40  62  89 121 159 202 246 298 362
#     4  11  24  41  63  92 126 163 204 253 307 362
#     4  10  20  34  56  87 123 162 203 247 296 353
#     4  10  20  35  58  88 123 164 207 250 300 360
#
# _framework density 19.459244000000002
#
# number of rings (size 3 to 8) (size 9 to 14) (size 15 to 20)
#    0.000    1.600    2.000    2.400    0.000    6.800 
#    0.000    6.000    0.000    0.000    0.000    0.000 
#    0.000    0.000    0.000    0.000    0.000    0.000 
#
# Total GULP energy -223526.720090 kJ/mol
# GULP energy per Si atom -5588.168002 kJ/mol
# Density = 1.941495 g / cm^3
# Si number density = 19.459244 Si / 1000 Ang^3
#
#
#
# Elastic Constant Matrix: (Units=GPa)
#
#
# Indices 1 2 3 4 5 6 
#
# 1 126.1847 34.7939 78.1206 0.0000 0.0000 0.0000
# 2 34.7939 38.0910 41.0013 0.0000 0.0000 0.0000
# 3 78.1206 41.0013 145.0633 0.0000 0.0000 0.0000
# 4 0.0000 0.0000 0.0000 25.6184 0.0000 0.0000
# 5 0.0000 0.0000 0.0000 0.0000 -2.2228 0.0000
# 6 0.0000 0.0000 0.0000 0.0000 0.0000 37.3930
#
#
#
# Elastic Compliance Matrix: (Units=1/GPa)
#
#
# Indices 1 2 3 4 5 6 
#
# 1 0.012818 -0.006149 -0.005165 0.000000 0.000000 0.000000
# 2 -0.006149 0.040683 -0.008187 0.000000 0.000000 0.000000
# 3 -0.005165 -0.008187 0.011989 0.000000 0.000000 0.000000
# 4 0.000000 0.000000 0.000000 0.039034 0.000000 0.000000
# 5 0.000000 0.000000 0.000000 0.000000 -0.449884 0.000000
# 6 0.000000 0.000000 0.000000 0.000000 0.000000 0.026743
#
#
# Mechanical properties :
#
#
# Convention : Reuss Voigt Hill
#
# Bulk Modulus (GPa) = 37.75398 68.57451 53.16424
# Shear Modulus (GPa) = -18.46480 22.51926 2.02723
#
# Velocity S-wave (km/s) = -3.08376 3.40553 1.02178
# Velocity P-wave (km/s) = 2.60082 7.12602 5.36397
#
# Compressibility (1/GPa) = 0.02648727
#
# Stress axis : x y z
#
# Youngs Moduli (GPa) = 78.01570 24.58059 83.40954
#
# Poissons Ratio (x) = 0.15115 0.43080
# Poissons Ratio (y) = 0.47972 0.68290
# Poissons Ratio (z) = 0.40294 0.20125
#
# Static dielectric constant tensor:
#      x y z
#    x 1.658360 0.000000 0.000000 
#    y 0.000000 1.650630 0.000000 
#    z 0.000000 0.000000 1.694090 
# 
# From -- ./inp_files/49127.got.cif
#   From: 2010.05.17/outbox.cif.g08.bks.cpg/sg71_25_cif.got.tgz:49127.got - 2010.06.03 16:22:01.
