data_PCOD9521397
_publ_section_title
;
Structure prediction by ZEFSAII (Michael W. Deem and Ramdas Pophale) SiO2 
 PCOD9521397
Probable space group: I M M M
;
_chemical_formula_sum "Si O2"
_cell_formula_units_Z 88
_cell_length_a 31.064467
_cell_length_b 9.087323
_cell_length_c 18.100682
_cell_angle_alpha 90.000000
_cell_angle_beta 90.000000
_cell_angle_gamma 90.000000
_cell_volume 5109.693026
_symmetry_space_group_name_H-M "I M M M"
_symmetry_group_IT_number 71
_symmetry_cell_setting 'orthorhombic'
loop_
_space_group_symop_operation_xyz
x,y,z
-x,-y,z
x,-y,-z
-x,y,-z
-x,-y,-z
x,y,-z
-x,y,z
x,-y,z
1/2+x,1/2+y,1/2+z
1/2-x,1/2-y,1/2+z
1/2+x,1/2-y,1/2-z
1/2-x,1/2+y,1/2-z
1/2-x,1/2-y,1/2-z
1/2+x,1/2+y,1/2-z
1/2-x,1/2+y,1/2+z
1/2+x,1/2-y,1/2+z
loop_
_atom_site_type_symbol
_atom_site_label
_atom_site_fract_x
_atom_site_fract_y
_atom_site_fract_z
Si Si1 0.500000 0.332971 0.912122
Si Si2 0.295063 0.324310 0.768787
Si Si3 0.114651 0.176680 0.799089
Si Si4 0.549422 0.823492 0.587900
Si Si5 0.418157 0.170974 0.151116
Si Si6 0.173876 0.671785 0.583593
O O1 0.500000 0.500000 0.882971
O O2 0.541329 0.245670 0.885415
O O3 0.500000 0.339092 0.000000
O O4 0.291336 0.500000 0.767543
O O5 0.250000 0.250000 0.750000
O O6 0.334583 0.284007 0.712932
O O7 0.307178 0.269179 0.850854
O O8 0.087122 0.244873 0.866145
O O9 0.093370 0.240877 0.724972
O O10 0.111849 0.000000 0.801661
O O11 0.553563 0.795016 0.500000
O O12 0.500000 0.780459 0.609660
O O13 0.552635 0.000000 0.598717
O O14 0.377410 0.177852 0.096414
O O15 0.425882 0.000000 0.169194
O O16 0.184794 0.716484 0.500000
O O17 0.186694 0.500000 0.593597
#
# Coordination Sequence:
#
# PCOD9521397 Si02
#       6
#     8  16  16  16  16  16
#     4  11  23  35  47  69 104 141 176 219 265 301
#     4  10  21  37  57  81 109 142 180 224 276 329
#     4  10  21  36  55  81 110 140 177 223 274 326
#     4   9  19  36  57  81 110 145 186 230 275 327
#     4  10  20  34  53  75 102 140 181 218 258 309
#     4   9  18  34  56  80 105 135 174 219 266 318
#
# _framework density 17.222169999999998
#
# number of rings (size 3 to 8) (size 9 to 14) (size 15 to 20)
#    0.000    2.273    0.000    3.000    1.273    5.455 
#    0.000    1.818    0.000    1.091    0.000    0.000 
#    0.000    0.000    0.000    0.000    0.000    0.000 
#
# Total GULP energy -245349.007561 kJ/mol
# GULP energy per Si atom -5576.113808 kJ/mol
# Density = 1.718297 g / cm^3
# Si number density = 17.222170 Si / 1000 Ang^3
#
#
#
# Elastic Constant Matrix: (Units=GPa)
#
#
# Indices 1 2 3 4 5 6 
#
# 1 141.8401 72.0702 66.1406 0.0000 0.0000 0.0000
# 2 72.0702 69.0717 43.8700 0.0000 0.0000 0.0000
# 3 66.1406 43.8700 82.8488 0.0000 0.0000 0.0000
# 4 0.0000 0.0000 0.0000 30.4630 0.0000 0.0000
# 5 0.0000 0.0000 0.0000 0.0000 7.4115 0.0000
# 6 0.0000 0.0000 0.0000 0.0000 0.0000 31.3149
#
#
#
# Elastic Compliance Matrix: (Units=1/GPa)
#
#
# Indices 1 2 3 4 5 6 
#
# 1 0.016921 -0.013675 -0.006267 0.000000 0.000000 0.000000
# 2 -0.013675 0.032866 -0.006486 0.000000 0.000000 0.000000
# 3 -0.006267 -0.006486 0.020508 0.000000 0.000000 0.000000
# 4 0.000000 0.000000 0.000000 0.032827 0.000000 0.000000
# 5 0.000000 0.000000 0.000000 0.000000 0.134926 0.000000
# 6 0.000000 0.000000 0.000000 0.000000 0.000000 0.031934
#
#
# Mechanical properties :
#
#
# Convention : Reuss Voigt Hill
#
# Bulk Modulus (GPa) = 57.34509 73.10248 65.22379
# Shear Modulus (GPa) = 15.21371 21.28319 18.24845
#
# Velocity S-wave (km/s) = 2.97539 3.51921 3.25867
# Velocity P-wave (km/s) = 6.72112 7.68453 7.21892
#
# Compressibility (1/GPa) = 0.01743828
#
# Stress axis : x y z
#
# Youngs Moduli (GPa) = 59.09766 30.42672 48.76130
#
# Poissons Ratio (x) = 0.41609 0.30561
# Poissons Ratio (y) = 0.80816 0.31626
# Poissons Ratio (z) = 0.37039 0.19734
#
# Static dielectric constant tensor:
#      x y z
#    x 1.574050 0.000000 0.000000 
#    y 0.000000 1.577360 0.000000 
#    z 0.000000 0.000000 1.567720 
# 
# From -- ./inp_files/8782.got.cif
#   From: 2010.05.17/outbox.cif.g08.bks.cpg/sg71_5_cif.got.tgz:8782.got - 2010.06.03 16:22:01.
