data_PCOD9521107
_publ_section_title
;
Structure prediction by ZEFSAII (Michael W. Deem and Ramdas Pophale) SiO2 
 PCOD9521107
Probable space group: I M M M
;
_chemical_formula_sum "Si O2"
_cell_formula_units_Z 56
_cell_length_a 8.639628
_cell_length_b 10.185717
_cell_length_c 29.435771
_cell_angle_alpha 90.000000
_cell_angle_beta 90.000000
_cell_angle_gamma 90.000000
_cell_volume 2590.371567
_symmetry_space_group_name_H-M "I M M M"
_symmetry_group_IT_number 71
_symmetry_cell_setting 'orthorhombic'
loop_
_space_group_symop_operation_xyz
x,y,z
-x,-y,z
x,-y,-z
-x,y,-z
-x,-y,-z
x,y,-z
-x,y,z
x,-y,z
1/2+x,1/2+y,1/2+z
1/2-x,1/2-y,1/2+z
1/2+x,1/2-y,1/2-z
1/2-x,1/2+y,1/2-z
1/2-x,1/2-y,1/2-z
1/2+x,1/2+y,1/2-z
1/2-x,1/2+y,1/2+z
1/2+x,1/2-y,1/2+z
loop_
_atom_site_type_symbol
_atom_site_label
_atom_site_fract_x
_atom_site_fract_y
_atom_site_fract_z
Si Si1 0.686319 0.783895 0.354817
Si Si2 0.186548 0.500000 0.782580
Si Si3 0.183713 0.784161 0.551414
Si Si4 0.813874 0.000000 0.818865
Si Si5 0.826856 0.000000 0.946771
O O1 0.500000 0.784328 0.357570
O O2 0.733565 0.873851 0.312381
O O3 0.746614 0.842509 0.402476
O O4 0.736127 0.634074 0.343918
O O5 0.254100 0.500000 0.732482
O O6 0.000000 0.500000 0.779371
O O7 0.238924 0.821724 0.500000
O O8 0.231060 0.632247 0.559228
O O9 0.000000 0.801187 0.551415
O O10 0.000000 0.000000 0.817144
O O11 0.000000 0.000000 0.924554
O O12 0.854546 0.000000 0.000000
#
# Coordination Sequence:
#
# PCOD9521107 Si02
#       5
#    16   8  16   8   8
#     4  10  21  37  57  83 113 147 188 231 279 338
#     4  10  22  39  58  82 113 146 184 233 286 339
#     4  10  20  33  51  79 113 148 189 235 279 327
#     4  10  21  37  59  85 110 140 183 231 281 341
#     4   9  16  27  46  72 104 143 182 223 274 325
#
# _framework density 21.61852
#
# number of rings (size 3 to 8) (size 9 to 14) (size 15 to 20)
#    0.000    2.143    0.000    3.000    0.000    6.857 
#    0.000    0.714    0.000    4.286    0.000    0.000 
#    0.000    0.000    0.000    0.000    0.000    0.000 
#
# Total GULP energy -156174.391235 kJ/mol
# GULP energy per Si atom -5577.656830 kJ/mol
# Density = 2.156932 g / cm^3
# Si number density = 21.618520 Si / 1000 Ang^3
#
#
#
# Elastic Constant Matrix: (Units=GPa)
#
#
# Indices 1 2 3 4 5 6 
#
# 1 18.3126 13.0264 35.3592 0.0000 0.0000 0.0000
# 2 13.0264 96.0089 49.8703 0.0000 0.0000 0.0000
# 3 35.3592 49.8703 243.9704 0.0000 0.0000 0.0000
# 4 0.0000 0.0000 0.0000 167.3654 0.0000 0.0000
# 5 0.0000 0.0000 0.0000 0.0000 40.9016 0.0000
# 6 0.0000 0.0000 0.0000 0.0000 0.0000 3.5269
#
#
#
# Elastic Compliance Matrix: (Units=1/GPa)
#
#
# Indices 1 2 3 4 5 6 
#
# 1 0.078149 -0.005281 -0.010247 0.000000 0.000000 0.000000
# 2 -0.005281 0.012010 -0.001690 0.000000 0.000000 0.000000
# 3 -0.010247 -0.001690 0.005929 0.000000 0.000000 0.000000
# 4 0.000000 0.000000 0.000000 0.005975 0.000000 0.000000
# 5 0.000000 0.000000 0.000000 0.000000 0.024449 0.000000
# 6 0.000000 0.000000 0.000000 0.000000 0.000000 0.283535
#
#
# Mechanical properties :
#
#
# Convention : Reuss Voigt Hill
#
# Bulk Modulus (GPa) = 16.21962 61.64486 38.93224
# Shear Modulus (GPa) = 10.75195 59.69450 35.22322
#
# Velocity S-wave (km/s) = 2.23255 5.26048 4.04085
# Velocity P-wave (km/s) = 3.76360 8.09157 6.31024
#
# Compressibility (1/GPa) = 0.06165372
#
# Stress axis : x y z
#
# Youngs Moduli (GPa) = 12.79611 83.26525 168.65293
#
# Poissons Ratio (x) = 0.43969 1.72817
# Poissons Ratio (y) = 0.06757 0.28496
# Poissons Ratio (z) = 0.13112 0.14069
#
# Static dielectric constant tensor:
#      x y z
#    x 1.740520 0.000000 0.000000 
#    y 0.000000 1.999580 0.000000 
#    z 0.000000 0.000000 1.811820 
# 
# From -- ./inp_files/14019.got.cif
#   From: 2010.05.17/outbox.cif.g08.bks.cpg/sg71_8_cif.got.tgz:14019.got - 2010.06.03 16:22:01.
