data_PCOD9521459
_publ_section_title
;
Structure prediction by ZEFSAII (Michael W. Deem and Ramdas Pophale) SiO2 
 PCOD9521459
Probable space group: I M M M
;
_chemical_formula_sum "Si O2"
_cell_formula_units_Z 96
_cell_length_a 28.411739
_cell_length_b 9.162821
_cell_length_c 19.857055
_cell_angle_alpha 90.000000
_cell_angle_beta 90.000000
_cell_angle_gamma 90.000000
_cell_volume 5169.420463
_symmetry_space_group_name_H-M "I M M M"
_symmetry_group_IT_number 71
_symmetry_cell_setting 'orthorhombic'
loop_
_space_group_symop_operation_xyz
x,y,z
-x,-y,z
x,-y,-z
-x,y,-z
-x,-y,-z
x,y,-z
-x,y,z
x,-y,z
1/2+x,1/2+y,1/2+z
1/2-x,1/2-y,1/2+z
1/2+x,1/2-y,1/2-z
1/2-x,1/2+y,1/2-z
1/2-x,1/2-y,1/2-z
1/2+x,1/2+y,1/2-z
1/2-x,1/2+y,1/2+z
1/2+x,1/2-y,1/2+z
loop_
_atom_site_type_symbol
_atom_site_label
_atom_site_fract_x
_atom_site_fract_y
_atom_site_fract_z
Si Si1 0.207876 0.829265 0.290314
Si Si2 0.272095 0.174773 0.923004
Si Si3 0.057387 0.831292 0.425028
Si Si4 0.881735 0.830802 0.808002
Si Si5 0.556588 0.834611 0.207745
Si Si6 0.829057 0.670021 0.922118
O O1 0.250000 0.750000 0.250000
O O2 0.200585 0.752156 0.362347
O O3 0.161884 0.819885 0.244077
O O4 0.219378 0.000000 0.300061
O O5 0.219005 0.237314 0.915714
O O6 0.271975 0.000000 0.914589
O O7 0.287517 0.208090 0.000000
O O8 0.072651 0.785232 0.500000
O O9 0.073027 0.731767 0.363572
O O10 0.000000 0.829573 0.425330
O O11 0.071476 0.000000 0.414281
O O12 0.925439 0.764720 0.768129
O O13 0.867179 0.737382 0.872497
O O14 0.888342 0.000000 0.825359
O O15 0.500000 0.835943 0.206442
O O16 0.573768 0.000000 0.215815
O O17 0.819699 0.500000 0.906127
O O18 0.843762 0.678666 0.000000
#
# Coordination Sequence:
#
# PCOD9521459 Si02
#       6
#    16  16  16  16  16  16
#     4  11  22  35  54  80 110 144 181 224 272 323
#     4  10  20  34  53  78 110 148 187 226 270 322
#     4   8  14  27  49  75 102 134 173 217 265 318
#     4  11  23  37  56  82 110 145 185 225 273 328
#     4  10  21  36  55  80 109 142 182 230 281 330
#     4  10  20  34  55  82 110 142 180 223 270 322
#
# _framework density 18.570747000000001
#
# number of rings (size 3 to 8) (size 9 to 14) (size 15 to 20)
#    0.000    2.000    1.667    3.000    0.000    5.333 
#    0.000    2.500    0.000    1.500    0.000    3.500 
#    0.000    0.000    0.000    0.000    0.000    0.000 
#
# Total GULP energy -268027.319397 kJ/mol
# GULP energy per Si atom -5583.902487 kJ/mol
# Density = 1.852848 g / cm^3
# Si number density = 18.570747 Si / 1000 Ang^3
#
#
#
# Elastic Constant Matrix: (Units=GPa)
#
#
# Indices 1 2 3 4 5 6 
#
# 1 15.4127 14.6273 10.1806 0.0000 0.0000 0.0000
# 2 14.6273 105.8426 52.0236 0.0000 0.0000 0.0000
# 3 10.1806 52.0236 95.1677 0.0000 0.0000 0.0000
# 4 0.0000 0.0000 0.0000 38.5928 0.0000 0.0000
# 5 0.0000 0.0000 0.0000 0.0000 19.9080 0.0000
# 6 0.0000 0.0000 0.0000 0.0000 0.0000 20.9284
#
#
#
# Elastic Compliance Matrix: (Units=1/GPa)
#
#
# Indices 1 2 3 4 5 6 
#
# 1 0.075399 -0.008827 -0.003240 0.000000 0.000000 0.000000
# 2 -0.008827 0.013953 -0.006683 0.000000 0.000000 0.000000
# 3 -0.003240 -0.006683 0.014508 0.000000 0.000000 0.000000
# 4 0.000000 0.000000 0.000000 0.025912 0.000000 0.000000
# 5 0.000000 0.000000 0.000000 0.000000 0.050231 0.000000
# 6 0.000000 0.000000 0.000000 0.000000 0.000000 0.047782
#
#
# Mechanical properties :
#
#
# Convention : Reuss Voigt Hill
#
# Bulk Modulus (GPa) = 15.06971 41.12067 28.09519
# Shear Modulus (GPa) = 17.39704 25.19195 21.29449
#
# Velocity S-wave (km/s) = 3.06404 3.68712 3.38992
# Velocity P-wave (km/s) = 4.54424 6.34959 5.52120
#
# Compressibility (1/GPa) = 0.06635830
#
# Stress axis : x y z
#
# Youngs Moduli (GPa) = 13.26271 71.67061 68.92901
#
# Poissons Ratio (x) = 0.63266 0.22336
# Poissons Ratio (y) = 0.11707 0.46065
# Poissons Ratio (z) = 0.04298 0.47897
#
# Static dielectric constant tensor:
#      x y z
#    x 1.647540 0.000000 0.000000 
#    y 0.000000 1.630080 0.000000 
#    z 0.000000 0.000000 1.643220 
# 
# From -- ./inp_files/50811.got.cif
#   From: 2010.05.17/outbox.cif.g08.bks.cpg/sg71_26_cif.got.tgz:50811.got - 2010.06.03 16:22:01.
