data_PCOD9521342
_publ_section_title
;
Structure prediction by ZEFSAII (Michael W. Deem and Ramdas Pophale) SiO2 
 PCOD9521342
Probable space group: I M M M
;
_chemical_formula_sum "Si O2"
_cell_formula_units_Z 88
_cell_length_a 25.009867
_cell_length_b 15.585443
_cell_length_c 13.356666
_cell_angle_alpha 90.000000
_cell_angle_beta 90.000000
_cell_angle_gamma 90.000000
_cell_volume 5206.292924
_symmetry_space_group_name_H-M "I M M M"
_symmetry_group_IT_number 71
_symmetry_cell_setting 'orthorhombic'
loop_
_space_group_symop_operation_xyz
x,y,z
-x,-y,z
x,-y,-z
-x,y,-z
-x,-y,-z
x,y,-z
-x,y,z
x,-y,z
1/2+x,1/2+y,1/2+z
1/2-x,1/2-y,1/2+z
1/2+x,1/2-y,1/2-z
1/2-x,1/2+y,1/2-z
1/2-x,1/2-y,1/2-z
1/2+x,1/2+y,1/2-z
1/2-x,1/2+y,1/2+z
1/2+x,1/2-y,1/2+z
loop_
_atom_site_type_symbol
_atom_site_label
_atom_site_fract_x
_atom_site_fract_y
_atom_site_fract_z
Si Si1 0.759048 0.901636 0.617145
Si Si2 0.062535 0.174182 0.220497
Si Si3 0.065185 0.000000 0.885513
Si Si4 0.562175 0.853843 0.383479
Si Si5 0.657152 0.903902 0.760165
Si Si6 0.146225 0.232732 0.381652
O O1 0.743837 0.893134 0.500000
O O2 0.707608 0.890514 0.686802
O O3 0.804039 0.830981 0.638526
O O4 0.778973 0.000000 0.630876
O O5 0.066731 0.252215 0.141184
O O6 0.096621 0.198342 0.317125
O O7 0.000000 0.165445 0.245919
O O8 0.081809 0.085984 0.171236
O O9 0.000000 0.000000 0.887679
O O10 0.083669 0.000000 0.000000
O O11 0.574206 0.870855 0.500000
O O12 0.500000 0.878025 0.365279
O O13 0.603974 0.896848 0.308431
O O14 0.657068 0.828397 0.841189
O O15 0.660300 0.000000 0.802657
O O16 0.136070 0.232378 0.500000
#
# Coordination Sequence:
#
# PCOD9521342 Si02
#       6
#    16  16   8  16  16  16
#     4   9  18  33  54  78 100 124 160 206 257 311
#     4   9  18  31  48  73 103 136 171 206 248 298
#     4   9  16  28  49  75 103 135 168 202 248 307
#     4   9  17  30  49  74 104 132 159 199 253 310
#     4  10  20  34  52  74  99 131 168 210 255 300
#     4  10  21  35  52  73  99 136 176 212 249 291
#
# _framework density 16.902622000000001
#
# number of rings (size 3 to 8) (size 9 to 14) (size 15 to 20)
#    0.000    2.636    0.000    1.636    1.273    4.364 
#    0.000    0.909    0.000    2.727    0.000    5.091 
#    0.000    0.000    0.000    0.000    0.000    0.000 
#
# Total GULP energy -245321.433616 kJ/mol
# GULP energy per Si atom -5575.487128 kJ/mol
# Density = 1.686415 g / cm^3
# Si number density = 16.902622 Si / 1000 Ang^3
#
#
#
# Elastic Constant Matrix: (Units=GPa)
#
#
# Indices 1 2 3 4 5 6 
#
# 1 47.8390 36.0615 37.3255 0.0000 0.0000 0.0000
# 2 36.0615 118.7595 50.7324 0.0000 0.0000 0.0000
# 3 37.3255 50.7324 80.3079 0.0000 0.0000 0.0000
# 4 0.0000 0.0000 0.0000 14.4782 0.0000 0.0000
# 5 0.0000 0.0000 0.0000 0.0000 20.1617 0.0000
# 6 0.0000 0.0000 0.0000 0.0000 0.0000 22.3849
#
#
#
# Elastic Compliance Matrix: (Units=1/GPa)
#
#
# Indices 1 2 3 4 5 6 
#
# 1 0.034850 -0.005017 -0.013029 0.000000 0.000000 0.000000
# 2 -0.005017 0.012255 -0.005410 0.000000 0.000000 0.000000
# 3 -0.013029 -0.005410 0.021925 0.000000 0.000000 0.000000
# 4 0.000000 0.000000 0.000000 0.069069 0.000000 0.000000
# 5 0.000000 0.000000 0.000000 0.000000 0.049599 0.000000
# 6 0.000000 0.000000 0.000000 0.000000 0.000000 0.044673
#
#
# Mechanical properties :
#
#
# Convention : Reuss Voigt Hill
#
# Bulk Modulus (GPa) = 45.20846 55.01613 50.11230
# Shear Modulus (GPa) = 17.44255 19.59077 18.51666
#
# Velocity S-wave (km/s) = 3.21587 3.40816 3.31341
# Velocity P-wave (km/s) = 6.37131 6.93592 6.65960
#
# Compressibility (1/GPa) = 0.02211975
#
# Stress axis : x y z
#
# Youngs Moduli (GPa) = 28.69402 81.60088 45.60985
#
# Poissons Ratio (x) = 0.40937 0.59423
# Poissons Ratio (y) = 0.14395 0.24675
# Poissons Ratio (z) = 0.37384 0.44146
#
# Static dielectric constant tensor:
#      x y z
#    x 1.555150 0.000000 0.000000 
#    y 0.000000 1.584680 0.000000 
#    z 0.000000 0.000000 1.530110 
# 
# From -- ./inp_files/21997.got.cif
#   From: 2010.05.17/outbox.cif.g08.bks.cpg/sg71_11_cif.got.tgz:21997.got - 2010.06.03 16:22:01.
