data_PCOD9521910
_publ_section_title
;
Structure prediction by ZEFSAII (Michael W. Deem and Ramdas Pophale) SiO2 
 PCOD9521910
Probable space group: I M M M
;
_chemical_formula_sum "Si O2"
_cell_formula_units_Z 112
_cell_length_a 25.902335
_cell_length_b 15.529832
_cell_length_c 14.507546
_cell_angle_alpha 90.000000
_cell_angle_beta 90.000000
_cell_angle_gamma 90.000000
_cell_volume 5835.789655
_symmetry_space_group_name_H-M "I M M M"
_symmetry_group_IT_number 71
_symmetry_cell_setting 'orthorhombic'
loop_
_space_group_symop_operation_xyz
x,y,z
-x,-y,z
x,-y,-z
-x,y,-z
-x,-y,-z
x,y,-z
-x,y,z
x,-y,z
1/2+x,1/2+y,1/2+z
1/2-x,1/2-y,1/2+z
1/2+x,1/2-y,1/2-z
1/2-x,1/2+y,1/2-z
1/2-x,1/2-y,1/2-z
1/2+x,1/2+y,1/2-z
1/2-x,1/2+y,1/2+z
1/2+x,1/2-y,1/2+z
loop_
_atom_site_type_symbol
_atom_site_label
_atom_site_fract_x
_atom_site_fract_y
_atom_site_fract_z
Si Si1 0.594603 0.731891 0.604153
Si Si2 0.441100 0.725420 0.803858
Si Si3 0.255067 0.349771 0.224643
Si Si4 0.644012 0.398132 0.890193
Si Si5 0.687155 0.595454 0.603333
Si Si6 0.158169 0.596766 0.894772
Si Si7 0.437364 0.904403 0.107867
O O1 0.573935 0.718165 0.500000
O O2 0.560123 0.716941 0.693361
O O3 0.643953 0.668541 0.615291
O O4 0.615462 0.829378 0.610675
O O5 0.500000 0.715482 0.837244
O O6 0.403128 0.655777 0.848030
O O7 0.421781 0.821040 0.833665
O O8 0.250000 0.250000 0.250000
O O9 0.303352 0.366144 0.157155
O O10 0.269628 0.395855 0.319783
O O11 0.203774 0.383388 0.175951
O O12 0.638400 0.500000 0.871115
O O13 0.646150 0.386020 0.000000
O O14 0.708314 0.604984 0.500000
O O15 0.663314 0.500000 0.610778
O O16 0.138168 0.500000 0.881077
O O17 0.179307 0.601617 0.000000
O O18 0.500000 0.906717 0.111733
O O19 0.419071 0.000000 0.137531
O O20 0.423347 0.892617 0.000000
#
# Coordination Sequence:
#
# PCOD9521910 Si02
#       7
#    16  16  16  16  16  16  16
#     4  10  21  38  56  81 113 147 193 243 292 347
#     4  11  22  37  58  85 115 154 203 251 298 348
#     4  12  21  35  58  86 118 150 188 235 281 339
#     4  11  24  40  59  87 123 160 196 239 293 352
#     4  10  20  35  56  78 106 146 188 231 278 330
#     4  10  20  35  57  83 113 150 186 227 285 351
#     4   8  15  30  53  79 105 136 179 232 289 348
#
# _framework density 19.191918000000001
#
# number of rings (size 3 to 8) (size 9 to 14) (size 15 to 20)
#    0.000    1.714    2.857    2.571    0.000    3.714 
#    0.000    0.714    0.000    0.000    0.000   11.000 
#    0.000    0.000    0.000    0.000    0.000    0.000 
#
# Total GULP energy -312550.617045 kJ/mol
# GULP energy per Si atom -5581.261019 kJ/mol
# Density = 1.914824 g / cm^3
# Si number density = 19.191918 Si / 1000 Ang^3
#
#
#
# Elastic Constant Matrix: (Units=GPa)
#
#
# Indices 1 2 3 4 5 6 
#
# 1 30.4927 15.1774 20.9814 0.0000 0.0000 0.0000
# 2 15.1774 125.5842 41.7309 0.0000 0.0000 0.0000
# 3 20.9814 41.7309 102.4959 0.0000 0.0000 0.0000
# 4 0.0000 0.0000 0.0000 -0.3696 0.0000 0.0000
# 5 0.0000 0.0000 0.0000 0.0000 20.7602 0.0000
# 6 0.0000 0.0000 0.0000 0.0000 0.0000 6.8681
#
#
#
# Elastic Compliance Matrix: (Units=1/GPa)
#
#
# Indices 1 2 3 4 5 6 
#
# 1 0.038771 -0.002369 -0.006972 0.000000 0.000000 0.000000
# 2 -0.002369 0.009353 -0.003323 0.000000 0.000000 0.000000
# 3 -0.006972 -0.003323 0.012537 0.000000 0.000000 0.000000
# 4 0.000000 0.000000 0.000000 -2.705703 0.000000 0.000000
# 5 0.000000 0.000000 0.000000 0.000000 0.048169 0.000000
# 6 0.000000 0.000000 0.000000 0.000000 0.000000 0.145601
#
#
# Mechanical properties :
#
#
# Convention : Reuss Voigt Hill
#
# Bulk Modulus (GPa) = 28.30235 46.03916 37.17075
# Shear Modulus (GPa) = -2.07111 17.49727 7.71308
#
# Velocity S-wave (km/s) = -1.03995 3.02271 2.00690
# Velocity P-wave (km/s) = 3.65199 6.01858 4.97797
#
# Compressibility (1/GPa) = 0.03533276
#
# Stress axis : x y z
#
# Youngs Moduli (GPa) = 25.79230 106.91322 79.76525
#
# Poissons Ratio (x) = 0.25326 0.55614
# Poissons Ratio (y) = 0.06110 0.26508
# Poissons Ratio (z) = 0.17983 0.35530
#
# Static dielectric constant tensor:
#      x y z
#    x 1.637540 0.000000 0.000000 
#    y 0.000000 1.686350 0.000000 
#    z 0.000000 0.000000 1.688780 
# 
# From -- ./inp_files/35131.got.cif
#   From: 2010.05.17/outbox.cif.g08.bks.cpg/sg71_18_cif.got.tgz:35131.got - 2010.06.03 16:22:01.
