data_PCOD9521755
_publ_section_title
;
Structure prediction by ZEFSAII (Michael W. Deem and Ramdas Pophale) SiO2 
 PCOD9521755
Probable space group: I M M M
;
_chemical_formula_sum "Si O2"
_cell_formula_units_Z 82
_cell_length_a 7.682419
_cell_length_b 22.483329
_cell_length_c 24.543839
_cell_angle_alpha 90.000000
_cell_angle_beta 90.000000
_cell_angle_gamma 90.000000
_cell_volume 4239.367821
_symmetry_space_group_name_H-M "I M M M"
_symmetry_group_IT_number 71
_symmetry_cell_setting 'orthorhombic'
loop_
_space_group_symop_operation_xyz
x,y,z
-x,-y,z
x,-y,-z
-x,y,-z
-x,-y,-z
x,y,-z
-x,y,z
x,-y,z
1/2+x,1/2+y,1/2+z
1/2-x,1/2-y,1/2+z
1/2+x,1/2-y,1/2-z
1/2-x,1/2+y,1/2-z
1/2-x,1/2-y,1/2-z
1/2+x,1/2+y,1/2-z
1/2-x,1/2+y,1/2+z
1/2+x,1/2-y,1/2+z
loop_
_atom_site_type_symbol
_atom_site_label
_atom_site_fract_x
_atom_site_fract_y
_atom_site_fract_z
Si Si1 0.204060 0.852447 0.880447
Si Si2 0.795316 0.129444 0.647254
Si Si3 0.310271 0.000000 0.386824
Si Si4 0.000000 0.570679 0.564524
Si Si5 0.208867 0.819126 0.240617
Si Si6 0.500000 0.000000 0.500000
Si Si7 0.287986 0.271794 0.062704
O O1 0.329782 0.899449 0.909082
O O2 0.268133 0.841000 0.818520
O O3 0.222666 0.789824 0.912054
O O4 0.000000 0.869749 0.880499
O O5 0.776384 0.061297 0.630500
O O6 0.722857 0.145018 0.706943
O O7 0.725741 0.173825 0.600708
O O8 0.000000 0.142975 0.650351
O O9 0.351123 0.000000 0.451223
O O10 0.500000 0.000000 0.359189
O O11 0.000000 0.500000 0.572490
O O12 0.000000 0.583557 0.500000
O O13 0.250000 0.750000 0.250000
O O14 0.000000 0.824862 0.238642
O O15 0.500000 0.269956 0.063250
O O16 0.233595 0.279103 0.000000
#
# Coordination Sequence:
#
# PCOD9521755 Si02
#       7
#    16  16   8   8  16   2  16
#     4  11  23  41  65  98 133 168 210 267 333 388
#     4  10  21  39  61  87 120 165 216 264 316 377
#     4  10  23  41  57  81 121 168 210 265 317 376
#     4  11  26  48  71  95 128 171 220 271 324 395
#     4  10  21  37  62  93 127 164 209 263 322 387
#     4   8  24  44  58  76 128 172 214 272 320 372
#     4  10  20  34  58  91 124 160 205 263 319 379
#
# _framework density 19.342507000000001
#
# number of rings (size 3 to 8) (size 9 to 14) (size 15 to 20)
#    0.293    1.463    2.927    0.878    2.732    3.512 
#    1.756    1.463    0.000    0.000    0.000    0.000 
#    0.000    0.000    0.000    0.000    0.000    0.000 
#
# Total GULP energy -228591.514296 kJ/mol
# GULP energy per Si atom -5575.402788 kJ/mol
# Density = 1.929848 g / cm^3
# Si number density = 19.342507 Si / 1000 Ang^3
#
#
#
# Elastic Constant Matrix: (Units=GPa)
#
#
# Indices 1 2 3 4 5 6 
#
# 1 62.5715 26.0127 43.5833 0.0000 0.0000 0.0000
# 2 26.0127 120.3014 102.2510 0.0000 0.0000 0.0000
# 3 43.5833 102.2510 207.6748 0.0000 0.0000 0.0000
# 4 0.0000 0.0000 0.0000 19.3339 0.0000 0.0000
# 5 0.0000 0.0000 0.0000 0.0000 21.8730 0.0000
# 6 0.0000 0.0000 0.0000 0.0000 0.0000 3.0364
#
#
#
# Elastic Compliance Matrix: (Units=1/GPa)
#
#
# Indices 1 2 3 4 5 6 
#
# 1 0.018822 -0.001225 -0.003347 0.000000 0.000000 0.000000
# 2 -0.001225 0.014374 -0.006820 0.000000 0.000000 0.000000
# 3 -0.003347 -0.006820 0.008876 0.000000 0.000000 0.000000
# 4 0.000000 0.000000 0.000000 0.051723 0.000000 0.000000
# 5 0.000000 0.000000 0.000000 0.000000 0.045719 0.000000
# 6 0.000000 0.000000 0.000000 0.000000 0.000000 0.329338
#
#
# Mechanical properties :
#
#
# Convention : Reuss Voigt Hill
#
# Bulk Modulus (GPa) = 51.84691 81.58243 66.71467
# Shear Modulus (GPa) = 10.03885 23.42870 16.73378
#
# Velocity S-wave (km/s) = 2.28064 3.48408 2.94450
# Velocity P-wave (km/s) = 5.81360 7.64555 6.79163
#
# Compressibility (1/GPa) = 0.01928755
#
# Stress axis : x y z
#
# Youngs Moduli (GPa) = 53.12850 69.56878 112.66855
#
# Poissons Ratio (x) = 0.08524 0.37708
# Poissons Ratio (y) = 0.06510 0.76842
# Poissons Ratio (z) = 0.17781 0.47447
#
# Static dielectric constant tensor:
#      x y z
#    x 1.716740 0.000000 0.000000 
#    y 0.000000 1.684390 0.000000 
#    z 0.000000 0.000000 1.689490 
# 
# From -- ./inp_files/57480.got.cif
#   From: 2010.05.17/outbox.cif.g08.bks.cpg/sg71_29_cif.got.tgz:57480.got - 2010.06.03 16:22:01.
