data_PCOD9521286
_publ_section_title
;
Structure prediction by ZEFSAII (Michael W. Deem and Ramdas Pophale) SiO2 
 PCOD9521286
Probable space group: I M M M
;
_chemical_formula_sum "Si O2"
_cell_formula_units_Z 88
_cell_length_a 7.808676
_cell_length_b 28.727952
_cell_length_c 19.966072
_cell_angle_alpha 90.000000
_cell_angle_beta 90.000000
_cell_angle_gamma 90.000000
_cell_volume 4478.934411
_symmetry_space_group_name_H-M "I M M M"
_symmetry_group_IT_number 71
_symmetry_cell_setting 'orthorhombic'
loop_
_space_group_symop_operation_xyz
x,y,z
-x,-y,z
x,-y,-z
-x,y,-z
-x,-y,-z
x,y,-z
-x,y,z
x,-y,z
1/2+x,1/2+y,1/2+z
1/2-x,1/2-y,1/2+z
1/2+x,1/2-y,1/2-z
1/2-x,1/2+y,1/2-z
1/2-x,1/2-y,1/2-z
1/2+x,1/2+y,1/2-z
1/2-x,1/2+y,1/2+z
1/2+x,1/2-y,1/2+z
loop_
_atom_site_type_symbol
_atom_site_label
_atom_site_fract_x
_atom_site_fract_y
_atom_site_fract_z
Si Si1 0.500000 0.943023 0.923471
Si Si2 0.699266 0.444175 0.326040
Si Si3 0.196569 0.299222 0.281661
Si Si4 0.208061 0.162060 0.575323
Si Si5 0.694645 0.612944 0.204196
Si Si6 0.797460 0.229587 0.075199
O O1 0.329697 0.928190 0.883564
O O2 0.500000 0.000000 0.923799
O O3 0.500000 0.927268 0.000000
O O4 0.500000 0.429050 0.335596
O O5 0.699033 0.500000 0.325668
O O6 0.766801 0.425130 0.254926
O O7 0.250000 0.250000 0.250000
O O8 0.304563 0.339867 0.247981
O O9 0.216686 0.296125 0.361590
O O10 0.000000 0.308434 0.264474
O O11 0.256065 0.148098 0.500000
O O12 0.273113 0.128011 0.633422
O O13 0.269269 0.215002 0.585723
O O14 0.000000 0.163611 0.579463
O O15 0.500000 0.597809 0.190140
O O16 0.000000 0.220620 0.076581
O O17 0.732456 0.218674 0.000000
#
# Coordination Sequence:
#
# PCOD9521286 Si02
#       6
#     8  16  16  16  16  16
#     4   9  18  34  58  86 113 141 179 225 272 330
#     4   9  19  36  58  84 113 145 181 225 276 326
#     4  12  23  34  51  75 104 138 178 220 265 317
#     4   9  17  30  50  75 103 137 176 218 262 308
#     4  10  20  34  54  79 107 139 178 223 267 318
#     4  10  20  34  51  71  99 134 172 217 264 310
#
# _framework density 19.64753
#
# number of rings (size 3 to 8) (size 9 to 14) (size 15 to 20)
#    0.000    2.091    1.818    2.182    1.273    1.455 
#    0.000    2.727    0.000    1.636    0.000    3.818 
#    0.000    2.182    0.000    0.182    0.000    0.000 
#
# Total GULP energy -245489.005171 kJ/mol
# GULP energy per Si atom -5579.295572 kJ/mol
# Density = 1.960281 g / cm^3
# Si number density = 19.647530 Si / 1000 Ang^3
#
#
#
# Elastic Constant Matrix: (Units=GPa)
#
#
# Indices 1 2 3 4 5 6 
#
# 1 65.3218 6.9709 23.3234 0.0000 0.0000 0.0000
# 2 6.9709 14.4945 16.1205 0.0000 0.0000 0.0000
# 3 23.3234 16.1205 151.6006 -0.0001 0.0000 0.0000
# 4 0.0000 0.0000 -0.0001 28.3198 0.0000 0.0000
# 5 0.0000 0.0000 0.0000 0.0000 20.9756 0.0000
# 6 0.0000 0.0000 0.0000 0.0000 0.0000 10.9422
#
#
#
# Elastic Compliance Matrix: (Units=1/GPa)
#
#
# Indices 1 2 3 4 5 6 
#
# 1 0.016624 -0.005841 -0.001936 0.000000 0.000000 0.000000
# 2 -0.005841 0.080298 -0.007640 0.000000 0.000000 0.000000
# 3 -0.001936 -0.007640 0.007707 0.000000 0.000000 0.000000
# 4 0.000000 0.000000 0.000000 0.035311 0.000000 0.000000
# 5 0.000000 0.000000 0.000000 0.000000 0.047674 0.000000
# 6 0.000000 0.000000 0.000000 0.000000 0.000000 0.091389
#
#
# Mechanical properties :
#
#
# Convention : Reuss Voigt Hill
#
# Bulk Modulus (GPa) = 13.55141 36.02737 24.78939
# Shear Modulus (GPa) = 14.95058 24.38100 19.66579
#
# Velocity S-wave (km/s) = 2.76151 3.52649 3.16718
# Velocity P-wave (km/s) = 4.13281 5.91254 5.10090
#
# Compressibility (1/GPa) = 0.07379304
#
# Stress axis : x y z
#
# Youngs Moduli (GPa) = 60.15550 12.45363 129.75953
#
# Poissons Ratio (x) = 0.07275 0.25126
# Poissons Ratio (y) = 0.35139 0.99134
# Poissons Ratio (z) = 0.11648 0.09514
#
# Static dielectric constant tensor:
#      x y z
#    x 1.711850 0.000000 0.000000 
#    y 0.000000 1.681640 0.000000 
#    z 0.000000 0.000000 1.723420 
# 
# From -- ./inp_files/8778.got.cif
#   From: 2010.05.17/outbox.cif.g08.bks.cpg/sg71_5_cif.got.tgz:8778.got - 2010.06.03 16:22:01.
