data_PCOD9521812
_publ_section_title
;
Structure prediction by ZEFSAII (Michael W. Deem and Ramdas Pophale) SiO2 
 PCOD9521812
Probable space group: I M M M
;
_chemical_formula_sum "Si O2"
_cell_formula_units_Z 104
_cell_length_a 26.853833
_cell_length_b 8.036543
_cell_length_c 24.660706
_cell_angle_alpha 90.000000
_cell_angle_beta 90.000000
_cell_angle_gamma 90.000000
_cell_volume 5322.075879
_symmetry_space_group_name_H-M "I M M M"
_symmetry_group_IT_number 71
_symmetry_cell_setting 'orthorhombic'
loop_
_space_group_symop_operation_xyz
x,y,z
-x,-y,z
x,-y,-z
-x,y,-z
-x,-y,-z
x,y,-z
-x,y,z
x,-y,z
1/2+x,1/2+y,1/2+z
1/2-x,1/2-y,1/2+z
1/2+x,1/2-y,1/2-z
1/2-x,1/2+y,1/2-z
1/2-x,1/2-y,1/2-z
1/2+x,1/2+y,1/2-z
1/2-x,1/2+y,1/2+z
1/2+x,1/2-y,1/2+z
loop_
_atom_site_type_symbol
_atom_site_label
_atom_site_fract_x
_atom_site_fract_y
_atom_site_fract_z
Si Si1 0.820110 0.693597 0.155095
Si Si2 0.359802 0.797658 0.938252
Si Si3 0.108109 0.295619 0.937708
Si Si4 0.290537 0.806002 0.842274
Si Si5 0.056758 0.299413 0.646738
Si Si6 0.870487 0.809940 0.259957
Si Si7 0.000000 0.308019 0.066025
O O1 0.808055 0.500000 0.147143
O O2 0.848752 0.758549 0.102322
O O3 0.767969 0.784046 0.164197
O O4 0.857044 0.710740 0.205945
O O5 0.311584 0.756259 0.901562
O O6 0.407654 0.742261 0.902802
O O7 0.361867 0.000000 0.940830
O O8 0.358791 0.735959 0.000000
O O9 0.106436 0.500000 0.936669
O O10 0.053430 0.234781 0.918879
O O11 0.116145 0.246753 0.000000
O O12 0.321765 0.705524 0.798133
O O13 0.304021 0.000000 0.834226
O O14 0.055599 0.500000 0.644061
O O15 0.084310 0.252003 0.702547
O O16 0.000000 0.238228 0.643592
O O17 0.879029 0.000000 0.244788
O O18 0.000000 0.500000 0.084844
O O19 0.000000 0.311866 0.000000
#
# Coordination Sequence:
#
# PCOD9521812 Si02
#       7
#    16  16  16  16  16  16   8
#     4  11  21  33  51  78 107 134 171 217 265 315
#     4   8  15  29  51  80 110 139 174 215 259 310
#     4   8  15  28  47  72 102 133 165 205 252 303
#     4  10  20  35  54  75 103 138 176 216 261 312
#     4   9  18  34  56  81 110 143 179 220 263 310
#     4  11  22  37  55  74 101 137 178 220 266 314
#     4   7  10  22  44  66  91 125 161 193 230 279
#
# _framework density 19.541246000000001
#
# number of rings (size 3 to 8) (size 9 to 14) (size 15 to 20)
#    0.000    2.692    0.000    4.615    0.000    1.231 
#    1.385    1.538    0.000   12.462    0.000    4.308 
#    0.000    7.385    0.000    0.000    0.000    0.000 
#
# Total GULP energy -289939.393968 kJ/mol
# GULP energy per Si atom -5575.757576 kJ/mol
# Density = 1.949677 g / cm^3
# Si number density = 19.541246 Si / 1000 Ang^3
#
#
#
# Elastic Constant Matrix: (Units=GPa)
#
#
# Indices 1 2 3 4 5 6 
#
# 1 26.4100 0.2616 19.2449 0.0000 0.0000 0.0000
# 2 0.2616 21.9585 -6.1466 0.0000 0.0000 0.0000
# 3 19.2449 -6.1466 82.5068 0.0000 0.0000 0.0000
# 4 0.0000 0.0000 0.0000 -4.5036 0.0000 0.0000
# 5 0.0000 0.0000 0.0000 0.0000 10.9363 0.0000
# 6 0.0000 0.0000 0.0000 0.0000 0.0000 14.0983
#
#
#
# Elastic Compliance Matrix: (Units=1/GPa)
#
#
# Indices 1 2 3 4 5 6 
#
# 1 0.045898 -0.003619 -0.010975 0.000000 0.000000 0.000000
# 2 -0.003619 0.046796 0.004330 0.000000 0.000000 0.000000
# 3 -0.010975 0.004330 0.015003 0.000000 0.000000 0.000000
# 4 0.000000 0.000000 0.000000 -0.222042 0.000000 0.000000
# 5 0.000000 0.000000 0.000000 0.000000 0.091439 0.000000
# 6 0.000000 0.000000 0.000000 0.000000 0.000000 0.070931
#
#
# Mechanical properties :
#
#
# Convention : Reuss Voigt Hill
#
# Bulk Modulus (GPa) = 11.47202 17.51054 14.49128
# Shear Modulus (GPa) = 51.22534 11.94055 31.58294
#
# Velocity S-wave (km/s) = 5.12551 2.47461 4.02458
# Velocity P-wave (km/s) = 6.39619 4.14068 5.38778
#
# Compressibility (1/GPa) = 0.08716857
#
# Stress axis : x y z
#
# Youngs Moduli (GPa) = 21.78740 21.36943 66.65390
#
# Poissons Ratio (x) = 0.07734 0.73156
# Poissons Ratio (y) = 0.07885 -0.28864
# Poissons Ratio (z) = 0.23913 -0.09254
#
# Static dielectric constant tensor:
#      x y z
#    x 1.681660 0.000000 0.000000 
#    y 0.000000 1.699850 0.000000 
#    z 0.000000 0.000000 1.674470 
# 
# From -- ./inp_files/61956.got.cif
#   From: 2010.05.17/outbox.cif.g08.bks.cpg/sg71_31_cif.got.tgz:61956.got - 2010.06.03 16:22:01.
