data_PCOD9521709
_publ_section_title
;
Structure prediction by ZEFSAII (Michael W. Deem and Ramdas Pophale) SiO2 
 PCOD9521709
Probable space group: I M M M
;
_chemical_formula_sum "Si O2"
_cell_formula_units_Z 104
_cell_length_a 22.691648
_cell_length_b 7.931809
_cell_length_c 27.194557
_cell_angle_alpha 90.000000
_cell_angle_beta 90.000000
_cell_angle_gamma 90.000000
_cell_volume 4894.634582
_symmetry_space_group_name_H-M "I M M M"
_symmetry_group_IT_number 71
_symmetry_cell_setting 'orthorhombic'
loop_
_space_group_symop_operation_xyz
x,y,z
-x,-y,z
x,-y,-z
-x,y,-z
-x,-y,-z
x,y,-z
-x,y,z
x,-y,z
1/2+x,1/2+y,1/2+z
1/2-x,1/2-y,1/2+z
1/2+x,1/2-y,1/2-z
1/2-x,1/2+y,1/2-z
1/2-x,1/2-y,1/2-z
1/2+x,1/2+y,1/2-z
1/2-x,1/2+y,1/2+z
1/2+x,1/2-y,1/2+z
loop_
_atom_site_type_symbol
_atom_site_label
_atom_site_fract_x
_atom_site_fract_y
_atom_site_fract_z
Si Si1 0.569250 0.810287 0.500000
Si Si2 0.067907 0.293794 0.553114
Si Si3 0.316680 0.795872 0.234636
Si Si4 0.067213 0.299539 0.204217
Si Si5 0.738825 0.196290 0.443243
Si Si6 0.881076 0.804590 0.101560
Si Si7 0.840580 0.696469 0.626111
O O1 0.500000 0.828655 0.500000
O O2 0.586344 0.716844 0.549683
O O3 0.596932 0.000000 0.500000
O O4 0.093090 0.241333 0.500000
O O5 0.070168 0.500000 0.553870
O O6 0.103244 0.226538 0.599194
O O7 0.000000 0.246122 0.554922
O O8 0.250000 0.750000 0.250000
O O9 0.374316 0.736458 0.266052
O O10 0.324064 0.731730 0.178755
O O11 0.318341 0.000000 0.236587
O O12 0.064670 0.500000 0.213352
O O13 0.082609 0.270453 0.146839
O O14 0.000000 0.233963 0.214659
O O15 0.728764 0.253606 0.500000
O O16 0.680992 0.217023 0.409795
O O17 0.789686 0.292679 0.414548
O O18 0.754729 0.000000 0.444976
O O19 0.870378 0.000000 0.112287
O O20 0.853280 0.500000 0.635628
#
# Coordination Sequence:
#
# PCOD9521709 Si02
#       7
#     8  16  16  16  16  16  16
#     4  11  23  39  59  83 115 153 188 223 274 341
#     4   8  14  26  47  78 114 147 176 216 279 348
#     4  10  22  39  59  85 114 151 198 247 301 354
#     4  10  22  41  63  86 119 163 205 246 299 364
#     4  11  23  38  57  82 117 158 198 239 294 364
#     4  12  24  38  59  87 117 150 194 244 291 339
#     4  10  20  34  56  85 114 145 191 248 297 347
#
# _framework density 21.247755999999999
#
# number of rings (size 3 to 8) (size 9 to 14) (size 15 to 20)
#    0.000    1.769    0.769    4.385    0.000    8.615 
#    0.000    3.077    0.000    0.462    0.000    4.308 
#    0.000    0.000    0.000    0.000    0.000    0.000 
#
# Total GULP energy -290088.450904 kJ/mol
# GULP energy per Si atom -5578.624056 kJ/mol
# Density = 2.119940 g / cm^3
# Si number density = 21.247756 Si / 1000 Ang^3
#
#
#
# Elastic Constant Matrix: (Units=GPa)
#
#
# Indices 1 2 3 4 5 6 
#
# 1 129.9352 -3.0326 90.9035 0.0000 0.0000 0.0000
# 2 -3.0326 28.9663 8.1365 0.0000 0.0000 0.0000
# 3 90.9035 8.1365 129.6731 0.0000 0.0000 0.0000
# 4 0.0000 0.0000 0.0000 20.2344 0.0000 0.0000
# 5 0.0000 0.0000 0.0000 0.0000 30.0909 0.0000
# 6 0.0000 0.0000 0.0000 0.0000 0.0000 16.5298
#
#
#
# Elastic Compliance Matrix: (Units=1/GPa)
#
#
# Indices 1 2 3 4 5 6 
#
# 1 0.015741 0.004833 -0.011338 0.000000 0.000000 0.000000
# 2 0.004833 0.036626 -0.005686 0.000000 0.000000 0.000000
# 3 -0.011338 -0.005686 0.016017 0.000000 0.000000 0.000000
# 4 0.000000 0.000000 0.000000 0.049421 0.000000 0.000000
# 5 0.000000 0.000000 0.000000 0.000000 0.033233 0.000000
# 6 0.000000 0.000000 0.000000 0.000000 0.000000 0.060497
#
#
# Mechanical properties :
#
#
# Convention : Reuss Voigt Hill
#
# Bulk Modulus (GPa) = 22.72668 53.39883 38.06275
# Shear Modulus (GPa) = 19.95341 26.20883 23.08112
#
# Velocity S-wave (km/s) = 3.06777 3.51591 3.29946
# Velocity P-wave (km/s) = 4.82364 6.45510 5.69806
#
# Compressibility (1/GPa) = 0.04400114
#
# Stress axis : x y z
#
# Youngs Moduli (GPa) = 63.52786 27.30304 62.43480
#
# Poissons Ratio (x) = -0.13195 0.70789
# Poissons Ratio (y) = -0.30702 0.35501
# Poissons Ratio (z) = 0.72028 0.15525
#
# Static dielectric constant tensor:
#      x y z
#    x 1.801990 0.000000 0.000000 
#    y 0.000000 1.805450 0.000000 
#    z 0.000000 0.000000 1.826180 
# 
# From -- ./inp_files/66456.got.cif
#   From: 2010.05.17/outbox.cif.g08.bks.cpg/sg71_34_cif.got.tgz:66456.got - 2010.06.03 16:22:01.
