data_PCOD9521743
_publ_section_title
;
Structure prediction by ZEFSAII (Michael W. Deem and Ramdas Pophale) SiO2 
 PCOD9521743
Probable space group: I M M M
;
_chemical_formula_sum "Si O2"
_cell_formula_units_Z 104
_cell_length_a 22.959949
_cell_length_b 27.281217
_cell_length_c 8.531528
_cell_angle_alpha 90.000000
_cell_angle_beta 90.000000
_cell_angle_gamma 90.000000
_cell_volume 5343.938845
_symmetry_space_group_name_H-M "I M M M"
_symmetry_group_IT_number 71
_symmetry_cell_setting 'orthorhombic'
loop_
_space_group_symop_operation_xyz
x,y,z
-x,-y,z
x,-y,-z
-x,y,-z
-x,-y,-z
x,y,-z
-x,y,z
x,-y,z
1/2+x,1/2+y,1/2+z
1/2-x,1/2-y,1/2+z
1/2+x,1/2-y,1/2-z
1/2-x,1/2+y,1/2-z
1/2-x,1/2-y,1/2-z
1/2+x,1/2+y,1/2-z
1/2-x,1/2+y,1/2+z
1/2+x,1/2-y,1/2+z
loop_
_atom_site_type_symbol
_atom_site_label
_atom_site_fract_x
_atom_site_fract_y
_atom_site_fract_z
Si Si1 0.398961 0.943627 0.316186
Si Si2 0.275994 0.058507 0.177407
Si Si3 0.818799 0.297748 0.310571
Si Si4 0.306138 0.316143 0.187300
Si Si5 0.852827 0.088450 0.187945
Si Si6 0.437932 0.845649 0.186729
Si Si7 0.432118 0.500000 0.188019
O O1 0.411964 0.940247 0.500000
O O2 0.331185 0.930866 0.284476
O O3 0.434005 0.903198 0.222474
O O4 0.408591 0.000000 0.266091
O O5 0.212509 0.072589 0.237195
O O6 0.274752 0.000000 0.163709
O O7 0.285092 0.078778 0.000000
O O8 0.816208 0.300502 0.500000
O O9 0.760377 0.323413 0.246686
O O10 0.818810 0.240222 0.267316
O O11 0.878856 0.321234 0.251976
O O12 0.351995 0.355089 0.256834
O O13 0.307246 0.320146 0.000000
O O14 0.898589 0.049017 0.253699
O O15 0.855750 0.086019 0.000000
O O16 0.500000 0.826627 0.248399
O O17 0.437376 0.838178 0.000000
O O18 0.500000 0.500000 0.238826
O O19 0.430639 0.500000 0.000000
#
# Coordination Sequence:
#
# PCOD9521743 Si02
#       7
#    16  16  16  16  16  16   8
#     4  10  21  34  49  75 109 142 176 219 272 320
#     4   9  17  31  50  75 106 140 177 215 259 310
#     4   9  19  37  57  81 114 148 185 234 289 344
#     4  10  20  34  57  88 117 145 182 233 293 347
#     4  11  21  36  58  85 115 150 189 229 281 342
#     4  10  21  37  56  75  98 138 187 227 267 320
#     4  11  25  43  61  83 115 155 198 243 290 345
#
# _framework density 19.461300999999999
#
# number of rings (size 3 to 8) (size 9 to 14) (size 15 to 20)
#    0.000    2.077    0.769    2.538    0.000    8.308 
#    0.000    2.308    0.000    2.769    0.000    0.000 
#    0.000    0.000    0.000    0.000    0.000    0.000 
#
# Total GULP energy -290119.406771 kJ/mol
# GULP energy per Si atom -5579.219361 kJ/mol
# Density = 1.941701 g / cm^3
# Si number density = 19.461301 Si / 1000 Ang^3
#
#
#
# Elastic Constant Matrix: (Units=GPa)
#
#
# Indices 1 2 3 4 5 6 
#
# 1 120.7114 67.7465 18.7568 0.0000 0.0000 0.0000
# 2 67.7465 107.8340 17.4212 0.0000 0.0000 0.0000
# 3 18.7568 17.4212 16.1958 0.0000 0.0000 0.0000
# 4 0.0000 0.0000 0.0000 25.3729 0.0000 0.0000
# 5 0.0000 0.0000 0.0000 0.0000 17.7547 0.0000
# 6 0.0000 0.0000 0.0000 0.0000 0.0000 15.5077
#
#
#
# Elastic Compliance Matrix: (Units=1/GPa)
#
#
# Indices 1 2 3 4 5 6 
#
# 1 0.013589 -0.007256 -0.007933 0.000000 0.000000 0.000000
# 2 -0.007256 0.015098 -0.007837 0.000000 0.000000 0.000000
# 3 -0.007933 -0.007837 0.079362 0.000000 0.000000 0.000000
# 4 0.000000 0.000000 0.000000 0.039412 0.000000 0.000000
# 5 0.000000 0.000000 0.000000 0.000000 0.056323 0.000000
# 6 0.000000 0.000000 0.000000 0.000000 0.000000 0.064484
#
#
# Mechanical properties :
#
#
# Convention : Reuss Voigt Hill
#
# Bulk Modulus (GPa) = 16.12987 50.28780 33.20883
# Shear Modulus (GPa) = 14.92598 21.11485 18.02041
#
# Velocity S-wave (km/s) = 2.77240 3.29746 3.04626
# Velocity P-wave (km/s) = 4.30749 6.35560 5.42900
#
# Compressibility (1/GPa) = 0.06199679
#
# Stress axis : x y z
#
# Youngs Moduli (GPa) = 73.58929 66.23393 12.60046
#
# Poissons Ratio (x) = 0.48057 0.09996
# Poissons Ratio (y) = 0.53393 0.09876
# Poissons Ratio (z) = 0.58379 0.51911
#
# Static dielectric constant tensor:
#      x y z
#    x 1.697010 0.000000 0.000000 
#    y 0.000000 1.719860 0.000000 
#    z 0.000000 0.000000 1.670840 
# 
# From -- ./inp_files/11125.got.cif
#   From: 2010.05.17/outbox.cif.g08.bks.cpg/sg71_6_cif.got.tgz:11125.got - 2010.06.03 16:22:01.
