data_PCOD9521788
_publ_section_title
;
Structure prediction by ZEFSAII (Michael W. Deem and Ramdas Pophale) SiO2 
 PCOD9521788
Probable space group: I M M M
;
_chemical_formula_sum "Si O2"
_cell_formula_units_Z 104
_cell_length_a 18.894938
_cell_length_b 17.351867
_cell_length_c 17.718566
_cell_angle_alpha 90.000000
_cell_angle_beta 90.000000
_cell_angle_gamma 90.000000
_cell_volume 5809.252480
_symmetry_space_group_name_H-M "I M M M"
_symmetry_group_IT_number 71
_symmetry_cell_setting 'orthorhombic'
loop_
_space_group_symop_operation_xyz
x,y,z
-x,-y,z
x,-y,-z
-x,y,-z
-x,-y,-z
x,y,-z
-x,y,z
x,-y,z
1/2+x,1/2+y,1/2+z
1/2-x,1/2-y,1/2+z
1/2+x,1/2-y,1/2-z
1/2-x,1/2+y,1/2-z
1/2-x,1/2-y,1/2-z
1/2+x,1/2+y,1/2-z
1/2-x,1/2+y,1/2+z
1/2+x,1/2-y,1/2+z
loop_
_atom_site_type_symbol
_atom_site_label
_atom_site_fract_x
_atom_site_fract_y
_atom_site_fract_z
Si Si1 0.416948 0.830405 0.285158
Si Si2 0.645168 0.682563 0.642274
Si Si3 0.417428 0.586688 0.224100
Si Si4 0.166029 0.866545 0.410030
Si Si5 0.767992 0.500000 0.087413
Si Si6 0.577894 0.000000 0.643460
Si Si7 0.206176 0.283581 0.678286
Si Si8 0.415228 0.410041 0.500000
O O1 0.500000 0.808730 0.271216
O O2 0.383939 0.770867 0.347935
O O3 0.417463 0.919579 0.310746
O O4 0.363355 0.822624 0.214171
O O5 0.622716 0.644744 0.721683
O O6 0.729875 0.673329 0.636018
O O7 0.609969 0.636593 0.573831
O O8 0.500000 0.593988 0.239101
O O9 0.394812 0.500000 0.242418
O O10 0.400702 0.602810 0.136873
O O11 0.158096 0.867658 0.500000
O O12 0.230057 0.923007 0.383167
O O13 0.182057 0.782667 0.378480
O O14 0.851407 0.500000 0.094814
O O15 0.749561 0.500000 0.000000
O O16 0.500000 0.000000 0.606034
O O17 0.250000 0.250000 0.750000
O O18 0.391420 0.500000 0.500000
O O19 0.500000 0.411120 0.500000
#
# Coordination Sequence:
#
# PCOD9521788 Si02
#       8
#    16  16  16  16   8   8  16   8
#     4  10  20  37  60  84 113 149 193 244 295 345
#     4  11  22  38  61  88 116 158 197 240 294 352
#     4  11  22  36  58  87 118 152 196 239 285 355
#     4  11  22  35  56  84 119 153 193 235 287 343
#     4  10  20  35  53  76 114 159 183 224 284 341
#     4  10  22  37  56  85 112 140 192 249 291 342
#     4  10  20  36  57  85 109 148 196 245 284 341
#     4  11  24  42  62  89 128 160 192 238 292 352
#
# _framework density 17.902474999999999
#
# number of rings (size 3 to 8) (size 9 to 14) (size 15 to 20)
#    0.000    1.462    3.846    3.692    1.077    1.692 
#    2.769    0.769    0.000    0.000    0.000    0.000 
#    0.000    2.462    0.000    0.000    0.000    0.000 
#
# Total GULP energy -289666.083336 kJ/mol
# GULP energy per Si atom -5570.501603 kJ/mol
# Density = 1.786173 g / cm^3
# Si number density = 17.902475 Si / 1000 Ang^3
#
#
#
# Elastic Constant Matrix: (Units=GPa)
#
#
# Indices 1 2 3 4 5 6 
#
# 1 75.9921 27.1908 13.9008 0.0000 0.0000 0.0000
# 2 27.1908 102.7229 35.9697 0.0000 0.0000 0.0000
# 3 13.9008 35.9697 59.6318 0.0000 0.0000 0.0000
# 4 0.0000 0.0000 0.0000 12.1209 0.0000 0.0000
# 5 0.0000 0.0000 0.0000 0.0000 26.7817 0.0000
# 6 0.0000 0.0000 0.0000 0.0000 0.0000 26.9127
#
#
#
# Elastic Compliance Matrix: (Units=1/GPa)
#
#
# Indices 1 2 3 4 5 6 
#
# 1 0.014623 -0.003394 -0.001362 0.000000 0.000000 0.000000
# 2 -0.003394 0.013129 -0.007128 0.000000 0.000000 0.000000
# 3 -0.001362 -0.007128 0.021387 0.000000 0.000000 0.000000
# 4 0.000000 0.000000 0.000000 0.082502 0.000000 0.000000
# 5 0.000000 0.000000 0.000000 0.000000 0.037339 0.000000
# 6 0.000000 0.000000 0.000000 0.000000 0.000000 0.037157
#
#
# Mechanical properties :
#
#
# Convention : Reuss Voigt Hill
#
# Bulk Modulus (GPa) = 39.41478 43.60771 41.51125
# Shear Modulus (GPa) = 20.97651 23.91543 22.44597
#
# Velocity S-wave (km/s) = 3.42674 3.65892 3.54473
# Velocity P-wave (km/s) = 6.14173 6.50090 6.32387
#
# Compressibility (1/GPa) = 0.02537119
#
# Stress axis : x y z
#
# Youngs Moduli (GPa) = 68.38688 76.16494 46.75777
#
# Poissons Ratio (x) = 0.25849 0.06366
# Poissons Ratio (y) = 0.23210 0.33331
# Poissons Ratio (z) = 0.09311 0.54294
#
# Static dielectric constant tensor:
#      x y z
#    x 1.643430 0.000000 0.000000 
#    y 0.000000 1.660970 0.000000 
#    z 0.000000 0.000000 1.603920 
# 
# From -- ./inp_files/46170.got.cif
#   From: 2010.05.17/outbox.cif.g08.bks.cpg/sg71_24_cif.got.tgz:46170.got - 2010.06.03 16:22:01.
