data_PCOD9521742
_publ_section_title
;
Structure prediction by ZEFSAII (Michael W. Deem and Ramdas Pophale) SiO2 
 PCOD9521742
Probable space group: I M M M
;
_chemical_formula_sum "Si O2"
_cell_formula_units_Z 120
_cell_length_a 14.030169
_cell_length_b 15.380112
_cell_length_c 31.409109
_cell_angle_alpha 90.000000
_cell_angle_beta 90.000000
_cell_angle_gamma 90.000000
_cell_volume 6777.632508
_symmetry_space_group_name_H-M "I M M M"
_symmetry_group_IT_number 71
_symmetry_cell_setting 'orthorhombic'
loop_
_space_group_symop_operation_xyz
x,y,z
-x,-y,z
x,-y,-z
-x,y,-z
-x,-y,-z
x,y,-z
-x,y,z
x,-y,z
1/2+x,1/2+y,1/2+z
1/2-x,1/2-y,1/2+z
1/2+x,1/2-y,1/2-z
1/2-x,1/2+y,1/2-z
1/2-x,1/2-y,1/2-z
1/2+x,1/2+y,1/2-z
1/2-x,1/2+y,1/2+z
1/2+x,1/2-y,1/2+z
loop_
_atom_site_type_symbol
_atom_site_label
_atom_site_fract_x
_atom_site_fract_y
_atom_site_fract_z
Si Si1 0.309823 0.370582 0.678396
Si Si2 0.607978 0.843658 0.793951
Si Si3 0.612182 0.820063 0.695356
Si Si4 0.613981 0.781252 0.549204
Si Si5 0.385260 0.404992 0.583995
Si Si6 0.359793 0.500000 0.752980
Si Si7 0.891134 0.855030 0.326050
Si Si8 0.283933 0.899246 0.381130
O O1 0.196529 0.387028 0.682389
O O2 0.331932 0.269439 0.687322
O O3 0.347215 0.393520 0.631867
O O4 0.359655 0.425312 0.715305
O O5 0.500000 0.875027 0.802483
O O6 0.627539 0.852195 0.743457
O O7 0.610994 0.741682 0.806242
O O8 0.500000 0.802700 0.690265
O O9 0.648519 0.887102 0.660274
O O10 0.630319 0.803624 0.500000
O O11 0.500000 0.789541 0.557725
O O12 0.641352 0.680605 0.557625
O O13 0.671406 0.841677 0.581526
O O14 0.500000 0.405095 0.585751
O O15 0.354963 0.500000 0.567356
O O16 0.362881 0.424082 0.789943
O O17 0.817942 0.864501 0.364788
O O18 0.000000 0.873217 0.338745
O O19 0.277770 0.000000 0.392808
#
# Coordination Sequence:
#
# PCOD9521742 Si02
#       8
#    16  16  16  16  16   8  16  16
#     4  12  20  34  52  78 113 151 191 235 278 327
#     4  10  21  35  52  71 102 153 202 240 278 326
#     4  11  21  34  51  72 104 147 192 238 280 324
#     4  10  22  41  63  86 114 145 182 234 291 353
#     4  10  20  34  57  88 115 145 183 226 284 345
#     4  12  23  30  53  82 114 153 193 236 279 326
#     4  11  22  36  54  80 111 147 196 244 287 331
#     4  12  24  37  57  81 109 149 191 234 287 337
#
# _framework density 17.705297000000002
#
# number of rings (size 3 to 8) (size 9 to 14) (size 15 to 20)
#    0.000    1.067    5.333    2.200    0.000    3.200 
#    0.000    2.333    0.000    0.400    0.000    0.933 
#    0.000    0.000    0.000    5.600    0.000    0.267 
#
# Total GULP energy -334113.994003 kJ/mol
# GULP energy per Si atom -5568.566567 kJ/mol
# Density = 1.766500 g / cm^3
# Si number density = 17.705297 Si / 1000 Ang^3
#
#
#
# Elastic Constant Matrix: (Units=GPa)
#
#
# Indices 1 2 3 4 5 6 
#
# 1 55.7981 8.0673 30.8508 0.0000 0.0000 0.0000
# 2 8.0673 47.4491 37.5073 0.0000 0.0000 0.0000
# 3 30.8508 37.5073 84.1993 0.0000 0.0000 0.0000
# 4 0.0000 0.0000 0.0000 0.2779 0.0000 0.0000
# 5 0.0000 0.0000 0.0000 0.0000 12.6993 0.0000
# 6 0.0000 0.0000 0.0000 0.0000 0.0000 0.5203
#
#
#
# Elastic Compliance Matrix: (Units=1/GPa)
#
#
# Indices 1 2 3 4 5 6 
#
# 1 0.023017 0.004249 -0.010326 0.000000 0.000000 0.000000
# 2 0.004249 0.033314 -0.016397 0.000000 0.000000 0.000000
# 3 -0.010326 -0.016397 0.022964 0.000000 0.000000 0.000000
# 4 0.000000 0.000000 0.000000 3.597805 0.000000 0.000000
# 5 0.000000 0.000000 0.000000 0.000000 0.078744 0.000000
# 6 0.000000 0.000000 0.000000 0.000000 0.000000 1.921783
#
#
# Mechanical properties :
#
#
# Convention : Reuss Voigt Hill
#
# Bulk Modulus (GPa) = 29.11434 37.81082 33.46258
# Shear Modulus (GPa) = 0.87199 10.10093 5.48646
#
# Velocity S-wave (km/s) = 0.70255 2.39111 1.76224
# Velocity P-wave (km/s) = 4.13976 5.38751 4.80432
#
# Compressibility (1/GPa) = 0.03434734
#
# Stress axis : x y z
#
# Youngs Moduli (GPa) = 43.44654 30.01718 43.54570
#
# Poissons Ratio (x) = -0.12755 0.44967
# Poissons Ratio (y) = -0.18462 0.71402
# Poissons Ratio (z) = 0.44864 0.49219
#
# Static dielectric constant tensor:
#      x y z
#    x 1.649590 0.000000 0.000000 
#    y 0.000000 1.641350 0.000000 
#    z 0.000000 0.000000 1.564450 
# 
# From -- ./inp_files/70133.got.cif
#   From: 2010.05.17/outbox.cif.g08.bks.cpg/sg71_36_cif.got.tgz:70133.got - 2010.06.03 16:22:01.
