data_PCOD9521928
_publ_section_title
;
Structure prediction by ZEFSAII (Michael W. Deem and Ramdas Pophale) SiO2 
 PCOD9521928
Probable space group: I M M M
;
_chemical_formula_sum "Si O2"
_cell_formula_units_Z 96
_cell_length_a 12.202257
_cell_length_b 17.259204
_cell_length_c 23.373899
_cell_angle_alpha 90.000000
_cell_angle_beta 90.000000
_cell_angle_gamma 90.000000
_cell_volume 4922.572179
_symmetry_space_group_name_H-M "I M M M"
_symmetry_group_IT_number 71
_symmetry_cell_setting 'orthorhombic'
loop_
_space_group_symop_operation_xyz
x,y,z
-x,-y,z
x,-y,-z
-x,y,-z
-x,-y,-z
x,y,-z
-x,y,z
x,-y,z
1/2+x,1/2+y,1/2+z
1/2-x,1/2-y,1/2+z
1/2+x,1/2-y,1/2-z
1/2-x,1/2+y,1/2-z
1/2-x,1/2-y,1/2-z
1/2+x,1/2+y,1/2-z
1/2-x,1/2+y,1/2+z
1/2+x,1/2-y,1/2+z
loop_
_atom_site_type_symbol
_atom_site_label
_atom_site_fract_x
_atom_site_fract_y
_atom_site_fract_z
Si Si1 0.000000 0.908545 0.717965
Si Si2 0.625256 0.152179 0.434635
Si Si3 0.500000 0.592580 0.651463
Si Si4 0.871453 0.411456 0.255773
Si Si5 0.217856 0.159681 0.333776
Si Si6 0.128380 0.326032 0.628141
Si Si7 0.665572 0.337117 0.436871
O O1 0.107588 0.883238 0.684170
O O2 0.000000 0.876639 0.783345
O O3 0.000000 0.000000 0.723335
O O4 0.645584 0.126318 0.500000
O O5 0.500000 0.130705 0.418860
O O6 0.716491 0.127422 0.389005
O O7 0.632864 0.246226 0.435095
O O8 0.500000 0.500000 0.652931
O O9 0.603142 0.622026 0.614898
O O10 0.834837 0.500000 0.245257
O O11 0.801762 0.352073 0.218336
O O12 0.861434 0.390150 0.322362
O O13 0.000000 0.405299 0.241038
O O14 0.180599 0.247208 0.346372
O O15 0.205147 0.344750 0.574603
O O16 0.000000 0.314958 0.615362
O O17 0.635917 0.366658 0.500000
#
# Coordination Sequence:
#
# PCOD9521928 Si02
#       7
#     8  16   8  16  16  16  16
#     4  11  24  39  57  83 122 161 191 232 291 352
#     4   9  18  35  59  85 112 142 184 242 300 342
#     4  11  23  38  57  83 118 158 197 241 290 344
#     4  10  21  36  55  79 111 152 193 240 297 351
#     4  11  20  36  57  85 114 149 197 239 286 346
#     4  10  21  37  55  83 116 149 196 241 290 343
#     4  10  20  35  56  81 113 151 190 238 291 341
#
# _framework density 19.501999000000001
#
# number of rings (size 3 to 8) (size 9 to 14) (size 15 to 20)
#    0.000    1.833    1.667    2.750    0.000    4.333 
#    0.000    0.417    0.000    2.500    0.000    9.333 
#    0.000    0.000    0.000    0.000    0.000    0.000 
#
# Total GULP energy -267915.737209 kJ/mol
# GULP energy per Si atom -5581.577859 kJ/mol
# Density = 1.945761 g / cm^3
# Si number density = 19.501999 Si / 1000 Ang^3
#
#
#
# Elastic Constant Matrix: (Units=GPa)
#
#
# Indices 1 2 3 4 5 6 
#
# 1 132.7024 16.6995 74.0838 0.0000 0.0000 0.0000
# 2 16.6995 22.9558 16.1293 0.0000 0.0000 0.0000
# 3 74.0838 16.1293 118.1226 0.0000 0.0000 0.0000
# 4 0.0000 0.0000 0.0000 5.0988 0.0000 0.0000
# 5 0.0000 0.0000 0.0000 0.0000 33.9378 0.0000
# 6 0.0000 0.0000 0.0000 0.0000 0.0000 -5.0217
#
#
#
# Elastic Compliance Matrix: (Units=1/GPa)
#
#
# Indices 1 2 3 4 5 6 
#
# 1 0.011884 -0.003770 -0.006938 0.000000 0.000000 0.000000
# 2 -0.003770 0.049381 -0.004378 0.000000 0.000000 0.000000
# 3 -0.006938 -0.004378 0.013415 0.000000 0.000000 0.000000
# 4 0.000000 0.000000 0.000000 0.196126 0.000000 0.000000
# 5 0.000000 0.000000 0.000000 0.000000 0.029466 0.000000
# 6 0.000000 0.000000 0.000000 0.000000 0.000000 -0.199137
#
#
# Mechanical properties :
#
#
# Convention : Reuss Voigt Hill
#
# Bulk Modulus (GPa) = 22.46873 54.17845 38.32359
# Shear Modulus (GPa) = 34.21315 17.92752 26.07034
#
# Velocity S-wave (km/s) = 4.19303 3.03523 3.66020
# Velocity P-wave (km/s) = 5.91509 6.33441 6.12834
#
# Compressibility (1/GPa) = 0.04450630
#
# Stress axis : x y z
#
# Youngs Moduli (GPa) = 84.15016 20.25082 74.54233
#
# Poissons Ratio (x) = 0.07634 0.51720
# Poissons Ratio (y) = 0.31723 0.32638
# Poissons Ratio (z) = 0.58386 0.08867
#
# Static dielectric constant tensor:
#      x y z
#    x 1.695140 0.000000 0.000000 
#    y 0.000000 1.671490 0.000000 
#    z 0.000000 0.000000 1.685400 
# 
# From -- ./inp_files/24252.got.cif
#   From: 2010.05.17/outbox.cif.g08.bks.cpg/sg71_13_cif.got.tgz:24252.got - 2010.06.03 16:22:01.
