data_PCOD9521120
_publ_section_title
;
Structure prediction by ZEFSAII (Michael W. Deem and Ramdas Pophale) SiO2 
 PCOD9521120
Probable space group: I M M M
;
_chemical_formula_sum "Si O2"
_cell_formula_units_Z 72
_cell_length_a 7.293440
_cell_length_b 22.977153
_cell_length_c 18.282077
_cell_angle_alpha 90.000000
_cell_angle_beta 90.000000
_cell_angle_gamma 90.000000
_cell_volume 3063.755927
_symmetry_space_group_name_H-M "I M M M"
_symmetry_group_IT_number 71
_symmetry_cell_setting 'orthorhombic'
loop_
_space_group_symop_operation_xyz
x,y,z
-x,-y,z
x,-y,-z
-x,y,-z
-x,-y,-z
x,y,-z
-x,y,z
x,-y,z
1/2+x,1/2+y,1/2+z
1/2-x,1/2-y,1/2+z
1/2+x,1/2-y,1/2-z
1/2-x,1/2+y,1/2-z
1/2-x,1/2-y,1/2-z
1/2+x,1/2+y,1/2-z
1/2-x,1/2+y,1/2+z
1/2+x,1/2-y,1/2+z
loop_
_atom_site_type_symbol
_atom_site_label
_atom_site_fract_x
_atom_site_fract_y
_atom_site_fract_z
Si Si1 0.718768 0.259829 0.079882
Si Si2 0.777319 0.565585 0.582822
Si Si3 0.782910 0.377763 0.150520
Si Si4 0.775667 0.500000 0.914744
Si Si5 0.276588 0.833706 0.806648
O O1 0.500000 0.251142 0.078815
O O2 0.755422 0.327886 0.090463
O O3 0.787085 0.224042 0.150531
O O4 0.786999 0.239981 0.000000
O O5 0.719196 0.578814 0.500000
O O6 0.719794 0.500000 0.601340
O O7 0.722345 0.613371 0.640585
O O8 0.000000 0.565749 0.582357
O O9 0.714005 0.440783 0.125347
O O10 0.710123 0.349794 0.225882
O O11 0.000000 0.385601 0.161348
O O12 0.000000 0.500000 0.914144
O O13 0.721631 0.500000 0.000000
O O14 0.500000 0.830688 0.803079
#
# Coordination Sequence:
#
# PCOD9521120 Si02
#       5
#    16  16  16   8  16
#     4  10  20  34  51  71  99 133 164 198 243 294
#     4   8  13  21  36  61  94 129 161 194 234 285
#     4  10  20  33  52  75  99 128 163 206 248 287
#     4   9  18  32  49  71  98 126 158 199 245 287
#     4   9  17  28  45  69  98 128 160 198 244 291
#
# _framework density 23.500567
#
# number of rings (size 3 to 8) (size 9 to 14) (size 15 to 20)
#    0.000    2.778    0.000    2.667    1.556    4.000 
#    0.000    0.556    0.000    2.000    0.000    0.000 
#    0.000    0.000    0.000    7.111    0.000    6.667 
#
# Total GULP energy -201124.650506 kJ/mol
# GULP energy per Si atom -5586.795847 kJ/mol
# Density = 2.344708 g / cm^3
# Si number density = 23.500567 Si / 1000 Ang^3
#
#
#
# Elastic Constant Matrix: (Units=GPa)
#
#
# Indices 1 2 3 4 5 6 
#
# 1 99.1476 2.0325 2.4073 0.0000 0.0000 0.0000
# 2 2.0325 144.2439 101.6876 0.0000 0.0000 0.0000
# 3 2.4073 101.6876 135.1933 0.0000 0.0000 0.0001
# 4 0.0000 0.0000 0.0000 44.9652 0.0000 0.0000
# 5 0.0000 0.0000 0.0000 0.0000 -5.8396 0.0000
# 6 0.0000 0.0000 0.0001 0.0000 0.0000 -32.8002
#
#
#
# Elastic Compliance Matrix: (Units=1/GPa)
#
#
# Indices 1 2 3 4 5 6 
#
# 1 0.010090 -0.000033 -0.000155 0.000000 0.000000 0.000000
# 2 -0.000033 0.014758 -0.011100 0.000000 0.000000 0.000000
# 3 -0.000155 -0.011100 0.015749 0.000000 0.000000 0.000000
# 4 0.000000 0.000000 0.000000 0.022239 0.000000 0.000000
# 5 0.000000 0.000000 0.000000 0.000000 -0.171245 0.000000
# 6 0.000000 0.000000 0.000000 0.000000 0.000000 -0.030488
#
#
# Mechanical properties :
#
#
# Convention : Reuss Voigt Hill
#
# Bulk Modulus (GPa) = 55.48930 65.64885 60.56907
# Shear Modulus (GPa) = -45.32596 19.42891 -12.94853
#
# Velocity S-wave (km/s) = -4.39648 2.87843 -2.34986
# Velocity P-wave (km/s) = 1.45221 6.24842 4.29732
#
# Compressibility (1/GPa) = 0.01802149
#
# Stress axis : x y z
#
# Youngs Moduli (GPa) = 99.10405 67.75764 63.49703
#
# Poissons Ratio (x) = 0.00224 0.00983
# Poissons Ratio (y) = 0.00327 0.70483
# Poissons Ratio (z) = 0.01534 0.75212
#
# Static dielectric constant tensor:
#      x y z
#    x 1.943420 0.000000 0.000000 
#    y 0.000000 1.843850 0.000000 
#    z 0.000000 0.000000 1.852820 
# 
# From -- ./inp_files/23715.got.cif
#   From: 2010.05.17/outbox.cif.g08.bks.cpg/sg71_12_cif.got.tgz:23715.got - 2010.06.03 16:22:01.
