data_PCOD9521881
_publ_section_title
;
Structure prediction by ZEFSAII (Michael W. Deem and Ramdas Pophale) SiO2 
 PCOD9521881
Probable space group: I M M M
;
_chemical_formula_sum "Si O2"
_cell_formula_units_Z 88
_cell_length_a 18.381430
_cell_length_b 7.644524
_cell_length_c 28.522152
_cell_angle_alpha 90.000000
_cell_angle_beta 90.000000
_cell_angle_gamma 90.000000
_cell_volume 4007.855298
_symmetry_space_group_name_H-M "I M M M"
_symmetry_group_IT_number 71
_symmetry_cell_setting 'orthorhombic'
loop_
_space_group_symop_operation_xyz
x,y,z
-x,-y,z
x,-y,-z
-x,y,-z
-x,-y,-z
x,y,-z
-x,y,z
x,-y,z
1/2+x,1/2+y,1/2+z
1/2-x,1/2-y,1/2+z
1/2+x,1/2-y,1/2-z
1/2-x,1/2+y,1/2-z
1/2-x,1/2-y,1/2-z
1/2+x,1/2+y,1/2-z
1/2-x,1/2+y,1/2+z
1/2+x,1/2-y,1/2+z
loop_
_atom_site_type_symbol
_atom_site_label
_atom_site_fract_x
_atom_site_fract_y
_atom_site_fract_z
Si Si1 0.667948 0.210542 0.234627
Si Si2 0.583784 0.210940 0.500000
Si Si3 0.580876 0.206936 0.323127
Si Si4 0.834694 0.285621 0.553592
Si Si5 0.417701 0.786409 0.144438
Si Si6 0.321299 0.702633 0.589605
O O1 0.750000 0.250000 0.250000
O O2 0.614516 0.279549 0.275245
O O3 0.639957 0.272375 0.183899
O O4 0.662590 0.000000 0.233395
O O5 0.500000 0.265632 0.500000
O O6 0.624955 0.277256 0.545771
O O7 0.586299 0.000000 0.500000
O O8 0.500000 0.276696 0.334340
O O9 0.638035 0.225862 0.365093
O O10 0.573315 0.000000 0.315896
O O11 0.845978 0.227915 0.500000
O O12 0.833302 0.500000 0.552248
O O13 0.893497 0.232986 0.592355
O O14 0.756341 0.224323 0.573208
O O15 0.500000 0.731552 0.155668
O O16 0.417112 0.000000 0.144756
O O17 0.308263 0.500000 0.600045
#
# Coordination Sequence:
#
# PCOD9521881 Si02
#       6
#    16   8  16  16  16  16
#     4  10  20  35  55  80 109 141 180 224 272 326
#     4  11  23  37  53  75 106 143 184 228 273 323
#     4  10  21  36  53  75 107 144 181 224 273 325
#     4   9  17  30  48  74 108 140 173 219 272 321
#     4   9  17  30  51  78 107 141 180 222 270 321
#     4  11  21  35  54  78 109 143 181 225 272 323
#
# _framework density 21.956880999999999
#
# number of rings (size 3 to 8) (size 9 to 14) (size 15 to 20)
#    0.000    2.091    0.909    3.000    0.000    8.000 
#    0.000    1.818    0.000    1.636    0.000    0.000 
#    0.000    0.727    0.000    0.000    0.000    0.000 
#
# Total GULP energy -245768.841397 kJ/mol
# GULP energy per Si atom -5585.655486 kJ/mol
# Density = 2.190691 g / cm^3
# Si number density = 21.956881 Si / 1000 Ang^3
#
#
#
# Elastic Constant Matrix: (Units=GPa)
#
#
# Indices 1 2 3 4 5 6 
#
# 1 119.8795 1.5538 68.8228 0.0000 0.0000 0.0000
# 2 1.5538 37.8554 2.0652 0.0000 0.0000 0.0000
# 3 68.8228 2.0652 176.1983 0.0000 0.0000 0.0000
# 4 0.0000 0.0000 0.0000 -193.7929 0.0000 0.0000
# 5 0.0000 0.0000 0.0000 0.0000 43.9219 0.0000
# 6 0.0000 0.0000 0.0000 0.0000 0.0000 10.2421
#
#
#
# Elastic Compliance Matrix: (Units=1/GPa)
#
#
# Indices 1 2 3 4 5 6 
#
# 1 0.010755 -0.000212 -0.004198 0.000000 0.000000 0.000000
# 2 -0.000212 0.026437 -0.000227 0.000000 0.000000 0.000000
# 3 -0.004198 -0.000227 0.007318 0.000000 0.000000 0.000000
# 4 0.000000 0.000000 0.000000 -0.005160 0.000000 0.000000
# 5 0.000000 0.000000 0.000000 0.000000 0.022768 0.000000
# 6 0.000000 0.000000 0.000000 0.000000 0.000000 0.097636
#
#
# Mechanical properties :
#
#
# Convention : Reuss Voigt Hill
#
# Bulk Modulus (GPa) = 28.38102 53.20189 40.79146
# Shear Modulus (GPa) = 27.65892 -10.49301 8.58295
#
# Velocity S-wave (km/s) = 3.55306 -2.18844 1.97927
# Velocity P-wave (km/s) = 5.45768 4.23049 4.88279
#
# Compressibility (1/GPa) = 0.03523481
#
# Stress axis : x y z
#
# Youngs Moduli (GPa) = 92.98261 37.82524 136.65069
#
# Poissons Ratio (x) = 0.00803 0.57370
# Poissons Ratio (y) = 0.01975 0.03101
# Poissons Ratio (z) = 0.39037 0.00858
#
# Static dielectric constant tensor:
#      x y z
#    x 1.792810 0.000000 0.000000 
#    y 0.000000 1.832650 0.000000 
#    z 0.000000 0.000000 1.766760 
# 
# From -- ./inp_files/70388.got.cif
#   From: 2010.05.17/outbox.cif.g08.bks.cpg/sg71_36_cif.got.tgz:70388.got - 2010.06.03 16:22:01.
