data_PCOD9521385
_publ_section_title
;
Structure prediction by ZEFSAII (Michael W. Deem and Ramdas Pophale) SiO2 
 PCOD9521385
Probable space group: I M M M
;
_chemical_formula_sum "Si O2"
_cell_formula_units_Z 96
_cell_length_a 14.582142
_cell_length_b 14.506276
_cell_length_c 28.267250
_cell_angle_alpha 90.000000
_cell_angle_beta 90.000000
_cell_angle_gamma 90.000000
_cell_volume 5979.444224
_symmetry_space_group_name_H-M "I M M M"
_symmetry_group_IT_number 71
_symmetry_cell_setting 'orthorhombic'
loop_
_space_group_symop_operation_xyz
x,y,z
-x,-y,z
x,-y,-z
-x,y,-z
-x,-y,-z
x,y,-z
-x,y,z
x,-y,z
1/2+x,1/2+y,1/2+z
1/2-x,1/2-y,1/2+z
1/2+x,1/2-y,1/2-z
1/2-x,1/2+y,1/2-z
1/2-x,1/2-y,1/2-z
1/2+x,1/2+y,1/2-z
1/2-x,1/2+y,1/2+z
1/2+x,1/2-y,1/2+z
loop_
_atom_site_type_symbol
_atom_site_label
_atom_site_fract_x
_atom_site_fract_y
_atom_site_fract_z
Si Si1 0.670385 0.607784 0.121886
Si Si2 0.500000 0.105550 0.443726
Si Si3 0.606945 0.220483 0.280814
Si Si4 0.000000 0.111303 0.554972
Si Si5 0.205342 0.108711 0.267521
Si Si6 0.110503 0.105941 0.054200
Si Si7 0.350597 0.778824 0.390225
O O1 0.691361 0.500000 0.112289
O O2 0.586612 0.634976 0.088040
O O3 0.663525 0.614599 0.179039
O O4 0.753423 0.673404 0.109856
O O5 0.500000 0.105139 0.500000
O O6 0.585969 0.161260 0.424372
O O7 0.500000 0.000000 0.426466
O O8 0.500000 0.204038 0.265637
O O9 0.688719 0.147488 0.266826
O O10 0.644734 0.319811 0.263008
O O11 0.608902 0.219525 0.337641
O O12 0.000000 0.145064 0.500000
O O13 0.000000 0.000000 0.551722
O O14 0.203288 0.000000 0.254014
O O15 0.153664 0.175895 0.090521
O O16 0.000000 0.113494 0.058105
O O17 0.135137 0.000000 0.062510
O O18 0.134114 0.129822 0.000000
#
# Coordination Sequence:
#
# PCOD9521385 Si02
#       7
#    16   8  16   8  16  16  16
#     4   9  19  34  52  74 101 136 169 204 259 317
#     4  11  22  32  46  73 109 145 175 200 239 307
#     4  10  20  34  52  79 106 134 176 218 260 315
#     4   9  18  32  49  72  99 127 170 219 252 290
#     4   9  20  36  53  76 106 138 173 214 264 319
#     4   9  17  29  45  65  93 132 173 207 243 290
#     4  11  19  33  50  74 105 137 168 211 257 304
#
# _framework density 16.055004
#
# number of rings (size 3 to 8) (size 9 to 14) (size 15 to 20)
#    0.000    2.333    1.667    1.500    1.167    3.333 
#    0.000    1.667    0.000    0.000    0.000    0.583 
#    0.000    2.000    0.000    0.000    0.000    0.000 
#
# Total GULP energy -267234.069797 kJ/mol
# GULP energy per Si atom -5567.376454 kJ/mol
# Density = 1.601846 g / cm^3
# Si number density = 16.055004 Si / 1000 Ang^3
#
#
#
# Elastic Constant Matrix: (Units=GPa)
#
#
# Indices 1 2 3 4 5 6 
#
# 1 86.1657 22.2004 36.9122 0.0000 0.0000 0.0000
# 2 22.2004 58.3571 27.6762 0.0000 0.0000 0.0000
# 3 36.9122 27.6762 46.0666 0.0000 0.0000 0.0000
# 4 0.0000 0.0000 0.0000 16.8311 0.0000 0.0000
# 5 0.0000 0.0000 0.0000 0.0000 20.9494 0.0000
# 6 0.0000 0.0000 0.0000 0.0000 0.0000 22.2408
#
#
#
# Elastic Compliance Matrix: (Units=1/GPa)
#
#
# Indices 1 2 3 4 5 6 
#
# 1 0.017671 -0.000010 -0.014154 0.000000 0.000000 0.000000
# 2 -0.000010 0.023964 -0.014389 0.000000 0.000000 0.000000
# 3 -0.014154 -0.014389 0.041693 0.000000 0.000000 0.000000
# 4 0.000000 0.000000 0.000000 0.059414 0.000000 0.000000
# 5 0.000000 0.000000 0.000000 0.000000 0.047734 0.000000
# 6 0.000000 0.000000 0.000000 0.000000 0.000000 0.044962
#
#
# Mechanical properties :
#
#
# Convention : Reuss Voigt Hill
#
# Bulk Modulus (GPa) = 38.13438 40.46302 39.29870
# Shear Modulus (GPa) = 16.59557 18.92431 17.75994
#
# Velocity S-wave (km/s) = 3.21856 3.43697 3.32956
# Velocity P-wave (km/s) = 6.13320 6.40373 6.26992
#
# Compressibility (1/GPa) = 0.02622306
#
# Stress axis : x y z
#
# Youngs Moduli (GPa) = 56.58873 41.72957 23.98461
#
# Poissons Ratio (x) = 0.00042 0.33947
# Poissons Ratio (y) = 0.00058 0.34511
# Poissons Ratio (z) = 0.80093 0.60045
#
# Static dielectric constant tensor:
#      x y z
#    x 1.547090 0.000000 0.000000 
#    y 0.000000 1.528080 0.000000 
#    z 0.000000 0.000000 1.545270 
# 
# From -- ./inp_files/35027.got.cif
#   From: 2010.05.17/outbox.cif.g08.bks.cpg/sg71_18_cif.got.tgz:35027.got - 2010.06.03 16:22:01.
