data_PCOD9521140
_publ_section_title
;
Structure prediction by ZEFSAII (Michael W. Deem and Ramdas Pophale) SiO2 
 PCOD9521140
Probable space group: I M M M
;
_chemical_formula_sum "Si O2"
_cell_formula_units_Z 80
_cell_length_a 7.528638
_cell_length_b 19.096311
_cell_length_c 26.231805
_cell_angle_alpha 90.000000
_cell_angle_beta 90.000000
_cell_angle_gamma 90.000000
_cell_volume 3771.325951
_symmetry_space_group_name_H-M "I M M M"
_symmetry_group_IT_number 71
_symmetry_cell_setting 'orthorhombic'
loop_
_space_group_symop_operation_xyz
x,y,z
-x,-y,z
x,-y,-z
-x,y,-z
-x,-y,-z
x,y,-z
-x,y,z
x,-y,z
1/2+x,1/2+y,1/2+z
1/2-x,1/2-y,1/2+z
1/2+x,1/2-y,1/2-z
1/2-x,1/2+y,1/2-z
1/2-x,1/2-y,1/2-z
1/2+x,1/2+y,1/2-z
1/2-x,1/2+y,1/2+z
1/2+x,1/2-y,1/2+z
loop_
_atom_site_type_symbol
_atom_site_label
_atom_site_fract_x
_atom_site_fract_y
_atom_site_fract_z
Si Si1 0.716752 0.419879 0.442240
Si Si2 0.786209 0.579501 0.250931
Si Si3 0.790371 0.330798 0.156191
Si Si4 0.785691 0.080013 0.557612
Si Si5 0.212674 0.173488 0.849435
O O1 0.771574 0.402687 0.500000
O O2 0.500000 0.419425 0.441751
O O3 0.770381 0.500000 0.430859
O O4 0.780862 0.366556 0.399488
O O5 0.718682 0.500000 0.255347
O O6 0.717471 0.618933 0.200471
O O7 0.745339 0.626053 0.300141
O O8 0.000000 0.575056 0.247094
O O9 0.771219 0.367273 0.101459
O O10 0.716049 0.252153 0.156777
O O11 0.000000 0.324297 0.166919
O O12 0.726919 0.098079 0.500000
O O13 0.000000 0.079449 0.557243
O O14 0.727004 0.000000 0.568646
O O15 0.000000 0.179113 0.855840
#
# Coordination Sequence:
#
# PCOD9521140 Si02
#       5
#    16  16  16  16  16
#     4   8  14  26  45  69  97 127 159 200 248 293
#     4  10  21  36  52  71 100 137 173 212 262 316
#     4  10  21  35  52  77 107 137 170 212 263 314
#     4   9  19  36  56  78 105 138 177 218 257 300
#     4  10  20  33  52  78 103 130 170 215 256 306
#
# _framework density 21.212698
#
# number of rings (size 3 to 8) (size 9 to 14) (size 15 to 20)
#    0.000    2.600    0.000    3.000    0.000    5.200 
#    0.000    3.000    0.000    0.600    0.000    2.800 
#    0.000    0.000    0.000    0.000    0.000    0.000 
#
# Total GULP energy -223393.778978 kJ/mol
# GULP energy per Si atom -5584.844474 kJ/mol
# Density = 2.116442 g / cm^3
# Si number density = 21.212698 Si / 1000 Ang^3
#
#
#
# Elastic Constant Matrix: (Units=GPa)
#
#
# Indices 1 2 3 4 5 6 
#
# 1 50.1213 0.6529 -10.7299 0.0000 0.0000 0.0000
# 2 0.6529 210.1215 131.1149 0.0000 0.0000 0.0000
# 3 -10.7299 131.1149 155.8367 0.0000 0.0000 0.0000
# 4 0.0000 0.0000 0.0000 -598.3328 0.0000 0.0000
# 5 0.0000 0.0000 0.0000 0.0000 -267.6570 0.0000
# 6 0.0000 0.0000 0.0000 0.0000 0.0000 48.0900
#
#
#
# Elastic Compliance Matrix: (Units=1/GPa)
#
#
# Indices 1 2 3 4 5 6 
#
# 1 0.020643 -0.002002 0.003106 0.000000 0.000000 0.000000
# 2 -0.002002 0.010214 -0.008731 0.000000 0.000000 0.000000
# 3 0.003106 -0.008731 0.013977 0.000000 0.000000 0.000000
# 4 0.000000 0.000000 0.000000 -0.001671 0.000000 0.000000
# 5 0.000000 0.000000 0.000000 0.000000 -0.003736 0.000000
# 6 0.000000 0.000000 0.000000 0.000000 0.000000 0.020794
#
#
# Mechanical properties :
#
#
# Convention : Reuss Voigt Hill
#
# Bulk Modulus (GPa) = 33.80878 73.12835 53.46857
# Shear Modulus (GPa) = 58.59307 -143.91052 -42.65872
#
# Velocity S-wave (km/s) = 5.26134 -8.24554 -4.48928
# Velocity P-wave (km/s) = 7.27196 7.49021 1.26921
#
# Compressibility (1/GPa) = 0.02957811
#
# Stress axis : x y z
#
# Youngs Moduli (GPa) = 48.44352 97.90877 71.54665
#
# Poissons Ratio (x) = 0.19603 -0.22222
# Poissons Ratio (y) = 0.09699 0.62469
# Poissons Ratio (z) = -0.15046 0.85486
#
# Static dielectric constant tensor:
#      x y z
#    x 1.799340 0.000000 0.000000 
#    y 0.000000 1.750250 0.000000 
#    z 0.000000 0.000000 1.723240 
# 
# From -- ./inp_files/8296.got.cif
#   From: 2010.05.17/outbox.cif.g08.bks.cpg/sg71_5_cif.got.tgz:8296.got - 2010.06.03 16:22:01.
