data_PCOD9521434
_publ_section_title
;
Structure prediction by ZEFSAII (Michael W. Deem and Ramdas Pophale) SiO2 
 PCOD9521434
Probable space group: I M M M
;
_chemical_formula_sum "Si O2"
_cell_formula_units_Z 72
_cell_length_a 22.777126
_cell_length_b 14.858990
_cell_length_c 9.955023
_cell_angle_alpha 90.000000
_cell_angle_beta 90.000000
_cell_angle_gamma 90.000000
_cell_volume 3369.228630
_symmetry_space_group_name_H-M "I M M M"
_symmetry_group_IT_number 71
_symmetry_cell_setting 'orthorhombic'
loop_
_space_group_symop_operation_xyz
x,y,z
-x,-y,z
x,-y,-z
-x,y,-z
-x,-y,-z
x,y,-z
-x,y,z
x,-y,z
1/2+x,1/2+y,1/2+z
1/2-x,1/2-y,1/2+z
1/2+x,1/2-y,1/2-z
1/2-x,1/2+y,1/2-z
1/2-x,1/2-y,1/2-z
1/2+x,1/2+y,1/2-z
1/2-x,1/2+y,1/2+z
1/2+x,1/2-y,1/2+z
loop_
_atom_site_type_symbol
_atom_site_label
_atom_site_fract_x
_atom_site_fract_y
_atom_site_fract_z
Si Si1 0.431416 0.390737 0.343185
Si Si2 0.776331 0.636648 0.651583
Si Si3 0.500000 0.889395 0.351149
Si Si4 0.407569 0.101883 0.853407
Si Si5 0.823652 0.157514 0.655238
O O1 0.418690 0.366860 0.500000
O O2 0.500000 0.367443 0.315602
O O3 0.427020 0.500000 0.333409
O O4 0.383974 0.350080 0.239371
O O5 0.756214 0.615720 0.500000
O O6 0.839408 0.594088 0.676710
O O7 0.796693 0.741463 0.652916
O O8 0.727157 0.609886 0.757585
O O9 0.500000 0.853405 0.500000
O O10 0.443979 0.857671 0.267108
O O11 0.500000 0.000000 0.361689
O O12 0.430212 0.000000 0.865985
O O13 0.414840 0.146497 0.000000
O O14 0.830402 0.128349 0.500000
#
# Coordination Sequence:
#
# PCOD9521434 Si02
#       5
#    16  16   8  16  16
#     4   9  19  37  59  80 104 137 176 218 265 322
#     4   9  19  35  52  73 104 141 177 214 256 307
#     4   9  17  29  45  67  97 127 154 197 254 295
#     4   9  17  31  51  71  93 129 175 212 243 290
#     4  10  20  34  53  77 106 138 170 213 266 312
#
# _framework density 21.369878
#
# number of rings (size 3 to 8) (size 9 to 14) (size 15 to 20)
#    0.000    2.778    0.000    1.667    0.000    4.889 
#    2.000    3.333    0.000    0.000    0.000    0.000 
#    0.000    0.000    0.000    0.000    0.000    0.000 
#
# Total GULP energy -200632.087258 kJ/mol
# GULP energy per Si atom -5573.113535 kJ/mol
# Density = 2.132124 g / cm^3
# Si number density = 21.369878 Si / 1000 Ang^3
#
#
#
# Elastic Constant Matrix: (Units=GPa)
#
#
# Indices 1 2 3 4 5 6 
#
# 1 148.1225 11.3898 148.2027 0.0000 0.0000 0.0000
# 2 11.3898 31.7211 14.8097 0.0000 0.0000 0.0000
# 3 148.2027 14.8097 228.1630 0.0000 0.0000 0.0000
# 4 0.0000 0.0000 0.0000 3.0504 0.0000 0.0000
# 5 0.0000 0.0000 0.0000 0.0000 37.2985 0.0000
# 6 0.0000 0.0000 0.0000 0.0000 0.0000 14.5511
#
#
#
# Elastic Compliance Matrix: (Units=1/GPa)
#
#
# Indices 1 2 3 4 5 6 
#
# 1 0.019321 -0.001112 -0.012478 0.000000 0.000000 0.000000
# 2 -0.001112 0.032574 -0.001392 0.000000 0.000000 0.000000
# 3 -0.012478 -0.001392 0.012578 0.000000 0.000000 0.000000
# 4 0.000000 0.000000 0.000000 0.327827 0.000000 0.000000
# 5 0.000000 0.000000 0.000000 0.000000 0.026811 0.000000
# 6 0.000000 0.000000 0.000000 0.000000 0.000000 0.068723
#
#
# Mechanical properties :
#
#
# Convention : Reuss Voigt Hill
#
# Bulk Modulus (GPa) = 28.97745 84.09011 56.53378
# Shear Modulus (GPa) = 9.44640 26.55361 18.00001
#
# Velocity S-wave (km/s) = 2.10476 3.52884 2.90540
# Velocity P-wave (km/s) = 4.41544 7.48591 6.14552
#
# Compressibility (1/GPa) = 0.03450959
#
# Stress axis : x y z
#
# Youngs Moduli (GPa) = 51.75593 30.69937 79.50227
#
# Poissons Ratio (x) = 0.03414 0.99203
# Poissons Ratio (y) = 0.05755 0.11067
# Poissons Ratio (z) = 0.64581 0.04274
#
# Static dielectric constant tensor:
#      x y z
#    x 1.741780 0.000000 0.000000 
#    y 0.000000 1.934380 0.000000 
#    z 0.000000 0.000000 1.785310 
# 
# From -- ./inp_files/9937.got.cif
#   From: 2010.05.17/outbox.cif.g08.bks.cpg/sg71_5_cif.got.tgz:9937.got - 2010.06.03 16:22:01.
