data_PCOD9521407
_publ_section_title
;
Structure prediction by ZEFSAII (Michael W. Deem and Ramdas Pophale) SiO2 
 PCOD9521407
Probable space group: I M M M
;
_chemical_formula_sum "Si O2"
_cell_formula_units_Z 80
_cell_length_a 20.601679
_cell_length_b 14.465514
_cell_length_c 15.934602
_cell_angle_alpha 90.000000
_cell_angle_beta 90.000000
_cell_angle_gamma 90.000000
_cell_volume 4748.732505
_symmetry_space_group_name_H-M "I M M M"
_symmetry_group_IT_number 71
_symmetry_cell_setting 'orthorhombic'
loop_
_space_group_symop_operation_xyz
x,y,z
-x,-y,z
x,-y,-z
-x,y,-z
-x,-y,-z
x,y,-z
-x,y,z
x,-y,z
1/2+x,1/2+y,1/2+z
1/2-x,1/2-y,1/2+z
1/2+x,1/2-y,1/2-z
1/2-x,1/2+y,1/2-z
1/2-x,1/2-y,1/2-z
1/2+x,1/2+y,1/2-z
1/2-x,1/2+y,1/2+z
1/2+x,1/2-y,1/2+z
loop_
_atom_site_type_symbol
_atom_site_label
_atom_site_fract_x
_atom_site_fract_y
_atom_site_fract_z
Si Si1 0.570333 0.889254 0.000000
Si Si2 0.574152 0.887041 0.500000
Si Si3 0.338175 0.891186 0.844521
Si Si4 0.162829 0.609756 0.846640
Si Si5 0.293018 0.709363 0.101453
Si Si6 0.926813 0.109141 0.601662
O O1 0.608328 0.868418 0.915182
O O2 0.500000 0.844735 0.000000
O O3 0.564457 0.000000 0.000000
O O4 0.500000 0.855903 0.500000
O O5 0.612892 0.856487 0.582806
O O6 0.573244 0.000000 0.500000
O O7 0.359656 0.875757 0.748969
O O8 0.285154 0.814385 0.866373
O O9 0.320575 0.000000 0.853502
O O10 0.168790 0.500000 0.858177
O O11 0.233423 0.651860 0.862222
O O12 0.363077 0.666718 0.128714
O O13 0.290712 0.706760 0.000000
O O14 0.927254 0.115061 0.500000
O O15 0.000000 0.137433 0.629943
O O16 0.918460 0.000000 0.622496
#
# Coordination Sequence:
#
# PCOD9521407 Si02
#       6
#     8   8  16  16  16  16
#     4   9  18  33  50  68  95 134 176 208 243 296
#     4   9  18  33  52  74 100 129 162 204 258 313
#     4  10  21  35  49  71 103 137 171 213 255 301
#     4  10  20  34  53  76 103 131 168 212 258 310
#     4  11  19  30  51  75  99 135 170 213 255 307
#     4   8  15  27  43  67  98 129 164 205 250 300
#
# _framework density 16.846602000000001
#
# number of rings (size 3 to 8) (size 9 to 14) (size 15 to 20)
#    0.000    2.400    2.000    1.800    0.000    2.400 
#    0.000    4.000    0.000    0.000    0.000    0.000 
#    0.000    1.600    0.000    0.000    0.000    3.600 
#
# Total GULP energy -222724.494595 kJ/mol
# GULP energy per Si atom -5568.112365 kJ/mol
# Density = 1.680826 g / cm^3
# Si number density = 16.846602 Si / 1000 Ang^3
#
#
#
# Elastic Constant Matrix: (Units=GPa)
#
#
# Indices 1 2 3 4 5 6 
#
# 1 112.8827 34.2443 55.2656 0.0000 0.0000 0.0000
# 2 34.2443 44.8258 36.4514 0.0000 0.0000 0.0000
# 3 55.2656 36.4514 110.1405 0.0000 0.0000 0.0000
# 4 0.0000 0.0000 0.0000 14.7731 0.0000 0.0000
# 5 0.0000 0.0000 0.0000 0.0000 -9.3512 0.0000
# 6 0.0000 0.0000 0.0000 0.0000 0.0000 7.2920
#
#
#
# Elastic Compliance Matrix: (Units=1/GPa)
#
#
# Indices 1 2 3 4 5 6 
#
# 1 0.012923 -0.006293 -0.004402 0.000000 0.000000 0.000000
# 2 -0.006293 0.033588 -0.007958 0.000000 0.000000 0.000000
# 3 -0.004402 -0.007958 0.013922 0.000000 0.000000 0.000000
# 4 0.000000 0.000000 0.000000 0.067691 0.000000 0.000000
# 5 0.000000 0.000000 0.000000 0.000000 -0.106938 0.000000
# 6 0.000000 0.000000 0.000000 0.000000 0.000000 0.137136
#
#
# Mechanical properties :
#
#
# Convention : Reuss Voigt Hill
#
# Bulk Modulus (GPa) = 43.24069 57.75240 50.49655
# Shear Modulus (GPa) = 24.58986 12.00195 18.29590
#
# Velocity S-wave (km/s) = 3.82466 2.67203 3.29907
# Velocity P-wave (km/s) = 6.72511 6.62385 6.67467
#
# Compressibility (1/GPa) = 0.02312636
#
# Stress axis : x y z
#
# Youngs Moduli (GPa) = 77.38285 29.77292 71.83000
#
# Poissons Ratio (x) = 0.18736 0.31617
# Poissons Ratio (y) = 0.48697 0.57164
# Poissons Ratio (z) = 0.34061 0.23694
#
# Static dielectric constant tensor:
#      x y z
#    x 1.577560 0.000000 0.000000 
#    y 0.000000 1.594210 0.000000 
#    z 0.000000 0.000000 1.515150 
# 
# From -- ./inp_files/36301.got.cif
#   From: 2010.05.17/outbox.cif.g08.bks.cpg/sg71_19_cif.got.tgz:36301.got - 2010.06.03 16:22:01.
