data_PCOD9521222
_publ_section_title
;
Structure prediction by ZEFSAII (Michael W. Deem and Ramdas Pophale) SiO2 
 PCOD9521222
Probable space group: I M M M
;
_chemical_formula_sum "Si O2"
_cell_formula_units_Z 96
_cell_length_a 26.870698
_cell_length_b 11.949220
_cell_length_c 18.249798
_cell_angle_alpha 90.000000
_cell_angle_beta 90.000000
_cell_angle_gamma 90.000000
_cell_volume 5859.715987
_symmetry_space_group_name_H-M "I M M M"
_symmetry_group_IT_number 71
_symmetry_cell_setting 'orthorhombic'
loop_
_space_group_symop_operation_xyz
x,y,z
-x,-y,z
x,-y,-z
-x,y,-z
-x,-y,-z
x,y,-z
-x,y,z
x,-y,z
1/2+x,1/2+y,1/2+z
1/2-x,1/2-y,1/2+z
1/2+x,1/2-y,1/2-z
1/2-x,1/2+y,1/2-z
1/2-x,1/2-y,1/2-z
1/2+x,1/2+y,1/2-z
1/2-x,1/2+y,1/2+z
1/2+x,1/2-y,1/2+z
loop_
_atom_site_type_symbol
_atom_site_label
_atom_site_fract_x
_atom_site_fract_y
_atom_site_fract_z
Si Si1 0.696370 0.868632 0.369100
Si Si2 0.363255 0.500000 0.915543
Si Si3 0.151508 0.367097 0.710911
Si Si4 0.056493 0.754699 0.771524
Si Si5 0.299557 0.727011 0.915798
Si Si6 0.084269 0.631964 0.916964
Si Si7 0.941746 0.000000 0.284196
O O1 0.684087 0.844167 0.284091
O O2 0.741854 0.797099 0.398683
O O3 0.644024 0.853122 0.410657
O O4 0.709480 0.000000 0.376018
O O5 0.329358 0.610180 0.906056
O O6 0.406487 0.500000 0.855163
O O7 0.381718 0.500000 0.000000
O O8 0.146026 0.500000 0.705243
O O9 0.097935 0.311429 0.725570
O O10 0.177726 0.314401 0.640921
O O11 0.061238 0.709533 0.854486
O O12 0.000000 0.734118 0.746181
O O13 0.066910 0.886733 0.761997
O O14 0.305296 0.762200 0.000000
O O15 0.074397 0.500000 0.900545
O O16 0.067963 0.654478 0.000000
O O17 0.000000 0.000000 0.305795
#
# Coordination Sequence:
#
# PCOD9521222 Si02
#       7
#    16   8  16  16  16  16   8
#     4   9  17  31  52  77 103 134 173 211 251 298
#     4  10  20  33  54  83 101 128 175 217 261 305
#     4  10  21  35  52  76 104 137 173 209 253 308
#     4  10  20  35  55  77 101 133 172 215 263 310
#     4  11  20  32  53  77 105 136 169 211 256 305
#     4   9  18  32  52  79 109 139 174 215 256 302
#     4  10  20  37  57  76 102 133 169 219 271 312
#
# _framework density 16.383047000000001
#
# number of rings (size 3 to 8) (size 9 to 14) (size 15 to 20)
#    0.000    2.167    2.500    2.500    0.000    2.833 
#    0.000    1.250    0.000    2.000    0.000    1.167 
#    0.000    0.000    0.000    0.000    0.000    0.000 
#
# Total GULP energy -267727.284346 kJ/mol
# GULP energy per Si atom -5577.651757 kJ/mol
# Density = 1.634576 g / cm^3
# Si number density = 16.383047 Si / 1000 Ang^3
#
#
#
# Elastic Constant Matrix: (Units=GPa)
#
#
# Indices 1 2 3 4 5 6 
#
# 1 56.3868 23.5257 24.6450 0.0000 0.0000 0.0000
# 2 23.5257 64.2299 39.2480 0.0000 0.0000 0.0000
# 3 24.6450 39.2480 72.1474 0.0000 0.0000 0.0000
# 4 0.0000 0.0000 0.0000 27.5845 0.0000 0.0000
# 5 0.0000 0.0000 0.0000 0.0000 8.5547 0.0000
# 6 0.0000 0.0000 0.0000 0.0000 0.0000 23.3121
#
#
#
# Elastic Compliance Matrix: (Units=1/GPa)
#
#
# Indices 1 2 3 4 5 6 
#
# 1 0.021939 -0.005177 -0.004678 0.000000 0.000000 0.000000
# 2 -0.005177 0.024543 -0.011583 0.000000 0.000000 0.000000
# 3 -0.004678 -0.011583 0.021759 0.000000 0.000000 0.000000
# 4 0.000000 0.000000 0.000000 0.036252 0.000000 0.000000
# 5 0.000000 0.000000 0.000000 0.000000 0.116895 0.000000
# 6 0.000000 0.000000 0.000000 0.000000 0.000000 0.042896
#
#
# Mechanical properties :
#
#
# Convention : Reuss Voigt Hill
#
# Bulk Modulus (GPa) = 39.42317 40.84463 40.13390
# Shear Modulus (GPa) = 15.84197 18.91327 17.37762
#
# Velocity S-wave (km/s) = 3.11299 3.40139 3.26038
# Velocity P-wave (km/s) = 6.08577 6.35697 6.22285
#
# Compressibility (1/GPa) = 0.02536580
#
# Stress axis : x y z
#
# Youngs Moduli (GPa) = 45.58032 40.74445 45.95695
#
# Poissons Ratio (x) = 0.21095 0.21498
# Poissons Ratio (y) = 0.23599 0.53231
# Poissons Ratio (z) = 0.21322 0.47194
#
# Static dielectric constant tensor:
#      x y z
#    x 1.547940 0.000000 0.000000 
#    y 0.000000 1.527790 0.000000 
#    z 0.000000 0.000000 1.540310 
# 
# From -- ./inp_files/48786.got.cif
#   From: 2010.05.17/outbox.cif.g08.bks.cpg/sg71_25_cif.got.tgz:48786.got - 2010.06.03 16:22:01.
