data_PCOD9521512
_publ_section_title
;
Structure prediction by ZEFSAII (Michael W. Deem and Ramdas Pophale) SiO2 
 PCOD9521512
Probable space group: I M M M
;
_chemical_formula_sum "Si O2"
_cell_formula_units_Z 88
_cell_length_a 7.510452
_cell_length_b 31.321562
_cell_length_c 17.274161
_cell_angle_alpha 90.000000
_cell_angle_beta 90.000000
_cell_angle_gamma 90.000000
_cell_volume 4063.557879
_symmetry_space_group_name_H-M "I M M M"
_symmetry_group_IT_number 71
_symmetry_cell_setting 'orthorhombic'
loop_
_space_group_symop_operation_xyz
x,y,z
-x,-y,z
x,-y,-z
-x,y,-z
-x,-y,-z
x,y,-z
-x,y,z
x,-y,z
1/2+x,1/2+y,1/2+z
1/2-x,1/2-y,1/2+z
1/2+x,1/2-y,1/2-z
1/2-x,1/2+y,1/2-z
1/2-x,1/2-y,1/2-z
1/2+x,1/2+y,1/2-z
1/2-x,1/2+y,1/2+z
1/2+x,1/2-y,1/2+z
loop_
_atom_site_type_symbol
_atom_site_label
_atom_site_fract_x
_atom_site_fract_y
_atom_site_fract_z
Si Si1 0.213891 0.224409 0.669093
Si Si2 0.211595 0.500000 0.588426
Si Si3 0.283321 0.546542 0.910062
Si Si4 0.218397 0.873292 0.310368
Si Si5 0.282702 0.644787 0.500000
Si Si6 0.293348 0.756284 0.000000
Si Si7 0.789188 0.092738 0.853025
O O1 0.250000 0.250000 0.750000
O O2 0.275138 0.175243 0.675631
O O3 0.280187 0.241923 0.584966
O O4 0.000000 0.224704 0.664208
O O5 0.283958 0.500000 0.500000
O O6 0.264766 0.457222 0.632496
O O7 0.000000 0.500000 0.582899
O O8 0.500000 0.546608 0.906199
O O9 0.226211 0.500000 0.877703
O O10 0.222988 0.589635 0.868934
O O11 0.233838 0.547702 0.000000
O O12 0.280923 0.889358 0.226923
O O13 0.000000 0.872762 0.312361
O O14 0.500000 0.645216 0.500000
O O15 0.218771 0.692833 0.500000
O O16 0.218610 0.619046 0.425451
O O17 0.500000 0.742161 0.000000
O O18 0.000000 0.100453 0.851022
#
# Coordination Sequence:
#
# PCOD9521512 Si02
#       7
#    16   8  16  16   8   8  16
#     4  10  21  38  57  82 115 148 188 235 288 340
#     4  11  23  37  53  77 110 147 182 222 271 325
#     4   8  14  24  40  68 104 134 160 200 258 313
#     4   9  18  30  50  76 105 139 175 219 268 320
#     4  10  20  35  55  78 107 143 183 227 277 330
#     4  10  22  36  57  85 113 150 188 233 290 347
#     4  10  20  34  54  79 106 140 181 225 270 319
#
# _framework density 21.655901
#
# number of rings (size 3 to 8) (size 9 to 14) (size 15 to 20)
#    0.000    2.455    0.909    1.909    2.545    3.273 
#    0.000    0.909    0.000    0.000    0.000    0.000 
#    0.000    0.727    0.000    0.000    0.000    0.000 
#
# Total GULP energy -245496.643960 kJ/mol
# GULP energy per Si atom -5579.469181 kJ/mol
# Density = 2.160661 g / cm^3
# Si number density = 21.655901 Si / 1000 Ang^3
#
#
#
# Elastic Constant Matrix: (Units=GPa)
#
#
# Indices 1 2 3 4 5 6 
#
# 1 55.4784 -8.2647 5.3193 0.0000 0.0000 0.0000
# 2 -8.2647 229.9975 130.2074 0.0000 0.0000 0.0000
# 3 5.3193 130.2074 177.2250 0.0001 0.0000 0.0000
# 4 0.0000 0.0000 0.0001 96.1380 -0.0001 0.0000
# 5 0.0000 0.0000 0.0000 -0.0001 -14.6010 0.0000
# 6 0.0000 0.0000 0.0000 0.0000 0.0000 28.8588
#
#
#
# Elastic Compliance Matrix: (Units=1/GPa)
#
#
# Indices 1 2 3 4 5 6 
#
# 1 0.018445 0.001671 -0.001782 0.000000 0.000000 0.000000
# 2 0.001671 0.007596 -0.005631 0.000000 0.000000 0.000000
# 3 -0.001782 -0.005631 0.009833 0.000000 0.000000 0.000000
# 4 0.000000 0.000000 0.000000 0.010402 0.000000 0.000000
# 5 0.000000 0.000000 0.000000 0.000000 -0.068488 0.000000
# 6 0.000000 0.000000 0.000000 0.000000 0.000000 0.034651
#
#
# Mechanical properties :
#
#
# Convention : Reuss Voigt Hill
#
# Bulk Modulus (GPa) = 40.99771 79.69164 60.34467
# Shear Modulus (GPa) = 156.00468 44.44175 100.22321
#
# Velocity S-wave (km/s) = 8.49673 4.53501 6.81031
# Velocity P-wave (km/s) = 10.73460 8.01877 9.47450
#
# Compressibility (1/GPa) = 0.02439161
#
# Stress axis : x y z
#
# Youngs Moduli (GPa) = 54.21573 131.65543 101.69980
#
# Poissons Ratio (x) = -0.22005 0.18119
# Poissons Ratio (y) = -0.09062 0.57264
# Poissons Ratio (z) = 0.09659 0.74131
#
# Static dielectric constant tensor:
#      x y z
#    x 1.845060 0.000000 0.000000 
#    y 0.000000 1.723450 0.000000 
#    z 0.000000 0.000000 1.785990 
# 
# From -- ./inp_files/42544.got.cif
#   From: 2010.05.17/outbox.cif.g08.bks.cpg/sg71_22_cif.got.tgz:42544.got - 2010.06.03 16:22:01.
