data_PCOD9521879
_publ_section_title
;
Structure prediction by ZEFSAII (Michael W. Deem and Ramdas Pophale) SiO2 
 PCOD9521879
Probable space group: I M M M
;
_chemical_formula_sum "Si O2"
_cell_formula_units_Z 104
_cell_length_a 26.587988
_cell_length_b 21.540222
_cell_length_c 8.915373
_cell_angle_alpha 90.000000
_cell_angle_beta 90.000000
_cell_angle_gamma 90.000000
_cell_volume 5105.933649
_symmetry_space_group_name_H-M "I M M M"
_symmetry_group_IT_number 71
_symmetry_cell_setting 'orthorhombic'
loop_
_space_group_symop_operation_xyz
x,y,z
-x,-y,z
x,-y,-z
-x,y,-z
-x,-y,-z
x,y,-z
-x,y,z
x,-y,z
1/2+x,1/2+y,1/2+z
1/2-x,1/2-y,1/2+z
1/2+x,1/2-y,1/2-z
1/2-x,1/2+y,1/2-z
1/2-x,1/2-y,1/2-z
1/2+x,1/2+y,1/2-z
1/2-x,1/2+y,1/2+z
1/2+x,1/2-y,1/2+z
loop_
_atom_site_type_symbol
_atom_site_label
_atom_site_fract_x
_atom_site_fract_y
_atom_site_fract_z
Si Si1 0.733003 0.073751 0.179586
Si Si2 0.660002 0.573549 0.828217
Si Si3 0.444375 0.629818 0.180308
Si Si4 0.389307 0.246629 0.171316
Si Si5 0.941228 0.500000 0.175601
Si Si6 0.942822 0.616166 0.328942
Si Si7 0.792051 0.294862 0.177484
O O1 0.791082 0.085734 0.228526
O O2 0.706263 0.134858 0.251975
O O3 0.721631 0.000000 0.223560
O O4 0.726724 0.076673 0.000000
O O5 0.655872 0.500000 0.839331
O O6 0.606641 0.597000 0.766005
O O7 0.667503 0.597853 0.000000
O O8 0.500000 0.613436 0.238939
O O9 0.431304 0.701928 0.203326
O O10 0.445844 0.618317 0.000000
O O11 0.415042 0.180260 0.174689
O O12 0.343389 0.241735 0.284173
O O13 0.370863 0.258154 0.000000
O O14 0.917142 0.562467 0.234573
O O15 0.000000 0.500000 0.231191
O O16 0.942650 0.500000 0.000000
O O17 0.944528 0.593802 0.500000
O O18 0.000000 0.626272 0.275474
O O19 0.750000 0.250000 0.250000
O O20 0.784188 0.300659 0.000000
#
# Coordination Sequence:
#
# PCOD9521879 Si02
#       7
#    16  16  16  16   8  16  16
#     4  10  21  39  63  89 118 153 194 242 296 355
#     4   9  17  30  52  83 117 153 191 231 279 337
#     4   9  17  30  51  80 113 149 190 236 280 325
#     4  10  20  35  55  80 108 142 186 234 284 333
#     4   9  17  29  47  71  99 133 173 217 265 317
#     4   9  17  31  52  76 103 138 180 223 268 322
#     4  12  25  41  62  86 115 150 192 241 293 352
#
# _framework density 20.368458
#
# number of rings (size 3 to 8) (size 9 to 14) (size 15 to 20)
#    0.000    2.231    0.000    3.462    0.000    5.846 
#    1.385    1.538    0.000    2.769    0.000    2.154 
#    0.000    0.000    0.000    0.000    0.000    0.000 
#
# Total GULP energy -289776.277221 kJ/mol
# GULP energy per Si atom -5572.620716 kJ/mol
# Density = 2.032210 g / cm^3
# Si number density = 20.368458 Si / 1000 Ang^3
#
#
#
# Elastic Constant Matrix: (Units=GPa)
#
#
# Indices 1 2 3 4 5 6 
#
# 1 31.7372 -12.1897 -0.3160 0.0000 0.0000 0.0000
# 2 -12.1897 45.2774 15.3444 0.0000 0.0000 0.0000
# 3 -0.3160 15.3444 49.9215 0.0000 0.0000 0.0000
# 4 0.0000 0.0000 0.0000 13.1500 0.0000 0.0000
# 5 0.0000 0.0000 0.0000 0.0000 19.1406 0.0000
# 6 0.0000 0.0000 0.0000 0.0000 0.0000 17.9254
#
#
#
# Elastic Compliance Matrix: (Units=1/GPa)
#
#
# Indices 1 2 3 4 5 6 
#
# 1 0.035549 0.010598 -0.003033 0.000000 0.000000 0.000000
# 2 0.010598 0.027814 -0.008482 0.000000 0.000000 0.000000
# 3 -0.003033 -0.008482 0.022619 0.000000 0.000000 0.000000
# 4 0.000000 0.000000 0.000000 0.076046 0.000000 0.000000
# 5 0.000000 0.000000 0.000000 0.000000 0.052245 0.000000
# 6 0.000000 0.000000 0.000000 0.000000 0.000000 0.055787
#
#
# Mechanical properties :
#
#
# Convention : Reuss Voigt Hill
#
# Bulk Modulus (GPa) = 11.88352 14.73481 13.30917
# Shear Modulus (GPa) = 16.66985 18.31636 17.49311
#
# Velocity S-wave (km/s) = 2.86390 3.00201 2.93376
# Velocity P-wave (km/s) = 4.09669 4.38929 4.24551
#
# Compressibility (1/GPa) = 0.08415013
#
# Stress axis : x y z
#
# Youngs Moduli (GPa) = 28.12995 35.95313 44.20979
#
# Poissons Ratio (x) = -0.38105 0.13407
# Poissons Ratio (y) = -0.29813 0.37499
# Poissons Ratio (z) = 0.08531 0.30496
#
# Static dielectric constant tensor:
#      x y z
#    x 1.789690 0.000000 0.000000 
#    y 0.000000 1.767130 0.000000 
#    z 0.000000 0.000000 1.714320 
# 
# From -- ./inp_files/11155.got.cif
#   From: 2010.05.17/outbox.cif.g08.bks.cpg/sg71_6_cif.got.tgz:11155.got - 2010.06.03 16:22:01.
