data_PCOD9521196
_publ_section_title
;
Structure prediction by ZEFSAII (Michael W. Deem and Ramdas Pophale) SiO2 
 PCOD9521196
Probable space group: I M M M
;
_chemical_formula_sum "Si O2"
_cell_formula_units_Z 72
_cell_length_a 9.147111
_cell_length_b 30.066393
_cell_length_c 14.795753
_cell_angle_alpha 90.000000
_cell_angle_beta 90.000000
_cell_angle_gamma 90.000000
_cell_volume 4069.137373
_symmetry_space_group_name_H-M "I M M M"
_symmetry_group_IT_number 71
_symmetry_cell_setting 'orthorhombic'
loop_
_space_group_symop_operation_xyz
x,y,z
-x,-y,z
x,-y,-z
-x,y,-z
-x,-y,-z
x,y,-z
-x,y,z
x,-y,z
1/2+x,1/2+y,1/2+z
1/2-x,1/2-y,1/2+z
1/2+x,1/2-y,1/2-z
1/2-x,1/2+y,1/2-z
1/2-x,1/2-y,1/2-z
1/2+x,1/2+y,1/2-z
1/2-x,1/2+y,1/2+z
1/2+x,1/2-y,1/2+z
loop_
_atom_site_type_symbol
_atom_site_label
_atom_site_fract_x
_atom_site_fract_y
_atom_site_fract_z
Si Si1 0.832326 0.054157 0.000000
Si Si2 0.324604 0.621854 0.192902
Si Si3 0.824164 0.759718 0.000000
Si Si4 0.672769 0.053024 0.815046
Si Si5 0.824311 0.836988 0.500000
Si Si6 0.175536 0.790091 0.196265
O O1 0.750819 0.067708 0.091669
O O2 0.000000 0.069726 0.000000
O O3 0.833098 0.000000 0.000000
O O4 0.500000 0.615202 0.197393
O O5 0.242964 0.579291 0.232009
O O6 0.286683 0.636186 0.090915
O O7 0.285415 0.663418 0.257460
O O8 0.751598 0.711076 0.000000
O O9 0.783571 0.785575 0.908708
O O10 0.000000 0.754197 0.000000
O O11 0.500000 0.061162 0.821176
O O12 0.695369 0.000000 0.805800
O O13 0.000000 0.830064 0.500000
O O14 0.250000 0.750000 0.250000
O O15 0.000000 0.785497 0.203648
#
# Coordination Sequence:
#
# PCOD9521196 Si02
#       6
#     8  16   8  16   8  16
#     4   9  17  32  57  84 110 144 180 217 272 335
#     4  10  21  36  56  81 110 146 190 235 281 335
#     4  10  20  33  53  81 111 144 181 224 278 332
#     4  10  21  37  57  83 115 148 186 233 281 333
#     4  10  20  36  56  80 108 144 189 232 277 331
#     4  10  20  34  53  79 110 143 182 227 274 328
#
# _framework density 17.694168999999999
#
# number of rings (size 3 to 8) (size 9 to 14) (size 15 to 20)
#    0.000    2.111    2.222    1.000    0.000    5.333 
#    0.000    2.778    0.000    3.333    0.000    0.000 
#    0.000    0.000    0.000    0.000    0.000    0.000 
#
# Total GULP energy -200952.336875 kJ/mol
# GULP energy per Si atom -5582.009358 kJ/mol
# Density = 1.765390 g / cm^3
# Si number density = 17.694169 Si / 1000 Ang^3
#
#
#
# Elastic Constant Matrix: (Units=GPa)
#
#
# Indices 1 2 3 4 5 6 
#
# 1 50.3082 46.9769 58.3327 0.0000 0.0000 0.0000
# 2 46.9769 57.6729 59.8215 0.0000 0.0000 0.0000
# 3 58.3327 59.8215 177.8531 0.0003 0.0000 0.0000
# 4 0.0000 0.0000 0.0003 29.4522 0.0000 0.0000
# 5 0.0000 0.0000 0.0000 0.0000 26.5841 0.0000
# 6 0.0000 0.0000 0.0000 0.0000 0.0000 29.2232
#
#
#
# Elastic Compliance Matrix: (Units=1/GPa)
#
#
# Indices 1 2 3 4 5 6 
#
# 1 0.088914 -0.064774 -0.007375 0.000000 0.000000 0.000000
# 2 -0.064774 0.073818 -0.003584 0.000000 0.000000 0.000000
# 3 -0.007375 -0.003584 0.009247 0.000000 0.000000 0.000000
# 4 0.000000 0.000000 0.000000 0.033953 0.000000 0.000000
# 5 0.000000 0.000000 0.000000 0.000000 0.037616 0.000000
# 6 0.000000 0.000000 0.000000 0.000000 0.000000 0.034219
#
#
# Mechanical properties :
#
#
# Convention : Reuss Voigt Hill
#
# Bulk Modulus (GPa) = 48.75162 68.45518 58.60340
# Shear Modulus (GPa) = 11.46597 25.09876 18.28236
#
# Velocity S-wave (km/s) = 2.54836 3.77035 3.21790
# Velocity P-wave (km/s) = 6.02254 7.59777 6.85555
#
# Compressibility (1/GPa) = 0.02051214
#
# Stress axis : x y z
#
# Youngs Moduli (GPa) = 11.24680 13.54684 108.14167
#
# Poissons Ratio (x) = 0.87748 0.79758
# Poissons Ratio (y) = 0.72850 0.38760
# Poissons Ratio (z) = 0.08295 0.04855
#
# Static dielectric constant tensor:
#      x y z
#    x 1.590790 0.000000 0.000000 
#    y 0.000000 1.580400 0.000000 
#    z 0.000000 0.000000 1.602870 
# 
# From -- ./inp_files/6208.got.cif
#   From: 2010.05.17/outbox.cif.g08.bks.cpg/sg71_4_cif.got.tgz:6208.got - 2010.06.03 16:22:01.
