data_PCOD9521661
_publ_section_title
;
Structure prediction by ZEFSAII (Michael W. Deem and Ramdas Pophale) SiO2 
 PCOD9521661
Probable space group: I M M M
;
_chemical_formula_sum "Si O2"
_cell_formula_units_Z 104
_cell_length_a 8.558119
_cell_length_b 29.113724
_cell_length_c 22.563518
_cell_angle_alpha 90.000000
_cell_angle_beta 90.000000
_cell_angle_gamma 90.000000
_cell_volume 5621.897140
_symmetry_space_group_name_H-M "I M M M"
_symmetry_group_IT_number 71
_symmetry_cell_setting 'orthorhombic'
loop_
_space_group_symop_operation_xyz
x,y,z
-x,-y,z
x,-y,-z
-x,y,-z
-x,-y,-z
x,y,-z
-x,y,z
x,-y,z
1/2+x,1/2+y,1/2+z
1/2-x,1/2-y,1/2+z
1/2+x,1/2-y,1/2-z
1/2-x,1/2+y,1/2-z
1/2-x,1/2-y,1/2-z
1/2+x,1/2+y,1/2-z
1/2-x,1/2+y,1/2+z
1/2+x,1/2-y,1/2+z
loop_
_atom_site_type_symbol
_atom_site_label
_atom_site_fract_x
_atom_site_fract_y
_atom_site_fract_z
Si Si1 0.809746 0.948239 0.238856
Si Si2 0.812541 0.554072 0.500000
Si Si3 0.820669 0.447584 0.929240
Si Si4 0.816223 0.709792 0.184742
Si Si5 0.814216 0.693623 0.320959
Si Si6 0.312677 0.397959 0.380924
Si Si7 0.680814 0.618942 0.843023
O O1 0.765245 0.931113 0.173640
O O2 0.758329 0.911217 0.287446
O O3 0.000000 0.948748 0.241481
O O4 0.754860 0.000000 0.250573
O O5 0.759603 0.500000 0.500000
O O6 0.755169 0.581515 0.441664
O O7 0.000000 0.553638 0.500000
O O8 0.789694 0.500000 0.910914
O O9 0.701168 0.413927 0.898670
O O10 0.000000 0.436306 0.911977
O O11 0.812458 0.445569 0.000000
O O12 0.761174 0.695515 0.251577
O O13 0.730702 0.754751 0.160221
O O14 0.778936 0.664720 0.147846
O O15 0.000000 0.719664 0.188254
O O16 0.739708 0.652985 0.359719
O O17 0.000000 0.687112 0.321737
O O18 0.500000 0.398128 0.385419
O O19 0.500000 0.630930 0.832416
#
# Coordination Sequence:
#
# PCOD9521661 Si02
#       7
#    16   8  16  16  16  16  16
#     4   9  18  31  49  78 114 146 179 225 277 331
#     4  11  25  43  61  85 119 157 201 251 298 347
#     4   9  19  36  55  75 105 147 190 228 270 326
#     4  10  20  34  55  83 116 150 187 225 275 339
#     4  10  20  35  57  84 115 147 184 230 281 335
#     4  11  21  37  61  85 114 152 195 237 289 352
#     4  11  20  32  53  82 115 146 182 230 283 332
#
# _framework density 18.499093999999999
#
# number of rings (size 3 to 8) (size 9 to 14) (size 15 to 20)
#    0.000    1.923    1.538    3.462    0.000    3.692 
#    0.000    0.769    1.692    3.692    0.000    0.000 
#    0.000    0.000    0.000    0.000    0.000    0.000 
#
# Total GULP energy -290116.226849 kJ/mol
# GULP energy per Si atom -5579.158209 kJ/mol
# Density = 1.845699 g / cm^3
# Si number density = 18.499094 Si / 1000 Ang^3
#
#
#
# Elastic Constant Matrix: (Units=GPa)
#
#
# Indices 1 2 3 4 5 6 
#
# 1 35.5061 22.0142 14.5547 0.0000 0.0000 0.0000
# 2 22.0142 119.2070 32.8616 0.0000 0.0000 0.0000
# 3 14.5547 32.8616 49.1514 -0.0001 0.0000 0.0000
# 4 0.0000 0.0000 -0.0001 21.7560 0.0000 0.0000
# 5 0.0000 0.0000 0.0000 0.0000 23.6471 0.0000
# 6 0.0000 0.0000 0.0000 0.0000 0.0000 26.3768
#
#
#
# Elastic Compliance Matrix: (Units=1/GPa)
#
#
# Indices 1 2 3 4 5 6 
#
# 1 0.033733 -0.004261 -0.007140 0.000000 0.000000 0.000000
# 2 -0.004261 0.010823 -0.005974 0.000000 0.000000 0.000000
# 3 -0.007140 -0.005974 0.026454 0.000000 0.000000 0.000000
# 4 0.000000 0.000000 0.000000 0.045964 0.000000 0.000000
# 5 0.000000 0.000000 0.000000 0.000000 0.042289 0.000000
# 6 0.000000 0.000000 0.000000 0.000000 0.000000 0.037912
#
#
# Mechanical properties :
#
#
# Convention : Reuss Voigt Hill
#
# Bulk Modulus (GPa) = 27.57947 38.08061 32.83004
# Shear Modulus (GPa) = 20.49090 23.31823 21.90456
#
# Velocity S-wave (km/s) = 3.33178 3.55421 3.44479
# Velocity P-wave (km/s) = 5.45362 6.12152 5.79720
#
# Compressibility (1/GPa) = 0.03625885
#
# Stress axis : x y z
#
# Youngs Moduli (GPa) = 29.64454 92.39992 37.80200
#
# Poissons Ratio (x) = 0.39374 0.26991
# Poissons Ratio (y) = 0.12632 0.22582
# Poissons Ratio (z) = 0.21166 0.55199
#
# Static dielectric constant tensor:
#      x y z
#    x 1.645500 0.000000 0.000000 
#    y 0.000000 1.647340 0.000000 
#    z 0.000000 0.000000 1.639190 
# 
# From -- ./inp_files/16955.got.cif
#   From: 2010.05.17/outbox.cif.g08.bks.cpg/sg71_9_cif.got.tgz:16955.got - 2010.06.03 16:22:01.
