data_PCOD9521549
_publ_section_title
;
Structure prediction by ZEFSAII (Michael W. Deem and Ramdas Pophale) SiO2 
 PCOD9521549
Probable space group: I M M M
;
_chemical_formula_sum "Si O2"
_cell_formula_units_Z 88
_cell_length_a 20.086229
_cell_length_b 8.529913
_cell_length_c 28.328335
_cell_angle_alpha 90.000000
_cell_angle_beta 90.000000
_cell_angle_gamma 90.000000
_cell_volume 4853.600883
_symmetry_space_group_name_H-M "I M M M"
_symmetry_group_IT_number 71
_symmetry_cell_setting 'orthorhombic'
loop_
_space_group_symop_operation_xyz
x,y,z
-x,-y,z
x,-y,-z
-x,y,-z
-x,-y,-z
x,y,-z
-x,y,z
x,-y,z
1/2+x,1/2+y,1/2+z
1/2-x,1/2-y,1/2+z
1/2+x,1/2-y,1/2-z
1/2-x,1/2+y,1/2-z
1/2-x,1/2-y,1/2-z
1/2+x,1/2+y,1/2-z
1/2-x,1/2+y,1/2+z
1/2+x,1/2-y,1/2+z
loop_
_atom_site_type_symbol
_atom_site_label
_atom_site_fract_x
_atom_site_fract_y
_atom_site_fract_z
Si Si1 0.668993 0.687809 0.916557
Si Si2 0.182415 0.308892 0.053414
Si Si3 0.840249 0.187638 0.785515
Si Si4 0.308766 0.812569 0.185003
Si Si5 0.924267 0.689639 0.130719
Si Si6 0.576887 0.812128 0.000000
O O1 0.667149 0.500000 0.918915
O O2 0.743274 0.740705 0.932124
O O3 0.661164 0.741695 0.862598
O O4 0.615926 0.753293 0.953652
O O5 0.182263 0.500000 0.054075
O O6 0.127079 0.255499 0.090471
O O7 0.168126 0.258985 0.000000
O O8 0.768849 0.237573 0.808216
O O9 0.843632 0.256806 0.733038
O O10 0.897684 0.247612 0.819623
O O11 0.840292 0.000000 0.782819
O O12 0.310443 0.000000 0.182017
O O13 0.922194 0.500000 0.131657
O O14 0.000000 0.737852 0.121378
O O15 0.500000 0.758866 0.000000
O O16 0.577747 0.000000 0.000000
#
# Coordination Sequence:
#
# PCOD9521549 Si02
#       6
#    16  16  16  16  16   8
#     4  11  20  35  61  89 116 148 190 239 283 335
#     4   9  17  31  53  83 113 145 189 236 279 324
#     4  10  20  34  54  81 112 148 190 237 286 340
#     4  10  20  34  56  85 114 145 185 236 290 342
#     4  10  20  34  54  80 115 157 195 236 286 338
#     4  11  25  43  61  85 120 155 186 228 286 350
#
# _framework density 18.130868
#
# number of rings (size 3 to 8) (size 9 to 14) (size 15 to 20)
#    0.000    1.909    2.727    1.909    0.000    2.909 
#    0.000    2.727    0.000    5.455    0.000    1.273 
#    0.000    0.000    0.000    0.000    0.000    0.000 
#
# Total GULP energy -245664.643894 kJ/mol
# GULP energy per Si atom -5583.287361 kJ/mol
# Density = 1.808960 g / cm^3
# Si number density = 18.130868 Si / 1000 Ang^3
#
#
#
# Elastic Constant Matrix: (Units=GPa)
#
#
# Indices 1 2 3 4 5 6 
#
# 1 136.2891 31.6732 87.7284 0.0000 0.0000 0.0000
# 2 31.6732 30.6893 31.0871 0.0000 0.0000 0.0000
# 3 87.7284 31.0871 170.6498 0.0000 0.0000 0.0000
# 4 0.0000 0.0000 0.0000 26.4917 0.0000 0.0000
# 5 0.0000 0.0000 0.0000 0.0000 28.4885 0.0000
# 6 0.0000 0.0000 0.0000 0.0000 0.0000 20.8410
#
#
#
# Elastic Compliance Matrix: (Units=1/GPa)
#
#
# Indices 1 2 3 4 5 6 
#
# 1 0.012293 -0.007708 -0.004915 0.000000 0.000000 0.000000
# 2 -0.007708 0.044791 -0.004197 0.000000 0.000000 0.000000
# 3 -0.004915 -0.004197 0.009151 0.000000 0.000000 0.000000
# 4 0.000000 0.000000 0.000000 0.037748 0.000000 0.000000
# 5 0.000000 0.000000 0.000000 0.000000 0.035102 0.000000
# 6 0.000000 0.000000 0.000000 0.000000 0.000000 0.047982
#
#
# Mechanical properties :
#
#
# Convention : Reuss Voigt Hill
#
# Bulk Modulus (GPa) = 30.67976 70.95616 50.81796
# Shear Modulus (GPa) = 21.59157 27.64021 24.61589
#
# Velocity S-wave (km/s) = 3.45465 3.90870 3.68867
# Velocity P-wave (km/s) = 5.73331 7.71953 6.79933
#
# Compressibility (1/GPa) = 0.03259478
#
# Stress axis : x y z
#
# Youngs Moduli (GPa) = 81.35026 22.32593 109.27250
#
# Poissons Ratio (x) = 0.17208 0.53711
# Poissons Ratio (y) = 0.62702 0.45863
# Poissons Ratio (z) = 0.39986 0.09371
#
# Static dielectric constant tensor:
#      x y z
#    x 1.615510 0.000000 0.000000 
#    y 0.000000 1.613460 0.000000 
#    z 0.000000 0.000000 1.604350 
# 
# From -- ./inp_files/12566.got.cif
#   From: 2010.05.17/outbox.cif.g08.bks.cpg/sg71_7_cif.got.tgz:12566.got - 2010.06.03 16:22:01.
