data_PCOD9521432
_publ_section_title
;
Structure prediction by ZEFSAII (Michael W. Deem and Ramdas Pophale) SiO2 
 PCOD9521432
Probable space group: I M M M
;
_chemical_formula_sum "Si O2"
_cell_formula_units_Z 112
_cell_length_a 14.409204
_cell_length_b 32.441050
_cell_length_c 14.273886
_cell_angle_alpha 90.000000
_cell_angle_beta 90.000000
_cell_angle_gamma 90.000000
_cell_volume 6672.323835
_symmetry_space_group_name_H-M "I M M M"
_symmetry_group_IT_number 71
_symmetry_cell_setting 'orthorhombic'
loop_
_space_group_symop_operation_xyz
x,y,z
-x,-y,z
x,-y,-z
-x,y,-z
-x,-y,-z
x,y,-z
-x,y,z
x,-y,z
1/2+x,1/2+y,1/2+z
1/2-x,1/2-y,1/2+z
1/2+x,1/2-y,1/2-z
1/2-x,1/2+y,1/2-z
1/2-x,1/2-y,1/2-z
1/2+x,1/2+y,1/2-z
1/2-x,1/2+y,1/2+z
1/2+x,1/2-y,1/2+z
loop_
_atom_site_type_symbol
_atom_site_label
_atom_site_fract_x
_atom_site_fract_y
_atom_site_fract_z
Si Si1 0.895783 0.914387 0.391189
Si Si2 0.718150 0.200267 0.611426
Si Si3 0.895412 0.331541 0.608146
Si Si4 0.392954 0.328476 0.214104
Si Si5 0.197736 0.792999 0.109639
Si Si6 0.201987 0.453381 0.888943
Si Si7 0.891925 0.624593 0.204073
O O1 0.888714 0.899771 0.500000
O O2 0.884128 0.875233 0.323509
O O3 0.812292 0.945935 0.377045
O O4 0.000000 0.931186 0.379059
O O5 0.719498 0.195590 0.500000
O O6 0.821944 0.197578 0.651488
O O7 0.677912 0.245354 0.633547
O O8 0.661136 0.162877 0.656337
O O9 0.890831 0.345440 0.500000
O O10 0.808119 0.301299 0.622133
O O11 0.884061 0.367437 0.684657
O O12 0.000000 0.313986 0.622814
O O13 0.500000 0.316320 0.204435
O O14 0.358032 0.322101 0.320010
O O15 0.176418 0.799844 0.000000
O O16 0.176759 0.500000 0.862904
O O17 0.151187 0.417942 0.831118
O O18 0.181968 0.447840 0.000000
O O19 0.000000 0.626122 0.178524
#
# Coordination Sequence:
#
# PCOD9521432 Si02
#       7
#    16  16  16  16  16  16  16
#     4   9  17  31  52  77 104 136 172 208 252 306
#     4  11  22  36  52  73 103 140 181 217 258 306
#     4   9  18  34  57  81 103 133 175 219 262 307
#     4  11  21  33  52  75 103 137 175 216 259 304
#     4  10  21  36  52  73 105 139 177 224 263 302
#     4  10  20  34  53  77 106 136 168 210 256 310
#     4  11  22  36  56  76 101 137 173 213 263 315
#
# _framework density 16.785755000000002
#
# number of rings (size 3 to 8) (size 9 to 14) (size 15 to 20)
#    0.000    1.857    2.857    1.286    0.000    4.000 
#    0.000    5.000    0.000    0.429    0.000    2.000 
#    0.000    0.000    0.000   12.286    0.000    0.286 
#
# Total GULP energy -312293.547189 kJ/mol
# GULP energy per Si atom -5576.670486 kJ/mol
# Density = 1.674755 g / cm^3
# Si number density = 16.785755 Si / 1000 Ang^3
#
#
#
# Elastic Constant Matrix: (Units=GPa)
#
#
# Indices 1 2 3 4 5 6 
#
# 1 87.8053 42.2140 37.8115 0.0000 0.0000 0.0000
# 2 42.2140 90.3502 51.0374 -0.0001 0.0000 0.0000
# 3 37.8115 51.0374 72.4611 0.0002 0.0004 0.0000
# 4 0.0000 -0.0001 0.0002 14.8125 0.0000 0.0000
# 5 0.0000 0.0000 0.0004 0.0000 26.0899 0.0000
# 6 0.0000 0.0000 0.0000 0.0000 0.0000 6.3074
#
#
#
# Elastic Compliance Matrix: (Units=1/GPa)
#
#
# Indices 1 2 3 4 5 6 
#
# 1 0.015720 -0.004503 -0.005032 0.000000 0.000000 0.000000
# 2 -0.004503 0.019671 -0.011506 0.000000 0.000000 0.000000
# 3 -0.005032 -0.011506 0.024530 0.000000 0.000000 0.000000
# 4 0.000000 0.000000 0.000000 0.067511 0.000000 0.000000
# 5 0.000000 0.000000 0.000000 0.000000 0.038329 0.000000
# 6 0.000000 0.000000 0.000000 0.000000 0.000000 0.158543
#
#
# Mechanical properties :
#
#
# Convention : Reuss Voigt Hill
#
# Bulk Modulus (GPa) = 56.04911 56.97137 56.51024
# Shear Modulus (GPa) = 13.42889 17.41220 15.42054
#
# Velocity S-wave (km/s) = 2.83153 3.22424 3.03424
# Velocity P-wave (km/s) = 6.64480 6.91917 6.78338
#
# Compressibility (1/GPa) = 0.01784149
#
# Stress axis : x y z
#
# Youngs Moduli (GPa) = 63.61168 50.83581 40.76616
#
# Poissons Ratio (x) = 0.22889 0.20513
# Poissons Ratio (y) = 0.28642 0.46904
# Poissons Ratio (z) = 0.32008 0.58490
#
# Static dielectric constant tensor:
#      x y z
#    x 1.592030 0.000000 0.000000 
#    y 0.000000 1.541650 0.000000 
#    z 0.000000 0.000000 1.571870 
# 
# From -- ./inp_files/35330.got.cif
#   From: 2010.05.17/outbox.cif.g08.bks.cpg/sg71_18_cif.got.tgz:35330.got - 2010.06.03 16:22:01.
