data_PCOD9521138
_publ_section_title
;
Structure prediction by ZEFSAII (Michael W. Deem and Ramdas Pophale) SiO2 
 PCOD9521138
Probable space group: I M M M
;
_chemical_formula_sum "Si O2"
_cell_formula_units_Z 90
_cell_length_a 7.956429
_cell_length_b 22.678546
_cell_length_c 26.298894
_cell_angle_alpha 90.000000
_cell_angle_beta 90.000000
_cell_angle_gamma 90.000000
_cell_volume 4745.378773
_symmetry_space_group_name_H-M "I M M M"
_symmetry_group_IT_number 71
_symmetry_cell_setting 'orthorhombic'
loop_
_space_group_symop_operation_xyz
x,y,z
-x,-y,z
x,-y,-z
-x,y,-z
-x,-y,-z
x,y,-z
-x,y,z
x,-y,z
1/2+x,1/2+y,1/2+z
1/2-x,1/2-y,1/2+z
1/2+x,1/2-y,1/2-z
1/2-x,1/2+y,1/2-z
1/2-x,1/2-y,1/2-z
1/2+x,1/2+y,1/2-z
1/2-x,1/2+y,1/2+z
1/2+x,1/2-y,1/2+z
loop_
_atom_site_type_symbol
_atom_site_label
_atom_site_fract_x
_atom_site_fract_y
_atom_site_fract_z
Si Si1 0.301542 0.932917 0.753614
Si Si2 0.000000 0.500000 0.500000
Si Si3 0.703628 0.658235 0.942633
Si Si4 0.700176 0.566793 0.141168
Si Si5 0.195416 0.879273 0.143669
Si Si6 0.298853 0.293922 0.443082
Si Si7 0.192316 0.000000 0.080959
O O1 0.500000 0.936942 0.747043
O O2 0.228248 0.914171 0.699345
O O3 0.268147 0.889862 0.800559
O O4 0.236782 0.000000 0.764607
O O5 0.848983 0.500000 0.543321
O O6 0.500000 0.660229 0.940640
O O7 0.766482 0.613061 0.900012
O O8 0.766319 0.724860 0.935128
O O9 0.751465 0.639853 0.000000
O O10 0.500000 0.563423 0.133005
O O11 0.768561 0.500000 0.135812
O O12 0.270127 0.832121 0.103798
O O13 0.205236 0.941803 0.115207
O O14 0.000000 0.863893 0.151103
O O15 0.233489 0.310015 0.500000
O O16 0.500000 0.304096 0.444658
O O17 0.000000 0.000000 0.059216
#
# Coordination Sequence:
#
# PCOD9521138 Si02
#       7
#    16   2  16  16  16  16   8
#     4  10  20  33  52  77 108 137 174 224 272 322
#     4  12  26  36  52  82 116 148 194 240 300 346
#     4   9  18  34  54  80 109 137 171 215 264 317
#     4   9  18  33  55  80 107 139 173 210 262 327
#     4  10  20  35  55  76 103 142 185 226 275 330
#     4   9  19  35  54  75 102 141 181 217 263 322
#     4  10  23  39  55  78 113 151 189 244 294 342
#
# _framework density 18.965820999999998
#
# number of rings (size 3 to 8) (size 9 to 14) (size 15 to 20)
#    0.000    2.489    0.889    0.667    2.489    2.489 
#    0.000    2.667    0.000    0.000    0.000    4.978 
#    0.000    0.000    0.000    0.000    0.000    0.000 
#
# Total GULP energy -250585.756282 kJ/mol
# GULP energy per Si atom -5568.572362 kJ/mol
# Density = 1.892265 g / cm^3
# Si number density = 18.965821 Si / 1000 Ang^3
#
#
#
# Elastic Constant Matrix: (Units=GPa)
#
#
# Indices 1 2 3 4 5 6 
#
# 1 38.1785 1.7109 10.1080 0.0000 0.0000 0.0000
# 2 1.7109 73.3571 80.6238 0.0000 0.0000 0.0000
# 3 10.1080 80.6238 149.0639 0.0000 0.0000 0.0000
# 4 0.0000 0.0000 0.0000 25.6540 0.0000 0.0000
# 5 0.0000 0.0000 0.0000 0.0000 47.9781 0.0000
# 6 0.0000 0.0000 0.0000 0.0000 0.0000 18.7201
#
#
#
# Elastic Compliance Matrix: (Units=1/GPa)
#
#
# Indices 1 2 3 4 5 6 
#
# 1 0.027013 0.003411 -0.003676 0.000000 0.000000 0.000000
# 2 0.003411 0.034044 -0.018644 0.000000 0.000000 0.000000
# 3 -0.003676 -0.018644 0.017042 0.000000 0.000000 0.000000
# 4 0.000000 0.000000 0.000000 0.038980 0.000000 0.000000
# 5 0.000000 0.000000 0.000000 0.000000 0.020843 0.000000
# 6 0.000000 0.000000 0.000000 0.000000 0.000000 0.053419
#
#
# Mechanical properties :
#
#
# Convention : Reuss Voigt Hill
#
# Bulk Modulus (GPa) = 24.82714 49.49833 37.16273
# Shear Modulus (GPa) = 20.61112 29.68088 25.14600
#
# Velocity S-wave (km/s) = 3.30017 3.96026 3.64518
# Velocity P-wave (km/s) = 5.25741 6.86053 6.11176
#
# Compressibility (1/GPa) = 0.04027851
#
# Stress axis : x y z
#
# Youngs Moduli (GPa) = 37.01885 29.37395 58.67852
#
# Poissons Ratio (x) = -0.10018 0.21573
# Poissons Ratio (y) = -0.12626 1.09403
# Poissons Ratio (z) = 0.13610 0.54766
#
# Static dielectric constant tensor:
#      x y z
#    x 1.681780 0.000000 0.000000 
#    y 0.000000 1.672220 0.000000 
#    z 0.000000 0.000000 1.666220 
# 
# From -- ./inp_files/63224.got.cif
#   From: 2010.05.17/outbox.cif.g08.bks.cpg/sg71_32_cif.got.tgz:63224.got - 2010.06.03 16:22:01.
