data_PCOD9521087
_publ_section_title
;
Structure prediction by ZEFSAII (Michael W. Deem and Ramdas Pophale) SiO2 
 PCOD9521087
Probable space group: I M M M
;
_chemical_formula_sum "Si O2"
_cell_formula_units_Z 104
_cell_length_a 21.247957
_cell_length_b 29.830544
_cell_length_c 8.885056
_cell_angle_alpha 90.000000
_cell_angle_beta 90.000000
_cell_angle_gamma 90.000000
_cell_volume 5631.687157
_symmetry_space_group_name_H-M "I M M M"
_symmetry_group_IT_number 71
_symmetry_cell_setting 'orthorhombic'
loop_
_space_group_symop_operation_xyz
x,y,z
-x,-y,z
x,-y,-z
-x,y,-z
-x,-y,-z
x,y,-z
-x,y,z
x,-y,z
1/2+x,1/2+y,1/2+z
1/2-x,1/2-y,1/2+z
1/2+x,1/2-y,1/2-z
1/2-x,1/2+y,1/2-z
1/2-x,1/2-y,1/2-z
1/2+x,1/2+y,1/2-z
1/2-x,1/2+y,1/2+z
1/2+x,1/2-y,1/2+z
loop_
_atom_site_type_symbol
_atom_site_label
_atom_site_fract_x
_atom_site_fract_y
_atom_site_fract_z
Si Si1 0.927432 0.603502 0.335921
Si Si2 0.292361 0.789438 0.819215
Si Si3 0.366690 0.447136 0.319298
Si Si4 0.926887 0.695489 0.821874
Si Si5 0.840151 0.548768 0.835967
Si Si6 0.500000 0.446174 0.170858
Si Si7 0.231632 0.878296 0.672662
O O1 0.908375 0.621785 0.500000
O O2 0.919912 0.642598 0.214086
O O3 0.888116 0.560512 0.293493
O O4 0.000000 0.591973 0.340217
O O5 0.250000 0.750000 0.750000
O O6 0.364923 0.784899 0.760158
O O7 0.259066 0.835347 0.760535
O O8 0.292103 0.788396 0.000000
O O9 0.363721 0.445807 0.500000
O O10 0.353166 0.500000 0.274944
O O11 0.436548 0.435581 0.260373
O O12 0.321819 0.408710 0.251023
O O13 0.000000 0.707214 0.774439
O O14 0.922386 0.703840 0.000000
O O15 0.810821 0.500000 0.817118
O O16 0.788916 0.586978 0.835086
O O17 0.872234 0.549670 0.000000
O O18 0.500000 0.500000 0.158996
O O19 0.500000 0.427943 0.000000
O O20 0.214023 0.865963 0.500000
#
# Coordination Sequence:
#
# PCOD9521087 Si02
#       7
#    16  16  16  16  16   8  16
#     4  10  20  33  51  77 109 149 196 243 290 338
#     4  12  25  42  66  94 123 155 196 243 299 358
#     4  10  20  34  55  85 120 158 200 245 295 352
#     4  10  20  37  63  92 121 155 196 242 293 351
#     4  10  21  35  52  76 110 153 197 240 287 341
#     4   9  17  31  53  81 113 153 201 247 291 347
#     4  11  22  38  59  84 116 154 197 242 294 350
#
# _framework density 18.466933999999998
#
# number of rings (size 3 to 8) (size 9 to 14) (size 15 to 20)
#    0.000    1.615    1.538    3.923    0.000    5.538 
#    0.000    1.538    1.692    0.000    0.000    0.000 
#    0.000    0.000    0.000    0.000    0.000    0.000 
#
# Total GULP energy -289719.906832 kJ/mol
# GULP energy per Si atom -5571.536670 kJ/mol
# Density = 1.842490 g / cm^3
# Si number density = 18.466934 Si / 1000 Ang^3
#
#
#
# Elastic Constant Matrix: (Units=GPa)
#
#
# Indices 1 2 3 4 5 6 
#
# 1 123.8425 54.0775 66.3140 0.0000 0.0000 0.0000
# 2 54.0775 91.3357 42.4737 0.0000 0.0000 0.0000
# 3 66.3140 42.4737 117.8940 0.0000 0.0000 0.0000
# 4 0.0000 0.0000 0.0000 24.0541 0.0000 0.0000
# 5 0.0000 0.0000 0.0000 0.0000 32.2041 0.0000
# 6 0.0000 0.0000 0.0000 0.0000 0.0000 46.8281
#
#
#
# Elastic Compliance Matrix: (Units=1/GPa)
#
#
# Indices 1 2 3 4 5 6 
#
# 1 0.013413 -0.005325 -0.005626 0.000000 0.000000 0.000000
# 2 -0.005325 0.015266 -0.002505 0.000000 0.000000 0.000000
# 3 -0.005626 -0.002505 0.012549 0.000000 0.000000 0.000000
# 4 0.000000 0.000000 0.000000 0.041573 0.000000 0.000000
# 5 0.000000 0.000000 0.000000 0.000000 0.031052 0.000000
# 6 0.000000 0.000000 0.000000 0.000000 0.000000 0.021355
#
#
# Mechanical properties :
#
#
# Convention : Reuss Voigt Hill
#
# Bulk Modulus (GPa) = 69.84945 73.20029 71.52487
# Shear Modulus (GPa) = 29.95972 31.96441 30.96206
#
# Velocity S-wave (km/s) = 4.03220 4.16492 4.09910
# Velocity P-wave (km/s) = 7.71909 7.92801 7.82425
#
# Compressibility (1/GPa) = 0.01431650
#
# Stress axis : x y z
#
# Youngs Moduli (GPa) = 74.55717 65.50433 79.68696
#
# Poissons Ratio (x) = 0.34881 0.44832
# Poissons Ratio (y) = 0.39702 0.19959
# Poissons Ratio (z) = 0.41946 0.16407
#
# Static dielectric constant tensor:
#      x y z
#    x 1.660100 0.000000 0.000000 
#    y 0.000000 1.617210 0.000000 
#    z 0.000000 0.000000 1.676460 
# 
# From -- ./inp_files/11053.got.cif
#   From: 2010.05.17/outbox.cif.g08.bks.cpg/sg71_6_cif.got.tgz:11053.got - 2010.06.03 16:22:01.
