data_PCOD9521336
_publ_section_title
;
Structure prediction by ZEFSAII (Michael W. Deem and Ramdas Pophale) SiO2 
 PCOD9521336
Probable space group: I M M M
;
_chemical_formula_sum "Si O2"
_cell_formula_units_Z 96
_cell_length_a 29.409851
_cell_length_b 7.944505
_cell_length_c 19.220421
_cell_angle_alpha 90.000000
_cell_angle_beta 90.000000
_cell_angle_gamma 90.000000
_cell_volume 4490.788099
_symmetry_space_group_name_H-M "I M M M"
_symmetry_group_IT_number 71
_symmetry_cell_setting 'orthorhombic'
loop_
_space_group_symop_operation_xyz
x,y,z
-x,-y,z
x,-y,-z
-x,y,-z
-x,-y,-z
x,y,-z
-x,y,z
x,-y,z
1/2+x,1/2+y,1/2+z
1/2-x,1/2-y,1/2+z
1/2+x,1/2-y,1/2-z
1/2-x,1/2+y,1/2-z
1/2-x,1/2-y,1/2-z
1/2+x,1/2+y,1/2-z
1/2-x,1/2+y,1/2+z
1/2+x,1/2-y,1/2+z
loop_
_atom_site_type_symbol
_atom_site_label
_atom_site_fract_x
_atom_site_fract_y
_atom_site_fract_z
Si Si1 0.949239 0.200424 0.268336
Si Si2 0.449741 0.804420 0.390457
Si Si3 0.351322 0.201926 0.179148
Si Si4 0.722748 0.701984 0.079080
Si Si5 0.644561 0.307984 0.424530
Si Si6 0.203800 0.310204 0.811154
O O1 0.945917 0.287895 0.193140
O O2 0.903531 0.243666 0.310462
O O3 0.000000 0.242898 0.297332
O O4 0.948603 0.000000 0.256394
O O5 0.500000 0.746237 0.409833
O O6 0.409407 0.700784 0.423128
O O7 0.445013 0.000000 0.409872
O O8 0.327324 0.259393 0.108301
O O9 0.318320 0.268976 0.242033
O O10 0.350472 0.000000 0.183770
O O11 0.729634 0.500000 0.077118
O O12 0.757276 0.768988 0.139216
O O13 0.729360 0.765436 0.000000
O O14 0.661813 0.254506 0.500000
O O15 0.658774 0.500000 0.411067
O O16 0.662070 0.188648 0.364570
O O17 0.218682 0.500000 0.793030
#
# Coordination Sequence:
#
# PCOD9521336 Si02
#       6
#    16  16  16  16  16  16
#     4  10  20  35  58  87 118 152 190 236 289 343
#     4  10  20  34  52  74 103 142 189 239 291 345
#     4  11  22  36  60  92 121 153 194 240 291 345
#     4  10  22  40  61  85 117 158 199 240 290 347
#     4  11  23  35  50  75 108 149 194 241 292 342
#     4  10  21  38  59  84 113 152 198 240 286 340
#
# _framework density 21.377094
#
# number of rings (size 3 to 8) (size 9 to 14) (size 15 to 20)
#    0.000    1.667    1.667    3.000    0.000    6.000 
#    0.000    1.667    0.000    0.500    0.000    3.500 
#    0.000    0.000    0.000    0.000    0.000    0.000 
#
# Total GULP energy -267901.230978 kJ/mol
# GULP energy per Si atom -5581.275645 kJ/mol
# Density = 2.132844 g / cm^3
# Si number density = 21.377094 Si / 1000 Ang^3
#
#
#
# Elastic Constant Matrix: (Units=GPa)
#
#
# Indices 1 2 3 4 5 6 
#
# 1 140.0881 8.8664 60.3573 0.0000 0.0000 0.0000
# 2 8.8664 42.2058 8.3035 0.0000 0.0000 0.0000
# 3 60.3573 8.3035 66.2562 0.0000 0.0000 0.0000
# 4 0.0000 0.0000 0.0000 62.4736 0.0000 0.0000
# 5 0.0000 0.0000 0.0000 0.0000 -130.1892 0.0000
# 6 0.0000 0.0000 0.0000 0.0000 0.0000 25.2661
#
#
#
# Elastic Compliance Matrix: (Units=1/GPa)
#
#
# Indices 1 2 3 4 5 6 
#
# 1 0.011756 -0.000372 -0.010663 0.000000 0.000000 0.000000
# 2 -0.000372 0.024304 -0.002707 0.000000 0.000000 0.000000
# 3 -0.010663 -0.002707 0.025146 0.000000 0.000000 0.000000
# 4 0.000000 0.000000 0.000000 0.016007 0.000000 0.000000
# 5 0.000000 0.000000 0.000000 0.000000 -0.007681 0.000000
# 6 0.000000 0.000000 0.000000 0.000000 0.000000 0.039579
#
#
# Mechanical properties :
#
#
# Convention : Reuss Voigt Hill
#
# Bulk Modulus (GPa) = 29.65402 44.84496 37.24949
# Shear Modulus (GPa) = 33.82170 2.91164 18.36667
#
# Velocity S-wave (km/s) = 3.98194 1.16833 2.93435
# Velocity P-wave (km/s) = 5.91972 4.77950 5.37990
#
# Compressibility (1/GPa) = 0.03372224
#
# Stress axis : x y z
#
# Youngs Moduli (GPa) = 85.06331 41.14528 39.76845
#
# Poissons Ratio (x) = 0.01530 0.42404
# Poissons Ratio (y) = 0.03163 0.10766
# Poissons Ratio (z) = 0.90700 0.11139
#
# Static dielectric constant tensor:
#      x y z
#    x 1.831750 0.000000 0.000000 
#    y 0.000000 1.776020 0.000000 
#    z 0.000000 0.000000 1.764640 
# 
# From -- ./inp_files/10846.got.cif
#   From: 2010.05.17/outbox.cif.g08.bks.cpg/sg71_6_cif.got.tgz:10846.got - 2010.06.03 16:22:01.
