data_PCOD9521603
_publ_section_title
;
Structure prediction by ZEFSAII (Michael W. Deem and Ramdas Pophale) SiO2 
 PCOD9521603
Probable space group: I M M M
;
_chemical_formula_sum "Si O2"
_cell_formula_units_Z 88
_cell_length_a 27.961906
_cell_length_b 19.328243
_cell_length_c 8.662767
_cell_angle_alpha 90.000000
_cell_angle_beta 90.000000
_cell_angle_gamma 90.000000
_cell_volume 4681.831528
_symmetry_space_group_name_H-M "I M M M"
_symmetry_group_IT_number 71
_symmetry_cell_setting 'orthorhombic'
loop_
_space_group_symop_operation_xyz
x,y,z
-x,-y,z
x,-y,-z
-x,y,-z
-x,-y,-z
x,y,-z
-x,y,z
x,-y,z
1/2+x,1/2+y,1/2+z
1/2-x,1/2-y,1/2+z
1/2+x,1/2-y,1/2-z
1/2-x,1/2+y,1/2-z
1/2-x,1/2-y,1/2-z
1/2+x,1/2+y,1/2-z
1/2-x,1/2+y,1/2+z
1/2+x,1/2-y,1/2+z
loop_
_atom_site_type_symbol
_atom_site_label
_atom_site_fract_x
_atom_site_fract_y
_atom_site_fract_z
Si Si1 0.918359 0.648044 0.178681
Si Si2 0.157006 0.164820 0.684644
Si Si3 0.556932 0.000000 0.322533
Si Si4 0.052234 0.208610 0.685367
Si Si5 0.808634 0.693158 0.176891
Si Si6 0.762008 0.921251 0.815411
O O1 0.927495 0.572580 0.248425
O O2 0.942574 0.711282 0.266637
O O3 0.861969 0.661959 0.177029
O O4 0.935653 0.648388 0.000000
O O5 0.157439 0.158518 0.500000
O O6 0.101787 0.173039 0.739272
O O7 0.185447 0.235017 0.731477
O O8 0.185455 0.101955 0.760303
O O9 0.500000 0.000000 0.329085
O O10 0.576115 0.000000 0.500000
O O11 0.052644 0.203884 0.500000
O O12 0.000000 0.182934 0.740250
O O13 0.773914 0.635688 0.246528
O O14 0.794636 0.708618 0.000000
O O15 0.751092 0.000000 0.765498
O O16 0.759407 0.918392 0.000000
#
# Coordination Sequence:
#
# PCOD9521603 Si02
#       6
#    16  16   8  16  16  16
#     4   9  18  30  47  71  99 134 175 217 255 301
#     4  10  20  36  58  81 108 140 176 217 261 313
#     4   9  16  26  41  63  95 133 171 213 256 293
#     4   9  18  33  53  77 104 132 166 211 260 309
#     4  10  20  34  55  79 106 140 180 221 261 312
#     4  11  24  39  55  77 107 140 176 219 268 319
#
# _framework density 18.796064000000001
#
# number of rings (size 3 to 8) (size 9 to 14) (size 15 to 20)
#    0.000    2.273    0.000    2.727    1.273    4.000 
#    0.000    0.455    0.000    2.182    0.000    3.818 
#    0.000    0.000    0.000    0.000    0.000    0.000 
#
# Total GULP energy -245431.941251 kJ/mol
# GULP energy per Si atom -5577.998665 kJ/mol
# Density = 1.875328 g / cm^3
# Si number density = 18.796064 Si / 1000 Ang^3
#
#
#
# Elastic Constant Matrix: (Units=GPa)
#
#
# Indices 1 2 3 4 5 6 
#
# 1 98.0008 23.3968 17.0258 0.0000 0.0000 0.0000
# 2 23.3968 33.4340 4.6703 0.0000 0.0000 0.0000
# 3 17.0258 4.6703 28.9532 0.0000 0.0000 0.0000
# 4 0.0000 0.0000 0.0000 9.7352 0.0000 0.0000
# 5 0.0000 0.0000 0.0000 0.0000 19.6075 0.0000
# 6 0.0000 0.0000 0.0000 0.0000 0.0000 10.3849
#
#
#
# Elastic Compliance Matrix: (Units=1/GPa)
#
#
# Indices 1 2 3 4 5 6 
#
# 1 0.013344 -0.008432 -0.006487 0.000000 0.000000 0.000000
# 2 -0.008432 0.035927 -0.000837 0.000000 0.000000 0.000000
# 3 -0.006487 -0.000837 0.038488 0.000000 0.000000 0.000000
# 4 0.000000 0.000000 0.000000 0.102720 0.000000 0.000000
# 5 0.000000 0.000000 0.000000 0.000000 0.051001 0.000000
# 6 0.000000 0.000000 0.000000 0.000000 0.000000 0.096294
#
#
# Mechanical properties :
#
#
# Convention : Reuss Voigt Hill
#
# Bulk Modulus (GPa) = 17.77842 27.84153 22.80997
# Shear Modulus (GPa) = 12.88548 15.63188 14.25868
#
# Velocity S-wave (km/s) = 2.62113 2.88698 2.75726
# Velocity P-wave (km/s) = 4.31735 5.09484 4.72213
#
# Compressibility (1/GPa) = 0.05624796
#
# Stress axis : x y z
#
# Youngs Moduli (GPa) = 74.94030 27.83417 25.98215
#
# Poissons Ratio (x) = 0.23469 0.16854
# Poissons Ratio (y) = 0.63188 0.02175
# Poissons Ratio (z) = 0.48612 0.02330
#
# Static dielectric constant tensor:
#      x y z
#    x 1.689780 0.000000 0.000000 
#    y 0.000000 1.638000 0.000000 
#    z 0.000000 0.000000 1.655410 
# 
# From -- ./inp_files/16639.got.cif
#   From: 2010.05.17/outbox.cif.g08.bks.cpg/sg71_9_cif.got.tgz:16639.got - 2010.06.03 16:22:01.
