data_PCOD9521954
_publ_section_title
;
Structure prediction by ZEFSAII (Michael W. Deem and Ramdas Pophale) SiO2 
 PCOD9521954
Probable space group: I M M M
;
_chemical_formula_sum "Si O2"
_cell_formula_units_Z 104
_cell_length_a 8.559750
_cell_length_b 27.165755
_cell_length_c 22.397138
_cell_angle_alpha 90.000000
_cell_angle_beta 90.000000
_cell_angle_gamma 90.000000
_cell_volume 5208.052892
_symmetry_space_group_name_H-M "I M M M"
_symmetry_group_IT_number 71
_symmetry_cell_setting 'orthorhombic'
loop_
_space_group_symop_operation_xyz
x,y,z
-x,-y,z
x,-y,-z
-x,y,-z
-x,-y,-z
x,y,-z
-x,y,z
x,-y,z
1/2+x,1/2+y,1/2+z
1/2-x,1/2-y,1/2+z
1/2+x,1/2-y,1/2-z
1/2-x,1/2+y,1/2-z
1/2-x,1/2-y,1/2-z
1/2+x,1/2+y,1/2-z
1/2-x,1/2+y,1/2+z
1/2+x,1/2-y,1/2+z
loop_
_atom_site_type_symbol
_atom_site_label
_atom_site_fract_x
_atom_site_fract_y
_atom_site_fract_z
Si Si1 0.811405 0.218627 0.568498
Si Si2 0.319946 0.059906 0.000000
Si Si3 0.687429 0.603600 0.068137
Si Si4 0.177996 0.059004 0.124685
Si Si5 0.316114 0.728500 0.687501
Si Si6 0.687286 0.945293 0.318170
Si Si7 0.180803 0.625068 0.282463
O O1 0.761662 0.232890 0.500000
O O2 0.767894 0.161025 0.577034
O O3 0.751287 0.248794 0.625851
O O4 0.000000 0.221395 0.568765
O O5 0.227924 0.075344 0.941229
O O6 0.500000 0.076627 0.000000
O O7 0.322990 0.000000 0.000000
O O8 0.500000 0.600579 0.075773
O O9 0.769024 0.568170 0.114800
O O10 0.724385 0.590677 0.000000
O O11 0.300836 0.081636 0.169937
O O12 0.000000 0.074034 0.138673
O O13 0.183797 0.000000 0.126740
O O14 0.500000 0.736900 0.686845
O O15 0.250000 0.750000 0.750000
O O16 0.274727 0.671062 0.692652
O O17 0.500000 0.945923 0.310678
O O18 0.745828 0.900079 0.277576
O O19 0.746273 0.000000 0.301627
O O20 0.000000 0.639569 0.274308
#
# Coordination Sequence:
#
# PCOD9521954 Si02
#       7
#    16   8  16  16  16  16  16
#     4   9  19  39  65  91 121 157 199 248 302 361
#     4   9  17  31  53  79 107 145 189 229 275 331
#     4   9  19  36  59  87 117 151 191 234 282 342
#     4  10  20  35  56  83 115 149 188 236 287 340
#     4  12  25  41  62  89 121 155 197 248 304 365
#     4  10  22  38  56  82 116 153 194 242 291 342
#     4  11  23  40  60  83 112 150 197 244 296 352
#
# _framework density 19.969075
#
# number of rings (size 3 to 8) (size 9 to 14) (size 15 to 20)
#    0.000    1.923    0.000    4.846    0.000    8.000 
#    1.385    3.077    0.000    0.000    0.000    0.000 
#    0.000    0.000    0.000    0.000    0.000    0.000 
#
# Total GULP energy -290191.138821 kJ/mol
# GULP energy per Si atom -5580.598823 kJ/mol
# Density = 1.992362 g / cm^3
# Si number density = 19.969075 Si / 1000 Ang^3
#
#
#
# Elastic Constant Matrix: (Units=GPa)
#
#
# Indices 1 2 3 4 5 6 
#
# 1 39.0769 9.8015 7.6654 0.0000 0.0000 0.0000
# 2 9.8015 32.9620 18.2832 0.0000 0.0000 0.0000
# 3 7.6654 18.2832 86.9025 -0.0001 0.0000 0.0000
# 4 0.0000 0.0000 -0.0001 26.4210 0.0000 0.0000
# 5 0.0000 0.0000 0.0000 0.0000 32.3337 0.0000
# 6 0.0000 0.0000 0.0000 0.0000 0.0000 25.8612
#
#
#
# Elastic Compliance Matrix: (Units=1/GPa)
#
#
# Indices 1 2 3 4 5 6 
#
# 1 0.027703 -0.007791 -0.000804 0.000000 0.000000 0.000000
# 2 -0.007791 0.036537 -0.007000 0.000000 0.000000 0.000000
# 3 -0.000804 -0.007000 0.013051 0.000000 0.000000 0.000000
# 4 0.000000 0.000000 0.000000 0.037849 0.000000 0.000000
# 5 0.000000 0.000000 0.000000 0.000000 0.030928 0.000000
# 6 0.000000 0.000000 0.000000 0.000000 0.000000 0.038668
#
#
# Mechanical properties :
#
#
# Convention : Reuss Voigt Hill
#
# Bulk Modulus (GPa) = 21.69213 25.60465 23.64839
# Shear Modulus (GPa) = 21.61764 25.13594 23.37679
#
# Velocity S-wave (km/s) = 3.29379 3.55173 3.42519
# Velocity P-wave (km/s) = 5.03506 5.44699 5.24507
#
# Compressibility (1/GPa) = 0.04609967
#
# Stress axis : x y z
#
# Youngs Moduli (GPa) = 36.09765 27.36921 76.62392
#
# Poissons Ratio (x) = 0.21325 0.06163
# Poissons Ratio (y) = 0.28125 0.53635
# Poissons Ratio (z) = 0.02904 0.19158
#
# Static dielectric constant tensor:
#      x y z
#    x 1.705060 0.000000 0.000000 
#    y 0.000000 1.699500 0.000000 
#    z 0.000000 0.000000 1.729590 
# 
# From -- ./inp_files/11052.got.cif
#   From: 2010.05.17/outbox.cif.g08.bks.cpg/sg71_6_cif.got.tgz:11052.got - 2010.06.03 16:22:01.
