data_PCOD9521757
_publ_section_title
;
Structure prediction by ZEFSAII (Michael W. Deem and Ramdas Pophale) SiO2 
 PCOD9521757
Probable space group: I M M M
;
_chemical_formula_sum "Si O2"
_cell_formula_units_Z 90
_cell_length_a 20.120532
_cell_length_b 28.465429
_cell_length_c 7.590596
_cell_angle_alpha 90.000000
_cell_angle_beta 90.000000
_cell_angle_gamma 90.000000
_cell_volume 4347.434728
_symmetry_space_group_name_H-M "I M M M"
_symmetry_group_IT_number 71
_symmetry_cell_setting 'orthorhombic'
loop_
_space_group_symop_operation_xyz
x,y,z
-x,-y,z
x,-y,-z
-x,y,-z
-x,-y,-z
x,y,-z
-x,y,z
x,-y,z
1/2+x,1/2+y,1/2+z
1/2-x,1/2-y,1/2+z
1/2+x,1/2-y,1/2-z
1/2-x,1/2+y,1/2-z
1/2-x,1/2-y,1/2-z
1/2+x,1/2+y,1/2-z
1/2-x,1/2+y,1/2+z
1/2+x,1/2-y,1/2+z
loop_
_atom_site_type_symbol
_atom_site_label
_atom_site_fract_x
_atom_site_fract_y
_atom_site_fract_z
Si Si1 0.000000 0.000000 0.000000
Si Si2 0.386676 0.500000 0.196803
Si Si3 0.182990 0.372397 0.291543
Si Si4 0.325463 0.765119 0.290896
Si Si5 0.923583 0.183353 0.784326
Si Si6 0.828775 0.900908 0.214220
Si Si7 0.075800 0.446557 0.715255
O O1 0.057723 0.000000 0.153628
O O2 0.343377 0.546989 0.221159
O O3 0.414872 0.500000 0.000000
O O4 0.186756 0.381467 0.500000
O O5 0.163778 0.318236 0.269548
O O6 0.257352 0.381847 0.223661
O O7 0.128317 0.408378 0.219982
O O8 0.331964 0.764864 0.500000
O O9 0.250000 0.750000 0.250000
O O10 0.378491 0.727077 0.222968
O O11 0.886478 0.135421 0.731693
O O12 0.000000 0.185578 0.726870
O O13 0.923938 0.183902 0.000000
O O14 0.829113 0.901580 0.000000
O O15 0.075659 0.445622 0.500000
O O16 0.092891 0.500000 0.766621
O O17 0.000000 0.436706 0.770599
#
# Coordination Sequence:
#
# PCOD9521757 Si02
#       7
#     2   8  16  16  16  16  16
#     4  12  26  52  68  90 132 184 200 272 320 370
#     4  12  27  43  67  98 128 166 219 262 315 381
#     4  10  20  34  59  88 116 157 201 245 313 376
#     4  11  21  37  57  82 114 149 192 248 300 359
#     4   9  19  35  59  83 110 156 206 244 299 374
#     4  10  20  38  61  87 122 162 205 259 312 372
#     4   8  15  29  51  82 118 155 199 248 294 356
#
# _framework density 20.701861999999998
#
# number of rings (size 3 to 8) (size 9 to 14) (size 15 to 20)
#    0.000    2.133    2.667    1.200    2.489    1.422 
#    0.000    0.000    0.000    3.733    0.000    1.244 
#    0.000    0.000    0.000    0.000    0.000    0.000 
#
# Total GULP energy -251083.075822 kJ/mol
# GULP energy per Si atom -5579.623907 kJ/mol
# Density = 2.065474 g / cm^3
# Si number density = 20.701862 Si / 1000 Ang^3
#
#
#
# Elastic Constant Matrix: (Units=GPa)
#
#
# Indices 1 2 3 4 5 6 
#
# 1 168.2618 124.1035 10.4496 0.0000 0.0000 0.0000
# 2 124.1035 188.6222 -0.9126 0.0000 0.0000 0.0000
# 3 10.4496 -0.9126 63.6380 0.0000 0.0000 0.0000
# 4 0.0000 0.0000 0.0000 19.1422 0.0000 0.0000
# 5 0.0000 0.0000 0.0000 0.0000 1.8614 0.0000
# 6 0.0000 0.0000 0.0000 0.0000 0.0000 -11.8215
#
#
#
# Elastic Compliance Matrix: (Units=1/GPa)
#
#
# Indices 1 2 3 4 5 6 
#
# 1 0.011808 -0.007779 -0.002050 0.000000 0.000000 0.000000
# 2 -0.007779 0.010427 0.001427 0.000000 0.000000 0.000000
# 3 -0.002050 0.001427 0.016071 0.000000 0.000000 0.000000
# 4 0.000000 0.000000 0.000000 0.052241 0.000000 0.000000
# 5 0.000000 0.000000 0.000000 0.000000 0.537232 0.000000
# 6 0.000000 0.000000 0.000000 0.000000 0.000000 -0.084591
#
#
# Mechanical properties :
#
#
# Convention : Reuss Voigt Hill
#
# Bulk Modulus (GPa) = 46.51047 76.42255 61.46651
# Shear Modulus (GPa) = 8.81588 20.96185 14.88886
#
# Velocity S-wave (km/s) = 2.06585 3.18552 2.68471
# Velocity P-wave (km/s) = 5.31092 7.10817 6.27423
#
# Compressibility (1/GPa) = 0.02150053
#
# Stress axis : x y z
#
# Youngs Moduli (GPa) = 84.68931 95.90851 62.22377
#
# Poissons Ratio (x) = 0.74606 0.12759
# Poissons Ratio (y) = 0.65879 -0.08878
# Poissons Ratio (z) = 0.17365 -0.13685
#
# Static dielectric constant tensor:
#      x y z
#    x 1.712890 0.000000 0.000000 
#    y 0.000000 1.700130 0.000000 
#    z 0.000000 0.000000 1.793480 
# 
# From -- ./inp_files/10533.got.cif
#   From: 2010.05.17/outbox.cif.g08.bks.cpg/sg71_6_cif.got.tgz:10533.got - 2010.06.03 16:22:01.
