data_PCOD9521060
_publ_section_title
;
Structure prediction by ZEFSAII (Michael W. Deem and Ramdas Pophale) SiO2 
 PCOD9521060
Probable space group: I M M M
;
_chemical_formula_sum "Si O2"
_cell_formula_units_Z 72
_cell_length_a 13.423862
_cell_length_b 8.965244
_cell_length_c 32.218174
_cell_angle_alpha 90.000000
_cell_angle_beta 90.000000
_cell_angle_gamma 90.000000
_cell_volume 3877.399192
_symmetry_space_group_name_H-M "I M M M"
_symmetry_group_IT_number 71
_symmetry_cell_setting 'orthorhombic'
loop_
_space_group_symop_operation_xyz
x,y,z
-x,-y,z
x,-y,-z
-x,y,-z
-x,-y,-z
x,y,-z
-x,y,z
x,-y,z
1/2+x,1/2+y,1/2+z
1/2-x,1/2-y,1/2+z
1/2+x,1/2-y,1/2-z
1/2-x,1/2+y,1/2-z
1/2-x,1/2-y,1/2-z
1/2+x,1/2+y,1/2-z
1/2-x,1/2+y,1/2+z
1/2+x,1/2-y,1/2+z
loop_
_atom_site_type_symbol
_atom_site_label
_atom_site_fract_x
_atom_site_fract_y
_atom_site_fract_z
Si Si1 0.177330 0.678214 0.809089
Si Si2 0.888880 0.179852 0.105561
Si Si3 0.500000 0.327957 0.050569
Si Si4 0.705356 0.179459 0.951515
Si Si5 0.110377 0.821261 0.276903
O O1 0.166338 0.500000 0.810516
O O2 0.130063 0.751888 0.849325
O O3 0.128617 0.740943 0.767010
O O4 0.295392 0.716031 0.805729
O O5 0.800553 0.228145 0.074980
O O6 0.000000 0.220456 0.090916
O O7 0.884732 0.000000 0.108497
O O8 0.500000 0.500000 0.063102
O O9 0.398140 0.249144 0.064038
O O10 0.500000 0.320520 0.000000
O O11 0.697628 0.000000 0.949438
O O12 0.718337 0.219886 0.000000
O O13 0.000000 0.783923 0.292943
O O14 0.114319 0.000000 0.270007
#
# Coordination Sequence:
#
# PCOD9521060 Si02
#       5
#    16  16   8  16  16
#     4  10  20  33  51  76 104 134 172 214 258 311
#     4  10  21  36  53  75 106 141 176 216 264 314
#     4   9  17  31  53  79 105 133 167 209 261 317
#     4   9  18  34  56  79 104 137 178 220 260 307
#     4   9  18  34  54  73  98 133 171 212 259 309
#
# _framework density 18.569147000000001
#
# number of rings (size 3 to 8) (size 9 to 14) (size 15 to 20)
#    0.000    2.556    0.000    1.667    0.000    7.111 
#    2.000    2.222    0.000    0.000    0.000    4.667 
#    0.000    0.000    0.000    0.000    0.000    0.000 
#
# Total GULP energy -200835.744821 kJ/mol
# GULP energy per Si atom -5578.770689 kJ/mol
# Density = 1.852688 g / cm^3
# Si number density = 18.569147 Si / 1000 Ang^3
#
#
#
# Elastic Constant Matrix: (Units=GPa)
#
#
# Indices 1 2 3 4 5 6 
#
# 1 169.7535 35.7686 37.5649 0.0000 0.0000 0.0000
# 2 35.7686 12.4407 13.2081 0.0000 0.0000 0.0000
# 3 37.5649 13.2081 36.2229 0.0000 0.0000 0.0000
# 4 0.0000 0.0000 0.0000 14.4319 0.0000 0.0000
# 5 0.0000 0.0000 0.0000 0.0000 17.5932 0.0000
# 6 0.0000 0.0000 0.0000 0.0000 0.0000 19.7765
#
#
#
# Elastic Compliance Matrix: (Units=1/GPa)
#
#
# Indices 1 2 3 4 5 6 
#
# 1 0.014946 -0.043266 0.000276 0.000000 0.000000 0.000000
# 2 -0.043266 0.256399 -0.048623 0.000000 0.000000 0.000000
# 3 0.000276 -0.048623 0.045050 0.000000 0.000000 0.000000
# 4 0.000000 0.000000 0.000000 0.069291 0.000000 0.000000
# 5 0.000000 0.000000 0.000000 0.000000 0.056840 0.000000
# 6 0.000000 0.000000 0.000000 0.000000 0.000000 0.050565
#
#
# Mechanical properties :
#
#
# Convention : Reuss Voigt Hill
#
# Bulk Modulus (GPa) = 7.50922 43.50005 25.50463
# Shear Modulus (GPa) = 6.93763 19.15201 13.04482
#
# Velocity S-wave (km/s) = 1.93500 3.21501 2.65335
# Velocity P-wave (km/s) = 3.00749 6.10398 4.81163
#
# Compressibility (1/GPa) = 0.13316970
#
# Stress axis : x y z
#
# Youngs Moduli (GPa) = 66.90645 3.90018 22.19749
#
# Poissons Ratio (x) = 0.16874 -0.00613
# Poissons Ratio (y) = 2.89475 1.07931
# Poissons Ratio (z) = -0.01848 0.18964
#
# Static dielectric constant tensor:
#      x y z
#    x 1.671930 0.000000 0.000000 
#    y 0.000000 1.618550 0.000000 
#    z 0.000000 0.000000 1.605800 
# 
# From -- ./inp_files/65155.got.cif
#   From: 2010.05.17/outbox.cif.g08.bks.cpg/sg71_33_cif.got.tgz:65155.got - 2010.06.03 16:22:01.
