data_PCOD9521440
_publ_section_title
;
Structure prediction by ZEFSAII (Michael W. Deem and Ramdas Pophale) SiO2 
 PCOD9521440
Probable space group: I M M M
;
_chemical_formula_sum "Si O2"
_cell_formula_units_Z 104
_cell_length_a 31.132733
_cell_length_b 8.040575
_cell_length_c 19.709684
_cell_angle_alpha 90.000000
_cell_angle_beta 90.000000
_cell_angle_gamma 90.000000
_cell_volume 4933.828118
_symmetry_space_group_name_H-M "I M M M"
_symmetry_group_IT_number 71
_symmetry_cell_setting 'orthorhombic'
loop_
_space_group_symop_operation_xyz
x,y,z
-x,-y,z
x,-y,-z
-x,y,-z
-x,-y,-z
x,y,-z
-x,y,z
x,-y,z
1/2+x,1/2+y,1/2+z
1/2-x,1/2-y,1/2+z
1/2+x,1/2-y,1/2-z
1/2-x,1/2+y,1/2-z
1/2-x,1/2-y,1/2-z
1/2+x,1/2+y,1/2-z
1/2-x,1/2+y,1/2+z
1/2+x,1/2-y,1/2+z
loop_
_atom_site_type_symbol
_atom_site_label
_atom_site_fract_x
_atom_site_fract_y
_atom_site_fract_z
Si Si1 0.500000 0.201345 0.267090
Si Si2 0.906546 0.800284 0.574425
Si Si3 0.416638 0.201342 0.354628
Si Si4 0.000000 0.804370 0.613327
Si Si5 0.242092 0.204027 0.922668
Si Si6 0.450126 0.796944 0.500000
Si Si7 0.174255 0.695850 0.345579
Si Si8 0.823281 0.196004 0.193256
O O1 0.457489 0.247552 0.308822
O O2 0.500000 0.283150 0.193931
O O3 0.500000 0.000000 0.259533
O O4 0.891244 0.742726 0.500000
O O5 0.954741 0.734147 0.586948
O O6 0.872457 0.758577 0.632309
O O7 0.909330 0.000000 0.573158
O O8 0.426551 0.255968 0.431467
O O9 0.372520 0.271438 0.326341
O O10 0.413815 0.000000 0.354007
O O11 0.000000 0.000000 0.595148
O O12 0.288326 0.261810 0.894794
O O13 0.206803 0.259809 0.867714
O O14 0.241699 0.000000 0.922991
O O15 0.234143 0.257711 0.000000
O O16 0.500000 0.744101 0.500000
O O17 0.450820 0.000000 0.500000
O O18 0.173150 0.500000 0.355136
O O19 0.185171 0.730353 0.267422
O O20 0.815641 0.000000 0.198966
#
# Coordination Sequence:
#
# PCOD9521440 Si02
#       8
#     8  16  16   8  16   8  16  16
#     4  10  20  34  53  77 108 149 192 235 278 328
#     4  10  21  38  60  86 117 152 190 233 283 340
#     4  10  20  35  56  82 112 147 192 237 284 339
#     4  10  21  36  55  79 113 153 188 223 277 338
#     4   9  20  39  61  85 114 149 187 231 287 345
#     4   9  16  32  57  81 109 151 193 237 289 340
#     4  11  22  39  63  87 114 150 193 237 283 338
#     4  11  23  38  59  85 117 153 189 234 288 343
#
# _framework density 21.078965
#
# number of rings (size 3 to 8) (size 9 to 14) (size 15 to 20)
#    0.000    1.923    0.769    3.000    1.077    5.538 
#    0.000    2.308    0.000    5.538    0.000    0.000 
#    0.000    0.000    0.000    0.000    0.000    0.000 
#
# Total GULP energy -290551.147236 kJ/mol
# GULP energy per Si atom -5587.522062 kJ/mol
# Density = 2.103099 g / cm^3
# Si number density = 21.078965 Si / 1000 Ang^3
#
#
#
# Elastic Constant Matrix: (Units=GPa)
#
#
# Indices 1 2 3 4 5 6 
#
# 1 116.8036 6.4456 43.5368 0.0000 0.0000 0.0000
# 2 6.4456 12.1172 0.1207 0.0000 0.0000 0.0000
# 3 43.5368 0.1207 129.3791 0.0000 0.0000 0.0000
# 4 0.0000 0.0000 0.0000 -2.7296 0.0000 0.0000
# 5 0.0000 0.0000 0.0000 0.0000 82.4657 0.0000
# 6 0.0000 0.0000 0.0000 0.0000 0.0000 22.5117
#
#
#
# Elastic Compliance Matrix: (Units=1/GPa)
#
#
# Indices 1 2 3 4 5 6 
#
# 1 0.010125 -0.005352 -0.003402 0.000000 0.000000 0.000000
# 2 -0.005352 0.085357 0.001721 0.000000 0.000000 0.000000
# 3 -0.003402 0.001721 0.008872 0.000000 0.000000 0.000000
# 4 0.000000 0.000000 0.000000 -0.366360 0.000000 0.000000
# 5 0.000000 0.000000 0.000000 0.000000 0.012126 0.000000
# 6 0.000000 0.000000 0.000000 0.000000 0.000000 0.044421
#
#
# Mechanical properties :
#
#
# Convention : Reuss Voigt Hill
#
# Bulk Modulus (GPa) = 11.07552 39.83400 25.45476
# Shear Modulus (GPa) = -30.99884 34.32935 1.66525
#
# Velocity S-wave (km/s) = -3.83901 4.03998 0.88979
# Velocity P-wave (km/s) = 3.79275 6.37969 3.62736
#
# Compressibility (1/GPa) = 0.09028921
#
# Stress axis : x y z
#
# Youngs Moduli (GPa) = 98.76763 11.71547 112.70872
#
# Poissons Ratio (x) = 0.06270 0.38344
# Poissons Ratio (y) = 0.52859 -0.19401
# Poissons Ratio (z) = 0.33601 -0.02017
#
# Static dielectric constant tensor:
#      x y z
#    x 1.748890 0.000000 0.000000 
#    y 0.000000 1.753670 0.000000 
#    z 0.000000 0.000000 1.739260 
# 
# From -- ./inp_files/56296.got.cif
#   From: 2010.05.17/outbox.cif.g08.bks.cpg/sg71_29_cif.got.tgz:56296.got - 2010.06.03 16:22:01.
