data_PCOD9521601
_publ_section_title
;
Structure prediction by ZEFSAII (Michael W. Deem and Ramdas Pophale) SiO2 
 PCOD9521601
Probable space group: I M M M
;
_chemical_formula_sum "Si O2"
_cell_formula_units_Z 88
_cell_length_a 14.831008
_cell_length_b 26.151951
_cell_length_c 14.079591
_cell_angle_alpha 90.000000
_cell_angle_beta 90.000000
_cell_angle_gamma 90.000000
_cell_volume 5460.907272
_symmetry_space_group_name_H-M "I M M M"
_symmetry_group_IT_number 71
_symmetry_cell_setting 'orthorhombic'
loop_
_space_group_symop_operation_xyz
x,y,z
-x,-y,z
x,-y,-z
-x,y,-z
-x,-y,-z
x,y,-z
-x,y,z
x,-y,z
1/2+x,1/2+y,1/2+z
1/2-x,1/2-y,1/2+z
1/2+x,1/2-y,1/2-z
1/2-x,1/2+y,1/2-z
1/2-x,1/2-y,1/2-z
1/2+x,1/2+y,1/2-z
1/2-x,1/2+y,1/2+z
1/2+x,1/2-y,1/2+z
loop_
_atom_site_type_symbol
_atom_site_label
_atom_site_fract_x
_atom_site_fract_y
_atom_site_fract_z
Si Si1 0.844925 0.090732 0.250300
Si Si2 0.500000 0.057797 0.386153
Si Si3 0.890395 0.208619 0.234510
Si Si4 0.500000 0.438887 0.106466
Si Si5 0.391166 0.500000 0.388849
Si Si6 0.689611 0.106116 0.390279
Si Si7 0.742362 0.774946 0.608604
O O1 0.866936 0.148659 0.219303
O O2 0.856697 0.050130 0.166431
O O3 0.751768 0.085185 0.306320
O O4 0.915555 0.078724 0.333472
O O5 0.500000 0.052800 0.500000
O O6 0.589205 0.089446 0.364836
O O7 0.500000 0.000000 0.346548
O O8 0.835069 0.225092 0.330019
O O9 0.836569 0.240650 0.154703
O O10 0.000000 0.215339 0.237543
O O11 0.500000 0.500000 0.102353
O O12 0.500000 0.417965 0.000000
O O13 0.500000 0.500000 0.380697
O O14 0.367510 0.500000 0.500000
O O15 0.709695 0.088456 0.500000
O O16 0.706459 0.166776 0.390133
O O17 0.759481 0.760002 0.500000
#
# Coordination Sequence:
#
# PCOD9521601 Si02
#       7
#    16   8  16   8   8  16  16
#     4  11  19  36  51  76 106 138 174 213 261 312
#     4   9  18  30  45  74 108 138 173 201 236 309
#     4  10  20  34  55  78 105 137 179 222 261 319
#     4  11  20  30  49  78 110 138 165 200 256 327
#     4  11  22  36  52  71 104 143 179 216 253 299
#     4   9  19  33  52  77 108 138 166 210 266 319
#     4   9  20  36  52  77 107 138 175 218 269 317
#
# _framework density 16.114540000000002
#
# number of rings (size 3 to 8) (size 9 to 14) (size 15 to 20)
#    0.000    2.091    2.727    0.545    2.545    2.182 
#    0.000    0.000    0.000    0.000    0.000    1.273 
#    0.000    0.000    0.000    0.000    0.000    0.000 
#
# Total GULP energy -245056.876492 kJ/mol
# GULP energy per Si atom -5569.474466 kJ/mol
# Density = 1.607786 g / cm^3
# Si number density = 16.114540 Si / 1000 Ang^3
#
#
#
# Elastic Constant Matrix: (Units=GPa)
#
#
# Indices 1 2 3 4 5 6 
#
# 1 135.4432 33.9967 57.0877 0.0000 0.0000 0.0000
# 2 33.9967 49.1820 51.5071 -0.0001 0.0000 0.0000
# 3 57.0877 51.5071 131.2649 -0.0001 0.0000 0.0000
# 4 0.0000 -0.0001 -0.0001 -33.3320 0.0000 0.0000
# 5 0.0000 0.0000 0.0000 0.0000 24.6246 0.0000
# 6 0.0000 0.0000 0.0000 0.0000 0.0000 23.9387
#
#
#
# Elastic Compliance Matrix: (Units=1/GPa)
#
#
# Indices 1 2 3 4 5 6 
#
# 1 0.009436 -0.003777 -0.002622 0.000000 0.000000 0.000000
# 2 -0.003777 0.036029 -0.012495 0.000000 0.000000 0.000000
# 3 -0.002622 -0.012495 0.013661 0.000000 0.000000 0.000000
# 4 0.000000 0.000000 0.000000 -0.030001 0.000000 0.000000
# 5 0.000000 0.000000 0.000000 0.000000 0.040610 0.000000
# 6 0.000000 0.000000 0.000000 0.000000 0.000000 0.041773
#
#
# Mechanical properties :
#
#
# Convention : Reuss Voigt Hill
#
# Bulk Modulus (GPa) = 46.86197 66.78589 56.82393
# Shear Modulus (GPa) = 31.96756 14.59950 23.28353
#
# Velocity S-wave (km/s) = 4.45879 3.01322 3.80528
# Velocity P-wave (km/s) = 7.45999 7.32396 7.39229
#
# Compressibility (1/GPa) = 0.02133926
#
# Stress axis : x y z
#
# Youngs Moduli (GPa) = 105.97402 27.75553 73.19974
#
# Poissons Ratio (x) = 0.10483 0.19192
# Poissons Ratio (y) = 0.40026 0.91461
# Poissons Ratio (z) = 0.27785 0.34680
#
# Static dielectric constant tensor:
#      x y z
#    x 1.969760 0.000000 0.000000 
#    y 0.000000 1.559020 0.000000 
#    z 0.000000 0.000000 1.540780 
# 
# From -- ./inp_files/35015.got.cif
#   From: 2010.05.17/outbox.cif.g08.bks.cpg/sg71_18_cif.got.tgz:35015.got - 2010.06.03 16:22:01.
