data_PCOD9521225
_publ_section_title
;
Structure prediction by ZEFSAII (Michael W. Deem and Ramdas Pophale) SiO2 
 PCOD9521225
Probable space group: I M M M
;
_chemical_formula_sum "Si O2"
_cell_formula_units_Z 72
_cell_length_a 15.995541
_cell_length_b 24.671035
_cell_length_c 7.525123
_cell_angle_alpha 90.000000
_cell_angle_beta 90.000000
_cell_angle_gamma 90.000000
_cell_volume 2969.613342
_symmetry_space_group_name_H-M "I M M M"
_symmetry_group_IT_number 71
_symmetry_cell_setting 'orthorhombic'
loop_
_space_group_symop_operation_xyz
x,y,z
-x,-y,z
x,-y,-z
-x,y,-z
-x,-y,-z
x,y,-z
-x,y,z
x,-y,z
1/2+x,1/2+y,1/2+z
1/2-x,1/2-y,1/2+z
1/2+x,1/2-y,1/2-z
1/2-x,1/2+y,1/2-z
1/2-x,1/2-y,1/2-z
1/2+x,1/2+y,1/2-z
1/2-x,1/2+y,1/2+z
1/2+x,1/2-y,1/2+z
loop_
_atom_site_type_symbol
_atom_site_label
_atom_site_fract_x
_atom_site_fract_y
_atom_site_fract_z
Si Si1 0.630649 0.941877 0.293343
Si Si2 0.500000 0.730998 0.253026
Si Si3 0.000000 0.104318 0.219376
Si Si4 0.000000 0.352742 0.219158
Si Si5 0.183874 0.914298 0.207029
Si Si6 0.174897 0.789224 0.710416
O O1 0.607091 0.943516 0.500000
O O2 0.580613 0.889221 0.227819
O O3 0.731270 0.938163 0.285187
O O4 0.606039 0.000000 0.212796
O O5 0.500000 0.665431 0.199289
O O6 0.500000 0.793991 0.190714
O O7 0.405604 0.729805 0.317878
O O8 0.912181 0.075853 0.269353
O O9 0.000000 0.110770 0.000000
O O10 0.000000 0.343614 0.000000
O O11 0.194831 0.850106 0.235478
O O12 0.184765 0.928488 0.000000
O O13 0.153875 0.786879 0.500000
O O14 0.250000 0.750000 0.750000
#
# Coordination Sequence:
#
# PCOD9521225 Si02
#       6
#    16   8   8   8  16  16
#     4  10  21  38  59  83 112 148 192 240 287 334
#     4  10  20  33  54  83 116 150 184 226 277 331
#     4   8  17  33  53  81 114 145 178 220 274 340
#     4  10  20  35  57  82 111 151 194 233 276 332
#     4  10  20  36  58  82 109 143 184 231 283 335
#     4  11  22  36  54  80 114 150 187 226 273 331
#
# _framework density 24.24558
#
# number of rings (size 3 to 8) (size 9 to 14) (size 15 to 20)
#    0.000    2.000    0.000    3.667    0.000    6.222 
#    0.000    3.889    0.000    4.667    0.000    0.000 
#    0.000    0.000    0.000    0.000    0.000    0.000 
#
# Total GULP energy -200448.742321 kJ/mol
# GULP energy per Si atom -5568.020620 kJ/mol
# Density = 2.419040 g / cm^3
# Si number density = 24.245580 Si / 1000 Ang^3
#
#
#
# Elastic Constant Matrix: (Units=GPa)
#
#
# Indices 1 2 3 4 5 6 
#
# 1 167.4799 30.2777 7.5233 0.0000 -0.0001 -0.0001
# 2 30.2777 113.9255 2.3519 0.0000 -0.0001 0.0000
# 3 7.5233 2.3519 98.1407 0.0001 -0.0011 -0.0007
# 4 0.0000 0.0000 0.0001 -4.2400 -0.0003 0.0000
# 5 -0.0001 -0.0001 -0.0011 -0.0003 -88.0322 0.0003
# 6 -0.0001 0.0000 -0.0007 0.0000 0.0003 253.1545
#
#
#
# Elastic Compliance Matrix: (Units=1/GPa)
#
#
# Indices 1 2 3 4 5 6 
#
# 1 0.006291 -0.001663 -0.000442 0.000000 0.000000 0.000000
# 2 -0.001663 0.009222 -0.000094 0.000000 0.000000 0.000000
# 3 -0.000442 -0.000094 0.010226 0.000000 0.000000 0.000000
# 4 0.000000 0.000000 0.000000 -0.235848 0.000001 0.000000
# 5 0.000000 0.000000 0.000000 0.000001 -0.011359 0.000000
# 6 0.000000 0.000000 0.000000 0.000000 0.000000 0.003950
#
#
# Mechanical properties :
#
#
# Convention : Reuss Voigt Hill
#
# Bulk Modulus (GPa) = 46.85859 51.09465 48.97662
# Shear Modulus (GPa) = -24.27098 54.80268 15.26585
#
# Velocity S-wave (km/s) = -3.16737 4.75944 2.51197
# Velocity P-wave (km/s) = 2.44792 7.16397 5.35326
#
# Compressibility (1/GPa) = 0.02134081
#
# Stress axis : x y z
#
# Youngs Moduli (GPa) = 158.94794 108.44174 97.79368
#
# Poissons Ratio (x) = 0.18033 0.04327
# Poissons Ratio (y) = 0.26432 0.00915
# Poissons Ratio (z) = 0.07032 0.01014
#
# Static dielectric constant tensor:
#      x y z
#    x 1.959030 0.000000 0.000000 
#    y 0.000000 1.957340 0.000000 
#    z 0.000000 0.000000 2.424850 
# 
# From -- ./inp_files/6114.got.cif
#   From: 2010.05.17/outbox.cif.g08.bks.cpg/sg71_4_cif.got.tgz:6114.got - 2010.06.03 16:22:01.
