data_PCOD9521969
_publ_section_title
;
Structure prediction by ZEFSAII (Michael W. Deem and Ramdas Pophale) SiO2 
 PCOD9521969
Probable space group: I M M M
;
_chemical_formula_sum "Si O2"
_cell_formula_units_Z 56
_cell_length_a 9.998086
_cell_length_b 28.623778
_cell_length_c 8.396253
_cell_angle_alpha 90.000000
_cell_angle_beta 90.000000
_cell_angle_gamma 90.000000
_cell_volume 2402.864823
_symmetry_space_group_name_H-M "I M M M"
_symmetry_group_IT_number 71
_symmetry_cell_setting 'orthorhombic'
loop_
_space_group_symop_operation_xyz
x,y,z
-x,-y,z
x,-y,-z
-x,y,-z
-x,-y,-z
x,y,-z
-x,y,z
x,-y,z
1/2+x,1/2+y,1/2+z
1/2-x,1/2-y,1/2+z
1/2+x,1/2-y,1/2-z
1/2-x,1/2+y,1/2-z
1/2-x,1/2-y,1/2-z
1/2+x,1/2+y,1/2-z
1/2-x,1/2+y,1/2+z
1/2+x,1/2-y,1/2+z
loop_
_atom_site_type_symbol
_atom_site_label
_atom_site_fract_x
_atom_site_fract_y
_atom_site_fract_z
Si Si1 0.000000 0.176360 0.685697
Si Si2 0.500000 0.222573 0.317718
Si Si3 0.208374 0.446784 0.187199
Si Si4 0.209596 0.348483 0.686415
Si Si5 0.000000 0.054653 0.179704
O O1 0.000000 0.232158 0.707307
O O2 0.134858 0.157519 0.767202
O O3 0.000000 0.163630 0.500000
O O4 0.500000 0.238769 0.500000
O O5 0.372839 0.189989 0.283286
O O6 0.173462 0.500000 0.241921
O O7 0.155722 0.400515 0.273514
O O8 0.366480 0.439669 0.218419
O O9 0.177944 0.444438 0.000000
O O10 0.192560 0.339805 0.500000
O O11 0.000000 0.000000 0.149699
O O12 0.000000 0.076727 0.000000
#
# Coordination Sequence:
#
# PCOD9521969 Si02
#       5
#     8   8  16  16   8
#     4  12  25  45  71 100 132 169 215 267 325 386
#     4  12  26  47  70  96 131 170 214 267 328 390
#     4  10  20  35  56  85 123 167 213 262 317 377
#     4  12  25  43  67  98 133 172 218 267 323 385
#     4   9  16  27  46  75 112 154 200 253 310 365
#
# _framework density 23.305515
#
# number of rings (size 3 to 8) (size 9 to 14) (size 15 to 20)
#    0.000    1.000    0.000    8.143    0.000    3.429 
#    0.000    0.714    0.000    4.286    0.000    0.000 
#    0.000    0.000    0.000    0.000    0.000    0.000 
#
# Total GULP energy -156549.318901 kJ/mol
# GULP energy per Si atom -5591.047104 kJ/mol
# Density = 2.325247 g / cm^3
# Si number density = 23.305515 Si / 1000 Ang^3
#
#
#
# Elastic Constant Matrix: (Units=GPa)
#
#
# Indices 1 2 3 4 5 6 
#
# 1 103.2571 11.9708 -1.6065 0.0007 -0.0006 0.0004
# 2 11.9708 134.7027 -17.6841 -0.0006 0.0002 0.0007
# 3 -1.6065 -17.6841 85.0032 0.0025 -0.0017 -0.0001
# 4 0.0007 -0.0006 0.0025 43.3748 -0.0003 -0.0002
# 5 -0.0006 0.0002 -0.0017 -0.0003 13.8799 0.0115
# 6 0.0004 0.0007 -0.0001 -0.0002 0.0115 86.4070
#
#
#
# Elastic Compliance Matrix: (Units=1/GPa)
#
#
# Indices 1 2 3 4 5 6 
#
# 1 0.009785 -0.000869 0.000004 0.000000 0.000000 0.000000
# 2 -0.000869 0.007709 0.001587 0.000000 0.000000 0.000000
# 3 0.000004 0.001587 0.012095 -0.000001 0.000001 0.000000
# 4 0.000000 0.000000 -0.000001 0.023055 0.000000 0.000000
# 5 0.000000 0.000000 0.000001 0.000000 0.072047 -0.000010
# 6 0.000000 0.000000 0.000000 0.000000 -0.000010 0.011573
#
#
# Mechanical properties :
#
#
# Convention : Reuss Voigt Hill
#
# Bulk Modulus (GPa) = 32.22234 34.25817 33.24025
# Shear Modulus (GPa) = 34.44379 50.75118 42.59748
#
# Velocity S-wave (km/s) = 3.84855 4.67159 4.27990
# Velocity P-wave (km/s) = 5.79694 6.62041 6.22231
#
# Compressibility (1/GPa) = 0.03103437
#
# Stress axis : x y z
#
# Youngs Moduli (GPa) = 102.19330 129.71192 82.68156
#
# Poissons Ratio (x) = 0.11273 -0.00034
# Poissons Ratio (y) = 0.08881 -0.13125
# Poissons Ratio (z) = -0.00042 -0.20591
#
# Static dielectric constant tensor:
#      x y z
#    x 1.844040 0.000000 0.000000 
#    y 0.000000 1.914320 0.000000 
#    z 0.000000 0.000000 1.803870 
# 
# From -- ./inp_files/3404.got.cif
#   From: 2010.05.17/outbox.cif.g08.bks.cpg/sg71_2_cif.got.tgz:3404.got - 2010.06.03 16:22:01.
