data_PCOD9521830
_publ_section_title
;
Structure prediction by ZEFSAII (Michael W. Deem and Ramdas Pophale) SiO2 
 PCOD9521830
Probable space group: I M M M
;
_chemical_formula_sum "Si O2"
_cell_formula_units_Z 68
_cell_length_a 23.657722
_cell_length_b 15.772438
_cell_length_c 7.455645
_cell_angle_alpha 90.000000
_cell_angle_beta 90.000000
_cell_angle_gamma 90.000000
_cell_volume 2781.999028
_symmetry_space_group_name_H-M "I M M M"
_symmetry_group_IT_number 71
_symmetry_cell_setting 'orthorhombic'
loop_
_space_group_symop_operation_xyz
x,y,z
-x,-y,z
x,-y,-z
-x,y,-z
-x,-y,-z
x,y,-z
-x,y,z
x,-y,z
1/2+x,1/2+y,1/2+z
1/2-x,1/2-y,1/2+z
1/2+x,1/2-y,1/2-z
1/2-x,1/2+y,1/2-z
1/2-x,1/2-y,1/2-z
1/2+x,1/2+y,1/2-z
1/2-x,1/2+y,1/2+z
1/2+x,1/2-y,1/2+z
loop_
_atom_site_type_symbol
_atom_site_label
_atom_site_fract_x
_atom_site_fract_y
_atom_site_fract_z
Si Si1 0.921859 0.403825 0.297555
Si Si2 0.319833 0.674456 0.219436
Si Si3 0.701762 0.869502 0.703966
Si Si4 0.561146 0.400094 0.782339
Si Si5 0.500000 0.830586 0.500000
O O1 0.938685 0.383601 0.500000
O O2 0.939365 0.500000 0.250134
O O3 0.854014 0.403711 0.295025
O O4 0.950591 0.341657 0.156922
O O5 0.308218 0.768229 0.289546
O O6 0.265501 0.618127 0.273958
O O7 0.381150 0.642809 0.278661
O O8 0.319333 0.677475 0.000000
O O9 0.700615 0.899556 0.500000
O O10 0.500000 0.365929 0.717626
O O11 0.563149 0.500000 0.738455
O O12 0.560775 0.394204 0.000000
#
# Coordination Sequence:
#
# PCOD9521830 Si02
#       5
#    16  16  16  16   4
#     4  11  23  39  61  87 117 156 199 243 294 352
#     4   9  18  33  54  79 111 151 193 240 295 351
#     4  10  20  35  54  78 113 153 195 245 293 343
#     4   8  14  27  49  78 109 138 176 231 291 350
#     4  12  23  42  64  86 122 156 189 244 301 350
#
# _framework density 24.442857
#
# number of rings (size 3 to 8) (size 9 to 14) (size 15 to 20)
#    0.000    2.353    1.176    2.824    0.000    2.824 
#    2.118    2.353    0.000    0.706    0.000    1.647 
#    0.000    0.000    0.000    0.000    0.000    0.000 
#
# Total GULP energy -189512.664073 kJ/mol
# GULP energy per Si atom -5573.901885 kJ/mol
# Density = 2.438722 g / cm^3
# Si number density = 24.442857 Si / 1000 Ang^3
#
#
#
# Elastic Constant Matrix: (Units=GPa)
#
#
# Indices 1 2 3 4 5 6 
#
# 1 267.1044 47.8313 26.5962 0.0000 0.0000 0.0000
# 2 47.8313 36.3871 -0.2000 0.0000 0.0000 0.0000
# 3 26.5962 -0.2000 83.9048 0.0000 0.0000 0.0000
# 4 0.0000 0.0000 0.0000 17.2937 0.0000 0.0000
# 5 0.0000 0.0000 0.0000 0.0000 -70.9938 0.0000
# 6 0.0000 0.0000 0.0000 0.0000 0.0000 37.4379
#
#
#
# Elastic Compliance Matrix: (Units=1/GPa)
#
#
# Indices 1 2 3 4 5 6 
#
# 1 0.005112 -0.006728 -0.001636 0.000000 0.000000 0.000000
# 2 -0.006728 0.036339 0.002219 0.000000 0.000000 0.000000
# 3 -0.001636 0.002219 0.012442 0.000000 0.000000 0.000000
# 4 0.000000 0.000000 0.000000 0.057824 0.000000 0.000000
# 5 0.000000 0.000000 0.000000 0.000000 -0.014086 0.000000
# 6 0.000000 0.000000 0.000000 0.000000 0.000000 0.026711
#
#
# Mechanical properties :
#
#
# Convention : Reuss Voigt Hill
#
# Bulk Modulus (GPa) = 24.03716 59.53904 41.78810
# Shear Modulus (GPa) = 33.22249 17.62549 25.42399
#
# Velocity S-wave (km/s) = 3.69072 2.68822 3.22862
# Velocity P-wave (km/s) = 5.29313 5.83496 5.57064
#
# Compressibility (1/GPa) = 0.04160225
#
# Stress axis : x y z
#
# Youngs Moduli (GPa) = 195.63148 27.51870 80.37138
#
# Poissons Ratio (x) = 0.18515 0.13151
# Poissons Ratio (y) = 1.31627 -0.17837
# Poissons Ratio (z) = 0.32012 -0.06107
#
# Static dielectric constant tensor:
#      x y z
#    x 1.993680 0.000000 0.000000 
#    y 0.000000 1.957010 0.000000 
#    z 0.000000 0.000000 1.889340 
# 
# From -- ./inp_files/12197.got.cif
#   From: 2010.05.17/outbox.cif.g08.bks.cpg/sg71_7_cif.got.tgz:12197.got - 2010.06.03 16:22:01.
