data_PCOD9521338
_publ_section_title
;
Structure prediction by ZEFSAII (Michael W. Deem and Ramdas Pophale) SiO2 
 PCOD9521338
Probable space group: I M M M
;
_chemical_formula_sum "Si O2"
_cell_formula_units_Z 104
_cell_length_a 9.032648
_cell_length_b 24.484296
_cell_length_c 26.464835
_cell_angle_alpha 90.000000
_cell_angle_beta 90.000000
_cell_angle_gamma 90.000000
_cell_volume 5852.910701
_symmetry_space_group_name_H-M "I M M M"
_symmetry_group_IT_number 71
_symmetry_cell_setting 'orthorhombic'
loop_
_space_group_symop_operation_xyz
x,y,z
-x,-y,z
x,-y,-z
-x,y,-z
-x,-y,-z
x,y,-z
-x,y,z
x,-y,z
1/2+x,1/2+y,1/2+z
1/2-x,1/2-y,1/2+z
1/2+x,1/2-y,1/2-z
1/2-x,1/2+y,1/2-z
1/2-x,1/2-y,1/2-z
1/2+x,1/2+y,1/2-z
1/2-x,1/2+y,1/2+z
1/2+x,1/2-y,1/2+z
loop_
_atom_site_type_symbol
_atom_site_label
_atom_site_fract_x
_atom_site_fract_y
_atom_site_fract_z
Si Si1 0.821904 0.139629 0.057405
Si Si2 0.322689 0.667443 0.181669
Si Si3 0.178662 0.063765 0.848470
Si Si4 0.825904 0.560804 0.141970
Si Si5 0.329477 0.846038 0.783478
Si Si6 0.674875 0.500000 0.940500
Si Si7 0.170930 0.268213 0.618489
O O1 0.778269 0.093575 0.098662
O O2 0.761262 0.197498 0.077532
O O3 0.000000 0.141270 0.057547
O O4 0.772394 0.128400 0.000000
O O5 0.500000 0.669966 0.183892
O O6 0.264045 0.607359 0.169348
O O7 0.255349 0.679916 0.236356
O O8 0.273584 0.709533 0.137852
O O9 0.252425 0.098804 0.803786
O O10 0.000000 0.067556 0.843973
O O11 0.219499 0.000000 0.848124
O O12 0.809432 0.500000 0.165858
O O13 0.755212 0.550909 0.086601
O O14 0.000000 0.573170 0.139522
O O15 0.500000 0.856617 0.769516
O O16 0.326783 0.804900 0.830702
O O17 0.500000 0.500000 0.928430
O O18 0.693326 0.500000 0.000000
O O19 0.000000 0.263248 0.601913
#
# Coordination Sequence:
#
# PCOD9521338 Si02
#       7
#    16  16  16  16  16   8  16
#     4   9  18  33  54  79 106 138 175 218 267 313
#     4  11  21  34  54  77 103 135 176 218 261 315
#     4   9  18  33  52  76 107 141 179 218 258 310
#     4   9  20  35  52  76 105 133 167 208 255 307
#     4  10  20  34  52  74 104 138 173 215 266 314
#     4   9  17  33  57  79 101 131 165 203 250 301
#     4   9  20  36  53  76 103 135 174 217 262 315
#
# _framework density 17.768937000000001
#
# number of rings (size 3 to 8) (size 9 to 14) (size 15 to 20)
#    0.462    2.077    0.000    1.846    0.000    4.000 
#    0.000    2.308    0.000    0.923    0.000    4.308 
#    0.000    0.000    0.000    0.000    0.000    0.000 
#
# Total GULP energy -289684.608088 kJ/mol
# GULP energy per Si atom -5570.857848 kJ/mol
# Density = 1.772849 g / cm^3
# Si number density = 17.768937 Si / 1000 Ang^3
#
#
#
# Elastic Constant Matrix: (Units=GPa)
#
#
# Indices 1 2 3 4 5 6 
#
# 1 38.8124 18.7581 8.6961 0.0000 0.0000 0.0000
# 2 18.7581 76.0152 4.1420 0.0000 0.0000 0.0000
# 3 8.6961 4.1420 27.8779 0.0000 0.0000 0.0000
# 4 0.0000 0.0000 0.0000 15.3156 0.0000 0.0000
# 5 0.0000 0.0000 0.0000 0.0000 25.4964 0.0000
# 6 0.0000 0.0000 0.0000 0.0000 0.0000 23.5490
#
#
#
# Elastic Compliance Matrix: (Units=1/GPa)
#
#
# Indices 1 2 3 4 5 6 
#
# 1 0.031197 -0.007227 -0.008658 0.000000 0.000000 0.000000
# 2 -0.007227 0.014937 0.000035 0.000000 0.000000 0.000000
# 3 -0.008658 0.000035 0.038566 0.000000 0.000000 0.000000
# 4 0.000000 0.000000 0.000000 0.065293 0.000000 0.000000
# 5 0.000000 0.000000 0.000000 0.000000 0.039221 0.000000
# 6 0.000000 0.000000 0.000000 0.000000 0.000000 0.042465
#
#
# Mechanical properties :
#
#
# Convention : Reuss Voigt Hill
#
# Bulk Modulus (GPa) = 18.86750 22.87753 20.87251
# Shear Modulus (GPa) = 17.79071 20.27948 19.03510
#
# Velocity S-wave (km/s) = 3.16765 3.38196 3.27656
# Velocity P-wave (km/s) = 4.90102 5.30596 5.10750
#
# Compressibility (1/GPa) = 0.05300121
#
# Stress axis : x y z
#
# Youngs Moduli (GPa) = 32.05388 66.94925 25.92944
#
# Poissons Ratio (x) = 0.48383 0.22449
# Poissons Ratio (y) = 0.23165 -0.00091
# Poissons Ratio (z) = 0.27752 -0.00235
#
# Static dielectric constant tensor:
#      x y z
#    x 1.598610 0.000000 0.000000 
#    y 0.000000 1.624520 0.000000 
#    z 0.000000 0.000000 1.613160 
# 
# From -- ./inp_files/68447.got.cif
#   From: 2010.05.17/outbox.cif.g08.bks.cpg/sg71_35_cif.got.tgz:68447.got - 2010.06.03 16:22:01.
