data_PCOD9521573
_publ_section_title
;
Structure prediction by ZEFSAII (Michael W. Deem and Ramdas Pophale) SiO2 
 PCOD9521573
Probable space group: I M M M
;
_chemical_formula_sum "Si O2"
_cell_formula_units_Z 96
_cell_length_a 30.652716
_cell_length_b 12.488819
_cell_length_c 13.968332
_cell_angle_alpha 90.000000
_cell_angle_beta 90.000000
_cell_angle_gamma 90.000000
_cell_volume 5347.304084
_symmetry_space_group_name_H-M "I M M M"
_symmetry_group_IT_number 71
_symmetry_cell_setting 'orthorhombic'
loop_
_space_group_symop_operation_xyz
x,y,z
-x,-y,z
x,-y,-z
-x,y,-z
-x,-y,-z
x,y,-z
-x,y,z
x,-y,z
1/2+x,1/2+y,1/2+z
1/2-x,1/2-y,1/2+z
1/2+x,1/2-y,1/2-z
1/2-x,1/2+y,1/2-z
1/2-x,1/2-y,1/2-z
1/2+x,1/2+y,1/2-z
1/2-x,1/2+y,1/2+z
1/2+x,1/2-y,1/2+z
loop_
_atom_site_type_symbol
_atom_site_label
_atom_site_fract_x
_atom_site_fract_y
_atom_site_fract_z
Si Si1 0.331943 0.000000 0.884893
Si Si2 0.047250 0.622974 0.184701
Si Si3 0.548074 0.799550 0.893707
Si Si4 0.642865 0.759511 0.888946
Si Si5 0.859633 0.624709 0.885631
Si Si6 0.202112 0.788606 0.779705
Si Si7 0.270204 0.500000 0.384914
O O1 0.353442 0.113912 0.858993
O O2 0.281170 0.000000 0.855843
O O3 0.333008 0.000000 0.000000
O O4 0.046862 0.500000 0.152074
O O5 0.048527 0.626683 0.300229
O O6 0.092555 0.668081 0.145558
O O7 0.000000 0.671138 0.156378
O O8 0.500000 0.746670 0.892274
O O9 0.591802 0.729884 0.884000
O O10 0.552007 0.851590 0.000000
O O11 0.673404 0.696768 0.816257
O O12 0.656987 0.751088 0.000000
O O13 0.855648 0.500000 0.853879
O O14 0.822478 0.697690 0.840386
O O15 0.857028 0.626286 0.000000
O O16 0.250000 0.750000 0.750000
O O17 0.207611 0.895129 0.841495
O O18 0.271954 0.500000 0.500000
#
# Coordination Sequence:
#
# PCOD9521573 Si02
#       7
#     8  16  16  16  16  16   8
#     4   9  18  32  51  77 110 150 184 222 275 339
#     4   9  17  29  48  77 114 151 184 223 278 346
#     4   9  17  28  45  75 112 146 179 220 272 336
#     4  10  20  34  54  82 114 148 186 227 279 342
#     4  10  22  38  57  83 114 148 191 242 290 340
#     4  12  24  37  62  82 111 150 196 238 288 337
#     4  11  24  42  59  82 114 155 201 238 281 341
#
# _framework density 17.952971999999999
#
# number of rings (size 3 to 8) (size 9 to 14) (size 15 to 20)
#    0.000    2.000    3.333    0.500    3.500    1.333 
#    0.000    3.750    0.000    0.000    0.000    2.333 
#    0.000    6.667    0.000    0.000    0.000    0.000 
#
# Total GULP energy -267397.840191 kJ/mol
# GULP energy per Si atom -5570.788337 kJ/mol
# Density = 1.791211 g / cm^3
# Si number density = 17.952972 Si / 1000 Ang^3
#
#
#
# Elastic Constant Matrix: (Units=GPa)
#
#
# Indices 1 2 3 4 5 6 
#
# 1 169.3497 44.9459 55.2945 0.0000 0.0000 0.0000
# 2 44.9459 53.6610 31.8110 0.0000 0.0000 0.0000
# 3 55.2945 31.8110 85.9846 0.0000 0.0000 0.0000
# 4 0.0000 0.0000 0.0000 27.5406 0.0000 0.0000
# 5 0.0000 0.0000 0.0000 0.0000 28.7303 0.0000
# 6 0.0000 0.0000 0.0000 0.0000 0.0000 14.9086
#
#
#
# Elastic Compliance Matrix: (Units=1/GPa)
#
#
# Indices 1 2 3 4 5 6 
#
# 1 0.008370 -0.004893 -0.003572 0.000000 0.000000 0.000000
# 2 -0.004893 0.026731 -0.006743 0.000000 0.000000 0.000000
# 3 -0.003572 -0.006743 0.016422 0.000000 0.000000 0.000000
# 4 0.000000 0.000000 0.000000 0.036310 0.000000 0.000000
# 5 0.000000 0.000000 0.000000 0.000000 0.034806 0.000000
# 6 0.000000 0.000000 0.000000 0.000000 0.000000 0.067075
#
#
# Mechanical properties :
#
#
# Convention : Reuss Voigt Hill
#
# Bulk Modulus (GPa) = 47.37863 63.67757 55.52810
# Shear Modulus (GPa) = 22.01029 26.03216 24.02123
#
# Velocity S-wave (km/s) = 3.50522 3.81204 3.66185
# Velocity P-wave (km/s) = 6.54445 7.41092 6.99112
#
# Compressibility (1/GPa) = 0.02110656
#
# Stress axis : x y z
#
# Youngs Moduli (GPa) = 119.47561 37.40970 60.89432
#
# Poissons Ratio (x) = 0.18304 0.21753
# Poissons Ratio (y) = 0.58457 0.41061
# Poissons Ratio (z) = 0.42680 0.25225
#
# Static dielectric constant tensor:
#      x y z
#    x 1.664680 0.000000 0.000000 
#    y 0.000000 1.584410 0.000000 
#    z 0.000000 0.000000 1.652550 
# 
# From -- ./inp_files/40890.got.cif
#   From: 2010.05.17/outbox.cif.g08.bks.cpg/sg71_21_cif.got.tgz:40890.got - 2010.06.03 16:22:01.
