data_PCOD9521155
_publ_section_title
;
Structure prediction by ZEFSAII (Michael W. Deem and Ramdas Pophale) SiO2 
 PCOD9521155
Probable space group: I M M M
;
_chemical_formula_sum "Si O2"
_cell_formula_units_Z 80
_cell_length_a 9.296322
_cell_length_b 26.917999
_cell_length_c 17.772699
_cell_angle_alpha 90.000000
_cell_angle_beta 90.000000
_cell_angle_gamma 90.000000
_cell_volume 4447.411518
_symmetry_space_group_name_H-M "I M M M"
_symmetry_group_IT_number 71
_symmetry_cell_setting 'orthorhombic'
loop_
_space_group_symop_operation_xyz
x,y,z
-x,-y,z
x,-y,-z
-x,y,-z
-x,-y,-z
x,y,-z
-x,y,z
x,-y,z
1/2+x,1/2+y,1/2+z
1/2-x,1/2-y,1/2+z
1/2+x,1/2-y,1/2-z
1/2-x,1/2+y,1/2-z
1/2-x,1/2-y,1/2-z
1/2+x,1/2+y,1/2-z
1/2-x,1/2+y,1/2+z
1/2+x,1/2-y,1/2+z
loop_
_atom_site_type_symbol
_atom_site_label
_atom_site_fract_x
_atom_site_fract_y
_atom_site_fract_z
Si Si1 0.833149 0.555711 0.408483
Si Si2 0.332209 0.654371 0.408964
Si Si3 0.169267 0.554357 0.091361
Si Si4 0.827244 0.254762 0.329684
Si Si5 0.170627 0.151422 0.411956
O O1 0.830264 0.555317 0.500000
O O2 0.790226 0.500000 0.383848
O O3 0.733362 0.601230 0.384499
O O4 0.000000 0.563932 0.386618
O O5 0.323057 0.656917 0.500000
O O6 0.500000 0.658572 0.387832
O O7 0.239918 0.698772 0.373910
O O8 0.221519 0.500000 0.117586
O O9 0.250005 0.602977 0.119840
O O10 0.000000 0.557929 0.107874
O O11 0.183750 0.554291 0.000000
O O12 0.750000 0.250000 0.250000
O O13 0.796242 0.203240 0.372647
O O14 0.000000 0.260138 0.323145
O O15 0.208926 0.156263 0.500000
O O16 0.000000 0.143070 0.406999
#
# Coordination Sequence:
#
# PCOD9521155 Si02
#       5
#    16  16  16  16  16
#     4   8  14  26  46  73 104 136 168 203 247 298
#     4  10  20  33  52  79 107 135 170 210 252 302
#     4   8  14  25  43  70 102 131 158 192 236 285
#     4  11  23  38  54  72  99 134 172 215 261 308
#     4   9  18  32  51  75 100 128 163 202 245 293
#
# _framework density 17.987991000000001
#
# number of rings (size 3 to 8) (size 9 to 14) (size 15 to 20)
#    0.000    2.800    0.000    3.000    0.000    4.400 
#    0.000    6.000    0.000    1.200    0.000    5.600 
#    0.000    0.000    0.000    0.000    0.000    0.000 
#
# Total GULP energy -222937.066113 kJ/mol
# GULP energy per Si atom -5573.426653 kJ/mol
# Density = 1.794705 g / cm^3
# Si number density = 17.987991 Si / 1000 Ang^3
#
#
#
# Elastic Constant Matrix: (Units=GPa)
#
#
# Indices 1 2 3 4 5 6 
#
# 1 86.6744 103.2522 33.7688 0.0000 0.0000 0.0000
# 2 103.2522 205.4046 43.2463 0.0000 0.0000 0.0000
# 3 33.7688 43.2463 22.7978 0.0000 0.0000 0.0000
# 4 0.0000 0.0000 0.0000 -8.5572 0.0000 0.0000
# 5 0.0000 0.0000 0.0000 0.0000 18.5793 0.0000
# 6 0.0000 0.0000 0.0000 0.0000 0.0000 32.4812
#
#
#
# Elastic Compliance Matrix: (Units=1/GPa)
#
#
# Indices 1 2 3 4 5 6 
#
# 1 0.041317 -0.013127 -0.036300 0.000000 0.000000 0.000000
# 2 -0.013127 0.012276 -0.003844 0.000000 0.000000 0.000000
# 3 -0.036300 -0.003844 0.104924 0.000000 0.000000 0.000000
# 4 0.000000 0.000000 0.000000 -0.116860 0.000000 0.000000
# 5 0.000000 0.000000 0.000000 0.000000 0.053823 0.000000
# 6 0.000000 0.000000 0.000000 0.000000 0.000000 0.030787
#
#
# Mechanical properties :
#
#
# Convention : Reuss Voigt Hill
#
# Bulk Modulus (GPa) = 19.23938 75.04570 47.14254
# Shear Modulus (GPa) = 19.98925 17.47462 18.73193
#
# Velocity S-wave (km/s) = 3.33717 3.12021 3.23051
# Velocity P-wave (km/s) = 5.05646 7.40212 6.33874
#
# Compressibility (1/GPa) = 0.05197671
#
# Stress axis : x y z
#
# Youngs Moduli (GPa) = 24.20282 81.45873 9.53072
#
# Poissons Ratio (x) = 1.06928 0.34597
# Poissons Ratio (y) = 0.31770 0.03663
# Poissons Ratio (z) = 0.87857 0.31310
#
# Static dielectric constant tensor:
#      x y z
#    x 1.599880 0.000000 0.000000 
#    y 0.000000 1.623040 0.000000 
#    z 0.000000 0.000000 1.614200 
# 
# From -- ./inp_files/8326.got.cif
#   From: 2010.05.17/outbox.cif.g08.bks.cpg/sg71_5_cif.got.tgz:8326.got - 2010.06.03 16:22:01.
