data_PCOD9521229
_publ_section_title
;
Structure prediction by ZEFSAII (Michael W. Deem and Ramdas Pophale) SiO2 
 PCOD9521229
Probable space group: I M M M
;
_chemical_formula_sum "Si O2"
_cell_formula_units_Z 112
_cell_length_a 23.311488
_cell_length_b 13.914112
_cell_length_c 15.342298
_cell_angle_alpha 90.000000
_cell_angle_beta 90.000000
_cell_angle_gamma 90.000000
_cell_volume 4976.407143
_symmetry_space_group_name_H-M "I M M M"
_symmetry_group_IT_number 71
_symmetry_cell_setting 'orthorhombic'
loop_
_space_group_symop_operation_xyz
x,y,z
-x,-y,z
x,-y,-z
-x,y,-z
-x,-y,-z
x,y,-z
-x,y,z
x,-y,z
1/2+x,1/2+y,1/2+z
1/2-x,1/2-y,1/2+z
1/2+x,1/2-y,1/2-z
1/2-x,1/2+y,1/2-z
1/2-x,1/2-y,1/2-z
1/2+x,1/2+y,1/2-z
1/2-x,1/2+y,1/2+z
1/2+x,1/2-y,1/2+z
loop_
_atom_site_type_symbol
_atom_site_label
_atom_site_fract_x
_atom_site_fract_y
_atom_site_fract_z
Si Si1 0.217842 0.699020 0.351607
Si Si2 0.431720 0.708181 0.288513
Si Si3 0.896555 0.387727 0.900301
Si Si4 0.268732 0.887390 0.660425
Si Si5 0.899306 0.603211 0.600341
Si Si6 0.435509 0.306925 0.100178
Si Si7 0.337611 0.606152 0.602260
O O1 0.218745 0.813671 0.368693
O O2 0.213700 0.662638 0.252049
O O3 0.165506 0.643317 0.395112
O O4 0.280419 0.666455 0.381447
O O5 0.500000 0.693464 0.291341
O O6 0.419466 0.817268 0.324141
O O7 0.409560 0.666481 0.194157
O O8 0.393993 0.648769 0.355892
O O9 0.912292 0.500000 0.886377
O O10 0.826955 0.383160 0.895667
O O11 0.914137 0.360545 0.000000
O O12 0.253076 0.000000 0.668889
O O13 0.913283 0.589920 0.500000
O O14 0.904419 0.500000 0.645858
O O15 0.938018 0.692941 0.623949
O O16 0.500000 0.346340 0.095886
O O17 0.412076 0.317058 0.000000
O O18 0.346225 0.602154 0.500000
O O19 0.325853 0.500000 0.637354
#
# Coordination Sequence:
#
# PCOD9521229 Si02
#       7
#    16  16  16  16  16  16  16
#     4  11  21  35  58  86 120 159 202 252 302 354
#     4  11  23  39  62  89 118 157 207 259 310 368
#     4  10  21  38  59  85 123 167 207 250 305 370
#     4  10  21  35  55  83 115 158 204 246 296 356
#     4  10  20  33  54  85 117 152 197 244 292 354
#     4   9  20  39  61  87 121 159 198 247 313 377
#     4  11  24  41  62  89 124 165 206 252 311 371
#
# _framework density 22.506198000000001
#
# number of rings (size 3 to 8) (size 9 to 14) (size 15 to 20)
#    0.000    1.714    1.429    3.000    2.000    5.429 
#    0.000    4.286    0.000    0.429    0.000    2.000 
#    0.000    0.000    0.000    0.000    0.000    0.286 
#
# Total GULP energy -311869.671072 kJ/mol
# GULP energy per Si atom -5569.101269 kJ/mol
# Density = 2.245497 g / cm^3
# Si number density = 22.506198 Si / 1000 Ang^3
#
#
#
# Elastic Constant Matrix: (Units=GPa)
#
#
# Indices 1 2 3 4 5 6 
#
# 1 73.7557 8.3374 11.8678 0.0000 0.0000 0.0000
# 2 8.3374 76.5118 -3.4988 0.0000 0.0000 0.0000
# 3 11.8678 -3.4988 114.0547 0.0000 0.0000 0.0000
# 4 0.0000 0.0000 0.0000 12.4131 0.0000 0.0000
# 5 0.0000 0.0000 0.0000 0.0000 36.0562 0.0000
# 6 0.0000 0.0000 0.0000 0.0000 0.0000 56.0222
#
#
#
# Elastic Compliance Matrix: (Units=1/GPa)
#
#
# Indices 1 2 3 4 5 6 
#
# 1 0.013980 -0.001592 -0.001504 0.000000 0.000000 0.000000
# 2 -0.001592 0.013270 0.000573 0.000000 0.000000 0.000000
# 3 -0.001504 0.000573 0.008942 0.000000 0.000000 0.000000
# 4 0.000000 0.000000 0.000000 0.080560 0.000000 0.000000
# 5 0.000000 0.000000 0.000000 0.000000 0.027735 0.000000
# 6 0.000000 0.000000 0.000000 0.000000 0.000000 0.017850
#
#
# Mechanical properties :
#
#
# Convention : Reuss Voigt Hill
#
# Bulk Modulus (GPa) = 32.10730 33.08168 32.59449
# Shear Modulus (GPa) = 28.12718 37.40601 32.76659
#
# Velocity S-wave (km/s) = 3.53902 4.08122 3.81975
# Velocity P-wave (km/s) = 5.56745 6.07778 5.82820
#
# Compressibility (1/GPa) = 0.03114556
#
# Stress axis : x y z
#
# Youngs Moduli (GPa) = 71.52982 75.36044 111.83511
#
# Poissons Ratio (x) = 0.11999 0.16815
# Poissons Ratio (y) = 0.11389 -0.06405
# Poissons Ratio (z) = 0.10755 -0.04316
#
# Static dielectric constant tensor:
#      x y z
#    x 1.805950 0.000000 0.000000 
#    y 0.000000 1.986850 0.000000 
#    z 0.000000 0.000000 1.857090 
# 
# From -- ./inp_files/39245.got.cif
#   From: 2010.05.17/outbox.cif.g08.bks.cpg/sg71_20_cif.got.tgz:39245.got - 2010.06.03 16:22:01.
