data_PCOD9521063
_publ_section_title
;
Structure prediction by ZEFSAII (Michael W. Deem and Ramdas Pophale) SiO2 
 PCOD9521063
Probable space group: I M M M
;
_chemical_formula_sum "Si O2"
_cell_formula_units_Z 72
_cell_length_a 33.704980
_cell_length_b 8.306770
_cell_length_c 13.749721
_cell_angle_alpha 90.000000
_cell_angle_beta 90.000000
_cell_angle_gamma 90.000000
_cell_volume 3849.640241
_symmetry_space_group_name_H-M "I M M M"
_symmetry_group_IT_number 71
_symmetry_cell_setting 'orthorhombic'
loop_
_space_group_symop_operation_xyz
x,y,z
-x,-y,z
x,-y,-z
-x,y,-z
-x,-y,-z
x,y,-z
-x,y,z
x,-y,z
1/2+x,1/2+y,1/2+z
1/2-x,1/2-y,1/2+z
1/2+x,1/2-y,1/2-z
1/2-x,1/2+y,1/2-z
1/2-x,1/2-y,1/2-z
1/2+x,1/2+y,1/2-z
1/2-x,1/2+y,1/2+z
1/2+x,1/2-y,1/2+z
loop_
_atom_site_type_symbol
_atom_site_label
_atom_site_fract_x
_atom_site_fract_y
_atom_site_fract_z
Si Si1 0.500000 0.306572 0.385697
Si Si2 0.131995 0.303416 0.609973
Si Si3 0.207515 0.681647 0.278887
Si Si4 0.082673 0.693195 0.799851
Si Si5 0.159078 0.815313 0.888854
O O1 0.500000 0.500000 0.385363
O O2 0.500000 0.254075 0.500000
O O3 0.538749 0.244605 0.328897
O O4 0.122930 0.251968 0.500000
O O5 0.133325 0.500000 0.610875
O O6 0.175967 0.245391 0.643885
O O7 0.099736 0.259088 0.692705
O O8 0.214572 0.500000 0.310999
O O9 0.250000 0.750000 0.250000
O O10 0.182147 0.694373 0.180303
O O11 0.086050 0.500000 0.807246
O O12 0.112913 0.777455 0.874346
O O13 0.167192 0.000000 0.858443
O O14 0.170798 0.797474 0.000000
#
# Coordination Sequence:
#
# PCOD9521063 Si02
#       5
#     8  16  16  16  16
#     4  11  23  37  54  77 108 144 173 203 254 319
#     4   8  16  33  55  76 100 134 175 215 259 313
#     4  10  20  33  51  76 105 137 175 220 265 310
#     4  10  20  34  55  81 105 132 170 217 262 306
#     4  10  20  34  52  73 101 138 173 208 258 316
#
# _framework density 18.703047000000002
#
# number of rings (size 3 to 8) (size 9 to 14) (size 15 to 20)
#    0.000    2.333    0.000    4.333    0.000    6.222 
#    0.000    2.778    0.000   26.667    0.000    0.000 
#    0.000    0.000    0.000    0.000    0.000    0.000 
#
# Total GULP energy -200561.122391 kJ/mol
# GULP energy per Si atom -5571.142289 kJ/mol
# Density = 1.866048 g / cm^3
# Si number density = 18.703047 Si / 1000 Ang^3
#
#
#
# Elastic Constant Matrix: (Units=GPa)
#
#
# Indices 1 2 3 4 5 6 
#
# 1 119.9349 -1.6663 29.1677 0.0000 0.0000 0.0000
# 2 -1.6663 22.3878 10.1558 0.0000 0.0000 0.0000
# 3 29.1677 10.1558 98.8597 0.0000 0.0000 0.0000
# 4 0.0000 0.0000 0.0000 9.3546 0.0000 0.0000
# 5 0.0000 0.0000 0.0000 0.0000 8.4490 0.0000
# 6 0.0000 0.0000 0.0000 0.0000 0.0000 31.7160
#
#
#
# Elastic Compliance Matrix: (Units=1/GPa)
#
#
# Indices 1 2 3 4 5 6 
#
# 1 0.009065 0.001980 -0.002878 0.000000 0.000000 0.000000
# 2 0.001980 0.047283 -0.005442 0.000000 0.000000 0.000000
# 3 -0.002878 -0.005442 0.011524 0.000000 0.000000 0.000000
# 4 0.000000 0.000000 0.000000 0.106900 0.000000 0.000000
# 5 0.000000 0.000000 0.000000 0.000000 0.118357 0.000000
# 6 0.000000 0.000000 0.000000 0.000000 0.000000 0.031530
#
#
# Mechanical properties :
#
#
# Convention : Reuss Voigt Hill
#
# Bulk Modulus (GPa) = 18.11823 35.16630 26.64227
# Shear Modulus (GPa) = 14.05543 23.47228 18.76386
#
# Velocity S-wave (km/s) = 2.74433 3.54644 3.17085
# Velocity P-wave (km/s) = 4.44412 5.96765 5.26132
#
# Compressibility (1/GPa) = 0.05519303
#
# Stress axis : x y z
#
# Youngs Moduli (GPa) = 110.31066 21.14924 86.77908
#
# Poissons Ratio (x) = -0.04188 0.24976
# Poissons Ratio (y) = -0.21845 0.47222
# Poissons Ratio (z) = 0.31748 0.11509
#
# Static dielectric constant tensor:
#      x y z
#    x 1.678880 0.000000 0.000000 
#    y 0.000000 1.681660 0.000000 
#    z 0.000000 0.000000 1.649220 
# 
# From -- ./inp_files/14300.got.cif
#   From: 2010.05.17/outbox.cif.g08.bks.cpg/sg71_8_cif.got.tgz:14300.got - 2010.06.03 16:22:01.
