data_PCOD9521809
_publ_section_title
;
Structure prediction by ZEFSAII (Michael W. Deem and Ramdas Pophale) SiO2 
 PCOD9521809
Probable space group: I M M M
;
_chemical_formula_sum "Si O2"
_cell_formula_units_Z 72
_cell_length_a 28.420141
_cell_length_b 7.944259
_cell_length_c 16.845020
_cell_angle_alpha 90.000000
_cell_angle_beta 90.000000
_cell_angle_gamma 90.000000
_cell_volume 3803.217422
_symmetry_space_group_name_H-M "I M M M"
_symmetry_group_IT_number 71
_symmetry_cell_setting 'orthorhombic'
loop_
_space_group_symop_operation_xyz
x,y,z
-x,-y,z
x,-y,-z
-x,y,-z
-x,-y,-z
x,y,-z
-x,y,z
x,-y,z
1/2+x,1/2+y,1/2+z
1/2-x,1/2-y,1/2+z
1/2+x,1/2-y,1/2-z
1/2-x,1/2+y,1/2-z
1/2-x,1/2-y,1/2-z
1/2+x,1/2+y,1/2-z
1/2-x,1/2+y,1/2+z
1/2+x,1/2-y,1/2+z
loop_
_atom_site_type_symbol
_atom_site_label
_atom_site_fract_x
_atom_site_fract_y
_atom_site_fract_z
Si Si1 0.893003 0.298307 0.660150
Si Si2 0.642191 0.703199 0.587721
Si Si3 0.195955 0.699207 0.244950
Si Si4 0.552750 0.703853 0.318511
Si Si5 0.444815 0.793485 0.000000
O O1 0.888928 0.500000 0.651400
O O2 0.841836 0.231699 0.690006
O O3 0.927739 0.261339 0.733423
O O4 0.916544 0.236322 0.578640
O O5 0.654219 0.765639 0.500000
O O6 0.642126 0.500000 0.585492
O O7 0.676586 0.754813 0.658183
O O8 0.590330 0.759119 0.615657
O O9 0.194092 0.500000 0.253497
O O10 0.250000 0.750000 0.250000
O O11 0.500000 0.764042 0.332100
O O12 0.552461 0.500000 0.318422
O O13 0.500000 0.741850 0.000000
O O14 0.445272 0.000000 0.000000
#
# Coordination Sequence:
#
# PCOD9521809 Si02
#       5
#    16  16  16  16   8
#     4   9  18  32  50  72  97 129 168 207 247 298
#     4   9  18  33  52  74 100 131 167 205 247 296
#     4  10  20  35  54  74  99 130 167 210 258 308
#     4   9  17  29  47  72 102 134 165 200 244 293
#     4   9  16  28  49  75 101 127 161 205 246 291
#
# _framework density 18.931339000000001
#
# number of rings (size 3 to 8) (size 9 to 14) (size 15 to 20)
#    0.000    2.778    0.000    1.333    0.000    3.111 
#    2.000    2.778    0.000    2.000    0.000    6.222 
#    0.000    0.000    0.000    0.000    0.000    0.000 
#
# Total GULP energy -200641.360933 kJ/mol
# GULP energy per Si atom -5573.371137 kJ/mol
# Density = 1.888825 g / cm^3
# Si number density = 18.931339 Si / 1000 Ang^3
#
#
#
# Elastic Constant Matrix: (Units=GPa)
#
#
# Indices 1 2 3 4 5 6 
#
# 1 195.6109 13.3011 94.3722 0.0000 0.0000 0.0000
# 2 13.3011 13.5596 14.8647 0.0000 0.0000 0.0000
# 3 94.3722 14.8647 133.3957 0.0000 0.0000 0.0000
# 4 0.0000 0.0000 0.0000 20.2408 0.0000 0.0000
# 5 0.0000 0.0000 0.0000 0.0000 9.2654 0.0000
# 6 0.0000 0.0000 0.0000 0.0000 0.0000 15.6306
#
#
#
# Elastic Compliance Matrix: (Units=1/GPa)
#
#
# Indices 1 2 3 4 5 6 
#
# 1 0.007801 -0.001825 -0.005315 0.000000 0.000000 0.000000
# 2 -0.001825 0.084438 -0.008118 0.000000 0.000000 0.000000
# 3 -0.005315 -0.008118 0.012161 0.000000 0.000000 0.000000
# 4 0.000000 0.000000 0.000000 0.049405 0.000000 0.000000
# 5 0.000000 0.000000 0.000000 0.000000 0.107929 0.000000
# 6 0.000000 0.000000 0.000000 0.000000 0.000000 0.063977
#
#
# Mechanical properties :
#
#
# Convention : Reuss Voigt Hill
#
# Bulk Modulus (GPa) = 13.53483 65.29357 39.41420
# Shear Modulus (GPa) = 13.12832 23.69589 18.41210
#
# Velocity S-wave (km/s) = 2.63624 3.54174 3.12199
# Velocity P-wave (km/s) = 4.05355 7.16169 5.81898
#
# Compressibility (1/GPa) = 0.07388347
#
# Stress axis : x y z
#
# Youngs Moduli (GPa) = 128.19477 11.84299 82.22696
#
# Poissons Ratio (x) = 0.02161 0.43706
# Poissons Ratio (y) = 0.23396 0.66753
# Poissons Ratio (z) = 0.68139 0.09614
#
# Static dielectric constant tensor:
#      x y z
#    x 1.619520 0.000000 0.000000 
#    y 0.000000 1.702950 0.000000 
#    z 0.000000 0.000000 1.641570 
# 
# From -- ./inp_files/6018.got.cif
#   From: 2010.05.17/outbox.cif.g08.bks.cpg/sg71_4_cif.got.tgz:6018.got - 2010.06.03 16:22:01.
