data_PCOD9521414
_publ_section_title
;
Structure prediction by ZEFSAII (Michael W. Deem and Ramdas Pophale) SiO2 
 PCOD9521414
Probable space group: I M M M
;
_chemical_formula_sum "Si O2"
_cell_formula_units_Z 88
_cell_length_a 28.458110
_cell_length_b 8.490685
_cell_length_c 19.095763
_cell_angle_alpha 90.000000
_cell_angle_beta 90.000000
_cell_angle_gamma 90.000000
_cell_volume 4614.087210
_symmetry_space_group_name_H-M "I M M M"
_symmetry_group_IT_number 71
_symmetry_cell_setting 'orthorhombic'
loop_
_space_group_symop_operation_xyz
x,y,z
-x,-y,z
x,-y,-z
-x,y,-z
-x,-y,-z
x,y,-z
-x,y,z
x,-y,z
1/2+x,1/2+y,1/2+z
1/2-x,1/2-y,1/2+z
1/2+x,1/2-y,1/2-z
1/2-x,1/2+y,1/2-z
1/2-x,1/2-y,1/2-z
1/2+x,1/2+y,1/2-z
1/2-x,1/2+y,1/2+z
1/2+x,1/2-y,1/2+z
loop_
_atom_site_type_symbol
_atom_site_label
_atom_site_fract_x
_atom_site_fract_y
_atom_site_fract_z
Si Si1 0.810165 0.317474 0.308953
Si Si2 0.736231 0.187613 0.420670
Si Si3 0.448254 0.309838 0.290538
Si Si4 0.944183 0.679949 0.500000
Si Si5 0.845713 0.187759 0.836434
Si Si6 0.094047 0.814109 0.642133
O O1 0.802576 0.500000 0.292308
O O2 0.770210 0.258870 0.361602
O O3 0.817951 0.226134 0.235896
O O4 0.859305 0.287729 0.348027
O O5 0.746798 0.242513 0.500000
O O6 0.683508 0.233326 0.398285
O O7 0.741674 0.000000 0.418997
O O8 0.500000 0.250212 0.312048
O O9 0.448910 0.500000 0.298860
O O10 0.399818 0.255566 0.327369
O O11 0.439771 0.279575 0.207970
O O12 0.925777 0.500000 0.500000
O O13 0.928302 0.771341 0.431166
O O14 0.000000 0.672219 0.500000
O O15 0.846176 0.000000 0.845515
O O16 0.106155 0.000000 0.646152
#
# Coordination Sequence:
#
# PCOD9521414 Si02
#       6
#    16  16  16   8  16  16
#     4  11  22  37  58  82 112 146 184 229 279 334
#     4  11  24  40  58  80 110 147 188 232 281 336
#     4   8  15  30  54  82 107 134 174 223 271 321
#     4  11  23  35  47  69 105 147 189 235 286 333
#     4  10  20  36  59  86 115 146 184 228 275 330
#     4  10  20  34  53  76 105 142 187 232 276 330
#
# _framework density 19.072029000000001
#
# number of rings (size 3 to 8) (size 9 to 14) (size 15 to 20)
#    0.000    1.909    0.000    5.727    1.273    2.909 
#    0.000    0.000    0.000   11.455    0.000    3.818 
#    0.000    0.000    0.000    0.000    0.000    0.000 
#
# Total GULP energy -245580.419058 kJ/mol
# GULP energy per Si atom -5581.373160 kJ/mol
# Density = 1.902862 g / cm^3
# Si number density = 19.072029 Si / 1000 Ang^3
#
#
#
# Elastic Constant Matrix: (Units=GPa)
#
#
# Indices 1 2 3 4 5 6 
#
# 1 101.2812 2.0805 22.7462 0.0000 0.0000 0.0000
# 2 2.0805 32.2359 -8.0012 0.0000 0.0000 0.0000
# 3 22.7462 -8.0012 22.4640 0.0000 0.0000 0.0000
# 4 0.0000 0.0000 0.0000 24.6340 0.0000 0.0000
# 5 0.0000 0.0000 0.0000 0.0000 4.9396 0.0000
# 6 0.0000 0.0000 0.0000 0.0000 0.0000 24.0969
#
#
#
# Elastic Compliance Matrix: (Units=1/GPa)
#
#
# Indices 1 2 3 4 5 6 
#
# 1 0.013383 -0.004637 -0.015203 0.000000 0.000000 0.000000
# 2 -0.004637 0.035636 0.017388 0.000000 0.000000 0.000000
# 3 -0.015203 0.017388 0.066103 0.000000 0.000000 0.000000
# 4 0.000000 0.000000 0.000000 0.040594 0.000000 0.000000
# 5 0.000000 0.000000 0.000000 0.000000 0.202447 0.000000
# 6 0.000000 0.000000 0.000000 0.000000 0.000000 0.041499
#
#
# Mechanical properties :
#
#
# Convention : Reuss Voigt Hill
#
# Bulk Modulus (GPa) = 9.07283 21.07024 15.07154
# Shear Modulus (GPa) = 11.33002 20.01113 15.67058
#
# Velocity S-wave (km/s) = 2.43999 3.24271 2.86956
# Velocity P-wave (km/s) = 3.56448 5.00919 4.34727
#
# Compressibility (1/GPa) = 0.11021916
#
# Stress axis : x y z
#
# Youngs Moduli (GPa) = 74.72114 28.06113 15.12791
#
# Poissons Ratio (x) = 0.13012 0.22999
# Poissons Ratio (y) = 0.34650 -0.26305
# Poissons Ratio (z) = 1.13598 -0.48794
#
# Static dielectric constant tensor:
#      x y z
#    x 1.694210 0.000000 0.000000 
#    y 0.000000 1.662690 0.000000 
#    z 0.000000 0.000000 1.646520 
# 
# From -- ./inp_files/49217.got.cif
#   From: 2010.05.17/outbox.cif.g08.bks.cpg/sg71_25_cif.got.tgz:49217.got - 2010.06.03 16:22:01.
