data_PCOD9521820
_publ_section_title
;
Structure prediction by ZEFSAII (Michael W. Deem and Ramdas Pophale) SiO2 
 PCOD9521820
Probable space group: I M M M
;
_chemical_formula_sum "Si O2"
_cell_formula_units_Z 88
_cell_length_a 21.814016
_cell_length_b 7.542251
_cell_length_c 24.179809
_cell_angle_alpha 90.000000
_cell_angle_beta 90.000000
_cell_angle_gamma 90.000000
_cell_volume 3978.226212
_symmetry_space_group_name_H-M "I M M M"
_symmetry_group_IT_number 71
_symmetry_cell_setting 'orthorhombic'
loop_
_space_group_symop_operation_xyz
x,y,z
-x,-y,z
x,-y,-z
-x,y,-z
-x,-y,-z
x,y,-z
-x,y,z
x,-y,z
1/2+x,1/2+y,1/2+z
1/2-x,1/2-y,1/2+z
1/2+x,1/2-y,1/2-z
1/2-x,1/2+y,1/2-z
1/2-x,1/2-y,1/2-z
1/2+x,1/2+y,1/2-z
1/2-x,1/2+y,1/2+z
1/2+x,1/2-y,1/2+z
loop_
_atom_site_type_symbol
_atom_site_label
_atom_site_fract_x
_atom_site_fract_y
_atom_site_fract_z
Si Si1 0.254141 0.282938 0.435113
Si Si2 0.378996 0.283661 0.373828
Si Si3 0.571540 0.290262 0.256858
Si Si4 0.572656 0.290866 0.059187
Si Si5 0.000000 0.783779 0.062212
Si Si6 0.153322 0.306312 0.652585
O O1 0.247525 0.226053 0.500000
O O2 0.250347 0.500000 0.436623
O O3 0.318936 0.229686 0.407917
O O4 0.204433 0.222674 0.388590
O O5 0.375736 0.500000 0.372301
O O6 0.393147 0.221423 0.311405
O O7 0.438962 0.228965 0.407131
O O8 0.500000 0.223069 0.249680
O O9 0.563970 0.500000 0.264986
O O10 0.619050 0.270358 0.206014
O O11 0.500000 0.276067 0.057371
O O12 0.586385 0.500000 0.066136
O O13 0.598060 0.184443 0.109407
O O14 0.598327 0.231834 0.000000
O O15 0.000000 0.000000 0.062343
O O16 0.000000 0.722151 0.000000
O O17 0.177432 0.500000 0.668904
#
# Coordination Sequence:
#
# PCOD9521820 Si02
#       6
#    16  16  16  16   8  16
#     4   9  18  32  49  72 105 139 168 208 265 320
#     4   9  16  29  49  74 103 136 170 208 261 319
#     4  10  20  35  54  76 105 138 175 220 265 307
#     4   9  18  33  52  73  97 128 171 223 275 318
#     4   9  14  22  44  78 107 129 162 211 264 317
#     4  11  22  33  48  73 105 143 182 212 248 304
#
# _framework density 22.12041
#
# number of rings (size 3 to 8) (size 9 to 14) (size 15 to 20)
#    0.000    2.455    0.909    2.727    0.000    6.909 
#    0.000    0.909    0.000    1.091    0.000    0.000 
#    0.000    2.909    0.000    0.000    0.000    0.182 
#
# Total GULP energy -245069.478981 kJ/mol
# GULP energy per Si atom -5569.760886 kJ/mol
# Density = 2.207006 g / cm^3
# Si number density = 22.120410 Si / 1000 Ang^3
#
#
#
# Elastic Constant Matrix: (Units=GPa)
#
#
# Indices 1 2 3 4 5 6 
#
# 1 150.9287 10.4363 94.4543 0.0000 0.0000 0.0000
# 2 10.4363 38.6730 10.3951 0.0000 0.0000 0.0000
# 3 94.4543 10.3951 206.8579 0.0000 0.0000 0.0000
# 4 0.0000 0.0000 0.0000 33.5697 0.0000 0.0000
# 5 0.0000 0.0000 0.0000 0.0000 29.2396 0.0000
# 6 0.0000 0.0000 0.0000 0.0000 0.0000 4.5948
#
#
#
# Elastic Compliance Matrix: (Units=1/GPa)
#
#
# Indices 1 2 3 4 5 6 
#
# 1 0.009350 -0.001394 -0.004199 0.000000 0.000000 0.000000
# 2 -0.001394 0.026420 -0.000691 0.000000 0.000000 0.000000
# 3 -0.004199 -0.000691 0.006786 0.000000 0.000000 0.000000
# 4 0.000000 0.000000 0.000000 0.029789 0.000000 0.000000
# 5 0.000000 0.000000 0.000000 0.000000 0.034200 0.000000
# 6 0.000000 0.000000 0.000000 0.000000 0.000000 0.217639
#
#
# Mechanical properties :
#
#
# Convention : Reuss Voigt Hill
#
# Bulk Modulus (GPa) = 33.34782 69.67012 51.50897
# Shear Modulus (GPa) = 14.41962 32.22574 23.32268
#
# Velocity S-wave (km/s) = 2.55594 3.82099 3.25060
# Velocity P-wave (km/s) = 4.88045 7.14359 6.11758
#
# Compressibility (1/GPa) = 0.02998697
#
# Stress axis : x y z
#
# Youngs Moduli (GPa) = 106.95099 37.85031 147.35312
#
# Poissons Ratio (x) = 0.05278 0.61878
# Poissons Ratio (y) = 0.14914 0.10181
# Poissons Ratio (z) = 0.44912 0.02615
#
# Static dielectric constant tensor:
#      x y z
#    x 1.832690 0.000000 0.000000 
#    y 0.000000 1.950670 0.000000 
#    z 0.000000 0.000000 1.825370 
# 
# From -- ./inp_files/61123.got.cif
#   From: 2010.05.17/outbox.cif.g08.bks.cpg/sg71_31_cif.got.tgz:61123.got - 2010.06.03 16:22:01.
