data_PCOD9521995
_publ_section_title
;
Structure prediction by ZEFSAII (Michael W. Deem and Ramdas Pophale) SiO2 
 PCOD9521995
Probable space group: I M M M
;
_chemical_formula_sum "Si O2"
_cell_formula_units_Z 104
_cell_length_a 20.061143
_cell_length_b 9.995042
_cell_length_c 27.253999
_cell_angle_alpha 90.000000
_cell_angle_beta 90.000000
_cell_angle_gamma 90.000000
_cell_volume 5464.752944
_symmetry_space_group_name_H-M "I M M M"
_symmetry_group_IT_number 71
_symmetry_cell_setting 'orthorhombic'
loop_
_space_group_symop_operation_xyz
x,y,z
-x,-y,z
x,-y,-z
-x,y,-z
-x,-y,-z
x,y,-z
-x,y,z
x,-y,z
1/2+x,1/2+y,1/2+z
1/2-x,1/2-y,1/2+z
1/2+x,1/2-y,1/2-z
1/2-x,1/2+y,1/2-z
1/2-x,1/2-y,1/2-z
1/2+x,1/2+y,1/2-z
1/2-x,1/2+y,1/2+z
1/2+x,1/2-y,1/2+z
loop_
_atom_site_type_symbol
_atom_site_label
_atom_site_fract_x
_atom_site_fract_y
_atom_site_fract_z
Si Si1 0.078568 0.266982 0.114758
Si Si2 0.925088 0.658388 0.776443
Si Si3 0.795713 0.343396 0.716718
Si Si4 0.579738 0.500000 0.444898
Si Si5 0.921167 0.155813 0.441190
Si Si6 0.699387 0.854596 0.556614
Si Si7 0.693301 0.160097 0.898963
O O1 0.088756 0.263853 0.173103
O O2 0.133737 0.358444 0.089945
O O3 0.000000 0.301866 0.106864
O O4 0.094147 0.128545 0.087549
O O5 0.922803 0.500000 0.789396
O O6 0.870883 0.681690 0.735133
O O7 0.000000 0.689319 0.760064
O O8 0.780198 0.500000 0.725915
O O9 0.750000 0.250000 0.750000
O O10 0.791424 0.320196 0.658764
O O11 0.500000 0.500000 0.450629
O O12 0.608936 0.500000 0.500000
O O13 0.910072 0.167951 0.500000
O O14 0.874075 0.261735 0.413996
O O15 0.000000 0.179361 0.432217
O O16 0.907106 0.000000 0.427938
O O17 0.679293 0.838446 0.500000
O O18 0.748026 0.735388 0.571939
O O19 0.734120 0.000000 0.561289
O O20 0.689751 0.000000 0.908393
#
# Coordination Sequence:
#
# PCOD9521995 Si02
#       7
#    16  16  16   8  16  16  16
#     4  10  20  35  57  82 111 149 193 238 286 341
#     4   9  18  35  59  83 108 142 184 232 285 337
#     4  10  22  40  60  83 112 149 192 239 294 351
#     4   9  18  32  50  74 108 150 185 221 278 336
#     4   9  19  38  64  91 121 158 196 234 283 349
#     4  11  24  39  57  82 115 156 197 241 291 343
#     4  11  24  39  59  88 119 153 193 242 298 353
#
# _framework density 19.031053
#
# number of rings (size 3 to 8) (size 9 to 14) (size 15 to 20)
#    0.000    2.077    0.000    3.231    1.077    7.692 
#    1.385    3.077    0.000    0.000    0.000    0.000 
#    0.000    0.000    0.000    0.000    0.000    0.000 
#
# Total GULP energy -290096.174256 kJ/mol
# GULP energy per Si atom -5578.772582 kJ/mol
# Density = 1.898774 g / cm^3
# Si number density = 19.031053 Si / 1000 Ang^3
#
#
#
# Elastic Constant Matrix: (Units=GPa)
#
#
# Indices 1 2 3 4 5 6 
#
# 1 54.7128 25.9208 5.1745 0.0000 0.0000 0.0000
# 2 25.9208 91.0962 11.6166 0.0000 0.0000 0.0000
# 3 5.1745 11.6166 26.5332 0.0000 0.0000 0.0000
# 4 0.0000 0.0000 0.0000 35.2072 0.0000 0.0000
# 5 0.0000 0.0000 0.0000 0.0000 34.0394 0.0000
# 6 0.0000 0.0000 0.0000 0.0000 0.0000 32.1277
#
#
#
# Elastic Compliance Matrix: (Units=1/GPa)
#
#
# Indices 1 2 3 4 5 6 
#
# 1 0.021187 -0.005827 -0.001581 0.000000 0.000000 0.000000
# 2 -0.005827 0.013229 -0.004655 0.000000 0.000000 0.000000
# 3 -0.001581 -0.004655 0.040035 0.000000 0.000000 0.000000
# 4 0.000000 0.000000 0.000000 0.028403 0.000000 0.000000
# 5 0.000000 0.000000 0.000000 0.000000 0.029378 0.000000
# 6 0.000000 0.000000 0.000000 0.000000 0.000000 0.031126
#
#
# Mechanical properties :
#
#
# Convention : Reuss Voigt Hill
#
# Bulk Modulus (GPa) = 19.87085 28.64066 24.25575
# Shear Modulus (GPa) = 24.47857 28.91689 26.69773
#
# Velocity S-wave (km/s) = 3.59031 3.90225 3.74953
# Velocity P-wave (km/s) = 5.25843 5.94857 5.61412
#
# Compressibility (1/GPa) = 0.05032498
#
# Stress axis : x y z
#
# Youngs Moduli (GPa) = 47.19780 75.59066 24.97803
#
# Poissons Ratio (x) = 0.44048 0.03948
# Poissons Ratio (y) = 0.27503 0.11629
# Poissons Ratio (z) = 0.07461 0.35191
#
# Static dielectric constant tensor:
#      x y z
#    x 1.669990 0.000000 0.000000 
#    y 0.000000 1.693940 0.000000 
#    z 0.000000 0.000000 1.622860 
# 
# From -- ./inp_files/66422.got.cif
#   From: 2010.05.17/outbox.cif.g08.bks.cpg/sg71_34_cif.got.tgz:66422.got - 2010.06.03 16:22:01.
