data_PCOD9521030
_publ_section_title
;
Structure prediction by ZEFSAII (Michael W. Deem and Ramdas Pophale) SiO2 
 PCOD9521030
Probable space group: I M M M
;
_chemical_formula_sum "Si O2"
_cell_formula_units_Z 120
_cell_length_a 28.827924
_cell_length_b 27.607932
_cell_length_c 8.164803
_cell_angle_alpha 90.000000
_cell_angle_beta 90.000000
_cell_angle_gamma 90.000000
_cell_volume 6498.198231
_symmetry_space_group_name_H-M "I M M M"
_symmetry_group_IT_number 71
_symmetry_cell_setting 'orthorhombic'
loop_
_space_group_symop_operation_xyz
x,y,z
-x,-y,z
x,-y,-z
-x,y,-z
-x,-y,-z
x,y,-z
-x,y,z
x,-y,z
1/2+x,1/2+y,1/2+z
1/2-x,1/2-y,1/2+z
1/2+x,1/2-y,1/2-z
1/2-x,1/2+y,1/2-z
1/2-x,1/2-y,1/2-z
1/2+x,1/2+y,1/2-z
1/2-x,1/2+y,1/2+z
1/2+x,1/2-y,1/2+z
loop_
_atom_site_type_symbol
_atom_site_label
_atom_site_fract_x
_atom_site_fract_y
_atom_site_fract_z
Si Si1 0.307598 0.945080 0.697275
Si Si2 0.359501 0.852020 0.802592
Si Si3 0.607664 0.405002 0.306626
Si Si4 0.608353 0.702308 0.696146
Si Si5 0.296268 0.557864 0.194589
Si Si6 0.054002 0.000000 0.200683
Si Si7 0.052060 0.704769 0.303097
Si Si8 0.697470 0.758573 0.196115
O O1 0.305424 0.946926 0.500000
O O2 0.343933 0.904711 0.747602
O O3 0.255679 0.930314 0.753228
O O4 0.317196 0.000000 0.754943
O O5 0.409941 0.834161 0.743682
O O6 0.322752 0.810753 0.747745
O O7 0.359820 0.851246 0.000000
O O8 0.597382 0.403371 0.500000
O O9 0.597527 0.351545 0.239489
O O10 0.662056 0.415407 0.282677
O O11 0.579655 0.451265 0.239534
O O12 0.604813 0.702124 0.500000
O O13 0.573683 0.742914 0.763392
O O14 0.660511 0.719002 0.741239
O O15 0.301987 0.500000 0.216454
O O16 0.299393 0.567862 0.000000
O O17 0.000000 0.000000 0.244291
O O18 0.056960 0.000000 0.000000
O O19 0.050228 0.700541 0.500000
O O20 0.000000 0.699217 0.238233
O O21 0.750000 0.750000 0.250000
O O22 0.695701 0.757674 0.000000
#
# Coordination Sequence:
#
# PCOD9521030 Si02
#       8
#    16  16  16  16  16   8  16  16
#     4   9  19  34  51  76 109 143 177 209 252 310
#     4   9  19  34  53  79 106 134 174 219 260 308
#     4  10  20  33  51  73  99 133 174 220 264 315
#     4  10  21  34  50  78 108 135 176 224 267 316
#     4   9  18  32  49  70  98 135 174 212 254 304
#     4   9  18  34  53  71  95 131 173 219 274 321
#     4   9  19  38  60  79 103 137 176 219 270 323
#     4  10  21  36  52  74 107 145 180 217 266 320
#
# _framework density 18.466657000000001
#
# number of rings (size 3 to 8) (size 9 to 14) (size 15 to 20)
#    0.000    2.600    0.667    2.400    1.867    5.333 
#    0.000    2.667    0.000    1.200    0.000    2.800 
#    0.000    0.000    0.000    0.000    0.000    0.000 
#
# Total GULP energy -334632.301383 kJ/mol
# GULP energy per Si atom -5577.205023 kJ/mol
# Density = 1.842463 g / cm^3
# Si number density = 18.466657 Si / 1000 Ang^3
#
#
#
# Elastic Constant Matrix: (Units=GPa)
#
#
# Indices 1 2 3 4 5 6 
#
# 1 145.9253 81.7233 2.9605 0.0000 0.0000 0.0000
# 2 81.7233 131.4760 2.3700 0.0000 0.0000 0.0000
# 3 2.9605 2.3700 5.8643 0.0000 0.0000 0.0000
# 4 0.0000 0.0000 0.0000 20.0513 0.0000 0.0000
# 5 0.0000 0.0000 0.0000 0.0000 17.0149 0.0000
# 6 0.0000 0.0000 0.0000 0.0000 0.0000 10.7769
#
#
#
# Elastic Compliance Matrix: (Units=1/GPa)
#
#
# Indices 1 2 3 4 5 6 
#
# 1 0.010554 -0.006512 -0.002697 0.000000 0.000000 0.000000
# 2 -0.006512 0.011679 -0.001433 0.000000 0.000000 0.000000
# 3 -0.002697 -0.001433 0.172463 0.000000 0.000000 0.000000
# 4 0.000000 0.000000 0.000000 0.049872 0.000000 0.000000
# 5 0.000000 0.000000 0.000000 0.000000 0.058772 0.000000
# 6 0.000000 0.000000 0.000000 0.000000 0.000000 0.092791
#
#
# Mechanical properties :
#
#
# Convention : Reuss Voigt Hill
#
# Bulk Modulus (GPa) = 5.76651 50.81926 28.29289
# Shear Modulus (GPa) = 10.52145 22.64940 16.58543
#
# Velocity S-wave (km/s) = 2.38954 3.50594 3.00013
# Velocity P-wave (km/s) = 3.27760 6.63084 5.23024
#
# Compressibility (1/GPa) = 0.17341498
#
# Stress axis : x y z
#
# Youngs Moduli (GPa) = 94.74738 85.62067 5.79833
#
# Poissons Ratio (x) = 0.55755 0.01564
# Poissons Ratio (y) = 0.61698 0.00831
# Poissons Ratio (z) = 0.25549 0.12267
#
# Static dielectric constant tensor:
#      x y z
#    x 1.645310 0.000000 0.000000 
#    y 0.000000 1.650830 0.000000 
#    z 0.000000 0.000000 1.654970 
# 
# From -- ./inp_files/15666.got.cif
#   From: 2010.05.17/outbox.cif.g08.bks.cpg/sg71_8_cif.got.tgz:15666.got - 2010.06.03 16:22:01.
