data_PCOD9521018
_publ_section_title
;
Structure prediction by ZEFSAII (Michael W. Deem and Ramdas Pophale) SiO2 
 PCOD9521018
Probable space group: I M M M
;
_chemical_formula_sum "Si O2"
_cell_formula_units_Z 104
_cell_length_a 7.550999
_cell_length_b 19.985051
_cell_length_c 31.648551
_cell_angle_alpha 90.000000
_cell_angle_beta 90.000000
_cell_angle_gamma 90.000000
_cell_volume 4775.991054
_symmetry_space_group_name_H-M "I M M M"
_symmetry_group_IT_number 71
_symmetry_cell_setting 'orthorhombic'
loop_
_space_group_symop_operation_xyz
x,y,z
-x,-y,z
x,-y,-z
-x,y,-z
-x,-y,-z
x,y,-z
-x,y,z
x,-y,z
1/2+x,1/2+y,1/2+z
1/2-x,1/2-y,1/2+z
1/2+x,1/2-y,1/2-z
1/2-x,1/2+y,1/2-z
1/2-x,1/2-y,1/2-z
1/2+x,1/2+y,1/2-z
1/2-x,1/2+y,1/2+z
1/2+x,1/2-y,1/2+z
loop_
_atom_site_type_symbol
_atom_site_label
_atom_site_fract_x
_atom_site_fract_y
_atom_site_fract_z
Si Si1 0.217416 0.576618 0.407571
Si Si2 0.294969 0.207780 0.867066
Si Si3 0.215479 0.426173 0.072109
Si Si4 0.214702 0.280482 0.954067
Si Si5 0.283241 0.926157 0.329307
Si Si6 0.197080 0.295256 0.210873
Si Si7 0.296463 0.081542 0.000000
O O1 0.270055 0.500000 0.399384
O O2 0.272117 0.632319 0.374117
O O3 0.282269 0.598326 0.454425
O O4 0.000000 0.577316 0.409256
O O5 0.500000 0.205032 0.854104
O O6 0.282942 0.242613 0.912887
O O7 0.200455 0.251025 0.831611
O O8 0.274546 0.500000 0.057304
O O9 0.270341 0.358451 0.049073
O O10 0.266985 0.418839 0.121411
O O11 0.000000 0.427064 0.070171
O O12 0.000000 0.278381 0.952013
O O13 0.268896 0.253039 0.000000
O O14 0.500000 0.924597 0.330018
O O15 0.211405 0.864893 0.301815
O O16 0.230155 0.000000 0.314739
O O17 0.250000 0.250000 0.250000
O O18 0.000000 0.316007 0.221790
O O19 0.500000 0.104833 0.000000
O O20 0.301205 0.000000 0.000000
#
# Coordination Sequence:
#
# PCOD9521018 Si02
#       7
#    16  16  16  16  16  16   8
#     4   8  15  28  47  72 102 137 180 227 266 304
#     4  11  22  35  55  81 110 142 180 224 274 326
#     4   8  13  25  48  76 103 135 182 231 265 299
#     4  10  20  33  50  76 112 151 185 221 271 322
#     4   8  14  28  54  82 104 134 179 226 263 300
#     4  11  22  39  62  85 112 140 174 220 273 328
#     4   7  10  20  40  66  95 127 168 219 264 294
#
# _framework density 21.775585
#
# number of rings (size 3 to 8) (size 9 to 14) (size 15 to 20)
#    0.000    2.846    1.538    2.769    1.077    0.615 
#    0.000    2.308    0.000    9.692    0.000    2.154 
#    0.000    0.000    0.000    0.000    0.000    0.000 
#
# Total GULP energy -290060.809970 kJ/mol
# GULP energy per Si atom -5578.092499 kJ/mol
# Density = 2.172602 g / cm^3
# Si number density = 21.775585 Si / 1000 Ang^3
#
#
#
# Elastic Constant Matrix: (Units=GPa)
#
#
# Indices 1 2 3 4 5 6 
#
# 1 48.8993 -5.7472 -4.9900 0.0000 0.0000 0.0000
# 2 -5.7472 129.7749 48.7882 0.0000 0.0000 0.0000
# 3 -4.9900 48.7882 86.5666 0.0000 0.0000 0.0000
# 4 0.0000 0.0000 0.0000 28.3642 0.0000 0.0000
# 5 0.0000 0.0000 0.0000 0.0000 13.6825 0.0000
# 6 0.0000 0.0000 0.0000 0.0000 0.0000 9.8278
#
#
#
# Elastic Compliance Matrix: (Units=1/GPa)
#
#
# Indices 1 2 3 4 5 6 
#
# 1 0.020607 0.000591 0.000855 0.000000 0.000000 0.000000
# 2 0.000591 0.009794 -0.005486 0.000000 0.000000 0.000000
# 3 0.000855 -0.005486 0.014693 0.000000 0.000000 0.000000
# 4 0.000000 0.000000 0.000000 0.035256 0.000000 0.000000
# 5 0.000000 0.000000 0.000000 0.000000 0.073086 0.000000
# 6 0.000000 0.000000 0.000000 0.000000 0.000000 0.101752
#
#
# Mechanical properties :
#
#
# Convention : Reuss Voigt Hill
#
# Bulk Modulus (GPa) = 27.01678 37.92699 32.47188
# Shear Modulus (GPa) = 18.14183 25.52087 21.83135
#
# Velocity S-wave (km/s) = 2.88953 3.42715 3.16976
# Velocity P-wave (km/s) = 4.85452 5.75461 5.32362
#
# Compressibility (1/GPa) = 0.03701403
#
# Stress axis : x y z
#
# Youngs Moduli (GPa) = 48.52748 102.10107 68.06037
#
# Poissons Ratio (x) = -0.06037 -0.05816
# Poissons Ratio (y) = -0.02870 0.37337
# Poissons Ratio (z) = -0.04147 0.56011
#
# Static dielectric constant tensor:
#      x y z
#    x 1.865700 0.000000 0.000000 
#    y 0.000000 1.852580 0.000000 
#    z 0.000000 0.000000 1.772630 
# 
# From -- ./inp_files/68239.got.cif
#   From: 2010.05.17/outbox.cif.g08.bks.cpg/sg71_35_cif.got.tgz:68239.got - 2010.06.03 16:22:01.
