data_PCOD9521349
_publ_section_title
;
Structure prediction by ZEFSAII (Michael W. Deem and Ramdas Pophale) SiO2 
 PCOD9521349
Probable space group: I M M M
;
_chemical_formula_sum "Si O2"
_cell_formula_units_Z 104
_cell_length_a 19.824416
_cell_length_b 7.584444
_cell_length_c 32.648017
_cell_angle_alpha 90.000000
_cell_angle_beta 90.000000
_cell_angle_gamma 90.000000
_cell_volume 4908.863540
_symmetry_space_group_name_H-M "I M M M"
_symmetry_group_IT_number 71
_symmetry_cell_setting 'orthorhombic'
loop_
_space_group_symop_operation_xyz
x,y,z
-x,-y,z
x,-y,-z
-x,y,-z
-x,-y,-z
x,y,-z
-x,y,z
x,-y,z
1/2+x,1/2+y,1/2+z
1/2-x,1/2-y,1/2+z
1/2+x,1/2-y,1/2-z
1/2-x,1/2+y,1/2-z
1/2-x,1/2-y,1/2-z
1/2+x,1/2+y,1/2-z
1/2-x,1/2+y,1/2+z
1/2+x,1/2-y,1/2+z
loop_
_atom_site_type_symbol
_atom_site_label
_atom_site_fract_x
_atom_site_fract_y
_atom_site_fract_z
Si Si1 0.715084 0.711824 0.707083
Si Si2 0.788877 0.705981 0.373484
Si Si3 0.922696 0.710355 0.500000
Si Si4 0.923456 0.792907 0.409583
Si Si5 0.075138 0.785139 0.173664
Si Si6 0.574891 0.285687 0.578181
Si Si7 0.716935 0.283865 0.544810
O O1 0.712428 0.500000 0.704337
O O2 0.750000 0.750000 0.750000
O O3 0.758774 0.779545 0.668457
O O4 0.638236 0.775477 0.700615
O O5 0.770217 0.500000 0.373729
O O6 0.869098 0.718554 0.378319
O O7 0.756212 0.780999 0.415045
O O8 0.922607 0.500000 0.500000
O O9 0.895885 0.764703 0.455855
O O10 0.000000 0.778624 0.500000
O O11 0.000000 0.719428 0.407602
O O12 0.927504 0.000000 0.402558
O O13 0.085879 0.736103 0.125890
O O14 0.000000 0.726206 0.185915
O O15 0.074392 0.000000 0.174413
O O16 0.500000 0.225881 0.565659
O O17 0.574012 0.500000 0.577324
O O18 0.638781 0.232772 0.551470
O O19 0.741282 0.225918 0.500000
O O20 0.720900 0.500000 0.544642
#
# Coordination Sequence:
#
# PCOD9521349 Si02
#       7
#    16  16   8  16  16  16  16
#     4  10  20  35  55  79 105 134 173 220 271 322
#     4  10  20  34  52  75 104 138 175 217 266 321
#     4   9  17  31  53  79 105 137 178 219 262 317
#     4  10  21  36  53  75 105 140 179 224 270 317
#     4   8  13  25  47  71  96 129 167 205 247 300
#     4   8  12  20  37  62  95 133 167 200 241 287
#     4   9  16  25  39  65 102 138 170 205 248 299
#
# _framework density 21.186164999999999
#
# number of rings (size 3 to 8) (size 9 to 14) (size 15 to 20)
#    0.000    2.846    1.538    1.615    1.077    2.769 
#    0.000    2.308    0.000    3.231    0.000    0.000 
#    0.000    0.615    0.000    1.385    0.000    1.538 
#
# Total GULP energy -290054.216344 kJ/mol
# GULP energy per Si atom -5577.965699 kJ/mol
# Density = 2.113794 g / cm^3
# Si number density = 21.186165 Si / 1000 Ang^3
#
#
#
# Elastic Constant Matrix: (Units=GPa)
#
#
# Indices 1 2 3 4 5 6 
#
# 1 134.4200 -2.5438 93.7459 0.0000 0.0000 0.0000
# 2 -2.5438 44.1072 7.5765 0.0000 0.0000 0.0000
# 3 93.7459 7.5765 144.5717 0.0000 0.0000 0.0000
# 4 0.0000 0.0000 0.0000 7.4014 0.0000 0.0000
# 5 0.0000 0.0000 0.0000 0.0000 31.9814 0.0000
# 6 0.0000 0.0000 0.0000 0.0000 0.0000 -7.8409
#
#
#
# Elastic Compliance Matrix: (Units=1/GPa)
#
#
# Indices 1 2 3 4 5 6 
#
# 1 0.013820 0.002358 -0.009085 0.000000 0.000000 0.000000
# 2 0.002358 0.023280 -0.002749 0.000000 0.000000 0.000000
# 3 -0.009085 -0.002749 0.012952 0.000000 0.000000 0.000000
# 4 0.000000 0.000000 0.000000 0.135110 0.000000 0.000000
# 5 0.000000 0.000000 0.000000 0.000000 0.031268 0.000000
# 6 0.000000 0.000000 0.000000 0.000000 0.000000 -0.127537
#
#
# Mechanical properties :
#
#
# Convention : Reuss Voigt Hill
#
# Bulk Modulus (GPa) = 32.15441 57.85068 45.00255
# Shear Modulus (GPa) = 42.29682 21.26305 31.77993
#
# Velocity S-wave (km/s) = 4.47300 3.17145 3.87723
# Velocity P-wave (km/s) = 6.47201 6.38560 6.42895
#
# Compressibility (1/GPa) = 0.03109993
#
# Stress axis : x y z
#
# Youngs Moduli (GPa) = 72.35935 42.95494 77.20779
#
# Poissons Ratio (x) = -0.10127 0.70143
# Poissons Ratio (y) = -0.17059 0.21223
# Poissons Ratio (z) = 0.65738 0.11807
#
# Static dielectric constant tensor:
#      x y z
#    x 1.802550 0.000000 0.000000 
#    y 0.000000 1.845820 0.000000 
#    z 0.000000 0.000000 1.737850 
# 
# From -- ./inp_files/70769.got.cif
#   From: 2010.05.17/outbox.cif.g08.bks.cpg/sg71_36_cif.got.tgz:70769.got - 2010.06.03 16:22:01.
