data_PCOD9521895
_publ_section_title
;
Structure prediction by ZEFSAII (Michael W. Deem and Ramdas Pophale) SiO2 
 PCOD9521895
Probable space group: I M M M
;
_chemical_formula_sum "Si O2"
_cell_formula_units_Z 88
_cell_length_a 13.629008
_cell_length_b 15.511014
_cell_length_c 22.931919
_cell_angle_alpha 90.000000
_cell_angle_beta 90.000000
_cell_angle_gamma 90.000000
_cell_volume 4847.801574
_symmetry_space_group_name_H-M "I M M M"
_symmetry_group_IT_number 71
_symmetry_cell_setting 'orthorhombic'
loop_
_space_group_symop_operation_xyz
x,y,z
-x,-y,z
x,-y,-z
-x,y,-z
-x,-y,-z
x,y,-z
-x,y,z
x,-y,z
1/2+x,1/2+y,1/2+z
1/2-x,1/2-y,1/2+z
1/2+x,1/2-y,1/2-z
1/2-x,1/2+y,1/2-z
1/2-x,1/2-y,1/2-z
1/2+x,1/2+y,1/2-z
1/2-x,1/2+y,1/2+z
1/2+x,1/2-y,1/2+z
loop_
_atom_site_type_symbol
_atom_site_label
_atom_site_fract_x
_atom_site_fract_y
_atom_site_fract_z
Si Si1 0.618697 0.401816 0.680203
Si Si2 0.615978 0.270720 0.215407
Si Si3 0.383633 0.291759 0.566329
Si Si4 0.111817 0.000000 0.569315
Si Si5 0.245286 0.152192 0.617497
Si Si6 0.613806 0.905558 0.281998
O O1 0.500000 0.405332 0.681610
O O2 0.654865 0.500000 0.686483
O O3 0.645452 0.338904 0.733771
O O4 0.642990 0.358742 0.617886
O O5 0.500000 0.283049 0.204349
O O6 0.678372 0.287274 0.158172
O O7 0.630646 0.174983 0.239927
O O8 0.372450 0.324547 0.500000
O O9 0.500000 0.270250 0.574188
O O10 0.313904 0.209405 0.575933
O O11 0.173213 0.083529 0.588478
O O12 0.105158 0.000000 0.500000
O O13 0.000000 0.000000 0.593643
O O14 0.317810 0.104350 0.662212
O O15 0.500000 0.898914 0.300552
O O16 0.628147 0.000000 0.255047
#
# Coordination Sequence:
#
# PCOD9521895 Si02
#       6
#    16  16  16   8  16  16
#     4   9  18  32  52  80 115 151 187 230 281 336
#     4  10  21  36  55  83 118 150 187 233 285 344
#     4  10  21  37  56  79 111 151 194 239 286 339
#     4  11  26  44  59  81 113 147 191 243 287 338
#     4  12  21  37  58  83 108 148 191 231 284 339
#     4  10  20  35  55  82 117 150 182 228 285 339
#
# _framework density 18.152557000000002
#
# number of rings (size 3 to 8) (size 9 to 14) (size 15 to 20)
#    0.000    1.727    2.727    2.182    1.273    0.364 
#    0.000    1.818    0.000    2.182    0.000    0.000 
#    0.000    0.000    0.000   16.364    0.000    0.364 
#
# Total GULP energy -245622.220702 kJ/mol
# GULP energy per Si atom -5582.323198 kJ/mol
# Density = 1.811124 g / cm^3
# Si number density = 18.152557 Si / 1000 Ang^3
#
#
#
# Elastic Constant Matrix: (Units=GPa)
#
#
# Indices 1 2 3 4 5 6 
#
# 1 104.9018 34.1270 29.8702 0.0000 0.0000 0.0000
# 2 34.1270 114.1435 26.9442 0.0000 0.0000 0.0000
# 3 29.8702 26.9442 71.9896 0.0000 0.0000 0.0000
# 4 0.0000 0.0000 0.0000 22.3154 0.0000 0.0000
# 5 0.0000 0.0000 0.0000 0.0000 28.3402 0.0000
# 6 0.0000 0.0000 0.0000 0.0000 0.0000 -16.5108
#
#
#
# Elastic Compliance Matrix: (Units=1/GPa)
#
#
# Indices 1 2 3 4 5 6 
#
# 1 0.011435 -0.002522 -0.003801 0.000000 0.000000 0.000000
# 2 -0.002522 0.010166 -0.002759 0.000000 0.000000 0.000000
# 3 -0.003801 -0.002759 0.016500 0.000000 0.000000 0.000000
# 4 0.000000 0.000000 0.000000 0.044812 0.000000 0.000000
# 5 0.000000 0.000000 0.000000 0.000000 0.035286 0.000000
# 6 0.000000 0.000000 0.000000 0.000000 0.000000 -0.060566
#
#
# Mechanical properties :
#
#
# Convention : Reuss Voigt Hill
#
# Bulk Modulus (GPa) = 50.15227 52.54641 51.34934
# Shear Modulus (GPa) = 60.64855 20.16854 40.40854
#
# Velocity S-wave (km/s) = 5.78645 3.33687 4.72322
# Velocity P-wave (km/s) = 8.50483 6.62240 7.62196
#
# Compressibility (1/GPa) = 0.01993928
#
# Stress axis : x y z
#
# Youngs Moduli (GPa) = 87.44758 98.36659 60.60425
#
# Poissons Ratio (x) = 0.24806 0.23036
# Poissons Ratio (y) = 0.22052 0.16718
# Poissons Ratio (z) = 0.33239 0.27135
#
# Static dielectric constant tensor:
#      x y z
#    x 1.652530 0.000000 0.000000 
#    y 0.000000 1.694280 0.000000 
#    z 0.000000 0.000000 1.592010 
# 
# From -- ./inp_files/52903.got.cif
#   From: 2010.05.17/outbox.cif.g08.bks.cpg/sg71_27_cif.got.tgz:52903.got - 2010.06.03 16:22:01.
