data_PCOD9521504
_publ_section_title
;
Structure prediction by ZEFSAII (Michael W. Deem and Ramdas Pophale) SiO2 
 PCOD9521504
Probable space group: I M M M
;
_chemical_formula_sum "Si O2"
_cell_formula_units_Z 116
_cell_length_a 27.084681
_cell_length_b 12.540635
_cell_length_c 17.430696
_cell_angle_alpha 90.000000
_cell_angle_beta 90.000000
_cell_angle_gamma 90.000000
_cell_volume 5920.494490
_symmetry_space_group_name_H-M "I M M M"
_symmetry_group_IT_number 71
_symmetry_cell_setting 'orthorhombic'
loop_
_space_group_symop_operation_xyz
x,y,z
-x,-y,z
x,-y,-z
-x,y,-z
-x,-y,-z
x,y,-z
-x,y,z
x,-y,z
1/2+x,1/2+y,1/2+z
1/2-x,1/2-y,1/2+z
1/2+x,1/2-y,1/2-z
1/2-x,1/2+y,1/2-z
1/2-x,1/2-y,1/2-z
1/2+x,1/2+y,1/2-z
1/2-x,1/2+y,1/2+z
1/2+x,1/2-y,1/2+z
loop_
_atom_site_type_symbol
_atom_site_label
_atom_site_fract_x
_atom_site_fract_y
_atom_site_fract_z
Si Si1 0.092440 0.000000 0.500000
Si Si2 0.139754 0.778812 0.090659
Si Si3 0.394513 0.121006 0.908088
Si Si4 0.700712 0.784005 0.171097
Si Si5 0.224756 0.620135 0.908582
Si Si6 0.441791 0.622913 0.308365
Si Si7 0.700039 0.384096 0.291694
Si Si8 0.057618 0.838313 0.371411
O O1 0.088926 0.906803 0.432071
O O2 0.170620 0.670202 0.105463
O O3 0.090927 0.798670 0.140175
O O4 0.177648 0.867339 0.124028
O O5 0.131291 0.788672 0.000000
O O6 0.341589 0.157659 0.875073
O O7 0.432080 0.213140 0.882587
O O8 0.406163 0.000000 0.883035
O O9 0.392516 0.121640 0.000000
O O10 0.733629 0.699246 0.123517
O O11 0.679521 0.711080 0.239331
O O12 0.741279 0.865293 0.204463
O O13 0.229524 0.500000 0.878747
O O14 0.231061 0.617450 0.000000
O O15 0.500000 0.641500 0.319869
O O16 0.430737 0.500000 0.330275
O O17 0.432479 0.633652 0.217216
O O18 0.687329 0.500000 0.261782
O O19 0.000000 0.863646 0.387866
#
# Coordination Sequence:
#
# PCOD9521504 Si02
#       8
#     4  16  16  16  16  16  16  16
#     4  12  21  40  70  94 114 146 192 246 294 348
#     4  10  21  36  55  80 112 151 195 234 283 349
#     4  11  24  39  55  82 121 160 194 228 276 343
#     4  10  20  36  54  78 111 147 190 236 291 345
#     4   9  18  35  58  83 111 146 195 251 299 345
#     4  10  21  37  58  86 119 148 182 241 300 346
#     4  10  20  34  54  78 105 143 190 242 291 341
#     4  11  22  40  64  90 117 149 194 241 293 347
#
# _framework density 19.592957999999999
#
# number of rings (size 3 to 8) (size 9 to 14) (size 15 to 20)
#    0.000    1.793    1.379    3.103    0.000    2.207 
#    2.483    6.897    0.000    1.241    0.000    1.931 
#    0.000    0.000    0.000    0.000    0.000    0.000 
#
# Total GULP energy -323251.236554 kJ/mol
# GULP energy per Si atom -5573.297182 kJ/mol
# Density = 1.954836 g / cm^3
# Si number density = 19.592958 Si / 1000 Ang^3
#
#
#
# Elastic Constant Matrix: (Units=GPa)
#
#
# Indices 1 2 3 4 5 6 
#
# 1 45.4630 11.2584 14.6567 0.0000 0.0000 0.0000
# 2 11.2584 114.0963 28.8638 0.0000 0.0000 0.0000
# 3 14.6567 28.8638 76.2110 0.0000 0.0000 0.0000
# 4 0.0000 0.0000 0.0000 25.3422 0.0000 0.0000
# 5 0.0000 0.0000 0.0000 0.0000 20.6829 0.0000
# 6 0.0000 0.0000 0.0000 0.0000 0.0000 9.0038
#
#
#
# Elastic Compliance Matrix: (Units=1/GPa)
#
#
# Indices 1 2 3 4 5 6 
#
# 1 0.023625 -0.001307 -0.004048 0.000000 0.000000 0.000000
# 2 -0.001307 0.009766 -0.003447 0.000000 0.000000 0.000000
# 3 -0.004048 -0.003447 0.015206 0.000000 0.000000 0.000000
# 4 0.000000 0.000000 0.000000 0.039460 0.000000 0.000000
# 5 0.000000 0.000000 0.000000 0.000000 0.048349 0.000000
# 6 0.000000 0.000000 0.000000 0.000000 0.000000 0.111065
#
#
# Mechanical properties :
#
#
# Convention : Reuss Voigt Hill
#
# Bulk Modulus (GPa) = 32.26783 38.36981 35.31882
# Shear Modulus (GPa) = 18.15507 23.07186 20.61347
#
# Velocity S-wave (km/s) = 3.04733 3.43528 3.24711
# Velocity P-wave (km/s) = 5.37462 5.94650 5.66777
#
# Compressibility (1/GPa) = 0.03099062
#
# Stress axis : x y z
#
# Youngs Moduli (GPa) = 42.32854 102.40074 65.76511
#
# Poissons Ratio (x) = 0.13384 0.26625
# Poissons Ratio (y) = 0.05532 0.22671
# Poissons Ratio (z) = 0.17136 0.35300
#
# Static dielectric constant tensor:
#      x y z
#    x 1.711750 0.000000 0.000000 
#    y 0.000000 1.711720 0.000000 
#    z 0.000000 0.000000 1.703270 
# 
# From -- ./inp_files/48918.got.cif
#   From: 2010.05.17/outbox.cif.g08.bks.cpg/sg71_25_cif.got.tgz:48918.got - 2010.06.03 16:22:01.
