data_PCOD9521977
_publ_section_title
;
Structure prediction by ZEFSAII (Michael W. Deem and Ramdas Pophale) SiO2 
 PCOD9521977
Probable space group: I M M M
;
_chemical_formula_sum "Si O2"
_cell_formula_units_Z 58
_cell_length_a 26.718712
_cell_length_b 8.573910
_cell_length_c 14.797689
_cell_angle_alpha 90.000000
_cell_angle_beta 90.000000
_cell_angle_gamma 90.000000
_cell_volume 3389.911301
_symmetry_space_group_name_H-M "I M M M"
_symmetry_group_IT_number 71
_symmetry_cell_setting 'orthorhombic'
loop_
_space_group_symop_operation_xyz
x,y,z
-x,-y,z
x,-y,-z
-x,y,-z
-x,-y,-z
x,y,-z
-x,y,z
x,-y,z
1/2+x,1/2+y,1/2+z
1/2-x,1/2-y,1/2+z
1/2+x,1/2-y,1/2-z
1/2-x,1/2+y,1/2-z
1/2-x,1/2-y,1/2-z
1/2+x,1/2+y,1/2-z
1/2-x,1/2+y,1/2+z
1/2+x,1/2-y,1/2+z
loop_
_atom_site_type_symbol
_atom_site_label
_atom_site_fract_x
_atom_site_fract_y
_atom_site_fract_z
Si Si1 0.390939 0.310422 0.686846
Si Si2 0.000000 0.000000 0.000000
Si Si3 0.000000 0.827362 0.188673
Si Si4 0.266064 0.186026 0.000000
Si Si5 0.296538 0.312729 0.191226
Si Si6 0.347198 0.813939 0.500000
O O1 0.393466 0.500000 0.680458
O O2 0.446659 0.252204 0.710160
O O3 0.347990 0.269485 0.758346
O O4 0.374207 0.249066 0.589345
O O5 0.000000 0.132788 0.081214
O O6 0.000000 0.000000 0.234128
O O7 0.292303 0.245382 0.909069
O O8 0.209598 0.252086 0.000000
O O9 0.263495 0.000000 0.000000
O O10 0.293288 0.500000 0.188023
O O11 0.250000 0.250000 0.250000
O O12 0.346707 0.000000 0.500000
#
# Coordination Sequence:
#
# PCOD9521977 Si02
#       6
#    16   2   8   8  16   8
#     4  10  20  35  57  79 110 147 187 222 273 328
#     4   8  12  24  52  80 118 130 180 224 258 314
#     4   8  16  30  52  82 106 145 183 227 260 323
#     4  12  24  39  56  77 109 148 190 233 285 331
#     4  11  22  36  56  83 112 145 183 228 277 338
#     4  12  23  32  51  80 115 148 180 228 275 337
#
# _framework density 17.109591999999999
#
# number of rings (size 3 to 8) (size 9 to 14) (size 15 to 20)
#    0.414    1.103    2.759    4.138    0.000    1.103 
#    0.000    1.379    0.000    0.828    0.000    5.793 
#    0.000    0.000    0.000    0.000    0.000    0.000 
#
# Total GULP energy -161564.071676 kJ/mol
# GULP energy per Si atom -5571.174885 kJ/mol
# Density = 1.707065 g / cm^3
# Si number density = 17.109592 Si / 1000 Ang^3
#
#
#
# Elastic Constant Matrix: (Units=GPa)
#
#
# Indices 1 2 3 4 5 6 
#
# 1 187.2070 38.1657 80.9101 0.0000 0.0000 0.0000
# 2 38.1657 36.1355 29.1112 0.0000 0.0000 0.0000
# 3 80.9101 29.1112 127.1857 0.0000 0.0000 0.0000
# 4 0.0000 0.0000 0.0000 26.7352 0.0000 0.0000
# 5 0.0000 0.0000 0.0000 0.0000 -3.9957 0.0000
# 6 0.0000 0.0000 0.0000 0.0000 0.0000 18.2366
#
#
#
# Elastic Compliance Matrix: (Units=1/GPa)
#
#
# Indices 1 2 3 4 5 6 
#
# 1 0.008154 -0.005436 -0.003943 0.000000 0.000000 0.000000
# 2 -0.005436 0.037553 -0.005138 0.000000 0.000000 0.000000
# 3 -0.003943 -0.005138 0.011547 0.000000 0.000000 0.000000
# 4 0.000000 0.000000 0.000000 0.037404 0.000000 0.000000
# 5 0.000000 0.000000 0.000000 0.000000 -0.250268 0.000000
# 6 0.000000 0.000000 0.000000 0.000000 0.000000 0.054835
#
#
# Mechanical properties :
#
#
# Convention : Reuss Voigt Hill
#
# Bulk Modulus (GPa) = 35.43357 71.87799 53.65578
# Shear Modulus (GPa) = -80.21254 21.68461 -29.26396
#
# Velocity S-wave (km/s) = -6.85444 3.56391 -4.14017
# Velocity P-wave (km/s) = 6.47223 7.68354 2.92806
#
# Compressibility (1/GPa) = 0.02822183
#
# Stress axis : x y z
#
# Youngs Moduli (GPa) = 122.63903 26.62868 86.60326
#
# Poissons Ratio (x) = 0.14474 0.34149
# Poissons Ratio (y) = 0.66661 0.44494
# Poissons Ratio (z) = 0.48358 0.13681
#
# Static dielectric constant tensor:
#      x y z
#    x 1.625300 0.000000 0.000000 
#    y 0.000000 1.590340 0.000000 
#    z 0.000000 0.000000 1.545310 
# 
# From -- ./inp_files/31149.got.cif
#   From: 2010.05.17/outbox.cif.g08.bks.cpg/sg71_16_cif.got.tgz:31149.got - 2010.06.03 16:22:01.
