data_PCOD9521090
_publ_section_title
;
Structure prediction by ZEFSAII (Michael W. Deem and Ramdas Pophale) SiO2 
 PCOD9521090
Probable space group: I M M M
;
_chemical_formula_sum "Si O2"
_cell_formula_units_Z 104
_cell_length_a 26.464900
_cell_length_b 20.119414
_cell_length_c 9.482652
_cell_angle_alpha 90.000000
_cell_angle_beta 90.000000
_cell_angle_gamma 90.000000
_cell_volume 5049.116570
_symmetry_space_group_name_H-M "I M M M"
_symmetry_group_IT_number 71
_symmetry_cell_setting 'orthorhombic'
loop_
_space_group_symop_operation_xyz
x,y,z
-x,-y,z
x,-y,-z
-x,y,-z
-x,-y,-z
x,y,-z
-x,y,z
x,-y,z
1/2+x,1/2+y,1/2+z
1/2-x,1/2-y,1/2+z
1/2+x,1/2-y,1/2-z
1/2-x,1/2+y,1/2-z
1/2-x,1/2-y,1/2-z
1/2+x,1/2+y,1/2-z
1/2-x,1/2+y,1/2+z
1/2+x,1/2-y,1/2+z
loop_
_atom_site_type_symbol
_atom_site_label
_atom_site_fract_x
_atom_site_fract_y
_atom_site_fract_z
Si Si1 0.445056 0.705774 0.830576
Si Si2 0.405642 0.077897 0.657529
Si Si3 0.665247 0.256176 0.163432
Si Si4 0.585216 0.425745 0.331842
Si Si5 0.302040 0.617579 0.332397
Si Si6 0.807484 0.604084 0.664150
Si Si7 0.000000 0.581697 0.660678
O O1 0.500000 0.734036 0.790752
O O2 0.394180 0.746187 0.794320
O O3 0.438739 0.634099 0.756011
O O4 0.444687 0.697797 0.000000
O O5 0.404265 0.107387 0.500000
O O6 0.352190 0.081065 0.735750
O O7 0.450144 0.104508 0.756849
O O8 0.417784 0.000000 0.642477
O O9 0.691442 0.311973 0.256417
O O10 0.689743 0.184178 0.172419
O O11 0.667486 0.277379 0.000000
O O12 0.576971 0.415695 0.500000
O O13 0.567566 0.500000 0.295300
O O14 0.645848 0.421225 0.306849
O O15 0.298272 0.628385 0.500000
O O16 0.249046 0.583960 0.292062
O O17 0.816731 0.584969 0.500000
O O18 0.000000 0.500000 0.654515
O O19 0.000000 0.605833 0.500000
#
# Coordination Sequence:
#
# PCOD9521090 Si02
#       7
#    16  16  16  16  16  16   8
#     4   9  18  33  51  70  97 132 165 203 253 302
#     4  10  21  36  53  75 105 137 168 207 255 304
#     4   9  18  33  51  73 100 130 170 212 255 306
#     4   9  18  32  49  71  99 131 167 206 252 302
#     4   9  18  32  51  73 100 134 170 210 257 304
#     4  10  20  33  51  78 104 131 172 213 251 305
#     4   9  17  33  57  77  95 127 167 203 244 295
#
# _framework density 20.597663000000001
#
# number of rings (size 3 to 8) (size 9 to 14) (size 15 to 20)
#    0.000    2.692    0.000    1.154    0.000    4.615 
#    1.385    3.077    0.000    0.000    0.000    0.000 
#    0.000    0.000    0.000    0.000    0.000    0.000 
#
# Total GULP energy -290139.918343 kJ/mol
# GULP energy per Si atom -5579.613814 kJ/mol
# Density = 2.055078 g / cm^3
# Si number density = 20.597663 Si / 1000 Ang^3
#
#
#
# Elastic Constant Matrix: (Units=GPa)
#
#
# Indices 1 2 3 4 5 6 
#
# 1 137.1698 -4.0421 47.8989 0.0000 0.0000 0.0000
# 2 -4.0421 39.1871 -1.1465 0.0000 0.0000 0.0000
# 3 47.8989 -1.1465 60.3219 0.0000 0.0000 0.0000
# 4 0.0000 0.0000 0.0000 19.2489 0.0000 0.0000
# 5 0.0000 0.0000 0.0000 0.0000 25.1272 0.0000
# 6 0.0000 0.0000 0.0000 0.0000 0.0000 78.0228
#
#
#
# Elastic Compliance Matrix: (Units=1/GPa)
#
#
# Indices 1 2 3 4 5 6 
#
# 1 0.010113 0.000809 -0.008015 0.000000 0.000000 0.000000
# 2 0.000809 0.025597 -0.000156 0.000000 0.000000 0.000000
# 3 -0.008015 -0.000156 0.022939 0.000000 0.000000 0.000000
# 4 0.000000 0.000000 0.000000 0.051951 0.000000 0.000000
# 5 0.000000 0.000000 0.000000 0.000000 0.039798 0.000000
# 6 0.000000 0.000000 0.000000 0.000000 0.000000 0.012817
#
#
# Mechanical properties :
#
#
# Convention : Reuss Voigt Hill
#
# Bulk Modulus (GPa) = 22.76570 35.78884 29.27727
# Shear Modulus (GPa) = 25.96329 37.41100 31.68715
#
# Velocity S-wave (km/s) = 3.55420 4.26640 3.92648
# Velocity P-wave (km/s) = 5.28391 6.45620 5.89924
#
# Compressibility (1/GPa) = 0.04392574
#
# Stress axis : x y z
#
# Youngs Moduli (GPa) = 98.88505 39.06643 43.59411
#
# Poissons Ratio (x) = -0.03159 0.34939
# Poissons Ratio (y) = -0.07996 0.00678
# Poissons Ratio (z) = 0.79253 0.00608
#
# Static dielectric constant tensor:
#      x y z
#    x 1.771220 0.000000 0.000000 
#    y 0.000000 1.729960 0.000000 
#    z 0.000000 0.000000 1.698850 
# 
# From -- ./inp_files/15261.got.cif
#   From: 2010.05.17/outbox.cif.g08.bks.cpg/sg71_8_cif.got.tgz:15261.got - 2010.06.03 16:22:01.
