data_PCOD9521690
_publ_section_title
;
Structure prediction by ZEFSAII (Michael W. Deem and Ramdas Pophale) SiO2 
 PCOD9521690
Probable space group: I M M M
;
_chemical_formula_sum "Si O2"
_cell_formula_units_Z 88
_cell_length_a 21.795508
_cell_length_b 10.244182
_cell_length_c 20.352303
_cell_angle_alpha 90.000000
_cell_angle_beta 90.000000
_cell_angle_gamma 90.000000
_cell_volume 4544.204225
_symmetry_space_group_name_H-M "I M M M"
_symmetry_group_IT_number 71
_symmetry_cell_setting 'orthorhombic'
loop_
_space_group_symop_operation_xyz
x,y,z
-x,-y,z
x,-y,-z
-x,y,-z
-x,-y,-z
x,y,-z
-x,y,z
x,-y,z
1/2+x,1/2+y,1/2+z
1/2-x,1/2-y,1/2+z
1/2+x,1/2-y,1/2-z
1/2-x,1/2+y,1/2-z
1/2-x,1/2-y,1/2-z
1/2+x,1/2+y,1/2-z
1/2-x,1/2+y,1/2+z
1/2+x,1/2-y,1/2+z
loop_
_atom_site_type_symbol
_atom_site_label
_atom_site_fract_x
_atom_site_fract_y
_atom_site_fract_z
Si Si1 0.621619 0.645658 0.251674
Si Si2 0.428636 0.157926 0.500000
Si Si3 0.763960 0.853142 0.665904
Si Si4 0.827558 0.649921 0.573919
Si Si5 0.618559 0.851604 0.356404
Si Si6 0.071571 0.147690 0.604116
O O1 0.615129 0.500000 0.278868
O O2 0.694186 0.662406 0.231561
O O3 0.595582 0.750630 0.302040
O O4 0.587052 0.652558 0.181932
O O5 0.500000 0.200790 0.500000
O O6 0.395448 0.193390 0.431151
O O7 0.428427 0.000000 0.500000
O O8 0.784338 0.733628 0.620736
O O9 0.690899 0.856822 0.661273
O O10 0.783103 0.000000 0.642129
O O11 0.802874 0.648034 0.500000
O O12 0.836434 0.500000 0.595579
O O13 0.889554 0.735082 0.574151
O O14 0.594362 0.000000 0.349542
O O15 0.000000 0.165032 0.592691
O O16 0.087783 0.000000 0.581513
#
# Coordination Sequence:
#
# PCOD9521690 Si02
#       6
#    16   8  16  16  16  16
#     4   9  18  33  52  79 110 136 167 221 279 320
#     4   9  20  38  55  77 111 143 180 231 272 311
#     4   9  19  34  54  79 106 138 180 221 265 326
#     4  10  21  34  49  75 110 142 173 217 271 318
#     4  10  20  34  56  81 103 139 183 219 265 323
#     4   9  19  36  55  75 102 140 185 223 257 307
#
# _framework density 19.365328000000002
#
# number of rings (size 3 to 8) (size 9 to 14) (size 15 to 20)
#    0.000    2.636    0.000    2.182    1.273    6.545 
#    0.000    2.273    0.000    0.545    0.000    0.000 
#    0.000    0.000    0.000    0.000    0.000    0.000 
#
# Total GULP energy -244966.189184 kJ/mol
# GULP energy per Si atom -5567.413391 kJ/mol
# Density = 1.932125 g / cm^3
# Si number density = 19.365328 Si / 1000 Ang^3
#
#
#
# Elastic Constant Matrix: (Units=GPa)
#
#
# Indices 1 2 3 4 5 6 
#
# 1 20.4178 3.1285 -7.3547 0.0000 0.0000 0.0000
# 2 3.1285 148.1872 62.4249 0.0000 0.0000 0.0000
# 3 -7.3547 62.4249 96.7825 0.0000 0.0000 0.0000
# 4 0.0000 0.0000 0.0000 83.1982 0.0000 0.0000
# 5 0.0000 0.0000 0.0000 0.0000 4.8518 0.0000
# 6 0.0000 0.0000 0.0000 0.0000 0.0000 11.3169
#
#
#
# Elastic Compliance Matrix: (Units=1/GPa)
#
#
# Indices 1 2 3 4 5 6 
#
# 1 0.051855 -0.003782 0.006380 0.000000 0.000000 0.000000
# 2 -0.003782 0.009542 -0.006442 0.000000 0.000000 0.000000
# 3 0.006380 -0.006442 0.014972 0.000000 0.000000 0.000000
# 4 0.000000 0.000000 0.000000 0.012019 0.000000 0.000000
# 5 0.000000 0.000000 0.000000 0.000000 0.206111 0.000000
# 6 0.000000 0.000000 0.000000 0.000000 0.000000 0.088364
#
#
# Mechanical properties :
#
#
# Convention : Reuss Voigt Hill
#
# Bulk Modulus (GPa) = 14.56018 42.42055 28.49037
# Shear Modulus (GPa) = 12.09352 33.68595 22.88974
#
# Velocity S-wave (km/s) = 2.50170 4.17525 3.44175
# Velocity P-wave (km/s) = 3.98493 6.72284 5.52613
#
# Compressibility (1/GPa) = 0.06868045
#
# Stress axis : x y z
#
# Youngs Moduli (GPa) = 19.28468 104.80240 66.78995
#
# Poissons Ratio (x) = 0.39641 -0.42614
# Poissons Ratio (y) = 0.07294 0.43025
# Poissons Ratio (z) = -0.12304 0.67513
#
# Static dielectric constant tensor:
#      x y z
#    x 1.706080 0.000000 0.000000 
#    y 0.000000 1.686560 0.000000 
#    z 0.000000 0.000000 1.689180 
# 
# From -- ./inp_files/55566.got.cif
#   From: 2010.05.17/outbox.cif.g08.bks.cpg/sg71_28_cif.got.tgz:55566.got - 2010.06.03 16:22:01.
