data_PCOD9521659
_publ_section_title
;
Structure prediction by ZEFSAII (Michael W. Deem and Ramdas Pophale) SiO2 
 PCOD9521659
Probable space group: I M M M
;
_chemical_formula_sum "Si O2"
_cell_formula_units_Z 112
_cell_length_a 13.739872
_cell_length_b 26.105185
_cell_length_c 15.721453
_cell_angle_alpha 90.000000
_cell_angle_beta 90.000000
_cell_angle_gamma 90.000000
_cell_volume 5639.000640
_symmetry_space_group_name_H-M "I M M M"
_symmetry_group_IT_number 71
_symmetry_cell_setting 'orthorhombic'
loop_
_space_group_symop_operation_xyz
x,y,z
-x,-y,z
x,-y,-z
-x,y,-z
-x,-y,-z
x,y,-z
-x,y,z
x,-y,z
1/2+x,1/2+y,1/2+z
1/2-x,1/2-y,1/2+z
1/2+x,1/2-y,1/2-z
1/2-x,1/2+y,1/2-z
1/2-x,1/2-y,1/2-z
1/2+x,1/2+y,1/2-z
1/2-x,1/2+y,1/2+z
1/2+x,1/2-y,1/2+z
loop_
_atom_site_type_symbol
_atom_site_label
_atom_site_fract_x
_atom_site_fract_y
_atom_site_fract_z
Si Si1 0.615050 0.168150 0.906788
Si Si2 0.112228 0.420223 0.099058
Si Si3 0.887557 0.260819 0.747192
Si Si4 0.800872 0.442585 0.402660
Si Si5 0.309180 0.807801 0.590068
Si Si6 0.109029 0.156435 0.349385
Si Si7 0.706705 0.443462 0.221157
O O1 0.500000 0.177687 0.910341
O O2 0.650132 0.202594 0.828963
O O3 0.632069 0.107580 0.894196
O O4 0.656193 0.182281 0.000000
O O5 0.125354 0.358710 0.100925
O O6 0.192053 0.439619 0.166740
O O7 0.000000 0.433877 0.118668
O O8 0.132328 0.435658 0.000000
O O9 0.827866 0.271987 0.830877
O O10 0.888447 0.202003 0.719587
O O11 0.000000 0.275676 0.763241
O O12 0.760415 0.439935 0.500000
O O13 0.846161 0.500000 0.395931
O O14 0.729702 0.438683 0.321717
O O15 0.332312 0.783313 0.500000
O O16 0.198456 0.828013 0.590894
O O17 0.137955 0.102110 0.309608
O O18 0.000000 0.155860 0.386100
O O19 0.665686 0.500000 0.205378
#
# Coordination Sequence:
#
# PCOD9521659 Si02
#       7
#    16  16  16  16  16  16  16
#     4   9  17  29  48  76 109 146 184 217 256 313
#     4   9  18  33  54  82 115 146 176 216 270 334
#     4  10  20  35  56  82 114 146 178 223 273 324
#     4   9  18  32  50  74 106 143 180 219 263 312
#     4  10  20  34  55  83 115 151 183 212 260 327
#     4  10  22  39  57  79 108 142 184 235 283 322
#     4  10  21  37  57  79 104 140 186 232 281 336
#
# _framework density 19.861674000000001
#
# number of rings (size 3 to 8) (size 9 to 14) (size 15 to 20)
#    0.000    2.429    0.000    2.571    0.000    4.571 
#    0.000    7.143    0.000    1.286    0.000    6.000 
#    0.000    0.000    0.000    0.000    0.000    0.000 
#
# Total GULP energy -312161.532014 kJ/mol
# GULP energy per Si atom -5574.313072 kJ/mol
# Density = 1.981647 g / cm^3
# Si number density = 19.861674 Si / 1000 Ang^3
#
#
#
# Elastic Constant Matrix: (Units=GPa)
#
#
# Indices 1 2 3 4 5 6 
#
# 1 67.9590 24.9548 23.0847 0.0000 0.0000 0.0000
# 2 24.9548 104.4251 54.3727 0.0000 0.0000 0.0000
# 3 23.0847 54.3727 105.6356 -0.0001 0.0000 0.0000
# 4 0.0000 0.0000 -0.0001 -0.8420 0.0000 0.0000
# 5 0.0000 0.0000 0.0000 0.0000 -4.8872 0.0000
# 6 0.0000 0.0000 0.0000 0.0000 0.0000 17.9178
#
#
#
# Elastic Compliance Matrix: (Units=1/GPa)
#
#
# Indices 1 2 3 4 5 6 
#
# 1 0.016480 -0.002818 -0.002151 0.000001 0.000000 0.000000
# 2 -0.002818 0.013564 -0.006366 0.000000 0.000000 0.000000
# 3 -0.002151 -0.006366 0.013213 -0.000001 0.000000 0.000000
# 4 0.000001 0.000000 -0.000001 -1.187614 0.000007 0.000001
# 5 0.000000 0.000000 0.000000 0.000007 -0.204617 0.000000
# 6 0.000000 0.000000 0.000000 0.000001 0.000000 0.055810
#
#
# Mechanical properties :
#
#
# Convention : Reuss Voigt Hill
#
# Bulk Modulus (GPa) = 48.57301 53.64936 51.11118
# Shear Modulus (GPa) = -3.95685 14.14489 5.09402
#
# Velocity S-wave (km/s) = -1.41299 2.67155 1.60322
# Velocity P-wave (km/s) = 4.67404 6.04867 5.40523
#
# Compressibility (1/GPa) = 0.02058757
#
# Stress axis : x y z
#
# Youngs Moduli (GPa) = 60.67855 73.72204 75.68187
#
# Poissons Ratio (x) = 0.20778 0.16277
# Poissons Ratio (y) = 0.17102 0.48179
# Poissons Ratio (z) = 0.13050 0.46931
#
# Static dielectric constant tensor:
#      x y z
#    x 1.702640 0.000000 0.000000 
#    y 0.000000 1.699490 0.000000 
#    z 0.000000 0.000000 1.711480 
# 
# From -- ./inp_files/35084.got.cif
#   From: 2010.05.17/outbox.cif.g08.bks.cpg/sg71_18_cif.got.tgz:35084.got - 2010.06.03 16:22:01.
