data_PCOD9521653
_publ_section_title
;
Structure prediction by ZEFSAII (Michael W. Deem and Ramdas Pophale) SiO2 
 PCOD9521653
Probable space group: I M M M
;
_chemical_formula_sum "Si O2"
_cell_formula_units_Z 80
_cell_length_a 17.432105
_cell_length_b 15.386827
_cell_length_c 15.118069
_cell_angle_alpha 90.000000
_cell_angle_beta 90.000000
_cell_angle_gamma 90.000000
_cell_volume 4055.040790
_symmetry_space_group_name_H-M "I M M M"
_symmetry_group_IT_number 71
_symmetry_cell_setting 'orthorhombic'
loop_
_space_group_symop_operation_xyz
x,y,z
-x,-y,z
x,-y,-z
-x,y,-z
-x,-y,-z
x,y,-z
-x,y,z
x,-y,z
1/2+x,1/2+y,1/2+z
1/2-x,1/2-y,1/2+z
1/2+x,1/2-y,1/2-z
1/2-x,1/2+y,1/2-z
1/2-x,1/2-y,1/2-z
1/2+x,1/2+y,1/2-z
1/2-x,1/2+y,1/2+z
1/2+x,1/2-y,1/2+z
loop_
_atom_site_type_symbol
_atom_site_label
_atom_site_fract_x
_atom_site_fract_y
_atom_site_fract_z
Si Si1 0.151855 0.597858 0.783413
Si Si2 0.806683 0.167725 0.749763
Si Si3 0.590958 0.397055 0.100329
Si Si4 0.089306 0.394466 0.594389
Si Si5 0.408367 0.258184 0.605412
O O1 0.122590 0.500000 0.799071
O O2 0.243642 0.594878 0.771938
O O3 0.124133 0.631310 0.687369
O O4 0.120969 0.665170 0.856329
O O5 0.750000 0.250000 0.750000
O O6 0.865993 0.162131 0.669841
O O7 0.856904 0.172764 0.839178
O O8 0.500000 0.381901 0.104231
O O9 0.602766 0.500000 0.119176
O O10 0.617058 0.380818 0.000000
O O11 0.122868 0.363500 0.500000
O O12 0.093843 0.500000 0.593278
O O13 0.000000 0.370641 0.595110
O O14 0.396431 0.264113 0.500000
O O15 0.500000 0.267445 0.622731
#
# Coordination Sequence:
#
# PCOD9521653 Si02
#       5
#    16  16  16  16  16
#     4  10  20  34  55  83 110 138 177 229 286 335
#     4  10  21  35  52  77 113 151 181 214 266 331
#     4   9  18  35  62  91 112 134 173 230 290 337
#     4   8  14  26  45  69  98 131 166 209 263 319
#     4  10  22  39  56  75 106 152 198 231 261 309
#
# _framework density 19.728532999999999
#
# number of rings (size 3 to 8) (size 9 to 14) (size 15 to 20)
#    0.000    2.600    0.000    3.000    0.000    5.600 
#    0.000    4.000    0.000   12.600    0.000    7.000 
#    0.000    0.000    0.000    0.000    0.000    0.000 
#
# Total GULP energy -222822.185911 kJ/mol
# GULP energy per Si atom -5570.554648 kJ/mol
# Density = 1.968363 g / cm^3
# Si number density = 19.728533 Si / 1000 Ang^3
#
#
#
# Elastic Constant Matrix: (Units=GPa)
#
#
# Indices 1 2 3 4 5 6 
#
# 1 85.0754 9.2722 59.3545 0.0000 0.0000 0.0000
# 2 9.2722 43.5249 12.6623 0.0000 0.0000 0.0000
# 3 59.3545 12.6623 125.5336 0.0000 0.0000 0.0000
# 4 0.0000 0.0000 0.0000 24.3389 0.0000 0.0000
# 5 0.0000 0.0000 0.0000 0.0000 -28.3979 0.0000
# 6 0.0000 0.0000 0.0000 0.0000 0.0000 54.3197
#
#
#
# Elastic Compliance Matrix: (Units=1/GPa)
#
#
# Indices 1 2 3 4 5 6 
#
# 1 0.017619 -0.001370 -0.008192 0.000000 0.000000 0.000000
# 2 -0.001370 0.023776 -0.001750 0.000000 0.000000 0.000000
# 3 -0.008192 -0.001750 0.012016 0.000000 0.000000 0.000000
# 4 0.000000 0.000000 0.000000 0.041086 0.000000 0.000000
# 5 0.000000 0.000000 0.000000 0.000000 -0.035214 0.000000
# 6 0.000000 0.000000 0.000000 0.000000 0.000000 0.018410
#
#
# Mechanical properties :
#
#
# Convention : Reuss Voigt Hill
#
# Bulk Modulus (GPa) = 32.48262 46.30133 39.39197
# Shear Modulus (GPa) = 45.21532 21.57514 33.39523
#
# Velocity S-wave (km/s) = 4.79255 3.31055 4.11875
# Velocity P-wave (km/s) = 6.86478 6.17521 6.52910
#
# Compressibility (1/GPa) = 0.03078570
#
# Stress axis : x y z
#
# Youngs Moduli (GPa) = 56.75612 42.05842 83.22159
#
# Poissons Ratio (x) = 0.05762 0.68179
# Poissons Ratio (y) = 0.07776 0.14568
# Poissons Ratio (z) = 0.46497 0.07362
#
# Static dielectric constant tensor:
#      x y z
#    x 1.626950 0.000000 0.000000 
#    y 0.000000 1.765250 0.000000 
#    z 0.000000 0.000000 1.693570 
# 
# From -- ./inp_files/36238.got.cif
#   From: 2010.05.17/outbox.cif.g08.bks.cpg/sg71_19_cif.got.tgz:36238.got - 2010.06.03 16:22:01.
