data_PCOD9521662
_publ_section_title
;
Structure prediction by ZEFSAII (Michael W. Deem and Ramdas Pophale) SiO2 
 PCOD9521662
Probable space group: I M M M
;
_chemical_formula_sum "Si O2"
_cell_formula_units_Z 116
_cell_length_a 8.339921
_cell_length_b 26.459388
_cell_length_c 26.373594
_cell_angle_alpha 90.000000
_cell_angle_beta 90.000000
_cell_angle_gamma 90.000000
_cell_volume 5819.840038
_symmetry_space_group_name_H-M "I M M M"
_symmetry_group_IT_number 71
_symmetry_cell_setting 'orthorhombic'
loop_
_space_group_symop_operation_xyz
x,y,z
-x,-y,z
x,-y,-z
-x,y,-z
-x,-y,-z
x,y,-z
-x,y,z
x,-y,z
1/2+x,1/2+y,1/2+z
1/2-x,1/2-y,1/2+z
1/2+x,1/2-y,1/2-z
1/2-x,1/2+y,1/2-z
1/2-x,1/2-y,1/2-z
1/2+x,1/2+y,1/2-z
1/2-x,1/2+y,1/2+z
1/2+x,1/2-y,1/2+z
loop_
_atom_site_type_symbol
_atom_site_label
_atom_site_fract_x
_atom_site_fract_y
_atom_site_fract_z
Si Si1 0.678753 0.604698 0.057591
Si Si2 0.183626 0.676717 0.142609
Si Si3 0.311961 0.785679 0.845099
Si Si4 0.809793 0.662760 0.446338
Si Si5 0.190709 0.944216 0.077400
Si Si6 0.313112 0.345654 0.749148
Si Si7 0.808534 0.443386 0.692738
Si Si8 0.500000 0.500000 0.072431
O O1 0.500000 0.628764 0.056883
O O2 0.772450 0.634373 0.101103
O O3 0.637677 0.545698 0.069234
O O4 0.744263 0.608304 0.000000
O O5 0.289579 0.727297 0.141146
O O6 0.211038 0.657666 0.199792
O O7 0.000000 0.691912 0.135441
O O8 0.500000 0.797709 0.838742
O O9 0.243712 0.815908 0.893610
O O10 0.229256 0.803368 0.793045
O O11 0.745031 0.683323 0.500000
O O12 0.780399 0.603065 0.445766
O O13 0.000000 0.673001 0.445354
O O14 0.232759 0.942885 0.136944
O O15 0.000000 0.938534 0.069934
O O16 0.238007 0.000000 0.059045
O O17 0.500000 0.341423 0.762227
O O18 0.273799 0.399474 0.724163
O O19 0.785433 0.500000 0.714033
O O20 0.000000 0.434215 0.688683
#
# Coordination Sequence:
#
# PCOD9521662 Si02
#       8
#    16  16  16  16  16  16  16   4
#     4   9  18  39  70 100 130 167 208 250 302 370
#     4  12  26  42  62  95 132 166 210 259 309 369
#     4  11  23  42  65  87 120 166 213 265 322 380
#     4  10  22  39  60  86 116 155 206 261 317 376
#     4  10  20  34  55  83 116 155 200 251 308 368
#     4  12  24  41  64  90 123 164 212 263 319 384
#     4  10  20  36  59  87 120 159 202 252 311 372
#     4   8  17  40  78 106 132 176 214 250 311 386
#
# _framework density 19.931819999999998
#
# number of rings (size 3 to 8) (size 9 to 14) (size 15 to 20)
#    0.414    1.103    1.379    4.552    0.000    3.586 
#    1.241    3.103    0.000    0.828    0.000    0.000 
#    0.000    0.000    0.000    0.000    0.000    0.000 
#
# Total GULP energy -323042.485030 kJ/mol
# GULP energy per Si atom -5569.698018 kJ/mol
# Density = 1.988645 g / cm^3
# Si number density = 19.931820 Si / 1000 Ang^3
#
#
#
# Elastic Constant Matrix: (Units=GPa)
#
#
# Indices 1 2 3 4 5 6 
#
# 1 28.3492 -8.9853 -2.6170 0.0000 0.0000 0.0000
# 2 -8.9853 87.7993 41.5843 0.0000 0.0000 0.0000
# 3 -2.6170 41.5843 104.6540 0.0000 0.0000 0.0000
# 4 0.0000 0.0000 0.0000 -0.4833 0.0000 0.0000
# 5 0.0000 0.0000 0.0000 0.0000 12.2377 0.0000
# 6 0.0000 0.0000 0.0000 0.0000 0.0000 27.0919
#
#
#
# Elastic Compliance Matrix: (Units=1/GPa)
#
#
# Indices 1 2 3 4 5 6 
#
# 1 0.036499 0.004069 -0.000704 0.000000 0.000000 0.000000
# 2 0.004069 0.014484 -0.005653 0.000000 0.000000 0.000000
# 3 -0.000704 -0.005653 0.011784 0.000000 0.000000 0.000000
# 4 0.000000 0.000000 0.000000 -2.069081 0.000000 0.000000
# 5 0.000000 0.000000 0.000000 0.000000 0.081714 0.000000
# 6 0.000000 0.000000 0.000000 0.000000 0.000000 0.036911
#
#
# Mechanical properties :
#
#
# Convention : Reuss Voigt Hill
#
# Bulk Modulus (GPa) = 17.18530 31.19630 24.19080
# Shear Modulus (GPa) = -2.68281 20.49063 8.90391
#
# Velocity S-wave (km/s) = -1.16143 3.20978 2.11586
# Velocity P-wave (km/s) = 2.61576 5.42424 4.25820
#
# Compressibility (1/GPa) = 0.05818928
#
# Stress axis : x y z
#
# Youngs Moduli (GPa) = 27.39808 69.04368 84.86054
#
# Poissons Ratio (x) = -0.28092 0.05974
# Poissons Ratio (y) = -0.11148 0.47974
# Poissons Ratio (z) = 0.01929 0.39033
#
# Static dielectric constant tensor:
#      x y z
#    x 1.692040 0.000000 0.000000 
#    y 0.000000 1.696210 0.000000 
#    z 0.000000 0.000000 1.680850 
# 
# From -- ./inp_files/58107.got.cif
#   From: 2010.05.17/outbox.cif.g08.bks.cpg/sg71_30_cif.got.tgz:58107.got - 2010.06.03 16:22:01.
