data_PCOD9521474
_publ_section_title
;
Structure prediction by ZEFSAII (Michael W. Deem and Ramdas Pophale) SiO2 
 PCOD9521474
Probable space group: I M M M
;
_chemical_formula_sum "Si O2"
_cell_formula_units_Z 96
_cell_length_a 9.115442
_cell_length_b 24.498580
_cell_length_c 23.701766
_cell_angle_alpha 90.000000
_cell_angle_beta 90.000000
_cell_angle_gamma 90.000000
_cell_volume 5292.969001
_symmetry_space_group_name_H-M "I M M M"
_symmetry_group_IT_number 71
_symmetry_cell_setting 'orthorhombic'
loop_
_space_group_symop_operation_xyz
x,y,z
-x,-y,z
x,-y,-z
-x,y,-z
-x,-y,-z
x,y,-z
-x,y,z
x,-y,z
1/2+x,1/2+y,1/2+z
1/2-x,1/2-y,1/2+z
1/2+x,1/2-y,1/2-z
1/2-x,1/2+y,1/2-z
1/2-x,1/2-y,1/2-z
1/2+x,1/2+y,1/2-z
1/2-x,1/2+y,1/2+z
1/2+x,1/2-y,1/2+z
loop_
_atom_site_type_symbol
_atom_site_label
_atom_site_fract_x
_atom_site_fract_y
_atom_site_fract_z
Si Si1 0.669855 0.239430 0.434448
Si Si2 0.827447 0.113547 0.827406
Si Si3 0.673055 0.776358 0.830508
Si Si4 0.674357 0.439338 0.789327
Si Si5 0.326983 0.934196 0.063706
Si Si6 0.169593 0.333171 0.165509
O O1 0.704460 0.236814 0.500000
O O2 0.500000 0.258531 0.427795
O O3 0.779552 0.275637 0.397159
O O4 0.676102 0.181527 0.401455
O O5 0.742617 0.168032 0.808637
O O6 0.805585 0.069730 0.777735
O O7 0.765067 0.092384 0.886456
O O8 0.000000 0.125446 0.831794
O O9 0.500000 0.774319 0.823176
O O10 0.748735 0.720365 0.809533
O O11 0.500000 0.435180 0.800198
O O12 0.724582 0.500000 0.805410
O O13 0.755058 0.389624 0.819666
O O14 0.500000 0.921637 0.071193
O O15 0.312146 0.000000 0.066474
O O16 0.283932 0.917189 0.000000
O O17 0.000000 0.333036 0.182977
#
# Coordination Sequence:
#
# PCOD9521474 Si02
#       6
#    16  16  16  16  16  16
#     4   8  16  33  55  80 111 143 177 219 267 322
#     4  11  22  36  54  79 110 145 186 228 274 326
#     4  10  20  34  53  80 110 142 178 219 269 323
#     4  10  22  39  58  80 108 143 183 230 277 324
#     4   9  19  36  55  75 103 140 183 232 281 326
#     4   9  19  36  57  83 110 143 183 222 274 331
#
# _framework density 18.137269
#
# number of rings (size 3 to 8) (size 9 to 14) (size 15 to 20)
#    1.000    1.500    0.000    3.000    0.000    4.667 
#    0.000    0.833    0.000    0.500    0.000    3.500 
#    0.000    0.000    0.000    0.000    0.000    0.000 
#
# Total GULP energy -267511.503154 kJ/mol
# GULP energy per Si atom -5573.156316 kJ/mol
# Density = 1.809599 g / cm^3
# Si number density = 18.137269 Si / 1000 Ang^3
#
#
#
# Elastic Constant Matrix: (Units=GPa)
#
#
# Indices 1 2 3 4 5 6 
#
# 1 73.1589 38.8321 5.2583 0.0000 0.0000 0.0000
# 2 38.8321 88.7431 1.9879 0.0000 0.0000 0.0000
# 3 5.2583 1.9879 41.1363 0.0000 0.0000 0.0000
# 4 0.0000 0.0000 0.0000 24.9369 0.0000 0.0000
# 5 0.0000 0.0000 0.0000 0.0000 19.8020 0.0000
# 6 0.0000 0.0000 0.0000 0.0000 0.0000 27.1000
#
#
#
# Elastic Compliance Matrix: (Units=1/GPa)
#
#
# Indices 1 2 3 4 5 6 
#
# 1 0.017954 -0.007813 -0.001917 0.000000 0.000000 0.000000
# 2 -0.007813 0.014681 0.000289 0.000000 0.000000 0.000000
# 3 -0.001917 0.000289 0.024541 0.000000 0.000000 0.000000
# 4 0.000000 0.000000 0.000000 0.040101 0.000000 0.000000
# 5 0.000000 0.000000 0.000000 0.000000 0.050500 0.000000
# 6 0.000000 0.000000 0.000000 0.000000 0.000000 0.036900
#
#
# Mechanical properties :
#
#
# Convention : Reuss Voigt Hill
#
# Bulk Modulus (GPa) = 26.11472 32.79942 29.45707
# Shear Modulus (GPa) = 23.11349 24.83178 23.97263
#
# Velocity S-wave (km/s) = 3.57370 3.70415 3.63951
# Velocity P-wave (km/s) = 5.60875 6.03470 5.82562
#
# Compressibility (1/GPa) = 0.03829257
#
# Stress axis : x y z
#
# Youngs Moduli (GPa) = 55.69817 68.11562 40.74890
#
# Poissons Ratio (x) = 0.53221 0.07813
# Poissons Ratio (y) = 0.43519 -0.01179
# Poissons Ratio (z) = 0.10680 -0.01971
#
# Static dielectric constant tensor:
#      x y z
#    x 1.608250 0.000000 0.000000 
#    y 0.000000 1.614040 0.000000 
#    z 0.000000 0.000000 1.649180 
# 
# From -- ./inp_files/63460.got.cif
#   From: 2010.05.17/outbox.cif.g08.bks.cpg/sg71_32_cif.got.tgz:63460.got - 2010.06.03 16:22:01.
