data_PCOD9521953
_publ_section_title
;
Structure prediction by ZEFSAII (Michael W. Deem and Ramdas Pophale) SiO2 
 PCOD9521953
Probable space group: I M M M
;
_chemical_formula_sum "Si O2"
_cell_formula_units_Z 88
_cell_length_a 19.784187
_cell_length_b 12.904565
_cell_length_c 16.357223
_cell_angle_alpha 90.000000
_cell_angle_beta 90.000000
_cell_angle_gamma 90.000000
_cell_volume 4176.102526
_symmetry_space_group_name_H-M "I M M M"
_symmetry_group_IT_number 71
_symmetry_cell_setting 'orthorhombic'
loop_
_space_group_symop_operation_xyz
x,y,z
-x,-y,z
x,-y,-z
-x,y,-z
-x,-y,-z
x,y,-z
-x,y,z
x,-y,z
1/2+x,1/2+y,1/2+z
1/2-x,1/2-y,1/2+z
1/2+x,1/2-y,1/2-z
1/2-x,1/2+y,1/2-z
1/2-x,1/2-y,1/2-z
1/2+x,1/2+y,1/2-z
1/2-x,1/2+y,1/2+z
1/2+x,1/2-y,1/2+z
loop_
_atom_site_type_symbol
_atom_site_label
_atom_site_fract_x
_atom_site_fract_y
_atom_site_fract_z
Si Si1 0.919391 0.378684 0.595930
Si Si2 0.076719 0.000000 0.403318
Si Si3 0.577467 0.381587 0.662987
Si Si4 0.572818 0.166556 0.593520
Si Si5 0.151248 0.808573 0.320954
Si Si6 0.220390 0.380044 0.096590
O O1 0.903731 0.356138 0.500000
O O2 0.904886 0.500000 0.610369
O O3 0.879650 0.301549 0.654548
O O4 0.000000 0.363225 0.606078
O O5 0.113869 0.896728 0.374548
O O6 0.075178 0.000000 0.500000
O O7 0.000000 0.000000 0.371779
O O8 0.500000 0.379344 0.696645
O O9 0.590425 0.500000 0.637272
O O10 0.577952 0.291443 0.595986
O O11 0.630860 0.344211 0.730445
O O12 0.570876 0.130389 0.500000
O O13 0.500000 0.138624 0.632239
O O14 0.643228 0.125995 0.627379
O O15 0.229118 0.815486 0.347175
O O16 0.241672 0.500000 0.099121
O O17 0.222744 0.347739 0.000000
#
# Coordination Sequence:
#
# PCOD9521953 Si02
#       6
#    16   8  16  16  16  16
#     4   9  18  32  49  70 104 156 208 241 264 303
#     4  11  20  28  46  78 114 154 192 222 258 315
#     4  10  20  35  56  83 115 148 183 232 292 343
#     4   9  20  39  60  80 102 139 194 247 296 354
#     4  12  20  32  52  82 120 153 183 228 276 342
#     4  10  20  35  56  83 115 148 183 232 292 343
#
# _framework density 21.072279000000002
#
# number of rings (size 3 to 8) (size 9 to 14) (size 15 to 20)
#    0.000    1.909    1.818    3.818    0.000    2.909 
#    0.000    5.455    0.000    2.182    0.000    0.000 
#    0.000    0.000    0.000    0.000    0.000    0.000 
#
# Total GULP energy -245576.811627 kJ/mol
# GULP energy per Si atom -5581.291173 kJ/mol
# Density = 2.102432 g / cm^3
# Si number density = 21.072279 Si / 1000 Ang^3
#
#
#
# Elastic Constant Matrix: (Units=GPa)
#
#
# Indices 1 2 3 4 5 6 
#
# 1 122.6332 19.6574 12.5785 0.0000 0.0000 0.0000
# 2 19.6574 77.2660 3.4180 0.0000 0.0000 0.0000
# 3 12.5785 3.4180 25.4238 0.0000 0.0000 0.0000
# 4 0.0000 0.0000 0.0000 25.8107 0.0000 0.0000
# 5 0.0000 0.0000 0.0000 0.0000 10.8002 0.0000
# 6 0.0000 0.0000 0.0000 0.0000 0.0000 37.8342
#
#
#
# Elastic Compliance Matrix: (Units=1/GPa)
#
#
# Indices 1 2 3 4 5 6 
#
# 1 0.008912 -0.002085 -0.004129 0.000000 0.000000 0.000000
# 2 -0.002085 0.013507 -0.000785 0.000000 0.000000 0.000000
# 3 -0.004129 -0.000785 0.041482 0.000000 0.000000 0.000000
# 4 0.000000 0.000000 0.000000 0.038744 0.000000 0.000000
# 5 0.000000 0.000000 0.000000 0.000000 0.092591 0.000000
# 6 0.000000 0.000000 0.000000 0.000000 0.000000 0.026431
#
#
# Mechanical properties :
#
#
# Convention : Reuss Voigt Hill
#
# Bulk Modulus (GPa) = 20.03825 32.95896 26.49861
# Shear Modulus (GPa) = 19.81783 27.53362 23.67572
#
# Velocity S-wave (km/s) = 3.07003 3.61865 3.35557
# Velocity P-wave (km/s) = 4.70072 5.75625 5.25505
#
# Compressibility (1/GPa) = 0.04990455
#
# Stress axis : x y z
#
# Youngs Moduli (GPa) = 112.20734 74.03358 24.10710
#
# Poissons Ratio (x) = 0.15434 0.09954
# Poissons Ratio (y) = 0.23392 0.01891
# Poissons Ratio (z) = 0.46330 0.05808
#
# Static dielectric constant tensor:
#      x y z
#    x 1.789000 0.000000 0.000000 
#    y 0.000000 1.751280 0.000000 
#    z 0.000000 0.000000 1.761360 
# 
# From -- ./inp_files/47118.got.cif
#   From: 2010.05.17/outbox.cif.g08.bks.cpg/sg71_24_cif.got.tgz:47118.got - 2010.06.03 16:22:01.
