data_PCOD9521669
_publ_section_title
;
Structure prediction by ZEFSAII (Michael W. Deem and Ramdas Pophale) SiO2 
 PCOD9521669
Probable space group: I M M M
;
_chemical_formula_sum "Si O2"
_cell_formula_units_Z 100
_cell_length_a 14.534258
_cell_length_b 17.948520
_cell_length_c 20.971935
_cell_angle_alpha 90.000000
_cell_angle_beta 90.000000
_cell_angle_gamma 90.000000
_cell_volume 5470.915556
_symmetry_space_group_name_H-M "I M M M"
_symmetry_group_IT_number 71
_symmetry_cell_setting 'orthorhombic'
loop_
_space_group_symop_operation_xyz
x,y,z
-x,-y,z
x,-y,-z
-x,y,-z
-x,-y,-z
x,y,-z
-x,y,z
x,-y,z
1/2+x,1/2+y,1/2+z
1/2-x,1/2-y,1/2+z
1/2+x,1/2-y,1/2-z
1/2-x,1/2+y,1/2-z
1/2-x,1/2-y,1/2-z
1/2+x,1/2+y,1/2-z
1/2-x,1/2+y,1/2+z
1/2+x,1/2-y,1/2+z
loop_
_atom_site_type_symbol
_atom_site_label
_atom_site_fract_x
_atom_site_fract_y
_atom_site_fract_z
Si Si1 0.214573 0.917537 0.423815
Si Si2 0.105932 0.772797 0.577230
Si Si3 0.336350 0.000000 0.000000
Si Si4 0.294853 0.880222 0.889621
Si Si5 0.893838 0.584764 0.260574
Si Si6 0.895019 0.178105 0.076470
Si Si7 0.105925 0.346045 0.127284
O O1 0.202620 0.919866 0.500000
O O2 0.150658 0.850208 0.399778
O O3 0.319132 0.894852 0.409084
O O4 0.193553 0.000000 0.398255
O O5 0.108082 0.773099 0.500000
O O6 0.164566 0.702260 0.599178
O O7 0.000000 0.765891 0.597449
O O8 0.333165 0.935090 0.943845
O O9 0.327528 0.904952 0.820145
O O10 0.184863 0.874740 0.897504
O O11 0.885365 0.500000 0.235660
O O12 0.877450 0.640742 0.202348
O O13 0.000000 0.594141 0.282436
O O14 0.884133 0.260401 0.106156
O O15 0.000000 0.153123 0.088464
O O16 0.882702 0.184179 0.000000
O O17 0.000000 0.368212 0.114255
#
# Coordination Sequence:
#
# PCOD9521669 Si02
#       7
#    16  16   4  16  16  16  16
#     4  10  20  34  55  84 115 150 195 244 294 349
#     4  10  20  35  55  79 112 151 188 237 293 349
#     4  12  24  36  66  96 114 152 196 250 298 360
#     4  12  21  40  60  86 119 153 196 243 299 356
#     4  10  22  38  56  83 120 157 193 242 300 355
#     4  10  20  36  61  89 120 154 192 242 297 351
#     4  10  20  36  59  85 115 153 193 237 294 355
#
# _framework density 18.278475
#
# number of rings (size 3 to 8) (size 9 to 14) (size 15 to 20)
#    0.000    1.600    4.000    1.440    0.000    2.880 
#    0.000    4.800    0.000    0.000    0.000    0.000 
#    0.000    0.000    0.000    0.000    0.000    0.000 
#
# Total GULP energy -278491.280878 kJ/mol
# GULP energy per Si atom -5569.825618 kJ/mol
# Density = 1.823687 g / cm^3
# Si number density = 18.278475 Si / 1000 Ang^3
#
#
#
# Elastic Constant Matrix: (Units=GPa)
#
#
# Indices 1 2 3 4 5 6 
#
# 1 68.7686 14.4298 15.6474 0.0000 0.0000 0.0000
# 2 14.4298 58.2183 2.8140 0.0000 0.0000 0.0000
# 3 15.6474 2.8140 24.4239 0.0000 0.0000 0.0000
# 4 0.0000 0.0000 0.0000 -2.1322 0.0000 0.0000
# 5 0.0000 0.0000 0.0000 0.0000 17.6306 0.0000
# 6 0.0000 0.0000 0.0000 0.0000 0.0000 14.6488
#
#
#
# Elastic Compliance Matrix: (Units=1/GPa)
#
#
# Indices 1 2 3 4 5 6 
#
# 1 0.017860 -0.003895 -0.010994 0.000000 0.000000 0.000000
# 2 -0.003895 0.018123 0.000408 0.000000 0.000000 0.000000
# 3 -0.010994 0.000408 0.047940 0.000000 0.000000 0.000000
# 4 0.000000 0.000000 0.000000 -0.468997 0.000000 0.000000
# 5 0.000000 0.000000 0.000000 0.000000 0.056720 0.000000
# 6 0.000000 0.000000 0.000000 0.000000 0.000000 0.068265
#
#
# Mechanical properties :
#
#
# Convention : Reuss Voigt Hill
#
# Bulk Modulus (GPa) = 18.19511 24.13258 21.16384
# Shear Modulus (GPa) = -23.49543 13.93074 -4.78234
#
# Velocity S-wave (km/s) = -3.58916 2.76368 -1.61928
# Velocity P-wave (km/s) = 2.68329 4.83894 2.84739
#
# Compressibility (1/GPa) = 0.05495982
#
# Stress axis : x y z
#
# Youngs Moduli (GPa) = 55.98986 55.17996 20.85952
#
# Poissons Ratio (x) = 0.21495 0.22932
# Poissons Ratio (y) = 0.21810 -0.00850
# Poissons Ratio (z) = 0.61553 -0.02249
#
# Static dielectric constant tensor:
#      x y z
#    x 1.645510 0.000000 0.000000 
#    y 0.000000 1.633080 0.000000 
#    z 0.000000 0.000000 1.606630 
# 
# From -- ./inp_files/38082.got.cif
#   From: 2010.05.17/outbox.cif.g08.bks.cpg/sg71_20_cif.got.tgz:38082.got - 2010.06.03 16:22:01.
