data_PCOD9521538
_publ_section_title
;
Structure prediction by ZEFSAII (Michael W. Deem and Ramdas Pophale) SiO2 
 PCOD9521538
Probable space group: I M M M
;
_chemical_formula_sum "Si O2"
_cell_formula_units_Z 64
_cell_length_a 16.094229
_cell_length_b 20.032591
_cell_length_c 9.088244
_cell_angle_alpha 90.000000
_cell_angle_beta 90.000000
_cell_angle_gamma 90.000000
_cell_volume 2930.132632
_symmetry_space_group_name_H-M "I M M M"
_symmetry_group_IT_number 71
_symmetry_cell_setting 'orthorhombic'
loop_
_space_group_symop_operation_xyz
x,y,z
-x,-y,z
x,-y,-z
-x,y,-z
-x,-y,-z
x,y,-z
-x,y,z
x,-y,z
1/2+x,1/2+y,1/2+z
1/2-x,1/2-y,1/2+z
1/2+x,1/2-y,1/2-z
1/2-x,1/2+y,1/2-z
1/2-x,1/2-y,1/2-z
1/2+x,1/2+y,1/2-z
1/2-x,1/2+y,1/2+z
1/2+x,1/2-y,1/2+z
loop_
_atom_site_type_symbol
_atom_site_label
_atom_site_fract_x
_atom_site_fract_y
_atom_site_fract_z
Si Si1 0.903913 0.800490 0.662211
Si Si2 0.182581 0.300361 0.826810
Si Si3 0.597740 0.921778 0.176464
Si Si4 0.398323 0.424867 0.331706
O O1 0.874161 0.779347 0.500000
O O2 0.897022 0.744047 0.784109
O O3 0.864859 0.869067 0.721636
O O4 0.000000 0.815889 0.646070
O O5 0.250000 0.250000 0.750000
O O6 0.161527 0.371486 0.754324
O O7 0.194789 0.306111 0.000000
O O8 0.500000 0.908324 0.214650
O O9 0.613659 0.000000 0.209227
O O10 0.604528 0.912868 0.000000
O O11 0.373407 0.409733 0.500000
O O12 0.500000 0.424891 0.331037
O O13 0.372102 0.500000 0.294900
#
# Coordination Sequence:
#
# PCOD9521538 Si02
#       4
#    16  16  16  16
#     4  10  20  34  54  80 110 145 188 238 291 352
#     4  12  25  40  59  84 119 159 199 247 303 366
#     4   9  19  39  68  99 130 164 203 252 312 376
#     4   8  14  26  45  70 101 136 175 220 268 318
#
# _framework density 21.842013999999999
#
# number of rings (size 3 to 8) (size 9 to 14) (size 15 to 20)
#    0.000    2.250    0.000    5.250    0.000    6.000 
#    0.000    5.000    0.000    7.500    0.000    0.000 
#    0.000    0.000    0.000    0.000    0.000    0.000 
#
# Total GULP energy -178370.746365 kJ/mol
# GULP energy per Si atom -5574.085824 kJ/mol
# Density = 2.179230 g / cm^3
# Si number density = 21.842014 Si / 1000 Ang^3
#
#
#
# Elastic Constant Matrix: (Units=GPa)
#
#
# Indices 1 2 3 4 5 6 
#
# 1 70.9989 49.5008 42.3003 0.0000 0.0000 0.0000
# 2 49.5008 134.5553 66.6212 0.0000 0.0000 0.0000
# 3 42.3003 66.6212 93.8405 0.0000 0.0000 0.0000
# 4 0.0000 0.0000 0.0000 39.5715 0.0000 0.0000
# 5 0.0000 0.0000 0.0000 0.0000 20.2498 0.0000
# 6 0.0000 0.0000 0.0000 0.0000 0.0000 26.2199
#
#
#
# Elastic Compliance Matrix: (Units=1/GPa)
#
#
# Indices 1 2 3 4 5 6 
#
# 1 0.021014 -0.004689 -0.006144 0.000000 0.000000 0.000000
# 2 -0.004689 0.012506 -0.006765 0.000000 0.000000 0.000000
# 3 -0.006144 -0.006765 0.018229 0.000000 0.000000 0.000000
# 4 0.000000 0.000000 0.000000 0.025271 0.000000 0.000000
# 5 0.000000 0.000000 0.000000 0.000000 0.049383 0.000000
# 6 0.000000 0.000000 0.000000 0.000000 0.000000 0.038139
#
#
# Mechanical properties :
#
#
# Convention : Reuss Voigt Hill
#
# Bulk Modulus (GPa) = 60.40956 68.47103 64.44029
# Shear Modulus (GPa) = 24.35986 26.60642 25.48314
#
# Velocity S-wave (km/s) = 3.34320 3.49396 3.41941
# Velocity P-wave (km/s) = 6.52841 6.90604 6.71988
#
# Compressibility (1/GPa) = 0.01655367
#
# Stress axis : x y z
#
# Youngs Moduli (GPa) = 47.58689 79.95847 54.85865
#
# Poissons Ratio (x) = 0.37492 0.33703
# Poissons Ratio (y) = 0.22313 0.37113
# Poissons Ratio (z) = 0.29236 0.54094
#
# Static dielectric constant tensor:
#      x y z
#    x 2.024190 0.000000 0.000000 
#    y 0.000000 1.804120 0.000000 
#    z 0.000000 0.000000 1.807460 
# 
# From -- ./inp_files/7482.got.cif
#   From: 2010.05.17/outbox.cif.g08.bks.cpg/sg71_4_cif.got.tgz:7482.got - 2010.06.03 16:22:01.
