data_PCOD9521119
_publ_section_title
;
Structure prediction by ZEFSAII (Michael W. Deem and Ramdas Pophale) SiO2 
 PCOD9521119
Probable space group: I M M M
;
_chemical_formula_sum "Si O2"
_cell_formula_units_Z 120
_cell_length_a 28.533319
_cell_length_b 28.020061
_cell_length_c 7.990681
_cell_angle_alpha 90.000000
_cell_angle_beta 90.000000
_cell_angle_gamma 90.000000
_cell_volume 6388.592121
_symmetry_space_group_name_H-M "I M M M"
_symmetry_group_IT_number 71
_symmetry_cell_setting 'orthorhombic'
loop_
_space_group_symop_operation_xyz
x,y,z
-x,-y,z
x,-y,-z
-x,y,-z
-x,-y,-z
x,y,-z
-x,y,z
x,-y,z
1/2+x,1/2+y,1/2+z
1/2-x,1/2-y,1/2+z
1/2+x,1/2-y,1/2-z
1/2-x,1/2+y,1/2-z
1/2-x,1/2-y,1/2-z
1/2+x,1/2+y,1/2-z
1/2-x,1/2+y,1/2+z
1/2+x,1/2-y,1/2+z
loop_
_atom_site_type_symbol
_atom_site_label
_atom_site_fract_x
_atom_site_fract_y
_atom_site_fract_z
Si Si1 0.716708 0.102604 0.799838
Si Si2 0.554146 0.000000 0.294857
Si Si3 0.232939 0.197942 0.800056
Si Si4 0.311086 0.447027 0.799022
Si Si5 0.554056 0.814807 0.297775
Si Si6 0.610225 0.906726 0.701115
Si Si7 0.053180 0.792319 0.701386
Si Si8 0.639316 0.647612 0.800023
O O1 0.731981 0.155794 0.741883
O O2 0.757453 0.067529 0.737132
O O3 0.664800 0.090063 0.742828
O O4 0.717714 0.101942 0.000000
O O5 0.581217 0.047448 0.238438
O O6 0.500000 0.000000 0.243134
O O7 0.554512 0.000000 0.500000
O O8 0.250000 0.250000 0.750000
O O9 0.181952 0.184100 0.731240
O O10 0.230435 0.195601 0.000000
O O11 0.321422 0.500000 0.733839
O O12 0.343375 0.403713 0.732819
O O13 0.316521 0.447968 0.000000
O O14 0.554562 0.815070 0.500000
O O15 0.500000 0.822937 0.244408
O O16 0.587274 0.857322 0.236478
O O17 0.568014 0.761910 0.241145
O O18 0.605838 0.906188 0.500000
O O19 0.051645 0.796588 0.500000
O O20 0.091297 0.829861 0.766710
O O21 0.000000 0.798907 0.765355
O O22 0.634074 0.642519 0.000000
#
# Coordination Sequence:
#
# PCOD9521119 Si02
#       8
#    16   8  16  16  16  16  16  16
#     4  10  22  36  49  72 103 133 164 203 252 302
#     4   9  18  34  55  75  95 125 169 217 260 301
#     4  10  21  35  51  72 101 135 169 206 250 300
#     4   9  18  34  56  76  97 128 168 212 251 295
#     4   9  18  32  49  71  98 128 166 211 253 293
#     4  10  20  33  52  75  97 127 167 212 258 303
#     4   9  18  32  51  75 104 137 168 200 245 301
#     4   9  18  33  52  75 102 133 170 208 248 299
#
# _framework density 18.783481999999999
#
# number of rings (size 3 to 8) (size 9 to 14) (size 15 to 20)
#    0.000    2.600    0.000    1.200    2.800    4.533 
#    0.000    0.000    0.000    2.000    0.000    2.800 
#    0.000    0.000    0.000   10.000    0.000   10.400 
#
# Total GULP energy -334739.349824 kJ/mol
# GULP energy per Si atom -5578.989164 kJ/mol
# Density = 1.874073 g / cm^3
# Si number density = 18.783482 Si / 1000 Ang^3
#
#
#
# Elastic Constant Matrix: (Units=GPa)
#
#
# Indices 1 2 3 4 5 6 
#
# 1 136.6084 100.4959 4.1960 0.0000 0.0000 0.0000
# 2 100.4959 163.4678 7.3324 0.0000 0.0000 0.0000
# 3 4.1960 7.3324 13.1285 0.0000 0.0000 0.0000
# 4 0.0000 0.0000 0.0000 16.0989 0.0000 0.0000
# 5 0.0000 0.0000 0.0000 0.0000 11.7933 0.0000
# 6 0.0000 0.0000 0.0000 0.0000 0.0000 16.8715
#
#
#
# Elastic Compliance Matrix: (Units=1/GPa)
#
#
# Indices 1 2 3 4 5 6 
#
# 1 0.013366 -0.008231 0.000326 0.000000 0.000000 0.000000
# 2 -0.008231 0.011344 -0.003705 0.000000 0.000000 0.000000
# 3 0.000326 -0.003705 0.078136 0.000000 0.000000 0.000000
# 4 0.000000 0.000000 0.000000 0.062116 0.000000 0.000000
# 5 0.000000 0.000000 0.000000 0.000000 0.084794 0.000000
# 6 0.000000 0.000000 0.000000 0.000000 0.000000 0.059272
#
#
# Mechanical properties :
#
#
# Convention : Reuss Voigt Hill
#
# Bulk Modulus (GPa) = 12.55910 59.69482 36.12696
# Shear Modulus (GPa) = 13.93575 22.36477 18.15026
#
# Velocity S-wave (km/s) = 2.72677 3.45434 3.11189
# Velocity P-wave (km/s) = 4.07608 6.91082 5.67335
#
# Compressibility (1/GPa) = 0.07962353
#
# Stress axis : x y z
#
# Youngs Moduli (GPa) = 74.81849 88.15150 12.79828
#
# Poissons Ratio (x) = 0.72562 -0.00417
# Poissons Ratio (y) = 0.61587 0.04742
# Poissons Ratio (z) = -0.02436 0.32660
#
# Static dielectric constant tensor:
#      x y z
#    x 1.636220 0.000000 0.000000 
#    y 0.000000 1.657470 0.000000 
#    z 0.000000 0.000000 1.677990 
# 
# From -- ./inp_files/15604.got.cif
#   From: 2010.05.17/outbox.cif.g08.bks.cpg/sg71_8_cif.got.tgz:15604.got - 2010.06.03 16:22:01.
