data_PCOD9521419
_publ_section_title
;
Structure prediction by ZEFSAII (Michael W. Deem and Ramdas Pophale) SiO2 
 PCOD9521419
Probable space group: I M M M
;
_chemical_formula_sum "Si O2"
_cell_formula_units_Z 104
_cell_length_a 31.743896
_cell_length_b 7.444447
_cell_length_c 20.299277
_cell_angle_alpha 90.000000
_cell_angle_beta 90.000000
_cell_angle_gamma 90.000000
_cell_volume 4797.038896
_symmetry_space_group_name_H-M "I M M M"
_symmetry_group_IT_number 71
_symmetry_cell_setting 'orthorhombic'
loop_
_space_group_symop_operation_xyz
x,y,z
-x,-y,z
x,-y,-z
-x,y,-z
-x,-y,-z
x,y,-z
-x,y,z
x,-y,z
1/2+x,1/2+y,1/2+z
1/2-x,1/2-y,1/2+z
1/2+x,1/2-y,1/2-z
1/2-x,1/2+y,1/2-z
1/2-x,1/2-y,1/2-z
1/2+x,1/2+y,1/2-z
1/2-x,1/2+y,1/2+z
1/2+x,1/2-y,1/2+z
loop_
_atom_site_type_symbol
_atom_site_label
_atom_site_fract_x
_atom_site_fract_y
_atom_site_fract_z
Si Si1 0.679261 0.284678 0.072459
Si Si2 0.546575 0.782593 0.787162
Si Si3 0.420446 0.214631 0.926940
Si Si4 0.292576 0.715421 0.210738
Si Si5 0.592004 0.279126 0.424845
Si Si6 0.129970 0.210489 0.795322
Si Si7 0.500000 0.704364 0.419908
O O1 0.684139 0.500000 0.069896
O O2 0.629435 0.248867 0.082667
O O3 0.704575 0.216336 0.135725
O O4 0.690716 0.213426 0.000000
O O5 0.500000 0.724536 0.765005
O O6 0.555308 0.720057 0.862306
O O7 0.585565 0.724732 0.742413
O O8 0.547019 0.000000 0.787394
O O9 0.426639 0.000000 0.928800
O O10 0.432027 0.284304 0.000000
O O11 0.297308 0.500000 0.205949
O O12 0.250000 0.750000 0.250000
O O13 0.332551 0.787651 0.251566
O O14 0.600556 0.225076 0.500000
O O15 0.590368 0.500000 0.424974
O O16 0.624012 0.217663 0.369041
O O17 0.545181 0.215026 0.403695
O O18 0.139397 0.000000 0.803110
O O19 0.500000 0.500000 0.394780
O O20 0.500000 0.696267 0.500000
#
# Coordination Sequence:
#
# PCOD9521419 Si02
#       7
#    16  16  16  16  16  16   8
#     4   9  17  32  54  77 104 136 169 209 255 305
#     4  10  21  34  48  72 108 145 175 206 254 311
#     4   9  17  30  50  74 100 135 178 216 249 292
#     4  10  21  36  54  79 105 132 170 212 260 313
#     4   8  14  25  43  69 100 129 159 202 253 297
#     4  10  20  34  53  77 102 130 172 218 257 305
#     4   7  10  18  34  60  91 121 154 187 228 286
#
# _framework density 21.680039000000001
#
# number of rings (size 3 to 8) (size 9 to 14) (size 15 to 20)
#    0.000    2.846    1.538    0.923    1.077    1.846 
#    0.000    2.308    0.000    1.385    0.000    4.308 
#    0.000    0.000    0.000    0.000    0.000    0.000 
#
# Total GULP energy -290125.189565 kJ/mol
# GULP energy per Si atom -5579.330569 kJ/mol
# Density = 2.163069 g / cm^3
# Si number density = 21.680039 Si / 1000 Ang^3
#
#
#
# Elastic Constant Matrix: (Units=GPa)
#
#
# Indices 1 2 3 4 5 6 
#
# 1 99.9208 -7.1565 75.1893 0.0000 0.0000 0.0000
# 2 -7.1565 68.7159 4.5481 0.0000 0.0000 0.0000
# 3 75.1893 4.5481 156.7501 0.0000 0.0000 0.0000
# 4 0.0000 0.0000 0.0000 4.1720 0.0000 0.0000
# 5 0.0000 0.0000 0.0000 0.0000 37.6330 0.0000
# 6 0.0000 0.0000 0.0000 0.0000 0.0000 11.7404
#
#
#
# Elastic Compliance Matrix: (Units=1/GPa)
#
#
# Indices 1 2 3 4 5 6 
#
# 1 0.015979 0.002176 -0.007728 0.000000 0.000000 0.000000
# 2 0.002176 0.014877 -0.001475 0.000000 0.000000 0.000000
# 3 -0.007728 -0.001475 0.010129 0.000000 0.000000 0.000000
# 4 0.000000 0.000000 0.000000 0.239692 0.000000 0.000000
# 5 0.000000 0.000000 0.000000 0.000000 0.026572 0.000000
# 6 0.000000 0.000000 0.000000 0.000000 0.000000 0.085176
#
#
# Mechanical properties :
#
#
# Convention : Reuss Voigt Hill
#
# Bulk Modulus (GPa) = 37.13315 52.28315 44.70815
# Shear Modulus (GPa) = 12.03495 27.56281 19.79888
#
# Velocity S-wave (km/s) = 2.35865 3.56946 3.02525
# Velocity P-wave (km/s) = 4.95809 6.41531 5.73319
#
# Compressibility (1/GPa) = 0.02693011
#
# Stress axis : x y z
#
# Youngs Moduli (GPa) = 62.58287 67.21830 98.72433
#
# Poissons Ratio (x) = -0.14624 0.76292
# Poissons Ratio (y) = -0.13616 0.14564
# Poissons Ratio (z) = 0.48363 0.09916
#
# Static dielectric constant tensor:
#      x y z
#    x 1.753250 0.000000 0.000000 
#    y 0.000000 1.764850 0.000000 
#    z 0.000000 0.000000 1.824730 
# 
# From -- ./inp_files/50932.got.cif
#   From: 2010.05.17/outbox.cif.g08.bks.cpg/sg71_26_cif.got.tgz:50932.got - 2010.06.03 16:22:01.
