data_PCOD9521206
_publ_section_title
;
Structure prediction by ZEFSAII (Michael W. Deem and Ramdas Pophale) SiO2 
 PCOD9521206
Probable space group: I M M M
;
_chemical_formula_sum "Si O2"
_cell_formula_units_Z 112
_cell_length_a 24.467041
_cell_length_b 20.914097
_cell_length_c 12.259221
_cell_angle_alpha 90.000000
_cell_angle_beta 90.000000
_cell_angle_gamma 90.000000
_cell_volume 6273.117784
_symmetry_space_group_name_H-M "I M M M"
_symmetry_group_IT_number 71
_symmetry_cell_setting 'orthorhombic'
loop_
_space_group_symop_operation_xyz
x,y,z
-x,-y,z
x,-y,-z
-x,y,-z
-x,-y,-z
x,y,-z
-x,y,z
x,-y,z
1/2+x,1/2+y,1/2+z
1/2-x,1/2-y,1/2+z
1/2+x,1/2-y,1/2-z
1/2-x,1/2+y,1/2-z
1/2-x,1/2-y,1/2-z
1/2+x,1/2+y,1/2-z
1/2-x,1/2+y,1/2+z
1/2+x,1/2-y,1/2+z
loop_
_atom_site_type_symbol
_atom_site_label
_atom_site_fract_x
_atom_site_fract_y
_atom_site_fract_z
Si Si1 0.436377 0.314687 0.876472
Si Si2 0.361862 0.428214 0.130095
Si Si3 0.920044 0.573507 0.625277
Si Si4 0.825941 0.260492 0.124506
Si Si5 0.788677 0.429688 0.374747
Si Si6 0.061764 0.692747 0.220259
Si Si7 0.728189 0.661232 0.784169
O O1 0.500000 0.330453 0.883194
O O2 0.406104 0.376686 0.829735
O O3 0.432173 0.250766 0.806390
O O4 0.415483 0.302242 0.000000
O O5 0.365925 0.500000 0.175144
O O6 0.304911 0.394020 0.155522
O O7 0.369116 0.432536 0.000000
O O8 0.936605 0.588884 0.500000
O O9 0.936893 0.500000 0.648347
O O10 0.854141 0.573737 0.626725
O O11 0.937445 0.626414 0.712288
O O12 0.883238 0.297860 0.147815
O O13 0.771378 0.303707 0.137746
O O14 0.813470 0.208634 0.220326
O O15 0.828128 0.235220 0.000000
O O16 0.770894 0.425989 0.500000
O O17 0.772726 0.500000 0.331496
O O18 0.764096 0.372264 0.308238
O O19 0.000000 0.698586 0.170352
#
# Coordination Sequence:
#
# PCOD9521206 Si02
#       7
#    16  16  16  16  16  16  16
#     4   9  18  33  53  79 110 143 181 221 263 317
#     4  10  20  33  53  83 115 146 178 213 262 325
#     4   9  18  33  54  83 115 142 175 223 277 331
#     4  11  24  38  55  81 105 138 187 231 274 322
#     4   9  17  30  52  80 107 138 173 209 259 324
#     4  11  21  37  57  77 106 146 185 228 277 322
#     4  11  20  37  56  77 110 143 171 224 274 326
#
# _framework density 17.853961000000002
#
# number of rings (size 3 to 8) (size 9 to 14) (size 15 to 20)
#    0.000    2.000    2.857    2.571    0.000    1.714 
#    0.000    2.143    0.000    1.286    0.000    1.000 
#    0.000    2.286    0.000    0.000    0.000    0.000 
#
# Total GULP energy -311854.675100 kJ/mol
# GULP energy per Si atom -5568.833484 kJ/mol
# Density = 1.781332 g / cm^3
# Si number density = 17.853961 Si / 1000 Ang^3
#
#
#
# Elastic Constant Matrix: (Units=GPa)
#
#
# Indices 1 2 3 4 5 6 
#
# 1 75.9007 23.5418 16.1477 0.0000 0.0000 0.0000
# 2 23.5418 84.3271 11.1983 0.0000 0.0000 0.0000
# 3 16.1477 11.1983 27.0213 0.0000 0.0000 0.0000
# 4 0.0000 0.0000 0.0000 21.9604 0.0000 0.0000
# 5 0.0000 0.0000 0.0000 0.0000 6.1323 0.0000
# 6 0.0000 0.0000 0.0000 0.0000 0.0000 2.9866
#
#
#
# Elastic Compliance Matrix: (Units=1/GPa)
#
#
# Indices 1 2 3 4 5 6 
#
# 1 0.015952 -0.003373 -0.008135 0.000000 0.000000 0.000000
# 2 -0.003373 0.013262 -0.003481 0.000000 0.000000 0.000000
# 3 -0.008135 -0.003481 0.043312 0.000000 0.000000 0.000000
# 4 0.000000 0.000000 0.000000 0.045536 0.000000 0.000000
# 5 0.000000 0.000000 0.000000 0.000000 0.163071 0.000000
# 6 0.000000 0.000000 0.000000 0.000000 0.000000 0.334824
#
#
# Mechanical properties :
#
#
# Convention : Reuss Voigt Hill
#
# Bulk Modulus (GPa) = 23.50228 32.11384 27.80806
# Shear Modulus (GPa) = 7.57441 15.30663 11.44052
#
# Velocity S-wave (km/s) = 2.06195 2.93119 2.53412
# Velocity P-wave (km/s) = 4.34293 5.42972 4.91644
#
# Compressibility (1/GPa) = 0.04254905
#
# Stress axis : x y z
#
# Youngs Moduli (GPa) = 62.68805 75.40085 23.08845
#
# Poissons Ratio (x) = 0.25433 0.18782
# Poissons Ratio (y) = 0.21145 0.08036
# Poissons Ratio (z) = 0.50996 0.26244
#
# Static dielectric constant tensor:
#      x y z
#    x 1.646720 0.000000 0.000000 
#    y 0.000000 1.627320 0.000000 
#    z 0.000000 0.000000 1.598890 
# 
# From -- ./inp_files/26271.got.cif
#   From: 2010.05.17/outbox.cif.g08.bks.cpg/sg71_14_cif.got.tgz:26271.got - 2010.06.03 16:22:01.
