data_PCOD9521113
_publ_section_title
;
Structure prediction by ZEFSAII (Michael W. Deem and Ramdas Pophale) SiO2 
 PCOD9521113
Probable space group: I M M M
;
_chemical_formula_sum "Si O2"
_cell_formula_units_Z 108
_cell_length_a 24.621033
_cell_length_b 15.454607
_cell_length_c 15.252792
_cell_angle_alpha 90.000000
_cell_angle_beta 90.000000
_cell_angle_gamma 90.000000
_cell_volume 5803.815311
_symmetry_space_group_name_H-M "I M M M"
_symmetry_group_IT_number 71
_symmetry_cell_setting 'orthorhombic'
loop_
_space_group_symop_operation_xyz
x,y,z
-x,-y,z
x,-y,-z
-x,y,-z
-x,-y,-z
x,y,-z
-x,y,z
x,-y,z
1/2+x,1/2+y,1/2+z
1/2-x,1/2-y,1/2+z
1/2+x,1/2-y,1/2-z
1/2-x,1/2+y,1/2-z
1/2-x,1/2-y,1/2-z
1/2+x,1/2+y,1/2-z
1/2-x,1/2+y,1/2+z
1/2+x,1/2-y,1/2+z
loop_
_atom_site_type_symbol
_atom_site_label
_atom_site_fract_x
_atom_site_fract_y
_atom_site_fract_z
Si Si1 0.357906 0.405907 0.637516
Si Si2 0.116690 0.900343 0.656758
Si Si3 0.500000 0.187822 0.500000
Si Si4 0.769590 0.844344 0.596924
Si Si5 0.734887 0.140037 0.900307
Si Si6 0.500000 0.398392 0.895135
Si Si7 0.821613 0.597830 0.777187
Si Si8 0.888967 0.714568 0.906921
O O1 0.377867 0.500000 0.605245
O O2 0.370064 0.402336 0.740682
O O3 0.293527 0.401058 0.619773
O O4 0.383564 0.318181 0.600461
O O5 0.166197 0.852226 0.611528
O O6 0.056988 0.862353 0.639712
O O7 0.116866 0.000000 0.623908
O O8 0.451321 0.190485 0.424814
O O9 0.757158 0.877797 0.500000
O O10 0.755627 0.743169 0.603687
O O11 0.735572 0.892952 0.670943
O O12 0.692542 0.116314 0.824128
O O13 0.718392 0.117977 0.000000
O O14 0.500000 0.500000 0.868095
O O15 0.500000 0.393997 0.000000
O O16 0.842082 0.500000 0.787184
O O17 0.861014 0.665980 0.825880
O O18 0.860511 0.689421 0.000000
#
# Coordination Sequence:
#
# PCOD9521113 Si02
#       8
#    16  16   4  16  16   8  16  16
#     4  11  21  36  60  86 122 169 212 255 309 373
#     4  10  20  33  51  80 116 158 209 257 306 368
#     4   8  24  46  66  86 132 168 206 272 318 366
#     4  11  21  34  56  85 118 159 202 256 313 369
#     4  11  23  39  58  86 126 168 202 249 318 380
#     4   9  18  33  50  71 110 159 201 251 310 369
#     4  12  23  37  61  92 123 161 207 256 312 378
#     4  10  22  43  62  89 124 160 205 258 317 369
#
# _framework density 18.608449
#
# number of rings (size 3 to 8) (size 9 to 14) (size 15 to 20)
#    0.444    0.963    2.963    3.556    0.000    5.333 
#    0.000    2.222    0.000    0.000    0.000    0.519 
#    0.000    1.185    0.000    0.000    0.000    0.593 
#
# Total GULP energy -300696.479748 kJ/mol
# GULP energy per Si atom -5568.453329 kJ/mol
# Density = 1.856610 g / cm^3
# Si number density = 18.608449 Si / 1000 Ang^3
#
#
#
# Elastic Constant Matrix: (Units=GPa)
#
#
# Indices 1 2 3 4 5 6 
#
# 1 114.0906 17.6607 44.1865 0.0000 0.0000 0.0000
# 2 17.6607 69.7404 28.2871 0.0000 0.0000 0.0000
# 3 44.1865 28.2871 122.3464 0.0000 0.0000 0.0000
# 4 0.0000 0.0000 0.0000 -18.5308 0.0000 0.0000
# 5 0.0000 0.0000 0.0000 0.0000 30.6421 0.0000
# 6 0.0000 0.0000 0.0000 0.0000 0.0000 9.2557
#
#
#
# Elastic Compliance Matrix: (Units=1/GPa)
#
#
# Indices 1 2 3 4 5 6 
#
# 1 0.010282 -0.001211 -0.003433 0.000000 0.000000 0.000000
# 2 -0.001211 0.015965 -0.003254 0.000000 0.000000 0.000000
# 3 -0.003433 -0.003254 0.010166 0.000000 0.000000 0.000000
# 4 0.000000 0.000000 0.000000 -0.053964 0.000000 0.000000
# 5 0.000000 0.000000 0.000000 0.000000 0.032635 0.000000
# 6 0.000000 0.000000 0.000000 0.000000 0.000000 0.108041
#
#
# Mechanical properties :
#
#
# Convention : Reuss Voigt Hill
#
# Bulk Modulus (GPa) = 48.50502 54.04957 51.27729
# Shear Modulus (GPa) = 34.29490 18.67628 26.48559
#
# Velocity S-wave (km/s) = 4.29765 3.17147 3.77677
# Velocity P-wave (km/s) = 7.12384 6.52072 6.82894
#
# Compressibility (1/GPa) = 0.02061642
#
# Stress axis : x y z
#
# Youngs Moduli (GPa) = 97.25533 62.63553 98.36849
#
# Poissons Ratio (x) = 0.07586 0.33775
# Poissons Ratio (y) = 0.11779 0.32008
# Poissons Ratio (z) = 0.33392 0.20381
#
# Static dielectric constant tensor:
#      x y z
#    x 1.632740 0.000000 0.000000 
#    y 0.000000 1.667970 0.000000 
#    z 0.000000 0.000000 1.673570 
# 
# From -- ./inp_files/39299.got.cif
#   From: 2010.05.17/outbox.cif.g08.bks.cpg/sg71_20_cif.got.tgz:39299.got - 2010.06.03 16:22:01.
