data_PCOD9521461
_publ_section_title
;
Structure prediction by ZEFSAII (Michael W. Deem and Ramdas Pophale) SiO2 
 PCOD9521461
Probable space group: I M M M
;
_chemical_formula_sum "Si O2"
_cell_formula_units_Z 96
_cell_length_a 8.132207
_cell_length_b 23.176777
_cell_length_c 25.086359
_cell_angle_alpha 90.000000
_cell_angle_beta 90.000000
_cell_angle_gamma 90.000000
_cell_volume 4728.235506
_symmetry_space_group_name_H-M "I M M M"
_symmetry_group_IT_number 71
_symmetry_cell_setting 'orthorhombic'
loop_
_space_group_symop_operation_xyz
x,y,z
-x,-y,z
x,-y,-z
-x,y,-z
-x,-y,-z
x,y,-z
-x,y,z
x,-y,z
1/2+x,1/2+y,1/2+z
1/2-x,1/2-y,1/2+z
1/2+x,1/2-y,1/2-z
1/2-x,1/2+y,1/2-z
1/2-x,1/2-y,1/2-z
1/2+x,1/2+y,1/2-z
1/2-x,1/2+y,1/2+z
1/2+x,1/2-y,1/2+z
loop_
_atom_site_type_symbol
_atom_site_label
_atom_site_fract_x
_atom_site_fract_y
_atom_site_fract_z
Si Si1 0.192797 0.000000 0.105598
Si Si2 0.186909 0.818622 0.000000
Si Si3 0.701313 0.000000 0.771580
Si Si4 0.813275 0.798835 0.185299
Si Si5 0.798001 0.686158 0.880686
Si Si6 0.314882 0.122084 0.101496
Si Si7 0.685845 0.181634 0.500000
Si Si8 0.303976 0.122124 0.277878
O O1 0.274185 0.942245 0.084193
O O2 0.230276 0.000000 0.168719
O O3 0.000000 0.000000 0.095323
O O4 0.284952 0.838126 0.948711
O O5 0.171114 0.750609 0.000000
O O6 0.000000 0.842958 0.000000
O O7 0.755165 0.059999 0.743629
O O8 0.500000 0.000000 0.774486
O O9 0.745098 0.746650 0.148173
O O10 0.804190 0.854828 0.147200
O O11 0.734504 0.823206 0.239378
O O12 0.000000 0.783008 0.197980
O O13 0.749781 0.638133 0.837467
O O14 0.000000 0.690035 0.884710
O O15 0.739344 0.671692 0.940782
O O16 0.500000 0.125543 0.122657
O O17 0.500000 0.156021 0.500000
O O18 0.500000 0.117656 0.279192
#
# Coordination Sequence:
#
# PCOD9521461 Si02
#       8
#     8   8   8  16  16  16   8  16
#     4  12  24  39  59  80 105 145 196 236 271 321
#     4  11  21  38  60  81 108 145 192 234 273 322
#     4  10  20  34  53  78 112 148 180 226 284 335
#     4  11  20  33  54  81 110 144 186 230 278 332
#     4   9  18  32  53  81 110 145 186 229 279 334
#     4  12  24  38  56  81 113 147 186 231 283 330
#     4   9  16  31  56  81 107 140 183 231 274 328
#     4  10  20  34  53  79 112 147 184 228 283 337
#
# _framework density 20.303557000000001
#
# number of rings (size 3 to 8) (size 9 to 14) (size 15 to 20)
#    0.000    1.500    3.333    3.500    0.000    0.333 
#    0.000    2.500    0.000    0.500    0.000    3.500 
#    0.000    0.000    0.000    2.250    0.000    2.500 
#
# Total GULP energy -267706.489979 kJ/mol
# GULP energy per Si atom -5577.218541 kJ/mol
# Density = 2.025734 g / cm^3
# Si number density = 20.303557 Si / 1000 Ang^3
#
#
#
# Elastic Constant Matrix: (Units=GPa)
#
#
# Indices 1 2 3 4 5 6 
#
# 1 30.4027 6.3786 -0.3680 0.0000 0.0000 0.0000
# 2 6.3786 36.4910 2.9014 0.0000 0.0000 0.0000
# 3 -0.3680 2.9014 118.1228 0.0000 0.0000 0.0000
# 4 0.0000 0.0000 0.0000 -4.3837 0.0000 0.0000
# 5 0.0000 0.0000 0.0000 0.0000 16.5400 0.0000
# 6 0.0000 0.0000 0.0000 0.0000 0.0000 11.3037
#
#
#
# Elastic Compliance Matrix: (Units=1/GPa)
#
#
# Indices 1 2 3 4 5 6 
#
# 1 0.034152 -0.005990 0.000254 0.000000 0.000000 0.000000
# 2 -0.005990 0.028508 -0.000719 0.000000 0.000000 0.000000
# 3 0.000254 -0.000719 0.008484 0.000000 0.000000 0.000000
# 4 0.000000 0.000000 0.000000 -0.228119 0.000000 0.000000
# 5 0.000000 0.000000 0.000000 0.000000 0.060459 0.000000
# 6 0.000000 0.000000 0.000000 0.000000 0.000000 0.088467
#
#
# Mechanical properties :
#
#
# Convention : Reuss Voigt Hill
#
# Bulk Modulus (GPa) = 17.17224 22.53784 19.85504
# Shear Modulus (GPa) = 205.99229 16.43232 111.21230
#
# Velocity S-wave (km/s) = 10.08348 2.84796 7.40903
# Velocity P-wave (km/s) = 12.00187 4.68391 9.10999
#
# Compressibility (1/GPa) = 0.05823354
#
# Stress axis : x y z
#
# Youngs Moduli (GPa) = 29.28127 35.07766 117.86595
#
# Poissons Ratio (x) = 0.21011 -0.02988
# Poissons Ratio (y) = 0.17539 0.08473
# Poissons Ratio (z) = -0.00742 0.02522
#
# Static dielectric constant tensor:
#      x y z
#    x 1.735070 0.000000 0.000000 
#    y 0.000000 1.738390 0.000000 
#    z 0.000000 0.000000 1.756200 
# 
# From -- ./inp_files/57826.got.cif
#   From: 2010.05.17/outbox.cif.g08.bks.cpg/sg71_29_cif.got.tgz:57826.got - 2010.06.03 16:22:01.
