data_PCOD9521144
_publ_section_title
;
Structure prediction by ZEFSAII (Michael W. Deem and Ramdas Pophale) SiO2 
 PCOD9521144
Probable space group: I M M M
;
_chemical_formula_sum "Si O2"
_cell_formula_units_Z 120
_cell_length_a 26.768886
_cell_length_b 7.432622
_cell_length_c 27.841753
_cell_angle_alpha 90.000000
_cell_angle_beta 90.000000
_cell_angle_gamma 90.000000
_cell_volume 5539.479008
_symmetry_space_group_name_H-M "I M M M"
_symmetry_group_IT_number 71
_symmetry_cell_setting 'orthorhombic'
loop_
_space_group_symop_operation_xyz
x,y,z
-x,-y,z
x,-y,-z
-x,y,-z
-x,-y,-z
x,y,-z
-x,y,z
x,-y,z
1/2+x,1/2+y,1/2+z
1/2-x,1/2-y,1/2+z
1/2+x,1/2-y,1/2-z
1/2-x,1/2+y,1/2-z
1/2-x,1/2-y,1/2-z
1/2+x,1/2+y,1/2-z
1/2-x,1/2+y,1/2+z
1/2+x,1/2-y,1/2+z
loop_
_atom_site_type_symbol
_atom_site_label
_atom_site_fract_x
_atom_site_fract_y
_atom_site_fract_z
Si Si1 0.755351 0.210178 0.653134
Si Si2 0.694364 0.784089 0.947166
Si Si3 0.557614 0.779234 0.394033
Si Si4 0.146275 0.712855 0.173765
Si Si5 0.060601 0.706284 0.000000
Si Si6 0.577117 0.290325 0.052000
Si Si7 0.553714 0.279974 0.843508
Si Si8 0.849047 0.782871 0.286328
O O1 0.775256 0.221661 0.598888
O O2 0.699980 0.288748 0.657519
O O3 0.797995 0.285016 0.688826
O O4 0.750859 0.000000 0.666216
O O5 0.637221 0.719088 0.943616
O O6 0.693214 0.000000 0.946028
O O7 0.713480 0.727816 0.000000
O O8 0.500000 0.724155 0.384987
O O9 0.597707 0.718218 0.354603
O O10 0.573770 0.717676 0.447720
O O11 0.556615 0.000000 0.395221
O O12 0.146504 0.500000 0.163123
O O13 0.144777 0.736582 0.230847
O O14 0.078745 0.500000 0.000000
O O15 0.000000 0.703115 0.000000
O O16 0.562600 0.500000 0.050655
O O17 0.556373 0.215899 0.101461
O O18 0.563650 0.211234 0.000000
O O19 0.500000 0.229310 0.822272
O O20 0.555717 0.500000 0.844391
O O21 0.602455 0.218384 0.815375
O O22 0.848221 0.000000 0.290279
#
# Coordination Sequence:
#
# PCOD9521144 Si02
#       8
#    16  16  16  16   8  16  16  16
#     4  10  20  36  54  74 101 133 172 214 255 302
#     4  10  20  33  52  78 106 137 171 205 252 314
#     4   8  14  27  47  72 104 134 158 194 246 300
#     4  10  21  34  51  79 104 126 168 216 254 296
#     4   7  10  20  42  68  95 129 159 181 224 292
#     4   9  16  29  51  75 101 134 171 214 261 303
#     4   9  17  30  49  74 102 132 172 218 257 300
#     4  10  20  35  52  69  97 138 175 210 258 306
#
# _framework density 21.662686000000001
#
# number of rings (size 3 to 8) (size 9 to 14) (size 15 to 20)
#    0.000    2.733    1.333    1.600    0.000    2.667 
#    1.200    1.333    0.000    1.200    0.000    1.867 
#    0.000    1.600    0.000    0.000    0.000    0.000 
#
# Total GULP energy -334770.253631 kJ/mol
# GULP energy per Si atom -5579.504227 kJ/mol
# Density = 2.161338 g / cm^3
# Si number density = 21.662686 Si / 1000 Ang^3
#
#
#
# Elastic Constant Matrix: (Units=GPa)
#
#
# Indices 1 2 3 4 5 6 
#
# 1 173.0547 7.4182 106.4375 0.0000 0.0000 0.0000
# 2 7.4182 67.9231 -10.7572 0.0000 0.0000 0.0000
# 3 106.4375 -10.7572 160.1208 0.0000 0.0000 0.0000
# 4 0.0000 0.0000 0.0000 23.0594 0.0000 0.0000
# 5 0.0000 0.0000 0.0000 0.0000 -9.5324 0.0000
# 6 0.0000 0.0000 0.0000 0.0000 0.0000 -23.1366
#
#
#
# Elastic Compliance Matrix: (Units=1/GPa)
#
#
# Indices 1 2 3 4 5 6 
#
# 1 0.010086 -0.002187 -0.006852 0.000000 0.000000 0.000000
# 2 -0.002187 0.015355 0.002485 0.000000 0.000000 0.000000
# 3 -0.006852 0.002485 0.010967 0.000000 0.000000 0.000000
# 4 0.000000 0.000000 0.000000 0.043366 0.000000 0.000000
# 5 0.000000 0.000000 0.000000 0.000000 -0.104906 0.000000
# 6 0.000000 0.000000 0.000000 0.000000 0.000000 -0.043222
#
#
# Mechanical properties :
#
#
# Convention : Reuss Voigt Hill
#
# Bulk Modulus (GPa) = 42.91542 67.47732 55.19637
# Shear Modulus (GPa) = -105.30897 17.94476 -43.68210
#
# Velocity S-wave (km/s) = -6.97987 2.88127 -4.49538
# Velocity P-wave (km/s) = 6.71598 6.50274 1.18716
#
# Compressibility (1/GPa) = 0.02330165
#
# Stress axis : x y z
#
# Youngs Moduli (GPa) = 99.14372 65.12563 91.18472
#
# Poissons Ratio (x) = 0.14241 0.62477
# Poissons Ratio (y) = 0.21680 -0.22661
# Poissons Ratio (z) = 0.67930 -0.16185
#
# Static dielectric constant tensor:
#      x y z
#    x 1.778970 0.000000 0.000000 
#    y 0.000000 1.825430 0.000000 
#    z 0.000000 0.000000 1.771650 
# 
# From -- ./inp_files/67180.got.cif
#   From: 2010.05.17/outbox.cif.g08.bks.cpg/sg71_34_cif.got.tgz:67180.got - 2010.06.03 16:22:01.
