data_PCOD9521555
_publ_section_title
;
Structure prediction by ZEFSAII (Michael W. Deem and Ramdas Pophale) SiO2 
 PCOD9521555
Probable space group: I M M M
;
_chemical_formula_sum "Si O2"
_cell_formula_units_Z 72
_cell_length_a 23.809240
_cell_length_b 15.919769
_cell_length_c 9.093831
_cell_angle_alpha 90.000000
_cell_angle_beta 90.000000
_cell_angle_gamma 90.000000
_cell_volume 3446.903885
_symmetry_space_group_name_H-M "I M M M"
_symmetry_group_IT_number 71
_symmetry_cell_setting 'orthorhombic'
loop_
_space_group_symop_operation_xyz
x,y,z
-x,-y,z
x,-y,-z
-x,y,-z
-x,-y,-z
x,y,-z
-x,y,z
x,-y,z
1/2+x,1/2+y,1/2+z
1/2-x,1/2-y,1/2+z
1/2+x,1/2-y,1/2-z
1/2-x,1/2+y,1/2-z
1/2-x,1/2-y,1/2-z
1/2+x,1/2+y,1/2-z
1/2-x,1/2+y,1/2+z
1/2+x,1/2-y,1/2+z
loop_
_atom_site_type_symbol
_atom_site_label
_atom_site_fract_x
_atom_site_fract_y
_atom_site_fract_z
Si Si1 0.228034 0.165031 0.824833
Si Si2 0.829915 0.598053 0.163286
Si Si3 0.500000 0.397444 0.670193
Si Si4 0.615349 0.398023 0.827863
Si Si5 0.562237 0.897223 0.170642
O O1 0.250000 0.250000 0.750000
O O2 0.276870 0.103192 0.769689
O O3 0.168341 0.139193 0.757997
O O4 0.225710 0.169121 0.000000
O O5 0.842285 0.500000 0.146434
O O6 0.885880 0.636309 0.235039
O O7 0.817768 0.632714 0.000000
O O8 0.500000 0.500000 0.670851
O O9 0.500000 0.370657 0.500000
O O10 0.556548 0.371469 0.754547
O O11 0.618637 0.500000 0.819358
O O12 0.617297 0.374933 0.000000
O O13 0.500000 0.871493 0.221856
O O14 0.562934 0.000000 0.172795
O O15 0.568951 0.873049 0.000000
#
# Coordination Sequence:
#
# PCOD9521555 Si02
#       5
#    16  16   8  16  16
#     4  12  25  40  58  79 110 150 191 234 285 343
#     4  10  20  34  54  81 111 142 181 228 276 328
#     4   9  17  31  55  89 123 153 190 235 284 339
#     4  10  20  36  60  90 122 154 191 237 289 344
#     4   8  14  26  46  73 104 137 174 217 264 312
#
# _framework density 20.888311000000002
#
# number of rings (size 3 to 8) (size 9 to 14) (size 15 to 20)
#    0.000    2.111    0.000    5.000    0.000    7.111 
#    0.000    2.222    2.444    0.000    0.000    0.000 
#    0.000    0.000    0.000    0.000    0.000    0.000 
#
# Total GULP energy -201000.329220 kJ/mol
# GULP energy per Si atom -5583.342478 kJ/mol
# Density = 2.084077 g / cm^3
# Si number density = 20.888311 Si / 1000 Ang^3
#
#
#
# Elastic Constant Matrix: (Units=GPa)
#
#
# Indices 1 2 3 4 5 6 
#
# 1 221.6210 23.1204 133.8088 0.0000 0.0000 0.0000
# 2 23.1204 15.0300 26.0016 0.0000 0.0000 0.0000
# 3 133.8088 26.0016 218.6010 0.0000 0.0000 0.0000
# 4 0.0000 0.0000 0.0000 17.1230 0.0000 0.0000
# 5 0.0000 0.0000 0.0000 0.0000 42.7345 0.0000
# 6 0.0000 0.0000 0.0000 0.0000 0.0000 3.1878
#
#
#
# Elastic Compliance Matrix: (Units=1/GPa)
#
#
# Indices 1 2 3 4 5 6 
#
# 1 0.007387 -0.004458 -0.003992 0.000000 0.000000 0.000000
# 2 -0.004458 0.086462 -0.007555 0.000000 0.000000 0.000000
# 3 -0.003992 -0.007555 0.007917 0.000000 0.000000 0.000000
# 4 0.000000 0.000000 0.000000 0.058401 0.000000 0.000000
# 5 0.000000 0.000000 0.000000 0.000000 0.023400 0.000000
# 6 0.000000 0.000000 0.000000 0.000000 0.000000 0.313696
#
#
# Mechanical properties :
#
#
# Convention : Reuss Voigt Hill
#
# Bulk Modulus (GPa) = 14.33575 91.23483 52.78529
# Shear Modulus (GPa) = 9.04934 30.76379 19.90656
#
# Velocity S-wave (km/s) = 2.08366 3.84184 3.09042
# Velocity P-wave (km/s) = 3.55905 7.96567 6.16923
#
# Compressibility (1/GPa) = 0.06975568
#
# Stress axis : x y z
#
# Youngs Moduli (GPa) = 135.36664 11.56573 126.31827
#
# Poissons Ratio (x) = 0.05157 0.50421
# Poissons Ratio (y) = 0.60353 0.95436
# Poissons Ratio (z) = 0.54033 0.08738
#
# Static dielectric constant tensor:
#      x y z
#    x 1.747850 0.000000 0.000000 
#    y 0.000000 1.843850 0.000000 
#    z 0.000000 0.000000 1.732810 
# 
# From -- ./inp_files/12187.got.cif
#   From: 2010.05.17/outbox.cif.g08.bks.cpg/sg71_7_cif.got.tgz:12187.got - 2010.06.03 16:22:01.
