data_PCOD9521728
_publ_section_title
;
Structure prediction by ZEFSAII (Michael W. Deem and Ramdas Pophale) SiO2 
 PCOD9521728
Probable space group: I M M M
;
_chemical_formula_sum "Si O2"
_cell_formula_units_Z 100
_cell_length_a 29.891925
_cell_length_b 20.253015
_cell_length_c 7.785591
_cell_angle_alpha 90.000000
_cell_angle_beta 90.000000
_cell_angle_gamma 90.000000
_cell_volume 4713.409290
_symmetry_space_group_name_H-M "I M M M"
_symmetry_group_IT_number 71
_symmetry_cell_setting 'orthorhombic'
loop_
_space_group_symop_operation_xyz
x,y,z
-x,-y,z
x,-y,-z
-x,y,-z
-x,-y,-z
x,y,-z
-x,y,z
x,-y,z
1/2+x,1/2+y,1/2+z
1/2-x,1/2-y,1/2+z
1/2+x,1/2-y,1/2-z
1/2-x,1/2+y,1/2-z
1/2-x,1/2-y,1/2-z
1/2+x,1/2+y,1/2-z
1/2-x,1/2+y,1/2+z
1/2+x,1/2-y,1/2+z
loop_
_atom_site_type_symbol
_atom_site_label
_atom_site_fract_x
_atom_site_fract_y
_atom_site_fract_z
Si Si1 0.760715 0.500000 0.000000
Si Si2 0.199937 0.801773 0.301629
Si Si3 0.450032 0.766197 0.205315
Si Si4 0.548650 0.386548 0.297725
Si Si5 0.144085 0.071793 0.790930
Si Si6 0.725782 0.106202 0.809350
Si Si7 0.356349 0.176692 0.304602
O O1 0.763237 0.557697 0.846912
O O2 0.205885 0.784071 0.500000
O O3 0.171272 0.868948 0.288000
O O4 0.246496 0.825478 0.219617
O O5 0.169721 0.746401 0.212558
O O6 0.500000 0.789670 0.257089
O O7 0.444654 0.692309 0.279472
O O8 0.407723 0.810310 0.255713
O O9 0.449483 0.759611 0.000000
O O10 0.546722 0.402225 0.500000
O O11 0.500000 0.402831 0.221754
O O12 0.592760 0.421686 0.231580
O O13 0.162093 0.000000 0.742400
O O14 0.145244 0.077499 0.000000
O O15 0.673437 0.125450 0.801672
O O16 0.737628 0.081393 0.000000
O O17 0.354379 0.154276 0.500000
#
# Coordination Sequence:
#
# PCOD9521728 Si02
#       7
#     4  16  16  16  16  16  16
#     4  12  26  52  68 106 133 178 221 264 326 402
#     4  12  24  40  60  90 127 170 222 276 330 385
#     4  10  20  34  56  89 126 164 208 262 330 397
#     4   9  17  31  50  73 105 151 204 260 320 382
#     4  10  21  34  50  77 111 160 216 265 323 383
#     4  12  26  46  71  99 134 174 220 271 323 391
#     4  12  23  41  65  97 133 168 220 272 333 392
#
# _framework density 21.216063999999999
#
# number of rings (size 3 to 8) (size 9 to 14) (size 15 to 20)
#    0.000    1.120    3.200    4.080    1.120    1.600 
#    0.000    1.600    0.000    0.000    0.000    4.480 
#    0.000    2.560    0.000    0.000    0.000    0.000 
#
# Total GULP energy -279029.324498 kJ/mol
# GULP energy per Si atom -5580.586490 kJ/mol
# Density = 2.116778 g / cm^3
# Si number density = 21.216064 Si / 1000 Ang^3
#
#
#
# Elastic Constant Matrix: (Units=GPa)
#
#
# Indices 1 2 3 4 5 6 
#
# 1 138.0674 18.1919 10.6916 0.0000 0.0000 0.0000
# 2 18.1919 34.8894 9.9982 0.0000 0.0000 0.0000
# 3 10.6916 9.9982 111.8467 0.0000 0.0000 0.0000
# 4 0.0000 0.0000 0.0000 24.8957 0.0000 0.0000
# 5 0.0000 0.0000 0.0000 0.0000 22.2449 0.0000
# 6 0.0000 0.0000 0.0000 0.0000 0.0000 11.9399
#
#
#
# Elastic Compliance Matrix: (Units=1/GPa)
#
#
# Indices 1 2 3 4 5 6 
#
# 1 0.007794 -0.003952 -0.000392 0.000000 0.000000 0.000000
# 2 -0.003952 0.031419 -0.002431 0.000000 0.000000 0.000000
# 3 -0.000392 -0.002431 0.009196 0.000000 0.000000 0.000000
# 4 0.000000 0.000000 0.000000 0.040168 0.000000 0.000000
# 5 0.000000 0.000000 0.000000 0.000000 0.044954 0.000000
# 6 0.000000 0.000000 0.000000 0.000000 0.000000 0.083753
#
#
# Mechanical properties :
#
#
# Convention : Reuss Voigt Hill
#
# Bulk Modulus (GPa) = 28.68619 40.28522 34.48570
# Shear Modulus (GPa) = 20.62271 28.21089 24.41680
#
# Velocity S-wave (km/s) = 3.12113 3.65045 3.39612
# Velocity P-wave (km/s) = 5.15159 6.06606 5.62743
#
# Compressibility (1/GPa) = 0.03485998
#
# Stress axis : x y z
#
# Youngs Moduli (GPa) = 128.30641 31.82784 108.74808
#
# Poissons Ratio (x) = 0.12577 0.04261
# Poissons Ratio (y) = 0.50701 0.26435
# Poissons Ratio (z) = 0.05027 0.07737
#
# Static dielectric constant tensor:
#      x y z
#    x 1.841690 0.000000 0.000000 
#    y 0.000000 1.766900 0.000000 
#    z 0.000000 0.000000 1.780890 
# 
# From -- ./inp_files/15057.got.cif
#   From: 2010.05.17/outbox.cif.g08.bks.cpg/sg71_8_cif.got.tgz:15057.got - 2010.06.03 16:22:01.
