data_PCOD9521023
_publ_section_title
;
Structure prediction by ZEFSAII (Michael W. Deem and Ramdas Pophale) SiO2 
 PCOD9521023
Probable space group: I M M M
;
_chemical_formula_sum "Si O2"
_cell_formula_units_Z 96
_cell_length_a 17.263547
_cell_length_b 25.840687
_cell_length_c 12.187839
_cell_angle_alpha 90.000000
_cell_angle_beta 90.000000
_cell_angle_gamma 90.000000
_cell_volume 5437.018312
_symmetry_space_group_name_H-M "I M M M"
_symmetry_group_IT_number 71
_symmetry_cell_setting 'orthorhombic'
loop_
_space_group_symop_operation_xyz
x,y,z
-x,-y,z
x,-y,-z
-x,y,-z
-x,-y,-z
x,y,-z
-x,y,z
x,-y,z
1/2+x,1/2+y,1/2+z
1/2-x,1/2-y,1/2+z
1/2+x,1/2-y,1/2-z
1/2-x,1/2+y,1/2-z
1/2-x,1/2-y,1/2-z
1/2+x,1/2+y,1/2-z
1/2-x,1/2+y,1/2+z
1/2+x,1/2-y,1/2+z
loop_
_atom_site_type_symbol
_atom_site_label
_atom_site_fract_x
_atom_site_fract_y
_atom_site_fract_z
Si Si1 0.085348 0.408220 0.631657
Si Si2 0.203126 0.129971 0.691903
Si Si3 0.243929 0.942861 0.869551
Si Si4 0.362901 0.812545 0.273489
Si Si5 0.592728 0.282219 0.873878
Si Si6 0.725948 0.062518 0.500000
Si Si7 0.086672 0.643387 0.000000
O O1 0.086128 0.402031 0.500000
O O2 0.164209 0.438454 0.660785
O O3 0.096632 0.353817 0.692119
O O4 0.000000 0.429978 0.660695
O O5 0.196581 0.100653 0.806835
O O6 0.274041 0.170289 0.708615
O O7 0.130605 0.162168 0.649795
O O8 0.229824 0.085995 0.605670
O O9 0.216775 0.000000 0.840058
O O10 0.239707 0.936436 0.000000
O O11 0.374052 0.757909 0.215195
O O12 0.399758 0.821629 0.392644
O O13 0.500000 0.283097 0.865211
O O14 0.612767 0.266996 0.000000
O O15 0.644988 0.094521 0.500000
O O16 0.719650 0.000000 0.500000
O O17 0.000000 0.623192 0.000000
#
# Coordination Sequence:
#
# PCOD9521023 Si02
#       7
#    16  16  16  16  16   8   8
#     4   9  16  27  46  74 107 139 176 217 253 299
#     4  10  20  37  54  79 108 138 176 222 265 318
#     4   9  18  32  51  75 102 138 178 215 263 318
#     4  10  20  34  52  76 109 146 176 205 256 320
#     4  11  22  37  59  81 105 134 174 229 278 319
#     4  10  20  35  57  78 104 145 189 229 276 318
#     4  10  20  33  50  77 117 150 181 217 252 320
#
# _framework density 17.656738000000001
#
# number of rings (size 3 to 8) (size 9 to 14) (size 15 to 20)
#    0.000    2.167    0.833    3.000    0.000    2.500 
#    1.500    1.667    0.000    8.500    0.000    1.167 
#    0.000    0.000    0.000    0.000    0.000    0.000 
#
# Total GULP energy -267568.215553 kJ/mol
# GULP energy per Si atom -5574.337824 kJ/mol
# Density = 1.761655 g / cm^3
# Si number density = 17.656738 Si / 1000 Ang^3
#
#
#
# Elastic Constant Matrix: (Units=GPa)
#
#
# Indices 1 2 3 4 5 6 
#
# 1 24.7724 24.9674 21.1921 0.0000 0.0000 0.0000
# 2 24.9674 99.7347 55.2419 0.0000 0.0000 0.0000
# 3 21.1921 55.2419 51.4038 -0.0001 0.0000 0.0000
# 4 0.0000 0.0000 -0.0001 27.4211 0.0000 0.0000
# 5 0.0000 0.0000 0.0000 0.0000 16.7890 0.0000
# 6 0.0000 0.0000 0.0000 0.0000 0.0000 4.6469
#
#
#
# Elastic Compliance Matrix: (Units=1/GPa)
#
#
# Indices 1 2 3 4 5 6 
#
# 1 0.062828 -0.003413 -0.022234 0.000000 0.000000 0.000000
# 2 -0.003413 0.024957 -0.025414 0.000000 0.000000 0.000000
# 3 -0.022234 -0.025414 0.055932 0.000000 0.000000 0.000000
# 4 0.000000 0.000000 0.000000 0.036468 0.000000 0.000000
# 5 0.000000 0.000000 0.000000 0.000000 0.059563 0.000000
# 6 0.000000 0.000000 0.000000 0.000000 0.000000 0.215199
#
#
# Mechanical properties :
#
#
# Convention : Reuss Voigt Hill
#
# Bulk Modulus (GPa) = 24.04127 42.07932 33.06029
# Shear Modulus (GPa) = 8.75758 14.73869 11.74813
#
# Velocity S-wave (km/s) = 2.22950 2.89231 2.58226
# Velocity P-wave (km/s) = 4.50256 5.91925 5.25883
#
# Compressibility (1/GPa) = 0.04159515
#
# Stress axis : x y z
#
# Youngs Moduli (GPa) = 15.91645 40.06822 17.87897
#
# Poissons Ratio (x) = 0.13676 0.39752
# Poissons Ratio (y) = 0.05432 0.45437
# Poissons Ratio (z) = 0.35389 1.01829
#
# Static dielectric constant tensor:
#      x y z
#    x 1.605930 0.000000 0.000000 
#    y 0.000000 1.597220 0.000000 
#    z 0.000000 0.000000 1.621250 
# 
# From -- ./inp_files/24280.got.cif
#   From: 2010.05.17/outbox.cif.g08.bks.cpg/sg71_13_cif.got.tgz:24280.got - 2010.06.03 16:22:01.
