data_PCOD9521684
_publ_section_title
;
Structure prediction by ZEFSAII (Michael W. Deem and Ramdas Pophale) SiO2 
 PCOD9521684
Probable space group: I M M M
;
_chemical_formula_sum "Si O2"
_cell_formula_units_Z 42
_cell_length_a 8.111381
_cell_length_b 33.296933
_cell_length_c 7.619389
_cell_angle_alpha 90.000000
_cell_angle_beta 90.000000
_cell_angle_gamma 90.000000
_cell_volume 2057.875894
_symmetry_space_group_name_H-M "I M M M"
_symmetry_group_IT_number 71
_symmetry_cell_setting 'orthorhombic'
loop_
_space_group_symop_operation_xyz
x,y,z
-x,-y,z
x,-y,-z
-x,y,-z
-x,-y,-z
x,y,-z
-x,y,z
x,-y,z
1/2+x,1/2+y,1/2+z
1/2-x,1/2-y,1/2+z
1/2+x,1/2-y,1/2-z
1/2-x,1/2+y,1/2-z
1/2-x,1/2-y,1/2-z
1/2+x,1/2+y,1/2-z
1/2-x,1/2+y,1/2+z
1/2+x,1/2-y,1/2+z
loop_
_atom_site_type_symbol
_atom_site_label
_atom_site_fract_x
_atom_site_fract_y
_atom_site_fract_z
Si Si1 0.682494 0.621464 0.286598
Si Si2 0.185549 0.294250 0.289575
Si Si3 0.500000 0.068467 0.697048
Si Si4 0.000000 0.500000 0.500000
O O1 0.688041 0.620030 0.500000
O O2 0.500000 0.607328 0.232698
O O3 0.707379 0.667839 0.230150
O O4 0.836320 0.595753 0.220423
O O5 0.179617 0.297308 0.500000
O O6 0.250000 0.250000 0.250000
O O7 0.000000 0.298672 0.220760
O O8 0.500000 0.051921 0.500000
O O9 0.500000 0.035023 0.846390
#
# Coordination Sequence:
#
# PCOD9521684 Si02
#       4
#    16  16   8   2
#     4  10  20  40  68  94 133 185 227 278 349 408
#     4  10  20  34  55  85 128 177 227 277 329 391
#     4  12  25  45  75 106 135 179 224 281 351 420
#     4  12  26  52  78 102 148 170 230 292 350 422
#
# _framework density 20.409395
#
# number of rings (size 3 to 8) (size 9 to 14) (size 15 to 20)
#    0.000    1.524    3.810    1.429    0.000    4.571 
#    0.000    1.905    0.000    2.286    0.000    0.000 
#    0.000    0.000    0.000    0.000    0.000    0.000 
#
# Total GULP energy -117037.403215 kJ/mol
# GULP energy per Si atom -5573.209677 kJ/mol
# Density = 2.036294 g / cm^3
# Si number density = 20.409395 Si / 1000 Ang^3
#
#
#
# Elastic Constant Matrix: (Units=GPa)
#
#
# Indices 1 2 3 4 5 6 
#
# 1 168.9144 60.3371 32.5629 -0.0006 0.0010 -0.0007
# 2 60.3371 136.9256 42.5468 -0.0106 -0.0023 0.0001
# 3 32.5629 42.5468 106.0160 -0.0160 -0.0030 0.0002
# 4 -0.0006 -0.0106 -0.0160 26.6982 -0.0028 0.0002
# 5 0.0010 -0.0023 -0.0030 -0.0028 9.0672 -0.0014
# 6 -0.0007 0.0001 0.0002 0.0002 -0.0014 -4.7732
#
#
#
# Elastic Compliance Matrix: (Units=1/GPa)
#
#
# Indices 1 2 3 4 5 6 
#
# 1 0.007129 -0.002812 -0.001061 -0.000002 -0.000002 -0.000001
# 2 -0.002812 0.009453 -0.002930 0.000002 0.000002 0.000000
# 3 -0.001061 -0.002930 0.010934 0.000005 0.000003 0.000001
# 4 -0.000002 0.000002 0.000005 0.037456 0.000012 0.000002
# 5 -0.000002 0.000002 0.000003 0.000012 0.110288 -0.000032
# 6 -0.000001 0.000000 0.000001 0.000002 -0.000032 -0.209502
#
#
# Mechanical properties :
#
#
# Convention : Reuss Voigt Hill
#
# Bulk Modulus (GPa) = 71.88968 75.86105 73.87536
# Shear Modulus (GPa) = -312.50433 24.62571 -143.93931
#
# Velocity S-wave (km/s) = -12.38751 3.47736 -8.40709
# Velocity P-wave (km/s) = 13.01154 7.30569 7.61338
#
# Compressibility (1/GPa) = 0.01391020
#
# Stress axis : x y z
#
# Youngs Moduli (GPa) = 140.26995 105.79039 91.45463
#
# Poissons Ratio (x) = 0.29745 0.09706
# Poissons Ratio (y) = 0.39440 0.26796
# Poissons Ratio (z) = 0.14887 0.30996
#
# Static dielectric constant tensor:
#      x y z
#    x 1.736260 0.000000 0.000010 
#    y 0.000000 1.686990 0.000010 
#    z 0.000010 0.000010 1.780430 
# 
# From -- ./inp_files/2094.got.cif
#   From: 2010.05.17/outbox.cif.g08.bks.cpg/sg71_2_cif.got.tgz:2094.got - 2010.06.03 16:22:01.
