data_PCOD9521866
_publ_section_title
;
Structure prediction by ZEFSAII (Michael W. Deem and Ramdas Pophale) SiO2 
 PCOD9521866
Probable space group: I M M M
;
_chemical_formula_sum "Si O2"
_cell_formula_units_Z 88
_cell_length_a 34.614477
_cell_length_b 8.066027
_cell_length_c 16.229840
_cell_angle_alpha 90.000000
_cell_angle_beta 90.000000
_cell_angle_gamma 90.000000
_cell_volume 4531.392525
_symmetry_space_group_name_H-M "I M M M"
_symmetry_group_IT_number 71
_symmetry_cell_setting 'orthorhombic'
loop_
_space_group_symop_operation_xyz
x,y,z
-x,-y,z
x,-y,-z
-x,y,-z
-x,-y,-z
x,y,-z
-x,y,z
x,-y,z
1/2+x,1/2+y,1/2+z
1/2-x,1/2-y,1/2+z
1/2+x,1/2-y,1/2-z
1/2-x,1/2+y,1/2-z
1/2-x,1/2-y,1/2-z
1/2+x,1/2+y,1/2-z
1/2-x,1/2+y,1/2+z
1/2+x,1/2-y,1/2+z
loop_
_atom_site_type_symbol
_atom_site_label
_atom_site_fract_x
_atom_site_fract_y
_atom_site_fract_z
Si Si1 0.251729 0.301160 0.154270
Si Si2 0.953163 0.687813 0.500000
Si Si3 0.379250 0.197654 0.749117
Si Si4 0.665659 0.802178 0.908993
Si Si5 0.832433 0.297265 0.908414
Si Si6 0.043889 0.804172 0.680422
O O1 0.254418 0.500000 0.149429
O O2 0.250000 0.250000 0.250000
O O3 0.289361 0.227043 0.111004
O O4 0.211604 0.249429 0.112111
O O5 0.938465 0.500000 0.500000
O O6 0.942733 0.769821 0.413656
O O7 0.000000 0.686102 0.500000
O O8 0.358094 0.266251 0.831007
O O9 0.359846 0.261916 0.665561
O O10 0.424525 0.229254 0.759168
O O11 0.372757 0.000000 0.749283
O O12 0.658841 0.000000 0.911492
O O13 0.655918 0.735102 0.000000
O O14 0.833313 0.500000 0.908290
O O15 0.843420 0.241980 0.000000
O O16 0.000000 0.738108 0.689360
O O17 0.042659 0.000000 0.692427
#
# Coordination Sequence:
#
# PCOD9521866 Si02
#       6
#    16   8  16  16  16  16
#     4  11  20  34  55  78 108 144 185 224 267 320
#     4   9  17  31  53  79 105 139 181 215 253 315
#     4  10  20  35  55  79 106 140 181 223 270 324
#     4  10  21  36  52  76 111 146 179 219 266 315
#     4   9  18  34  56  79 104 137 180 230 276 315
#     4  10  21  36  53  77 110 143 177 221 272 323
#
# _framework density 19.420079999999999
#
# number of rings (size 3 to 8) (size 9 to 14) (size 15 to 20)
#    0.000    2.091    1.818    1.909    1.273    4.000 
#    0.000    0.000    0.000    3.273    0.000    3.818 
#    0.000    0.000    0.000    0.000    0.000    0.000 
#
# Total GULP energy -245665.402781 kJ/mol
# GULP energy per Si atom -5583.304609 kJ/mol
# Density = 1.937588 g / cm^3
# Si number density = 19.420080 Si / 1000 Ang^3
#
#
#
# Elastic Constant Matrix: (Units=GPa)
#
#
# Indices 1 2 3 4 5 6 
#
# 1 107.7899 -7.3052 75.0663 0.0000 0.0000 0.0000
# 2 -7.3052 6.7777 10.2851 0.0000 0.0000 0.0000
# 3 75.0663 10.2851 165.2642 0.0000 0.0000 0.0000
# 4 0.0000 0.0000 0.0000 12.5212 0.0000 0.0000
# 5 0.0000 0.0000 0.0000 0.0000 31.6807 0.0000
# 6 0.0000 0.0000 0.0000 0.0000 0.0000 23.8479
#
#
#
# Elastic Compliance Matrix: (Units=1/GPa)
#
#
# Indices 1 2 3 4 5 6 
#
# 1 0.019872 0.038778 -0.011440 0.000000 0.000000 0.000000
# 2 0.038778 0.238599 -0.032463 0.000000 0.000000 0.000000
# 3 -0.011440 -0.032463 0.013267 0.000000 0.000000 0.000000
# 4 0.000000 0.000000 0.000000 0.079865 0.000000 0.000000
# 5 0.000000 0.000000 0.000000 0.000000 0.031565 0.000000
# 6 0.000000 0.000000 0.000000 0.000000 0.000000 0.041932
#
#
# Mechanical properties :
#
#
# Convention : Reuss Voigt Hill
#
# Bulk Modulus (GPa) = 3.82425 48.43602 26.13013
# Shear Modulus (GPa) = 9.56915 27.06233 18.31574
#
# Velocity S-wave (km/s) = 2.22219 3.73704 3.07438
# Velocity P-wave (km/s) = 2.92535 6.60424 5.10753
#
# Compressibility (1/GPa) = 0.26148931
#
# Stress axis : x y z
#
# Youngs Moduli (GPa) = 50.32198 4.19114 75.37338
#
# Poissons Ratio (x) = -0.16252 0.86224
# Poissons Ratio (y) = -1.95138 2.44682
# Poissons Ratio (z) = 0.57566 0.13606
#
# Static dielectric constant tensor:
#      x y z
#    x 1.684270 0.000000 0.000000 
#    y 0.000000 1.684430 0.000000 
#    z 0.000000 0.000000 1.693230 
# 
# From -- ./inp_files/49246.got.cif
#   From: 2010.05.17/outbox.cif.g08.bks.cpg/sg71_25_cif.got.tgz:49246.got - 2010.06.03 16:22:01.
