data_PCOD9521925
_publ_section_title
;
Structure prediction by ZEFSAII (Michael W. Deem and Ramdas Pophale) SiO2 
 PCOD9521925
Probable space group: I M M M
;
_chemical_formula_sum "Si O2"
_cell_formula_units_Z 66
_cell_length_a 9.846177
_cell_length_b 21.065139
_cell_length_c 15.020476
_cell_angle_alpha 90.000000
_cell_angle_beta 90.000000
_cell_angle_gamma 90.000000
_cell_volume 3115.413256
_symmetry_space_group_name_H-M "I M M M"
_symmetry_group_IT_number 71
_symmetry_cell_setting 'orthorhombic'
loop_
_space_group_symop_operation_xyz
x,y,z
-x,-y,z
x,-y,-z
-x,y,-z
-x,-y,-z
x,y,-z
-x,y,z
x,-y,z
1/2+x,1/2+y,1/2+z
1/2-x,1/2-y,1/2+z
1/2+x,1/2-y,1/2-z
1/2-x,1/2+y,1/2-z
1/2-x,1/2-y,1/2-z
1/2+x,1/2+y,1/2-z
1/2-x,1/2+y,1/2+z
1/2+x,1/2-y,1/2+z
loop_
_atom_site_type_symbol
_atom_site_label
_atom_site_fract_x
_atom_site_fract_y
_atom_site_fract_z
Si Si1 0.230443 0.000000 0.153557
Si Si2 0.154795 0.000000 0.645850
Si Si3 0.655450 0.252789 0.390785
Si Si4 0.848572 0.633230 0.607768
Si Si5 0.844958 0.861050 0.605605
Si Si6 0.000000 0.000000 0.000000
O O1 0.318516 0.936377 0.144315
O O2 0.158941 0.000000 0.248416
O O3 0.118532 0.000000 0.076868
O O4 0.212695 0.932157 0.617008
O O5 0.000000 0.000000 0.610751
O O6 0.652801 0.251837 0.500000
O O7 0.500000 0.251088 0.360446
O O8 0.733433 0.316979 0.364858
O O9 0.744393 0.192900 0.359606
O O10 0.843772 0.629202 0.500000
O O11 0.000000 0.655331 0.632239
O O12 0.856446 0.849676 0.500000
O O13 0.000000 0.858114 0.642510
#
# Coordination Sequence:
#
# PCOD9521925 Si02
#       6
#     8   8  16  16  16   2
#     4  12  23  36  56  82 114 146 188 229 282 330
#     4  10  21  35  56  84 114 145 185 232 273 324
#     4   9  18  31  54  84 114 144 184 227 274 331
#     4  10  20  35  56  81 109 144 187 234 279 329
#     4   9  17  34  58  84 112 146 184 223 271 327
#     4  12  24  36  58  84 114 148 186 230 284 328
#
# _framework density 21.184992000000001
#
# number of rings (size 3 to 8) (size 9 to 14) (size 15 to 20)
#    0.000    2.182    1.818    1.455    1.697    5.333 
#    0.000    4.242    0.000    2.909    0.000    0.000 
#    0.000    0.000    0.000    0.000    0.000    0.000 
#
# Total GULP energy -184009.130314 kJ/mol
# GULP energy per Si atom -5576.034252 kJ/mol
# Density = 2.113677 g / cm^3
# Si number density = 21.184992 Si / 1000 Ang^3
#
#
#
# Elastic Constant Matrix: (Units=GPa)
#
#
# Indices 1 2 3 4 5 6 
#
# 1 141.2551 88.5103 10.5512 0.0000 0.0000 0.0000
# 2 88.5103 186.5957 -7.1186 0.0000 0.0000 0.0000
# 3 10.5512 -7.1186 40.0050 0.0000 0.0000 0.0000
# 4 0.0000 0.0000 0.0000 28.6873 0.0000 0.0000
# 5 0.0000 0.0000 0.0000 0.0000 9.3791 0.0000
# 6 0.0000 0.0000 0.0000 0.0000 0.0000 -9.8795
#
#
#
# Elastic Compliance Matrix: (Units=1/GPa)
#
#
# Indices 1 2 3 4 5 6 
#
# 1 0.010594 -0.005167 -0.003714 0.000000 0.000000 0.000000
# 2 -0.005167 0.007916 0.002771 0.000000 0.000000 0.000000
# 3 -0.003714 0.002771 0.026469 0.000000 0.000000 0.000000
# 4 0.000000 0.000000 0.000000 0.034859 0.000000 0.000000
# 5 0.000000 0.000000 0.000000 0.000000 0.106620 0.000000
# 6 0.000000 0.000000 0.000000 0.000000 0.000000 -0.101220
#
#
# Mechanical properties :
#
#
# Convention : Reuss Voigt Hill
#
# Bulk Modulus (GPa) = 30.52411 61.30464 45.91437
# Shear Modulus (GPa) = 46.13518 24.03158 35.08338
#
# Velocity S-wave (km/s) = 4.67168 3.37169 4.07387
# Velocity P-wave (km/s) = 6.59841 6.64517 6.62184
#
# Compressibility (1/GPa) = 0.03276099
#
# Stress axis : x y z
#
# Youngs Moduli (GPa) = 94.38867 126.32832 37.77935
#
# Poissons Ratio (x) = 0.65275 0.14030
# Poissons Ratio (y) = 0.48772 -0.10470
# Poissons Ratio (z) = 0.35053 -0.35010
#
# Static dielectric constant tensor:
#      x y z
#    x 1.751750 0.000000 0.000000 
#    y 0.000000 1.764580 0.000000 
#    z 0.000000 0.000000 1.750880 
# 
# From -- ./inp_files/41964.got.cif
#   From: 2010.05.17/outbox.cif.g08.bks.cpg/sg71_21_cif.got.tgz:41964.got - 2010.06.03 16:22:01.
