data_PCOD9521175
_publ_section_title
;
Structure prediction by ZEFSAII (Michael W. Deem and Ramdas Pophale) SiO2 
 PCOD9521175
Probable space group: I M M M
;
_chemical_formula_sum "Si O2"
_cell_formula_units_Z 88
_cell_length_a 31.565636
_cell_length_b 15.674275
_cell_length_c 9.294783
_cell_angle_alpha 90.000000
_cell_angle_beta 90.000000
_cell_angle_gamma 90.000000
_cell_volume 4598.765464
_symmetry_space_group_name_H-M "I M M M"
_symmetry_group_IT_number 71
_symmetry_cell_setting 'orthorhombic'
loop_
_space_group_symop_operation_xyz
x,y,z
-x,-y,z
x,-y,-z
-x,y,-z
-x,-y,-z
x,y,-z
-x,y,z
x,-y,z
1/2+x,1/2+y,1/2+z
1/2-x,1/2-y,1/2+z
1/2+x,1/2-y,1/2-z
1/2-x,1/2+y,1/2-z
1/2-x,1/2-y,1/2-z
1/2+x,1/2+y,1/2-z
1/2-x,1/2+y,1/2+z
1/2+x,1/2-y,1/2+z
loop_
_atom_site_type_symbol
_atom_site_label
_atom_site_fract_x
_atom_site_fract_y
_atom_site_fract_z
Si Si1 0.449386 0.000000 0.826669
Si Si2 0.386365 0.126141 0.670215
Si Si3 0.547852 0.602053 0.157710
Si Si4 0.205735 0.652466 0.827182
Si Si5 0.797942 0.836211 0.670960
Si Si6 0.621194 0.329731 0.333573
O O1 0.422690 0.920463 0.760748
O O2 0.500000 0.000000 0.789235
O O3 0.446641 0.000000 0.000000
O O4 0.393184 0.108856 0.500000
O O5 0.337341 0.101598 0.706787
O O6 0.385200 0.228240 0.691747
O O7 0.500000 0.633996 0.174837
O O8 0.546302 0.500000 0.153664
O O9 0.577785 0.629237 0.284658
O O10 0.563848 0.631599 0.000000
O O11 0.204788 0.741438 0.740449
O O12 0.253018 0.617371 0.799617
O O13 0.203442 0.670346 0.000000
O O14 0.802705 0.830285 0.500000
O O15 0.840679 0.870081 0.741681
O O16 0.630931 0.341240 0.500000
#
# Coordination Sequence:
#
# PCOD9521175 Si02
#       6
#     8  16  16  16  16  16
#     4  11  25  41  55  75 103 135 177 231 284 327
#     4   9  19  36  56  77 103 137 176 217 264 319
#     4   9  19  36  56  77 103 137 175 214 260 314
#     4   8  15  28  47  74 104 132 168 210 254 309
#     4   9  15  25  46  75 106 138 170 205 253 306
#     4  10  20  33  52  81 112 140 176 219 261 313
#
# _framework density 19.135570999999999
#
# number of rings (size 3 to 8) (size 9 to 14) (size 15 to 20)
#    0.000    2.818    0.000    3.000    0.000    6.545 
#    0.000    4.545    2.000    0.000    0.000    0.000 
#    0.000    0.000    0.000    0.000    0.000    0.000 
#
# Total GULP energy -244941.503634 kJ/mol
# GULP energy per Si atom -5566.852355 kJ/mol
# Density = 1.909202 g / cm^3
# Si number density = 19.135571 Si / 1000 Ang^3
#
#
#
# Elastic Constant Matrix: (Units=GPa)
#
#
# Indices 1 2 3 4 5 6 
#
# 1 156.8910 31.2388 63.4602 0.0000 0.0000 0.0000
# 2 31.2388 22.0197 18.5937 0.0000 0.0000 0.0000
# 3 63.4602 18.5937 52.3182 0.0000 0.0000 0.0000
# 4 0.0000 0.0000 0.0000 17.9483 0.0000 0.0000
# 5 0.0000 0.0000 0.0000 0.0000 32.6205 0.0000
# 6 0.0000 0.0000 0.0000 0.0000 0.0000 36.7699
#
#
#
# Elastic Compliance Matrix: (Units=1/GPa)
#
#
# Indices 1 2 3 4 5 6 
#
# 1 0.013330 -0.007512 -0.013499 0.000000 0.000000 0.000000
# 2 -0.007512 0.069120 -0.015453 0.000000 0.000000 0.000000
# 3 -0.013499 -0.015453 0.040979 0.000000 0.000000 0.000000
# 4 0.000000 0.000000 0.000000 0.055716 0.000000 0.000000
# 5 0.000000 0.000000 0.000000 0.000000 0.030656 0.000000
# 6 0.000000 0.000000 0.000000 0.000000 0.000000 0.027196
#
#
# Mechanical properties :
#
#
# Convention : Reuss Voigt Hill
#
# Bulk Modulus (GPa) = 19.80157 50.86826 35.33491
# Shear Modulus (GPa) = 15.30192 25.33015 20.31603
#
# Velocity S-wave (km/s) = 2.83089 3.64224 3.26189
# Velocity P-wave (km/s) = 4.58866 6.65798 5.71771
#
# Compressibility (1/GPa) = 0.05050106
#
# Stress axis : x y z
#
# Youngs Moduli (GPa) = 75.02119 14.46767 24.40271
#
# Poissons Ratio (x) = 0.10868 0.32940
# Poissons Ratio (y) = 0.56356 0.37710
# Poissons Ratio (z) = 1.01268 0.22357
#
# Static dielectric constant tensor:
#      x y z
#    x 1.733780 0.000000 0.000000 
#    y 0.000000 1.711570 0.000000 
#    z 0.000000 0.000000 1.646490 
# 
# From -- ./inp_files/16690.got.cif
#   From: 2010.05.17/outbox.cif.g08.bks.cpg/sg71_9_cif.got.tgz:16690.got - 2010.06.03 16:22:01.
