data_PCOD9521849
_publ_section_title
;
Structure prediction by ZEFSAII (Michael W. Deem and Ramdas Pophale) SiO2 
 PCOD9521849
Probable space group: I M M M
;
_chemical_formula_sum "Si O2"
_cell_formula_units_Z 72
_cell_length_a 30.627286
_cell_length_b 7.710016
_cell_length_c 14.986529
_cell_angle_alpha 90.000000
_cell_angle_beta 90.000000
_cell_angle_gamma 90.000000
_cell_volume 3538.871977
_symmetry_space_group_name_H-M "I M M M"
_symmetry_group_IT_number 71
_symmetry_cell_setting 'orthorhombic'
loop_
_space_group_symop_operation_xyz
x,y,z
-x,-y,z
x,-y,-z
-x,y,-z
-x,-y,-z
x,y,-z
-x,y,z
x,-y,z
1/2+x,1/2+y,1/2+z
1/2-x,1/2-y,1/2+z
1/2+x,1/2-y,1/2-z
1/2-x,1/2+y,1/2-z
1/2-x,1/2-y,1/2-z
1/2+x,1/2+y,1/2-z
1/2-x,1/2+y,1/2+z
1/2+x,1/2-y,1/2+z
loop_
_atom_site_type_symbol
_atom_site_label
_atom_site_fract_x
_atom_site_fract_y
_atom_site_fract_z
Si Si1 0.165034 0.786730 0.500000
Si Si2 0.450274 0.707321 0.693893
Si Si3 0.206207 0.292552 0.194700
Si Si4 0.125117 0.796481 0.315833
Si Si5 0.733366 0.211919 0.500000
Si Si6 0.450019 0.793421 0.500000
O O1 0.141146 0.725089 0.410466
O O2 0.215785 0.735061 0.500000
O O3 0.165416 0.000000 0.500000
O O4 0.500000 0.776791 0.697199
O O5 0.452917 0.500000 0.704473
O O6 0.417876 0.778666 0.768838
O O7 0.431002 0.738493 0.594821
O O8 0.201388 0.500000 0.193052
O O9 0.250000 0.250000 0.250000
O O10 0.164989 0.217763 0.246698
O O11 0.211596 0.231103 0.092637
O O12 0.116466 0.000000 0.331345
O O13 0.732749 0.000000 0.500000
O O14 0.500000 0.723131 0.500000
O O15 0.451500 0.000000 0.500000
#
# Coordination Sequence:
#
# PCOD9521849 Si02
#       6
#     8  16  16  16   8   8
#     4   9  16  32  54  73  99 138 174 206 256 314
#     4   9  18  33  53  78 108 139 173 217 265 309
#     4  11  21  35  54  77 104 136 173 214 259 309
#     4  10  20  35  55  77 103 138 177 215 259 312
#     4   9  18  33  53  73 102 138 168 204 260 312
#     4   9  17  30  51  76 102 137 175 209 256 317
#
# _framework density 20.345464
#
# number of rings (size 3 to 8) (size 9 to 14) (size 15 to 20)
#    0.000    2.333    2.222    1.000    0.000    3.111 
#    0.000    6.667    0.000    3.333    0.000    0.000 
#    0.000    5.333    0.000    0.000    0.000    0.000 
#
# Total GULP energy -200894.476320 kJ/mol
# GULP energy per Si atom -5580.402120 kJ/mol
# Density = 2.029916 g / cm^3
# Si number density = 20.345464 Si / 1000 Ang^3
#
#
#
# Elastic Constant Matrix: (Units=GPa)
#
#
# Indices 1 2 3 4 5 6 
#
# 1 87.4776 -8.0108 71.1938 0.0000 0.0000 0.0000
# 2 -8.0108 35.4688 -4.0407 0.0000 0.0000 0.0000
# 3 71.1938 -4.0407 200.4713 0.0000 0.0000 0.0000
# 4 0.0000 0.0000 0.0000 1.1694 0.0000 0.0000
# 5 0.0000 0.0000 0.0000 0.0000 29.9496 0.0000
# 6 0.0000 0.0000 0.0000 0.0000 0.0000 12.8069
#
#
#
# Elastic Compliance Matrix: (Units=1/GPa)
#
#
# Indices 1 2 3 4 5 6 
#
# 1 0.016401 0.003048 -0.005763 0.000000 0.000000 0.000000
# 2 0.003048 0.028825 -0.000501 0.000000 0.000000 0.000000
# 3 -0.005763 -0.000501 0.007025 0.000000 0.000000 0.000000
# 4 0.000000 0.000000 0.000000 0.855137 0.000000 0.000000
# 5 0.000000 0.000000 0.000000 0.000000 0.033389 0.000000
# 6 0.000000 0.000000 0.000000 0.000000 0.000000 0.078083
#
#
# Mechanical properties :
#
#
# Convention : Reuss Voigt Hill
#
# Bulk Modulus (GPa) = 21.82584 49.07803 35.45193
# Shear Modulus (GPa) = 4.80508 26.40353 15.60430
#
# Velocity S-wave (km/s) = 1.53846 3.60635 2.77242
# Velocity P-wave (km/s) = 3.72917 6.44327 5.26415
#
# Compressibility (1/GPa) = 0.04581725
#
# Stress axis : x y z
#
# Youngs Moduli (GPa) = 60.97246 34.69207 142.35316
#
# Poissons Ratio (x) = -0.10573 0.82039
# Poissons Ratio (y) = -0.18582 0.07136
# Poissons Ratio (z) = 0.35139 0.01739
#
# Static dielectric constant tensor:
#      x y z
#    x 1.707390 0.000000 0.000000 
#    y 0.000000 1.754950 0.000000 
#    z 0.000000 0.000000 1.725490 
# 
# From -- ./inp_files/6558.got.cif
#   From: 2010.05.17/outbox.cif.g08.bks.cpg/sg71_4_cif.got.tgz:6558.got - 2010.06.03 16:22:01.
