data_PCOD9521382
_publ_section_title
;
Structure prediction by ZEFSAII (Michael W. Deem and Ramdas Pophale) SiO2 
 PCOD9521382
Probable space group: I M M M
;
_chemical_formula_sum "Si O2"
_cell_formula_units_Z 104
_cell_length_a 28.292890
_cell_length_b 8.691491
_cell_length_c 22.362720
_cell_angle_alpha 90.000000
_cell_angle_beta 90.000000
_cell_angle_gamma 90.000000
_cell_volume 5499.158305
_symmetry_space_group_name_H-M "I M M M"
_symmetry_group_IT_number 71
_symmetry_cell_setting 'orthorhombic'
loop_
_space_group_symop_operation_xyz
x,y,z
-x,-y,z
x,-y,-z
-x,y,-z
-x,-y,-z
x,y,-z
-x,y,z
x,-y,z
1/2+x,1/2+y,1/2+z
1/2-x,1/2-y,1/2+z
1/2+x,1/2-y,1/2-z
1/2-x,1/2+y,1/2-z
1/2-x,1/2-y,1/2-z
1/2+x,1/2+y,1/2-z
1/2-x,1/2+y,1/2+z
1/2+x,1/2-y,1/2+z
loop_
_atom_site_type_symbol
_atom_site_label
_atom_site_fract_x
_atom_site_fract_y
_atom_site_fract_z
Si Si1 0.553179 0.812343 0.000000
Si Si2 0.445004 0.684272 0.772592
Si Si3 0.813888 0.312700 0.931190
Si Si4 0.610650 0.182583 0.886458
Si Si5 0.199854 0.826749 0.257866
Si Si6 0.706730 0.673954 0.100623
Si Si7 0.378607 0.181989 0.321838
O O1 0.576897 0.761158 0.939153
O O2 0.500000 0.761782 0.000000
O O3 0.555392 0.000000 0.000000
O O4 0.500000 0.733054 0.781112
O O5 0.443171 0.500000 0.773702
O O6 0.410245 0.744159 0.825361
O O7 0.424181 0.740309 0.708589
O O8 0.813925 0.500000 0.928650
O O9 0.760074 0.268633 0.911972
O O10 0.854463 0.262593 0.884250
O O11 0.822027 0.266371 0.000000
O O12 0.662495 0.219788 0.914058
O O13 0.608002 0.000000 0.877274
O O14 0.250000 0.750000 0.250000
O O15 0.196795 0.838679 0.328751
O O16 0.162283 0.718457 0.226295
O O17 0.196279 0.000000 0.232737
O O18 0.703213 0.500000 0.075225
O O19 0.386865 0.000000 0.326644
#
# Coordination Sequence:
#
# PCOD9521382 Si02
#       7
#     8  16  16  16  16  16  16
#     4   9  20  38  55  73 105 149 193 241 290 331
#     4  11  24  41  60  84 114 145 183 237 297 349
#     4   9  19  36  57  82 114 153 192 232 277 332
#     4  11  22  36  57  83 113 150 194 237 282 336
#     4  11  20  32  52  79 113 149 185 225 273 325
#     4  10  20  34  52  78 114 152 188 224 273 328
#     4  11  21  36  59  86 113 146 190 234 288 348
#
# _framework density 18.911985999999999
#
# number of rings (size 3 to 8) (size 9 to 14) (size 15 to 20)
#    0.000    1.615    3.077    2.308    1.077    2.462 
#    0.000    1.154    0.000    6.923    0.000    3.231 
#    0.000    0.000    0.000    0.000    0.000    0.000 
#
# Total GULP energy -289677.562634 kJ/mol
# GULP energy per Si atom -5570.722358 kJ/mol
# Density = 1.886894 g / cm^3
# Si number density = 18.911986 Si / 1000 Ang^3
#
#
#
# Elastic Constant Matrix: (Units=GPa)
#
#
# Indices 1 2 3 4 5 6 
#
# 1 87.7428 16.7366 39.2816 0.0000 0.0000 0.0000
# 2 16.7366 30.7879 12.4160 0.0000 0.0000 0.0000
# 3 39.2816 12.4160 115.5881 0.0000 0.0000 0.0000
# 4 0.0000 0.0000 0.0000 9.1231 0.0000 0.0000
# 5 0.0000 0.0000 0.0000 0.0000 30.3240 0.0000
# 6 0.0000 0.0000 0.0000 0.0000 0.0000 25.2724
#
#
#
# Elastic Compliance Matrix: (Units=1/GPa)
#
#
# Indices 1 2 3 4 5 6 
#
# 1 0.014477 -0.006152 -0.004259 0.000000 0.000000 0.000000
# 2 -0.006152 0.036565 -0.001837 0.000000 0.000000 0.000000
# 3 -0.004259 -0.001837 0.010296 0.000000 0.000000 0.000000
# 4 0.000000 0.000000 0.000000 0.109612 0.000000 0.000000
# 5 0.000000 0.000000 0.000000 0.000000 0.032977 0.000000
# 6 0.000000 0.000000 0.000000 0.000000 0.000000 0.039569
#
#
# Mechanical properties :
#
#
# Convention : Reuss Voigt Hill
#
# Bulk Modulus (GPa) = 27.14281 41.22080 34.18181
# Shear Modulus (GPa) = 17.83968 23.98954 20.91461
#
# Velocity S-wave (km/s) = 3.07465 3.56544 3.32910
# Velocity P-wave (km/s) = 5.19499 6.22842 5.73503
#
# Compressibility (1/GPa) = 0.03684217
#
# Stress axis : x y z
#
# Youngs Moduli (GPa) = 69.07395 27.34820 97.12378
#
# Poissons Ratio (x) = 0.16826 0.41366
# Poissons Ratio (y) = 0.42497 0.17840
# Poissons Ratio (z) = 0.29419 0.05024
#
# Static dielectric constant tensor:
#      x y z
#    x 2.894930 0.000000 0.000000 
#    y 0.000000 1.679160 0.000000 
#    z 0.000000 0.000000 1.664010 
# 
# From -- ./inp_files/56261.got.cif
#   From: 2010.05.17/outbox.cif.g08.bks.cpg/sg71_29_cif.got.tgz:56261.got - 2010.06.03 16:22:01.
