data_PCOD9521580
_publ_section_title
;
Structure prediction by ZEFSAII (Michael W. Deem and Ramdas Pophale) SiO2 
 PCOD9521580
Probable space group: I M M M
;
_chemical_formula_sum "Si O2"
_cell_formula_units_Z 104
_cell_length_a 14.565145
_cell_length_b 23.143784
_cell_length_c 16.538131
_cell_angle_alpha 90.000000
_cell_angle_beta 90.000000
_cell_angle_gamma 90.000000
_cell_volume 5574.881079
_symmetry_space_group_name_H-M "I M M M"
_symmetry_group_IT_number 71
_symmetry_cell_setting 'orthorhombic'
loop_
_space_group_symop_operation_xyz
x,y,z
-x,-y,z
x,-y,-z
-x,y,-z
-x,-y,-z
x,y,-z
-x,y,z
x,-y,z
1/2+x,1/2+y,1/2+z
1/2-x,1/2-y,1/2+z
1/2+x,1/2-y,1/2-z
1/2-x,1/2+y,1/2-z
1/2-x,1/2-y,1/2-z
1/2+x,1/2+y,1/2-z
1/2-x,1/2+y,1/2+z
1/2+x,1/2-y,1/2+z
loop_
_atom_site_type_symbol
_atom_site_label
_atom_site_fract_x
_atom_site_fract_y
_atom_site_fract_z
Si Si1 0.605861 0.659705 0.739589
Si Si2 0.104210 0.727726 0.658576
Si Si3 0.602838 0.115241 0.741462
Si Si4 0.665757 0.066774 0.910451
Si Si5 0.392773 0.569927 0.000000
Si Si6 0.715452 0.430629 0.835191
Si Si7 0.718799 0.678052 0.413337
O O1 0.500000 0.648243 0.723479
O O2 0.612875 0.707469 0.809947
O O3 0.656270 0.601748 0.767103
O O4 0.653936 0.687341 0.661978
O O5 0.116468 0.682355 0.733148
O O6 0.185345 0.711749 0.598244
O O7 0.000000 0.718372 0.627994
O O8 0.500000 0.107050 0.709988
O O9 0.611169 0.083472 0.829259
O O10 0.681611 0.092512 0.681879
O O11 0.750618 0.110882 0.910812
O O12 0.691985 0.000000 0.904483
O O13 0.620489 0.074631 0.000000
O O14 0.334116 0.585235 0.920041
O O15 0.398843 0.500000 0.000000
O O16 0.500000 0.591043 0.000000
O O17 0.715030 0.500000 0.827825
O O18 0.677400 0.691786 0.500000
#
# Coordination Sequence:
#
# PCOD9521580 Si02
#       7
#    16  16  16  16   8  16  16
#     4  11  22  37  59  82 110 149 191 234 280 333
#     4   9  19  37  58  80 110 146 186 232 282 330
#     4  10  20  34  56  83 114 150 186 229 280 336
#     4   9  17  30  49  76 113 153 189 223 261 311
#     4   9  20  40  61  81 109 141 180 236 294 343
#     4  11  22  38  60  85 111 144 185 234 289 342
#     4  10  20  34  54  82 116 150 184 228 275 327
#
# _framework density 18.655106
#
# number of rings (size 3 to 8) (size 9 to 14) (size 15 to 20)
#    0.000    2.077    3.077    1.385    0.000    3.077 
#    1.385    4.231    0.000    1.385    0.000    3.231 
#    0.000    0.000    0.000    0.000    0.000    0.000 
#
# Total GULP energy -289771.711297 kJ/mol
# GULP energy per Si atom -5572.532910 kJ/mol
# Density = 1.861265 g / cm^3
# Si number density = 18.655106 Si / 1000 Ang^3
#
#
#
# Elastic Constant Matrix: (Units=GPa)
#
#
# Indices 1 2 3 4 5 6 
#
# 1 109.3330 18.9391 45.4201 0.0000 0.0000 0.0000
# 2 18.9391 39.9854 -6.4099 0.0001 -0.0011 0.0000
# 3 45.4201 -6.4099 84.0450 0.0000 -0.0015 0.0000
# 4 0.0000 0.0001 0.0000 2.5590 -0.0024 0.0000
# 5 0.0000 -0.0011 -0.0015 -0.0024 -265.6893 0.0001
# 6 0.0000 0.0000 0.0000 0.0000 0.0001 15.8985
#
#
#
# Elastic Compliance Matrix: (Units=1/GPa)
#
#
# Indices 1 2 3 4 5 6 
#
# 1 0.013874 -0.007869 -0.008098 0.000000 0.000000 0.000000
# 2 -0.007869 0.029782 0.006524 -0.000001 0.000000 0.000000
# 3 -0.008098 0.006524 0.016772 0.000000 0.000000 0.000000
# 4 0.000000 -0.000001 0.000000 0.390776 -0.000004 0.000000
# 5 0.000000 0.000000 0.000000 -0.000004 -0.003764 0.000000
# 6 0.000000 0.000000 0.000000 0.000000 0.000000 0.062899
#
#
# Mechanical properties :
#
#
# Convention : Reuss Voigt Hill
#
# Bulk Modulus (GPa) = 24.07186 38.80687 31.43937
# Shear Modulus (GPa) = 9.20687 -37.75209 -14.27261
#
# Velocity S-wave (km/s) = 2.22397 -4.50342 -2.76901
# Velocity P-wave (km/s) = 4.41886 2.48870 2.58193
#
# Compressibility (1/GPa) = 0.04154227
#
# Stress axis : x y z
#
# Youngs Moduli (GPa) = 72.07935 33.57698 59.62223
#
# Poissons Ratio (x) = 0.26423 0.48281
# Poissons Ratio (y) = 0.56722 -0.38899
# Poissons Ratio (z) = 0.58369 -0.21906
#
# Static dielectric constant tensor:
#      x y z
#    x 1.642800 0.000000 0.000000 
#    y 0.000000 1.643810 0.000000 
#    z 0.000000 0.000000 1.662120 
# 
# From -- ./inp_files/45146.got.cif
#   From: 2010.05.17/outbox.cif.g08.bks.cpg/sg71_23_cif.got.tgz:45146.got - 2010.06.03 16:22:01.
