data_PCOD9521081
_publ_section_title
;
Structure prediction by ZEFSAII (Michael W. Deem and Ramdas Pophale) SiO2 
 PCOD9521081
Probable space group: I M M M
;
_chemical_formula_sum "Si O2"
_cell_formula_units_Z 104
_cell_length_a 25.361124
_cell_length_b 8.183917
_cell_length_c 23.860136
_cell_angle_alpha 90.000000
_cell_angle_beta 90.000000
_cell_angle_gamma 90.000000
_cell_volume 4952.250773
_symmetry_space_group_name_H-M "I M M M"
_symmetry_group_IT_number 71
_symmetry_cell_setting 'orthorhombic'
loop_
_space_group_symop_operation_xyz
x,y,z
-x,-y,z
x,-y,-z
-x,y,-z
-x,-y,-z
x,y,-z
-x,y,z
x,-y,z
1/2+x,1/2+y,1/2+z
1/2-x,1/2-y,1/2+z
1/2+x,1/2-y,1/2-z
1/2-x,1/2+y,1/2-z
1/2-x,1/2-y,1/2-z
1/2+x,1/2+y,1/2-z
1/2-x,1/2+y,1/2+z
1/2+x,1/2-y,1/2+z
loop_
_atom_site_type_symbol
_atom_site_label
_atom_site_fract_x
_atom_site_fract_y
_atom_site_fract_z
Si Si1 0.775735 0.805099 0.062532
Si Si2 0.942481 0.198595 0.647748
Si Si3 0.586861 0.685136 0.728208
Si Si4 0.881316 0.693822 0.888069
Si Si5 0.806698 0.685866 0.735614
Si Si6 0.060878 0.700071 0.000000
Si Si7 0.828729 0.805330 0.384225
O O1 0.820639 0.755044 0.107316
O O2 0.717517 0.731080 0.072109
O O3 0.771031 0.000000 0.064152
O O4 0.793906 0.754152 0.000000
O O5 0.935471 0.256064 0.712938
O O6 0.891021 0.238199 0.610324
O O7 0.000000 0.252644 0.627297
O O8 0.942861 0.000000 0.650813
O O9 0.567894 0.500000 0.723999
O O10 0.584479 0.764871 0.667178
O O11 0.649282 0.696066 0.739577
O O12 0.877994 0.500000 0.891055
O O13 0.910477 0.757728 0.943613
O O14 0.815732 0.500000 0.754944
O O15 0.750000 0.750000 0.750000
O O16 0.812161 0.700013 0.669292
O O17 0.062676 0.500000 0.000000
O O18 0.000000 0.748126 0.000000
O O19 0.826855 0.000000 0.371817
#
# Coordination Sequence:
#
# PCOD9521081 Si02
#       7
#    16  16  16  16  16   8  16
#     4  11  23  38  57  80 110 145 185 235 284 332
#     4   8  16  33  56  81 110 144 180 221 271 326
#     4  10  20  33  51  77 108 140 177 221 266 318
#     4  11  21  36  57  80 108 145 187 231 279 330
#     4  11  20  32  49  72 105 140 175 214 263 323
#     4   9  20  38  57  77 105 143 186 233 282 331
#     4  10  20  34  55  82 110 141 179 224 276 336
#
# _framework density 21.000554000000001
#
# number of rings (size 3 to 8) (size 9 to 14) (size 15 to 20)
#    0.000    1.923    0.769    5.077    0.000    1.538 
#    0.000    0.000    0.000   19.846    0.000    3.231 
#    0.000    0.000    0.000    0.000    0.000    0.000 
#
# Total GULP energy -289847.125220 kJ/mol
# GULP energy per Si atom -5573.983177 kJ/mol
# Density = 2.095276 g / cm^3
# Si number density = 21.000554 Si / 1000 Ang^3
#
#
#
# Elastic Constant Matrix: (Units=GPa)
#
#
# Indices 1 2 3 4 5 6 
#
# 1 115.2594 6.6780 -3.4699 0.0000 0.0000 0.0000
# 2 6.6780 50.6172 -0.4904 0.0000 0.0000 0.0000
# 3 -3.4699 -0.4904 35.5174 0.0000 0.0000 0.0000
# 4 0.0000 0.0000 0.0000 21.3957 0.0000 0.0000
# 5 0.0000 0.0000 0.0000 0.0000 22.7258 0.0000
# 6 0.0000 0.0000 0.0000 0.0000 0.0000 8.0335
#
#
#
# Elastic Compliance Matrix: (Units=1/GPa)
#
#
# Indices 1 2 3 4 5 6 
#
# 1 0.008768 -0.001149 0.000841 0.000000 0.000000 0.000000
# 2 -0.001149 0.019909 0.000163 0.000000 0.000000 0.000000
# 3 0.000841 0.000163 0.028240 0.000000 0.000000 0.000000
# 4 0.000000 0.000000 0.000000 0.046738 0.000000 0.000000
# 5 0.000000 0.000000 0.000000 0.000000 0.044003 0.000000
# 6 0.000000 0.000000 0.000000 0.000000 0.000000 0.124479
#
#
# Mechanical properties :
#
#
# Convention : Reuss Voigt Hill
#
# Bulk Modulus (GPa) = 17.65963 22.98105 20.32034
# Shear Modulus (GPa) = 17.16427 23.67609 20.42018
#
# Velocity S-wave (km/s) = 2.86199 3.36132 3.12166
# Velocity P-wave (km/s) = 4.39872 5.10211 4.76341
#
# Compressibility (1/GPa) = 0.05662633
#
# Stress axis : x y z
#
# Youngs Moduli (GPa) = 114.05185 50.22791 35.41131
#
# Poissons Ratio (x) = 0.05769 -0.02977
# Poissons Ratio (y) = 0.13100 -0.00576
# Poissons Ratio (z) = -0.09589 -0.00817
#
# Static dielectric constant tensor:
#      x y z
#    x 1.733620 0.000000 0.000000 
#    y 0.000000 1.747690 0.000000 
#    z 0.000000 0.000000 1.782450 
# 
# From -- ./inp_files/61982.got.cif
#   From: 2010.05.17/outbox.cif.g08.bks.cpg/sg71_31_cif.got.tgz:61982.got - 2010.06.03 16:22:01.
