data_PCOD9521464
_publ_section_title
;
Structure prediction by ZEFSAII (Michael W. Deem and Ramdas Pophale) SiO2 
 PCOD9521464
Probable space group: I M M M
;
_chemical_formula_sum "Si O2"
_cell_formula_units_Z 88
_cell_length_a 11.794164
_cell_length_b 13.218015
_cell_length_c 23.643820
_cell_angle_alpha 90.000000
_cell_angle_beta 90.000000
_cell_angle_gamma 90.000000
_cell_volume 3685.963643
_symmetry_space_group_name_H-M "I M M M"
_symmetry_group_IT_number 71
_symmetry_cell_setting 'orthorhombic'
loop_
_space_group_symop_operation_xyz
x,y,z
-x,-y,z
x,-y,-z
-x,y,-z
-x,-y,-z
x,y,-z
-x,y,z
x,-y,z
1/2+x,1/2+y,1/2+z
1/2-x,1/2-y,1/2+z
1/2+x,1/2-y,1/2-z
1/2-x,1/2+y,1/2-z
1/2-x,1/2-y,1/2-z
1/2+x,1/2+y,1/2-z
1/2-x,1/2+y,1/2+z
1/2+x,1/2-y,1/2+z
loop_
_atom_site_type_symbol
_atom_site_label
_atom_site_fract_x
_atom_site_fract_y
_atom_site_fract_z
Si Si1 0.620530 0.159839 0.786871
Si Si2 0.000000 0.880728 0.434778
Si Si3 0.632619 0.885462 0.917419
Si Si4 0.245323 0.818635 0.563943
Si Si5 0.500000 0.202611 0.430836
Si Si6 0.000000 0.887314 0.846739
Si Si7 0.346760 0.387579 0.761890
O O1 0.500000 0.127733 0.764971
O O2 0.637108 0.118245 0.849494
O O3 0.620973 0.282145 0.790484
O O4 0.713728 0.120864 0.744632
O O5 0.875845 0.852940 0.409330
O O6 0.000000 0.840986 0.500000
O O7 0.000000 0.000000 0.436926
O O8 0.500000 0.860169 0.932176
O O9 0.722788 0.802525 0.937354
O O10 0.654644 0.000000 0.935884
O O11 0.242867 0.859751 0.500000
O O12 0.373720 0.842157 0.584585
O O13 0.500000 0.212556 0.500000
O O14 0.500000 0.306282 0.395595
O O15 0.896300 0.878225 0.802139
O O16 0.000000 0.000000 0.870438
O O17 0.378552 0.500000 0.782928
#
# Coordination Sequence:
#
# PCOD9521464 Si02
#       7
#    16   8  16  16   8   8  16
#     4  10  20  34  53  79 110 141 183 239 293 342
#     4   9  18  36  62  85 107 144 195 244 291 343
#     4  10  20  34  55  83 114 150 192 237 291 356
#     4  10  20  37  58  86 121 156 197 243 287 342
#     4  10  22  35  53  85 124 158 190 239 292 335
#     4  10  20  37  59  80 111 156 197 228 273 346
#     4  10  20  35  56  80 105 144 194 237 286 349
#
# _framework density 23.874354
#
# number of rings (size 3 to 8) (size 9 to 14) (size 15 to 20)
#    0.000    2.091    1.818    1.636    0.000    3.818 
#    0.000    4.091    0.000    2.727    0.000    1.273 
#    0.000    0.000    0.000    0.000    0.000    0.000 
#
# Total GULP energy -245320.995362 kJ/mol
# GULP energy per Si atom -5575.477167 kJ/mol
# Density = 2.382002 g / cm^3
# Si number density = 23.874354 Si / 1000 Ang^3
#
#
#
# Elastic Constant Matrix: (Units=GPa)
#
#
# Indices 1 2 3 4 5 6 
#
# 1 213.6853 17.2953 13.4271 0.0000 0.0000 0.0000
# 2 17.2953 113.2766 16.5249 0.0000 0.0000 0.0000
# 3 13.4271 16.5249 23.8771 0.0000 0.0000 0.0000
# 4 0.0000 0.0000 0.0000 17.1679 0.0000 0.0000
# 5 0.0000 0.0000 0.0000 0.0000 11.4876 0.0000
# 6 0.0000 0.0000 0.0000 0.0000 0.0000 -6.7925
#
#
#
# Elastic Compliance Matrix: (Units=1/GPa)
#
#
# Indices 1 2 3 4 5 6 
#
# 1 0.004866 -0.000382 -0.002472 0.000000 0.000000 0.000000
# 2 -0.000382 0.009849 -0.006602 0.000000 0.000000 0.000000
# 3 -0.002472 -0.006602 0.047840 0.000000 0.000000 0.000000
# 4 0.000000 0.000000 0.000000 0.058248 0.000000 0.000000
# 5 0.000000 0.000000 0.000000 0.000000 0.087050 0.000000
# 6 0.000000 0.000000 0.000000 0.000000 0.000000 -0.147221
#
#
# Mechanical properties :
#
#
# Convention : Reuss Voigt Hill
#
# Bulk Modulus (GPa) = 22.91263 49.48150 36.19706
# Shear Modulus (GPa) = 53.13912 24.61203 38.87557
#
# Velocity S-wave (km/s) = 4.72294 3.21424 4.03965
# Velocity P-wave (km/s) = 6.27372 5.87758 6.07888
#
# Compressibility (1/GPa) = 0.04364405
#
# Stress axis : x y z
#
# Youngs Moduli (GPa) = 205.50577 101.52932 20.90302
#
# Poissons Ratio (x) = 0.03882 0.05167
# Poissons Ratio (y) = 0.07858 0.13799
# Poissons Ratio (z) = 0.50796 0.67025
#
# Static dielectric constant tensor:
#      x y z
#    x 2.021230 0.000000 0.000000 
#    y 0.000000 1.919470 0.000000 
#    z 0.000000 0.000000 1.880940 
# 
# From -- ./inp_files/64471.got.cif
#   From: 2010.05.17/outbox.cif.g08.bks.cpg/sg71_33_cif.got.tgz:64471.got - 2010.06.03 16:22:01.
