data_PCOD9521369
_publ_section_title
;
Structure prediction by ZEFSAII (Michael W. Deem and Ramdas Pophale) SiO2 
 PCOD9521369
Probable space group: I M M M
;
_chemical_formula_sum "Si O2"
_cell_formula_units_Z 96
_cell_length_a 24.394897
_cell_length_b 8.452925
_cell_length_c 26.007070
_cell_angle_alpha 90.000000
_cell_angle_beta 90.000000
_cell_angle_gamma 90.000000
_cell_volume 5362.871995
_symmetry_space_group_name_H-M "I M M M"
_symmetry_group_IT_number 71
_symmetry_cell_setting 'orthorhombic'
loop_
_space_group_symop_operation_xyz
x,y,z
-x,-y,z
x,-y,-z
-x,y,-z
-x,-y,-z
x,y,-z
-x,y,z
x,-y,z
1/2+x,1/2+y,1/2+z
1/2-x,1/2-y,1/2+z
1/2+x,1/2-y,1/2-z
1/2-x,1/2+y,1/2-z
1/2-x,1/2-y,1/2-z
1/2+x,1/2+y,1/2-z
1/2-x,1/2+y,1/2+z
1/2+x,1/2-y,1/2+z
loop_
_atom_site_type_symbol
_atom_site_label
_atom_site_fract_x
_atom_site_fract_y
_atom_site_fract_z
Si Si1 0.188574 0.810854 0.558958
Si Si2 0.117510 0.690945 0.651126
Si Si3 0.000000 0.691538 0.691976
Si Si4 0.500000 0.691394 0.690695
Si Si5 0.809369 0.191080 0.941341
Si Si6 0.618092 0.691378 0.346935
Si Si7 0.188004 0.689872 0.750373
O O1 0.178266 0.758635 0.500000
O O2 0.143047 0.753351 0.598579
O O3 0.248447 0.745412 0.574179
O O4 0.190966 0.000000 0.559695
O O5 0.117941 0.500000 0.649488
O O6 0.055589 0.742878 0.663575
O O7 0.156027 0.740956 0.698790
O O8 0.000000 0.751473 0.750468
O O9 0.000000 0.500000 0.693766
O O10 0.500000 0.500000 0.690948
O O11 0.444130 0.745146 0.663096
O O12 0.854028 0.245767 0.900001
O O13 0.809735 0.000000 0.941653
O O14 0.819250 0.245776 0.000000
O O15 0.617876 0.500000 0.347456
O O16 0.655401 0.746542 0.299572
O O17 0.187855 0.500000 0.751823
O O18 0.250000 0.750000 0.750000
#
# Coordination Sequence:
#
# PCOD9521369 Si02
#       7
#    16  16   8   8  16  16  16
#     4  10  21  36  55  80 108 137 172 216 265 316
#     4  10  21  36  55  77 103 137 176 216 259 312
#     4  10  20  38  57  76 103 138 182 221 256 311
#     4  10  20  34  53  77 107 142 178 220 266 313
#     4   9  18  34  55  77 105 142 180 218 262 313
#     4  10  20  34  52  77 107 139 179 219 263 316
#     4  11  22  34  51  77 108 138 171 216 268 318
#
# _framework density 17.900856000000001
#
# number of rings (size 3 to 8) (size 9 to 14) (size 15 to 20)
#    0.000    2.000    1.667    2.000    0.000    7.667 
#    0.000    0.833    0.000    5.000    0.000    0.000 
#    0.000    4.667    0.000    0.000    0.000    0.000 
#
# Total GULP energy -267988.786087 kJ/mol
# GULP energy per Si atom -5583.099710 kJ/mol
# Density = 1.786011 g / cm^3
# Si number density = 17.900856 Si / 1000 Ang^3
#
#
#
# Elastic Constant Matrix: (Units=GPa)
#
#
# Indices 1 2 3 4 5 6 
#
# 1 195.2185 21.9953 102.7474 0.0000 0.0000 0.0000
# 2 21.9953 6.2625 16.7831 0.0000 0.0000 0.0000
# 3 102.7474 16.7831 121.2418 0.0000 0.0000 0.0000
# 4 0.0000 0.0000 0.0000 25.7965 0.0000 0.0000
# 5 0.0000 0.0000 0.0000 0.0000 24.9451 0.0000
# 6 0.0000 0.0000 0.0000 0.0000 0.0000 17.0418
#
#
#
# Elastic Compliance Matrix: (Units=1/GPa)
#
#
# Indices 1 2 3 4 5 6 
#
# 1 0.010775 -0.021259 -0.006188 0.000000 0.000000 0.000000
# 2 -0.021259 0.295798 -0.022930 0.000000 0.000000 0.000000
# 3 -0.006188 -0.022930 0.016667 0.000000 0.000000 0.000000
# 4 0.000000 0.000000 0.000000 0.038765 0.000000 0.000000
# 5 0.000000 0.000000 0.000000 0.000000 0.040088 0.000000
# 6 0.000000 0.000000 0.000000 0.000000 0.000000 0.058679
#
#
# Mechanical properties :
#
#
# Convention : Reuss Voigt Hill
#
# Bulk Modulus (GPa) = 4.49471 67.30826 35.90148
# Shear Modulus (GPa) = 7.86550 25.63647 16.75099
#
# Velocity S-wave (km/s) = 2.09844 3.78846 3.06235
# Velocity P-wave (km/s) = 2.89614 7.53783 5.70992
#
# Compressibility (1/GPa) = 0.22248397
#
# Stress axis : x y z
#
# Youngs Moduli (GPa) = 92.80943 3.38069 60.00043
#
# Poissons Ratio (x) = 0.07187 0.37131
# Poissons Ratio (y) = 1.97302 1.37583
# Poissons Ratio (z) = 0.57434 0.07752
#
# Static dielectric constant tensor:
#      x y z
#    x 1.597770 0.000000 0.000000 
#    y 0.000000 1.617800 0.000000 
#    z 0.000000 0.000000 1.600090 
# 
# From -- ./inp_files/12908.got.cif
#   From: 2010.05.17/outbox.cif.g08.bks.cpg/sg71_7_cif.got.tgz:12908.got - 2010.06.03 16:22:01.
