data_PCOD9521697
_publ_section_title
;
Structure prediction by ZEFSAII (Michael W. Deem and Ramdas Pophale) SiO2 
 PCOD9521697
Probable space group: I M M M
;
_chemical_formula_sum "Si O2"
_cell_formula_units_Z 104
_cell_length_a 23.003682
_cell_length_b 7.658906
_cell_length_c 26.631336
_cell_angle_alpha 90.000000
_cell_angle_beta 90.000000
_cell_angle_gamma 90.000000
_cell_volume 4691.989685
_symmetry_space_group_name_H-M "I M M M"
_symmetry_group_IT_number 71
_symmetry_cell_setting 'orthorhombic'
loop_
_space_group_symop_operation_xyz
x,y,z
-x,-y,z
x,-y,-z
-x,y,-z
-x,-y,-z
x,y,-z
-x,y,z
x,-y,z
1/2+x,1/2+y,1/2+z
1/2-x,1/2-y,1/2+z
1/2+x,1/2-y,1/2-z
1/2-x,1/2+y,1/2-z
1/2-x,1/2-y,1/2-z
1/2+x,1/2+y,1/2-z
1/2-x,1/2+y,1/2+z
1/2+x,1/2-y,1/2+z
loop_
_atom_site_type_symbol
_atom_site_label
_atom_site_fract_x
_atom_site_fract_y
_atom_site_fract_z
Si Si1 0.431644 0.699933 0.500000
Si Si2 0.065320 0.286985 0.556503
Si Si3 0.314527 0.789584 0.229353
Si Si4 0.066164 0.296265 0.216722
Si Si5 0.713846 0.205726 0.442499
Si Si6 0.896857 0.799016 0.106775
Si Si7 0.826697 0.711004 0.616066
O O1 0.407750 0.500000 0.500000
O O2 0.500000 0.687875 0.500000
O O3 0.415226 0.782069 0.446793
O O4 0.082181 0.235165 0.500000
O O5 0.064925 0.500000 0.557033
O O6 0.111117 0.227111 0.596904
O O7 0.000000 0.228392 0.566165
O O8 0.250000 0.750000 0.250000
O O9 0.374111 0.724752 0.257260
O O10 0.314712 0.726209 0.171985
O O11 0.319017 0.000000 0.230440
O O12 0.063148 0.500000 0.231092
O O13 0.079136 0.284879 0.157024
O O14 0.000000 0.224427 0.226226
O O15 0.704650 0.269598 0.500000
O O16 0.672541 0.292058 0.400528
O O17 0.778962 0.235197 0.424421
O O18 0.701952 0.000000 0.442209
O O19 0.916991 0.000000 0.107832
O O20 0.826675 0.500000 0.617470
#
# Coordination Sequence:
#
# PCOD9521697 Si02
#       7
#     8  16  16  16  16  16  16
#     4   9  18  32  51  77 107 135 168 217 270 315
#     4   8  14  26  47  78 112 139 166 212 273 330
#     4  10  22  39  58  82 111 148 193 240 290 338
#     4  10  22  40  60  84 119 159 195 236 291 352
#     4  11  23  37  54  80 117 154 188 229 285 350
#     4  11  21  36  58  83 112 146 188 234 280 330
#     4  10  20  34  56  83 108 141 190 239 282 334
#
# _framework density 22.165436
#
# number of rings (size 3 to 8) (size 9 to 14) (size 15 to 20)
#    0.000    2.077    0.769    3.231    0.000    6.769 
#    0.000    3.077    0.000    2.308    0.000    4.308 
#    0.000    0.000    0.000    0.000    0.000    0.000 
#
# Total GULP energy -290096.247316 kJ/mol
# GULP energy per Si atom -5578.773987 kJ/mol
# Density = 2.211499 g / cm^3
# Si number density = 22.165436 Si / 1000 Ang^3
#
#
#
# Elastic Constant Matrix: (Units=GPa)
#
#
# Indices 1 2 3 4 5 6 
#
# 1 153.3551 9.0977 80.3269 0.0000 0.0000 0.0000
# 2 9.0977 48.7336 10.3931 0.0000 0.0000 0.0000
# 3 80.3269 10.3931 77.7994 0.0000 0.0000 0.0000
# 4 0.0000 0.0000 0.0000 -7.0946 0.0000 0.0000
# 5 0.0000 0.0000 0.0000 0.0000 32.9195 0.0000
# 6 0.0000 0.0000 0.0000 0.0000 0.0000 15.4289
#
#
#
# Elastic Compliance Matrix: (Units=1/GPa)
#
#
# Indices 1 2 3 4 5 6 
#
# 1 0.014212 0.000490 -0.014739 0.000000 0.000000 0.000000
# 2 0.000490 0.021138 -0.003330 0.000000 0.000000 0.000000
# 3 -0.014739 -0.003330 0.028517 0.000000 0.000000 0.000000
# 4 0.000000 0.000000 0.000000 -0.140953 0.000000 0.000000
# 5 0.000000 0.000000 0.000000 0.000000 0.030377 0.000000
# 6 0.000000 0.000000 0.000000 0.000000 0.000000 0.064814
#
#
# Mechanical properties :
#
#
# Convention : Reuss Voigt Hill
#
# Bulk Modulus (GPa) = 34.83241 53.28040 44.05640
# Shear Modulus (GPa) = 79.57634 20.25546 49.91590
#
# Velocity S-wave (km/s) = 5.99825 3.02624 4.75064
# Velocity P-wave (km/s) = 7.98254 6.02500 7.07183
#
# Compressibility (1/GPa) = 0.02870890
#
# Stress axis : x y z
#
# Youngs Moduli (GPa) = 70.36216 47.30730 35.06719
#
# Poissons Ratio (x) = -0.02319 0.51687
# Poissons Ratio (y) = -0.03449 0.11677
# Poissons Ratio (z) = 1.03710 0.15753
#
# Static dielectric constant tensor:
#      x y z
#    x 1.859400 0.000000 0.000000 
#    y 0.000000 1.859900 0.000000 
#    z 0.000000 0.000000 1.940730 
# 
# From -- ./inp_files/66455.got.cif
#   From: 2010.05.17/outbox.cif.g08.bks.cpg/sg71_34_cif.got.tgz:66455.got - 2010.06.03 16:22:01.
