data_PCOD9521208
_publ_section_title
;
Structure prediction by ZEFSAII (Michael W. Deem and Ramdas Pophale) SiO2 
 PCOD9521208
Probable space group: I M M M
;
_chemical_formula_sum "Si O2"
_cell_formula_units_Z 88
_cell_length_a 23.212400
_cell_length_b 23.395052
_cell_length_c 8.025611
_cell_angle_alpha 90.000000
_cell_angle_beta 90.000000
_cell_angle_gamma 90.000000
_cell_volume 4358.350630
_symmetry_space_group_name_H-M "I M M M"
_symmetry_group_IT_number 71
_symmetry_cell_setting 'orthorhombic'
loop_
_space_group_symop_operation_xyz
x,y,z
-x,-y,z
x,-y,-z
-x,y,-z
-x,-y,-z
x,y,-z
-x,y,z
x,-y,z
1/2+x,1/2+y,1/2+z
1/2-x,1/2-y,1/2+z
1/2+x,1/2-y,1/2-z
1/2-x,1/2+y,1/2-z
1/2-x,1/2-y,1/2-z
1/2+x,1/2+y,1/2-z
1/2-x,1/2+y,1/2+z
1/2+x,1/2-y,1/2+z
loop_
_atom_site_type_symbol
_atom_site_label
_atom_site_fract_x
_atom_site_fract_y
_atom_site_fract_z
Si Si1 0.686065 0.769400 0.309721
Si Si2 0.739139 0.063269 0.202016
Si Si3 0.000000 0.567620 0.704124
Si Si4 0.435836 0.564615 0.796800
Si Si5 0.122649 0.383608 0.301728
Si Si6 0.162490 0.851064 0.698716
O O1 0.692316 0.786539 0.500000
O O2 0.750000 0.750000 0.250000
O O3 0.649724 0.820384 0.226549
O O4 0.654453 0.709263 0.286397
O O5 0.673541 0.074249 0.257825
O O6 0.778341 0.115284 0.264547
O O7 0.759141 0.000000 0.256260
O O8 0.740720 0.064768 0.000000
O O9 0.058949 0.599533 0.761812
O O10 0.000000 0.500000 0.750102
O O11 0.000000 0.569057 0.500000
O O12 0.500000 0.581651 0.746265
O O13 0.425201 0.500000 0.740987
O O14 0.386963 0.606682 0.740458
O O15 0.434609 0.564090 0.000000
O O16 0.119067 0.391152 0.500000
O O17 0.158699 0.842060 0.500000
#
# Coordination Sequence:
#
# PCOD9521208 Si02
#       6
#    16  16   8  16  16  16
#     4  12  24  40  60  82 113 151 192 241 295 354
#     4  10  20  33  53  83 118 152 187 232 289 347
#     4   9  18  36  65  97 125 157 202 251 296 353
#     4   8  15  30  52  79 111 144 180 226 275 324
#     4  10  20  37  61  88 119 156 198 242 291 348
#     4  11  21  34  56  84 113 147 191 239 287 347
#
# _framework density 20.191125
#
# number of rings (size 3 to 8) (size 9 to 14) (size 15 to 20)
#    0.000    1.909    1.818    3.818    0.000    3.273 
#    1.636    0.455    0.000    3.818    0.000    6.364 
#    0.000    0.000    0.000    0.000    0.000    0.000 
#
# Total GULP energy -245403.128868 kJ/mol
# GULP energy per Si atom -5577.343838 kJ/mol
# Density = 2.014517 g / cm^3
# Si number density = 20.191125 Si / 1000 Ang^3
#
#
#
# Elastic Constant Matrix: (Units=GPa)
#
#
# Indices 1 2 3 4 5 6 
#
# 1 112.6955 61.5640 -7.1737 0.0000 0.0000 0.0000
# 2 61.5640 97.4907 -7.2230 0.0000 0.0000 0.0000
# 3 -7.1737 -7.2230 12.8524 0.0000 0.0000 0.0000
# 4 0.0000 0.0000 0.0000 21.6866 0.0000 0.0000
# 5 0.0000 0.0000 0.0000 0.0000 15.9424 0.0000
# 6 0.0000 0.0000 0.0000 0.0000 0.0000 12.1583
#
#
#
# Elastic Compliance Matrix: (Units=1/GPa)
#
#
# Indices 1 2 3 4 5 6 
#
# 1 0.013649 -0.008405 0.002895 0.000000 0.000000 0.000000
# 2 -0.008405 0.015878 0.004232 0.000000 0.000000 0.000000
# 3 0.002895 0.004232 0.081801 0.000000 0.000000 0.000000
# 4 0.000000 0.000000 0.000000 0.046111 0.000000 0.000000
# 5 0.000000 0.000000 0.000000 0.000000 0.062726 0.000000
# 6 0.000000 0.000000 0.000000 0.000000 0.000000 0.082248
#
#
# Mechanical properties :
#
#
# Convention : Reuss Voigt Hill
#
# Bulk Modulus (GPa) = 9.19341 35.26370 22.22856
# Shear Modulus (GPa) = 14.65303 21.68223 18.16763
#
# Velocity S-wave (km/s) = 2.69683 3.28052 3.00289
# Velocity P-wave (km/s) = 3.77628 5.64375 4.80168
#
# Compressibility (1/GPa) = 0.10877357
#
# Stress axis : x y z
#
# Youngs Moduli (GPa) = 73.26465 62.97842 12.22483
#
# Poissons Ratio (x) = 0.52932 -0.03539
# Poissons Ratio (y) = 0.61577 -0.05174
# Poissons Ratio (z) = -0.21209 -0.26655
#
# Static dielectric constant tensor:
#      x y z
#    x 1.762350 0.000000 0.000000 
#    y 0.000000 1.764040 0.000000 
#    z 0.000000 0.000000 1.741560 
# 
# From -- ./inp_files/12576.got.cif
#   From: 2010.05.17/outbox.cif.g08.bks.cpg/sg71_7_cif.got.tgz:12576.got - 2010.06.03 16:22:01.
