data_PCOD9521567
_publ_section_title
;
Structure prediction by ZEFSAII (Michael W. Deem and Ramdas Pophale) SiO2 
 PCOD9521567
Probable space group: I M M M
;
_chemical_formula_sum "Si O2"
_cell_formula_units_Z 88
_cell_length_a 20.538935
_cell_length_b 7.831619
_cell_length_c 25.080248
_cell_angle_alpha 90.000000
_cell_angle_beta 90.000000
_cell_angle_gamma 90.000000
_cell_volume 4034.235980
_symmetry_space_group_name_H-M "I M M M"
_symmetry_group_IT_number 71
_symmetry_cell_setting 'orthorhombic'
loop_
_space_group_symop_operation_xyz
x,y,z
-x,-y,z
x,-y,-z
-x,y,-z
-x,-y,-z
x,y,-z
-x,y,z
x,-y,z
1/2+x,1/2+y,1/2+z
1/2-x,1/2-y,1/2+z
1/2+x,1/2-y,1/2-z
1/2-x,1/2+y,1/2-z
1/2-x,1/2-y,1/2-z
1/2+x,1/2+y,1/2-z
1/2-x,1/2+y,1/2+z
1/2+x,1/2-y,1/2+z
loop_
_atom_site_type_symbol
_atom_site_label
_atom_site_fract_x
_atom_site_fract_y
_atom_site_fract_z
Si Si1 0.000000 0.209763 0.437664
Si Si2 0.825782 0.206423 0.744978
Si Si3 0.890971 0.700073 0.058787
Si Si4 0.377789 0.699150 0.867274
Si Si5 0.759087 0.703052 0.560997
Si Si6 0.569586 0.298813 0.326598
O O1 0.936438 0.267773 0.404103
O O2 0.000000 0.264495 0.500000
O O3 0.000000 0.000000 0.439287
O O4 0.750000 0.250000 0.750000
O O5 0.861117 0.271550 0.691114
O O6 0.868027 0.269807 0.795198
O O7 0.827314 0.000000 0.743197
O O8 0.906695 0.500000 0.059046
O O9 0.813283 0.723180 0.065465
O O10 0.923051 0.780798 0.110222
O O11 0.908010 0.770013 0.000000
O O12 0.393968 0.500000 0.859199
O O13 0.311039 0.715936 0.899972
O O14 0.780829 0.730114 0.500000
O O15 0.755264 0.500000 0.570959
O O16 0.500000 0.223753 0.309687
O O17 0.567839 0.500000 0.314531
#
# Coordination Sequence:
#
# PCOD9521567 Si02
#       6
#     8  16  16  16  16  16
#     4   9  18  32  53  83 115 147 188 237 286 344
#     4  10  22  38  58  84 113 149 192 240 288 339
#     4  10  21  37  58  84 113 145 185 234 285 337
#     4  10  20  34  56  82 111 149 192 238 288 343
#     4  10  20  34  54  81 113 148 187 234 287 341
#     4  10  22  39  59  83 115 153 190 230 281 342
#
# _framework density 21.813299000000001
#
# number of rings (size 3 to 8) (size 9 to 14) (size 15 to 20)
#    0.000    2.091    0.000    2.727    1.273    8.000 
#    0.000    2.273    0.000    1.636    0.000    0.000 
#    0.000    0.000    0.000    0.000    0.000    0.000 
#
# Total GULP energy -245681.856927 kJ/mol
# GULP energy per Si atom -5583.678567 kJ/mol
# Density = 2.176365 g / cm^3
# Si number density = 21.813299 Si / 1000 Ang^3
#
#
#
# Elastic Constant Matrix: (Units=GPa)
#
#
# Indices 1 2 3 4 5 6 
#
# 1 131.0087 0.4730 85.4005 0.0000 0.0000 0.0000
# 2 0.4730 21.1320 15.0810 0.0000 0.0000 0.0000
# 3 85.4005 15.0810 132.8023 0.0000 0.0000 0.0000
# 4 0.0000 0.0000 0.0000 14.8474 0.0000 0.0000
# 5 0.0000 0.0000 0.0000 0.0000 130.7477 0.0000
# 6 0.0000 0.0000 0.0000 0.0000 0.0000 13.9021
#
#
#
# Elastic Compliance Matrix: (Units=1/GPa)
#
#
# Indices 1 2 3 4 5 6 
#
# 1 0.013945 0.006625 -0.009720 0.000000 0.000000 0.000000
# 2 0.006625 0.054642 -0.010465 0.000000 0.000000 0.000000
# 3 -0.009720 -0.010465 0.014969 0.000000 0.000000 0.000000
# 4 0.000000 0.000000 0.000000 0.067352 0.000000 0.000000
# 5 0.000000 0.000000 0.000000 0.000000 0.007648 0.000000
# 6 0.000000 0.000000 0.000000 0.000000 0.000000 0.071932
#
#
# Mechanical properties :
#
#
# Convention : Reuss Voigt Hill
#
# Bulk Modulus (GPa) = 17.71945 54.09468 35.90706
# Shear Modulus (GPa) = 18.08832 44.16533 31.12683
#
# Velocity S-wave (km/s) = 2.88277 4.50455 3.78162
# Velocity P-wave (km/s) = 4.38421 7.20468 5.96358
#
# Compressibility (1/GPa) = 0.05643517
#
# Stress axis : x y z
#
# Youngs Moduli (GPa) = 71.70824 18.30094 66.80431
#
# Poissons Ratio (x) = -0.12124 0.64935
# Poissons Ratio (y) = -0.47505 0.69913
# Poissons Ratio (z) = 0.69701 0.19152
#
# Static dielectric constant tensor:
#      x y z
#    x 1.783610 0.000000 0.000000 
#    y 0.000000 1.814910 0.000000 
#    z 0.000000 0.000000 1.808350 
# 
# From -- ./inp_files/10392.got.cif
#   From: 2010.05.17/outbox.cif.g08.bks.cpg/sg71_6_cif.got.tgz:10392.got - 2010.06.03 16:22:01.
