data_PCOD9521908
_publ_section_title
;
Structure prediction by ZEFSAII (Michael W. Deem and Ramdas Pophale) SiO2 
 PCOD9521908
Probable space group: I M M M
;
_chemical_formula_sum "Si O2"
_cell_formula_units_Z 88
_cell_length_a 9.333693
_cell_length_b 20.993149
_cell_length_c 24.202255
_cell_angle_alpha 90.000000
_cell_angle_beta 90.000000
_cell_angle_gamma 90.000000
_cell_volume 4742.277163
_symmetry_space_group_name_H-M "I M M M"
_symmetry_group_IT_number 71
_symmetry_cell_setting 'orthorhombic'
loop_
_space_group_symop_operation_xyz
x,y,z
-x,-y,z
x,-y,-z
-x,y,-z
-x,-y,-z
x,y,-z
-x,y,z
x,-y,z
1/2+x,1/2+y,1/2+z
1/2-x,1/2-y,1/2+z
1/2+x,1/2-y,1/2-z
1/2-x,1/2+y,1/2-z
1/2-x,1/2-y,1/2-z
1/2+x,1/2+y,1/2-z
1/2-x,1/2+y,1/2+z
1/2+x,1/2-y,1/2+z
loop_
_atom_site_type_symbol
_atom_site_label
_atom_site_fract_x
_atom_site_fract_y
_atom_site_fract_z
Si Si1 0.172335 0.428006 0.683263
Si Si2 0.835538 0.195259 0.781970
Si Si3 0.164021 0.000000 0.567589
Si Si4 0.672061 0.889076 0.940310
Si Si5 0.164159 0.376416 0.066632
Si Si6 0.164567 0.235105 0.909880
O O1 0.204848 0.500000 0.701514
O O2 0.254036 0.372557 0.716175
O O3 0.212379 0.422054 0.617739
O O4 0.000000 0.418302 0.687144
O O5 0.750000 0.250000 0.750000
O O6 0.839246 0.218003 0.845514
O O7 0.000000 0.189284 0.762384
O O8 0.244132 0.063835 0.586215
O O9 0.167179 0.000000 0.500000
O O10 0.000000 0.000000 0.584859
O O11 0.500000 0.885598 0.939574
O O12 0.739706 0.818802 0.937586
O O13 0.713703 0.918170 0.000000
O O14 0.219683 0.306746 0.082509
O O15 0.000000 0.382010 0.086447
O O16 0.161414 0.378798 0.000000
O O17 0.000000 0.233412 0.931017
#
# Coordination Sequence:
#
# PCOD9521908 Si02
#       6
#    16  16   8  16  16  16
#     4   9  18  33  53  77 106 140 176 212 252 301
#     4  10  20  35  56  78 100 127 165 212 261 312
#     4   9  17  27  39  59  87 119 153 187 227 275
#     4   9  17  28  44  71 106 140 172 205 243 287
#     4   9  16  27  44  64  88 120 156 191 229 279
#     4   9  18  31  48  70  94 124 163 204 246 294
#
# _framework density 18.556486
#
# number of rings (size 3 to 8) (size 9 to 14) (size 15 to 20)
#    0.000    2.818    0.000    1.364    0.000    4.364 
#    0.000    3.636    2.000    0.000    0.000    5.091 
#    0.000    0.000    0.000    0.000    0.000    0.000 
#
# Total GULP energy -245161.164495 kJ/mol
# GULP energy per Si atom -5571.844648 kJ/mol
# Density = 1.851425 g / cm^3
# Si number density = 18.556486 Si / 1000 Ang^3
#
#
#
# Elastic Constant Matrix: (Units=GPa)
#
#
# Indices 1 2 3 4 5 6 
#
# 1 58.4693 58.9285 18.3612 0.0000 0.0000 0.0000
# 2 58.9285 156.6020 15.9125 0.0000 0.0000 0.0000
# 3 18.3612 15.9125 29.7231 0.0000 0.0000 0.0000
# 4 0.0000 0.0000 0.0000 2.4494 0.0000 0.0000
# 5 0.0000 0.0000 0.0000 0.0000 15.1952 0.0000
# 6 0.0000 0.0000 0.0000 0.0000 0.0000 26.8654
#
#
#
# Elastic Compliance Matrix: (Units=1/GPa)
#
#
# Indices 1 2 3 4 5 6 
#
# 1 0.032417 -0.010748 -0.014271 0.000000 0.000000 0.000000
# 2 -0.010748 0.010317 0.001117 0.000000 0.000000 0.000000
# 3 -0.014271 0.001117 0.041862 0.000000 0.000000 0.000000
# 4 0.000000 0.000000 0.000000 0.408261 0.000000 0.000000
# 5 0.000000 0.000000 0.000000 0.000000 0.065810 0.000000
# 6 0.000000 0.000000 0.000000 0.000000 0.000000 0.037223
#
#
# Mechanical properties :
#
#
# Convention : Reuss Voigt Hill
#
# Bulk Modulus (GPa) = 27.18132 47.91098 37.54615
# Shear Modulus (GPa) = 7.62242 19.00814 13.31528
#
# Velocity S-wave (km/s) = 2.02894 3.20400 2.68163
# Velocity P-wave (km/s) = 4.49093 6.28988 5.46494
#
# Compressibility (1/GPa) = 0.03678997
#
# Stress axis : x y z
#
# Youngs Moduli (GPa) = 30.84755 96.93004 23.88790
#
# Poissons Ratio (x) = 1.04184 0.34091
# Poissons Ratio (y) = 0.33156 -0.02667
# Poissons Ratio (z) = 0.44024 -0.10823
#
# Static dielectric constant tensor:
#      x y z
#    x 1.636250 0.000000 0.000000 
#    y 0.000000 1.628110 0.000000 
#    z 0.000000 0.000000 1.660840 
# 
# From -- ./inp_files/50791.got.cif
#   From: 2010.05.17/outbox.cif.g08.bks.cpg/sg71_26_cif.got.tgz:50791.got - 2010.06.03 16:22:01.
