data_PCOD9521360
_publ_section_title
;
Structure prediction by ZEFSAII (Michael W. Deem and Ramdas Pophale) SiO2 
 PCOD9521360
Probable space group: I M M M
;
_chemical_formula_sum "Si O2"
_cell_formula_units_Z 116
_cell_length_a 7.943167
_cell_length_b 28.572885
_cell_length_c 26.043846
_cell_angle_alpha 90.000000
_cell_angle_beta 90.000000
_cell_angle_gamma 90.000000
_cell_volume 5910.890381
_symmetry_space_group_name_H-M "I M M M"
_symmetry_group_IT_number 71
_symmetry_cell_setting 'orthorhombic'
loop_
_space_group_symop_operation_xyz
x,y,z
-x,-y,z
x,-y,-z
-x,y,-z
-x,-y,-z
x,y,-z
-x,y,z
x,-y,z
1/2+x,1/2+y,1/2+z
1/2-x,1/2-y,1/2+z
1/2+x,1/2-y,1/2-z
1/2-x,1/2+y,1/2-z
1/2-x,1/2-y,1/2-z
1/2+x,1/2+y,1/2-z
1/2-x,1/2+y,1/2+z
1/2+x,1/2-y,1/2+z
loop_
_atom_site_type_symbol
_atom_site_label
_atom_site_fract_x
_atom_site_fract_y
_atom_site_fract_z
Si Si1 0.699118 0.449481 0.333054
Si Si2 0.202679 0.581802 0.443159
Si Si3 0.701219 0.142650 0.227976
Si Si4 0.500000 0.216631 0.500000
Si Si5 0.201714 0.809474 0.057153
Si Si6 0.686707 0.322795 0.945767
Si Si7 0.804621 0.337541 0.161848
Si Si8 0.302533 0.768109 0.835377
O O1 0.500000 0.448860 0.324750
O O2 0.767099 0.500000 0.315207
O O3 0.732752 0.445240 0.393809
O O4 0.768771 0.403691 0.305018
O O5 0.252403 0.564333 0.500000
O O6 0.268016 0.634952 0.438283
O O7 0.000000 0.582659 0.441127
O O8 0.500000 0.149124 0.231329
O O9 0.765417 0.139456 0.286238
O O10 0.766065 0.189549 0.199723
O O11 0.650823 0.209769 0.455895
O O12 0.283746 0.785983 0.106273
O O13 0.000000 0.801070 0.055884
O O14 0.266387 0.796757 0.000000
O O15 0.500000 0.300613 0.943197
O O16 0.714119 0.347939 0.891909
O O17 0.688415 0.351111 0.000000
O O18 0.787540 0.281486 0.170476
O O19 0.000000 0.349957 0.155938
O O20 0.500000 0.760687 0.824285
#
# Coordination Sequence:
#
# PCOD9521360 Si02
#       8
#    16  16  16   4  16  16  16  16
#     4  11  24  40  60  84 110 142 181 230 289 349
#     4  10  20  35  57  81 107 138 179 231 287 346
#     4  10  23  40  58  79 107 143 185 231 279 335
#     4   8  14  32  52  74 112 144 179 234 263 324
#     4  10  20  34  52  76 105 144 186 230 283 336
#     4   9  17  31  52  78 108 145 184 226 274 320
#     4  11  21  36  55  79 111 149 189 231 280 334
#     4  11  22  35  52  78 107 142 190 232 277 334
#
# _framework density 19.624791999999999
#
# number of rings (size 3 to 8) (size 9 to 14) (size 15 to 20)
#    0.414    1.379    2.069    2.483    0.000    5.241 
#    0.000    1.379    0.000    0.000    0.000    0.000 
#    0.000    0.552    0.000    7.241    0.000    6.897 
#
# Total GULP energy -323190.580408 kJ/mol
# GULP energy per Si atom -5572.251386 kJ/mol
# Density = 1.958012 g / cm^3
# Si number density = 19.624792 Si / 1000 Ang^3
#
#
#
# Elastic Constant Matrix: (Units=GPa)
#
#
# Indices 1 2 3 4 5 6 
#
# 1 65.2676 -12.2303 7.2212 0.0000 0.0000 0.0000
# 2 -12.2303 30.9530 22.4129 0.0000 0.0000 0.0000
# 3 7.2212 22.4129 142.7010 0.0000 0.0000 0.0000
# 4 0.0000 0.0000 0.0000 8.3721 0.0000 0.0000
# 5 0.0000 0.0000 0.0000 0.0000 24.7432 0.0000
# 6 0.0000 0.0000 0.0000 0.0000 0.0000 9.9806
#
#
#
# Elastic Compliance Matrix: (Units=1/GPa)
#
#
# Indices 1 2 3 4 5 6 
#
# 1 0.017126 0.008343 -0.002177 0.000000 0.000000 0.000000
# 2 0.008343 0.040517 -0.006786 0.000000 0.000000 0.000000
# 3 -0.002177 -0.006786 0.008184 0.000000 0.000000 0.000000
# 4 0.000000 0.000000 0.000000 0.119444 0.000000 0.000000
# 5 0.000000 0.000000 0.000000 0.000000 0.040415 0.000000
# 6 0.000000 0.000000 0.000000 0.000000 0.000000 0.100194
#
#
# Mechanical properties :
#
#
# Convention : Reuss Voigt Hill
#
# Bulk Modulus (GPa) = 15.48291 30.41437 22.94864
# Shear Modulus (GPa) = 14.34105 23.38704 18.86405
#
# Velocity S-wave (km/s) = 2.70619 3.45586 3.10374
# Velocity P-wave (km/s) = 4.20372 5.60852 4.95615
#
# Compressibility (1/GPa) = 0.06458734
#
# Stress axis : x y z
#
# Youngs Moduli (GPa) = 58.39140 24.68076 122.19504
#
# Poissons Ratio (x) = -0.20592 0.26602
# Poissons Ratio (y) = -0.48717 0.82921
# Poissons Ratio (z) = 0.12712 0.16748
#
# Static dielectric constant tensor:
#      x y z
#    x 1.710250 0.000000 0.000000 
#    y 0.000000 1.711910 0.000000 
#    z 0.000000 0.000000 1.700320 
# 
# From -- ./inp_files/58261.got.cif
#   From: 2010.05.17/outbox.cif.g08.bks.cpg/sg71_30_cif.got.tgz:58261.got - 2010.06.03 16:22:01.
