data_PCOD9521760
_publ_section_title
;
Structure prediction by ZEFSAII (Michael W. Deem and Ramdas Pophale) SiO2 
 PCOD9521760
Probable space group: I M M M
;
_chemical_formula_sum "Si O2"
_cell_formula_units_Z 78
_cell_length_a 7.710681
_cell_length_b 19.692226
_cell_length_c 26.964612
_cell_angle_alpha 90.000000
_cell_angle_beta 90.000000
_cell_angle_gamma 90.000000
_cell_volume 4094.319437
_symmetry_space_group_name_H-M "I M M M"
_symmetry_group_IT_number 71
_symmetry_cell_setting 'orthorhombic'
loop_
_space_group_symop_operation_xyz
x,y,z
-x,-y,z
x,-y,-z
-x,y,-z
-x,-y,-z
x,y,-z
-x,y,z
x,-y,z
1/2+x,1/2+y,1/2+z
1/2-x,1/2-y,1/2+z
1/2+x,1/2-y,1/2-z
1/2-x,1/2+y,1/2-z
1/2-x,1/2-y,1/2-z
1/2+x,1/2+y,1/2-z
1/2-x,1/2+y,1/2+z
1/2+x,1/2-y,1/2+z
loop_
_atom_site_type_symbol
_atom_site_label
_atom_site_fract_x
_atom_site_fract_y
_atom_site_fract_z
Si Si1 0.209019 0.619305 0.554898
Si Si2 0.000000 0.103088 0.695032
Si Si3 0.801873 0.291542 0.201908
Si Si4 0.300810 0.768079 0.409383
Si Si5 0.000000 0.000000 0.500000
Si Si6 0.500000 0.500000 0.715157
Si Si7 0.288552 0.000000 0.131001
Si Si8 0.000000 0.880225 0.582616
O O1 0.267487 0.597064 0.500000
O O2 0.267065 0.696704 0.563907
O O3 0.257921 0.566205 0.597758
O O4 0.000000 0.619656 0.554845
O O5 0.827030 0.146691 0.698690
O O6 0.000000 0.083534 0.636865
O O7 0.000000 0.060092 0.744913
O O8 0.750000 0.250000 0.250000
O O9 0.781352 0.252932 0.149601
O O10 0.000000 0.313070 0.205944
O O11 0.500000 0.789799 0.418251
O O12 0.165094 0.828250 0.421568
O O13 0.000000 0.939319 0.457337
O O14 0.669694 0.500000 0.679955
O O15 0.500000 0.000000 0.139693
#
# Coordination Sequence:
#
# PCOD9521760 Si02
#       8
#    16   8  16  16   2   4   8   8
#     4  10  21  39  63  88 126 177 216 271 318 378
#     4  10  23  42  61  87 129 169 205 257 316 373
#     4  10  20  34  59  91 123 160 207 261 316 377
#     4  10  22  38  62  94 132 163 211 262 318 379
#     4  12  26  44  86  92 132 162 216 256 312 408
#     4  12  27  42  63  89 128 173 222 258 300 416
#     4  10  25  43  59  90 129 173 223 273 321 365
#     4  10  23  47  66 101 126 166 203 265 322 380
#
# _framework density 19.050785999999999
#
# number of rings (size 3 to 8) (size 9 to 14) (size 15 to 20)
#    0.000    1.846    2.051    0.615    5.744    2.462 
#    0.000    1.538    0.000    4.923    0.000    0.000 
#    0.000    0.000    0.000    0.000    0.000    0.000 
#
# Total GULP energy -217159.282485 kJ/mol
# GULP energy per Si atom -5568.186730 kJ/mol
# Density = 1.900743 g / cm^3
# Si number density = 19.050786 Si / 1000 Ang^3
#
#
#
# Elastic Constant Matrix: (Units=GPa)
#
#
# Indices 1 2 3 4 5 6 
#
# 1 95.0084 39.3848 58.7986 0.0000 0.0000 0.0000
# 2 39.3848 96.5136 74.3777 0.0000 0.0000 0.0000
# 3 58.7986 74.3777 167.1338 0.0000 0.0000 0.0000
# 4 0.0000 0.0000 0.0000 53.8260 0.0000 0.0000
# 5 0.0000 0.0000 0.0000 0.0000 -3.9494 0.0000
# 6 0.0000 0.0000 0.0000 0.0000 0.0000 24.9234
#
#
#
# Elastic Compliance Matrix: (Units=1/GPa)
#
#
# Indices 1 2 3 4 5 6 
#
# 1 0.013973 -0.002913 -0.003620 0.000000 0.000000 0.000000
# 2 -0.002913 0.016376 -0.006263 0.000000 0.000000 0.000000
# 3 -0.003620 -0.006263 0.010044 0.000000 0.000000 0.000000
# 4 0.000000 0.000000 0.000000 0.018578 0.000000 0.000000
# 5 0.000000 0.000000 0.000000 0.000000 -0.253204 0.000000
# 6 0.000000 0.000000 0.000000 0.000000 0.000000 0.040123
#
#
# Mechanical properties :
#
#
# Convention : Reuss Voigt Hill
#
# Bulk Modulus (GPa) = 67.55608 78.19756 72.87682
# Shear Modulus (GPa) = -40.45794 27.36631 -6.54582
#
# Velocity S-wave (km/s) = -4.61335 3.79422 -1.85565
# Velocity P-wave (km/s) = 2.67595 7.76729 5.80911
#
# Compressibility (1/GPa) = 0.01480252
#
# Stress axis : x y z
#
# Youngs Moduli (GPa) = 71.56738 61.06327 99.56337
#
# Poissons Ratio (x) = 0.17785 0.36038
# Poissons Ratio (y) = 0.20844 0.62358
# Poissons Ratio (z) = 0.25904 0.38245
#
# Static dielectric constant tensor:
#      x y z
#    x 1.660510 0.000000 0.000000 
#    y 0.000000 1.615480 0.000000 
#    z 0.000000 0.000000 1.690620 
# 
# From -- ./inp_files/63113.got.cif
#   From: 2010.05.17/outbox.cif.g08.bks.cpg/sg71_32_cif.got.tgz:63113.got - 2010.06.03 16:22:01.
