data_PCOD9521509
_publ_section_title
;
Structure prediction by ZEFSAII (Michael W. Deem and Ramdas Pophale) SiO2 
 PCOD9521509
Probable space group: I M M M
;
_chemical_formula_sum "Si O2"
_cell_formula_units_Z 112
_cell_length_a 24.096776
_cell_length_b 14.796957
_cell_length_c 14.921842
_cell_angle_alpha 90.000000
_cell_angle_beta 90.000000
_cell_angle_gamma 90.000000
_cell_volume 5320.516440
_symmetry_space_group_name_H-M "I M M M"
_symmetry_group_IT_number 71
_symmetry_cell_setting 'orthorhombic'
loop_
_space_group_symop_operation_xyz
x,y,z
-x,-y,z
x,-y,-z
-x,y,-z
-x,-y,-z
x,y,-z
-x,y,z
x,-y,z
1/2+x,1/2+y,1/2+z
1/2-x,1/2-y,1/2+z
1/2+x,1/2-y,1/2-z
1/2-x,1/2+y,1/2-z
1/2-x,1/2-y,1/2-z
1/2+x,1/2+y,1/2-z
1/2-x,1/2+y,1/2+z
1/2+x,1/2-y,1/2+z
loop_
_atom_site_type_symbol
_atom_site_label
_atom_site_fract_x
_atom_site_fract_y
_atom_site_fract_z
Si Si1 0.772165 0.610733 0.230336
Si Si2 0.146573 0.895095 0.741067
Si Si3 0.939283 0.889324 0.396937
Si Si4 0.130649 0.653586 0.102710
Si Si5 0.153026 0.389619 0.600830
Si Si6 0.939585 0.395312 0.728717
Si Si7 0.933597 0.845002 0.101158
O O1 0.775281 0.500000 0.218856
O O2 0.708666 0.642470 0.240669
O O3 0.808420 0.653384 0.149207
O O4 0.800832 0.632013 0.325316
O O5 0.109896 0.853097 0.662865
O O6 0.106284 0.892787 0.827254
O O7 0.155513 0.000000 0.720320
O O8 0.934034 0.863596 0.500000
O O9 0.000000 0.862362 0.362871
O O10 0.938177 0.000000 0.393970
O O11 0.094387 0.604149 0.178637
O O12 0.096691 0.747508 0.098096
O O13 0.133206 0.618844 0.000000
O O14 0.161719 0.356573 0.500000
O O15 0.151825 0.500000 0.596694
O O16 0.096300 0.356723 0.647362
O O17 0.946096 0.500000 0.705512
O O18 0.000000 0.353128 0.740258
O O19 0.000000 0.841847 0.123573
O O20 0.930289 0.882976 0.000000
#
# Coordination Sequence:
#
# PCOD9521509 Si02
#       7
#    16  16  16  16  16  16  16
#     4   9  19  33  51  79 107 133 173 218 260 317
#     4  10  20  34  54  79 106 136 171 219 275 319
#     4   8  14  26  46  72  99 126 158 198 250 314
#     4  10  20  35  53  72 103 145 179 213 261 311
#     4   8  14  26  43  63  92 128 161 199 250 304
#     4   9  17  28  45  72  99 125 168 220 265 314
#     4  10  22  38  55  77 104 139 185 228 268 319
#
# _framework density 21.050588000000001
#
# number of rings (size 3 to 8) (size 9 to 14) (size 15 to 20)
#    0.000    2.857    0.000    2.571    0.000    5.143 
#    0.000    5.714    0.000    3.429    0.000    0.000 
#    0.000    0.000    0.000    0.000    0.000    0.000 
#
# Total GULP energy -311824.006428 kJ/mol
# GULP energy per Si atom -5568.285829 kJ/mol
# Density = 2.100268 g / cm^3
# Si number density = 21.050588 Si / 1000 Ang^3
#
#
#
# Elastic Constant Matrix: (Units=GPa)
#
#
# Indices 1 2 3 4 5 6 
#
# 1 212.4396 2.1386 94.2011 0.0000 0.0000 0.0000
# 2 2.1386 36.7996 -2.0052 0.0000 0.0000 0.0000
# 3 94.2011 -2.0052 135.9924 0.0000 0.0000 0.0000
# 4 0.0000 0.0000 0.0000 81.3572 0.0000 0.0000
# 5 0.0000 0.0000 0.0000 0.0000 22.9667 0.0000
# 6 0.0000 0.0000 0.0000 0.0000 0.0000 9.8696
#
#
#
# Elastic Compliance Matrix: (Units=1/GPa)
#
#
# Indices 1 2 3 4 5 6 
#
# 1 0.006810 -0.000653 -0.004727 0.000000 0.000000 0.000000
# 2 -0.000653 0.027259 0.000854 0.000000 0.000000 0.000000
# 3 -0.004727 0.000854 0.010640 0.000000 0.000000 0.000000
# 4 0.000000 0.000000 0.000000 0.012291 0.000000 0.000000
# 5 0.000000 0.000000 0.000000 0.000000 0.043541 0.000000
# 6 0.000000 0.000000 0.000000 0.000000 0.000000 0.101321
#
#
# Mechanical properties :
#
#
# Convention : Reuss Voigt Hill
#
# Bulk Modulus (GPa) = 28.04456 63.76672 45.90564
# Shear Modulus (GPa) = 22.44172 42.23184 32.33678
#
# Velocity S-wave (km/s) = 3.26864 4.48393 3.92362
# Velocity P-wave (km/s) = 5.25326 7.56078 6.51007
#
# Compressibility (1/GPa) = 0.03565754
#
# Stress axis : x y z
#
# Youngs Moduli (GPa) = 146.84857 36.68548 93.98397
#
# Poissons Ratio (x) = 0.02397 0.44423
# Poissons Ratio (y) = 0.09594 -0.08031
# Poissons Ratio (z) = 0.69411 -0.03135
#
# Static dielectric constant tensor:
#      x y z
#    x 1.850410 0.000000 0.000000 
#    y 0.000000 1.851770 0.000000 
#    z 0.000000 0.000000 1.737920 
# 
# From -- ./inp_files/39289.got.cif
#   From: 2010.05.17/outbox.cif.g08.bks.cpg/sg71_20_cif.got.tgz:39289.got - 2010.06.03 16:22:01.
