data_PCOD9521862
_publ_section_title
;
Structure prediction by ZEFSAII (Michael W. Deem and Ramdas Pophale) SiO2 
 PCOD9521862
Probable space group: I M M M
;
_chemical_formula_sum "Si O2"
_cell_formula_units_Z 104
_cell_length_a 25.469951
_cell_length_b 9.646578
_cell_length_c 24.366864
_cell_angle_alpha 90.000000
_cell_angle_beta 90.000000
_cell_angle_gamma 90.000000
_cell_volume 5986.886558
_symmetry_space_group_name_H-M "I M M M"
_symmetry_group_IT_number 71
_symmetry_cell_setting 'orthorhombic'
loop_
_space_group_symop_operation_xyz
x,y,z
-x,-y,z
x,-y,-z
-x,y,-z
-x,-y,-z
x,y,-z
-x,y,z
x,-y,z
1/2+x,1/2+y,1/2+z
1/2-x,1/2-y,1/2+z
1/2+x,1/2-y,1/2-z
1/2-x,1/2+y,1/2-z
1/2-x,1/2-y,1/2-z
1/2+x,1/2+y,1/2-z
1/2-x,1/2+y,1/2+z
1/2+x,1/2-y,1/2+z
loop_
_atom_site_type_symbol
_atom_site_label
_atom_site_fract_x
_atom_site_fract_y
_atom_site_fract_z
Si Si1 0.196950 0.165007 0.762005
Si Si2 0.064103 0.845221 0.500000
Si Si3 0.659032 0.159440 0.166448
Si Si4 0.939395 0.665134 0.934288
Si Si5 0.842347 0.165488 0.113548
Si Si6 0.231274 0.332051 0.561806
Si Si7 0.939983 0.653780 0.402507
O O1 0.250000 0.250000 0.750000
O O2 0.161069 0.232604 0.715536
O O3 0.175192 0.188978 0.823297
O O4 0.204018 0.000000 0.755373
O O5 0.079762 0.762782 0.553549
O O6 0.000000 0.845306 0.500000
O O7 0.083541 0.000000 0.500000
O O8 0.694414 0.205152 0.113801
O O9 0.599349 0.152476 0.147190
O O10 0.675969 0.000000 0.180840
O O11 0.933080 0.500000 0.924426
O O12 0.894182 0.750954 0.903671
O O13 0.000000 0.701877 0.919429
O O14 0.934133 0.687414 0.000000
O O15 0.791436 0.204677 0.076780
O O16 0.851038 0.000000 0.106674
O O17 0.217242 0.282736 0.500000
O O18 0.228307 0.500000 0.560316
O O19 0.938648 0.500000 0.428219
O O20 0.000000 0.683179 0.387465
#
# Coordination Sequence:
#
# PCOD9521862 Si02
#       7
#    16   8  16  16  16  16  16
#     4  11  22  38  58  80 108 142 185 230 272 322
#     4   9  17  29  47  71 101 137 173 213 264 315
#     4  10  20  35  55  78 107 144 183 222 274 327
#     4   9  19  36  57  84 119 153 183 221 275 335
#     4  10  20  35  56  81 109 144 188 229 267 323
#     4   9  17  30  50  77 108 140 175 217 267 322
#     4   9  18  32  51  75 102 135 179 224 263 315
#
# _framework density 17.371300000000002
#
# number of rings (size 3 to 8) (size 9 to 14) (size 15 to 20)
#    0.000    2.385    1.538    1.615    1.077    4.000 
#    0.000    1.538    0.000    2.769    0.000    0.000 
#    0.000    0.000    0.000    0.000    0.000    0.000 
#
# Total GULP energy -289692.228660 kJ/mol
# GULP energy per Si atom -5571.004397 kJ/mol
# Density = 1.733176 g / cm^3
# Si number density = 17.371300 Si / 1000 Ang^3
#
#
#
# Elastic Constant Matrix: (Units=GPa)
#
#
# Indices 1 2 3 4 5 6 
#
# 1 87.2291 39.5457 30.7814 0.0000 0.0000 0.0000
# 2 39.5457 72.9911 43.4218 0.0000 0.0000 0.0000
# 3 30.7814 43.4218 80.9947 0.0000 0.0000 0.0000
# 4 0.0000 0.0000 0.0000 31.5955 0.0000 0.0000
# 5 0.0000 0.0000 0.0000 0.0000 25.1394 0.0000
# 6 0.0000 0.0000 0.0000 0.0000 0.0000 25.5674
#
#
#
# Elastic Compliance Matrix: (Units=1/GPa)
#
#
# Indices 1 2 3 4 5 6 
#
# 1 0.015420 -0.007148 -0.002028 0.000000 0.000000 0.000000
# 2 -0.007148 0.023429 -0.009844 0.000000 0.000000 0.000000
# 3 -0.002028 -0.009844 0.018395 0.000000 0.000000 0.000000
# 4 0.000000 0.000000 0.000000 0.031650 0.000000 0.000000
# 5 0.000000 0.000000 0.000000 0.000000 0.039778 0.000000
# 6 0.000000 0.000000 0.000000 0.000000 0.000000 0.039112
#
#
# Mechanical properties :
#
#
# Convention : Reuss Voigt Hill
#
# Bulk Modulus (GPa) = 52.07321 52.07917 52.07619
# Shear Modulus (GPa) = 23.55976 24.95822 24.25899
#
# Velocity S-wave (km/s) = 3.68672 3.79456 3.74103
# Velocity P-wave (km/s) = 6.94004 7.01736 6.97881
#
# Compressibility (1/GPa) = 0.01920373
#
# Stress axis : x y z
#
# Youngs Moduli (GPa) = 64.84932 42.68207 54.36337
#
# Poissons Ratio (x) = 0.30509 0.11027
# Poissons Ratio (y) = 0.46354 0.53515
# Poissons Ratio (z) = 0.13154 0.42016
#
# Static dielectric constant tensor:
#      x y z
#    x 1.622170 0.000000 0.000000 
#    y 0.000000 1.604350 0.000000 
#    z 0.000000 0.000000 1.554770 
# 
# From -- ./inp_files/61945.got.cif
#   From: 2010.05.17/outbox.cif.g08.bks.cpg/sg71_31_cif.got.tgz:61945.got - 2010.06.03 16:22:01.
