data_PCOD9521983
_publ_section_title
;
Structure prediction by ZEFSAII (Michael W. Deem and Ramdas Pophale) SiO2 
 PCOD9521983
Probable space group: I M M M
;
_chemical_formula_sum "Si O2"
_cell_formula_units_Z 58
_cell_length_a 26.572962
_cell_length_b 14.888043
_cell_length_c 7.717101
_cell_angle_alpha 90.000000
_cell_angle_beta 90.000000
_cell_angle_gamma 90.000000
_cell_volume 3053.034874
_symmetry_space_group_name_H-M "I M M M"
_symmetry_group_IT_number 71
_symmetry_cell_setting 'orthorhombic'
loop_
_space_group_symop_operation_xyz
x,y,z
-x,-y,z
x,-y,-z
-x,y,-z
-x,-y,-z
x,y,-z
-x,y,z
x,-y,z
1/2+x,1/2+y,1/2+z
1/2-x,1/2-y,1/2+z
1/2+x,1/2-y,1/2-z
1/2-x,1/2+y,1/2-z
1/2-x,1/2-y,1/2-z
1/2+x,1/2+y,1/2-z
1/2-x,1/2+y,1/2+z
1/2+x,1/2-y,1/2+z
loop_
_atom_site_type_symbol
_atom_site_label
_atom_site_fract_x
_atom_site_fract_y
_atom_site_fract_z
Si Si1 0.351683 0.500000 0.291570
Si Si2 0.500000 0.500000 0.000000
Si Si3 0.299892 0.806651 0.208576
Si Si4 0.265526 0.000000 0.788175
Si Si5 0.000000 0.148625 0.809309
Si Si6 0.394836 0.305886 0.204004
O O1 0.353630 0.500000 0.500000
O O2 0.293224 0.500000 0.236604
O O3 0.378328 0.409956 0.226325
O O4 0.500000 0.577892 0.152733
O O5 0.250000 0.750000 0.250000
O O6 0.291654 0.908266 0.270910
O O7 0.349371 0.755301 0.273910
O O8 0.303724 0.809600 0.000000
O O9 0.265740 0.000000 0.000000
O O10 0.051250 0.204760 0.791138
O O11 0.000000 0.105899 0.000000
O O12 0.400345 0.288327 0.000000
#
# Coordination Sequence:
#
# PCOD9521983 Si02
#       6
#     8   2  16   8   8  16
#     4  11  20  31  53  80 114 153 191 231 280 352
#     4  12  22  44  60  90 132 142 210 252 288 372
#     4  10  20  35  57  81 115 153 194 245 297 350
#     4   9  18  34  53  82 115 151 196 239 286 358
#     4  12  25  41  61  83 118 168 199 245 306 357
#     4  11  22  37  55  82 119 156 198 250 291 349
#
# _framework density 18.997489999999999
#
# number of rings (size 3 to 8) (size 9 to 14) (size 15 to 20)
#    0.000    1.379    4.138    2.276    0.000    1.103 
#    0.000    0.690    0.000    0.828    0.000    5.793 
#    0.000    0.000    0.000    0.000    0.000    0.000 
#
# Total GULP energy -161790.977204 kJ/mol
# GULP energy per Si atom -5578.999214 kJ/mol
# Density = 1.895425 g / cm^3
# Si number density = 18.997490 Si / 1000 Ang^3
#
#
#
# Elastic Constant Matrix: (Units=GPa)
#
#
# Indices 1 2 3 4 5 6 
#
# 1 187.6650 78.9829 18.6207 0.0000 0.0000 0.0000
# 2 78.9829 128.9682 2.5355 0.0000 0.0000 0.0000
# 3 18.6207 2.5355 87.4628 0.0000 0.0000 0.0000
# 4 0.0000 0.0000 0.0000 5.8198 0.0000 0.0000
# 5 0.0000 0.0000 0.0000 0.0000 22.0977 0.0000
# 6 0.0000 0.0000 0.0000 0.0000 0.0000 -27.3573
#
#
#
# Elastic Compliance Matrix: (Units=1/GPa)
#
#
# Indices 1 2 3 4 5 6 
#
# 1 0.007355 -0.004476 -0.001436 0.000000 0.000000 0.000000
# 2 -0.004476 0.010482 0.000649 0.000000 0.000000 0.000000
# 3 -0.001436 0.000649 0.011720 0.000000 0.000000 0.000000
# 4 0.000000 0.000000 0.000000 0.171827 0.000000 0.000000
# 5 0.000000 0.000000 0.000000 0.000000 0.045254 0.000000
# 6 0.000000 0.000000 0.000000 0.000000 0.000000 -0.036553
#
#
# Mechanical properties :
#
#
# Convention : Reuss Voigt Hill
#
# Bulk Modulus (GPa) = 52.54468 67.15268 59.84868
# Shear Modulus (GPa) = 22.03080 20.37584 21.20332
#
# Velocity S-wave (km/s) = 3.40909 3.27854 3.34445
# Velocity P-wave (km/s) = 6.57378 7.05384 6.81804
#
# Compressibility (1/GPa) = 0.01903142
#
# Stress axis : x y z
#
# Youngs Moduli (GPa) = 135.96171 95.39835 85.32159
#
# Poissons Ratio (x) = 0.42702 0.12253
# Poissons Ratio (y) = 0.60858 -0.05538
# Poissons Ratio (z) = 0.19526 -0.06192
#
# Static dielectric constant tensor:
#      x y z
#    x 1.686450 0.000000 0.000000 
#    y 0.000000 1.637590 0.000000 
#    z 0.000000 0.000000 1.692790 
# 
# From -- ./inp_files/5412.got.cif
#   From: 2010.05.17/outbox.cif.g08.bks.cpg/sg71_3_cif.got.tgz:5412.got - 2010.06.03 16:22:01.
