data_PCOD9521585
_publ_section_title
;
Structure prediction by ZEFSAII (Michael W. Deem and Ramdas Pophale) SiO2 
 PCOD9521585
Probable space group: I M M M
;
_chemical_formula_sum "Si O2"
_cell_formula_units_Z 112
_cell_length_a 13.735498
_cell_length_b 26.550266
_cell_length_c 15.017487
_cell_angle_alpha 90.000000
_cell_angle_beta 90.000000
_cell_angle_gamma 90.000000
_cell_volume 5476.594062
_symmetry_space_group_name_H-M "I M M M"
_symmetry_group_IT_number 71
_symmetry_cell_setting 'orthorhombic'
loop_
_space_group_symop_operation_xyz
x,y,z
-x,-y,z
x,-y,-z
-x,y,-z
-x,-y,-z
x,y,-z
-x,y,z
x,-y,z
1/2+x,1/2+y,1/2+z
1/2-x,1/2-y,1/2+z
1/2+x,1/2-y,1/2-z
1/2-x,1/2+y,1/2-z
1/2-x,1/2-y,1/2-z
1/2+x,1/2+y,1/2-z
1/2-x,1/2+y,1/2+z
1/2+x,1/2-y,1/2+z
loop_
_atom_site_type_symbol
_atom_site_label
_atom_site_fract_x
_atom_site_fract_y
_atom_site_fract_z
Si Si1 0.117887 0.842634 0.901207
Si Si2 0.617612 0.908070 0.099945
Si Si3 0.381221 0.750661 0.714685
Si Si4 0.303359 0.056394 0.287283
Si Si5 0.118407 0.710658 0.402187
Si Si6 0.382379 0.849579 0.397030
Si Si7 0.886636 0.056526 0.804936
O O1 0.150778 0.801072 0.831003
O O2 0.140959 0.899237 0.872491
O O3 0.000000 0.839854 0.903526
O O4 0.153161 0.831095 0.000000
O O5 0.500000 0.911522 0.103459
O O6 0.658624 0.936464 0.185686
O O7 0.642949 0.848591 0.108583
O O8 0.647249 0.924781 0.000000
O O9 0.500000 0.749925 0.714781
O O10 0.349802 0.758047 0.816437
O O11 0.353572 0.799447 0.656806
O O12 0.344157 0.100810 0.347569
O O13 0.186680 0.060431 0.277431
O O14 0.329486 0.000000 0.317760
O O15 0.150639 0.728259 0.500000
O O16 0.000000 0.711933 0.402503
O O17 0.351578 0.847169 0.500000
O O18 0.500000 0.851413 0.395156
O O19 0.000000 0.063222 0.780929
O O20 0.875730 0.000000 0.842368
#
# Coordination Sequence:
#
# PCOD9521585 Si02
#       7
#    16  16  16  16  16  16  16
#     4   9  17  30  52  82 111 142 183 229 278 333
#     4   9  17  30  48  73 109 150 186 219 263 325
#     4   9  15  27  50  79 112 149 187 223 264 322
#     4  11  22  35  54  79 106 142 190 237 278 328
#     4   8  13  23  43  70 103 147 189 216 248 305
#     4  10  20  34  54  82 118 157 187 215 262 323
#     4   9  20  39  59  78 103 138 182 236 296 345
#
# _framework density 20.450665999999998
#
# number of rings (size 3 to 8) (size 9 to 14) (size 15 to 20)
#    0.000    2.714    1.429    1.714    0.000    4.286 
#    0.000    5.000    0.000    1.286    0.000    4.000 
#    0.000    0.000    0.000    0.000    0.000    0.286 
#
# Total GULP energy -312793.444155 kJ/mol
# GULP energy per Si atom -5585.597217 kJ/mol
# Density = 2.040412 g / cm^3
# Si number density = 20.450666 Si / 1000 Ang^3
#
#
#
# Elastic Constant Matrix: (Units=GPa)
#
#
# Indices 1 2 3 4 5 6 
#
# 1 65.2076 26.7683 24.1745 0.0000 0.0000 0.0000
# 2 26.7683 126.3352 77.6691 0.0000 0.0000 0.0000
# 3 24.1745 77.6691 135.4361 0.0001 0.0000 0.0000
# 4 0.0000 0.0000 0.0001 2.7812 0.0000 0.0000
# 5 0.0000 0.0000 0.0000 0.0000 9.6446 0.0000
# 6 0.0000 0.0000 0.0000 0.0000 0.0000 21.8733
#
#
#
# Elastic Compliance Matrix: (Units=1/GPa)
#
#
# Indices 1 2 3 4 5 6 
#
# 1 0.016990 -0.002681 -0.001495 0.000000 0.000000 0.000000
# 2 -0.002681 0.012649 -0.006775 0.000000 0.000000 0.000000
# 3 -0.001495 -0.006775 0.011536 0.000000 0.000000 0.000000
# 4 0.000000 0.000000 0.000000 0.359561 0.000000 0.000000
# 5 0.000000 0.000000 0.000000 0.000000 0.103684 0.000000
# 6 0.000000 0.000000 0.000000 0.000000 0.000000 0.045718
#
#
# Mechanical properties :
#
#
# Convention : Reuss Voigt Hill
#
# Bulk Modulus (GPa) = 51.88737 64.91143 58.39940
# Shear Modulus (GPa) = 8.64355 20.08428 14.36392
#
# Velocity S-wave (km/s) = 2.05809 3.13722 2.65310
# Velocity P-wave (km/s) = 5.57447 6.70316 6.16470
#
# Compressibility (1/GPa) = 0.01927251
#
# Stress axis : x y z
#
# Youngs Moduli (GPa) = 58.85654 79.05899 86.68574
#
# Poissons Ratio (x) = 0.21193 0.12963
# Poissons Ratio (y) = 0.15777 0.58732
# Poissons Ratio (z) = 0.08802 0.53565
#
# Static dielectric constant tensor:
#      x y z
#    x 1.792200 0.000000 0.000000 
#    y 0.000000 1.696880 0.000000 
#    z 0.000000 0.000000 1.697240 
# 
# From -- ./inp_files/34898.got.cif
#   From: 2010.05.17/outbox.cif.g08.bks.cpg/sg71_18_cif.got.tgz:34898.got - 2010.06.03 16:22:01.
