data_PCOD9521231
_publ_section_title
;
Structure prediction by ZEFSAII (Michael W. Deem and Ramdas Pophale) SiO2 
 PCOD9521231
Probable space group: I M M M
;
_chemical_formula_sum "Si O2"
_cell_formula_units_Z 100
_cell_length_a 29.996838
_cell_length_b 7.643059
_cell_length_c 20.634047
_cell_angle_alpha 90.000000
_cell_angle_beta 90.000000
_cell_angle_gamma 90.000000
_cell_volume 4730.718489
_symmetry_space_group_name_H-M "I M M M"
_symmetry_group_IT_number 71
_symmetry_cell_setting 'orthorhombic'
loop_
_space_group_symop_operation_xyz
x,y,z
-x,-y,z
x,-y,-z
-x,y,-z
-x,-y,-z
x,y,-z
-x,y,z
x,-y,z
1/2+x,1/2+y,1/2+z
1/2-x,1/2-y,1/2+z
1/2+x,1/2-y,1/2-z
1/2-x,1/2+y,1/2-z
1/2-x,1/2-y,1/2-z
1/2+x,1/2+y,1/2-z
1/2-x,1/2+y,1/2+z
1/2+x,1/2-y,1/2+z
loop_
_atom_site_type_symbol
_atom_site_label
_atom_site_fract_x
_atom_site_fract_y
_atom_site_fract_z
Si Si1 0.355142 0.286667 0.428891
Si Si2 0.048783 0.799140 0.105696
Si Si3 0.258473 0.000000 0.000000
Si Si4 0.361927 0.303072 0.816148
Si Si5 0.049130 0.701791 0.251373
Si Si6 0.723315 0.284990 0.887647
Si Si7 0.802636 0.300523 0.199152
O O1 0.337257 0.243277 0.500000
O O2 0.353892 0.500000 0.423225
O O3 0.406298 0.224660 0.423897
O O4 0.328475 0.209755 0.369386
O O5 0.055562 0.801047 0.183580
O O6 0.000000 0.719725 0.092755
O O7 0.046941 0.000000 0.083237
O O8 0.260226 0.155983 0.943445
O O9 0.372821 0.500000 0.834310
O O10 0.409073 0.219042 0.798707
O O11 0.327859 0.236620 0.870567
O O12 0.332041 0.302495 0.750717
O O13 0.047483 0.500000 0.231521
O O14 0.000000 0.750210 0.277940
O O15 0.726209 0.500000 0.898818
O O16 0.753157 0.248906 0.823279
O O17 0.802401 0.500000 0.222097
#
# Coordination Sequence:
#
# PCOD9521231 Si02
#       7
#    16  16   4  16  16  16  16
#     4  10  21  33  49  75 107 152 208 253 303 367
#     4   9  17  31  49  70 101 146 196 248 306 360
#     4  12  26  44  76  90 129 178 201 268 306 392
#     4  11  22  39  63  91 127 159 205 262 311 371
#     4  10  20  33  54  86 122 156 197 248 310 380
#     4  10  26  44  64  98 127 165 215 258 310 378
#     4  11  23  38  58  84 122 162 207 265 309 363
#
# _framework density 21.138437
#
# number of rings (size 3 to 8) (size 9 to 14) (size 15 to 20)
#    0.000    1.760    1.600    2.160    5.600    1.600 
#    0.000    1.600    0.000    0.000    0.000    4.480 
#    0.000    2.560    0.000    0.000    0.000    0.000 
#
# Total GULP energy -278561.765584 kJ/mol
# GULP energy per Si atom -5571.235312 kJ/mol
# Density = 2.109033 g / cm^3
# Si number density = 21.138437 Si / 1000 Ang^3
#
#
#
# Elastic Constant Matrix: (Units=GPa)
#
#
# Indices 1 2 3 4 5 6 
#
# 1 124.4813 13.0208 13.3735 0.0000 0.0000 0.0000
# 2 13.0208 74.0481 15.4956 0.0000 0.0000 0.0000
# 3 13.3735 15.4956 37.6450 0.0000 0.0000 0.0000
# 4 0.0000 0.0000 0.0000 47.6961 0.0000 0.0000
# 5 0.0000 0.0000 0.0000 0.0000 16.6228 0.0000
# 6 0.0000 0.0000 0.0000 0.0000 0.0000 18.9144
#
#
#
# Elastic Compliance Matrix: (Units=1/GPa)
#
#
# Indices 1 2 3 4 5 6 
#
# 1 0.008411 -0.000934 -0.002603 0.000000 0.000000 0.000000
# 2 -0.000934 0.014881 -0.005794 0.000000 0.000000 0.000000
# 3 -0.002603 -0.005794 0.029874 0.000000 0.000000 0.000000
# 4 0.000000 0.000000 0.000000 0.020966 0.000000 0.000000
# 5 0.000000 0.000000 0.000000 0.000000 0.060158 0.000000
# 6 0.000000 0.000000 0.000000 0.000000 0.000000 0.052870
#
#
# Mechanical properties :
#
#
# Convention : Reuss Voigt Hill
#
# Bulk Modulus (GPa) = 28.98276 35.55046 32.26661
# Shear Modulus (GPa) = 23.00719 29.59896 26.30308
#
# Velocity S-wave (km/s) = 3.30268 3.74604 3.53133
# Velocity P-wave (km/s) = 5.31830 5.96363 5.65018
#
# Compressibility (1/GPa) = 0.03450327
#
# Stress axis : x y z
#
# Youngs Moduli (GPa) = 118.89550 67.19794 33.47433
#
# Poissons Ratio (x) = 0.06277 0.08715
# Poissons Ratio (y) = 0.11107 0.19394
# Poissons Ratio (z) = 0.30954 0.38932
#
# Static dielectric constant tensor:
#      x y z
#    x 1.849410 0.000000 0.000000 
#    y 0.000000 1.854620 0.000000 
#    z 0.000000 0.000000 1.745220 
# 
# From -- ./inp_files/56650.got.cif
#   From: 2010.05.17/outbox.cif.g08.bks.cpg/sg71_29_cif.got.tgz:56650.got - 2010.06.03 16:22:01.
