data_PCOD9521180
_publ_section_title
;
Structure prediction by ZEFSAII (Michael W. Deem and Ramdas Pophale) SiO2 
 PCOD9521180
Probable space group: I M M M
;
_chemical_formula_sum "Si O2"
_cell_formula_units_Z 88
_cell_length_a 9.068177
_cell_length_b 26.999619
_cell_length_c 19.850381
_cell_angle_alpha 90.000000
_cell_angle_beta 90.000000
_cell_angle_gamma 90.000000
_cell_volume 4860.114165
_symmetry_space_group_name_H-M "I M M M"
_symmetry_group_IT_number 71
_symmetry_cell_setting 'orthorhombic'
loop_
_space_group_symop_operation_xyz
x,y,z
-x,-y,z
x,-y,-z
-x,y,-z
-x,-y,-z
x,y,-z
-x,y,z
x,-y,z
1/2+x,1/2+y,1/2+z
1/2-x,1/2-y,1/2+z
1/2+x,1/2-y,1/2-z
1/2-x,1/2+y,1/2-z
1/2-x,1/2-y,1/2-z
1/2+x,1/2+y,1/2-z
1/2-x,1/2+y,1/2+z
1/2+x,1/2-y,1/2+z
loop_
_atom_site_type_symbol
_atom_site_label
_atom_site_fract_x
_atom_site_fract_y
_atom_site_fract_z
Si Si1 0.823303 0.396860 0.392485
Si Si2 0.324013 0.326691 0.500000
Si Si3 0.824454 0.137917 0.609963
Si Si4 0.674736 0.101641 0.266198
Si Si5 0.673959 0.278453 0.000000
Si Si6 0.666541 0.500000 0.767057
Si Si7 0.679445 0.557223 0.000000
Si Si8 0.331130 0.500000 0.603984
O O1 0.745913 0.354756 0.435959
O O2 0.792797 0.389464 0.312724
O O3 0.755679 0.450012 0.413849
O O4 0.000000 0.397016 0.402213
O O5 0.500000 0.331290 0.500000
O O6 0.272487 0.270014 0.500000
O O7 0.742057 0.139688 0.680750
O O8 0.799682 0.186180 0.564235
O O9 0.777003 0.090255 0.564881
O O10 0.000000 0.133297 0.621215
O O11 0.500000 0.098667 0.272917
O O12 0.748243 0.049391 0.285786
O O13 0.500000 0.264681 0.000000
O O14 0.500000 0.500000 0.793960
O O15 0.661303 0.500000 0.685597
O O16 0.729457 0.500000 0.000000
O O17 0.500000 0.556627 0.000000
O O18 0.500000 0.500000 0.579359
#
# Coordination Sequence:
#
# PCOD9521180 Si02
#       8
#    16   8  16  16   8   8   8   8
#     4  10  21  38  58  82 115 154 185 217 274 342
#     4  12  25  40  62  86 105 133 183 243 289 329
#     4   9  18  33  56  81 108 148 189 227 272 327
#     4  10  20  33  52  81 116 148 183 226 273 328
#     4   9  20  41  61  80 108 145 188 229 282 345
#     4   9  17  29  48  73 108 153 188 216 260 315
#     4   8  15  28  47  77 112 145 188 226 258 315
#     4   9  17  32  54  83 116 144 179 224 261 310
#
# _framework density 18.106570000000001
#
# number of rings (size 3 to 8) (size 9 to 14) (size 15 to 20)
#    0.000    2.455    0.000    3.545    1.273    5.455 
#    0.000    4.091    0.000    0.545    0.000    0.000 
#    0.000    0.000    0.000    0.000    0.000    0.000 
#
# Total GULP energy -245538.049366 kJ/mol
# GULP energy per Si atom -5580.410213 kJ/mol
# Density = 1.806536 g / cm^3
# Si number density = 18.106570 Si / 1000 Ang^3
#
#
#
# Elastic Constant Matrix: (Units=GPa)
#
#
# Indices 1 2 3 4 5 6 
#
# 1 102.5864 62.8915 70.8971 0.0000 0.0000 0.0000
# 2 62.8915 93.8268 48.1447 0.0000 0.0000 0.0000
# 3 70.8971 48.1447 108.7076 0.0000 0.0000 0.0000
# 4 0.0000 0.0000 0.0000 11.7430 0.0000 0.0000
# 5 0.0000 0.0000 0.0000 0.0000 25.9287 0.0000
# 6 0.0000 0.0000 0.0000 0.0000 0.0000 28.8448
#
#
#
# Elastic Compliance Matrix: (Units=1/GPa)
#
#
# Indices 1 2 3 4 5 6 
#
# 1 0.023436 -0.010179 -0.010776 0.000000 0.000000 0.000000
# 2 -0.010179 0.018214 -0.001428 0.000000 0.000000 0.000000
# 3 -0.010776 -0.001428 0.016859 0.000000 0.000000 0.000000
# 4 0.000000 0.000000 0.000000 0.085157 0.000000 0.000000
# 5 0.000000 0.000000 0.000000 0.000000 0.038567 0.000000
# 6 0.000000 0.000000 0.000000 0.000000 0.000000 0.034668
#
#
# Mechanical properties :
#
#
# Convention : Reuss Voigt Hill
#
# Bulk Modulus (GPa) = 72.76788 74.33193 73.54990
# Shear Modulus (GPa) = 18.77945 21.51580 20.14763
#
# Velocity S-wave (km/s) = 3.22399 3.45089 3.33937
# Velocity P-wave (km/s) = 7.35763 7.55115 7.45502
#
# Compressibility (1/GPa) = 0.01374233
#
# Stress axis : x y z
#
# Youngs Moduli (GPa) = 42.66984 54.90376 59.31448
#
# Poissons Ratio (x) = 0.55888 0.63918
# Poissons Ratio (y) = 0.43435 0.08469
# Poissons Ratio (z) = 0.45981 0.07839
#
# Static dielectric constant tensor:
#      x y z
#    x 1.599640 0.000000 0.000000 
#    y 0.000000 1.601610 0.000000 
#    z 0.000000 0.000000 1.650250 
# 
# From -- ./inp_files/50631.got.cif
#   From: 2010.05.17/outbox.cif.g08.bks.cpg/sg71_26_cif.got.tgz:50631.got - 2010.06.03 16:22:01.
