data_PCOD9521713
_publ_section_title
;
Structure prediction by ZEFSAII (Michael W. Deem and Ramdas Pophale) SiO2 
 PCOD9521713
Probable space group: I M M M
;
_chemical_formula_sum "Si O2"
_cell_formula_units_Z 88
_cell_length_a 20.582018
_cell_length_b 8.273580
_cell_length_c 24.800892
_cell_angle_alpha 90.000000
_cell_angle_beta 90.000000
_cell_angle_gamma 90.000000
_cell_volume 4223.268814
_symmetry_space_group_name_H-M "I M M M"
_symmetry_group_IT_number 71
_symmetry_cell_setting 'orthorhombic'
loop_
_space_group_symop_operation_xyz
x,y,z
-x,-y,z
x,-y,-z
-x,y,-z
-x,-y,-z
x,y,-z
-x,y,z
x,-y,z
1/2+x,1/2+y,1/2+z
1/2-x,1/2-y,1/2+z
1/2+x,1/2-y,1/2-z
1/2-x,1/2+y,1/2-z
1/2-x,1/2-y,1/2-z
1/2+x,1/2+y,1/2-z
1/2-x,1/2+y,1/2+z
1/2+x,1/2-y,1/2+z
loop_
_atom_site_type_symbol
_atom_site_label
_atom_site_fract_x
_atom_site_fract_y
_atom_site_fract_z
Si Si1 0.569216 0.807579 0.173773
Si Si2 0.395349 0.688848 0.940215
Si Si3 0.675735 0.806839 0.745546
Si Si4 0.872052 0.195715 0.869595
Si Si5 0.248093 0.688109 0.437774
Si Si6 0.000000 0.802523 0.063350
O O1 0.500000 0.742238 0.194283
O O2 0.573833 0.775156 0.110488
O O3 0.631905 0.742876 0.204976
O O4 0.569077 0.000000 0.182081
O O5 0.411745 0.500000 0.938392
O O6 0.317821 0.712217 0.933850
O O7 0.412376 0.751941 0.000000
O O8 0.750000 0.750000 0.750000
O O9 0.638540 0.755921 0.691019
O O10 0.678100 0.000000 0.747544
O O11 0.806874 0.245626 0.901239
O O12 0.935917 0.248397 0.902900
O O13 0.873390 0.000000 0.868891
O O14 0.269708 0.690373 0.500000
O O15 0.232755 0.500000 0.423886
O O16 0.000000 0.000000 0.062290
O O17 0.000000 0.751466 0.000000
#
# Coordination Sequence:
#
# PCOD9521713 Si02
#       6
#    16  16  16  16  16   8
#     4  10  23  42  61  81 109 149 193 232 275 335
#     4  10  21  36  56  85 117 145 178 227 287 342
#     4  11  24  41  62  86 116 152 195 247 298 351
#     4  10  20  34  56  85 116 152 197 244 293 349
#     4   9  17  31  53  80 111 149 192 235 278 331
#     4   9  18  34  57  87 123 161 202 249 298 355
#
# _framework density 20.836940999999999
#
# number of rings (size 3 to 8) (size 9 to 14) (size 15 to 20)
#    0.000    2.091    0.000    2.727    1.273   10.545 
#    0.000    1.818    0.000    2.182    0.000    0.000 
#    0.000    0.000    0.000    0.000    0.000    0.000 
#
# Total GULP energy -245656.610832 kJ/mol
# GULP energy per Si atom -5583.104792 kJ/mol
# Density = 2.078952 g / cm^3
# Si number density = 20.836941 Si / 1000 Ang^3
#
#
#
# Elastic Constant Matrix: (Units=GPa)
#
#
# Indices 1 2 3 4 5 6 
#
# 1 135.1424 14.5186 78.0121 0.0000 0.0000 0.0000
# 2 14.5186 11.5215 9.2154 0.0000 0.0000 0.0000
# 3 78.0121 9.2154 122.3743 0.0000 0.0000 0.0000
# 4 0.0000 0.0000 0.0000 26.5401 0.0000 0.0000
# 5 0.0000 0.0000 0.0000 0.0000 26.8943 0.0000
# 6 0.0000 0.0000 0.0000 0.0000 0.0000 7.2376
#
#
#
# Elastic Compliance Matrix: (Units=1/GPa)
#
#
# Indices 1 2 3 4 5 6 
#
# 1 0.012737 -0.010168 -0.007354 0.000000 0.000000 0.000000
# 2 -0.010168 0.100475 -0.001084 0.000000 0.000000 0.000000
# 3 -0.007354 -0.001084 0.012941 0.000000 0.000000 0.000000
# 4 0.000000 0.000000 0.000000 0.037679 0.000000 0.000000
# 5 0.000000 0.000000 0.000000 0.000000 0.037183 0.000000
# 6 0.000000 0.000000 0.000000 0.000000 0.000000 0.138167
#
#
# Mechanical properties :
#
#
# Convention : Reuss Voigt Hill
#
# Bulk Modulus (GPa) = 11.24346 52.50337 31.87342
# Shear Modulus (GPa) = 12.31400 23.28721 17.80060
#
# Velocity S-wave (km/s) = 2.43362 3.34667 2.92598
# Velocity P-wave (km/s) = 3.64751 6.33921 5.17155
#
# Compressibility (1/GPa) = 0.08894062
#
# Stress axis : x y z
#
# Youngs Moduli (GPa) = 78.50991 9.95271 77.27119
#
# Poissons Ratio (x) = 0.10120 0.56826
# Poissons Ratio (y) = 0.79833 0.08376
# Poissons Ratio (z) = 0.57737 0.01079
#
# Static dielectric constant tensor:
#      x y z
#    x 1.772230 0.000000 0.000000 
#    y 0.000000 1.735690 0.000000 
#    z 0.000000 0.000000 1.751520 
# 
# From -- ./inp_files/10447.got.cif
#   From: 2010.05.17/outbox.cif.g08.bks.cpg/sg71_6_cif.got.tgz:10447.got - 2010.06.03 16:22:01.
