data_PCOD9521377
_publ_section_title
;
Structure prediction by ZEFSAII (Michael W. Deem and Ramdas Pophale) SiO2 
 PCOD9521377
Probable space group: I M M M
;
_chemical_formula_sum "Si O2"
_cell_formula_units_Z 80
_cell_length_a 22.359567
_cell_length_b 7.536423
_cell_length_c 22.511248
_cell_angle_alpha 90.000000
_cell_angle_beta 90.000000
_cell_angle_gamma 90.000000
_cell_volume 3793.396401
_symmetry_space_group_name_H-M "I M M M"
_symmetry_group_IT_number 71
_symmetry_cell_setting 'orthorhombic'
loop_
_space_group_symop_operation_xyz
x,y,z
-x,-y,z
x,-y,-z
-x,y,-z
-x,-y,-z
x,y,-z
-x,y,z
x,-y,z
1/2+x,1/2+y,1/2+z
1/2-x,1/2-y,1/2+z
1/2+x,1/2-y,1/2-z
1/2-x,1/2+y,1/2-z
1/2-x,1/2-y,1/2-z
1/2+x,1/2+y,1/2-z
1/2-x,1/2+y,1/2+z
1/2+x,1/2-y,1/2+z
loop_
_atom_site_type_symbol
_atom_site_label
_atom_site_fract_x
_atom_site_fract_y
_atom_site_fract_z
Si Si1 0.930284 0.217332 0.728565
Si Si2 0.431453 0.213585 0.000000
Si Si3 0.355735 0.705623 0.884243
Si Si4 0.773187 0.207729 0.932406
Si Si5 0.500000 0.283708 0.432364
Si Si6 0.615256 0.283106 0.642979
O O1 0.891682 0.279437 0.672205
O O2 0.898745 0.272984 0.789824
O O3 0.000000 0.272918 0.726421
O O4 0.931456 0.000000 0.727422
O O5 0.397867 0.277819 0.941507
O O6 0.500000 0.271601 0.000000
O O7 0.429362 0.000000 0.000000
O O8 0.344317 0.500000 0.871433
O O9 0.291753 0.782144 0.902517
O O10 0.824241 0.280775 0.888736
O O11 0.787585 0.000000 0.938816
O O12 0.772059 0.282151 0.000000
O O13 0.500000 0.500000 0.432973
O O14 0.500000 0.222897 0.500000
O O15 0.440817 0.229624 0.397475
O O16 0.616533 0.500000 0.644824
#
# Coordination Sequence:
#
# PCOD9521377 Si02
#       6
#    16   8  16  16   8  16
#     4   9  17  31  50  75 107 141 180 230 281 325
#     4  11  23  39  59  83 109 138 177 228 287 333
#     4  11  22  35  55  80 108 146 189 226 267 323
#     4  10  20  34  52  77 112 148 183 226 277 324
#     4   9  14  22  42  74 107 138 181 228 273 322
#     4   9  16  28  48  74 107 146 181 224 279 326
#
# _framework density 21.089282000000001
#
# number of rings (size 3 to 8) (size 9 to 14) (size 15 to 20)
#    0.000    2.200    2.000    2.100    0.000    4.800 
#    0.000    0.000    0.000    1.200    0.000    0.700 
#    0.000    2.400    0.000    0.000    0.000    0.000 
#
# Total GULP energy -223400.004312 kJ/mol
# GULP energy per Si atom -5585.000108 kJ/mol
# Density = 2.104128 g / cm^3
# Si number density = 21.089282 Si / 1000 Ang^3
#
#
#
# Elastic Constant Matrix: (Units=GPa)
#
#
# Indices 1 2 3 4 5 6 
#
# 1 195.4398 -9.4102 123.8344 0.0000 0.0000 0.0000
# 2 -9.4102 47.7219 -3.9638 0.0000 0.0000 0.0000
# 3 123.8344 -3.9638 237.2721 0.0000 0.0000 0.0000
# 4 0.0000 0.0000 0.0000 -9.5320 0.0000 0.0000
# 5 0.0000 0.0000 0.0000 0.0000 34.4782 0.0000
# 6 0.0000 0.0000 0.0000 0.0000 0.0000 -36.4344
#
#
#
# Elastic Compliance Matrix: (Units=1/GPa)
#
#
# Indices 1 2 3 4 5 6 
#
# 1 0.007711 0.001188 -0.004005 0.000000 0.000000 0.000000
# 2 0.001188 0.021167 -0.000266 0.000000 0.000000 0.000000
# 3 -0.004005 -0.000266 0.006300 0.000000 0.000000 0.000000
# 4 0.000000 0.000000 0.000000 -0.104910 0.000000 0.000000
# 5 0.000000 0.000000 0.000000 0.000000 0.029004 0.000000
# 6 0.000000 0.000000 0.000000 0.000000 0.000000 -0.027447
#
#
# Mechanical properties :
#
#
# Convention : Reuss Voigt Hill
#
# Bulk Modulus (GPa) = 34.46847 77.92830 56.19838
# Shear Modulus (GPa) = -95.53490 22.36725 -36.58383
#
# Velocity S-wave (km/s) = -6.73785 3.26022 -4.16951
# Velocity P-wave (km/s) = 6.64469 7.15569 1.87776
#
# Compressibility (1/GPa) = 0.02901202
#
# Stress axis : x y z
#
# Youngs Moduli (GPa) = 129.67855 47.24367 158.72366
#
# Poissons Ratio (x) = -0.05612 0.63566
# Poissons Ratio (y) = -0.15405 0.04228
# Poissons Ratio (z) = 0.51934 0.01259
#
# Static dielectric constant tensor:
#      x y z
#    x 1.710780 0.000000 0.000000 
#    y 0.000000 1.845030 0.000000 
#    z 0.000000 0.000000 1.730940 
# 
# From -- ./inp_files/61048.got.cif
#   From: 2010.05.17/outbox.cif.g08.bks.cpg/sg71_31_cif.got.tgz:61048.got - 2010.06.03 16:22:01.
