data_PCOD9521518
_publ_section_title
;
Structure prediction by ZEFSAII (Michael W. Deem and Ramdas Pophale) SiO2 
 PCOD9521518
Probable space group: I M M M
;
_chemical_formula_sum "Si O2"
_cell_formula_units_Z 120
_cell_length_a 7.684856
_cell_length_b 26.449188
_cell_length_c 29.344795
_cell_angle_alpha 90.000000
_cell_angle_beta 90.000000
_cell_angle_gamma 90.000000
_cell_volume 5964.570243
_symmetry_space_group_name_H-M "I M M M"
_symmetry_group_IT_number 71
_symmetry_cell_setting 'orthorhombic'
loop_
_space_group_symop_operation_xyz
x,y,z
-x,-y,z
x,-y,-z
-x,y,-z
-x,-y,-z
x,y,-z
-x,y,z
x,-y,z
1/2+x,1/2+y,1/2+z
1/2-x,1/2-y,1/2+z
1/2+x,1/2-y,1/2-z
1/2-x,1/2+y,1/2-z
1/2-x,1/2-y,1/2-z
1/2+x,1/2+y,1/2-z
1/2-x,1/2+y,1/2+z
1/2+x,1/2-y,1/2+z
loop_
_atom_site_type_symbol
_atom_site_label
_atom_site_fract_x
_atom_site_fract_y
_atom_site_fract_z
Si Si1 0.294588 0.646566 0.190386
Si Si2 0.710424 0.444886 0.353895
Si Si3 0.000000 0.561178 0.051571
Si Si4 0.712208 0.404979 0.550148
Si Si5 0.208193 0.940469 0.376493
Si Si6 0.790445 0.212670 0.050247
Si Si7 0.207767 0.250001 0.351597
Si Si8 0.705109 0.153378 0.204395
O O1 0.500000 0.647538 0.181489
O O2 0.235394 0.595516 0.165258
O O3 0.219580 0.697522 0.167849
O O4 0.272144 0.648443 0.244404
O O5 0.500000 0.445085 0.354434
O O6 0.769675 0.500000 0.337695
O O7 0.770583 0.435362 0.405771
O O8 0.763652 0.397905 0.323260
O O9 0.827741 0.574453 0.080471
O O10 0.000000 0.500000 0.048784
O O11 0.000000 0.581223 0.000000
O O12 0.768947 0.422539 0.500000
O O13 0.500000 0.406198 0.550041
O O14 0.763868 0.346133 0.555594
O O15 0.000000 0.934968 0.385283
O O16 0.238408 0.000000 0.366712
O O17 0.735496 0.243038 0.094640
O O18 0.000000 0.212658 0.049630
O O19 0.730446 0.230015 0.000000
O O20 0.278137 0.298763 0.323984
O O21 0.000000 0.249745 0.344374
O O22 0.500000 0.160952 0.208312
#
# Coordination Sequence:
#
# PCOD9521518 Si02
#       8
#    16  16   8  16  16  16  16  16
#     4  10  22  39  59  82 110 144 187 235 283 336
#     4  10  20  34  54  79 108 145 187 233 284 335
#     4   9  18  34  60  92 124 158 194 234 282 344
#     4   8  14  27  49  76 104 136 179 229 277 324
#     4   9  19  37  61  88 119 156 196 238 287 347
#     4   9  17  31  54  81 108 144 187 227 272 326
#     4  10  21  37  56  81 112 145 183 230 284 338
#     4  11  23  37  55  80 108 144 187 233 288 342
#
# _framework density 20.118801000000001
#
# number of rings (size 3 to 8) (size 9 to 14) (size 15 to 20)
#    0.000    2.467    1.333    1.600    0.933    2.667 
#    0.000    4.667    0.000    2.800    0.000    0.933 
#    0.000    0.000    0.000    0.000    0.000    0.000 
#
# Total GULP energy -334693.986735 kJ/mol
# GULP energy per Si atom -5578.233112 kJ/mol
# Density = 2.007301 g / cm^3
# Si number density = 20.118801 Si / 1000 Ang^3
#
#
#
# Elastic Constant Matrix: (Units=GPa)
#
#
# Indices 1 2 3 4 5 6 
#
# 1 35.2254 17.1341 6.4177 0.0000 0.0000 0.0000
# 2 17.1341 114.1449 81.1535 0.0002 0.0000 0.0000
# 3 6.4177 81.1535 149.8052 0.0002 0.0000 0.0000
# 4 0.0000 0.0002 0.0002 529.2346 0.0000 0.0000
# 5 0.0000 0.0000 0.0000 0.0000 17.5443 0.0000
# 6 0.0000 0.0000 0.0000 0.0000 0.0000 10.1483
#
#
#
# Elastic Compliance Matrix: (Units=1/GPa)
#
#
# Indices 1 2 3 4 5 6 
#
# 1 0.030967 -0.006026 0.001938 0.000000 0.000000 0.000000
# 2 -0.006026 0.015421 -0.008096 0.000000 0.000000 0.000000
# 3 0.001938 -0.008096 0.010978 0.000000 0.000000 0.000000
# 4 0.000000 0.000000 0.000000 0.001890 0.000000 0.000000
# 5 0.000000 0.000000 0.000000 0.000000 0.056999 0.000000
# 6 0.000000 0.000000 0.000000 0.000000 0.000000 0.098538
#
#
# Mechanical properties :
#
#
# Convention : Reuss Voigt Hill
#
# Bulk Modulus (GPa) = 30.30513 56.50959 43.40736
# Shear Modulus (GPa) = 19.98716 124.35011 72.16863
#
# Velocity S-wave (km/s) = 3.15533 7.87033 5.99576
# Velocity P-wave (km/s) = 5.32641 10.52323 8.33993
#
# Compressibility (1/GPa) = 0.03299771
#
# Stress axis : x y z
#
# Youngs Moduli (GPa) = 32.29271 64.84492 91.09001
#
# Poissons Ratio (x) = 0.39077 -0.17652
# Poissons Ratio (y) = 0.19460 0.73747
# Poissons Ratio (z) = -0.06258 0.52499
#
# Static dielectric constant tensor:
#      x y z
#    x 1.752720 0.000000 0.000000 
#    y 0.000000 1.721070 0.000000 
#    z 0.000000 0.000000 1.692870 
# 
# From -- ./inp_files/63758.got.cif
#   From: 2010.05.17/outbox.cif.g08.bks.cpg/sg71_32_cif.got.tgz:63758.got - 2010.06.03 16:22:01.
