data_PCOD9521923
_publ_section_title
;
Structure prediction by ZEFSAII (Michael W. Deem and Ramdas Pophale) SiO2 
 PCOD9521923
Probable space group: I M M M
;
_chemical_formula_sum "Si O2"
_cell_formula_units_Z 64
_cell_length_a 7.566423
_cell_length_b 12.758818
_cell_length_c 30.094423
_cell_angle_alpha 90.000000
_cell_angle_beta 90.000000
_cell_angle_gamma 90.000000
_cell_volume 2905.273885
_symmetry_space_group_name_H-M "I M M M"
_symmetry_group_IT_number 71
_symmetry_cell_setting 'orthorhombic'
loop_
_space_group_symop_operation_xyz
x,y,z
-x,-y,z
x,-y,-z
-x,y,-z
-x,-y,-z
x,y,-z
-x,y,z
x,-y,z
1/2+x,1/2+y,1/2+z
1/2-x,1/2-y,1/2+z
1/2+x,1/2-y,1/2-z
1/2-x,1/2+y,1/2-z
1/2-x,1/2-y,1/2-z
1/2+x,1/2+y,1/2-z
1/2-x,1/2+y,1/2+z
1/2+x,1/2-y,1/2+z
loop_
_atom_site_type_symbol
_atom_site_label
_atom_site_fract_x
_atom_site_fract_y
_atom_site_fract_z
Si Si1 0.287670 0.234447 0.082778
Si Si2 0.300513 0.690677 0.823613
Si Si3 0.785931 0.113509 0.766957
Si Si4 0.790452 0.000000 0.949331
Si Si5 0.716012 0.377528 0.000000
O O1 0.500000 0.242449 0.084819
O O2 0.217302 0.282212 0.129096
O O3 0.253711 0.110896 0.074184
O O4 0.227199 0.308923 0.042548
O O5 0.500000 0.651193 0.831721
O O6 0.302442 0.800362 0.797216
O O7 0.223016 0.619825 0.784254
O O8 0.000000 0.130424 0.766675
O O9 0.751271 0.000000 0.785771
O O10 0.000000 0.000000 0.952850
O O11 0.715750 0.000000 0.000000
O O12 0.771776 0.500000 0.000000
O O13 0.500000 0.378903 0.000000
#
# Coordination Sequence:
#
# PCOD9521923 Si02
#       5
#    16  16  16   8   8
#     4  10  20  35  56  81 109 140 177 220 269 318
#     4   9  19  33  50  75 103 134 172 214 257 307
#     4   9  18  33  51  72 102 138 173 212 258 305
#     4  11  23  37  55  79 109 143 179 221 269 322
#     4   9  18  33  55  82 108 135 172 219 264 311
#
# _framework density 22.028905000000002
#
# number of rings (size 3 to 8) (size 9 to 14) (size 15 to 20)
#    0.000    2.500    1.250    0.375    1.750    3.000 
#    0.000    5.000    0.000    1.500    0.000    3.500 
#    0.000    0.000    0.000    0.000    0.000    0.000 
#
# Total GULP energy -178330.016365 kJ/mol
# GULP energy per Si atom -5572.813011 kJ/mol
# Density = 2.197877 g / cm^3
# Si number density = 22.028905 Si / 1000 Ang^3
#
#
#
# Elastic Constant Matrix: (Units=GPa)
#
#
# Indices 1 2 3 4 5 6 
#
# 1 54.8319 -2.7083 0.5817 0.0000 0.0000 0.0000
# 2 -2.7083 106.5238 12.4075 0.0000 0.0000 0.0000
# 3 0.5817 12.4075 139.4467 0.0000 0.0000 0.0000
# 4 0.0000 0.0000 0.0000 -17.4954 0.0000 0.0000
# 5 0.0000 0.0000 0.0000 0.0000 35.3971 0.0000
# 6 0.0000 0.0000 0.0000 0.0000 0.0000 -72.7745
#
#
#
# Elastic Compliance Matrix: (Units=1/GPa)
#
#
# Indices 1 2 3 4 5 6 
#
# 1 0.018262 0.000478 -0.000119 0.000000 0.000000 0.000000
# 2 0.000478 0.009498 -0.000847 0.000000 0.000000 0.000000
# 3 -0.000119 -0.000847 0.007247 0.000000 0.000000 0.000000
# 4 0.000000 0.000000 0.000000 -0.057158 0.000000 0.000000
# 5 0.000000 0.000000 0.000000 0.000000 0.028251 0.000000
# 6 0.000000 0.000000 0.000000 0.000000 0.000000 -0.013741
#
#
# Mechanical properties :
#
#
# Convention : Reuss Voigt Hill
#
# Bulk Modulus (GPa) = 29.38372 35.70715 32.54543
# Shear Modulus (GPa) = 1068.51460 8.39355 538.45407
#
# Velocity S-wave (km/s) = 22.04777 1.95410 15.65124
# Velocity P-wave (km/s) = 25.71977 4.61907 18.47759
#
# Compressibility (1/GPa) = 0.03403245
#
# Stress axis : x y z
#
# Youngs Moduli (GPa) = 54.75726 105.28093 137.98686
#
# Poissons Ratio (x) = -0.05034 0.01638
# Poissons Ratio (y) = -0.02618 0.11689
# Poissons Ratio (z) = 0.00650 0.08919
#
# Static dielectric constant tensor:
#      x y z
#    x 1.855080 0.000000 0.000000 
#    y 0.000000 1.787930 0.000000 
#    z 0.000000 0.000000 1.837980 
# 
# From -- ./inp_files/67720.got.cif
#   From: 2010.05.17/outbox.cif.g08.bks.cpg/sg71_34_cif.got.tgz:67720.got - 2010.06.03 16:22:01.
