data_PCOD9521562
_publ_section_title
;
Structure prediction by ZEFSAII (Michael W. Deem and Ramdas Pophale) SiO2 
 PCOD9521562
Probable space group: I M M M
;
_chemical_formula_sum "Si O2"
_cell_formula_units_Z 72
_cell_length_a 13.327009
_cell_length_b 8.406536
_cell_length_c 26.521842
_cell_angle_alpha 90.000000
_cell_angle_beta 90.000000
_cell_angle_gamma 90.000000
_cell_volume 2971.347541
_symmetry_space_group_name_H-M "I M M M"
_symmetry_group_IT_number 71
_symmetry_cell_setting 'orthorhombic'
loop_
_space_group_symop_operation_xyz
x,y,z
-x,-y,z
x,-y,-z
-x,y,-z
-x,-y,-z
x,y,-z
-x,y,z
x,-y,z
1/2+x,1/2+y,1/2+z
1/2-x,1/2-y,1/2+z
1/2+x,1/2-y,1/2-z
1/2-x,1/2+y,1/2-z
1/2-x,1/2-y,1/2-z
1/2+x,1/2+y,1/2-z
1/2-x,1/2+y,1/2+z
1/2+x,1/2-y,1/2+z
loop_
_atom_site_type_symbol
_atom_site_label
_atom_site_fract_x
_atom_site_fract_y
_atom_site_fract_z
Si Si1 0.169401 0.815178 0.319126
Si Si2 0.117790 0.000000 0.942362
Si Si3 0.815575 0.329020 0.057807
Si Si4 0.386748 0.309419 0.296770
Si Si5 0.887038 0.683732 0.577734
O O1 0.288830 0.780691 0.317351
O O2 0.124137 0.786647 0.263896
O O3 0.121511 0.706925 0.362114
O O4 0.151927 0.000000 0.331899
O O5 0.146704 0.833735 0.917510
O O6 0.000000 0.000000 0.946125
O O7 0.159980 0.000000 0.000000
O O8 0.841446 0.500000 0.080182
O O9 0.696355 0.302185 0.056665
O O10 0.854152 0.329644 0.000000
O O11 0.500000 0.261776 0.312337
O O12 0.376321 0.500000 0.305866
O O13 0.862633 0.500000 0.564899
O O14 0.000000 0.716453 0.561453
#
# Coordination Sequence:
#
# PCOD9521562 Si02
#       5
#    16   8  16  16  16
#     4  10  20  34  54  81 112 144 186 239 288 346
#     4   9  18  36  61  87 117 151 190 238 289 343
#     4  10  21  38  61  89 121 156 196 243 293 349
#     4   9  18  34  55  78 108 147 187 231 288 348
#     4  11  23  38  58  83 114 153 195 241 294 352
#
# _framework density 24.231428999999999
#
# number of rings (size 3 to 8) (size 9 to 14) (size 15 to 20)
#    0.000    2.111    1.111    2.000    0.000    4.889 
#    0.000    5.556    0.000    2.667    0.000    0.000 
#    0.000    0.000    0.000    0.000    0.000    0.000 
#
# Total GULP energy -201296.231655 kJ/mol
# GULP energy per Si atom -5591.561990 kJ/mol
# Density = 2.417628 g / cm^3
# Si number density = 24.231429 Si / 1000 Ang^3
#
#
#
# Elastic Constant Matrix: (Units=GPa)
#
#
# Indices 1 2 3 4 5 6 
#
# 1 113.1717 34.0268 -6.7906 0.0000 0.0000 0.0000
# 2 34.0268 149.0117 13.0982 0.0000 0.0000 0.0000
# 3 -6.7906 13.0982 64.8830 0.0000 0.0000 0.0000
# 4 0.0000 0.0000 0.0000 0.2819 0.0000 0.0000
# 5 0.0000 0.0000 0.0000 0.0000 22.5666 0.0000
# 6 0.0000 0.0000 0.0000 0.0000 0.0000 12.3663
#
#
#
# Elastic Compliance Matrix: (Units=1/GPa)
#
#
# Indices 1 2 3 4 5 6 
#
# 1 0.009625 -0.002328 0.001477 0.000000 0.000000 0.000000
# 2 -0.002328 0.007395 -0.001736 0.000000 0.000000 0.000000
# 3 0.001477 -0.001736 0.015918 0.000000 0.000000 0.000000
# 4 0.000000 0.000000 0.000000 3.547633 0.000000 0.000000
# 5 0.000000 0.000000 0.000000 0.000000 0.044313 0.000000
# 6 0.000000 0.000000 0.000000 0.000000 0.000000 0.080865
#
#
# Mechanical properties :
#
#
# Convention : Reuss Voigt Hill
#
# Bulk Modulus (GPa) = 36.01875 45.30392 40.66134
# Shear Modulus (GPa) = 1.34402 26.15840 13.75121
#
# Velocity S-wave (km/s) = 0.74556 3.28918 2.38480
# Velocity P-wave (km/s) = 3.95448 5.75863 4.93962
#
# Compressibility (1/GPa) = 0.02776332
#
# Stress axis : x y z
#
# Youngs Moduli (GPa) = 103.90038 135.22591 62.82391
#
# Poissons Ratio (x) = 0.31475 -0.09280
# Poissons Ratio (y) = 0.24184 0.10909
# Poissons Ratio (z) = -0.15348 0.23482
#
# Static dielectric constant tensor:
#      x y z
#    x 1.896140 0.000000 0.000000 
#    y 0.000000 1.907390 0.000000 
#    z 0.000000 0.000000 1.981970 
# 
# From -- ./inp_files/69708.got.cif
#   From: 2010.05.17/outbox.cif.g08.bks.cpg/sg71_35_cif.got.tgz:69708.got - 2010.06.03 16:22:01.
