data_PCOD9521498
_publ_section_title
;
Structure prediction by ZEFSAII (Michael W. Deem and Ramdas Pophale) SiO2 
 PCOD9521498
Probable space group: I M M M
;
_chemical_formula_sum "Si O2"
_cell_formula_units_Z 88
_cell_length_a 25.361911
_cell_length_b 8.613640
_cell_length_c 25.487107
_cell_angle_alpha 90.000000
_cell_angle_beta 90.000000
_cell_angle_gamma 90.000000
_cell_volume 5567.871878
_symmetry_space_group_name_H-M "I M M M"
_symmetry_group_IT_number 71
_symmetry_cell_setting 'orthorhombic'
loop_
_space_group_symop_operation_xyz
x,y,z
-x,-y,z
x,-y,-z
-x,y,-z
-x,-y,-z
x,y,-z
-x,y,z
x,-y,z
1/2+x,1/2+y,1/2+z
1/2-x,1/2-y,1/2+z
1/2+x,1/2-y,1/2-z
1/2-x,1/2+y,1/2-z
1/2-x,1/2-y,1/2-z
1/2+x,1/2+y,1/2-z
1/2-x,1/2+y,1/2+z
1/2+x,1/2-y,1/2+z
loop_
_atom_site_type_symbol
_atom_site_label
_atom_site_fract_x
_atom_site_fract_y
_atom_site_fract_z
Si Si1 0.243954 0.814356 0.335204
Si Si2 0.220771 0.814044 0.939055
Si Si3 0.333334 0.186012 0.748114
Si Si4 0.890842 0.317206 0.100553
Si Si5 0.061233 0.174390 0.000000
Si Si6 0.560999 0.685651 0.706889
O O1 0.240095 0.742081 0.393145
O O2 0.298022 0.769082 0.303453
O O3 0.197205 0.758367 0.297335
O O4 0.244188 0.000000 0.339411
O O5 0.166160 0.743957 0.917450
O O6 0.218189 0.000000 0.938615
O O7 0.229770 0.765436 0.000000
O O8 0.393349 0.242688 0.743422
O O9 0.331824 0.000000 0.751218
O O10 0.887771 0.500000 0.111802
O O11 0.918042 0.233051 0.149403
O O12 0.924716 0.273924 0.050292
O O13 0.000000 0.150342 0.000000
O O14 0.087101 0.000000 0.000000
O O15 0.500000 0.737512 0.714440
O O16 0.561836 0.500000 0.711874
#
# Coordination Sequence:
#
# PCOD9521498 Si02
#       6
#    16  16  16  16   8  16
#     4  10  20  34  54  78 103 133 170 214 261 311
#     4  11  22  35  53  74 102 137 172 213 260 308
#     4  10  20  34  54  78 103 133 170 214 261 311
#     4  12  23  34  49  69  94 127 170 216 259 302
#     4  11  23  37  49  61  83 121 169 217 262 303
#     4  11  23  37  53  73 101 136 172 213 260 308
#
# _framework density 15.804961
#
# number of rings (size 3 to 8) (size 9 to 14) (size 15 to 20)
#    0.000    1.182    2.727    4.636    0.000    6.909 
#    0.000    0.000    0.000    0.000    0.000    0.000 
#    0.000    0.727    0.000    7.636    0.000    3.273 
#
# Total GULP energy -245491.624348 kJ/mol
# GULP energy per Si atom -5579.355099 kJ/mol
# Density = 1.576899 g / cm^3
# Si number density = 15.804961 Si / 1000 Ang^3
#
#
#
# Elastic Constant Matrix: (Units=GPa)
#
#
# Indices 1 2 3 4 5 6 
#
# 1 74.0583 9.6413 43.4271 0.0000 0.0000 0.0000
# 2 9.6413 41.6770 14.2916 0.0000 0.0000 0.0000
# 3 43.4271 14.2916 93.4710 0.0000 0.0000 0.0000
# 4 0.0000 0.0000 0.0000 26.8706 0.0000 0.0000
# 5 0.0000 0.0000 0.0000 0.0000 16.0509 0.0000
# 6 0.0000 0.0000 0.0000 0.0000 0.0000 21.7916
#
#
#
# Elastic Compliance Matrix: (Units=1/GPa)
#
#
# Indices 1 2 3 4 5 6 
#
# 1 0.018638 -0.001416 -0.008443 0.000000 0.000000 0.000000
# 2 -0.001416 0.025429 -0.003230 0.000000 0.000000 0.000000
# 3 -0.008443 -0.003230 0.015115 0.000000 0.000000 0.000000
# 4 0.000000 0.000000 0.000000 0.037215 0.000000 0.000000
# 5 0.000000 0.000000 0.000000 0.000000 0.062302 0.000000
# 6 0.000000 0.000000 0.000000 0.000000 0.000000 0.045889
#
#
# Mechanical properties :
#
#
# Convention : Reuss Voigt Hill
#
# Bulk Modulus (GPa) = 30.29953 38.21402 34.25678
# Shear Modulus (GPa) = 20.68096 22.39905 21.54001
#
# Velocity S-wave (km/s) = 3.62126 3.76868 3.69570
# Velocity P-wave (km/s) = 6.05782 6.57025 6.31923
#
# Compressibility (1/GPa) = 0.03300381
#
# Stress axis : x y z
#
# Youngs Moduli (GPa) = 53.65371 39.32470 66.15982
#
# Poissons Ratio (x) = 0.05570 0.55857
# Poissons Ratio (y) = 0.07600 0.21370
# Poissons Ratio (z) = 0.45298 0.12702
#
# Static dielectric constant tensor:
#      x y z
#    x 1.552500 0.000000 0.000000 
#    y 0.000000 1.546500 0.000000 
#    z 0.000000 0.000000 1.604130 
# 
# From -- ./inp_files/61102.got.cif
#   From: 2010.05.17/outbox.cif.g08.bks.cpg/sg71_31_cif.got.tgz:61102.got - 2010.06.03 16:22:01.
