data_PCOD9521916
_publ_section_title
;
Structure prediction by ZEFSAII (Michael W. Deem and Ramdas Pophale) SiO2 
 PCOD9521916
Probable space group: I M M M
;
_chemical_formula_sum "Si O2"
_cell_formula_units_Z 82
_cell_length_a 7.709240
_cell_length_b 25.167759
_cell_length_c 20.533689
_cell_angle_alpha 90.000000
_cell_angle_beta 90.000000
_cell_angle_gamma 90.000000
_cell_volume 3984.034520
_symmetry_space_group_name_H-M "I M M M"
_symmetry_group_IT_number 71
_symmetry_cell_setting 'orthorhombic'
loop_
_space_group_symop_operation_xyz
x,y,z
-x,-y,z
x,-y,-z
-x,y,-z
-x,-y,-z
x,y,-z
-x,y,z
x,-y,z
1/2+x,1/2+y,1/2+z
1/2-x,1/2-y,1/2+z
1/2+x,1/2-y,1/2-z
1/2-x,1/2+y,1/2-z
1/2-x,1/2-y,1/2-z
1/2+x,1/2+y,1/2-z
1/2-x,1/2+y,1/2+z
1/2+x,1/2-y,1/2+z
loop_
_atom_site_type_symbol
_atom_site_label
_atom_site_fract_x
_atom_site_fract_y
_atom_site_fract_z
Si Si1 0.705953 0.356030 0.392995
Si Si2 0.206362 0.616439 0.859661
Si Si3 0.206168 0.500000 0.114195
Si Si4 0.500000 0.500000 0.000000
Si Si5 0.292420 0.770335 0.000000
Si Si6 0.201370 0.351513 0.000000
Si Si7 0.713059 0.438682 0.500000
Si Si8 0.799354 0.811122 0.760333
O O1 0.500000 0.366249 0.387216
O O2 0.733147 0.303961 0.437559
O O3 0.773194 0.405278 0.436479
O O4 0.782581 0.341853 0.322270
O O5 0.233072 0.554331 0.846181
O O6 0.278658 0.627608 0.932312
O O7 0.276434 0.655393 0.805159
O O8 0.000000 0.626590 0.862051
O O9 0.000000 0.500000 0.092787
O O10 0.344925 0.500000 0.056357
O O11 0.500000 0.766070 0.000000
O O12 0.214096 0.711833 0.000000
O O13 0.000000 0.368746 0.000000
O O14 0.766572 0.500000 0.500000
O O15 0.500000 0.437764 0.500000
O O16 0.750000 0.750000 0.750000
O O17 0.000000 0.808589 0.776494
#
# Coordination Sequence:
#
# PCOD9521916 Si02
#       8
#    16  16   8   2   8   8   8  16
#     4   9  19  36  55  79 112 151 186 231 290 355
#     4  10  22  41  62  84 119 160 206 255 309 372
#     4  10  23  43  63  92 127 166 211 262 323 383
#     4  12  22  36  72  94 120 168 218 266 328 368
#     4  11  21  32  52  84 114 143 187 243 292 354
#     4  10  20  35  56  80 107 150 193 241 298 354
#     4   8  14  30  58  84 104 133 180 228 282 342
#     4  11  23  38  58  86 120 159 204 249 306 372
#
# _framework density 20.582149999999999
#
# number of rings (size 3 to 8) (size 9 to 14) (size 15 to 20)
#    0.000    2.049    0.000    3.951    1.366    8.585 
#    3.512    0.000    0.000    4.683    0.000    0.000 
#    0.000    0.000    0.000    0.000    0.000    0.000 
#
# Total GULP energy -228506.915634 kJ/mol
# GULP energy per Si atom -5573.339406 kJ/mol
# Density = 2.053530 g / cm^3
# Si number density = 20.582150 Si / 1000 Ang^3
#
#
#
# Elastic Constant Matrix: (Units=GPa)
#
#
# Indices 1 2 3 4 5 6 
#
# 1 45.5264 9.6275 -1.9757 0.0000 0.0000 0.0000
# 2 9.6275 168.5235 82.7511 0.0000 0.0000 0.0000
# 3 -1.9757 82.7511 146.0221 0.0002 0.0001 0.0000
# 4 0.0000 0.0000 0.0002 33.4815 -0.0004 0.0000
# 5 0.0000 0.0000 0.0001 -0.0004 -38.7307 0.0000
# 6 0.0000 0.0000 0.0000 0.0000 0.0000 10.9143
#
#
#
# Elastic Compliance Matrix: (Units=1/GPa)
#
#
# Indices 1 2 3 4 5 6 
#
# 1 0.022447 -0.001983 0.001428 0.000000 0.000000 0.000000
# 2 -0.001983 0.008397 -0.004785 0.000000 0.000000 0.000000
# 3 0.001428 -0.004785 0.009580 0.000000 0.000000 0.000000
# 4 0.000000 0.000000 0.000000 0.029867 0.000000 0.000000
# 5 0.000000 0.000000 0.000000 0.000000 -0.025819 0.000000
# 6 0.000000 0.000000 0.000000 0.000000 0.000000 0.091623
#
#
# Mechanical properties :
#
#
# Convention : Reuss Voigt Hill
#
# Bulk Modulus (GPa) = 33.62372 60.09756 46.86064
# Shear Modulus (GPa) = 31.91009 19.11094 25.51052
#
# Velocity S-wave (km/s) = 3.94175 3.05047 3.52440
# Velocity P-wave (km/s) = 6.09002 6.45518 6.27526
#
# Compressibility (1/GPa) = 0.02974091
#
# Stress axis : x y z
#
# Youngs Moduli (GPa) = 44.55006 119.08964 104.38927
#
# Poissons Ratio (x) = 0.23620 -0.14904
# Poissons Ratio (y) = 0.08836 0.49955
# Poissons Ratio (z) = -0.06360 0.56990
#
# Static dielectric constant tensor:
#      x y z
#    x 1.782570 0.000000 0.000000 
#    y 0.000000 1.723820 0.000000 
#    z 0.000000 0.000000 1.769690 
# 
# From -- ./inp_files/50467.got.cif
#   From: 2010.05.17/outbox.cif.g08.bks.cpg/sg71_26_cif.got.tgz:50467.got - 2010.06.03 16:22:01.
