data_PCOD9521846
_publ_section_title
;
Structure prediction by ZEFSAII (Michael W. Deem and Ramdas Pophale) SiO2 
 PCOD9521846
Probable space group: I M M M
;
_chemical_formula_sum "Si O2"
_cell_formula_units_Z 104
_cell_length_a 20.977702
_cell_length_b 30.535273
_cell_length_c 7.602419
_cell_angle_alpha 90.000000
_cell_angle_beta 90.000000
_cell_angle_gamma 90.000000
_cell_volume 4869.804431
_symmetry_space_group_name_H-M "I M M M"
_symmetry_group_IT_number 71
_symmetry_cell_setting 'orthorhombic'
loop_
_space_group_symop_operation_xyz
x,y,z
-x,-y,z
x,-y,-z
-x,y,-z
-x,-y,-z
x,y,-z
-x,y,z
x,-y,z
1/2+x,1/2+y,1/2+z
1/2-x,1/2-y,1/2+z
1/2+x,1/2-y,1/2-z
1/2-x,1/2+y,1/2-z
1/2-x,1/2-y,1/2-z
1/2+x,1/2+y,1/2-z
1/2-x,1/2+y,1/2+z
1/2+x,1/2-y,1/2+z
loop_
_atom_site_type_symbol
_atom_site_label
_atom_site_fract_x
_atom_site_fract_y
_atom_site_fract_z
Si Si1 0.569289 0.858855 0.287094
Si Si2 0.320898 0.694395 0.705820
Si Si3 0.500000 0.448852 0.284398
Si Si4 0.623464 0.393760 0.714811
Si Si5 0.755847 0.049795 0.211356
Si Si6 0.179252 0.708583 0.706495
Si Si7 0.890518 0.548279 0.795485
O O1 0.570977 0.860407 0.500000
O O2 0.500000 0.841688 0.233067
O O3 0.627296 0.828596 0.231422
O O4 0.577676 0.908473 0.219665
O O5 0.313841 0.683655 0.500000
O O6 0.367865 0.656640 0.774111
O O7 0.248621 0.694780 0.781110
O O8 0.342706 0.744564 0.719805
O O9 0.500000 0.500000 0.229548
O O10 0.500000 0.449566 0.500000
O O11 0.437461 0.421757 0.226345
O O12 0.619833 0.395127 0.500000
O O13 0.689213 0.417414 0.767934
O O14 0.685616 0.056228 0.287727
O O15 0.775846 0.000000 0.251382
O O16 0.749246 0.053620 0.000000
O O17 0.188364 0.716177 0.500000
O O18 0.902754 0.500000 0.717289
O O19 0.909679 0.545956 0.000000
#
# Coordination Sequence:
#
# PCOD9521846 Si02
#       7
#    16  16   8  16  16  16  16
#     4  10  21  36  53  74 101 135 170 203 246 301
#     4   9  18  33  53  76 103 132 167 211 259 308
#     4   9  16  26  42  68 103 137 169 207 250 297
#     4   9  16  27  44  69 100 134 169 207 250 297
#     4   9  16  27  46  72 101 132 166 206 252 296
#     4  10  20  35  55  77 101 131 167 212 261 307
#     4   9  18  32  50  74 102 130 164 206 247 292
#
# _framework density 21.356093000000001
#
# number of rings (size 3 to 8) (size 9 to 14) (size 15 to 20)
#    0.000    2.692    0.000    1.846    0.000    4.923 
#    1.385    2.308    0.000    0.000    0.000    4.846 
#    0.000    4.923    0.000    0.000    0.000    0.000 
#
# Total GULP energy -290098.165072 kJ/mol
# GULP energy per Si atom -5578.810867 kJ/mol
# Density = 2.130749 g / cm^3
# Si number density = 21.356093 Si / 1000 Ang^3
#
#
#
# Elastic Constant Matrix: (Units=GPa)
#
#
# Indices 1 2 3 4 5 6 
#
# 1 60.7225 66.8359 1.3373 0.0000 0.0000 0.0000
# 2 66.8359 148.0800 1.0792 0.0000 0.0000 0.0000
# 3 1.3373 1.0792 39.2283 0.0000 0.0000 0.0000
# 4 0.0000 0.0000 0.0000 8.8757 0.0000 0.0000
# 5 0.0000 0.0000 0.0000 0.0000 8.8642 0.0000
# 6 0.0000 0.0000 0.0000 0.0000 0.0000 21.7100
#
#
#
# Elastic Compliance Matrix: (Units=1/GPa)
#
#
# Indices 1 2 3 4 5 6 
#
# 1 0.032746 -0.014775 -0.000710 0.000000 0.000000 0.000000
# 2 -0.014775 0.013421 0.000134 0.000000 0.000000 0.000000
# 3 -0.000710 0.000134 0.025512 0.000000 0.000000 0.000000
# 4 0.000000 0.000000 0.000000 0.112668 0.000000 0.000000
# 5 0.000000 0.000000 0.000000 0.000000 0.112813 0.000000
# 6 0.000000 0.000000 0.000000 0.000000 0.000000 0.046062
#
#
# Mechanical properties :
#
#
# Convention : Reuss Voigt Hill
#
# Bulk Modulus (GPa) = 24.40280 42.94839 33.67559
# Shear Modulus (GPa) = 12.90051 19.80855 16.35453
#
# Velocity S-wave (km/s) = 2.46044 3.04885 2.77031
# Velocity P-wave (km/s) = 4.41850 5.70511 5.10252
#
# Compressibility (1/GPa) = 0.04097891
#
# Stress axis : x y z
#
# Youngs Moduli (GPa) = 30.53769 74.51130 39.19675
#
# Poissons Ratio (x) = 1.10090 0.02782
# Poissons Ratio (y) = 0.45119 -0.00527
# Poissons Ratio (z) = 0.02168 -0.01002
#
# Static dielectric constant tensor:
#      x y z
#    x 1.742620 0.000000 0.000000 
#    y 0.000000 1.773570 0.000000 
#    z 0.000000 0.000000 1.820290 
# 
# From -- ./inp_files/11525.got.cif
#   From: 2010.05.17/outbox.cif.g08.bks.cpg/sg71_6_cif.got.tgz:11525.got - 2010.06.03 16:22:01.
