data_PCOD9521885
_publ_section_title
;
Structure prediction by ZEFSAII (Michael W. Deem and Ramdas Pophale) SiO2 
 PCOD9521885
Probable space group: I M M M
;
_chemical_formula_sum "Si O2"
_cell_formula_units_Z 120
_cell_length_a 20.028586
_cell_length_b 22.074098
_cell_length_c 14.864281
_cell_angle_alpha 90.000000
_cell_angle_beta 90.000000
_cell_angle_gamma 90.000000
_cell_volume 6571.691422
_symmetry_space_group_name_H-M "I M M M"
_symmetry_group_IT_number 71
_symmetry_cell_setting 'orthorhombic'
loop_
_space_group_symop_operation_xyz
x,y,z
-x,-y,z
x,-y,-z
-x,y,-z
-x,-y,-z
x,y,-z
-x,y,z
x,-y,z
1/2+x,1/2+y,1/2+z
1/2-x,1/2-y,1/2+z
1/2+x,1/2-y,1/2-z
1/2-x,1/2+y,1/2-z
1/2-x,1/2-y,1/2-z
1/2+x,1/2+y,1/2-z
1/2-x,1/2+y,1/2+z
1/2+x,1/2-y,1/2+z
loop_
_atom_site_type_symbol
_atom_site_label
_atom_site_fract_x
_atom_site_fract_y
_atom_site_fract_z
Si Si1 0.576632 0.676413 0.280502
Si Si2 0.346467 0.711282 0.898845
Si Si3 0.923219 0.303693 0.854514
Si Si4 0.500000 0.066471 0.896142
Si Si5 0.731850 0.069588 0.781799
Si Si6 0.115503 0.344154 0.341951
Si Si7 0.130495 0.930564 0.893584
Si Si8 0.783275 0.361474 0.900808
O O1 0.500000 0.684804 0.253233
O O2 0.619519 0.680501 0.188712
O O3 0.592676 0.732272 0.347840
O O4 0.585806 0.616017 0.338021
O O5 0.365397 0.782153 0.891929
O O6 0.267712 0.695399 0.890648
O O7 0.366865 0.690380 0.000000
O O8 0.918872 0.323837 0.750912
O O9 0.860283 0.339188 0.896189
O O10 0.000000 0.313029 0.887397
O O11 0.435942 0.107976 0.880489
O O12 0.500000 0.000000 0.848892
O O13 0.500000 0.055427 0.000000
O O14 0.681927 0.118069 0.824002
O O15 0.799232 0.071908 0.839993
O O16 0.735648 0.092088 0.678390
O O17 0.707455 0.000000 0.784478
O O18 0.106316 0.000000 0.888665
O O19 0.137320 0.915514 0.000000
O O20 0.771733 0.387645 0.000000
#
# Coordination Sequence:
#
# PCOD9521885 Si02
#       8
#    16  16  16   8  16  16  16  16
#     4  10  21  37  58  84 116 153 192 236 289 348
#     4  10  21  36  58  89 119 151 191 239 295 349
#     4   9  19  35  56  83 115 150 186 232 286 343
#     4  11  22  34  50  78 115 153 194 237 287 349
#     4  10  21  38  60  82 112 151 191 241 292 343
#     4  10  20  35  55  80 112 150 194 238 286 344
#     4  10  22  39  59  84 113 148 193 241 292 349
#     4  10  21  36  59  88 116 150 191 236 291 350
#
# _framework density 18.260138999999999
#
# number of rings (size 3 to 8) (size 9 to 14) (size 15 to 20)
#    0.000    2.067    2.000    0.800    2.800    4.533 
#    0.000    3.333    0.000    0.400    0.000    2.800 
#    0.000    0.000    0.000    0.000    0.000    0.000 
#
# Total GULP energy -334018.310114 kJ/mol
# GULP energy per Si atom -5566.971835 kJ/mol
# Density = 1.821858 g / cm^3
# Si number density = 18.260139 Si / 1000 Ang^3
#
#
#
# Elastic Constant Matrix: (Units=GPa)
#
#
# Indices 1 2 3 4 5 6 
#
# 1 40.8115 7.4720 10.8829 0.0000 0.0000 0.0000
# 2 7.4720 79.2968 28.7221 0.0000 0.0000 0.0000
# 3 10.8829 28.7221 95.9116 0.0000 0.0000 0.0000
# 4 0.0000 0.0000 0.0000 28.2046 0.0000 0.0000
# 5 0.0000 0.0000 0.0000 0.0000 6.6916 0.0000
# 6 0.0000 0.0000 0.0000 0.0000 0.0000 12.4289
#
#
#
# Elastic Compliance Matrix: (Units=1/GPa)
#
#
# Indices 1 2 3 4 5 6 
#
# 1 0.025429 -0.001515 -0.002432 0.000000 0.000000 0.000000
# 2 -0.001515 0.014235 -0.004091 0.000000 0.000000 0.000000
# 3 -0.002432 -0.004091 0.011927 0.000000 0.000000 0.000000
# 4 0.000000 0.000000 0.000000 0.035455 0.000000 0.000000
# 5 0.000000 0.000000 0.000000 0.000000 0.149441 0.000000
# 6 0.000000 0.000000 0.000000 0.000000 0.000000 0.080458
#
#
# Mechanical properties :
#
#
# Convention : Reuss Voigt Hill
#
# Bulk Modulus (GPa) = 28.15670 34.46376 31.31023
# Shear Modulus (GPa) = 14.49866 20.72789 17.61327
#
# Velocity S-wave (km/s) = 2.82087 3.37284 3.10913
# Velocity P-wave (km/s) = 5.10519 5.83805 5.48388
#
# Compressibility (1/GPa) = 0.03551553
#
# Stress axis : x y z
#
# Youngs Moduli (GPa) = 39.32560 70.24706 83.84127
#
# Poissons Ratio (x) = 0.10645 0.20386
# Poissons Ratio (y) = 0.05959 0.34300
# Poissons Ratio (z) = 0.09562 0.28739
#
# Static dielectric constant tensor:
#      x y z
#    x 1.655190 0.000000 0.000000 
#    y 0.000000 1.689080 0.000000 
#    z 0.000000 0.000000 1.635350 
# 
# From -- ./inp_files/38438.got.cif
#   From: 2010.05.17/outbox.cif.g08.bks.cpg/sg71_20_cif.got.tgz:38438.got - 2010.06.03 16:22:01.
