data_PCOD9521202
_publ_section_title
;
Structure prediction by ZEFSAII (Michael W. Deem and Ramdas Pophale) SiO2 
 PCOD9521202
Probable space group: I M M M
;
_chemical_formula_sum "Si O2"
_cell_formula_units_Z 96
_cell_length_a 27.195298
_cell_length_b 14.841683
_cell_length_c 13.042289
_cell_angle_alpha 90.000000
_cell_angle_beta 90.000000
_cell_angle_gamma 90.000000
_cell_volume 5264.180751
_symmetry_space_group_name_H-M "I M M M"
_symmetry_group_IT_number 71
_symmetry_cell_setting 'orthorhombic'
loop_
_space_group_symop_operation_xyz
x,y,z
-x,-y,z
x,-y,-z
-x,y,-z
-x,-y,-z
x,y,-z
-x,y,z
x,-y,z
1/2+x,1/2+y,1/2+z
1/2-x,1/2-y,1/2+z
1/2+x,1/2-y,1/2-z
1/2-x,1/2+y,1/2-z
1/2-x,1/2-y,1/2-z
1/2+x,1/2+y,1/2-z
1/2-x,1/2+y,1/2+z
1/2+x,1/2-y,1/2+z
loop_
_atom_site_type_symbol
_atom_site_label
_atom_site_fract_x
_atom_site_fract_y
_atom_site_fract_z
Si Si1 0.854175 0.275713 0.388718
Si Si2 0.193437 0.894996 0.699846
Si Si3 0.559228 0.268571 0.500000
Si Si4 0.398698 0.600725 0.326860
Si Si5 0.634265 0.107094 0.500000
Si Si6 0.190900 0.393919 0.788882
Si Si7 0.942110 0.157796 0.385384
O O1 0.843418 0.315233 0.500000
O O2 0.827945 0.178185 0.378102
O O3 0.835856 0.336024 0.296811
O O4 0.911554 0.250680 0.380459
O O5 0.159022 0.883540 0.800817
O O6 0.250781 0.876189 0.714846
O O7 0.188175 0.000000 0.668031
O O8 0.500000 0.261186 0.500000
O O9 0.577870 0.325716 0.401284
O O10 0.587318 0.172851 0.500000
O O11 0.404921 0.500000 0.368981
O O12 0.423679 0.604464 0.214128
O O13 0.667356 0.125476 0.600374
O O14 0.621727 0.000000 0.500000
O O15 0.184091 0.500000 0.769285
O O16 0.931944 0.119054 0.500000
O O17 0.000000 0.170440 0.377657
#
# Coordination Sequence:
#
# PCOD9521202 Si02
#       7
#    16  16   8  16   8  16  16
#     4  10  20  33  53  82 112 144 180 221 271 330
#     4   9  19  36  55  78 111 146 182 224 268 320
#     4  12  25  39  58  83 115 152 189 236 288 336
#     4  10  21  37  55  81 116 152 187 222 267 333
#     4  10  22  40  63  84 106 143 194 247 288 334
#     4  10  21  38  58  82 110 144 184 230 283 332
#     4   9  18  33  53  77 107 144 186 229 271 313
#
# _framework density 18.236456
#
# number of rings (size 3 to 8) (size 9 to 14) (size 15 to 20)
#    0.000    2.167    0.000    3.250    1.167    2.833 
#    1.500    4.167    0.000    1.500    0.000    2.333 
#    0.000    0.000    0.000    0.000    0.000    0.167 
#
# Total GULP energy -267628.831891 kJ/mol
# GULP energy per Si atom -5575.600664 kJ/mol
# Density = 1.819495 g / cm^3
# Si number density = 18.236456 Si / 1000 Ang^3
#
#
#
# Elastic Constant Matrix: (Units=GPa)
#
#
# Indices 1 2 3 4 5 6 
#
# 1 121.2366 59.0999 55.9745 0.0000 0.0000 0.0000
# 2 59.0999 63.1046 56.2194 0.0000 0.0000 0.0000
# 3 55.9745 56.2194 128.3992 0.0000 0.0000 0.0000
# 4 0.0000 0.0000 0.0000 1.5511 0.0000 0.0000
# 5 0.0000 0.0000 0.0000 0.0000 17.9573 0.0000
# 6 0.0000 0.0000 0.0000 0.0000 0.0000 14.9794
#
#
#
# Elastic Compliance Matrix: (Units=1/GPa)
#
#
# Indices 1 2 3 4 5 6 
#
# 1 0.015210 -0.013670 -0.000645 0.000000 0.000000 0.000000
# 2 -0.013670 0.038267 -0.010796 0.000000 0.000000 0.000000
# 3 -0.000645 -0.010796 0.012797 0.000000 0.000000 0.000000
# 4 0.000000 0.000000 0.000000 0.644685 0.000000 0.000000
# 5 0.000000 0.000000 0.000000 0.000000 0.055688 0.000000
# 6 0.000000 0.000000 0.000000 0.000000 0.000000 0.066758
#
#
# Mechanical properties :
#
#
# Convention : Reuss Voigt Hill
#
# Bulk Modulus (GPa) = 62.30000 72.81425 67.55713
# Shear Modulus (GPa) = 5.62444 16.32735 10.97590
#
# Velocity S-wave (km/s) = 1.75809 2.99543 2.45596
# Velocity P-wave (km/s) = 6.19336 7.20957 6.72070
#
# Compressibility (1/GPa) = 0.01605136
#
# Stress axis : x y z
#
# Youngs Moduli (GPa) = 65.74617 26.13209 78.14613
#
# Poissons Ratio (x) = 0.35722 0.05043
# Poissons Ratio (y) = 0.89874 0.84366
# Poissons Ratio (z) = 0.04243 0.28212
#
# Static dielectric constant tensor:
#      x y z
#    x 1.639370 0.000000 0.000000 
#    y 0.000000 1.621710 0.000000 
#    z 0.000000 0.000000 1.631880 
# 
# From -- ./inp_files/29991.got.cif
#   From: 2010.05.17/outbox.cif.g08.bks.cpg/sg71_15_cif.got.tgz:29991.got - 2010.06.03 16:22:01.
