data_PCOD9521281
_publ_section_title
;
Structure prediction by ZEFSAII (Michael W. Deem and Ramdas Pophale) SiO2 
 PCOD9521281
Probable space group: I M M M
;
_chemical_formula_sum "Si O2"
_cell_formula_units_Z 104
_cell_length_a 28.150233
_cell_length_b 8.884493
_cell_length_c 24.299001
_cell_angle_alpha 90.000000
_cell_angle_beta 90.000000
_cell_angle_gamma 90.000000
_cell_volume 6077.193467
_symmetry_space_group_name_H-M "I M M M"
_symmetry_group_IT_number 71
_symmetry_cell_setting 'orthorhombic'
loop_
_space_group_symop_operation_xyz
x,y,z
-x,-y,z
x,-y,-z
-x,y,-z
-x,-y,-z
x,y,-z
-x,y,z
x,-y,z
1/2+x,1/2+y,1/2+z
1/2-x,1/2-y,1/2+z
1/2+x,1/2-y,1/2-z
1/2-x,1/2+y,1/2-z
1/2-x,1/2-y,1/2-z
1/2+x,1/2+y,1/2-z
1/2-x,1/2+y,1/2+z
1/2+x,1/2-y,1/2+z
loop_
_atom_site_type_symbol
_atom_site_label
_atom_site_fract_x
_atom_site_fract_y
_atom_site_fract_z
Si Si1 0.364973 0.824464 0.832997
Si Si2 0.801483 0.180005 0.759918
Si Si3 0.000000 0.329121 0.433742
Si Si4 0.445476 0.181479 0.564026
Si Si5 0.600147 0.321421 0.064450
Si Si6 0.883151 0.177347 0.841247
Si Si7 0.555967 0.674615 0.231328
O O1 0.331438 0.728947 0.793291
O O2 0.364699 0.764980 0.895041
O O3 0.416940 0.788373 0.808312
O O4 0.354022 0.000000 0.829634
O O5 0.750000 0.250000 0.750000
O O6 0.833229 0.230132 0.813217
O O7 0.798178 0.000000 0.763145
O O8 0.952644 0.237022 0.421044
O O9 0.000000 0.500000 0.411394
O O10 0.000000 0.342133 0.500000
O O11 0.437232 0.224716 0.500000
O O12 0.500000 0.229297 0.578500
O O13 0.405998 0.243521 0.605819
O O14 0.444749 0.000000 0.566503
O O15 0.602835 0.500000 0.072786
O O16 0.608436 0.289492 0.000000
O O17 0.921342 0.192958 0.791732
O O18 0.878015 0.000000 0.853206
O O19 0.500000 0.697788 0.231994
O O20 0.565498 0.500000 0.214458
#
# Coordination Sequence:
#
# PCOD9521281 Si02
#       7
#    16  16   8  16  16  16  16
#     4  11  22  34  51  76 104 133 170 212 258 311
#     4  10  21  39  60  81 104 129 165 213 268 324
#     4   9  17  29  45  67  95 129 171 213 248 287
#     4   9  18  31  47  72 109 150 186 217 250 295
#     4  10  20  34  51  70  97 136 176 212 254 302
#     4   9  18  32  51  76 103 132 169 213 258 306
#     4   9  18  32  48  68 100 138 172 211 258 306
#
# _framework density 17.113161999999999
#
# number of rings (size 3 to 8) (size 9 to 14) (size 15 to 20)
#    0.000    2.385    0.000    4.385    1.077    6.462 
#    0.000    0.769    0.000    0.923    0.000    4.308 
#    0.000    0.000    0.000    0.000    0.000    0.000 
#
# Total GULP energy -289886.449558 kJ/mol
# GULP energy per Si atom -5574.739415 kJ/mol
# Density = 1.707421 g / cm^3
# Si number density = 17.113162 Si / 1000 Ang^3
#
#
#
# Elastic Constant Matrix: (Units=GPa)
#
#
# Indices 1 2 3 4 5 6 
#
# 1 99.9691 25.2090 47.4533 0.0000 0.0000 0.0000
# 2 25.2090 48.1667 28.7227 0.0000 0.0000 0.0000
# 3 47.4533 28.7227 93.9267 0.0000 0.0000 0.0000
# 4 0.0000 0.0000 0.0000 28.2861 0.0000 0.0000
# 5 0.0000 0.0000 0.0000 0.0000 15.2709 0.0000
# 6 0.0000 0.0000 0.0000 0.0000 0.0000 27.0785
#
#
#
# Elastic Compliance Matrix: (Units=1/GPa)
#
#
# Indices 1 2 3 4 5 6 
#
# 1 0.013682 -0.003716 -0.005776 0.000000 0.000000 0.000000
# 2 -0.003716 0.026401 -0.006196 0.000000 0.000000 0.000000
# 3 -0.005776 -0.006196 0.015459 0.000000 0.000000 0.000000
# 4 0.000000 0.000000 0.000000 0.035353 0.000000 0.000000
# 5 0.000000 0.000000 0.000000 0.000000 0.065484 0.000000
# 6 0.000000 0.000000 0.000000 0.000000 0.000000 0.036930
#
#
# Mechanical properties :
#
#
# Convention : Reuss Voigt Hill
#
# Bulk Modulus (GPa) = 41.38034 49.42581 45.40308
# Shear Modulus (GPa) = 21.48314 23.50559 22.49437
#
# Velocity S-wave (km/s) = 3.54695 3.71015 3.62947
# Velocity P-wave (km/s) = 6.40370 6.87736 6.64475
#
# Compressibility (1/GPa) = 0.02416606
#
# Stress axis : x y z
#
# Youngs Moduli (GPa) = 73.08903 37.87740 64.68597
#
# Poissons Ratio (x) = 0.14077 0.37362
# Poissons Ratio (y) = 0.27163 0.40078
# Poissons Ratio (z) = 0.42215 0.23468
#
# Static dielectric constant tensor:
#      x y z
#    x 1.613600 0.000000 0.000000 
#    y 0.000000 1.579640 0.000000 
#    z 0.000000 0.000000 1.597270 
# 
# From -- ./inp_files/15290.got.cif
#   From: 2010.05.17/outbox.cif.g08.bks.cpg/sg71_8_cif.got.tgz:15290.got - 2010.06.03 16:22:01.
