data_PCOD9521047
_publ_section_title
;
Structure prediction by ZEFSAII (Michael W. Deem and Ramdas Pophale) SiO2 
 PCOD9521047
Probable space group: I M M M
;
_chemical_formula_sum "Si O2"
_cell_formula_units_Z 96
_cell_length_a 15.094557
_cell_length_b 15.460501
_cell_length_c 24.322199
_cell_angle_alpha 90.000000
_cell_angle_beta 90.000000
_cell_angle_gamma 90.000000
_cell_volume 5676.057318
_symmetry_space_group_name_H-M "I M M M"
_symmetry_group_IT_number 71
_symmetry_cell_setting 'orthorhombic'
loop_
_space_group_symop_operation_xyz
x,y,z
-x,-y,z
x,-y,-z
-x,y,-z
-x,-y,-z
x,y,-z
-x,y,z
x,-y,z
1/2+x,1/2+y,1/2+z
1/2-x,1/2-y,1/2+z
1/2+x,1/2-y,1/2-z
1/2-x,1/2+y,1/2-z
1/2-x,1/2-y,1/2-z
1/2+x,1/2+y,1/2-z
1/2-x,1/2+y,1/2+z
1/2+x,1/2-y,1/2+z
loop_
_atom_site_type_symbol
_atom_site_label
_atom_site_fract_x
_atom_site_fract_y
_atom_site_fract_z
Si Si1 0.392904 0.000000 0.436257
Si Si2 0.715415 0.100158 0.166361
Si Si3 0.403996 0.500000 0.564773
Si Si4 0.896174 0.288266 0.751085
Si Si5 0.215006 0.168448 0.935820
Si Si6 0.893599 0.680841 0.880213
Si Si7 0.101807 0.903177 0.229427
O O1 0.369013 0.085736 0.402194
O O2 0.500000 0.000000 0.439201
O O3 0.361153 0.000000 0.500000
O O4 0.661799 0.151084 0.212723
O O5 0.708400 0.149774 0.108419
O O6 0.818375 0.099654 0.186053
O O7 0.687918 0.000000 0.161770
O O8 0.500000 0.500000 0.592708
O O9 0.417270 0.500000 0.500000
O O10 0.348109 0.585646 0.573548
O O11 0.873851 0.303253 0.815677
O O12 0.884607 0.186073 0.737392
O O13 0.000000 0.309243 0.744811
O O14 0.159446 0.251247 0.917046
O O15 0.239695 0.172580 0.000000
O O16 0.000000 0.692533 0.886965
O O17 0.000000 0.895423 0.207832
O O18 0.107325 0.000000 0.255256
#
# Coordination Sequence:
#
# PCOD9521047 Si02
#       7
#     8  16   8  16  16  16  16
#     4   9  18  32  47  66  98 140 179 214 257 313
#     4  11  22  35  53  77 109 147 182 229 278 322
#     4   9  18  30  45  70 101 131 170 213 254 316
#     4  10  21  36  55  79 107 140 185 232 276 326
#     4  11  21  33  50  74 104 142 178 217 272 332
#     4  10  20  33  51  75 103 138 178 224 270 324
#     4   9  18  33  53  78 108 139 168 208 267 330
#
# _framework density 16.913149000000001
#
# number of rings (size 3 to 8) (size 9 to 14) (size 15 to 20)
#    0.000    2.000    2.500    1.500    1.167    2.667 
#    0.000    0.000    0.000    0.500    0.000    1.167 
#    0.000    0.000    0.000    4.167    0.000    0.333 
#
# Total GULP energy -267344.333593 kJ/mol
# GULP energy per Si atom -5569.673617 kJ/mol
# Density = 1.687465 g / cm^3
# Si number density = 16.913149 Si / 1000 Ang^3
#
#
#
# Elastic Constant Matrix: (Units=GPa)
#
#
# Indices 1 2 3 4 5 6 
#
# 1 28.8919 24.7780 31.1960 0.0000 0.0000 0.0000
# 2 24.7780 150.3027 54.8779 0.0000 0.0000 0.0000
# 3 31.1960 54.8779 94.8675 0.0000 0.0000 0.0000
# 4 0.0000 0.0000 0.0000 25.6761 0.0000 0.0000
# 5 0.0000 0.0000 0.0000 0.0000 13.0307 0.0000
# 6 0.0000 0.0000 0.0000 0.0000 0.0000 36.0227
#
#
#
# Elastic Compliance Matrix: (Units=1/GPa)
#
#
# Indices 1 2 3 4 5 6 
#
# 1 0.054791 -0.003111 -0.016218 0.000000 0.000000 0.000000
# 2 -0.003111 0.008611 -0.003958 0.000000 0.000000 0.000000
# 3 -0.016218 -0.003958 0.018164 0.000000 0.000000 0.000000
# 4 0.000000 0.000000 0.000000 0.038947 0.000000 0.000000
# 5 0.000000 0.000000 0.000000 0.000000 0.076742 0.000000
# 6 0.000000 0.000000 0.000000 0.000000 0.000000 0.027760
#
#
# Mechanical properties :
#
#
# Convention : Reuss Voigt Hill
#
# Bulk Modulus (GPa) = 28.57810 55.08512 41.83161
# Shear Modulus (GPa) = 17.65204 25.82658 21.73931
#
# Velocity S-wave (km/s) = 3.23412 3.91194 3.58907
# Velocity P-wave (km/s) = 5.55695 7.28316 6.47781
#
# Compressibility (1/GPa) = 0.03499183
#
# Stress axis : x y z
#
# Youngs Moduli (GPa) = 18.25116 116.12526 55.05467
#
# Poissons Ratio (x) = 0.36129 0.89286
# Poissons Ratio (y) = 0.05678 0.21793
# Poissons Ratio (z) = 0.29599 0.45966
#
# Static dielectric constant tensor:
#      x y z
#    x 1.608760 0.000000 0.000000 
#    y 0.000000 1.602200 0.000000 
#    z 0.000000 0.000000 1.578140 
# 
# From -- ./inp_files/34772.got.cif
#   From: 2010.05.17/outbox.cif.g08.bks.cpg/sg71_18_cif.got.tgz:34772.got - 2010.06.03 16:22:01.
