data_PCOD9521703
_publ_section_title
;
Structure prediction by ZEFSAII (Michael W. Deem and Ramdas Pophale) SiO2 
 PCOD9521703
Probable space group: I M M M
;
_chemical_formula_sum "Si O2"
_cell_formula_units_Z 96
_cell_length_a 20.721924
_cell_length_b 28.820260
_cell_length_c 8.716906
_cell_angle_alpha 90.000000
_cell_angle_beta 90.000000
_cell_angle_gamma 90.000000
_cell_volume 5205.834218
_symmetry_space_group_name_H-M "I M M M"
_symmetry_group_IT_number 71
_symmetry_cell_setting 'orthorhombic'
loop_
_space_group_symop_operation_xyz
x,y,z
-x,-y,z
x,-y,-z
-x,y,-z
-x,-y,-z
x,y,-z
-x,y,z
x,-y,z
1/2+x,1/2+y,1/2+z
1/2-x,1/2-y,1/2+z
1/2+x,1/2-y,1/2-z
1/2-x,1/2+y,1/2-z
1/2-x,1/2-y,1/2-z
1/2+x,1/2+y,1/2-z
1/2-x,1/2+y,1/2+z
1/2+x,1/2-y,1/2+z
loop_
_atom_site_type_symbol
_atom_site_label
_atom_site_fract_x
_atom_site_fract_y
_atom_site_fract_z
Si Si1 0.161676 0.553462 0.183843
Si Si2 0.424095 0.863352 0.183693
Si Si3 0.797522 0.187935 0.326373
Si Si4 0.931019 0.055434 0.182774
Si Si5 0.349925 0.775714 0.324604
Si Si6 0.705242 0.409620 0.318733
O O1 0.147950 0.500000 0.229179
O O2 0.113316 0.591409 0.254333
O O3 0.233593 0.567377 0.237088
O O4 0.158080 0.556562 0.000000
O O5 0.500000 0.865588 0.221828
O O6 0.392133 0.816949 0.253426
O O7 0.417066 0.861851 0.000000
O O8 0.812792 0.172736 0.500000
O O9 0.724406 0.207141 0.328453
O O10 0.845717 0.228360 0.271970
O O11 0.795372 0.145160 0.210895
O O12 0.863469 0.073225 0.244998
O O13 0.000000 0.072745 0.245683
O O14 0.930782 0.000000 0.196439
O O15 0.930728 0.066188 0.000000
O O16 0.370090 0.766755 0.500000
O O17 0.709931 0.420065 0.500000
#
# Coordination Sequence:
#
# PCOD9521703 Si02
#       6
#    16  16  16  16  16  16
#     4  11  24  40  58  83 116 154 197 245 296 350
#     4  11  24  41  62  87 117 153 193 242 299 354
#     4  10  20  34  56  84 116 148 184 230 281 336
#     4   8  15  29  49  75 108 145 185 228 275 329
#     4  10  20  36  59  85 112 147 188 229 278 336
#     4  11  20  32  56  87 116 149 191 239 291 343
#
# _framework density 18.440847999999999
#
# number of rings (size 3 to 8) (size 9 to 14) (size 15 to 20)
#    0.000    1.833    1.667    3.500    0.000    5.000 
#    0.000    2.500    0.000    5.000    0.000    5.833 
#    0.000    0.000    0.000    0.000    0.000    0.000 
#
# Total GULP energy -267759.096218 kJ/mol
# GULP energy per Si atom -5578.314505 kJ/mol
# Density = 1.839888 g / cm^3
# Si number density = 18.440848 Si / 1000 Ang^3
#
#
#
# Elastic Constant Matrix: (Units=GPa)
#
#
# Indices 1 2 3 4 5 6 
#
# 1 100.6003 28.7784 37.0219 0.0000 0.0000 0.0000
# 2 28.7784 47.6220 11.8531 0.0000 0.0000 0.0000
# 3 37.0219 11.8531 49.5877 0.0000 0.0000 0.0000
# 4 0.0000 0.0000 0.0000 18.0200 0.0000 0.0000
# 5 0.0000 0.0000 0.0000 0.0000 10.5431 0.0000
# 6 0.0000 0.0000 0.0000 0.0000 0.0000 -2.7854
#
#
#
# Elastic Compliance Matrix: (Units=1/GPa)
#
#
# Indices 1 2 3 4 5 6 
#
# 1 0.015602 -0.006942 -0.009989 0.000000 0.000000 0.000000
# 2 -0.006942 0.025416 -0.000892 0.000000 0.000000 0.000000
# 3 -0.009989 -0.000892 0.027837 0.000000 0.000000 0.000000
# 4 0.000000 0.000000 0.000000 0.055494 0.000000 0.000000
# 5 0.000000 0.000000 0.000000 0.000000 0.094849 0.000000
# 6 0.000000 0.000000 0.000000 0.000000 0.000000 -0.359018
#
#
# Mechanical properties :
#
#
# Convention : Reuss Voigt Hill
#
# Bulk Modulus (GPa) = 30.11280 39.23519 34.67400
# Shear Modulus (GPa) = -53.70396 13.16600 -20.26898
#
# Velocity S-wave (km/s) = -5.40236 2.67490 -3.31892
# Velocity P-wave (km/s) = 4.74859 5.55541 2.03880
#
# Compressibility (1/GPa) = 0.03320846
#
# Stress axis : x y z
#
# Youngs Moduli (GPa) = 64.09249 39.34514 35.92280
#
# Poissons Ratio (x) = 0.27315 0.35884
# Poissons Ratio (y) = 0.44495 0.03205
# Poissons Ratio (z) = 0.64024 0.03510
#
# Static dielectric constant tensor:
#      x y z
#    x 1.638820 0.000000 0.000000 
#    y 0.000000 1.636070 0.000000 
#    z 0.000000 0.000000 1.632250 
# 
# From -- ./inp_files/10872.got.cif
#   From: 2010.05.17/outbox.cif.g08.bks.cpg/sg71_6_cif.got.tgz:10872.got - 2010.06.03 16:22:01.
