data_PCOD9521487
_publ_section_title
;
Structure prediction by ZEFSAII (Michael W. Deem and Ramdas Pophale) SiO2 
 PCOD9521487
Probable space group: I M M M
;
_chemical_formula_sum "Si O2"
_cell_formula_units_Z 56
_cell_length_a 29.383845
_cell_length_b 10.162622
_cell_length_c 8.569028
_cell_angle_alpha 90.000000
_cell_angle_beta 90.000000
_cell_angle_gamma 90.000000
_cell_volume 2558.856660
_symmetry_space_group_name_H-M "I M M M"
_symmetry_group_IT_number 71
_symmetry_cell_setting 'orthorhombic'
loop_
_space_group_symop_operation_xyz
x,y,z
-x,-y,z
x,-y,-z
-x,y,-z
-x,-y,-z
x,y,-z
-x,y,z
x,-y,z
1/2+x,1/2+y,1/2+z
1/2-x,1/2-y,1/2+z
1/2+x,1/2-y,1/2-z
1/2-x,1/2+y,1/2-z
1/2-x,1/2-y,1/2-z
1/2+x,1/2+y,1/2-z
1/2-x,1/2+y,1/2+z
1/2+x,1/2-y,1/2+z
loop_
_atom_site_type_symbol
_atom_site_label
_atom_site_fract_x
_atom_site_fract_y
_atom_site_fract_z
Si Si1 0.819181 0.000000 0.689118
Si Si2 0.853601 0.713704 0.686736
Si Si3 0.285337 0.000000 0.312656
Si Si4 0.948413 0.285760 0.184883
Si Si5 0.946734 0.000000 0.674911
O O1 0.843984 0.134884 0.737125
O O2 0.766841 0.000000 0.742880
O O3 0.817679 0.000000 0.500000
O O4 0.853206 0.710697 0.500000
O O5 0.812898 0.625741 0.751870
O O6 0.902404 0.657129 0.741994
O O7 0.285636 0.000000 0.500000
O O8 0.000000 0.322583 0.240316
O O9 0.940897 0.132539 0.228345
O O10 0.947913 0.306514 0.000000
O O11 0.924468 0.000000 0.500000
O O12 0.000000 0.000000 0.646300
#
# Coordination Sequence:
#
# PCOD9521487 Si02
#       5
#     8  16   8  16   8
#     4   9  21  40  64  92 121 155 199 252 304 360
#     4  11  22  39  63  92 123 158 203 251 303 362
#     4  11  23  42  63  87 123 162 200 247 305 364
#     4  10  20  34  53  81 118 159 202 247 297 355
#     4   9  16  27  46  74 109 149 192 241 294 343
#
# _framework density 21.884772999999999
#
# number of rings (size 3 to 8) (size 9 to 14) (size 15 to 20)
#    0.000    1.857    0.000    4.286    0.000    4.571 
#    0.000    7.143    0.000    4.286    0.000    0.000 
#    0.000    0.000    0.000    0.000    0.000    0.000 
#
# Total GULP energy -156259.352129 kJ/mol
# GULP energy per Si atom -5580.691147 kJ/mol
# Density = 2.183496 g / cm^3
# Si number density = 21.884773 Si / 1000 Ang^3
#
#
#
# Elastic Constant Matrix: (Units=GPa)
#
#
# Indices 1 2 3 4 5 6 
#
# 1 241.4431 47.5639 43.0828 0.0000 0.0000 0.0000
# 2 47.5639 100.0997 14.0535 0.0000 0.0000 0.0000
# 3 43.0828 14.0535 61.8620 0.0000 0.0000 0.0000
# 4 0.0000 0.0000 0.0000 17.9838 0.0000 0.0000
# 5 0.0000 0.0000 0.0000 0.0000 30.8935 0.0000
# 6 0.0000 0.0000 0.0000 0.0000 0.0000 86.6224
#
#
#
# Elastic Compliance Matrix: (Units=1/GPa)
#
#
# Indices 1 2 3 4 5 6 
#
# 1 0.005084 -0.001982 -0.003090 0.000000 0.000000 0.000000
# 2 -0.001982 0.011092 -0.001140 0.000000 0.000000 0.000000
# 3 -0.003090 -0.001140 0.018576 0.000000 0.000000 0.000000
# 4 0.000000 0.000000 0.000000 0.055605 0.000000 0.000000
# 5 0.000000 0.000000 0.000000 0.000000 0.032369 0.000000
# 6 0.000000 0.000000 0.000000 0.000000 0.000000 0.011544
#
#
# Mechanical properties :
#
#
# Convention : Reuss Voigt Hill
#
# Bulk Modulus (GPa) = 44.78632 68.08945 56.43788
# Shear Modulus (GPa) = 32.43887 47.01360 39.72624
#
# Velocity S-wave (km/s) = 3.85419 4.63993 4.26519
# Velocity P-wave (km/s) = 6.34944 7.73857 7.07817
#
# Compressibility (1/GPa) = 0.02232825
#
# Stress axis : x y z
#
# Youngs Moduli (GPa) = 196.71267 90.15777 53.83289
#
# Poissons Ratio (x) = 0.17866 0.16635
# Poissons Ratio (y) = 0.38982 0.06135
# Poissons Ratio (z) = 0.60788 0.10275
#
# Static dielectric constant tensor:
#      x y z
#    x 1.835050 0.000000 0.000000 
#    y 0.000000 2.197200 0.000000 
#    z 0.000000 0.000000 1.749470 
# 
# From -- ./inp_files/13995.got.cif
#   From: 2010.05.17/outbox.cif.g08.bks.cpg/sg71_7_cif.got.tgz:13995.got - 2010.06.03 16:22:01.
