data_PCOD9521747
_publ_section_title
;
Structure prediction by ZEFSAII (Michael W. Deem and Ramdas Pophale) SiO2 
 PCOD9521747
Probable space group: I M M M
;
_chemical_formula_sum "Si O2"
_cell_formula_units_Z 104
_cell_length_a 22.706961
_cell_length_b 33.832797
_cell_length_c 7.847543
_cell_angle_alpha 90.000000
_cell_angle_beta 90.000000
_cell_angle_gamma 90.000000
_cell_volume 6028.796450
_symmetry_space_group_name_H-M "I M M M"
_symmetry_group_IT_number 71
_symmetry_cell_setting 'orthorhombic'
loop_
_space_group_symop_operation_xyz
x,y,z
-x,-y,z
x,-y,-z
-x,y,-z
-x,-y,-z
x,y,-z
-x,y,z
x,-y,z
1/2+x,1/2+y,1/2+z
1/2-x,1/2-y,1/2+z
1/2+x,1/2-y,1/2-z
1/2-x,1/2+y,1/2-z
1/2-x,1/2-y,1/2-z
1/2+x,1/2+y,1/2-z
1/2-x,1/2+y,1/2+z
1/2+x,1/2-y,1/2+z
loop_
_atom_site_type_symbol
_atom_site_label
_atom_site_fract_x
_atom_site_fract_y
_atom_site_fract_z
Si Si1 0.159660 0.954054 0.307316
Si Si2 0.681796 0.878735 0.000000
Si Si3 0.632634 0.692511 0.202924
Si Si4 0.932261 0.888611 0.796172
Si Si5 0.267509 0.826278 0.699609
Si Si6 0.115002 0.720784 0.191249
Si Si7 0.566742 0.829812 0.000000
Si Si8 0.749479 0.546112 0.500000
O O1 0.182685 0.949697 0.500000
O O2 0.106333 0.923771 0.282259
O O3 0.141123 0.000000 0.284771
O O4 0.208730 0.945825 0.165055
O O5 0.711748 0.859305 0.832751
O O6 0.614448 0.864806 0.000000
O O7 0.695670 0.924748 0.000000
O O8 0.597520 0.653293 0.253397
O O9 0.701645 0.686874 0.245020
O O10 0.609198 0.732399 0.287483
O O11 0.628521 0.697838 0.000000
O O12 0.000000 0.889356 0.738295
O O13 0.931196 0.893602 0.000000
O O14 0.267304 0.838872 0.500000
O O15 0.316195 0.791582 0.715224
O O16 0.079875 0.697298 0.335133
O O17 0.098020 0.708843 0.000000
O O18 0.500000 0.843521 0.000000
O O19 0.765084 0.500000 0.500000
#
# Coordination Sequence:
#
# PCOD9521747 Si02
#       8
#    16   8  16  16  16  16   8   8
#     4  10  21  38  60  83 108 138 173 218 272 324
#     4  10  20  34  58  82 108 148 175 213 272 311
#     4  11  21  34  52  76 107 141 178 227 282 324
#     4  11  24  38  51  72 103 141 188 231 268 317
#     4   9  20  33  52  82 109 135 176 225 269 331
#     4  10  20  36  55  78 107 139 178 225 278 320
#     4  10  22  40  56  77 107 143 191 226 254 310
#     4  10  20  36  59  89 118 138 166 209 266 333
#
# _framework density 17.250540000000001
#
# number of rings (size 3 to 8) (size 9 to 14) (size 15 to 20)
#    0.000    1.846    1.538    2.308    2.154    4.308 
#    0.000    1.538    0.000    0.231    0.000    0.000 
#    0.000    0.000    0.000   11.538    0.000    0.000 
#
# Total GULP energy -290379.279212 kJ/mol
# GULP energy per Si atom -5584.216908 kJ/mol
# Density = 1.721128 g / cm^3
# Si number density = 17.250540 Si / 1000 Ang^3
#
#
#
# Elastic Constant Matrix: (Units=GPa)
#
#
# Indices 1 2 3 4 5 6 
#
# 1 70.7504 54.4887 36.9027 0.0000 0.0000 0.0000
# 2 54.4887 104.0067 34.2039 0.0000 0.0000 0.0000
# 3 36.9027 34.2039 86.8578 0.0000 0.0000 0.0000
# 4 0.0000 0.0000 0.0000 15.9766 0.0000 0.0000
# 5 0.0000 0.0000 0.0000 0.0000 -4.7692 0.0000
# 6 0.0000 0.0000 0.0000 0.0000 0.0000 3.2677
#
#
#
# Elastic Compliance Matrix: (Units=1/GPa)
#
#
# Indices 1 2 3 4 5 6 
#
# 1 0.026711 -0.011788 -0.006706 0.000000 0.000000 0.000000
# 2 -0.011788 0.016248 -0.001390 0.000000 0.000000 0.000000
# 3 -0.006706 -0.001390 0.014910 0.000000 0.000000 0.000000
# 4 0.000000 0.000000 0.000000 0.062591 0.000000 0.000000
# 5 0.000000 0.000000 0.000000 0.000000 -0.209680 0.000000
# 6 0.000000 0.000000 0.000000 0.000000 0.000000 0.306023
#
#
# Mechanical properties :
#
#
# Convention : Reuss Voigt Hill
#
# Bulk Modulus (GPa) = 55.25054 56.97838 56.11446
# Shear Modulus (GPa) = 19.04008 11.96302 15.50155
#
# Velocity S-wave (km/s) = 3.32586 2.63627 3.00094
# Velocity P-wave (km/s) = 6.84443 6.50908 6.67886
#
# Compressibility (1/GPa) = 0.01809937
#
# Stress axis : x y z
#
# Youngs Moduli (GPa) = 37.43788 61.54738 67.07071
#
# Poissons Ratio (x) = 0.72554 0.44980
# Poissons Ratio (y) = 0.44133 0.09321
# Poissons Ratio (z) = 0.25107 0.08554
#
# Static dielectric constant tensor:
#      x y z
#    x 1.564340 0.000000 0.000000 
#    y 0.000000 1.566880 0.000000 
#    z 0.000000 0.000000 1.612870 
# 
# From -- ./inp_files/11565.got.cif
#   From: 2010.05.17/outbox.cif.g08.bks.cpg/sg71_6_cif.got.tgz:11565.got - 2010.06.03 16:22:01.
