data_PCOD9521818
_publ_section_title
;
Structure prediction by ZEFSAII (Michael W. Deem and Ramdas Pophale) SiO2 
 PCOD9521818
Probable space group: I M M M
;
_chemical_formula_sum "Si O2"
_cell_formula_units_Z 64
_cell_length_a 7.754268
_cell_length_b 10.688779
_cell_length_c 36.787158
_cell_angle_alpha 90.000000
_cell_angle_beta 90.000000
_cell_angle_gamma 90.000000
_cell_volume 3049.054184
_symmetry_space_group_name_H-M "I M M M"
_symmetry_group_IT_number 71
_symmetry_cell_setting 'orthorhombic'
loop_
_space_group_symop_operation_xyz
x,y,z
-x,-y,z
x,-y,-z
-x,y,-z
-x,-y,-z
x,y,-z
-x,y,z
x,-y,z
1/2+x,1/2+y,1/2+z
1/2-x,1/2-y,1/2+z
1/2+x,1/2-y,1/2-z
1/2-x,1/2+y,1/2-z
1/2-x,1/2-y,1/2-z
1/2+x,1/2+y,1/2-z
1/2-x,1/2+y,1/2+z
1/2+x,1/2-y,1/2+z
loop_
_atom_site_type_symbol
_atom_site_label
_atom_site_fract_x
_atom_site_fract_y
_atom_site_fract_z
Si Si1 0.211678 0.500000 0.833528
Si Si2 0.708427 0.000000 0.916290
Si Si3 0.706812 0.245890 0.958661
Si Si4 0.207099 0.000000 0.168563
Si Si5 0.792479 0.749539 0.792444
Si Si6 0.294495 0.000000 0.416833
O O1 0.269566 0.375726 0.812482
O O2 0.270483 0.500000 0.875323
O O3 0.000000 0.500000 0.833551
O O4 0.771843 0.874537 0.936417
O O5 0.756049 0.000000 0.874109
O O6 0.500000 0.000000 0.918281
O O7 0.500000 0.232888 0.960778
O O8 0.741800 0.375055 0.938034
O O9 0.773729 0.248762 0.000000
O O10 0.273887 0.874567 0.187888
O O11 0.000000 0.000000 0.173006
O O12 0.750000 0.750000 0.750000
O O13 0.000000 0.749505 0.795760
O O14 0.500000 0.000000 0.414913
#
# Coordination Sequence:
#
# PCOD9521818 Si02
#       6
#     8   8  16   8  16   8
#     4   9  19  35  53  73 103 140 171 207 261 317
#     4  10  21  37  59  84 108 143 190 230 269 328
#     4  10  21  38  58  81 112 147 182 226 279 328
#     4  10  21  36  54  78 110 143 174 219 279 329
#     4  10  20  35  54  76 103 137 175 215 264 318
#     4  11  22  37  58  83 111 146 187 226 269 328
#
# _framework density 20.990117000000001
#
# number of rings (size 3 to 8) (size 9 to 14) (size 15 to 20)
#    0.000    2.000    0.000    3.375    0.000    7.500 
#    0.000    2.500    0.000    2.250    0.000    0.000 
#    0.000    0.000    0.000    0.000    0.000    0.000 
#
# Total GULP energy -178878.223475 kJ/mol
# GULP energy per Si atom -5589.944484 kJ/mol
# Density = 2.094234 g / cm^3
# Si number density = 20.990117 Si / 1000 Ang^3
#
#
#
# Elastic Constant Matrix: (Units=GPa)
#
#
# Indices 1 2 3 4 5 6 
#
# 1 28.1691 6.8149 -2.8223 0.0000 0.0000 0.0000
# 2 6.8149 264.2969 159.8199 0.0000 0.0000 0.0000
# 3 -2.8223 159.8199 246.1051 0.0000 0.0000 0.0000
# 4 0.0000 0.0000 0.0000 49.8157 0.0000 0.0000
# 5 0.0000 0.0000 0.0000 0.0000 29.9192 0.0000
# 6 0.0000 0.0000 0.0000 0.0000 0.0000 -26.4609
#
#
#
# Elastic Compliance Matrix: (Units=1/GPa)
#
#
# Indices 1 2 3 4 5 6 
#
# 1 0.036139 -0.001947 0.001679 0.000000 0.000000 0.000000
# 2 -0.001947 0.006335 -0.004136 0.000000 0.000000 0.000000
# 3 0.001679 -0.004136 0.006769 0.000000 0.000000 0.000000
# 4 0.000000 0.000000 0.000000 0.020074 0.000000 0.000000
# 5 0.000000 0.000000 0.000000 0.000000 0.033423 0.000000
# 6 0.000000 0.000000 0.000000 0.000000 0.000000 -0.037792
#
#
# Mechanical properties :
#
#
# Convention : Reuss Voigt Hill
#
# Bulk Modulus (GPa) = 24.73177 96.24401 60.48789
# Shear Modulus (GPa) = 57.31627 35.63873 46.47750
#
# Velocity S-wave (km/s) = 5.23121 4.12501 4.71069
# Velocity P-wave (km/s) = 6.94950 8.28488 7.64640
#
# Compressibility (1/GPa) = 0.04043382
#
# Stress axis : x y z
#
# Youngs Moduli (GPa) = 27.67087 157.85251 147.74012
#
# Poissons Ratio (x) = 0.30734 -0.24803
# Poissons Ratio (y) = 0.05388 0.61109
# Poissons Ratio (z) = -0.04646 0.65292
#
# Static dielectric constant tensor:
#      x y z
#    x 1.772820 0.000000 0.000000 
#    y 0.000000 1.741570 0.000000 
#    z 0.000000 0.000000 1.704550 
# 
# From -- ./inp_files/67734.got.cif
#   From: 2010.05.17/outbox.cif.g08.bks.cpg/sg71_34_cif.got.tgz:67734.got - 2010.06.03 16:22:01.
