data_PCOD9521502
_publ_section_title
;
Structure prediction by ZEFSAII (Michael W. Deem and Ramdas Pophale) SiO2 
 PCOD9521502
Probable space group: I M M M
;
_chemical_formula_sum "Si O2"
_cell_formula_units_Z 64
_cell_length_a 17.738916
_cell_length_b 19.524308
_cell_length_c 10.150502
_cell_angle_alpha 90.000000
_cell_angle_beta 90.000000
_cell_angle_gamma 90.000000
_cell_volume 3515.525467
_symmetry_space_group_name_H-M "I M M M"
_symmetry_group_IT_number 71
_symmetry_cell_setting 'orthorhombic'
loop_
_space_group_symop_operation_xyz
x,y,z
-x,-y,z
x,-y,-z
-x,y,-z
-x,-y,-z
x,y,-z
-x,y,z
x,-y,z
1/2+x,1/2+y,1/2+z
1/2-x,1/2-y,1/2+z
1/2+x,1/2-y,1/2-z
1/2-x,1/2+y,1/2-z
1/2-x,1/2-y,1/2-z
1/2+x,1/2+y,1/2-z
1/2-x,1/2+y,1/2+z
1/2+x,1/2-y,1/2+z
loop_
_atom_site_type_symbol
_atom_site_label
_atom_site_fract_x
_atom_site_fract_y
_atom_site_fract_z
Si Si1 0.710604 0.621703 0.651331
Si Si2 0.244841 0.000000 0.347538
Si Si3 0.915716 0.500000 0.761284
Si Si4 0.583455 0.733278 0.347771
Si Si5 0.885635 0.351748 0.353443
O O1 0.696672 0.596072 0.500000
O O2 0.714715 0.564207 0.763339
O O3 0.648411 0.678729 0.682163
O O4 0.794850 0.651825 0.649337
O O5 0.221916 0.000000 0.500000
O O6 0.337120 0.000000 0.342749
O O7 0.909059 0.570098 0.677712
O O8 0.000000 0.500000 0.823674
O O9 0.593736 0.754792 0.500000
O O10 0.500000 0.701707 0.335955
O O11 0.586658 0.799126 0.255316
O O12 0.911057 0.333323 0.500000
#
# Coordination Sequence:
#
# PCOD9521502 Si02
#       5
#    16   8   8  16  16
#     4   9  19  37  57  76 104 142 177 210 257 317
#     4  10  21  36  57  83 105 131 174 221 260 305
#     4  10  21  35  51  76 111 145 174 208 256 313
#     4  10  21  36  54  78 107 138 175 219 264 310
#     4  10  20  34  54  78 105 141 181 217 255 305
#
# _framework density 18.20496
#
# number of rings (size 3 to 8) (size 9 to 14) (size 15 to 20)
#    0.000    2.250    0.000    2.250    0.000   10.750 
#    0.000    0.625    0.000    3.750    0.000    0.000 
#    0.000    0.000    0.000    0.000    0.000    0.000 
#
# Total GULP energy -178384.472691 kJ/mol
# GULP energy per Si atom -5574.514772 kJ/mol
# Density = 1.816352 g / cm^3
# Si number density = 18.204960 Si / 1000 Ang^3
#
#
#
# Elastic Constant Matrix: (Units=GPa)
#
#
# Indices 1 2 3 4 5 6 
#
# 1 113.7624 70.6154 44.6209 0.0000 0.0000 0.0000
# 2 70.6154 95.2746 75.6369 0.0000 0.0000 0.0000
# 3 44.6209 75.6369 125.4211 0.0000 0.0000 0.0000
# 4 0.0000 0.0000 0.0000 6.3631 0.0000 0.0000
# 5 0.0000 0.0000 0.0000 0.0000 12.7246 0.0000
# 6 0.0000 0.0000 0.0000 0.0000 0.0000 -78.9987
#
#
#
# Elastic Compliance Matrix: (Units=1/GPa)
#
#
# Indices 1 2 3 4 5 6 
#
# 1 0.016829 -0.014811 0.002945 0.000000 0.000000 0.000000
# 2 -0.014811 0.033172 -0.014735 0.000000 0.000000 0.000000
# 3 0.002945 -0.014735 0.015812 0.000000 0.000000 0.000000
# 4 0.000000 0.000000 0.000000 0.157155 0.000000 0.000000
# 5 0.000000 0.000000 0.000000 0.000000 0.078588 0.000000
# 6 0.000000 0.000000 0.000000 0.000000 0.000000 -0.012658
#
#
# Mechanical properties :
#
#
# Convention : Reuss Voigt Hill
#
# Bulk Modulus (GPa) = 79.30676 79.57828 79.44252
# Shear Modulus (GPa) = 14.43823 -2.40987 6.01418
#
# Velocity S-wave (km/s) = 2.81925 -1.15179 1.81955
# Velocity P-wave (km/s) = 7.36583 6.48371 6.93880
#
# Compressibility (1/GPa) = 0.01260926
#
# Stress axis : x y z
#
# Youngs Moduli (GPa) = 59.42211 30.14629 63.24386
#
# Poissons Ratio (x) = 0.44649 -0.18624
# Poissons Ratio (y) = 0.88009 0.93192
# Poissons Ratio (z) = -0.17498 0.44422
#
# Static dielectric constant tensor:
#      x y z
#    x 1.637930 0.000000 0.000000 
#    y 0.000000 1.590280 0.000000 
#    z 0.000000 0.000000 1.620480 
# 
# From -- ./inp_files/7503.got.cif
#   From: 2010.05.17/outbox.cif.g08.bks.cpg/sg71_4_cif.got.tgz:7503.got - 2010.06.03 16:22:01.
