data_PCOD9521579
_publ_section_title
;
Structure prediction by ZEFSAII (Michael W. Deem and Ramdas Pophale) SiO2 
 PCOD9521579
Probable space group: I M M M
;
_chemical_formula_sum "Si O2"
_cell_formula_units_Z 104
_cell_length_a 15.723053
_cell_length_b 22.029544
_cell_length_c 17.202901
_cell_angle_alpha 90.000000
_cell_angle_beta 90.000000
_cell_angle_gamma 90.000000
_cell_volume 5958.597856
_symmetry_space_group_name_H-M "I M M M"
_symmetry_group_IT_number 71
_symmetry_cell_setting 'orthorhombic'
loop_
_space_group_symop_operation_xyz
x,y,z
-x,-y,z
x,-y,-z
-x,y,-z
-x,-y,-z
x,y,-z
-x,y,z
x,-y,z
1/2+x,1/2+y,1/2+z
1/2-x,1/2-y,1/2+z
1/2+x,1/2-y,1/2-z
1/2-x,1/2+y,1/2-z
1/2-x,1/2-y,1/2-z
1/2+x,1/2+y,1/2-z
1/2-x,1/2+y,1/2+z
1/2+x,1/2-y,1/2+z
loop_
_atom_site_type_symbol
_atom_site_label
_atom_site_fract_x
_atom_site_fract_y
_atom_site_fract_z
Si Si1 0.400159 0.837494 0.659723
Si Si2 0.000000 0.430361 0.359230
Si Si3 0.783859 0.250595 0.914751
Si Si4 0.500000 0.572462 0.408964
Si Si5 0.676886 0.930007 0.761619
Si Si6 0.343056 0.362844 0.328263
Si Si7 0.000000 0.291184 0.589335
Si Si8 0.864428 0.760161 0.704718
O O1 0.500000 0.849091 0.650789
O O2 0.358841 0.799745 0.590468
O O3 0.346986 0.896971 0.681342
O O4 0.385763 0.793403 0.734443
O O5 0.912100 0.427397 0.309996
O O6 0.000000 0.500000 0.394734
O O7 0.000000 0.365142 0.403060
O O8 0.820504 0.184367 0.896745
O O9 0.725938 0.262436 0.838575
O O10 0.743091 0.252800 0.000000
O O11 0.500000 0.500000 0.410178
O O12 0.500000 0.593227 0.500000
O O13 0.582705 0.595530 0.362105
O O14 0.756032 0.896511 0.803028
O O15 0.699292 0.000000 0.751441
O O16 0.374412 0.321692 0.254744
O O17 0.922659 0.258983 0.633009
O O18 0.000000 0.276466 0.500000
#
# Coordination Sequence:
#
# PCOD9521579 Si02
#       8
#    16   8  16   8  16  16   8  16
#     4  11  19  35  56  79 113 145 184 228 277 335
#     4  10  20  34  54  82 116 147 178 220 266 329
#     4  11  22  34  55  86 116 145 181 231 289 337
#     4  11  25  42  57  82 120 155 191 235 277 325
#     4  11  19  33  59  84 106 141 190 228 266 324
#     4  11  21  38  58  81 113 150 192 229 277 332
#     4  12  21  32  53  80 112 148 182 223 285 335
#     4  11  19  36  55  80 111 145 184 237 277 329
#
# _framework density 17.453771
#
# number of rings (size 3 to 8) (size 9 to 14) (size 15 to 20)
#    0.000    1.000    6.154    2.769    3.231    0.462 
#    0.000    0.769    0.000    2.308    0.000    1.077 
#    0.000    2.462    0.000    0.000    0.000    0.000 
#
# Total GULP energy -289634.964349 kJ/mol
# GULP energy per Si atom -5569.903161 kJ/mol
# Density = 1.741405 g / cm^3
# Si number density = 17.453771 Si / 1000 Ang^3
#
#
#
# Elastic Constant Matrix: (Units=GPa)
#
#
# Indices 1 2 3 4 5 6 
#
# 1 87.0719 34.3556 14.6837 0.0000 0.0000 0.0000
# 2 34.3556 95.6941 37.0425 0.0001 0.0000 0.0000
# 3 14.6837 37.0425 78.9429 0.0001 0.0000 0.0000
# 4 0.0000 0.0001 0.0001 12.8324 0.0000 0.0000
# 5 0.0000 0.0000 0.0000 0.0000 22.9968 0.0000
# 6 0.0000 0.0000 0.0000 0.0000 0.0000 31.2351
#
#
#
# Elastic Compliance Matrix: (Units=1/GPa)
#
#
# Indices 1 2 3 4 5 6 
#
# 1 0.013385 -0.004695 -0.000287 0.000000 0.000000 0.000000
# 2 -0.004695 0.014416 -0.005891 0.000000 0.000000 0.000000
# 3 -0.000287 -0.005891 0.015485 0.000000 0.000000 0.000000
# 4 0.000000 0.000000 0.000000 0.077928 0.000000 0.000000
# 5 0.000000 0.000000 0.000000 0.000000 0.043484 0.000000
# 6 0.000000 0.000000 0.000000 0.000000 0.000000 0.032015
#
#
# Mechanical properties :
#
#
# Convention : Reuss Voigt Hill
#
# Bulk Modulus (GPa) = 46.42283 48.20805 47.31544
# Shear Modulus (GPa) = 22.15931 25.12135 23.64033
#
# Velocity S-wave (km/s) = 3.56701 3.79794 3.68428
# Velocity P-wave (km/s) = 6.60455 6.84929 6.72803
#
# Compressibility (1/GPa) = 0.02154112
#
# Stress axis : x y z
#
# Youngs Moduli (GPa) = 74.70806 69.36842 64.57836
#
# Poissons Ratio (x) = 0.32565 0.01853
# Poissons Ratio (y) = 0.35072 0.38044
# Poissons Ratio (z) = 0.02144 0.40866
#
# Static dielectric constant tensor:
#      x y z
#    x 1.461310 0.000000 0.000000 
#    y 0.000000 1.620940 0.000000 
#    z 0.000000 0.000000 1.589530 
# 
# From -- ./inp_files/44995.got.cif
#   From: 2010.05.17/outbox.cif.g08.bks.cpg/sg71_23_cif.got.tgz:44995.got - 2010.06.03 16:22:01.
