data_PCOD9521587
_publ_section_title
;
Structure prediction by ZEFSAII (Michael W. Deem and Ramdas Pophale) SiO2 
 PCOD9521587
Probable space group: I M M M
;
_chemical_formula_sum "Si O2"
_cell_formula_units_Z 100
_cell_length_a 17.727079
_cell_length_b 15.153813
_cell_length_c 18.445236
_cell_angle_alpha 90.000000
_cell_angle_beta 90.000000
_cell_angle_gamma 90.000000
_cell_volume 4954.996135
_symmetry_space_group_name_H-M "I M M M"
_symmetry_group_IT_number 71
_symmetry_cell_setting 'orthorhombic'
loop_
_space_group_symop_operation_xyz
x,y,z
-x,-y,z
x,-y,-z
-x,y,-z
-x,-y,-z
x,y,-z
-x,y,z
x,-y,z
1/2+x,1/2+y,1/2+z
1/2-x,1/2-y,1/2+z
1/2+x,1/2-y,1/2-z
1/2-x,1/2+y,1/2-z
1/2-x,1/2-y,1/2-z
1/2+x,1/2+y,1/2-z
1/2-x,1/2+y,1/2+z
1/2+x,1/2-y,1/2+z
loop_
_atom_site_type_symbol
_atom_site_label
_atom_site_fract_x
_atom_site_fract_y
_atom_site_fract_z
Si Si1 0.874248 0.600620 0.373128
Si Si2 0.197386 0.896343 0.292020
Si Si3 0.378303 0.896725 0.712523
Si Si4 0.500000 0.111060 0.000000
Si Si5 0.707090 0.269133 0.918812
Si Si6 0.913884 0.101848 0.839573
Si Si7 0.112832 0.275473 0.080158
O O1 0.845428 0.500000 0.368824
O O2 0.907179 0.621729 0.293499
O O3 0.810641 0.670846 0.392654
O O4 0.935149 0.606621 0.436410
O O5 0.287143 0.882806 0.280414
O O6 0.174578 0.836664 0.360072
O O7 0.147126 0.874363 0.222131
O O8 0.186352 0.000000 0.307322
O O9 0.409619 0.836349 0.648212
O O10 0.390801 0.000000 0.695631
O O11 0.796458 0.282454 0.921411
O O12 0.676318 0.282419 0.000000
O O13 0.907388 0.174661 0.901871
O O14 0.000000 0.105817 0.810889
O O15 0.900255 0.000000 0.862083
O O16 0.085801 0.301386 0.000000
#
# Coordination Sequence:
#
# PCOD9521587 Si02
#       7
#    16  16  16   4  16  16  16
#     4  11  21  36  55  78 113 150 186 225 273 331
#     4   9  18  36  59  82 111 145 186 234 279 327
#     4   9  19  36  61  87 110 145 187 230 279 332
#     4  12  25  40  56  80 119 156 183 228 280 332
#     4  10  20  34  54  83 113 145 185 230 279 330
#     4  10  21  37  56  79 108 146 188 228 278 335
#     4  10  21  37  57  83 115 144 182 235 283 327
#
# _framework density 20.181650000000001
#
# number of rings (size 3 to 8) (size 9 to 14) (size 15 to 20)
#    0.000    2.080    0.800    2.640    0.000    5.760 
#    5.760    5.600    0.000    0.000    0.000    3.920 
#    0.000    0.000    0.000    0.000    0.000    0.000 
#
# Total GULP energy -278609.077698 kJ/mol
# GULP energy per Si atom -5572.181554 kJ/mol
# Density = 2.013572 g / cm^3
# Si number density = 20.181650 Si / 1000 Ang^3
#
#
#
# Elastic Constant Matrix: (Units=GPa)
#
#
# Indices 1 2 3 4 5 6 
#
# 1 39.4709 10.3404 21.1428 0.0000 0.0000 0.0000
# 2 10.3404 49.3803 70.5013 0.0000 0.0000 0.0000
# 3 21.1428 70.5013 184.5676 0.0000 0.0000 0.0000
# 4 0.0000 0.0000 0.0000 -87.1858 0.0000 0.0000
# 5 0.0000 0.0000 0.0000 0.0000 -36.6817 0.0000
# 6 0.0000 0.0000 0.0000 0.0000 0.0000 40.5227
#
#
#
# Elastic Compliance Matrix: (Units=1/GPa)
#
#
# Indices 1 2 3 4 5 6 
#
# 1 0.027159 -0.002739 -0.002065 0.000000 0.000000 0.000000
# 2 -0.002739 0.044819 -0.016806 0.000000 0.000000 0.000000
# 3 -0.002065 -0.016806 0.012074 0.000000 0.000000 0.000000
# 4 0.000000 0.000000 0.000000 -0.011470 0.000000 0.000000
# 5 0.000000 0.000000 0.000000 0.000000 -0.027262 0.000000
# 6 0.000000 0.000000 0.000000 0.000000 0.000000 0.024678
#
#
# Mechanical properties :
#
#
# Convention : Reuss Voigt Hill
#
# Bulk Modulus (GPa) = 24.49073 53.04308 38.76690
# Shear Modulus (GPa) = 39.42288 -5.24001 17.09144
#
# Velocity S-wave (km/s) = 4.42453 -1.61309 2.91328
# Velocity P-wave (km/s) = 6.18574 4.78231 5.52874
#
# Compressibility (1/GPa) = 0.04083178
#
# Stress axis : x y z
#
# Youngs Moduli (GPa) = 36.82056 22.31178 82.82046
#
# Poissons Ratio (x) = 0.06111 0.17101
# Poissons Ratio (y) = 0.10086 1.39191
# Poissons Ratio (z) = 0.07603 0.37498
#
# Static dielectric constant tensor:
#      x y z
#    x 1.717000 0.000000 0.000000 
#    y 0.000000 1.710370 0.000000 
#    z 0.000000 0.000000 1.717980 
# 
# From -- ./inp_files/47302.got.cif
#   From: 2010.05.17/outbox.cif.g08.bks.cpg/sg71_24_cif.got.tgz:47302.got - 2010.06.03 16:22:01.
