data_PCOD9521027
_publ_section_title
;
Structure prediction by ZEFSAII (Michael W. Deem and Ramdas Pophale) SiO2 
 PCOD9521027
Probable space group: I M M M
;
_chemical_formula_sum "Si O2"
_cell_formula_units_Z 88
_cell_length_a 18.997364
_cell_length_b 8.458674
_cell_length_c 30.375212
_cell_angle_alpha 90.000000
_cell_angle_beta 90.000000
_cell_angle_gamma 90.000000
_cell_volume 4881.069026
_symmetry_space_group_name_H-M "I M M M"
_symmetry_group_IT_number 71
_symmetry_cell_setting 'orthorhombic'
loop_
_space_group_symop_operation_xyz
x,y,z
-x,-y,z
x,-y,-z
-x,y,-z
-x,-y,-z
x,y,-z
-x,y,z
x,-y,z
1/2+x,1/2+y,1/2+z
1/2-x,1/2-y,1/2+z
1/2+x,1/2-y,1/2-z
1/2-x,1/2+y,1/2-z
1/2-x,1/2-y,1/2-z
1/2+x,1/2+y,1/2-z
1/2-x,1/2+y,1/2+z
1/2+x,1/2-y,1/2+z
loop_
_atom_site_type_symbol
_atom_site_label
_atom_site_fract_x
_atom_site_fract_y
_atom_site_fract_z
Si Si1 0.420643 0.310130 0.254951
Si Si2 0.500000 0.815002 0.053626
Si Si3 0.345471 0.806463 0.948778
Si Si4 0.722610 0.312358 0.615788
Si Si5 0.919919 0.311650 0.852824
Si Si6 0.212993 0.810752 0.705807
O O1 0.500000 0.262024 0.244905
O O2 0.417518 0.500000 0.260582
O O3 0.402183 0.237866 0.302505
O O4 0.368052 0.269689 0.215791
O O5 0.576782 0.749720 0.067083
O O6 0.500000 0.000000 0.066316
O O7 0.500000 0.810198 0.000000
O O8 0.278893 0.752438 0.920207
O O9 0.347301 0.000000 0.947044
O O10 0.337300 0.763030 0.000000
O O11 0.717910 0.500000 0.611218
O O12 0.643031 0.247479 0.616267
O O13 0.755778 0.269437 0.662972
O O14 0.921298 0.500000 0.854733
O O15 0.000000 0.252621 0.861897
O O16 0.250000 0.750000 0.750000
O O17 0.221240 0.000000 0.702039
#
# Coordination Sequence:
#
# PCOD9521027 Si02
#       6
#    16   8  16  16  16  16
#     4   9  18  33  51  68  90 127 172 211 249 292
#     4   7  10  22  46  72  99 131 165 203 245 285
#     4   8  15  29  50  75 102 132 168 208 248 295
#     4  11  21  32  50  77 105 133 166 206 258 308
#     4  10  20  33  51  73  96 127 170 214 251 297
#     4  11  21  33  50  71 101 136 170 208 250 297
#
# _framework density 18.028838
#
# number of rings (size 3 to 8) (size 9 to 14) (size 15 to 20)
#    0.000    2.455    1.818    2.727    0.000    1.818 
#    1.636    0.000    0.000    2.727    0.000    3.818 
#    0.000    8.727    0.000    0.000    0.000    0.000 
#
# Total GULP energy -245151.953211 kJ/mol
# GULP energy per Si atom -5571.635300 kJ/mol
# Density = 1.798780 g / cm^3
# Si number density = 18.028838 Si / 1000 Ang^3
#
#
#
# Elastic Constant Matrix: (Units=GPa)
#
#
# Indices 1 2 3 4 5 6 
#
# 1 164.3949 21.8940 54.8746 0.0000 0.0000 0.0000
# 2 21.8940 10.2973 -0.0110 0.0000 0.0000 0.0000
# 3 54.8746 -0.0110 53.2102 0.0000 0.0000 0.0000
# 4 0.0000 0.0000 0.0000 9.8722 0.0000 0.0000
# 5 0.0000 0.0000 0.0000 0.0000 32.0826 0.0000
# 6 0.0000 0.0000 0.0000 0.0000 0.0000 22.6070
#
#
#
# Elastic Compliance Matrix: (Units=1/GPa)
#
#
# Indices 1 2 3 4 5 6 
#
# 1 0.016339 -0.034757 -0.016857 0.000000 0.000000 0.000000
# 2 -0.034757 0.171049 0.035879 0.000000 0.000000 0.000000
# 3 -0.016857 0.035879 0.036185 0.000000 0.000000 0.000000
# 4 0.000000 0.000000 0.000000 0.101294 0.000000 0.000000
# 5 0.000000 0.000000 0.000000 0.000000 0.031170 0.000000
# 6 0.000000 0.000000 0.000000 0.000000 0.000000 0.044234
#
#
# Mechanical properties :
#
#
# Convention : Reuss Voigt Hill
#
# Bulk Modulus (GPa) = 5.20551 42.37975 23.79263
# Shear Modulus (GPa) = 10.08524 22.98868 16.53696
#
# Velocity S-wave (km/s) = 2.36772 3.57474 3.03190
# Velocity P-wave (km/s) = 3.22000 6.37150 5.04799
#
# Compressibility (1/GPa) = 0.19210420
#
# Stress axis : x y z
#
# Youngs Moduli (GPa) = 61.20512 5.84626 27.63589
#
# Poissons Ratio (x) = 0.20320 0.46585
# Poissons Ratio (y) = 2.12728 -0.99155
# Poissons Ratio (z) = 1.03172 -0.20976
#
# Static dielectric constant tensor:
#      x y z
#    x 1.701040 0.000000 0.000000 
#    y 0.000000 1.657270 0.000000 
#    z 0.000000 0.000000 1.578560 
# 
# From -- ./inp_files/70367.got.cif
#   From: 2010.05.17/outbox.cif.g08.bks.cpg/sg71_36_cif.got.tgz:70367.got - 2010.06.03 16:22:01.
