data_PCOD9521181
_publ_section_title
;
Structure prediction by ZEFSAII (Michael W. Deem and Ramdas Pophale) SiO2 
 PCOD9521181
Probable space group: I M M M
;
_chemical_formula_sum "Si O2"
_cell_formula_units_Z 88
_cell_length_a 24.057070
_cell_length_b 8.749479
_cell_length_c 22.426769
_cell_angle_alpha 90.000000
_cell_angle_beta 90.000000
_cell_angle_gamma 90.000000
_cell_volume 4720.539486
_symmetry_space_group_name_H-M "I M M M"
_symmetry_group_IT_number 71
_symmetry_cell_setting 'orthorhombic'
loop_
_space_group_symop_operation_xyz
x,y,z
-x,-y,z
x,-y,-z
-x,y,-z
-x,-y,-z
x,y,-z
-x,y,z
x,-y,z
1/2+x,1/2+y,1/2+z
1/2-x,1/2-y,1/2+z
1/2+x,1/2-y,1/2-z
1/2-x,1/2+y,1/2-z
1/2-x,1/2-y,1/2-z
1/2+x,1/2+y,1/2-z
1/2-x,1/2+y,1/2+z
1/2+x,1/2-y,1/2+z
loop_
_atom_site_type_symbol
_atom_site_label
_atom_site_fract_x
_atom_site_fract_y
_atom_site_fract_z
Si Si1 0.355039 0.178760 0.659310
Si Si2 0.759278 0.321407 0.064962
Si Si3 0.566473 0.677111 0.432570
Si Si4 0.149066 0.319784 0.603699
Si Si5 0.435017 0.813533 0.000000
Si Si6 0.690539 0.320456 0.228295
O O1 0.301471 0.211740 0.617892
O O2 0.406375 0.219562 0.617451
O O3 0.350801 0.280141 0.717848
O O4 0.354181 0.000000 0.675218
O O5 0.742167 0.500000 0.070520
O O6 0.705843 0.215620 0.068651
O O7 0.786239 0.304061 0.000000
O O8 0.581335 0.724810 0.500000
O O9 0.500000 0.680163 0.428542
O O10 0.584464 0.500000 0.424829
O O11 0.141527 0.500000 0.613321
O O12 0.098924 0.265594 0.560005
O O13 0.163075 0.243693 0.667627
O O14 0.500000 0.766989 0.000000
O O15 0.433674 0.000000 0.000000
O O16 0.699346 0.500000 0.221110
O O17 0.750000 0.250000 0.250000
#
# Coordination Sequence:
#
# PCOD9521181 Si02
#       6
#    16  16  16  16   8  16
#     4  11  22  36  56  85 118 157 198 241 292 348
#     4  10  20  33  52  81 119 155 188 238 296 347
#     4   9  19  37  59  83 115 156 198 242 290 339
#     4  11  21  36  60  88 115 152 196 240 298 361
#     4   9  20  40  65  93 123 155 198 251 300 353
#     4  12  24  39  58  84 119 159 196 240 296 360
#
# _framework density 18.641938
#
# number of rings (size 3 to 8) (size 9 to 14) (size 15 to 20)
#    0.000    1.545    2.727    3.818    0.000    2.182 
#    0.000    1.818    0.000    7.636    0.000    0.000 
#    0.000    0.000    0.000    0.000    0.000    0.000 
#
# Total GULP energy -245478.236358 kJ/mol
# GULP energy per Si atom -5579.050826 kJ/mol
# Density = 1.859951 g / cm^3
# Si number density = 18.641938 Si / 1000 Ang^3
#
#
#
# Elastic Constant Matrix: (Units=GPa)
#
#
# Indices 1 2 3 4 5 6 
#
# 1 77.4246 34.2787 40.1521 0.0000 0.0000 0.0000
# 2 34.2787 58.4631 51.5686 0.0000 0.0000 0.0000
# 3 40.1521 51.5686 151.4152 0.0000 0.0000 0.0000
# 4 0.0000 0.0000 0.0000 30.2367 0.0000 0.0000
# 5 0.0000 0.0000 0.0000 0.0000 74.7351 0.0000
# 6 0.0000 0.0000 0.0000 0.0000 0.0000 21.9951
#
#
#
# Elastic Compliance Matrix: (Units=1/GPa)
#
#
# Indices 1 2 3 4 5 6 
#
# 1 0.017731 -0.008932 -0.001660 0.000000 0.000000 0.000000
# 2 -0.008932 0.028950 -0.007491 0.000000 0.000000 0.000000
# 3 -0.001660 -0.007491 0.009596 0.000000 0.000000 0.000000
# 4 0.000000 0.000000 0.000000 0.033072 0.000000 0.000000
# 5 0.000000 0.000000 0.000000 0.000000 0.013381 0.000000
# 6 0.000000 0.000000 0.000000 0.000000 0.000000 0.045465
#
#
# Mechanical properties :
#
#
# Convention : Reuss Voigt Hill
#
# Bulk Modulus (GPa) = 49.72521 59.92240 54.82381
# Shear Modulus (GPa) = 26.16930 36.14697 31.15813
#
# Velocity S-wave (km/s) = 3.75078 4.40820 4.09271
# Velocity P-wave (km/s) = 6.74459 7.62386 7.19767
#
# Compressibility (1/GPa) = 0.02011052
#
# Stress axis : x y z
#
# Youngs Moduli (GPa) = 56.39777 34.54281 104.21281
#
# Poissons Ratio (x) = 0.30855 0.17297
# Poissons Ratio (y) = 0.50376 0.78065
# Poissons Ratio (z) = 0.09361 0.25876
#
# Static dielectric constant tensor:
#      x y z
#    x 1.643140 0.000000 0.000000 
#    y 0.000000 1.652050 0.000000 
#    z 0.000000 0.000000 1.691530 
# 
# From -- ./inp_files/55555.got.cif
#   From: 2010.05.17/outbox.cif.g08.bks.cpg/sg71_28_cif.got.tgz:55555.got - 2010.06.03 16:22:01.
