data_PCOD9521714
_publ_section_title
;
Structure prediction by ZEFSAII (Michael W. Deem and Ramdas Pophale) SiO2 
 PCOD9521714
Probable space group: I M M M
;
_chemical_formula_sum "Si O2"
_cell_formula_units_Z 66
_cell_length_a 10.095862
_cell_length_b 13.941721
_cell_length_c 26.913634
_cell_angle_alpha 90.000000
_cell_angle_beta 90.000000
_cell_angle_gamma 90.000000
_cell_volume 3788.193331
_symmetry_space_group_name_H-M "I M M M"
_symmetry_group_IT_number 71
_symmetry_cell_setting 'orthorhombic'
loop_
_space_group_symop_operation_xyz
x,y,z
-x,-y,z
x,-y,-z
-x,y,-z
-x,-y,-z
x,y,-z
-x,y,z
x,-y,z
1/2+x,1/2+y,1/2+z
1/2-x,1/2-y,1/2+z
1/2+x,1/2-y,1/2-z
1/2-x,1/2+y,1/2-z
1/2-x,1/2-y,1/2-z
1/2+x,1/2+y,1/2-z
1/2-x,1/2+y,1/2+z
1/2+x,1/2-y,1/2+z
loop_
_atom_site_type_symbol
_atom_site_label
_atom_site_fract_x
_atom_site_fract_y
_atom_site_fract_z
Si Si1 0.500000 0.893013 0.103029
Si Si2 0.342866 0.887164 0.676563
Si Si3 0.351551 0.614945 0.266641
Si Si4 0.000000 0.114273 0.940929
Si Si5 0.500000 0.000000 0.000000
Si Si6 0.223195 0.202667 0.127155
O O1 0.630056 0.835048 0.117699
O O2 0.500000 0.000000 0.127758
O O3 0.500000 0.918246 0.044527
O O4 0.500000 0.872402 0.684163
O O5 0.259226 0.861722 0.725863
O O6 0.293337 0.816600 0.633371
O O7 0.321498 0.000000 0.666299
O O8 0.500000 0.641988 0.249400
O O9 0.348749 0.500000 0.273115
O O10 0.325164 0.661201 0.319880
O O11 0.127659 0.160587 0.915071
O O12 0.000000 0.000000 0.931291
O O13 0.000000 0.128386 0.000000
#
# Coordination Sequence:
#
# PCOD9521714 Si02
#       6
#     8  16  16   8   2  16
#     4  10  24  38  62  84 120 150 185 235 303 364
#     4  10  22  39  58  84 122 161 202 247 291 343
#     4  10  20  34  56  85 121 154 197 250 297 356
#     4  11  24  38  62  89 116 145 191 246 307 361
#     4   8  24  48  56  90 126 152 176 254 304 376
#     4  12  22  38  59  88 115 160 199 242 295 362
#
# _framework density 17.422553000000001
#
# number of rings (size 3 to 8) (size 9 to 14) (size 15 to 20)
#    0.364    1.091    2.424    2.909    5.091    0.000 
#    0.000    0.000    0.000    1.455    0.000    0.848 
#    0.000    0.000    0.000    0.000    0.000    0.000 
#
# Total GULP energy -183982.286362 kJ/mol
# GULP energy per Si atom -5575.220799 kJ/mol
# Density = 1.738290 g / cm^3
# Si number density = 17.422553 Si / 1000 Ang^3
#
#
#
# Elastic Constant Matrix: (Units=GPa)
#
#
# Indices 1 2 3 4 5 6 
#
# 1 153.6105 64.2020 44.1976 0.0000 0.0000 0.0000
# 2 64.2020 103.5111 60.3314 0.0000 0.0000 0.0000
# 3 44.1976 60.3314 74.6887 0.0000 0.0000 0.0000
# 4 0.0000 0.0000 0.0000 26.0181 0.0000 0.0000
# 5 0.0000 0.0000 0.0000 0.0000 10.3067 0.0000
# 6 0.0000 0.0000 0.0000 0.0000 0.0000 19.8810
#
#
#
# Elastic Compliance Matrix: (Units=1/GPa)
#
#
# Indices 1 2 3 4 5 6 
#
# 1 0.008879 -0.004620 -0.001522 0.000000 0.000000 0.000000
# 2 -0.004620 0.020659 -0.013954 0.000000 0.000000 0.000000
# 3 -0.001522 -0.013954 0.025562 0.000000 0.000000 0.000000
# 4 0.000000 0.000000 0.000000 0.038435 0.000000 0.000000
# 5 0.000000 0.000000 0.000000 0.000000 0.097024 0.000000
# 6 0.000000 0.000000 0.000000 0.000000 0.000000 0.050299
#
#
# Mechanical properties :
#
#
# Convention : Reuss Voigt Hill
#
# Bulk Modulus (GPa) = 67.08253 74.36360 70.72306
# Shear Modulus (GPa) = 17.48129 22.11313 19.79721
#
# Velocity S-wave (km/s) = 3.17104 3.56648 3.37456
# Velocity P-wave (km/s) = 7.21070 7.72883 7.47425
#
# Compressibility (1/GPa) = 0.01490701
#
# Stress axis : x y z
#
# Youngs Moduli (GPa) = 112.62751 48.40410 39.12087
#
# Poissons Ratio (x) = 0.22361 0.05956
# Poissons Ratio (y) = 0.52030 0.54591
# Poissons Ratio (z) = 0.17147 0.67545
#
# Static dielectric constant tensor:
#      x y z
#    x 1.593730 0.000000 0.000000 
#    y 0.000000 1.636900 0.000000 
#    z 0.000000 0.000000 1.549330 
# 
# From -- ./inp_files/62812.got.cif
#   From: 2010.05.17/outbox.cif.g08.bks.cpg/sg71_32_cif.got.tgz:62812.got - 2010.06.03 16:22:01.
