data_PCOD9521644
_publ_section_title
;
Structure prediction by ZEFSAII (Michael W. Deem and Ramdas Pophale) SiO2 
 PCOD9521644
Probable space group: I M M M
;
_chemical_formula_sum "Si O2"
_cell_formula_units_Z 112
_cell_length_a 15.583927
_cell_length_b 27.674396
_cell_length_c 13.790205
_cell_angle_alpha 90.000000
_cell_angle_beta 90.000000
_cell_angle_gamma 90.000000
_cell_volume 5947.381239
_symmetry_space_group_name_H-M "I M M M"
_symmetry_group_IT_number 71
_symmetry_cell_setting 'orthorhombic'
loop_
_space_group_symop_operation_xyz
x,y,z
-x,-y,z
x,-y,-z
-x,y,-z
-x,-y,-z
x,y,-z
-x,y,z
x,-y,z
1/2+x,1/2+y,1/2+z
1/2-x,1/2-y,1/2+z
1/2+x,1/2-y,1/2-z
1/2-x,1/2+y,1/2-z
1/2-x,1/2-y,1/2-z
1/2+x,1/2+y,1/2-z
1/2-x,1/2+y,1/2+z
1/2+x,1/2-y,1/2+z
loop_
_atom_site_type_symbol
_atom_site_label
_atom_site_fract_x
_atom_site_fract_y
_atom_site_fract_z
Si Si1 0.733106 0.442448 0.115713
Si Si2 0.593085 0.111086 0.386004
Si Si3 0.359421 0.304721 0.108917
Si Si4 0.402054 0.194431 0.892132
Si Si5 0.595911 0.387873 0.754809
Si Si6 0.396158 0.692795 0.612146
Si Si7 0.667594 0.205139 0.688392
O O1 0.741157 0.500000 0.121825
O O2 0.821946 0.416777 0.147628
O O3 0.659710 0.423612 0.188903
O O4 0.717243 0.431131 0.000000
O O5 0.589295 0.100627 0.500000
O O6 0.500000 0.097974 0.342993
O O7 0.609272 0.168076 0.371827
O O8 0.402510 0.252646 0.105445
O O9 0.409333 0.342700 0.172036
O O10 0.264109 0.299288 0.151742
O O11 0.351080 0.322935 0.000000
O O12 0.500000 0.177589 0.875584
O O13 0.343237 0.186201 0.798641
O O14 0.373667 0.178363 0.000000
O O15 0.500000 0.407880 0.738538
O O16 0.628004 0.359082 0.658888
O O17 0.368510 0.697030 0.500000
O O18 0.500000 0.694875 0.615785
O O19 0.361650 0.739676 0.670244
#
# Coordination Sequence:
#
# PCOD9521644 Si02
#       7
#    16  16  16  16  16  16  16
#     4  10  22  40  60  84 112 140 180 236 290 340
#     4  10  20  34  55  82 112 149 188 226 275 333
#     4  11  21  32  49  73 104 145 189 228 266 318
#     4  10  21  34  47  69 104 148 195 234 272 321
#     4  11  22  37  57  81 111 149 184 223 277 332
#     4  10  21  35  52  79 114 151 190 228 268 321
#     4  12  20  33  51  79 113 152 194 230 267 315
#
# _framework density 18.831818999999999
#
# number of rings (size 3 to 8) (size 9 to 14) (size 15 to 20)
#    0.000    1.429    2.857    3.857    0.000    3.429 
#    0.000    2.143    0.000    0.429    0.000    2.000 
#    0.000    0.000    0.000    4.286    0.000    0.286 
#
# Total GULP energy -312349.684512 kJ/mol
# GULP energy per Si atom -5577.672938 kJ/mol
# Density = 1.878896 g / cm^3
# Si number density = 18.831819 Si / 1000 Ang^3
#
#
#
# Elastic Constant Matrix: (Units=GPa)
#
#
# Indices 1 2 3 4 5 6 
#
# 1 80.5436 16.2820 7.7896 0.0000 0.0000 0.0000
# 2 16.2820 58.7342 -8.3611 0.0000 0.0000 0.0000
# 3 7.7896 -8.3611 84.6435 0.0000 0.0000 0.0000
# 4 0.0000 0.0000 0.0000 24.8243 0.0000 0.0000
# 5 0.0000 0.0000 0.0000 0.0000 16.9935 0.0000
# 6 0.0000 0.0000 0.0000 0.0000 0.0000 -1.6245
#
#
#
# Elastic Compliance Matrix: (Units=1/GPa)
#
#
# Indices 1 2 3 4 5 6 
#
# 1 0.013368 -0.003936 -0.001619 0.000000 0.000000 0.000000
# 2 -0.003936 0.018428 0.002183 0.000000 0.000000 0.000000
# 3 -0.001619 0.002183 0.012179 0.000000 0.000000 0.000000
# 4 0.000000 0.000000 0.000000 0.040283 0.000000 0.000000
# 5 0.000000 0.000000 0.000000 0.000000 0.058846 0.000000
# 6 0.000000 0.000000 0.000000 0.000000 0.000000 -0.615564
#
#
# Mechanical properties :
#
#
# Convention : Reuss Voigt Hill
#
# Bulk Modulus (GPa) = 26.86079 28.37136 27.61608
# Shear Modulus (GPa) = -11.03009 21.91938 5.44464
#
# Velocity S-wave (km/s) = -2.42278 3.41538 1.70220
# Velocity P-wave (km/s) = 2.54322 5.53637 4.30810
#
# Compressibility (1/GPa) = 0.03722898
#
# Stress axis : x y z
#
# Youngs Moduli (GPa) = 74.80580 54.26595 82.10961
#
# Poissons Ratio (x) = 0.21361 0.13294
# Poissons Ratio (y) = 0.29446 -0.17921
# Poissons Ratio (z) = 0.12111 -0.11844
#
# Static dielectric constant tensor:
#      x y z
#    x 1.707340 0.000000 0.000000 
#    y 0.000000 1.631140 0.000000 
#    z 0.000000 0.000000 1.718680 
# 
# From -- ./inp_files/35148.got.cif
#   From: 2010.05.17/outbox.cif.g08.bks.cpg/sg71_18_cif.got.tgz:35148.got - 2010.06.03 16:22:01.
