data_PCOD9521303
_publ_section_title
;
Structure prediction by ZEFSAII (Michael W. Deem and Ramdas Pophale) SiO2 
 PCOD9521303
Probable space group: I M M M
;
_chemical_formula_sum "Si O2"
_cell_formula_units_Z 72
_cell_length_a 28.975437
_cell_length_b 13.681506
_cell_length_c 10.115890
_cell_angle_alpha 90.000000
_cell_angle_beta 90.000000
_cell_angle_gamma 90.000000
_cell_volume 4010.218148
_symmetry_space_group_name_H-M "I M M M"
_symmetry_group_IT_number 71
_symmetry_cell_setting 'orthorhombic'
loop_
_space_group_symop_operation_xyz
x,y,z
-x,-y,z
x,-y,-z
-x,y,-z
-x,-y,-z
x,y,-z
-x,y,z
x,-y,z
1/2+x,1/2+y,1/2+z
1/2-x,1/2-y,1/2+z
1/2+x,1/2-y,1/2-z
1/2-x,1/2+y,1/2-z
1/2-x,1/2-y,1/2-z
1/2+x,1/2+y,1/2-z
1/2-x,1/2+y,1/2+z
1/2+x,1/2-y,1/2+z
loop_
_atom_site_type_symbol
_atom_site_label
_atom_site_fract_x
_atom_site_fract_y
_atom_site_fract_z
Si Si1 0.445549 0.115319 0.225406
Si Si2 0.385023 0.789299 0.000000
Si Si3 0.632842 0.617909 0.500000
Si Si4 0.676087 0.616873 0.000000
Si Si5 0.553591 0.774759 0.500000
Si Si6 0.716233 0.881696 0.000000
Si Si7 0.790574 0.117770 0.786535
O O1 0.500000 0.125311 0.191776
O O2 0.413994 0.175279 0.125399
O O3 0.438813 0.158577 0.371232
O O4 0.434367 0.000000 0.219459
O O5 0.372033 0.675155 0.000000
O O6 0.334924 0.840409 0.000000
O O7 0.625349 0.500000 0.500000
O O8 0.587085 0.681955 0.500000
O O9 0.664330 0.644195 0.627326
O O10 0.703179 0.644628 0.133951
O O11 0.669343 0.500000 0.000000
O O12 0.500000 0.743797 0.500000
O O13 0.745912 0.851245 0.870544
O O14 0.713947 0.000000 0.000000
O O15 0.788987 0.000000 0.788890
#
# Coordination Sequence:
#
# PCOD9521303 Si02
#       7
#    16   8   8   8   8   8  16
#     4  10  21  38  57  77 103 134 169 211 263 321
#     4  12  22  33  57  82 102 133 173 217 259 304
#     4   9  16  30  52  77 107 143 179 212 250 301
#     4  10  20  34  51  75 106 140 176 209 247 301
#     4  10  20  34  54  78 104 137 175 215 260 306
#     4   9  18  33  51  75 103 131 172 218 256 298
#     4   8  16  32  52  71 101 143 176 206 249 302
#
# _framework density 17.954135000000001
#
# number of rings (size 3 to 8) (size 9 to 14) (size 15 to 20)
#    0.000    2.444    0.000    4.333    0.000    3.333 
#    0.000    1.111    0.000    5.333    0.000    0.000 
#    0.000    0.000    0.000    0.000    0.000    0.000 
#
# Total GULP energy -200826.181683 kJ/mol
# GULP energy per Si atom -5578.505047 kJ/mol
# Density = 1.791327 g / cm^3
# Si number density = 17.954135 Si / 1000 Ang^3
#
#
#
# Elastic Constant Matrix: (Units=GPa)
#
#
# Indices 1 2 3 4 5 6 
#
# 1 84.1424 46.5733 66.9773 0.0000 0.0000 0.0000
# 2 46.5733 93.6614 34.3127 0.0000 0.0000 0.0000
# 3 66.9773 34.3127 163.8384 0.0000 0.0000 0.0000
# 4 0.0000 0.0000 0.0000 12.2587 0.0000 0.0000
# 5 0.0000 0.0000 0.0000 0.0000 5.7486 0.0000
# 6 0.0000 0.0000 0.0000 0.0000 0.0000 38.0800
#
#
#
# Elastic Compliance Matrix: (Units=1/GPa)
#
#
# Indices 1 2 3 4 5 6 
#
# 1 0.022465 -0.008455 -0.007413 0.000000 0.000000 0.000000
# 2 -0.008455 0.014746 0.000368 0.000000 0.000000 0.000000
# 3 -0.007413 0.000368 0.009057 0.000000 0.000000 0.000000
# 4 0.000000 0.000000 0.000000 0.081575 0.000000 0.000000
# 5 0.000000 0.000000 0.000000 0.000000 0.173957 0.000000
# 6 0.000000 0.000000 0.000000 0.000000 0.000000 0.026261
#
#
# Mechanical properties :
#
#
# Convention : Reuss Voigt Hill
#
# Bulk Modulus (GPa) = 65.49486 70.81875 68.15680
# Shear Modulus (GPa) = 13.73058 24.13604 18.93331
#
# Velocity S-wave (km/s) = 2.76843 3.67047 3.25089
# Velocity P-wave (km/s) = 6.83938 7.58241 7.22046
#
# Compressibility (1/GPa) = 0.01526837
#
# Stress axis : x y z
#
# Youngs Moduli (GPa) = 44.51277 67.81387 110.41234
#
# Poissons Ratio (x) = 0.57338 0.81850
# Poissons Ratio (y) = 0.37636 -0.04065
# Poissons Ratio (z) = 0.32998 -0.02497
#
# Static dielectric constant tensor:
#      x y z
#    x 1.585530 0.000000 0.000000 
#    y 0.000000 1.616550 0.000000 
#    z 0.000000 0.000000 1.635570 
# 
# From -- ./inp_files/14405.got.cif
#   From: 2010.05.17/outbox.cif.g08.bks.cpg/sg71_8_cif.got.tgz:14405.got - 2010.06.03 16:22:01.
