data_PCOD9521599
_publ_section_title
;
Structure prediction by ZEFSAII (Michael W. Deem and Ramdas Pophale) SiO2 
 PCOD9521599
Probable space group: I M M M
;
_chemical_formula_sum "Si O2"
_cell_formula_units_Z 58
_cell_length_a 18.854782
_cell_length_b 15.505246
_cell_length_c 10.819676
_cell_angle_alpha 90.000000
_cell_angle_beta 90.000000
_cell_angle_gamma 90.000000
_cell_volume 3163.110998
_symmetry_space_group_name_H-M "I M M M"
_symmetry_group_IT_number 71
_symmetry_cell_setting 'orthorhombic'
loop_
_space_group_symop_operation_xyz
x,y,z
-x,-y,z
x,-y,-z
-x,y,-z
-x,-y,-z
x,y,-z
-x,y,z
x,-y,z
1/2+x,1/2+y,1/2+z
1/2-x,1/2-y,1/2+z
1/2+x,1/2-y,1/2-z
1/2-x,1/2+y,1/2-z
1/2-x,1/2-y,1/2-z
1/2+x,1/2+y,1/2-z
1/2-x,1/2+y,1/2+z
1/2+x,1/2-y,1/2+z
loop_
_atom_site_type_symbol
_atom_site_label
_atom_site_fract_x
_atom_site_fract_y
_atom_site_fract_z
Si Si1 0.580830 0.500000 0.849720
Si Si2 0.080912 0.500000 0.648597
Si Si3 0.500000 0.000000 0.500000
Si Si4 0.421549 0.178605 0.500000
Si Si5 0.339605 0.832580 0.749798
Si Si6 0.185889 0.848649 0.644182
O O1 0.500000 0.500000 0.804239
O O2 0.625816 0.584332 0.814051
O O3 0.577574 0.500000 0.000000
O O4 0.079215 0.500000 0.500000
O O5 0.119199 0.414139 0.695727
O O6 0.000000 0.500000 0.698875
O O7 0.439332 0.076530 0.500000
O O8 0.500000 0.220836 0.500000
O O9 0.377226 0.196766 0.377243
O O10 0.258751 0.858197 0.719385
O O11 0.338909 0.749750 0.838284
O O12 0.200982 0.865676 0.500000
#
# Coordination Sequence:
#
# PCOD9521599 Si02
#       6
#     8   8   2   8  16  16
#     4   9  19  35  55  79 105 141 192 236 281 331
#     4  11  24  38  55  87 123 155 187 233 303 367
#     4   8  20  32  52  80 122 142 198 224 280 346
#     4  10  20  34  54  87 114 157 187 233 282 347
#     4  11  21  36  59  83 120 152 193 238 289 355
#     4  10  21  38  59  85 112 151 196 243 290 338
#
# _framework density 18.336378
#
# number of rings (size 3 to 8) (size 9 to 14) (size 15 to 20)
#    0.414    1.379    1.379    3.310    1.931    2.207 
#    0.000    2.759    0.000    0.000    0.000    1.931 
#    0.000    0.000    0.000    0.000    0.000    0.000 
#
# Total GULP energy -161605.622970 kJ/mol
# GULP energy per Si atom -5572.607689 kJ/mol
# Density = 1.829464 g / cm^3
# Si number density = 18.336378 Si / 1000 Ang^3
#
#
#
# Elastic Constant Matrix: (Units=GPa)
#
#
# Indices 1 2 3 4 5 6 
#
# 1 147.7793 81.3936 16.3887 0.0000 0.0000 0.0000
# 2 81.3936 116.5102 13.9623 0.0000 0.0000 0.0000
# 3 16.3887 13.9623 36.4206 0.0000 0.0000 0.0000
# 4 0.0000 0.0000 0.0000 15.4555 0.0000 0.0000
# 5 0.0000 0.0000 0.0000 0.0000 19.6471 0.0000
# 6 0.0000 0.0000 0.0000 0.0000 0.0000 9.0544
#
#
#
# Elastic Compliance Matrix: (Units=1/GPa)
#
#
# Indices 1 2 3 4 5 6 
#
# 1 0.011154 -0.007537 -0.002130 0.000000 0.000000 0.000000
# 2 -0.007537 0.014089 -0.002010 0.000000 0.000000 0.000000
# 3 -0.002130 -0.002010 0.029186 0.000000 0.000000 0.000000
# 4 0.000000 0.000000 0.000000 0.064702 0.000000 0.000000
# 5 0.000000 0.000000 0.000000 0.000000 0.050898 0.000000
# 6 0.000000 0.000000 0.000000 0.000000 0.000000 0.110444
#
#
# Mechanical properties :
#
#
# Convention : Reuss Voigt Hill
#
# Bulk Modulus (GPa) = 32.17911 58.24438 45.21175
# Shear Modulus (GPa) = 15.91417 21.42908 18.67162
#
# Velocity S-wave (km/s) = 2.94921 3.42228 3.19452
# Velocity P-wave (km/s) = 5.40227 6.88835 6.19007
#
# Compressibility (1/GPa) = 0.03107606
#
# Stress axis : x y z
#
# Youngs Moduli (GPa) = 89.65114 70.97631 34.26322
#
# Poissons Ratio (x) = 0.53496 0.07297
# Poissons Ratio (y) = 0.67571 0.06886
# Poissons Ratio (z) = 0.19094 0.14264
#
# Static dielectric constant tensor:
#      x y z
#    x 1.637020 0.000000 0.000000 
#    y 0.000000 1.598330 0.000000 
#    z 0.000000 0.000000 1.638620 
# 
# From -- ./inp_files/23172.got.cif
#   From: 2010.05.17/outbox.cif.g08.bks.cpg/sg71_12_cif.got.tgz:23172.got - 2010.06.03 16:22:01.
