data_PCOD9521428
_publ_section_title
;
Structure prediction by ZEFSAII (Michael W. Deem and Ramdas Pophale) SiO2 
 PCOD9521428
Probable space group: I M M M
;
_chemical_formula_sum "Si O2"
_cell_formula_units_Z 64
_cell_length_a 8.686872
_cell_length_b 14.566211
_cell_length_c 29.011438
_cell_angle_alpha 90.000000
_cell_angle_beta 90.000000
_cell_angle_gamma 90.000000
_cell_volume 3670.956809
_symmetry_space_group_name_H-M "I M M M"
_symmetry_group_IT_number 71
_symmetry_cell_setting 'orthorhombic'
loop_
_space_group_symop_operation_xyz
x,y,z
-x,-y,z
x,-y,-z
-x,y,-z
-x,-y,-z
x,y,-z
-x,y,z
x,-y,z
1/2+x,1/2+y,1/2+z
1/2-x,1/2-y,1/2+z
1/2+x,1/2-y,1/2-z
1/2-x,1/2+y,1/2-z
1/2-x,1/2-y,1/2-z
1/2+x,1/2+y,1/2-z
1/2-x,1/2+y,1/2+z
1/2+x,1/2-y,1/2+z
loop_
_atom_site_type_symbol
_atom_site_label
_atom_site_fract_x
_atom_site_fract_y
_atom_site_fract_z
Si Si1 0.185791 0.394060 0.748872
Si Si2 0.315259 0.606684 0.500000
Si Si3 0.315230 0.245382 0.073480
Si Si4 0.815783 0.244386 0.824193
Si Si5 0.187061 0.895843 0.500000
O O1 0.232877 0.500000 0.752500
O O2 0.228834 0.333449 0.793567
O O3 0.257283 0.342893 0.704929
O O4 0.000000 0.390713 0.744901
O O5 0.270855 0.500000 0.500000
O O6 0.500000 0.612885 0.500000
O O7 0.250314 0.659971 0.455557
O O8 0.500000 0.240657 0.073027
O O9 0.255140 0.247072 0.125250
O O10 0.267573 0.336266 0.044652
O O11 0.000000 0.241769 0.827422
O O12 0.000000 0.898980 0.500000
O O13 0.244352 0.000000 0.500000
#
# Coordination Sequence:
#
# PCOD9521428 Si02
#       5
#    16   8  16  16   8
#     4   9  19  36  55  75 102 136 173 213 257 305
#     4  10  21  37  56  77 102 133 171 216 260 300
#     4  10  20  34  54  78 105 138 171 206 253 306
#     4  10  20  34  53  77 105 135 170 213 257 302
#     4   8  16  32  52  75 102 131 167 208 246 292
#
# _framework density 17.434148
#
# number of rings (size 3 to 8) (size 9 to 14) (size 15 to 20)
#    0.000    2.500    0.000    2.625    0.000    4.500 
#    0.000    0.000    0.000   12.750    0.000    0.000 
#    0.000    0.000    0.000    0.000    0.000    0.000 
#
# Total GULP energy -178539.118426 kJ/mol
# GULP energy per Si atom -5579.347451 kJ/mol
# Density = 1.739447 g / cm^3
# Si number density = 17.434148 Si / 1000 Ang^3
#
#
#
# Elastic Constant Matrix: (Units=GPa)
#
#
# Indices 1 2 3 4 5 6 
#
# 1 38.2184 46.6300 48.6664 0.0000 0.0000 0.0000
# 2 46.6300 188.9266 100.8340 0.0000 0.0000 0.0000
# 3 48.6664 100.8340 189.8283 0.0000 0.0000 0.0000
# 4 0.0000 0.0000 0.0000 5.2758 0.0000 0.0000
# 5 0.0000 0.0000 0.0000 0.0000 10.0902 0.0000
# 6 0.0000 0.0000 0.0000 0.0000 0.0000 21.9604
#
#
#
# Elastic Compliance Matrix: (Units=1/GPa)
#
#
# Indices 1 2 3 4 5 6 
#
# 1 0.044342 -0.006807 -0.007752 0.000000 0.000000 0.000000
# 2 -0.006807 0.008432 -0.002734 0.000000 0.000000 0.000000
# 3 -0.007752 -0.002734 0.008708 0.000000 0.000000 0.000000
# 4 0.000000 0.000000 0.000000 0.189544 0.000000 0.000000
# 5 0.000000 0.000000 0.000000 0.000000 0.099106 0.000000
# 6 0.000000 0.000000 0.000000 0.000000 0.000000 0.045537
#
#
# Mechanical properties :
#
#
# Convention : Reuss Voigt Hill
#
# Bulk Modulus (GPa) = 37.18073 89.91490 63.54782
# Shear Modulus (GPa) = 11.38383 22.18814 16.78599
#
# Velocity S-wave (km/s) = 2.55808 3.57134 3.10630
# Velocity P-wave (km/s) = 5.48614 8.28806 7.02815
#
# Compressibility (1/GPa) = 0.02689565
#
# Stress axis : x y z
#
# Youngs Moduli (GPa) = 22.55206 118.59180 114.84095
#
# Poissons Ratio (x) = 0.80721 0.89029
# Poissons Ratio (y) = 0.15350 0.31398
# Poissons Ratio (z) = 0.17483 0.32424
#
# Static dielectric constant tensor:
#      x y z
#    x 1.583060 0.000000 0.000000 
#    y 0.000000 1.586360 0.000000 
#    z 0.000000 0.000000 1.558010 
# 
# From -- ./inp_files/5853.got.cif
#   From: 2010.05.17/outbox.cif.g08.bks.cpg/sg71_3_cif.got.tgz:5853.got - 2010.06.03 16:22:01.
