data_PCOD9521718
_publ_section_title
;
Structure prediction by ZEFSAII (Michael W. Deem and Ramdas Pophale) SiO2 
 PCOD9521718
Probable space group: I M M M
;
_chemical_formula_sum "Si O2"
_cell_formula_units_Z 64
_cell_length_a 10.930305
_cell_length_b 28.392768
_cell_length_c 9.916962
_cell_angle_alpha 90.000000
_cell_angle_beta 90.000000
_cell_angle_gamma 90.000000
_cell_volume 3077.645993
_symmetry_space_group_name_H-M "I M M M"
_symmetry_group_IT_number 71
_symmetry_cell_setting 'orthorhombic'
loop_
_space_group_symop_operation_xyz
x,y,z
-x,-y,z
x,-y,-z
-x,y,-z
-x,-y,-z
x,y,-z
-x,y,z
x,-y,z
1/2+x,1/2+y,1/2+z
1/2-x,1/2-y,1/2+z
1/2+x,1/2-y,1/2-z
1/2-x,1/2+y,1/2-z
1/2-x,1/2-y,1/2-z
1/2+x,1/2+y,1/2-z
1/2-x,1/2+y,1/2+z
1/2+x,1/2-y,1/2+z
loop_
_atom_site_type_symbol
_atom_site_label
_atom_site_fract_x
_atom_site_fract_y
_atom_site_fract_z
Si Si1 0.356860 0.295247 0.150176
Si Si2 0.000000 0.383234 0.847433
Si Si3 0.754410 0.444203 0.847178
Si Si4 0.645282 0.625564 0.650629
Si Si5 0.500000 0.792642 0.837672
O O1 0.500000 0.311134 0.133956
O O2 0.305198 0.331699 0.257490
O O3 0.383356 0.241498 0.195380
O O4 0.300426 0.296864 0.000000
O O5 0.117659 0.416722 0.833809
O O6 0.000000 0.340789 0.742034
O O7 0.000000 0.363624 0.000000
O O8 0.770234 0.500000 0.832787
O O9 0.670251 0.421848 0.732910
O O10 0.707595 0.434986 0.000000
O O11 0.698951 0.625441 0.500000
O O12 0.500000 0.631845 0.637227
O O13 0.500000 0.798474 0.000000
#
# Coordination Sequence:
#
# PCOD9521718 Si02
#       5
#    16   8  16  16   8
#     4   7  13  28  51  77 109 146 180 216 260 322
#     4  10  21  38  60  84 110 143 189 242 283 324
#     4  10  22  40  60  81 108 147 193 236 281 334
#     4  10  20  34  56  86 118 147 180 228 282 334
#     4   8  16  31  55  85 115 147 184 226 273 333
#
# _framework density 20.795116
#
# number of rings (size 3 to 8) (size 9 to 14) (size 15 to 20)
#    0.750    2.250    0.000    1.125    0.000    6.000 
#    0.000    3.750    0.000    2.250    0.000    0.000 
#    0.000    0.000    0.000    0.000    0.000    0.000 
#
# Total GULP energy -178361.588791 kJ/mol
# GULP energy per Si atom -5573.799650 kJ/mol
# Density = 2.074779 g / cm^3
# Si number density = 20.795116 Si / 1000 Ang^3
#
#
#
# Elastic Constant Matrix: (Units=GPa)
#
#
# Indices 1 2 3 4 5 6 
#
# 1 26.3236 11.4490 13.9527 -0.0011 0.0005 0.0000
# 2 11.4490 149.6641 102.7947 0.0000 -0.0004 0.0000
# 3 13.9527 102.7947 132.4345 -0.0074 0.0094 -0.0009
# 4 -0.0011 0.0000 -0.0074 32.3091 -0.0021 0.0001
# 5 0.0005 -0.0004 0.0094 -0.0021 5.7232 -0.0007
# 6 0.0000 0.0000 -0.0009 0.0001 -0.0007 27.4972
#
#
#
# Elastic Compliance Matrix: (Units=1/GPa)
#
#
# Indices 1 2 3 4 5 6 
#
# 1 0.040244 -0.000357 -0.003963 0.000000 0.000003 0.000000
# 2 -0.000357 0.014314 -0.011073 -0.000003 0.000019 0.000000
# 3 -0.003963 -0.011073 0.016563 0.000004 -0.000028 0.000001
# 4 0.000000 -0.000003 0.000004 0.030951 0.000012 0.000000
# 5 0.000003 0.000019 -0.000028 0.000012 0.174726 0.000005
# 6 0.000000 0.000000 0.000001 0.000000 0.000005 0.036367
#
#
# Mechanical properties :
#
#
# Convention : Reuss Voigt Hill
#
# Bulk Modulus (GPa) = 24.79152 62.75722 43.77437
# Shear Modulus (GPa) = 13.99000 25.12097 19.55549
#
# Velocity S-wave (km/s) = 2.59656 3.47943 3.06990
# Velocity P-wave (km/s) = 4.57572 6.81075 5.80187
#
# Compressibility (1/GPa) = 0.04033637
#
# Stress axis : x y z
#
# Youngs Moduli (GPa) = 24.84813 69.86008 60.37434
#
# Poissons Ratio (x) = 0.02491 0.23928
# Poissons Ratio (y) = 0.00886 0.66853
# Poissons Ratio (z) = 0.09848 0.77357
#
# Static dielectric constant tensor:
#      x y z
#    x 1.818050 0.000000 0.000000 
#    y 0.000000 1.724840 0.000000 
#    z 0.000000 0.000000 1.765320 
# 
# From -- ./inp_files/5897.got.cif
#   From: 2010.05.17/outbox.cif.g08.bks.cpg/sg71_3_cif.got.tgz:5897.got - 2010.06.03 16:22:01.
