data_PCOD9521503
_publ_section_title
;
Structure prediction by ZEFSAII (Michael W. Deem and Ramdas Pophale) SiO2 
 PCOD9521503
Probable space group: I M M M
;
_chemical_formula_sum "Si O2"
_cell_formula_units_Z 40
_cell_length_a 7.569495
_cell_length_b 34.027263
_cell_length_c 8.524298
_cell_angle_alpha 90.000000
_cell_angle_beta 90.000000
_cell_angle_gamma 90.000000
_cell_volume 2195.596592
_symmetry_space_group_name_H-M "I M M M"
_symmetry_group_IT_number 71
_symmetry_cell_setting 'orthorhombic'
loop_
_space_group_symop_operation_xyz
x,y,z
-x,-y,z
x,-y,-z
-x,y,-z
-x,-y,-z
x,y,-z
-x,y,z
x,-y,z
1/2+x,1/2+y,1/2+z
1/2-x,1/2-y,1/2+z
1/2+x,1/2-y,1/2-z
1/2-x,1/2+y,1/2-z
1/2-x,1/2-y,1/2-z
1/2+x,1/2+y,1/2-z
1/2-x,1/2+y,1/2+z
1/2+x,1/2-y,1/2+z
loop_
_atom_site_type_symbol
_atom_site_label
_atom_site_fract_x
_atom_site_fract_y
_atom_site_fract_z
Si Si1 0.698560 0.707022 0.310873
Si Si2 0.000000 0.441333 0.186679
Si Si3 0.792737 0.000000 0.188703
Si Si4 0.500000 0.146785 0.809699
O O1 0.704804 0.708640 0.500000
O O2 0.500000 0.698077 0.260352
O O3 0.750000 0.750000 0.250000
O O4 0.832453 0.673104 0.261321
O O5 0.175245 0.463139 0.252591
O O6 0.000000 0.396153 0.237209
O O7 0.000000 0.445513 0.000000
O O8 0.000000 0.000000 0.239075
O O9 0.791538 0.000000 0.000000
O O10 0.500000 0.143136 0.000000
#
# Coordination Sequence:
#
# PCOD9521503 Si02
#       4
#    16   8   8   8
#     4  10  20  34  54  78 105 142 189 237 285 335
#     4  11  23  38  59  90 124 154 188 240 293 341
#     4  10  21  40  67  91 116 154 193 231 282 351
#     4  10  21  37  54  78 115 154 194 239 283 340
#
# _framework density 18.218281999999999
#
# number of rings (size 3 to 8) (size 9 to 14) (size 15 to 20)
#    0.000    1.800    2.000    3.600    0.000    4.800 
#    0.000    4.000    0.000    0.000    0.000    0.000 
#    0.000    0.000    0.000    0.000    0.000    0.000 
#
# Total GULP energy -111648.467802 kJ/mol
# GULP energy per Si atom -5582.423390 kJ/mol
# Density = 1.817682 g / cm^3
# Si number density = 18.218282 Si / 1000 Ang^3
#
#
#
# Elastic Constant Matrix: (Units=GPa)
#
#
# Indices 1 2 3 4 5 6 
#
# 1 217.7015 112.7301 48.1581 -0.0002 0.0000 0.0000
# 2 112.7301 187.3689 38.3886 -0.0024 -0.0008 -0.0007
# 3 48.1581 38.3886 49.6899 -0.0035 -0.0010 -0.0013
# 4 -0.0002 -0.0024 -0.0035 32.4589 -0.0011 -0.0012
# 5 0.0000 -0.0008 -0.0010 -0.0011 16.3761 -0.0005
# 6 0.0000 -0.0007 -0.0013 -0.0012 -0.0005 18.0081
#
#
#
# Elastic Compliance Matrix: (Units=1/GPa)
#
#
# Indices 1 2 3 4 5 6 
#
# 1 0.007415 -0.003551 -0.004443 -0.000001 0.000000 0.000000
# 2 -0.003551 0.008041 -0.002771 0.000000 0.000000 0.000000
# 3 -0.004443 -0.002771 0.026572 0.000003 0.000001 0.000002
# 4 -0.000001 0.000000 0.000003 0.030808 0.000002 0.000002
# 5 0.000000 0.000000 0.000001 0.000002 0.061065 0.000002
# 6 0.000000 0.000000 0.000002 0.000002 0.000002 0.055531
#
#
# Mechanical properties :
#
#
# Convention : Reuss Voigt Hill
#
# Bulk Modulus (GPa) = 48.78517 94.81266 71.79892
# Shear Modulus (GPa) = 22.95748 30.40084 26.67916
#
# Velocity S-wave (km/s) = 3.55369 4.08940 3.83092
# Velocity P-wave (km/s) = 6.60867 8.62863 7.68530
#
# Compressibility (1/GPa) = 0.02049803
#
# Stress axis : x y z
#
# Youngs Moduli (GPa) = 134.86051 124.35993 37.63405
#
# Poissons Ratio (x) = 0.44159 0.16721
# Poissons Ratio (y) = 0.47888 0.10428
# Poissons Ratio (z) = 0.59921 0.34458
#
# Static dielectric constant tensor:
#      x y z
#    x 1.636060 0.000000 0.000000 
#    y 0.000000 1.583860 0.000000 
#    z 0.000000 0.000000 1.628010 
# 
# From -- ./inp_files/1996.got.cif
#   From: 2010.05.17/outbox.cif.g08.bks.cpg/sg71_1_cif.got.tgz:1996.got - 2010.06.03 16:22:01.
