data_PCOD9521670
_publ_section_title
;
Structure prediction by ZEFSAII (Michael W. Deem and Ramdas Pophale) SiO2 
 PCOD9521670
Probable space group: I M M M
;
_chemical_formula_sum "Si O2"
_cell_formula_units_Z 88
_cell_length_a 33.032400
_cell_length_b 12.902199
_cell_length_c 11.500777
_cell_angle_alpha 90.000000
_cell_angle_beta 90.000000
_cell_angle_gamma 90.000000
_cell_volume 4901.523030
_symmetry_space_group_name_H-M "I M M M"
_symmetry_group_IT_number 71
_symmetry_cell_setting 'orthorhombic'
loop_
_space_group_symop_operation_xyz
x,y,z
-x,-y,z
x,-y,-z
-x,y,-z
-x,-y,-z
x,y,-z
-x,y,z
x,-y,z
1/2+x,1/2+y,1/2+z
1/2-x,1/2-y,1/2+z
1/2+x,1/2-y,1/2-z
1/2-x,1/2+y,1/2-z
1/2-x,1/2-y,1/2-z
1/2+x,1/2+y,1/2-z
1/2-x,1/2+y,1/2+z
1/2+x,1/2-y,1/2+z
loop_
_atom_site_type_symbol
_atom_site_label
_atom_site_fract_x
_atom_site_fract_y
_atom_site_fract_z
Si Si1 0.953558 0.122231 0.740761
Si Si2 0.840528 0.879478 0.000000
Si Si3 0.046776 0.500000 0.640900
Si Si4 0.062303 0.118939 0.000000
Si Si5 0.681864 0.253560 0.267726
Si Si6 0.253357 0.377412 0.866271
Si Si7 0.600013 0.200970 0.862034
O O1 0.951293 0.161036 0.875177
O O2 0.924814 0.194200 0.664939
O O3 0.000000 0.129207 0.701406
O O4 0.941590 0.000000 0.739368
O O5 0.827040 0.818430 0.884803
O O6 0.889236 0.880443 0.000000
O O7 0.826713 0.000000 0.000000
O O8 0.044877 0.500000 0.500000
O O9 0.071933 0.396936 0.673333
O O10 0.000000 0.500000 0.682713
O O11 0.047545 0.000000 0.000000
O O12 0.705045 0.329499 0.179834
O O13 0.715099 0.166429 0.296383
O O14 0.641238 0.208220 0.211556
O O15 0.254904 0.500000 0.856803
O O16 0.247719 0.347203 0.000000
O O17 0.608460 0.192531 0.000000
#
# Coordination Sequence:
#
# PCOD9521670 Si02
#       7
#    16   8   8   8  16  16  16
#     4  10  20  34  55  84 116 150 188 234 288 345
#     4  11  20  35  59  86 117 153 196 236 284 349
#     4   9  20  40  62  83 113 159 205 246 295 349
#     4   9  17  32  53  80 112 150 186 228 280 344
#     4  11  22  38  60  87 117 149 195 240 291 350
#     4  10  22  40  61  85 117 152 187 236 298 358
#     4  11  23  38  59  85 116 152 197 246 293 352
#
# _framework density 17.953602
#
# number of rings (size 3 to 8) (size 9 to 14) (size 15 to 20)
#    0.000    1.727    2.727    1.909    1.273    3.273 
#    0.000    0.909    0.000    1.636    0.000    3.818 
#    0.000    0.000    0.000    0.000    0.000    0.000 
#
# Total GULP energy -245490.240502 kJ/mol
# GULP energy per Si atom -5579.323648 kJ/mol
# Density = 1.791274 g / cm^3
# Si number density = 17.953602 Si / 1000 Ang^3
#
#
#
# Elastic Constant Matrix: (Units=GPa)
#
#
# Indices 1 2 3 4 5 6 
#
# 1 116.9173 51.2515 22.9582 0.0000 0.0000 0.0000
# 2 51.2515 65.1512 34.0015 0.0000 0.0000 0.0000
# 3 22.9582 34.0015 54.1031 0.0000 0.0000 0.0000
# 4 0.0000 0.0000 0.0000 17.5862 0.0000 0.0000
# 5 0.0000 0.0000 0.0000 0.0000 156.7274 0.0000
# 6 0.0000 0.0000 0.0000 0.0000 0.0000 19.2205
#
#
#
# Elastic Compliance Matrix: (Units=1/GPa)
#
#
# Indices 1 2 3 4 5 6 
#
# 1 0.013122 -0.011037 0.001368 0.000000 0.000000 0.000000
# 2 -0.011037 0.032122 -0.015504 0.000000 0.000000 0.000000
# 3 0.001368 -0.015504 0.027647 0.000000 0.000000 0.000000
# 4 0.000000 0.000000 0.000000 0.056863 0.000000 0.000000
# 5 0.000000 0.000000 0.000000 0.000000 0.006381 0.000000
# 6 0.000000 0.000000 0.000000 0.000000 0.000000 0.052028
#
#
# Mechanical properties :
#
#
# Convention : Reuss Voigt Hill
#
# Bulk Modulus (GPa) = 44.35568 50.28823 47.32195
# Shear Modulus (GPa) = 20.32319 47.23750 33.78034
#
# Velocity S-wave (km/s) = 3.36815 5.13498 4.34237
# Velocity P-wave (km/s) = 6.31548 7.95162 7.18030
#
# Compressibility (1/GPa) = 0.02254503
#
# Stress axis : x y z
#
# Youngs Moduli (GPa) = 76.20510 31.13088 36.17072
#
# Poissons Ratio (x) = 0.34358 -0.04947
# Poissons Ratio (y) = 0.84105 0.56080
# Poissons Ratio (z) = -0.10422 0.48266
#
# Static dielectric constant tensor:
#      x y z
#    x 1.603080 0.000000 0.000000 
#    y 0.000000 1.599510 0.000000 
#    z 0.000000 0.000000 1.629180 
# 
# From -- ./inp_files/29785.got.cif
#   From: 2010.05.17/outbox.cif.g08.bks.cpg/sg71_15_cif.got.tgz:29785.got - 2010.06.03 16:22:01.
