data_PCOD9521581
_publ_section_title
;
Structure prediction by ZEFSAII (Michael W. Deem and Ramdas Pophale) SiO2 
 PCOD9521581
Probable space group: I M M M
;
_chemical_formula_sum "Si O2"
_cell_formula_units_Z 112
_cell_length_a 14.763221
_cell_length_b 14.152136
_cell_length_c 25.649087
_cell_angle_alpha 90.000000
_cell_angle_beta 90.000000
_cell_angle_gamma 90.000000
_cell_volume 5358.892253
_symmetry_space_group_name_H-M "I M M M"
_symmetry_group_IT_number 71
_symmetry_cell_setting 'orthorhombic'
loop_
_space_group_symop_operation_xyz
x,y,z
-x,-y,z
x,-y,-z
-x,y,-z
-x,-y,-z
x,y,-z
-x,y,z
x,-y,z
1/2+x,1/2+y,1/2+z
1/2-x,1/2-y,1/2+z
1/2+x,1/2-y,1/2-z
1/2-x,1/2+y,1/2-z
1/2-x,1/2-y,1/2-z
1/2+x,1/2+y,1/2-z
1/2-x,1/2+y,1/2+z
1/2+x,1/2-y,1/2+z
loop_
_atom_site_type_symbol
_atom_site_label
_atom_site_fract_x
_atom_site_fract_y
_atom_site_fract_z
Si Si1 0.657416 0.808645 0.444395
Si Si2 0.110106 0.720427 0.260626
Si Si3 0.896463 0.298949 0.620396
Si Si4 0.105470 0.106637 0.192531
Si Si5 0.218862 0.107576 0.085931
Si Si6 0.393191 0.104012 0.663041
Si Si7 0.358587 0.609327 0.059784
O O1 0.612401 0.833210 0.500000
O O2 0.676575 0.696571 0.444004
O O3 0.614431 0.834632 0.389156
O O4 0.751789 0.866372 0.442668
O O5 0.137654 0.704585 0.319808
O O6 0.133803 0.822063 0.237457
O O7 0.144616 0.649414 0.215952
O O8 0.000000 0.715544 0.262195
O O9 0.824678 0.365041 0.591033
O O10 0.895154 0.192873 0.596521
O O11 0.000000 0.333478 0.618478
O O12 0.169293 0.111930 0.142242
O O13 0.000000 0.128633 0.177639
O O14 0.107333 0.000000 0.212057
O O15 0.207205 0.000000 0.066508
O O16 0.500000 0.095587 0.672594
O O17 0.354470 0.000000 0.653631
O O18 0.374081 0.500000 0.075754
O O19 0.392226 0.619594 0.000000
#
# Coordination Sequence:
#
# PCOD9521581 Si02
#       7
#    16  16  16  16  16  16  16
#     4  10  20  36  57  80 111 147 187 238 290 340
#     4   9  18  34  54  78 113 152 187 230 283 335
#     4  10  22  37  56  84 116 150 192 241 288 340
#     4   9  17  32  55  79 107 146 188 231 280 334
#     4  10  21  37  57  82 109 144 191 237 286 341
#     4  10  20  34  54  82 116 154 192 228 277 340
#     4   9  19  37  59  83 113 148 187 235 292 350
#
# _framework density 20.899840999999999
#
# number of rings (size 3 to 8) (size 9 to 14) (size 15 to 20)
#    0.000    2.429    1.429    0.429    0.000    4.000 
#    0.000    4.286    0.000    0.000    0.000    7.000 
#    0.000    0.000    0.000    0.000    0.000    0.000 
#
# Total GULP energy -312170.199965 kJ/mol
# GULP energy per Si atom -5574.467857 kJ/mol
# Density = 2.085227 g / cm^3
# Si number density = 20.899841 Si / 1000 Ang^3
#
#
#
# Elastic Constant Matrix: (Units=GPa)
#
#
# Indices 1 2 3 4 5 6 
#
# 1 48.2481 7.6623 -2.8046 0.0000 0.0000 0.0000
# 2 7.6623 118.2947 37.9634 0.0000 0.0000 0.0000
# 3 -2.8046 37.9634 93.6546 0.0000 0.0000 0.0000
# 4 0.0000 0.0000 0.0000 6.7926 0.0000 0.0000
# 5 0.0000 0.0000 0.0000 0.0000 20.6733 0.0000
# 6 0.0000 0.0000 0.0000 0.0000 0.0000 12.4857
#
#
#
# Elastic Compliance Matrix: (Units=1/GPa)
#
#
# Indices 1 2 3 4 5 6 
#
# 1 0.021092 -0.001803 0.001363 0.000000 0.000000 0.000000
# 2 -0.001803 0.009872 -0.004056 0.000000 0.000000 0.000000
# 3 0.001363 -0.004056 0.012362 0.000000 0.000000 0.000000
# 4 0.000000 0.000000 0.000000 0.147218 0.000000 0.000000
# 5 0.000000 0.000000 0.000000 0.000000 0.048371 0.000000
# 6 0.000000 0.000000 0.000000 0.000000 0.000000 0.080091
#
#
# Mechanical properties :
#
#
# Convention : Reuss Voigt Hill
#
# Bulk Modulus (GPa) = 29.12638 38.42661 33.77650
# Shear Modulus (GPa) = 14.72997 22.48210 18.60604
#
# Velocity S-wave (km/s) = 2.65767 3.28336 2.98694
# Velocity P-wave (km/s) = 4.83570 5.72712 5.30018
#
# Compressibility (1/GPa) = 0.03433314
#
# Stress axis : x y z
#
# Youngs Moduli (GPa) = 47.41170 101.29852 80.89110
#
# Poissons Ratio (x) = 0.18269 -0.11023
# Poissons Ratio (y) = 0.08551 0.32806
# Poissons Ratio (z) = -0.06461 0.41083
#
# Static dielectric constant tensor:
#      x y z
#    x 1.783710 0.000000 0.000000 
#    y 0.000000 1.750180 0.000000 
#    z 0.000000 0.000000 1.759310 
# 
# From -- ./inp_files/39293.got.cif
#   From: 2010.05.17/outbox.cif.g08.bks.cpg/sg71_20_cif.got.tgz:39293.got - 2010.06.03 16:22:01.
