data_PCOD9521124
_publ_section_title
;
Structure prediction by ZEFSAII (Michael W. Deem and Ramdas Pophale) SiO2 
 PCOD9521124
Probable space group: I M M M
;
_chemical_formula_sum "Si O2"
_cell_formula_units_Z 96
_cell_length_a 20.639043
_cell_length_b 12.425113
_cell_length_c 21.796974
_cell_angle_alpha 90.000000
_cell_angle_beta 90.000000
_cell_angle_gamma 90.000000
_cell_volume 5589.669230
_symmetry_space_group_name_H-M "I M M M"
_symmetry_group_IT_number 71
_symmetry_cell_setting 'orthorhombic'
loop_
_space_group_symop_operation_xyz
x,y,z
-x,-y,z
x,-y,-z
-x,y,-z
-x,-y,-z
x,y,-z
-x,y,z
x,-y,z
1/2+x,1/2+y,1/2+z
1/2-x,1/2-y,1/2+z
1/2+x,1/2-y,1/2-z
1/2-x,1/2+y,1/2-z
1/2-x,1/2-y,1/2-z
1/2+x,1/2+y,1/2-z
1/2-x,1/2+y,1/2+z
1/2+x,1/2-y,1/2+z
loop_
_atom_site_type_symbol
_atom_site_label
_atom_site_fract_x
_atom_site_fract_y
_atom_site_fract_z
Si Si1 0.858316 0.760021 0.760506
Si Si2 0.760777 0.372376 0.676742
Si Si3 0.078231 0.624234 0.866596
Si Si4 0.074807 0.630931 0.000000
Si Si5 0.159145 0.291612 0.427137
Si Si6 0.424194 0.371610 0.146100
Si Si7 0.073126 0.500000 0.425959
O O1 0.815821 0.673253 0.722567
O O2 0.807228 0.838139 0.793899
O O3 0.898512 0.698682 0.812054
O O4 0.901820 0.823576 0.711487
O O5 0.764773 0.500000 0.669490
O O6 0.776493 0.312831 0.612526
O O7 0.098700 0.500000 0.856802
O O8 0.103191 0.661339 0.933931
O O9 0.000000 0.624101 0.869380
O O10 0.073425 0.500000 0.000000
O O11 0.000000 0.667978 0.000000
O O12 0.169344 0.290972 0.500000
O O13 0.121425 0.186410 0.403783
O O14 0.112568 0.392860 0.409938
O O15 0.500000 0.347059 0.134869
O O16 0.415947 0.500000 0.145340
O O17 0.068929 0.500000 0.500000
O O18 0.000000 0.500000 0.400963
#
# Coordination Sequence:
#
# PCOD9521124 Si02
#       7
#    16  16  16   8  16  16   8
#     4  10  20  33  52  77 100 138 181 225 258 313
#     4  10  20  35  52  71 100 140 180 220 265 308
#     4   9  16  29  51  78 107 135 167 216 276 326
#     4   7  12  24  44  70 101 133 155 187 254 324
#     4  10  20  35  55  78 106 140 178 222 272 327
#     4  10  21  36  54  78 109 143 180 222 271 328
#     4   9  16  28  50  78 104 130 163 212 270 321
#
# _framework density 17.174541000000001
#
# number of rings (size 3 to 8) (size 9 to 14) (size 15 to 20)
#    0.000    2.500    0.833    3.000    0.000    1.333 
#    1.500    1.667    0.000    0.000    0.000    0.000 
#    0.000    5.333    0.000    0.000    0.000    0.000 
#
# Total GULP energy -267531.364960 kJ/mol
# GULP energy per Si atom -5573.570103 kJ/mol
# Density = 1.713545 g / cm^3
# Si number density = 17.174541 Si / 1000 Ang^3
#
#
#
# Elastic Constant Matrix: (Units=GPa)
#
#
# Indices 1 2 3 4 5 6 
#
# 1 25.1274 15.6812 17.4708 0.0000 0.0000 0.0000
# 2 15.6812 73.9883 34.4119 0.0000 0.0000 0.0000
# 3 17.4708 34.4119 112.1961 0.0000 0.0000 0.0000
# 4 0.0000 0.0000 0.0000 23.7317 0.0000 0.0000
# 5 0.0000 0.0000 0.0000 0.0000 17.7567 0.0000
# 6 0.0000 0.0000 0.0000 0.0000 0.0000 15.6566
#
#
#
# Elastic Compliance Matrix: (Units=1/GPa)
#
#
# Indices 1 2 3 4 5 6 
#
# 1 0.048246 -0.007851 -0.005105 0.000000 0.000000 0.000000
# 2 -0.007851 0.017042 -0.004004 0.000000 0.000000 0.000000
# 3 -0.005105 -0.004004 0.010936 0.000000 0.000000 0.000000
# 4 0.000000 0.000000 0.000000 0.042138 0.000000 0.000000
# 5 0.000000 0.000000 0.000000 0.000000 0.056317 0.000000
# 6 0.000000 0.000000 0.000000 0.000000 0.000000 0.063871
#
#
# Mechanical properties :
#
#
# Convention : Reuss Voigt Hill
#
# Bulk Modulus (GPa) = 23.63858 38.49328 31.06593
# Shear Modulus (GPa) = 17.44765 21.01219 19.22992
#
# Velocity S-wave (km/s) = 3.19078 3.50158 3.34979
# Velocity P-wave (km/s) = 5.23148 6.22974 5.75231
#
# Compressibility (1/GPa) = 0.04230372
#
# Stress axis : x y z
#
# Youngs Moduli (GPa) = 20.72704 58.67822 91.44055
#
# Poissons Ratio (x) = 0.46069 0.46678
# Poissons Ratio (y) = 0.16273 0.36617
# Poissons Ratio (z) = 0.10581 0.23497
#
# Static dielectric constant tensor:
#      x y z
#    x 1.582860 0.000000 0.000000 
#    y 0.000000 1.559070 0.000000 
#    z 0.000000 0.000000 1.595370 
# 
# From -- ./inp_files/54916.got.cif
#   From: 2010.05.17/outbox.cif.g08.bks.cpg/sg71_28_cif.got.tgz:54916.got - 2010.06.03 16:22:01.
