data_PCOD9521913
_publ_section_title
;
Structure prediction by ZEFSAII (Michael W. Deem and Ramdas Pophale) SiO2 
 PCOD9521913
Probable space group: I M M M
;
_chemical_formula_sum "Si O2"
_cell_formula_units_Z 88
_cell_length_a 14.086223
_cell_length_b 15.750653
_cell_length_c 22.722067
_cell_angle_alpha 90.000000
_cell_angle_beta 90.000000
_cell_angle_gamma 90.000000
_cell_volume 5041.281623
_symmetry_space_group_name_H-M "I M M M"
_symmetry_group_IT_number 71
_symmetry_cell_setting 'orthorhombic'
loop_
_space_group_symop_operation_xyz
x,y,z
-x,-y,z
x,-y,-z
-x,y,-z
-x,-y,-z
x,y,-z
-x,y,z
x,-y,z
1/2+x,1/2+y,1/2+z
1/2-x,1/2-y,1/2+z
1/2+x,1/2-y,1/2-z
1/2-x,1/2+y,1/2-z
1/2-x,1/2-y,1/2-z
1/2+x,1/2+y,1/2-z
1/2-x,1/2+y,1/2+z
1/2+x,1/2-y,1/2+z
loop_
_atom_site_type_symbol
_atom_site_label
_atom_site_fract_x
_atom_site_fract_y
_atom_site_fract_z
Si Si1 0.613561 0.899294 0.372939
Si Si2 0.615219 0.899658 0.500000
Si Si3 0.112996 0.597391 0.353283
Si Si4 0.227440 0.347514 0.238700
Si Si5 0.388601 0.596125 0.159389
Si Si6 0.384777 0.742485 0.932888
O O1 0.500000 0.892459 0.370383
O O2 0.646294 0.865341 0.436812
O O3 0.659075 0.855281 0.317441
O O4 0.636401 0.000000 0.369540
O O5 0.500000 0.895484 0.500000
O O6 0.638629 0.000000 0.500000
O O7 0.125078 0.500000 0.373375
O O8 0.175001 0.612864 0.294880
O O9 0.139890 0.668494 0.401369
O O10 0.000000 0.608915 0.339749
O O11 0.250000 0.250000 0.250000
O O12 0.324061 0.391978 0.216845
O O13 0.500000 0.609468 0.172468
O O14 0.377067 0.500000 0.136920
O O15 0.358937 0.665039 0.110487
O O16 0.500000 0.740514 0.935844
O O17 0.349627 0.735078 0.000000
#
# Coordination Sequence:
#
# PCOD9521913 Si02
#       6
#    16   8  16  16  16  16
#     4   9  17  31  52  77 103 130 162 203 252 310
#     4   7  12  26  48  74 103 127 150 191 245 301
#     4  10  20  35  56  80 106 135 170 216 267 315
#     4  12  22  33  50  73 104 138 176 219 261 301
#     4  10  21  37  54  73 103 142 179 214 253 302
#     4   9  18  34  54  77 105 135 172 215 258 308
#
# _framework density 17.455877999999998
#
# number of rings (size 3 to 8) (size 9 to 14) (size 15 to 20)
#    0.000    2.273    1.818    3.273    0.000    2.909 
#    1.636    3.636    0.000    0.000    0.000    0.000 
#    0.000    0.000    0.000    3.818    0.000    2.364 
#
# Total GULP energy -245335.659155 kJ/mol
# GULP energy per Si atom -5575.810435 kJ/mol
# Density = 1.741615 g / cm^3
# Si number density = 17.455878 Si / 1000 Ang^3
#
#
#
# Elastic Constant Matrix: (Units=GPa)
#
#
# Indices 1 2 3 4 5 6 
#
# 1 55.7276 20.9881 29.4879 0.0000 0.0000 0.0000
# 2 20.9881 109.6447 40.9018 0.0000 0.0000 0.0000
# 3 29.4879 40.9018 94.3298 0.0000 0.0000 0.0000
# 4 0.0000 0.0000 0.0000 20.4895 0.0000 0.0000
# 5 0.0000 0.0000 0.0000 0.0000 20.0950 0.0000
# 6 0.0000 0.0000 0.0000 0.0000 0.0000 23.2111
#
#
#
# Elastic Compliance Matrix: (Units=1/GPa)
#
#
# Indices 1 2 3 4 5 6 
#
# 1 0.021845 -0.001949 -0.005983 0.000000 0.000000 0.000000
# 2 -0.001949 0.011054 -0.004184 0.000000 0.000000 0.000000
# 3 -0.005983 -0.004184 0.014286 0.000000 0.000000 0.000000
# 4 0.000000 0.000000 0.000000 0.048806 0.000000 0.000000
# 5 0.000000 0.000000 0.000000 0.000000 0.049764 0.000000
# 6 0.000000 0.000000 0.000000 0.000000 0.000000 0.043083
#
#
# Mechanical properties :
#
#
# Convention : Reuss Voigt Hill
#
# Bulk Modulus (GPa) = 43.57055 49.16199 46.36627
# Shear Modulus (GPa) = 22.65307 23.98072 23.31689
#
# Velocity S-wave (km/s) = 3.60631 3.71049 3.65877
# Velocity P-wave (km/s) = 6.50809 6.82508 6.66847
#
# Compressibility (1/GPa) = 0.02295128
#
# Stress axis : x y z
#
# Youngs Moduli (GPa) = 45.77762 90.46306 70.00020
#
# Poissons Ratio (x) = 0.17635 0.41884
# Poissons Ratio (y) = 0.08924 0.29286
# Poissons Ratio (z) = 0.27391 0.37848
#
# Static dielectric constant tensor:
#      x y z
#    x 1.627410 0.000000 0.000000 
#    y 0.000000 1.587030 0.000000 
#    z 0.000000 0.000000 1.598740 
# 
# From -- ./inp_files/52930.got.cif
#   From: 2010.05.17/outbox.cif.g08.bks.cpg/sg71_27_cif.got.tgz:52930.got - 2010.06.03 16:22:01.
