data_PCOD9521680
_publ_section_title
;
Structure prediction by ZEFSAII (Michael W. Deem and Ramdas Pophale) SiO2 
 PCOD9521680
Probable space group: I M M M
;
_chemical_formula_sum "Si O2"
_cell_formula_units_Z 80
_cell_length_a 26.213584
_cell_length_b 8.615523
_cell_length_c 18.766555
_cell_angle_alpha 90.000000
_cell_angle_beta 90.000000
_cell_angle_gamma 90.000000
_cell_volume 4238.308891
_symmetry_space_group_name_H-M "I M M M"
_symmetry_group_IT_number 71
_symmetry_cell_setting 'orthorhombic'
loop_
_space_group_symop_operation_xyz
x,y,z
-x,-y,z
x,-y,-z
-x,y,-z
-x,-y,-z
x,y,-z
-x,y,z
x,-y,z
1/2+x,1/2+y,1/2+z
1/2-x,1/2-y,1/2+z
1/2+x,1/2-y,1/2-z
1/2-x,1/2+y,1/2-z
1/2-x,1/2-y,1/2-z
1/2+x,1/2+y,1/2-z
1/2-x,1/2+y,1/2+z
1/2+x,1/2-y,1/2+z
loop_
_atom_site_type_symbol
_atom_site_label
_atom_site_fract_x
_atom_site_fract_y
_atom_site_fract_z
Si Si1 0.155079 0.185175 0.417480
Si Si2 0.749579 0.184440 0.829799
Si Si3 0.558859 0.813057 0.838188
Si Si4 0.154520 0.688161 0.082541
Si Si5 0.057422 0.688844 0.173011
O O1 0.160843 0.231414 0.500000
O O2 0.198040 0.264689 0.369510
O O3 0.099851 0.233128 0.388225
O O4 0.161318 0.000000 0.412777
O O5 0.750000 0.250000 0.750000
O O6 0.797349 0.250013 0.873982
O O7 0.752510 0.000000 0.826939
O O8 0.500000 0.775266 0.855317
O O9 0.567869 0.768657 0.755327
O O10 0.564355 0.000000 0.843022
O O11 0.155775 0.500000 0.084572
O O12 0.102271 0.740315 0.120893
O O13 0.156387 0.735947 0.000000
O O14 0.056754 0.500000 0.171259
O O15 0.000000 0.740820 0.154144
#
# Coordination Sequence:
#
# PCOD9521680 Si02
#       5
#    16  16  16  16  16
#     4  11  24  40  58  83 116 151 189 235 286 340
#     4  12  25  41  62  84 109 144 187 234 285 343
#     4   9  18  34  57  83 112 151 199 244 283 331
#     4  10  20  34  55  85 119 151 186 231 279 329
#     4   8  15  30  53  81 112 147 188 231 273 319
#
# _framework density 18.875453
#
# number of rings (size 3 to 8) (size 9 to 14) (size 15 to 20)
#    0.000    2.000    0.000    5.400    0.000    7.200 
#    0.000    4.000    0.000    1.800    0.000    1.400 
#    0.000    0.000    0.000    0.000    0.000    0.000 
#
# Total GULP energy -223470.115255 kJ/mol
# GULP energy per Si atom -5586.752881 kJ/mol
# Density = 1.883249 g / cm^3
# Si number density = 18.875453 Si / 1000 Ang^3
#
#
#
# Elastic Constant Matrix: (Units=GPa)
#
#
# Indices 1 2 3 4 5 6 
#
# 1 103.2426 25.8332 78.6592 0.0000 0.0000 0.0000
# 2 25.8332 32.4204 37.1718 0.0000 0.0000 0.0000
# 3 78.6592 37.1718 142.4845 0.0000 0.0000 0.0000
# 4 0.0000 0.0000 0.0000 25.1424 0.0000 0.0000
# 5 0.0000 0.0000 0.0000 0.0000 -97.0136 0.0000
# 6 0.0000 0.0000 0.0000 0.0000 0.0000 27.8820
#
#
#
# Elastic Compliance Matrix: (Units=1/GPa)
#
#
# Indices 1 2 3 4 5 6 
#
# 1 0.017072 -0.003991 -0.008383 0.000000 0.000000 0.000000
# 2 -0.003991 0.044942 -0.009521 0.000000 0.000000 0.000000
# 3 -0.008383 -0.009521 0.014130 0.000000 0.000000 0.000000
# 4 0.000000 0.000000 0.000000 0.039773 0.000000 0.000000
# 5 0.000000 0.000000 0.000000 0.000000 -0.010308 0.000000
# 6 0.000000 0.000000 0.000000 0.000000 0.000000 0.035865
#
#
# Mechanical properties :
#
#
# Convention : Reuss Voigt Hill
#
# Bulk Modulus (GPa) = 30.90965 62.38620 46.64793
# Shear Modulus (GPa) = 25.50369 0.30104 12.90237
#
# Velocity S-wave (km/s) = 3.67980 0.39979 2.61732
# Velocity P-wave (km/s) = 5.87075 5.77376 5.82246
#
# Compressibility (1/GPa) = 0.03235235
#
# Stress axis : x y z
#
# Youngs Moduli (GPa) = 58.57651 22.25108 70.77016
#
# Poissons Ratio (x) = 0.08881 0.59329
# Poissons Ratio (y) = 0.23379 0.67382
# Poissons Ratio (z) = 0.49106 0.21186
#
# Static dielectric constant tensor:
#      x y z
#    x 1.636920 0.000000 0.000000 
#    y 0.000000 1.645490 0.000000 
#    z 0.000000 0.000000 1.630540 
# 
# From -- ./inp_files/8350.got.cif
#   From: 2010.05.17/outbox.cif.g08.bks.cpg/sg71_5_cif.got.tgz:8350.got - 2010.06.03 16:22:01.
