data_PCOD9521614
_publ_section_title
;
Structure prediction by ZEFSAII (Michael W. Deem and Ramdas Pophale) SiO2 
 PCOD9521614
Probable space group: I M M M
;
_chemical_formula_sum "Si O2"
_cell_formula_units_Z 104
_cell_length_a 27.042934
_cell_length_b 21.808086
_cell_length_c 7.416855
_cell_angle_alpha 90.000000
_cell_angle_beta 90.000000
_cell_angle_gamma 90.000000
_cell_volume 4374.124579
_symmetry_space_group_name_H-M "I M M M"
_symmetry_group_IT_number 71
_symmetry_cell_setting 'orthorhombic'
loop_
_space_group_symop_operation_xyz
x,y,z
-x,-y,z
x,-y,-z
-x,y,-z
-x,-y,-z
x,y,-z
-x,y,z
x,-y,z
1/2+x,1/2+y,1/2+z
1/2-x,1/2-y,1/2+z
1/2+x,1/2-y,1/2-z
1/2-x,1/2+y,1/2-z
1/2-x,1/2-y,1/2-z
1/2+x,1/2+y,1/2-z
1/2-x,1/2+y,1/2+z
1/2+x,1/2-y,1/2+z
loop_
_atom_site_type_symbol
_atom_site_label
_atom_site_fract_x
_atom_site_fract_y
_atom_site_fract_z
Si Si1 0.944371 0.331409 0.717789
Si Si2 0.393421 0.603983 0.204605
Si Si3 0.142037 0.236085 0.790910
Si Si4 0.000000 0.073519 0.287426
Si Si5 0.784153 0.665298 0.792992
Si Si6 0.210257 0.066426 0.278546
Si Si7 0.130104 0.569571 0.281813
O O1 0.944911 0.327351 0.500000
O O2 0.904755 0.281721 0.781655
O O3 0.921432 0.397461 0.765303
O O4 0.000000 0.322002 0.782514
O O5 0.374866 0.673853 0.199523
O O6 0.447769 0.597646 0.287882
O O7 0.346404 0.569084 0.283253
O O8 0.398531 0.580090 0.000000
O O9 0.189338 0.273976 0.715728
O O10 0.151849 0.222497 0.000000
O O11 0.000000 0.091736 0.500000
O O12 0.000000 0.000000 0.273554
O O13 0.738526 0.627304 0.713225
O O14 0.826951 0.613364 0.790507
O O15 0.772166 0.679989 0.000000
O O16 0.211179 0.068921 0.500000
O O17 0.232335 0.000000 0.227547
O O18 0.134360 0.570324 0.500000
O O19 0.133826 0.500000 0.219875
#
# Coordination Sequence:
#
# PCOD9521614 Si02
#       7
#    16  16  16   8  16  16  16
#     4   9  18  32  50  70  95 130 172 217 259 305
#     4  10  20  34  55  81 105 133 170 214 262 313
#     4  10  21  35  50  73 105 138 173 212 256 306
#     4   9  18  34  57  83 107 131 166 215 264 309
#     4   9  18  33  52  73 100 137 177 213 251 300
#     4   9  17  31  54  81 104 130 171 219 261 304
#     4   9  17  29  46  71 101 131 166 210 262 313
#
# _framework density 23.776185000000002
#
# number of rings (size 3 to 8) (size 9 to 14) (size 15 to 20)
#    0.000    2.692    0.000    1.385    1.077    4.615 
#    0.000    2.308    0.000    3.231    0.000    4.308 
#    0.000    0.000    0.000    0.000    0.000    0.000 
#
# Total GULP energy -290371.256184 kJ/mol
# GULP energy per Si atom -5584.062619 kJ/mol
# Density = 2.372207 g / cm^3
# Si number density = 23.776185 Si / 1000 Ang^3
#
#
#
# Elastic Constant Matrix: (Units=GPa)
#
#
# Indices 1 2 3 4 5 6 
#
# 1 159.4691 38.8941 9.2282 0.0000 0.0000 0.0000
# 2 38.8941 112.3913 3.7408 0.0000 0.0000 0.0000
# 3 9.2282 3.7408 84.0191 0.0000 0.0000 0.0000
# 4 0.0000 0.0000 0.0000 -6.3526 0.0000 0.0000
# 5 0.0000 0.0000 0.0000 0.0000 5.5906 0.0000
# 6 0.0000 0.0000 0.0000 0.0000 0.0000 27.9164
#
#
#
# Elastic Compliance Matrix: (Units=1/GPa)
#
#
# Indices 1 2 3 4 5 6 
#
# 1 0.006884 -0.002361 -0.000651 0.000000 0.000000 0.000000
# 2 -0.002361 0.009720 -0.000173 0.000000 0.000000 0.000000
# 3 -0.000651 -0.000173 0.011981 0.000000 0.000000 0.000000
# 4 0.000000 0.000000 0.000000 -0.157416 0.000000 0.000000
# 5 0.000000 0.000000 0.000000 0.000000 0.178871 0.000000
# 6 0.000000 0.000000 0.000000 0.000000 0.000000 0.035821
#
#
# Mechanical properties :
#
#
# Convention : Reuss Voigt Hill
#
# Bulk Modulus (GPa) = 45.01398 51.06731 48.04064
# Shear Modulus (GPa) = 50.18189 25.69864 37.94026
#
# Velocity S-wave (km/s) = 4.59910 3.29120 3.99899
# Velocity P-wave (km/s) = 6.86847 5.99731 6.44762
#
# Compressibility (1/GPa) = 0.02221532
#
# Stress axis : x y z
#
# Youngs Moduli (GPa) = 145.25911 102.87854 83.46345
#
# Poissons Ratio (x) = 0.24286 0.05434
# Poissons Ratio (y) = 0.34291 0.01448
# Poissons Ratio (z) = 0.09457 0.01785
#
# Static dielectric constant tensor:
#      x y z
#    x 1.917950 0.000000 0.000000 
#    y 0.000000 1.885670 0.000000 
#    z 0.000000 0.000000 1.946920 
# 
# From -- ./inp_files/15025.got.cif
#   From: 2010.05.17/outbox.cif.g08.bks.cpg/sg71_8_cif.got.tgz:15025.got - 2010.06.03 16:22:01.
