data_PCOD9521957
_publ_section_title
;
Structure prediction by ZEFSAII (Michael W. Deem and Ramdas Pophale) SiO2 
 PCOD9521957
Probable space group: I M M M
;
_chemical_formula_sum "Si O2"
_cell_formula_units_Z 116
_cell_length_a 21.896690
_cell_length_b 15.139306
_cell_length_c 17.296233
_cell_angle_alpha 90.000000
_cell_angle_beta 90.000000
_cell_angle_gamma 90.000000
_cell_volume 5733.713179
_symmetry_space_group_name_H-M "I M M M"
_symmetry_group_IT_number 71
_symmetry_cell_setting 'orthorhombic'
loop_
_space_group_symop_operation_xyz
x,y,z
-x,-y,z
x,-y,-z
-x,y,-z
-x,-y,-z
x,y,-z
-x,y,z
x,-y,z
1/2+x,1/2+y,1/2+z
1/2-x,1/2-y,1/2+z
1/2+x,1/2-y,1/2-z
1/2-x,1/2+y,1/2-z
1/2-x,1/2-y,1/2-z
1/2+x,1/2+y,1/2-z
1/2-x,1/2+y,1/2+z
1/2+x,1/2-y,1/2+z
loop_
_atom_site_type_symbol
_atom_site_label
_atom_site_fract_x
_atom_site_fract_y
_atom_site_fract_z
Si Si1 0.073426 0.105174 0.583097
Si Si2 0.763100 0.400731 0.798264
Si Si3 0.571594 0.340894 0.252182
Si Si4 0.131675 0.602005 0.587058
Si Si5 0.177062 0.096570 0.852398
Si Si6 0.257611 0.241295 0.913806
Si Si7 0.402951 0.863259 0.252584
Si Si8 0.500000 0.000000 0.308217
O O1 0.097100 0.140014 0.500000
O O2 0.095585 0.141989 0.664567
O O3 0.000000 0.119151 0.582272
O O4 0.083606 0.000000 0.584450
O O5 0.757169 0.500000 0.831919
O O6 0.722112 0.398561 0.721606
O O7 0.743614 0.320778 0.853395
O O8 0.832953 0.384595 0.772871
O O9 0.500000 0.363726 0.254194
O O10 0.610551 0.392863 0.315121
O O11 0.582054 0.238064 0.266726
O O12 0.105383 0.611956 0.500000
O O13 0.154307 0.500000 0.592458
O O14 0.185564 0.673637 0.595016
O O15 0.088293 0.616388 0.660707
O O16 0.198324 0.178819 0.903197
O O17 0.184150 0.000000 0.889309
O O18 0.259003 0.277992 0.000000
O O19 0.446983 0.923973 0.301487
#
# Coordination Sequence:
#
# PCOD9521957 Si02
#       8
#    16  16  16  16  16  16  16   4
#     4   8  15  30  50  72 105 152 198 234 274 334
#     4  11  22  40  65  87 119 155 194 258 304 355
#     4  11  22  34  55  85 120 156 199 250 298 356
#     4  10  20  35  56  83 122 164 199 244 295 354
#     4  11  22  37  62  93 119 155 201 244 303 357
#     4  11  22  37  61  92 120 154 200 248 304 365
#     4  12  21  38  58  85 119 155 203 248 298 356
#     4  12  24  36  61  92 115 162 208 250 306 366
#
# _framework density 20.231217999999998
#
# number of rings (size 3 to 8) (size 9 to 14) (size 15 to 20)
#    0.000    1.379    4.828    2.483    0.000    2.483 
#    0.000    1.379    0.000    1.241    0.000    1.448 
#    0.000    0.000    0.000    0.000    0.000    0.000 
#
# Total GULP energy -323508.471489 kJ/mol
# GULP energy per Si atom -5577.732267 kJ/mol
# Density = 2.018517 g / cm^3
# Si number density = 20.231218 Si / 1000 Ang^3
#
#
#
# Elastic Constant Matrix: (Units=GPa)
#
#
# Indices 1 2 3 4 5 6 
#
# 1 71.6839 -8.4807 -6.0336 0.0000 0.0000 0.0000
# 2 -8.4807 71.3187 15.4544 0.0000 0.0000 0.0000
# 3 -6.0336 15.4544 26.7855 0.0000 0.0000 0.0000
# 4 0.0000 0.0000 0.0000 13.8730 0.0000 0.0000
# 5 0.0000 0.0000 0.0000 0.0000 9.8499 0.0000
# 6 0.0000 0.0000 0.0000 0.0000 0.0000 21.6397
#
#
#
# Elastic Compliance Matrix: (Units=1/GPa)
#
#
# Indices 1 2 3 4 5 6 
#
# 1 0.014301 0.001146 0.002560 0.000000 0.000000 0.000000
# 2 0.001146 0.016117 -0.009041 0.000000 0.000000 0.000000
# 3 0.002560 -0.009041 0.043127 0.000000 0.000000 0.000000
# 4 0.000000 0.000000 0.000000 0.072083 0.000000 0.000000
# 5 0.000000 0.000000 0.000000 0.000000 0.101524 0.000000
# 6 0.000000 0.000000 0.000000 0.000000 0.000000 0.046211
#
#
# Mechanical properties :
#
#
# Convention : Reuss Voigt Hill
#
# Bulk Modulus (GPa) = 15.90449 19.07425 17.48937
# Shear Modulus (GPa) = 15.38504 20.32905 17.85705
#
# Velocity S-wave (km/s) = 2.76064 3.17335 2.97416
# Velocity P-wave (km/s) = 4.24734 4.78283 4.52302
#
# Compressibility (1/GPa) = 0.06287532
#
# Stress axis : x y z
#
# Youngs Moduli (GPa) = 69.92428 62.04658 23.18750
#
# Poissons Ratio (x) = -0.07109 -0.05937
# Poissons Ratio (y) = -0.08012 0.20964
# Poissons Ratio (z) = -0.17903 0.56096
#
# Static dielectric constant tensor:
#      x y z
#    x 1.736700 0.000000 0.000000 
#    y 0.000000 1.734550 0.000000 
#    z 0.000000 0.000000 1.732820 
# 
# From -- ./inp_files/48280.got.cif
#   From: 2010.05.17/outbox.cif.g08.bks.cpg/sg71_25_cif.got.tgz:48280.got - 2010.06.03 16:22:01.
