data_PCOD9521373
_publ_section_title
;
Structure prediction by ZEFSAII (Michael W. Deem and Ramdas Pophale) SiO2 
 PCOD9521373
Probable space group: I M M M
;
_chemical_formula_sum "Si O2"
_cell_formula_units_Z 120
_cell_length_a 28.469983
_cell_length_b 27.941464
_cell_length_c 8.257134
_cell_angle_alpha 90.000000
_cell_angle_beta 90.000000
_cell_angle_gamma 90.000000
_cell_volume 6568.492339
_symmetry_space_group_name_H-M "I M M M"
_symmetry_group_IT_number 71
_symmetry_cell_setting 'orthorhombic'
loop_
_space_group_symop_operation_xyz
x,y,z
-x,-y,z
x,-y,-z
-x,y,-z
-x,-y,-z
x,y,-z
-x,y,z
x,-y,z
1/2+x,1/2+y,1/2+z
1/2-x,1/2-y,1/2+z
1/2+x,1/2-y,1/2-z
1/2-x,1/2+y,1/2-z
1/2-x,1/2-y,1/2-z
1/2+x,1/2+y,1/2-z
1/2-x,1/2+y,1/2+z
1/2+x,1/2-y,1/2+z
loop_
_atom_site_type_symbol
_atom_site_label
_atom_site_fract_x
_atom_site_fract_y
_atom_site_fract_z
Si Si1 0.261868 0.302968 0.306257
Si Si2 0.313222 0.553254 0.693359
Si Si3 0.640360 0.350839 0.697574
Si Si4 0.780692 0.399013 0.810764
Si Si5 0.885252 0.590716 0.307004
Si Si6 0.553820 0.000000 0.197977
Si Si7 0.553366 0.711012 0.302242
Si Si8 0.554106 0.179367 0.304422
O O1 0.258629 0.305873 0.500000
O O2 0.250000 0.250000 0.250000
O O3 0.314786 0.318203 0.258941
O O4 0.228031 0.343453 0.233496
O O5 0.320066 0.551161 0.500000
O O6 0.320576 0.500000 0.760331
O O7 0.347113 0.595650 0.755335
O O8 0.259957 0.570931 0.722251
O O9 0.638760 0.352195 0.500000
O O10 0.592478 0.326328 0.754254
O O11 0.833267 0.412875 0.764341
O O12 0.773354 0.405799 0.000000
O O13 0.881157 0.587429 0.500000
O O14 0.918359 0.547313 0.249701
O O15 0.910200 0.640540 0.262924
O O16 0.500000 0.000000 0.253264
O O17 0.553089 0.000000 0.000000
O O18 0.553584 0.710531 0.500000
O O19 0.500000 0.700186 0.251048
O O20 0.564611 0.765848 0.254877
O O21 0.555962 0.177723 0.500000
O O22 0.500000 0.168704 0.256032
#
# Coordination Sequence:
#
# PCOD9521373 Si02
#       8
#    16  16  16  16  16   8  16  16
#     4  10  20  34  52  77 108 142 178 216 261 315
#     4   9  18  34  55  75 101 135 173 220 269 320
#     4   8  15  28  47  72 100 136 177 210 252 310
#     4  11  23  37  52  75 105 137 175 220 267 318
#     4  11  22  36  55  77  99 131 174 222 273 328
#     4   9  20  38  57  75  97 131 173 217 272 333
#     4   8  14  26  47  75 106 138 171 206 248 304
#     4   9  18  32  50  74 103 135 171 214 264 315
#
# _framework density 18.269033
#
# number of rings (size 3 to 8) (size 9 to 14) (size 15 to 20)
#    0.000    2.600    0.000    4.000    2.800    1.067 
#    0.000    1.000    0.000    2.800    0.000    2.800 
#    0.000    0.000    0.000    4.800    0.000    5.333 
#
# Total GULP energy -334733.023463 kJ/mol
# GULP energy per Si atom -5578.883724 kJ/mol
# Density = 1.822745 g / cm^3
# Si number density = 18.269033 Si / 1000 Ang^3
#
#
#
# Elastic Constant Matrix: (Units=GPa)
#
#
# Indices 1 2 3 4 5 6 
#
# 1 113.8934 77.2434 -0.8143 0.0000 0.0000 0.0000
# 2 77.2434 141.6397 0.1556 0.0000 0.0000 0.0000
# 3 -0.8143 0.1556 10.4638 0.0000 0.0000 0.0000
# 4 0.0000 0.0000 0.0000 18.7098 0.0000 0.0000
# 5 0.0000 0.0000 0.0000 0.0000 8.9966 0.0000
# 6 0.0000 0.0000 0.0000 0.0000 0.0000 18.6756
#
#
#
# Elastic Compliance Matrix: (Units=1/GPa)
#
#
# Indices 1 2 3 4 5 6 
#
# 1 0.013949 -0.007608 0.001199 0.000000 0.000000 0.000000
# 2 -0.007608 0.011210 -0.000759 0.000000 0.000000 0.000000
# 3 0.001199 -0.000759 0.095672 0.000000 0.000000 0.000000
# 4 0.000000 0.000000 0.000000 0.053448 0.000000 0.000000
# 5 0.000000 0.000000 0.000000 0.000000 0.111153 0.000000
# 6 0.000000 0.000000 0.000000 0.000000 0.000000 0.053546
#
#
# Mechanical properties :
#
#
# Convention : Reuss Voigt Hill
#
# Bulk Modulus (GPa) = 9.39023 46.57405 27.98214
# Shear Modulus (GPa) = 12.85968 21.90387 17.38177
#
# Velocity S-wave (km/s) = 2.65600 3.46636 3.08788
# Velocity P-wave (km/s) = 3.81535 6.44745 5.29748
#
# Compressibility (1/GPa) = 0.10649369
#
# Stress axis : x y z
#
# Youngs Moduli (GPa) = 71.69135 89.20469 10.45241
#
# Poissons Ratio (x) = 0.67869 -0.01253
# Poissons Ratio (y) = 0.54545 0.00793
# Poissons Ratio (z) = -0.08593 0.06769
#
# Static dielectric constant tensor:
#      x y z
#    x 1.610600 0.000000 0.000000 
#    y 0.000000 1.626180 0.000000 
#    z 0.000000 0.000000 1.645730 
# 
# From -- ./inp_files/15648.got.cif
#   From: 2010.05.17/outbox.cif.g08.bks.cpg/sg71_8_cif.got.tgz:15648.got - 2010.06.03 16:22:01.
