data_PCOD9521283
_publ_section_title
;
Structure prediction by ZEFSAII (Michael W. Deem and Ramdas Pophale) SiO2 
 PCOD9521283
Probable space group: I M M M
;
_chemical_formula_sum "Si O2"
_cell_formula_units_Z 80
_cell_length_a 31.389628
_cell_length_b 7.499609
_cell_length_c 15.239521
_cell_angle_alpha 90.000000
_cell_angle_beta 90.000000
_cell_angle_gamma 90.000000
_cell_volume 3587.534673
_symmetry_space_group_name_H-M "I M M M"
_symmetry_group_IT_number 71
_symmetry_cell_setting 'orthorhombic'
loop_
_space_group_symop_operation_xyz
x,y,z
-x,-y,z
x,-y,-z
-x,y,-z
-x,-y,-z
x,y,-z
-x,y,z
x,-y,z
1/2+x,1/2+y,1/2+z
1/2-x,1/2-y,1/2+z
1/2+x,1/2-y,1/2-z
1/2-x,1/2+y,1/2-z
1/2-x,1/2-y,1/2-z
1/2+x,1/2+y,1/2-z
1/2-x,1/2+y,1/2+z
1/2+x,1/2-y,1/2+z
loop_
_atom_site_type_symbol
_atom_site_label
_atom_site_fract_x
_atom_site_fract_y
_atom_site_fract_z
Si Si1 0.454281 0.207606 0.132615
Si Si2 0.454101 0.713979 0.339664
Si Si3 0.360506 0.789925 0.345197
Si Si4 0.362051 0.219343 0.854702
Si Si5 0.803088 0.287633 0.000000
Si Si6 0.296461 0.214412 0.000000
O O1 0.500000 0.286685 0.105375
O O2 0.453559 0.217174 0.239128
O O3 0.407992 0.279790 0.107721
O O4 0.455017 0.000000 0.106871
O O5 0.500000 0.770158 0.378380
O O6 0.453891 0.500000 0.336761
O O7 0.409033 0.769871 0.379420
O O8 0.358098 0.718232 0.245910
O O9 0.326604 0.714935 0.413555
O O10 0.352260 0.000000 0.336137
O O11 0.363580 0.000000 0.854459
O O12 0.322927 0.275184 0.914968
O O13 0.811228 0.500000 0.000000
O O14 0.752756 0.263337 0.000000
O O15 0.298273 0.000000 0.000000
#
# Coordination Sequence:
#
# PCOD9521283 Si02
#       6
#    16  16  16  16   8   8
#     4   8  13  24  44  68  96 132 166 192 223 268
#     4   9  16  26  44  73 104 129 155 190 231 277
#     4   9  18  34  53  70  93 126 161 197 235 277
#     4   8  15  29  49  72  97 125 157 192 232 281
#     4  10  22  38  53  70  91 118 160 210 247 278
#     4  10  20  34  51  71  97 126 154 193 247 296
#
# _framework density 22.299437000000001
#
# number of rings (size 3 to 8) (size 9 to 14) (size 15 to 20)
#    0.000    3.200    0.000    1.800    0.000    2.800 
#    0.000    5.000    0.000    6.000    0.000    0.000 
#    0.000   32.800    0.000    0.000    0.000    0.000 
#
# Total GULP energy -223012.719680 kJ/mol
# GULP energy per Si atom -5575.317992 kJ/mol
# Density = 2.224868 g / cm^3
# Si number density = 22.299437 Si / 1000 Ang^3
#
#
#
# Elastic Constant Matrix: (Units=GPa)
#
#
# Indices 1 2 3 4 5 6 
#
# 1 228.4862 -15.5216 100.9280 0.0000 0.0000 0.0000
# 2 -15.5216 58.8029 7.1605 0.0000 0.0000 0.0000
# 3 100.9280 7.1605 103.1657 0.0000 0.0000 0.0000
# 4 0.0000 0.0000 0.0000 -15.0653 0.0000 0.0000
# 5 0.0000 0.0000 0.0000 0.0000 64.9209 0.0000
# 6 0.0000 0.0000 0.0000 0.0000 0.0000 21.1206
#
#
#
# Elastic Compliance Matrix: (Units=1/GPa)
#
#
# Indices 1 2 3 4 5 6 
#
# 1 0.008261 0.003192 -0.008304 0.000000 0.000000 0.000000
# 2 0.003192 0.018384 -0.004399 0.000000 0.000000 0.000000
# 3 -0.008304 -0.004399 0.018122 0.000000 0.000000 0.000000
# 4 0.000000 0.000000 0.000000 -0.066378 0.000000 0.000000
# 5 0.000000 0.000000 0.000000 0.000000 0.015403 0.000000
# 6 0.000000 0.000000 0.000000 0.000000 0.000000 0.047347
#
#
# Mechanical properties :
#
#
# Convention : Reuss Voigt Hill
#
# Bulk Modulus (GPa) = 38.84012 63.95429 51.39720
# Shear Modulus (GPa) = 72.73374 34.05442 53.39408
#
# Velocity S-wave (km/s) = 5.71731 3.91211 4.89858
# Velocity P-wave (km/s) = 7.81274 7.01057 7.42250
#
# Compressibility (1/GPa) = 0.02574657
#
# Stress axis : x y z
#
# Youngs Moduli (GPa) = 121.04406 54.39476 55.18116
#
# Poissons Ratio (x) = -0.17362 0.45821
# Poissons Ratio (y) = -0.38636 0.24272
# Poissons Ratio (z) = 1.00513 0.23926
#
# Static dielectric constant tensor:
#      x y z
#    x 1.832820 0.000000 0.000000 
#    y 0.000000 1.845280 0.000000 
#    z 0.000000 0.000000 1.837920 
# 
# From -- ./inp_files/48619.got.cif
#   From: 2010.05.17/outbox.cif.g08.bks.cpg/sg71_25_cif.got.tgz:48619.got - 2010.06.03 16:22:01.
