data_PCOD9521805
_publ_section_title
;
Structure prediction by ZEFSAII (Michael W. Deem and Ramdas Pophale) SiO2 
 PCOD9521805
Probable space group: I M M M
;
_chemical_formula_sum "Si O2"
_cell_formula_units_Z 88
_cell_length_a 25.156300
_cell_length_b 23.197039
_cell_length_c 8.783953
_cell_angle_alpha 90.000000
_cell_angle_beta 90.000000
_cell_angle_gamma 90.000000
_cell_volume 5125.890462
_symmetry_space_group_name_H-M "I M M M"
_symmetry_group_IT_number 71
_symmetry_cell_setting 'orthorhombic'
loop_
_space_group_symop_operation_xyz
x,y,z
-x,-y,z
x,-y,-z
-x,y,-z
-x,-y,-z
x,y,-z
-x,y,z
x,-y,z
1/2+x,1/2+y,1/2+z
1/2-x,1/2-y,1/2+z
1/2+x,1/2-y,1/2-z
1/2-x,1/2+y,1/2-z
1/2-x,1/2-y,1/2-z
1/2+x,1/2+y,1/2-z
1/2-x,1/2+y,1/2+z
1/2+x,1/2-y,1/2+z
loop_
_atom_site_type_symbol
_atom_site_label
_atom_site_fract_x
_atom_site_fract_y
_atom_site_fract_z
Si Si1 0.060218 0.846901 0.685379
Si Si2 0.874915 0.391090 0.180842
Si Si3 0.652672 0.567054 0.816179
Si Si4 0.232911 0.568284 0.318631
Si Si5 0.062673 0.500000 0.317560
Si Si6 0.437593 0.214310 0.817520
O O1 0.059443 0.848204 0.500000
O O2 0.104841 0.891814 0.735461
O O3 0.072532 0.780739 0.727393
O O4 0.000000 0.860778 0.735853
O O5 0.815074 0.397707 0.241906
O O6 0.909001 0.443442 0.251897
O O7 0.901188 0.331557 0.233940
O O8 0.875552 0.396078 0.000000
O O9 0.642436 0.500000 0.776890
O O10 0.709182 0.584002 0.745031
O O11 0.656650 0.570535 0.000000
O O12 0.231237 0.575537 0.500000
O O13 0.224982 0.500000 0.285039
O O14 0.068615 0.500000 0.500000
O O15 0.000000 0.500000 0.281172
O O16 0.500000 0.202328 0.787679
O O17 0.429839 0.209375 0.000000
#
# Coordination Sequence:
#
# PCOD9521805 Si02
#       6
#    16  16  16  16   8  16
#     4   8  15  30  53  80 108 140 175 210 255 314
#     4  12  23  34  52  77 104 133 173 223 269 307
#     4   9  17  30  52  82 112 136 167 216 266 309
#     4  10  20  35  54  73 100 139 179 214 258 319
#     4  11  23  37  53  75 105 139 174 211 256 313
#     4   9  18  34  54  73 100 141 182 214 252 312
#
# _framework density 17.167749000000001
#
# number of rings (size 3 to 8) (size 9 to 14) (size 15 to 20)
#    0.000    2.273    0.909    4.091    0.000    4.364 
#    0.000    3.636    0.000    1.636    0.000    2.545 
#    0.000    0.000    0.000    0.000    0.000    0.000 
#
# Total GULP energy -245559.661427 kJ/mol
# GULP energy per Si atom -5580.901396 kJ/mol
# Density = 1.712867 g / cm^3
# Si number density = 17.167749 Si / 1000 Ang^3
#
#
#
# Elastic Constant Matrix: (Units=GPa)
#
#
# Indices 1 2 3 4 5 6 
#
# 1 168.8432 109.4950 58.1318 0.0000 0.0000 0.0000
# 2 109.4950 103.3970 40.4237 0.0000 0.0000 0.0000
# 3 58.1318 40.4237 40.1604 0.0000 0.0000 0.0000
# 4 0.0000 0.0000 0.0000 11.7210 0.0000 0.0000
# 5 0.0000 0.0000 0.0000 0.0000 23.6647 0.0000
# 6 0.0000 0.0000 0.0000 0.0000 0.0000 16.4544
#
#
#
# Elastic Compliance Matrix: (Units=1/GPa)
#
#
# Indices 1 2 3 4 5 6 
#
# 1 0.023122 -0.018798 -0.014547 0.000000 0.000000 0.000000
# 2 -0.018798 0.031230 -0.004224 0.000000 0.000000 0.000000
# 3 -0.014547 -0.004224 0.050209 0.000000 0.000000 0.000000
# 4 0.000000 0.000000 0.000000 0.085317 0.000000 0.000000
# 5 0.000000 0.000000 0.000000 0.000000 0.042257 0.000000
# 6 0.000000 0.000000 0.000000 0.000000 0.000000 0.060774
#
#
# Mechanical properties :
#
#
# Convention : Reuss Voigt Hill
#
# Bulk Modulus (GPa) = 33.98897 80.94462 57.46680
# Shear Modulus (GPa) = 13.23256 17.32468 15.27862
#
# Velocity S-wave (km/s) = 2.77930 3.18014 2.98646
# Velocity P-wave (km/s) = 5.49004 7.79333 6.74079
#
# Compressibility (1/GPa) = 0.02942131
#
# Stress axis : x y z
#
# Youngs Moduli (GPa) = 43.24930 32.02074 19.91664
#
# Poissons Ratio (x) = 0.60193 0.28973
# Poissons Ratio (y) = 0.81300 0.08414
# Poissons Ratio (z) = 0.62916 0.13527
#
# Static dielectric constant tensor:
#      x y z
#    x 1.567280 0.000000 0.000000 
#    y 0.000000 1.566210 0.000000 
#    z 0.000000 0.000000 1.573460 
# 
# From -- ./inp_files/12516.got.cif
#   From: 2010.05.17/outbox.cif.g08.bks.cpg/sg71_7_cif.got.tgz:12516.got - 2010.06.03 16:22:01.
