data_PCOD9521294
_publ_section_title
;
Structure prediction by ZEFSAII (Michael W. Deem and Ramdas Pophale) SiO2 
 PCOD9521294
Probable space group: I M M M
;
_chemical_formula_sum "Si O2"
_cell_formula_units_Z 88
_cell_length_a 16.497679
_cell_length_b 34.705074
_cell_length_c 10.303458
_cell_angle_alpha 90.000000
_cell_angle_beta 90.000000
_cell_angle_gamma 90.000000
_cell_volume 5899.277545
_symmetry_space_group_name_H-M "I M M M"
_symmetry_group_IT_number 71
_symmetry_cell_setting 'orthorhombic'
loop_
_space_group_symop_operation_xyz
x,y,z
-x,-y,z
x,-y,-z
-x,y,-z
-x,-y,-z
x,y,-z
-x,y,z
x,-y,z
1/2+x,1/2+y,1/2+z
1/2-x,1/2-y,1/2+z
1/2+x,1/2-y,1/2-z
1/2-x,1/2+y,1/2-z
1/2-x,1/2-y,1/2-z
1/2+x,1/2+y,1/2-z
1/2-x,1/2+y,1/2+z
1/2+x,1/2-y,1/2+z
loop_
_atom_site_type_symbol
_atom_site_label
_atom_site_fract_x
_atom_site_fract_y
_atom_site_fract_z
Si Si1 0.403529 0.261179 0.500000
Si Si2 0.596838 0.068900 0.151137
Si Si3 0.907464 0.302925 0.500000
Si Si4 0.597579 0.000000 0.650672
Si Si5 0.403057 0.170065 0.500000
Si Si6 0.333565 0.851076 0.774728
Si Si7 0.599095 0.283062 0.000000
Si Si8 0.694954 0.289523 0.742534
O O1 0.500000 0.263964 0.500000
O O2 0.382697 0.215597 0.500000
O O3 0.365269 0.280690 0.374665
O O4 0.500000 0.079085 0.166813
O O5 0.654410 0.105551 0.175981
O O6 0.617402 0.036926 0.259373
O O7 0.605116 0.056082 0.000000
O O8 0.888708 0.326515 0.372345
O O9 0.868310 0.261310 0.500000
O O10 0.000000 0.293391 0.500000
O O11 0.500000 0.000000 0.641322
O O12 0.627811 0.000000 0.500000
O O13 0.500000 0.165962 0.500000
O O14 0.366330 0.151793 0.370990
O O15 0.250125 0.827164 0.781638
O O16 0.641347 0.297964 0.869862
O O17 0.500000 0.286968 0.000000
O O18 0.750000 0.250000 0.750000
#
# Coordination Sequence:
#
# PCOD9521294 Si02
#       8
#     8  16   8   8   8  16   8  16
#     4  11  22  36  50  66  92 133 176 212 255 306
#     4  10  20  34  51  72  98 132 170 202 240 291
#     4  11  19  31  47  68  93 127 171 213 251 297
#     4   9  19  35  53  73  99 131 164 199 238 289
#     4  11  21  31  43  66  97 129 167 213 257 293
#     4  12  22  31  48  70  98 129 164 216 260 292
#     4  11  22  36  52  66  90 135 180 212 253 310
#     4  12  21  35  49  70  97 128 167 218 265 300
#
# _framework density 14.917081
#
# number of rings (size 3 to 8) (size 9 to 14) (size 15 to 20)
#    0.000    1.000    4.545    4.091    1.273    4.000 
#    0.000    0.000    0.000    0.000    0.000    0.000 
#    0.000    0.000    0.000    4.909    0.000    0.000 
#
# Total GULP energy -245242.810448 kJ/mol
# GULP energy per Si atom -5573.700237 kJ/mol
# Density = 1.488313 g / cm^3
# Si number density = 14.917081 Si / 1000 Ang^3
#
#
#
# Elastic Constant Matrix: (Units=GPa)
#
#
# Indices 1 2 3 4 5 6 
#
# 1 40.9153 19.0333 23.1509 0.0001 -0.0001 0.0000
# 2 19.0333 71.3221 18.1020 0.0001 0.0002 0.0000
# 3 23.1509 18.1020 114.9506 0.0029 -0.0008 -0.0001
# 4 0.0001 0.0001 0.0029 11.7762 0.0001 -0.0001
# 5 -0.0001 0.0002 -0.0008 0.0001 30.3368 -0.0002
# 6 0.0000 0.0000 -0.0001 -0.0001 -0.0002 18.6733
#
#
#
# Elastic Compliance Matrix: (Units=1/GPa)
#
#
# Indices 1 2 3 4 5 6 
#
# 1 0.030493 -0.006853 -0.005062 0.000001 0.000000 0.000000
# 2 -0.006853 0.016145 -0.001162 0.000000 0.000000 0.000000
# 3 -0.005062 -0.001162 0.009902 -0.000002 0.000000 0.000000
# 4 0.000001 0.000000 -0.000002 0.084917 0.000000 0.000000
# 5 0.000000 0.000000 0.000000 0.000000 0.032963 0.000000
# 6 0.000000 0.000000 0.000000 0.000000 0.000000 0.053552
#
#
# Mechanical properties :
#
#
# Convention : Reuss Voigt Hill
#
# Bulk Modulus (GPa) = 32.91064 38.64004 35.77534
# Shear Modulus (GPa) = 18.92113 23.28403 21.10258
#
# Velocity S-wave (km/s) = 3.56535 3.95511 3.76528
# Velocity P-wave (km/s) = 6.24974 6.84227 6.55270
#
# Compressibility (1/GPa) = 0.03038531
#
# Stress axis : x y z
#
# Youngs Moduli (GPa) = 32.79466 61.94021 100.99055
#
# Poissons Ratio (x) = 0.42445 0.51122
# Poissons Ratio (y) = 0.22473 0.11738
# Poissons Ratio (z) = 0.16601 0.07199
#
# Static dielectric constant tensor:
#      x y z
#    x 1.486480 0.000000 0.000000 
#    y 0.000000 1.507230 0.000000 
#    z 0.000000 0.000000 1.518350 
# 
# From -- ./inp_files/8959.got.cif
#   From: 2010.05.17/outbox.cif.g08.bks.cpg/sg71_5_cif.got.tgz:8959.got - 2010.06.03 16:22:01.
