data_PCOD9521874
_publ_section_title
;
Structure prediction by ZEFSAII (Michael W. Deem and Ramdas Pophale) SiO2 
 PCOD9521874
Probable space group: I M M M
;
_chemical_formula_sum "Si O2"
_cell_formula_units_Z 104
_cell_length_a 8.778130
_cell_length_b 25.545565
_cell_length_c 20.988653
_cell_angle_alpha 90.000000
_cell_angle_beta 90.000000
_cell_angle_gamma 90.000000
_cell_volume 4706.543623
_symmetry_space_group_name_H-M "I M M M"
_symmetry_group_IT_number 71
_symmetry_cell_setting 'orthorhombic'
loop_
_space_group_symop_operation_xyz
x,y,z
-x,-y,z
x,-y,-z
-x,y,-z
-x,-y,-z
x,y,-z
-x,y,z
x,-y,z
1/2+x,1/2+y,1/2+z
1/2-x,1/2-y,1/2+z
1/2+x,1/2-y,1/2-z
1/2-x,1/2+y,1/2-z
1/2-x,1/2-y,1/2-z
1/2+x,1/2+y,1/2-z
1/2-x,1/2+y,1/2+z
1/2+x,1/2-y,1/2+z
loop_
_atom_site_type_symbol
_atom_site_label
_atom_site_fract_x
_atom_site_fract_y
_atom_site_fract_z
Si Si1 0.677488 0.587783 0.755998
Si Si2 0.174554 0.935794 0.000000
Si Si3 0.670004 0.335187 0.924088
Si Si4 0.317723 0.275523 0.573187
Si Si5 0.669831 0.937692 0.872168
Si Si6 0.820544 0.557195 0.880837
Si Si7 0.817428 0.201122 0.787475
O O1 0.500000 0.579393 0.771803
O O2 0.713632 0.570012 0.684900
O O3 0.784662 0.558934 0.805719
O O4 0.714333 0.649326 0.753515
O O5 0.261157 0.916728 0.937599
O O6 0.000000 0.918222 0.000000
O O7 0.172588 0.000000 0.000000
O O8 0.500000 0.327668 0.896369
O O9 0.775046 0.285021 0.910957
O O10 0.735592 0.391436 0.905361
O O11 0.657555 0.335970 0.000000
O O12 0.260612 0.286887 0.500000
O O13 0.500000 0.281593 0.570122
O O14 0.263557 0.304259 0.638402
O O15 0.500000 0.917249 0.857941
O O16 0.656261 0.000000 0.881248
O O17 0.769859 0.500000 0.905733
O O18 0.000000 0.562008 0.893090
O O19 0.750000 0.250000 0.750000
O O20 0.000000 0.206495 0.790629
#
# Coordination Sequence:
#
# PCOD9521874 Si02
#       7
#    16   8  16  16  16  16  16
#     4  11  23  38  56  83 114 146 188 236 289 341
#     4   9  17  31  53  79 105 139 183 227 273 323
#     4  10  21  37  59  88 119 149 184 229 283 342
#     4   9  18  36  61  85 113 151 193 235 283 342
#     4  10  20  35  55  79 110 147 187 230 277 333
#     4  11  24  40  58  82 113 151 195 239 284 339
#     4  10  22  38  57  84 113 146 189 235 288 343
#
# _framework density 22.096895
#
# number of rings (size 3 to 8) (size 9 to 14) (size 15 to 20)
#    0.000    1.923    0.000    3.462    0.000   10.462 
#    1.385    1.538    0.000    0.000    0.000    0.000 
#    0.000    0.000    0.000    0.000    0.000    0.000 
#
# Total GULP energy -290388.714514 kJ/mol
# GULP energy per Si atom -5584.398356 kJ/mol
# Density = 2.204660 g / cm^3
# Si number density = 22.096895 Si / 1000 Ang^3
#
#
#
# Elastic Constant Matrix: (Units=GPa)
#
#
# Indices 1 2 3 4 5 6 
#
# 1 24.2243 10.0170 -7.8709 0.0000 0.0000 0.0000
# 2 10.0170 51.8749 -0.6921 0.0000 0.0000 0.0000
# 3 -7.8709 -0.6921 40.5261 0.0000 0.0000 0.0000
# 4 0.0000 0.0000 0.0000 -3.4778 0.0000 0.0000
# 5 0.0000 0.0000 0.0000 0.0000 27.6961 0.0000
# 6 0.0000 0.0000 0.0000 0.0000 0.0000 16.0227
#
#
#
# Elastic Compliance Matrix: (Units=1/GPa)
#
#
# Indices 1 2 3 4 5 6 
#
# 1 0.048048 -0.009156 0.009175 0.000000 0.000000 0.000000
# 2 -0.009156 0.021026 -0.001419 0.000000 0.000000 0.000000
# 3 0.009175 -0.001419 0.026433 0.000000 0.000000 0.000000
# 4 0.000000 0.000000 0.000000 -0.287541 0.000000 0.000000
# 5 0.000000 0.000000 0.000000 0.000000 0.036106 0.000000
# 6 0.000000 0.000000 0.000000 0.000000 0.000000 0.062411
#
#
# Mechanical properties :
#
#
# Convention : Reuss Voigt Hill
#
# Bulk Modulus (GPa) = 10.78646 13.28149 12.03397
# Shear Modulus (GPa) = -83.59252 15.72629 -33.93312
#
# Velocity S-wave (km/s) = -6.15728 2.67066 -3.92299
# Velocity P-wave (km/s) = 6.75703 3.94126 3.88098
#
# Compressibility (1/GPa) = 0.09270882
#
# Stress axis : x y z
#
# Youngs Moduli (GPa) = 20.81250 47.55976 37.83112
#
# Poissons Ratio (x) = 0.43544 -0.34712
# Poissons Ratio (y) = 0.19055 0.05369
# Poissons Ratio (z) = -0.19096 0.06749
#
# Static dielectric constant tensor:
#      x y z
#    x 1.789300 0.000000 0.000000 
#    y 0.000000 1.864220 0.000000 
#    z 0.000000 0.000000 1.848950 
# 
# From -- ./inp_files/11091.got.cif
#   From: 2010.05.17/outbox.cif.g08.bks.cpg/sg71_6_cif.got.tgz:11091.got - 2010.06.03 16:22:01.
