data_PCOD9521317
_publ_section_title
;
Structure prediction by ZEFSAII (Michael W. Deem and Ramdas Pophale) SiO2 
 PCOD9521317
Probable space group: I M M M
;
_chemical_formula_sum "Si O2"
_cell_formula_units_Z 96
_cell_length_a 10.589192
_cell_length_b 24.574523
_cell_length_c 22.173337
_cell_angle_alpha 90.000000
_cell_angle_beta 90.000000
_cell_angle_gamma 90.000000
_cell_volume 5770.042039
_symmetry_space_group_name_H-M "I M M M"
_symmetry_group_IT_number 71
_symmetry_cell_setting 'orthorhombic'
loop_
_space_group_symop_operation_xyz
x,y,z
-x,-y,z
x,-y,-z
-x,y,-z
-x,-y,-z
x,y,-z
-x,y,z
x,-y,z
1/2+x,1/2+y,1/2+z
1/2-x,1/2-y,1/2+z
1/2+x,1/2-y,1/2-z
1/2-x,1/2+y,1/2-z
1/2-x,1/2-y,1/2-z
1/2+x,1/2+y,1/2-z
1/2-x,1/2+y,1/2+z
1/2+x,1/2-y,1/2+z
loop_
_atom_site_type_symbol
_atom_site_label
_atom_site_fract_x
_atom_site_fract_y
_atom_site_fract_z
Si Si1 0.154228 0.062787 0.000000
Si Si2 0.152907 0.130396 0.116561
Si Si3 0.352812 0.249893 0.572809
Si Si4 0.238641 0.936287 0.633889
Si Si5 0.349367 0.436990 0.731963
Si Si6 0.361935 0.665019 0.928157
Si Si7 0.000000 0.565471 0.068559
O O1 0.196549 0.094418 0.940181
O O2 0.000000 0.063694 0.000000
O O3 0.192935 0.000000 0.000000
O O4 0.182394 0.193309 0.104567
O O5 0.193175 0.103714 0.179475
O O6 0.000000 0.127141 0.116468
O O7 0.344956 0.257852 0.500000
O O8 0.500000 0.236610 0.586049
O O9 0.253895 0.203460 0.590538
O O10 0.225178 0.930260 0.705679
O O11 0.146984 0.893388 0.602935
O O12 0.374901 0.921577 0.605994
O O13 0.212406 0.000000 0.620055
O O14 0.500000 0.428923 0.743796
O O15 0.335814 0.500000 0.711704
O O16 0.500000 0.689695 0.915494
O O17 0.351037 0.657417 0.000000
O O18 0.000000 0.500000 0.062765
O O19 0.000000 0.588571 0.000000
#
# Coordination Sequence:
#
# PCOD9521317 Si02
#       7
#     8  16  16  16  16  16   8
#     4   9  14  20  38  72 109 133 158 211 266 302
#     4   9  15  26  45  71 102 134 172 210 253 304
#     4   9  17  31  51  73 100 136 174 215 260 304
#     4  10  20  34  52  73 101 132 163 204 256 312
#     4   9  17  29  47  72 103 139 171 201 250 313
#     4  10  21  34  50  74 102 130 167 213 258 310
#     4   9  18  32  52  76  98 123 161 207 253 302
#
# _framework density 16.63766
#
# number of rings (size 3 to 8) (size 9 to 14) (size 15 to 20)
#    0.000    2.667    0.833    1.500    1.167    4.000 
#    0.000    1.667    1.833    0.000    0.000    0.000 
#    0.000    0.667    0.000    0.000    0.000    0.000 
#
# Total GULP energy -267383.966277 kJ/mol
# GULP energy per Si atom -5570.499297 kJ/mol
# Density = 1.659979 g / cm^3
# Si number density = 16.637660 Si / 1000 Ang^3
#
#
#
# Elastic Constant Matrix: (Units=GPa)
#
#
# Indices 1 2 3 4 5 6 
#
# 1 64.2588 51.2752 44.8063 0.0000 0.0000 0.0000
# 2 51.2752 105.4623 53.6451 0.0000 0.0000 0.0000
# 3 44.8063 53.6451 78.2009 0.0000 0.0000 0.0000
# 4 0.0000 0.0000 0.0000 24.1094 0.0000 0.0000
# 5 0.0000 0.0000 0.0000 0.0000 15.0960 0.0000
# 6 0.0000 0.0000 0.0000 0.0000 0.0000 13.0585
#
#
#
# Elastic Compliance Matrix: (Units=1/GPa)
#
#
# Indices 1 2 3 4 5 6 
#
# 1 0.030823 -0.009220 -0.011336 0.000000 0.000000 0.000000
# 2 -0.009220 0.017322 -0.006600 0.000000 0.000000 0.000000
# 3 -0.011336 -0.006600 0.023810 0.000000 0.000000 0.000000
# 4 0.000000 0.000000 0.000000 0.041478 0.000000 0.000000
# 5 0.000000 0.000000 0.000000 0.000000 0.066243 0.000000
# 6 0.000000 0.000000 0.000000 0.000000 0.000000 0.076578
#
#
# Mechanical properties :
#
#
# Convention : Reuss Voigt Hill
#
# Bulk Modulus (GPa) = 56.67706 60.81945 58.74825
# Shear Modulus (GPa) = 15.80041 16.99913 16.39977
#
# Velocity S-wave (km/s) = 3.08503 3.19991 3.14299
# Velocity P-wave (km/s) = 6.84320 7.09135 6.96838
#
# Compressibility (1/GPa) = 0.01764382
#
# Stress axis : x y z
#
# Youngs Moduli (GPa) = 32.44286 57.73018 41.99885
#
# Poissons Ratio (x) = 0.53227 0.47609
# Poissons Ratio (y) = 0.29912 0.27719
# Poissons Ratio (z) = 0.36777 0.38102
#
# Static dielectric constant tensor:
#      x y z
#    x 1.571800 0.000000 0.000000 
#    y 0.000000 1.564830 0.000000 
#    z 0.000000 0.000000 1.551660 
# 
# From -- ./inp_files/26183.got.cif
#   From: 2010.05.17/outbox.cif.g08.bks.cpg/sg71_14_cif.got.tgz:26183.got - 2010.06.03 16:22:01.
