data_PCOD9521732
_publ_section_title
;
Structure prediction by ZEFSAII (Michael W. Deem and Ramdas Pophale) SiO2 
 PCOD9521732
Probable space group: I M M M
;
_chemical_formula_sum "Si O2"
_cell_formula_units_Z 88
_cell_length_a 20.771919
_cell_length_b 12.148403
_cell_length_c 20.009812
_cell_angle_alpha 90.000000
_cell_angle_beta 90.000000
_cell_angle_gamma 90.000000
_cell_volume 5049.388877
_symmetry_space_group_name_H-M "I M M M"
_symmetry_group_IT_number 71
_symmetry_cell_setting 'orthorhombic'
loop_
_space_group_symop_operation_xyz
x,y,z
-x,-y,z
x,-y,-z
-x,y,-z
-x,-y,-z
x,y,-z
-x,y,z
x,-y,z
1/2+x,1/2+y,1/2+z
1/2-x,1/2-y,1/2+z
1/2+x,1/2-y,1/2-z
1/2-x,1/2+y,1/2-z
1/2-x,1/2-y,1/2-z
1/2+x,1/2+y,1/2-z
1/2-x,1/2+y,1/2+z
1/2+x,1/2-y,1/2+z
loop_
_atom_site_type_symbol
_atom_site_label
_atom_site_fract_x
_atom_site_fract_y
_atom_site_fract_z
Si Si1 0.077689 0.500000 0.424342
Si Si2 0.426334 0.788563 0.671979
Si Si3 0.574643 0.800790 0.172591
Si Si4 0.696849 0.370062 0.318569
Si Si5 0.094643 0.500000 0.922262
Si Si6 0.751934 0.500000 0.074373
Si Si7 0.299450 0.690776 0.835951
O O1 0.103663 0.500000 0.500000
O O2 0.093355 0.603874 0.378605
O O3 0.000000 0.500000 0.429606
O O4 0.500000 0.743128 0.668608
O O5 0.417269 0.831452 0.748740
O O6 0.368651 0.698931 0.662820
O O7 0.423169 0.890246 0.619993
O O8 0.500000 0.773019 0.163266
O O9 0.624540 0.705566 0.157220
O O10 0.693284 0.500000 0.335507
O O11 0.707845 0.356236 0.238942
O O12 0.759001 0.303577 0.345457
O O13 0.171389 0.500000 0.925753
O O14 0.071740 0.500000 0.000000
O O15 0.728607 0.606032 0.112780
O O16 0.726574 0.500000 0.000000
#
# Coordination Sequence:
#
# PCOD9521732 Si02
#       7
#     8  16  16  16   8   8  16
#     4   9  17  30  48  72 106 142 176 218 269 320
#     4  10  20  35  56  84 114 145 185 234 286 337
#     4   9  19  33  52  81 111 143 183 233 277 325
#     4  10  20  34  57  84 110 140 184 230 280 339
#     4  11  22  37  58  84 117 152 194 244 289 343
#     4  11  22  38  58  82 116 151 190 237 283 332
#     4  10  20  35  57  80 108 146 185 225 278 334
#
# _framework density 17.427851
#
# number of rings (size 3 to 8) (size 9 to 14) (size 15 to 20)
#    0.000    2.091    2.727    0.818    1.273    3.273 
#    0.000    0.455    0.000    2.182    0.000    1.273 
#    0.000    0.000    0.000    0.000    0.000    0.000 
#
# Total GULP energy -244980.009986 kJ/mol
# GULP energy per Si atom -5567.727500 kJ/mol
# Density = 1.738818 g / cm^3
# Si number density = 17.427851 Si / 1000 Ang^3
#
#
#
# Elastic Constant Matrix: (Units=GPa)
#
#
# Indices 1 2 3 4 5 6 
#
# 1 100.4386 48.5535 48.1663 0.0000 0.0000 0.0000
# 2 48.5535 106.7533 40.2995 0.0000 0.0000 0.0000
# 3 48.1663 40.2995 62.1960 0.0000 0.0000 0.0000
# 4 0.0000 0.0000 0.0000 -101.5413 0.0000 0.0000
# 5 0.0000 0.0000 0.0000 0.0000 15.4522 0.0000
# 6 0.0000 0.0000 0.0000 0.0000 0.0000 14.6233
#
#
#
# Elastic Compliance Matrix: (Units=1/GPa)
#
#
# Indices 1 2 3 4 5 6 
#
# 1 0.016833 -0.003620 -0.010690 0.000000 0.000000 0.000000
# 2 -0.003620 0.013179 -0.005736 0.000000 0.000000 0.000000
# 3 -0.010690 -0.005736 0.028073 0.000000 0.000000 0.000000
# 4 0.000000 0.000000 0.000000 -0.009848 0.000000 0.000000
# 5 0.000000 0.000000 0.000000 0.000000 0.064716 0.000000
# 6 0.000000 0.000000 0.000000 0.000000 0.000000 0.068384
#
#
# Mechanical properties :
#
#
# Convention : Reuss Voigt Hill
#
# Bulk Modulus (GPa) = 55.57663 60.38072 57.97867
# Shear Modulus (GPa) = 21.98503 -5.46859 8.25822
#
# Velocity S-wave (km/s) = 3.55560 -1.77332 2.17918
# Velocity P-wave (km/s) = 6.98678 5.52526 6.29855
#
# Compressibility (1/GPa) = 0.01799318
#
# Stress axis : x y z
#
# Youngs Moduli (GPa) = 59.40692 75.87678 35.62100
#
# Poissons Ratio (x) = 0.27471 0.38079
# Poissons Ratio (y) = 0.21508 0.20431
# Poissons Ratio (z) = 0.63507 0.43520
#
# Static dielectric constant tensor:
#      x y z
#    x 1.610140 0.000000 0.000000 
#    y 0.000000 1.588870 0.000000 
#    z 0.000000 0.000000 1.600000 
# 
# From -- ./inp_files/47126.got.cif
#   From: 2010.05.17/outbox.cif.g08.bks.cpg/sg71_24_cif.got.tgz:47126.got - 2010.06.03 16:22:01.
