data_PCOD9521887
_publ_section_title
;
Structure prediction by ZEFSAII (Michael W. Deem and Ramdas Pophale) SiO2 
 PCOD9521887
Probable space group: I M M M
;
_chemical_formula_sum "Si O2"
_cell_formula_units_Z 112
_cell_length_a 27.193771
_cell_length_b 13.905400
_cell_length_c 14.316582
_cell_angle_alpha 90.000000
_cell_angle_beta 90.000000
_cell_angle_gamma 90.000000
_cell_volume 5413.676087
_symmetry_space_group_name_H-M "I M M M"
_symmetry_group_IT_number 71
_symmetry_cell_setting 'orthorhombic'
loop_
_space_group_symop_operation_xyz
x,y,z
-x,-y,z
x,-y,-z
-x,y,-z
-x,-y,-z
x,y,-z
-x,y,z
x,-y,z
1/2+x,1/2+y,1/2+z
1/2-x,1/2-y,1/2+z
1/2+x,1/2-y,1/2-z
1/2-x,1/2+y,1/2-z
1/2-x,1/2-y,1/2-z
1/2+x,1/2+y,1/2-z
1/2-x,1/2+y,1/2+z
1/2+x,1/2-y,1/2+z
loop_
_atom_site_type_symbol
_atom_site_label
_atom_site_fract_x
_atom_site_fract_y
_atom_site_fract_z
Si Si1 0.223943 0.787126 0.893192
Si Si2 0.057132 0.883855 0.290599
Si Si3 0.892530 0.806380 0.898350
Si Si4 0.212468 0.385861 0.760841
Si Si5 0.443764 0.117371 0.000000
Si Si6 0.391841 0.111112 0.183476
Si Si7 0.059577 0.886851 0.500000
Si Si8 0.556892 0.891374 0.369189
O O1 0.166174 0.812127 0.893137
O O2 0.228695 0.681263 0.846823
O O3 0.252791 0.860414 0.826445
O O4 0.241611 0.789219 0.000000
O O5 0.084707 0.846649 0.197926
O O6 0.075520 0.854635 0.395069
O O7 0.000000 0.853170 0.283011
O O8 0.058387 0.000000 0.288236
O O9 0.909899 0.695273 0.903480
O O10 0.907942 0.850118 0.000000
O O11 0.211948 0.500000 0.781541
O O12 0.157807 0.350586 0.729863
O O13 0.413259 0.150109 0.088860
O O14 0.500000 0.151430 0.000000
O O15 0.446070 0.000000 0.000000
O O16 0.435614 0.112634 0.257979
O O17 0.379025 0.000000 0.164411
O O18 0.000000 0.878320 0.500000
O O19 0.071206 0.000000 0.500000
O O20 0.500000 0.878166 0.393680
O O21 0.572094 0.000000 0.396390
#
# Coordination Sequence:
#
# PCOD9521887 Si02
#       8
#    16  16  16  16   8  16   8  16
#     4  10  23  41  63  92 122 156 203 256 309 374
#     4   9  18  34  58  85 115 156 206 257 309 369
#     4  11  23  38  56  84 123 165 205 251 308 363
#     4  10  21  40  66  92 119 156 204 257 314 371
#     4   9  16  26  45  79 121 157 191 239 297 357
#     4   9  17  31  53  81 111 149 197 243 295 359
#     4   7  12  28  55  83 106 138 193 253 303 354
#     4  10  20  35  55  80 116 162 209 253 294 346
#
# _framework density 20.688345999999999
#
# number of rings (size 3 to 8) (size 9 to 14) (size 15 to 20)
#    0.000    2.429    1.429    1.714    1.000    4.571 
#    0.000    5.000    6.286    0.857    0.000    0.000 
#    0.000    0.000    0.000    0.000    0.000    5.571 
#
# Total GULP energy -312177.263090 kJ/mol
# GULP energy per Si atom -5574.593984 kJ/mol
# Density = 2.064126 g / cm^3
# Si number density = 20.688346 Si / 1000 Ang^3
#
#
#
# Elastic Constant Matrix: (Units=GPa)
#
#
# Indices 1 2 3 4 5 6 
#
# 1 51.9462 8.1683 16.6756 0.0000 0.0000 0.0000
# 2 8.1683 60.8663 18.3920 0.0000 0.0000 0.0000
# 3 16.6756 18.3920 186.9458 0.0000 0.0000 0.0000
# 4 0.0000 0.0000 0.0000 18.4225 0.0000 0.0000
# 5 0.0000 0.0000 0.0000 0.0000 -489.3125 0.0000
# 6 0.0000 0.0000 0.0000 0.0000 0.0000 18.0294
#
#
#
# Elastic Compliance Matrix: (Units=1/GPa)
#
#
# Indices 1 2 3 4 5 6 
#
# 1 0.020106 -0.002222 -0.001575 0.000000 0.000000 0.000000
# 2 -0.002222 0.017178 -0.001492 0.000000 0.000000 0.000000
# 3 -0.001575 -0.001492 0.005636 0.000000 0.000000 0.000000
# 4 0.000000 0.000000 0.000000 0.054282 0.000000 0.000000
# 5 0.000000 0.000000 0.000000 0.000000 -0.002044 0.000000
# 6 0.000000 0.000000 0.000000 0.000000 0.000000 0.055465
#
#
# Mechanical properties :
#
#
# Convention : Reuss Voigt Hill
#
# Bulk Modulus (GPa) = 30.91894 42.91446 36.91670
# Shear Modulus (GPa) = 29.07277 -73.47064 -22.19894
#
# Velocity S-wave (km/s) = 3.75276 -5.96575 -3.27925
# Velocity P-wave (km/s) = 5.80992 5.16384 1.88281
#
# Compressibility (1/GPa) = 0.03234264
#
# Stress axis : x y z
#
# Youngs Moduli (GPa) = 49.73722 58.21236 177.41878
#
# Poissons Ratio (x) = 0.12937 0.27940
# Poissons Ratio (y) = 0.11053 0.26468
# Poissons Ratio (z) = 0.07833 0.08684
#
# Static dielectric constant tensor:
#      x y z
#    x 1.728540 0.000000 0.000000 
#    y 0.000000 1.764290 0.000000 
#    z 0.000000 0.000000 1.782030 
# 
# From -- ./inp_files/40398.got.cif
#   From: 2010.05.17/outbox.cif.g08.bks.cpg/sg71_21_cif.got.tgz:40398.got - 2010.06.03 16:22:01.
