data_PCOD9521633
_publ_section_title
;
Structure prediction by ZEFSAII (Michael W. Deem and Ramdas Pophale) SiO2 
 PCOD9521633
Probable space group: I M M M
;
_chemical_formula_sum "Si O2"
_cell_formula_units_Z 96
_cell_length_a 14.309487
_cell_length_b 24.969702
_cell_length_c 14.871233
_cell_angle_alpha 90.000000
_cell_angle_beta 90.000000
_cell_angle_gamma 90.000000
_cell_volume 5313.545476
_symmetry_space_group_name_H-M "I M M M"
_symmetry_group_IT_number 71
_symmetry_cell_setting 'orthorhombic'
loop_
_space_group_symop_operation_xyz
x,y,z
-x,-y,z
x,-y,-z
-x,y,-z
-x,-y,-z
x,y,-z
-x,y,z
x,-y,z
1/2+x,1/2+y,1/2+z
1/2-x,1/2-y,1/2+z
1/2+x,1/2-y,1/2-z
1/2-x,1/2+y,1/2-z
1/2-x,1/2-y,1/2-z
1/2+x,1/2+y,1/2-z
1/2-x,1/2+y,1/2+z
1/2+x,1/2-y,1/2+z
loop_
_atom_site_type_symbol
_atom_site_label
_atom_site_fract_x
_atom_site_fract_y
_atom_site_fract_z
Si Si1 0.605827 0.062066 0.859193
Si Si2 0.247509 0.654825 0.398580
Si Si3 0.891680 0.246794 0.395176
Si Si4 0.601176 0.936971 0.358005
Si Si5 0.807542 0.935722 0.399446
Si Si6 0.890787 0.146574 0.736034
O O1 0.500000 0.075614 0.888355
O O2 0.682470 0.102246 0.895255
O O3 0.606863 0.065908 0.750288
O O4 0.623438 0.000000 0.882348
O O5 0.284391 0.661465 0.500000
O O6 0.178898 0.704671 0.378347
O O7 0.326673 0.650409 0.323651
O O8 0.881682 0.230365 0.500000
O O9 0.873809 0.197569 0.328836
O O10 0.000000 0.264117 0.383029
O O11 0.500000 0.913747 0.385550
O O12 0.699232 0.916302 0.394911
O O13 0.598686 0.000000 0.382318
O O14 0.844174 0.925361 0.500000
O O15 0.863433 0.905116 0.322958
O O16 0.807884 0.000000 0.384913
O O17 0.000000 0.145384 0.759013
#
# Coordination Sequence:
#
# PCOD9521633 Si02
#       6
#    16  16  16  16  16  16
#     4   9  17  31  53  81 112 143 174 213 266 325
#     4  11  22  36  57  82 109 142 180 221 265 320
#     4   9  19  37  61  87 109 131 167 217 274 330
#     4   8  14  27  48  74 107 143 172 204 256 323
#     4  10  20  34  55  82 109 141 184 229 274 323
#     4  11  23  39  57  76 106 146 185 228 271 311
#
# _framework density 18.067032999999999
#
# number of rings (size 3 to 8) (size 9 to 14) (size 15 to 20)
#    0.000    2.333    1.667    2.500    0.000    3.333 
#    0.000    3.333    0.000    0.000    0.000    4.667 
#    0.000    0.000    0.000    0.000    0.000    0.000 
#
# Total GULP energy -267792.058689 kJ/mol
# GULP energy per Si atom -5579.001223 kJ/mol
# Density = 1.802591 g / cm^3
# Si number density = 18.067033 Si / 1000 Ang^3
#
#
#
# Elastic Constant Matrix: (Units=GPa)
#
#
# Indices 1 2 3 4 5 6 
#
# 1 107.3317 56.8572 74.0084 0.0000 -0.0001 0.0000
# 2 56.8572 67.3005 51.9506 0.0001 0.0002 0.0000
# 3 74.0084 51.9506 118.4016 0.0002 0.0002 0.0000
# 4 0.0000 0.0001 0.0002 16.0640 0.0002 0.0000
# 5 -0.0001 0.0002 0.0002 0.0002 37.1968 0.0000
# 6 0.0000 0.0000 0.0000 0.0000 0.0000 21.9298
#
#
#
# Elastic Compliance Matrix: (Units=1/GPa)
#
#
# Indices 1 2 3 4 5 6 
#
# 1 0.020959 -0.011484 -0.008062 0.000000 0.000000 0.000000
# 2 -0.011484 0.028760 -0.005441 0.000000 0.000000 0.000000
# 3 -0.008062 -0.005441 0.015873 0.000000 0.000000 0.000000
# 4 0.000000 0.000000 0.000000 0.062251 0.000000 0.000000
# 5 0.000000 0.000000 0.000000 0.000000 0.026884 0.000000
# 6 0.000000 0.000000 0.000000 0.000000 0.000000 0.045600
#
#
# Mechanical properties :
#
#
# Convention : Reuss Voigt Hill
#
# Bulk Modulus (GPa) = 64.02694 73.18513 68.60604
# Shear Modulus (GPa) = 19.56889 22.38597 20.97743
#
# Velocity S-wave (km/s) = 3.29466 3.52383 3.41117
# Velocity P-wave (km/s) = 7.07026 7.55990 7.31917
#
# Compressibility (1/GPa) = 0.01561843
#
# Stress axis : x y z
#
# Youngs Moduli (GPa) = 47.71144 34.76992 63.00132
#
# Poissons Ratio (x) = 0.39928 0.50794
# Poissons Ratio (y) = 0.54790 0.34280
# Poissons Ratio (z) = 0.38466 0.18919
#
# Static dielectric constant tensor:
#      x y z
#    x 1.620200 0.000000 0.000000 
#    y 0.000000 1.601700 0.000000 
#    z 0.000000 0.000000 1.635340 
# 
# From -- ./inp_files/34535.got.cif
#   From: 2010.05.17/outbox.cif.g08.bks.cpg/sg71_18_cif.got.tgz:34535.got - 2010.06.03 16:22:01.
