data_PCOD9521592
_publ_section_title
;
Structure prediction by ZEFSAII (Michael W. Deem and Ramdas Pophale) SiO2 
 PCOD9521592
Probable space group: I M M M
;
_chemical_formula_sum "Si O2"
_cell_formula_units_Z 66
_cell_length_a 7.695842
_cell_length_b 26.332697
_cell_length_c 18.625802
_cell_angle_alpha 90.000000
_cell_angle_beta 90.000000
_cell_angle_gamma 90.000000
_cell_volume 3774.561159
_symmetry_space_group_name_H-M "I M M M"
_symmetry_group_IT_number 71
_symmetry_cell_setting 'orthorhombic'
loop_
_space_group_symop_operation_xyz
x,y,z
-x,-y,z
x,-y,-z
-x,y,-z
-x,-y,-z
x,y,-z
-x,y,z
x,-y,z
1/2+x,1/2+y,1/2+z
1/2-x,1/2-y,1/2+z
1/2+x,1/2-y,1/2-z
1/2-x,1/2+y,1/2-z
1/2-x,1/2-y,1/2-z
1/2+x,1/2+y,1/2-z
1/2-x,1/2+y,1/2+z
1/2+x,1/2-y,1/2+z
loop_
_atom_site_type_symbol
_atom_site_label
_atom_site_fract_x
_atom_site_fract_y
_atom_site_fract_z
Si Si1 0.000000 0.500000 0.500000
Si Si2 0.303256 0.635345 0.192095
Si Si3 0.500000 0.059369 0.285812
Si Si4 0.289900 0.222742 0.582798
Si Si5 0.294559 0.332710 0.644899
Si Si6 0.000000 0.410938 0.618380
O O1 0.000000 0.544346 0.562173
O O2 0.500000 0.616063 0.193284
O O3 0.280993 0.676952 0.130364
O O4 0.270930 0.662650 0.269081
O O5 0.167130 0.589834 0.185573
O O6 0.500000 0.066973 0.199456
O O7 0.500000 0.000000 0.303058
O O8 0.234420 0.220203 0.500000
O O9 0.500000 0.219530 0.584905
O O10 0.243604 0.277220 0.616708
O O11 0.500000 0.340758 0.629184
O O12 0.170022 0.375251 0.611524
#
# Coordination Sequence:
#
# PCOD9521592 Si02
#       6
#     2  16   8  16  16   8
#     4  12  24  40  58  88 124 158 210 236 272 336
#     4  10  20  35  58  84 111 146 193 234 284 340
#     4  10  20  40  61  80 110 152 192 243 281 323
#     4  10  20  34  54  83 119 153 181 228 291 353
#     4   9  20  37  57  82 114 151 195 232 280 341
#     4  10  22  38  58  83 116 154 197 240 277 324
#
# _framework density 17.485475999999998
#
# number of rings (size 3 to 8) (size 9 to 14) (size 15 to 20)
#    0.000    2.182    1.818    0.727    3.394    0.970 
#    0.000    1.212    0.000    1.455    0.000    1.697 
#    0.000    0.000    0.000    0.000    0.000    0.000 
#
# Total GULP energy -183950.245465 kJ/mol
# GULP energy per Si atom -5574.249863 kJ/mol
# Density = 1.744568 g / cm^3
# Si number density = 17.485476 Si / 1000 Ang^3
#
#
#
# Elastic Constant Matrix: (Units=GPa)
#
#
# Indices 1 2 3 4 5 6 
#
# 1 85.7050 76.5161 51.8298 0.0000 0.0000 0.0000
# 2 76.5161 169.6883 77.3883 0.0000 0.0000 0.0000
# 3 51.8298 77.3883 79.4525 0.0000 0.0000 0.0000
# 4 0.0000 0.0000 0.0000 30.9768 0.0000 0.0000
# 5 0.0000 0.0000 0.0000 0.0000 7.9560 0.0000
# 6 0.0000 0.0000 0.0000 0.0000 0.0000 3.8984
#
#
#
# Elastic Compliance Matrix: (Units=1/GPa)
#
#
# Indices 1 2 3 4 5 6 
#
# 1 0.022367 -0.006174 -0.008577 0.000000 0.000000 0.000000
# 2 -0.006174 0.012308 -0.007960 0.000000 0.000000 0.000000
# 3 -0.008577 -0.007960 0.025935 0.000000 0.000000 0.000000
# 4 0.000000 0.000000 0.000000 0.032282 0.000000 0.000000
# 5 0.000000 0.000000 0.000000 0.000000 0.125691 0.000000
# 6 0.000000 0.000000 0.000000 0.000000 0.000000 0.256512
#
#
# Mechanical properties :
#
#
# Convention : Reuss Voigt Hill
#
# Bulk Modulus (GPa) = 65.84834 82.92380 74.38607
# Shear Modulus (GPa) = 9.51329 17.17368 13.34349
#
# Velocity S-wave (km/s) = 2.33506 3.13736 2.76546
# Velocity P-wave (km/s) = 6.70900 7.78790 7.26849
#
# Compressibility (1/GPa) = 0.01518641
#
# Stress axis : x y z
#
# Youngs Moduli (GPa) = 44.70857 81.25123 38.55834
#
# Poissons Ratio (x) = 0.50165 0.33072
# Poissons Ratio (y) = 0.27603 0.30693
# Poissons Ratio (z) = 0.38347 0.64677
#
# Static dielectric constant tensor:
#      x y z
#    x 1.619970 0.000000 0.000000 
#    y 0.000000 1.541830 0.000000 
#    z 0.000000 0.000000 1.582150 
# 
# From -- ./inp_files/41949.got.cif
#   From: 2010.05.17/outbox.cif.g08.bks.cpg/sg71_21_cif.got.tgz:41949.got - 2010.06.03 16:22:01.
