data_PCOD9521920
_publ_section_title
;
Structure prediction by ZEFSAII (Michael W. Deem and Ramdas Pophale) SiO2 
 PCOD9521920
Probable space group: I M M M
;
_chemical_formula_sum "Si O2"
_cell_formula_units_Z 88
_cell_length_a 7.367254
_cell_length_b 19.608261
_cell_length_c 24.627807
_cell_angle_alpha 90.000000
_cell_angle_beta 90.000000
_cell_angle_gamma 90.000000
_cell_volume 3557.709339
_symmetry_space_group_name_H-M "I M M M"
_symmetry_group_IT_number 71
_symmetry_cell_setting 'orthorhombic'
loop_
_space_group_symop_operation_xyz
x,y,z
-x,-y,z
x,-y,-z
-x,y,-z
-x,-y,-z
x,y,-z
-x,y,z
x,-y,z
1/2+x,1/2+y,1/2+z
1/2-x,1/2-y,1/2+z
1/2+x,1/2-y,1/2-z
1/2-x,1/2+y,1/2-z
1/2-x,1/2-y,1/2-z
1/2+x,1/2+y,1/2-z
1/2-x,1/2+y,1/2+z
1/2+x,1/2-y,1/2+z
loop_
_atom_site_type_symbol
_atom_site_label
_atom_site_fract_x
_atom_site_fract_y
_atom_site_fract_z
Si Si1 0.219846 0.649947 0.937771
Si Si2 0.720592 0.920203 0.059200
Si Si3 0.288062 0.573707 0.783059
Si Si4 0.788769 0.500000 0.066002
Si Si5 0.789942 0.786910 0.329218
Si Si6 0.720067 0.862047 0.172834
O O1 0.286010 0.574272 0.918895
O O2 0.281425 0.705198 0.894397
O O3 0.000000 0.648006 0.937831
O O4 0.277312 0.661495 0.000000
O O5 0.500000 0.917801 0.059501
O O6 0.782956 0.881693 0.112760
O O7 0.770145 0.000000 0.063084
O O8 0.780236 0.894131 0.000000
O O9 0.500000 0.572301 0.798247
O O10 0.210306 0.500000 0.798762
O O11 0.205431 0.643157 0.807022
O O12 0.276042 0.584428 0.718401
O O13 0.000000 0.500000 0.081452
O O14 0.782394 0.500000 0.000000
O O15 0.713749 0.713971 0.312394
O O16 0.000000 0.786821 0.312378
O O17 0.500000 0.860741 0.172172
#
# Coordination Sequence:
#
# PCOD9521920 Si02
#       6
#    16  16  16   8  16  16
#     4   9  18  33  53  77 106 141 181 224 268 314
#     4   8  14  26  47  76 106 132 161 205 260 310
#     4  10  22  39  56  75 104 141 178 221 277 334
#     4   7  12  26  47  69  95 129 171 219 262 297
#     4  10  22  36  52  78 110 143 179 222 272 328
#     4  10  20  35  56  81 106 136 179 224 264 315
#
# _framework density 24.735016000000002
#
# number of rings (size 3 to 8) (size 9 to 14) (size 15 to 20)
#    0.000    2.818    0.000    2.727    1.273    3.636 
#    0.000    1.818    0.000    2.182    0.000    2.545 
#    0.000    0.000    0.000    0.000    0.000    0.000 
#
# Total GULP energy -245919.979721 kJ/mol
# GULP energy per Si atom -5589.090448 kJ/mol
# Density = 2.467872 g / cm^3
# Si number density = 24.735016 Si / 1000 Ang^3
#
#
#
# Elastic Constant Matrix: (Units=GPa)
#
#
# Indices 1 2 3 4 5 6 
#
# 1 100.8942 9.3237 3.9294 0.0000 0.0000 0.0000
# 2 9.3237 113.4937 27.7919 0.0000 0.0000 0.0000
# 3 3.9294 27.7919 106.9538 0.0000 0.0000 0.0000
# 4 0.0000 0.0000 0.0000 42.5950 0.0000 0.0000
# 5 0.0000 0.0000 0.0000 0.0000 21.0599 0.0000
# 6 0.0000 0.0000 0.0000 0.0000 0.0000 -14.1454
#
#
#
# Elastic Compliance Matrix: (Units=1/GPa)
#
#
# Indices 1 2 3 4 5 6 
#
# 1 0.009990 -0.000780 -0.000164 0.000000 0.000000 0.000000
# 2 -0.000780 0.009471 -0.002432 0.000000 0.000000 0.000000
# 3 -0.000164 -0.002432 0.009988 0.000000 0.000000 0.000000
# 4 0.000000 0.000000 0.000000 0.023477 0.000000 0.000000
# 5 0.000000 0.000000 0.000000 0.000000 0.047483 0.000000
# 6 0.000000 0.000000 0.000000 0.000000 0.000000 -0.070694
#
#
# Mechanical properties :
#
#
# Convention : Reuss Voigt Hill
#
# Bulk Modulus (GPa) = 44.06337 44.82575 44.44456
# Shear Modulus (GPa) = 113.54933 28.58835 71.06884
#
# Velocity S-wave (km/s) = 6.78277 3.40337 5.36605
# Velocity P-wave (km/s) = 8.89911 5.79704 7.50999
#
# Compressibility (1/GPa) = 0.02269459
#
# Stress axis : x y z
#
# Youngs Moduli (GPa) = 100.10121 105.58783 100.12114
#
# Poissons Ratio (x) = 0.08241 0.01644
# Poissons Ratio (y) = 0.07813 0.24353
# Poissons Ratio (z) = 0.01644 0.25682
#
# Static dielectric constant tensor:
#      x y z
#    x 1.932280 0.000000 0.000000 
#    y 0.000000 1.952290 0.000000 
#    z 0.000000 0.000000 1.961200 
# 
# From -- ./inp_files/57525.got.cif
#   From: 2010.05.17/outbox.cif.g08.bks.cpg/sg71_29_cif.got.tgz:57525.got - 2010.06.03 16:22:01.
