data_PCOD9521020
_publ_section_title
;
Structure prediction by ZEFSAII (Michael W. Deem and Ramdas Pophale) SiO2 
 PCOD9521020
Probable space group: I M M M
;
_chemical_formula_sum "Si O2"
_cell_formula_units_Z 112
_cell_length_a 18.867077
_cell_length_b 20.698127
_cell_length_c 15.112667
_cell_angle_alpha 90.000000
_cell_angle_beta 90.000000
_cell_angle_gamma 90.000000
_cell_volume 5901.695284
_symmetry_space_group_name_H-M "I M M M"
_symmetry_group_IT_number 71
_symmetry_cell_setting 'orthorhombic'
loop_
_space_group_symop_operation_xyz
x,y,z
-x,-y,z
x,-y,-z
-x,y,-z
-x,-y,-z
x,y,-z
-x,y,z
x,-y,z
1/2+x,1/2+y,1/2+z
1/2-x,1/2-y,1/2+z
1/2+x,1/2-y,1/2-z
1/2-x,1/2+y,1/2-z
1/2-x,1/2-y,1/2-z
1/2+x,1/2+y,1/2-z
1/2-x,1/2+y,1/2+z
1/2+x,1/2-y,1/2+z
loop_
_atom_site_type_symbol
_atom_site_label
_atom_site_fract_x
_atom_site_fract_y
_atom_site_fract_z
Si Si1 0.729967 0.427279 0.396795
Si Si2 0.424702 0.573270 0.631180
Si Si3 0.271568 0.427502 0.895100
Si Si4 0.176946 0.689525 0.605699
Si Si5 0.918200 0.257707 0.249469
Si Si6 0.301449 0.795014 0.393908
Si Si7 0.422275 0.612509 0.825418
O O1 0.746752 0.433477 0.500000
O O2 0.729589 0.500000 0.358357
O O3 0.650680 0.397800 0.393375
O O4 0.785009 0.375857 0.361474
O O5 0.500000 0.604139 0.604810
O O6 0.423863 0.500000 0.596516
O O7 0.424342 0.570403 0.736725
O O8 0.258231 0.500000 0.858881
O O9 0.223528 0.367085 0.865113
O O10 0.353553 0.408244 0.878868
O O11 0.260696 0.430569 0.000000
O O12 0.162048 0.686743 0.500000
O O13 0.109518 0.702035 0.666357
O O14 0.234148 0.747221 0.618585
O O15 0.865731 0.271084 0.167524
O O16 0.913785 0.184199 0.285019
O O17 0.000000 0.270782 0.226950
O O18 0.317504 0.794615 0.500000
O O19 0.500000 0.608162 0.869813
#
# Coordination Sequence:
#
# PCOD9521020 Si02
#       7
#    16  16  16  16  16  16  16
#     4   9  18  31  49  75 103 137 182 226 272 327
#     4   9  17  28  43  68 104 142 175 209 256 316
#     4  10  21  36  55  81 112 151 196 240 290 342
#     4  10  20  36  58  82 112 148 185 231 285 340
#     4  11  23  37  58  84 113 151 191 235 291 349
#     4  10  21  38  60  85 114 150 195 245 291 342
#     4  10  20  33  50  77 112 146 180 220 272 341
#
# _framework density 18.977596999999999
#
# number of rings (size 3 to 8) (size 9 to 14) (size 15 to 20)
#    0.000    2.143    1.429    1.714    2.000    2.000 
#    0.000    3.571    0.000    6.857    0.000    4.000 
#    0.000    0.000    0.000    0.000    0.000    0.000 
#
# Total GULP energy -312122.120886 kJ/mol
# GULP energy per Si atom -5573.609302 kJ/mol
# Density = 1.893440 g / cm^3
# Si number density = 18.977597 Si / 1000 Ang^3
#
#
#
# Elastic Constant Matrix: (Units=GPa)
#
#
# Indices 1 2 3 4 5 6 
#
# 1 55.4039 23.7283 7.6194 0.0000 0.0000 0.0000
# 2 23.7283 93.0482 2.6048 0.0000 0.0000 0.0000
# 3 7.6194 2.6048 41.0723 0.0000 0.0000 0.0000
# 4 0.0000 0.0000 0.0000 6.1888 0.0000 0.0000
# 5 0.0000 0.0000 0.0000 0.0000 39.1554 0.0000
# 6 0.0000 0.0000 0.0000 0.0000 0.0000 8.3190
#
#
#
# Elastic Compliance Matrix: (Units=1/GPa)
#
#
# Indices 1 2 3 4 5 6 
#
# 1 0.020759 -0.005195 -0.003521 0.000000 0.000000 0.000000
# 2 -0.005195 0.012066 0.000198 0.000000 0.000000 0.000000
# 3 -0.003521 0.000198 0.024988 0.000000 0.000000 0.000000
# 4 0.000000 0.000000 0.000000 0.161582 0.000000 0.000000
# 5 0.000000 0.000000 0.000000 0.000000 0.025539 0.000000
# 6 0.000000 0.000000 0.000000 0.000000 0.000000 0.120206
#
#
# Mechanical properties :
#
#
# Convention : Reuss Voigt Hill
#
# Bulk Modulus (GPa) = 24.52377 28.60328 26.56353
# Shear Modulus (GPa) = 12.63364 21.10410 16.86887
#
# Velocity S-wave (km/s) = 2.58294 3.33836 2.98465
# Velocity P-wave (km/s) = 4.67397 5.47398 5.08972
#
# Compressibility (1/GPa) = 0.04077676
#
# Stress axis : x y z
#
# Youngs Moduli (GPa) = 48.17299 82.87503 40.01917
#
# Poissons Ratio (x) = 0.43054 0.14093
# Poissons Ratio (y) = 0.25026 -0.00794
# Poissons Ratio (z) = 0.16964 -0.01645
#
# Static dielectric constant tensor:
#      x y z
#    x 1.670580 0.000000 0.000000 
#    y 0.000000 1.744580 0.000000 
#    z 0.000000 0.000000 1.681960 
# 
# From -- ./inp_files/34918.got.cif
#   From: 2010.05.17/outbox.cif.g08.bks.cpg/sg71_18_cif.got.tgz:34918.got - 2010.06.03 16:22:01.
