data_PCOD9521409
_publ_section_title
;
Structure prediction by ZEFSAII (Michael W. Deem and Ramdas Pophale) SiO2 
 PCOD9521409
Probable space group: I M M M
;
_chemical_formula_sum "Si O2"
_cell_formula_units_Z 96
_cell_length_a 27.760404
_cell_length_b 8.876983
_cell_length_c 23.043915
_cell_angle_alpha 90.000000
_cell_angle_beta 90.000000
_cell_angle_gamma 90.000000
_cell_volume 5678.680504
_symmetry_space_group_name_H-M "I M M M"
_symmetry_group_IT_number 71
_symmetry_cell_setting 'orthorhombic'
loop_
_space_group_symop_operation_xyz
x,y,z
-x,-y,z
x,-y,-z
-x,y,-z
-x,-y,-z
x,y,-z
-x,y,z
x,-y,z
1/2+x,1/2+y,1/2+z
1/2-x,1/2-y,1/2+z
1/2+x,1/2-y,1/2-z
1/2-x,1/2+y,1/2-z
1/2-x,1/2-y,1/2-z
1/2+x,1/2+y,1/2-z
1/2-x,1/2+y,1/2+z
1/2+x,1/2-y,1/2+z
loop_
_atom_site_type_symbol
_atom_site_label
_atom_site_fract_x
_atom_site_fract_y
_atom_site_fract_z
Si Si1 0.101250 0.674455 0.118136
Si Si2 0.358616 0.181055 0.201377
Si Si3 0.265063 0.178898 0.500000
Si Si4 0.372494 0.679419 0.500000
Si Si5 0.718316 0.178249 0.887528
Si Si6 0.701553 0.826087 0.685180
Si Si7 0.444517 0.320350 0.268451
O O1 0.087646 0.500000 0.110334
O O2 0.100969 0.761587 0.057645
O O3 0.156457 0.677581 0.141032
O O4 0.070672 0.747426 0.170028
O O5 0.333002 0.220530 0.140921
O O6 0.320996 0.217801 0.253154
O O7 0.408121 0.258568 0.219686
O O8 0.365000 0.000000 0.203468
O O9 0.317923 0.254966 0.500000
O O10 0.235392 0.231478 0.556324
O O11 0.271860 0.000000 0.500000
O O12 0.369781 0.500000 0.500000
O O13 0.758037 0.216393 0.838675
O O14 0.718388 0.000000 0.899755
O O15 0.718911 0.000000 0.687857
O O16 0.500000 0.284182 0.255669
O O17 0.439173 0.500000 0.272903
#
# Coordination Sequence:
#
# PCOD9521409 Si02
#       7
#    16  16   8   8  16  16  16
#     4  10  20  34  53  76 104 139 179 220 263 313
#     4   9  20  35  52  76 105 136 172 214 264 318
#     4  12  24  36  50  71 106 151 186 216 254 303
#     4  12  22  34  53  75 102 141 185 223 260 303
#     4  11  21  33  50  75 105 139 179 218 255 303
#     4   9  17  30  48  72 104 138 170 209 255 309
#     4  10  21  37  57  81 106 133 171 219 268 317
#
# _framework density 16.905335999999998
#
# number of rings (size 3 to 8) (size 9 to 14) (size 15 to 20)
#    0.000    1.833    1.667    4.500    0.000    5.333 
#    0.000    0.417    0.000    2.500    0.000    0.583 
#    0.000    4.667    0.000    0.000    0.000    0.000 
#
# Total GULP energy -267961.945923 kJ/mol
# GULP energy per Si atom -5582.540540 kJ/mol
# Density = 1.686686 g / cm^3
# Si number density = 16.905336 Si / 1000 Ang^3
#
#
#
# Elastic Constant Matrix: (Units=GPa)
#
#
# Indices 1 2 3 4 5 6 
#
# 1 88.7999 43.4774 34.5445 0.0000 0.0000 0.0000
# 2 43.4774 74.5395 24.2566 0.0000 0.0000 0.0000
# 3 34.5445 24.2566 26.8850 0.0000 0.0000 0.0000
# 4 0.0000 0.0000 0.0000 25.4817 0.0000 0.0000
# 5 0.0000 0.0000 0.0000 0.0000 4.9389 0.0000
# 6 0.0000 0.0000 0.0000 0.0000 0.0000 22.5025
#
#
#
# Elastic Compliance Matrix: (Units=1/GPa)
#
#
# Indices 1 2 3 4 5 6 
#
# 1 0.024076 -0.005629 -0.025856 0.000000 0.000000 0.000000
# 2 -0.005629 0.020308 -0.011090 0.000000 0.000000 0.000000
# 3 -0.025856 -0.011090 0.080424 0.000000 0.000000 0.000000
# 4 0.000000 0.000000 0.000000 0.039244 0.000000 0.000000
# 5 0.000000 0.000000 0.000000 0.000000 0.202476 0.000000
# 6 0.000000 0.000000 0.000000 0.000000 0.000000 0.044440
#
#
# Mechanical properties :
#
#
# Convention : Reuss Voigt Hill
#
# Bulk Modulus (GPa) = 25.21608 43.86461 34.54034
# Shear Modulus (GPa) = 9.81670 16.44767 13.13219
#
# Velocity S-wave (km/s) = 2.41236 3.12256 2.79015
# Velocity P-wave (km/s) = 4.76526 6.24532 5.55481
#
# Compressibility (1/GPa) = 0.03965724
#
# Stress axis : x y z
#
# Youngs Moduli (GPa) = 41.53574 49.24235 12.43408
#
# Poissons Ratio (x) = 0.27717 0.32150
# Poissons Ratio (y) = 0.23379 0.13790
# Poissons Ratio (z) = 1.07396 0.54610
#
# Static dielectric constant tensor:
#      x y z
#    x 1.565600 0.000000 0.000000 
#    y 0.000000 1.567390 0.000000 
#    z 0.000000 0.000000 1.585210 
# 
# From -- ./inp_files/61892.got.cif
#   From: 2010.05.17/outbox.cif.g08.bks.cpg/sg71_31_cif.got.tgz:61892.got - 2010.06.03 16:22:01.
