data_PCOD9521058
_publ_section_title
;
Structure prediction by ZEFSAII (Michael W. Deem and Ramdas Pophale) SiO2 
 PCOD9521058
Probable space group: I M M M
;
_chemical_formula_sum "Si O2"
_cell_formula_units_Z 104
_cell_length_a 13.549258
_cell_length_b 14.697245
_cell_length_c 24.155055
_cell_angle_alpha 90.000000
_cell_angle_beta 90.000000
_cell_angle_gamma 90.000000
_cell_volume 4810.159496
_symmetry_space_group_name_H-M "I M M M"
_symmetry_group_IT_number 71
_symmetry_cell_setting 'orthorhombic'
loop_
_space_group_symop_operation_xyz
x,y,z
-x,-y,z
x,-y,-z
-x,y,-z
-x,-y,-z
x,y,-z
-x,y,z
x,-y,z
1/2+x,1/2+y,1/2+z
1/2-x,1/2-y,1/2+z
1/2+x,1/2-y,1/2-z
1/2-x,1/2+y,1/2-z
1/2-x,1/2-y,1/2-z
1/2+x,1/2+y,1/2-z
1/2-x,1/2+y,1/2+z
1/2+x,1/2-y,1/2+z
loop_
_atom_site_type_symbol
_atom_site_label
_atom_site_fract_x
_atom_site_fract_y
_atom_site_fract_z
Si Si1 0.887201 0.852725 0.652986
Si Si2 0.281946 0.889455 0.564457
Si Si3 0.105101 0.637163 0.671372
Si Si4 0.290724 0.350795 0.736803
Si Si5 0.500000 0.892810 0.432734
Si Si6 0.203590 0.393080 0.560299
Si Si7 0.891110 0.110900 0.126840
O O1 0.810394 0.861477 0.602491
O O2 0.894909 0.746498 0.668872
O O3 0.836010 0.893395 0.707973
O O4 0.000000 0.884902 0.642460
O O5 0.269351 0.862299 0.500000
O O6 0.391416 0.857159 0.584810
O O7 0.284783 0.000000 0.565246
O O8 0.196074 0.603314 0.707808
O O9 0.121834 0.613412 0.607317
O O10 0.000000 0.605506 0.692308
O O11 0.250000 0.250000 0.750000
O O12 0.371173 0.350485 0.687971
O O13 0.500000 0.887801 0.500000
O O14 0.500000 0.000000 0.417971
O O15 0.179367 0.354766 0.500000
O O16 0.222273 0.500000 0.553990
O O17 0.304281 0.354870 0.586788
O O18 0.000000 0.134195 0.106530
O O19 0.885309 0.000000 0.130944
#
# Coordination Sequence:
#
# PCOD9521058 Si02
#       7
#    16  16  16  16   8  16  16
#     4  10  20  33  51  76 103 135 172 210 257 312
#     4   9  18  33  53  76 104 138 173 211 256 305
#     4   9  19  35  52  71 100 135 170 210 257 303
#     4   9  18  34  52  71  99 134 172 211 254 308
#     4   7  12  28  52  70  90 128 169 203 244 292
#     4   9  18  32  51  75 101 130 166 206 250 306
#     4   9  17  30  51  77 103 132 165 207 259 309
#
# _framework density 21.620903999999999
#
# number of rings (size 3 to 8) (size 9 to 14) (size 15 to 20)
#    0.000    3.000    0.000    1.385    0.000    3.385 
#    1.385    4.615    8.462    0.000    0.000    0.000 
#    0.000    0.000    0.000    0.000    0.000    0.000 
#
# Total GULP energy -289792.401328 kJ/mol
# GULP energy per Si atom -5572.930795 kJ/mol
# Density = 2.157169 g / cm^3
# Si number density = 21.620904 Si / 1000 Ang^3
#
#
#
# Elastic Constant Matrix: (Units=GPa)
#
#
# Indices 1 2 3 4 5 6 
#
# 1 184.0808 3.0263 64.0137 0.0000 0.0000 0.0000
# 2 3.0263 56.7322 -4.6514 0.0000 0.0000 0.0000
# 3 64.0137 -4.6514 107.1993 0.0000 0.0000 0.0000
# 4 0.0000 0.0000 0.0000 11.6874 0.0000 0.0000
# 5 0.0000 0.0000 0.0000 0.0000 16.2037 0.0000
# 6 0.0000 0.0000 0.0000 0.0000 0.0000 14.4407
#
#
#
# Elastic Compliance Matrix: (Units=1/GPa)
#
#
# Indices 1 2 3 4 5 6 
#
# 1 0.006884 -0.000707 -0.004142 0.000000 0.000000 0.000000
# 2 -0.000707 0.017762 0.001193 0.000000 0.000000 0.000000
# 3 -0.004142 0.001193 0.011853 0.000000 0.000000 0.000000
# 4 0.000000 0.000000 0.000000 0.085563 0.000000 0.000000
# 5 0.000000 0.000000 0.000000 0.000000 0.061714 0.000000
# 6 0.000000 0.000000 0.000000 0.000000 0.000000 0.069249
#
#
# Mechanical properties :
#
#
# Convention : Reuss Voigt Hill
#
# Bulk Modulus (GPa) = 34.26006 52.53217 43.39611
# Shear Modulus (GPa) = 18.51399 27.50793 23.01096
#
# Velocity S-wave (km/s) = 2.92944 3.57078 3.26589
# Velocity P-wave (km/s) = 5.22708 6.43042 5.85972
#
# Compressibility (1/GPa) = 0.02918851
#
# Stress axis : x y z
#
# Youngs Moduli (GPa) = 145.25947 56.29941 84.36480
#
# Poissons Ratio (x) = 0.03979 0.34940
# Poissons Ratio (y) = 0.10267 -0.10063
# Poissons Ratio (z) = 0.60160 -0.06715
#
# Static dielectric constant tensor:
#      x y z
#    x 1.805700 0.000000 0.000000 
#    y 0.000000 1.877600 0.000000 
#    z 0.000000 0.000000 1.721860 
# 
# From -- ./inp_files/60063.got.cif
#   From: 2010.05.17/outbox.cif.g08.bks.cpg/sg71_31_cif.got.tgz:60063.got - 2010.06.03 16:22:01.
