data_PCOD9521708
_publ_section_title
;
Structure prediction by ZEFSAII (Michael W. Deem and Ramdas Pophale) SiO2 
 PCOD9521708
Probable space group: I M M M
;
_chemical_formula_sum "Si O2"
_cell_formula_units_Z 116
_cell_length_a 29.694554
_cell_length_b 26.240920
_cell_length_c 7.431393
_cell_angle_alpha 90.000000
_cell_angle_beta 90.000000
_cell_angle_gamma 90.000000
_cell_volume 5790.633693
_symmetry_space_group_name_H-M "I M M M"
_symmetry_group_IT_number 71
_symmetry_cell_setting 'orthorhombic'
loop_
_space_group_symop_operation_xyz
x,y,z
-x,-y,z
x,-y,-z
-x,y,-z
-x,-y,-z
x,y,-z
-x,y,z
x,-y,z
1/2+x,1/2+y,1/2+z
1/2-x,1/2-y,1/2+z
1/2+x,1/2-y,1/2-z
1/2-x,1/2+y,1/2-z
1/2-x,1/2-y,1/2-z
1/2+x,1/2+y,1/2-z
1/2-x,1/2+y,1/2+z
1/2+x,1/2-y,1/2+z
loop_
_atom_site_type_symbol
_atom_site_label
_atom_site_fract_x
_atom_site_fract_y
_atom_site_fract_z
Si Si1 0.616942 0.644918 0.706853
Si Si2 0.694012 0.190809 0.796924
Si Si3 0.449126 0.146721 0.217978
Si Si4 0.050897 0.941395 0.780379
Si Si5 0.843187 0.500000 0.000000
Si Si6 0.140458 0.591331 0.279923
Si Si7 0.794011 0.197765 0.707570
Si Si8 0.051928 0.237847 0.717421
O O1 0.626118 0.632580 0.500000
O O2 0.587985 0.598365 0.784822
O O3 0.664985 0.658883 0.787876
O O4 0.585396 0.694753 0.716113
O O5 0.668657 0.141784 0.725219
O O6 0.747670 0.180946 0.797761
O O7 0.689707 0.247475 0.715781
O O8 0.675760 0.195901 0.000000
O O9 0.500000 0.135564 0.279352
O O10 0.411385 0.105898 0.263398
O O11 0.436854 0.204424 0.275584
O O12 0.450336 0.148621 0.000000
O O13 0.000000 0.927357 0.724123
O O14 0.059277 0.000000 0.728586
O O15 0.050916 0.939783 0.000000
O O16 0.844655 0.544432 0.840718
O O17 0.144736 0.583860 0.500000
O O18 0.781517 0.207124 0.500000
O O19 0.053904 0.236705 0.500000
O O20 0.000000 0.227553 0.769948
#
# Coordination Sequence:
#
# PCOD9521708 Si02
#       8
#    16  16  16  16   4  16  16  16
#     4  11  20  29  46  75 110 139 176 227 278 329
#     4   9  19  37  60  84 110 143 181 223 281 342
#     4   8  15  32  57  81 109 149 187 221 278 345
#     4   8  15  29  48  67  92 135 187 230 265 307
#     4  12  26  40  61  92 112 152 208 240 287 340
#     4  10  21  40  63  84 116 153 194 246 285 334
#     4  10  20  34  56  85 114 142 175 220 278 349
#     4   9  17  30  49  74 107 146 184 220 273 347
#
# _framework density 20.032349
#
# number of rings (size 3 to 8) (size 9 to 14) (size 15 to 20)
#    0.000    2.621    0.000    3.517    0.966    3.586 
#    3.724    1.034    1.517    3.310    0.000    4.828 
#    0.000    0.000    0.000    0.000    0.000    0.000 
#
# Total GULP energy -323044.534667 kJ/mol
# GULP energy per Si atom -5569.733356 kJ/mol
# Density = 1.998675 g / cm^3
# Si number density = 20.032349 Si / 1000 Ang^3
#
#
#
# Elastic Constant Matrix: (Units=GPa)
#
#
# Indices 1 2 3 4 5 6 
#
# 1 77.0293 51.2437 7.5926 0.0000 0.0000 0.0000
# 2 51.2437 83.6820 17.0947 0.0000 0.0000 0.0000
# 3 7.5926 17.0947 79.3228 0.0000 0.0000 0.0000
# 4 0.0000 0.0000 0.0000 17.2723 0.0000 0.0000
# 5 0.0000 0.0000 0.0000 0.0000 10.1260 0.0000
# 6 0.0000 0.0000 0.0000 0.0000 0.0000 17.4226
#
#
#
# Elastic Compliance Matrix: (Units=1/GPa)
#
#
# Indices 1 2 3 4 5 6 
#
# 1 0.021958 -0.013617 0.000833 0.000000 0.000000 0.000000
# 2 -0.013617 0.020944 -0.003210 0.000000 0.000000 0.000000
# 3 0.000833 -0.003210 0.013219 0.000000 0.000000 0.000000
# 4 0.000000 0.000000 0.000000 0.057896 0.000000 0.000000
# 5 0.000000 0.000000 0.000000 0.000000 0.098755 0.000000
# 6 0.000000 0.000000 0.000000 0.000000 0.000000 0.057397
#
#
# Mechanical properties :
#
#
# Convention : Reuss Voigt Hill
#
# Bulk Modulus (GPa) = 41.43708 43.54401 42.49055
# Shear Modulus (GPa) = 16.11851 19.90439 18.01145
#
# Velocity S-wave (km/s) = 2.83967 3.15558 3.00178
# Velocity P-wave (km/s) = 5.61085 5.92123 5.76813
#
# Compressibility (1/GPa) = 0.02413297
#
# Stress axis : x y z
#
# Youngs Moduli (GPa) = 45.54060 47.74619 75.64952
#
# Poissons Ratio (x) = 0.65014 -0.06299
# Poissons Ratio (y) = 0.62011 0.24286
# Poissons Ratio (z) = -0.03792 0.15328
#
# Static dielectric constant tensor:
#      x y z
#    x 1.703880 0.000000 0.000000 
#    y 0.000000 1.685360 0.000000 
#    z 0.000000 0.000000 1.822960 
# 
# From -- ./inp_files/17346.got.cif
#   From: 2010.05.17/outbox.cif.g08.bks.cpg/sg71_9_cif.got.tgz:17346.got - 2010.06.03 16:22:01.
