data_PCOD9521249
_publ_section_title
;
Structure prediction by ZEFSAII (Michael W. Deem and Ramdas Pophale) SiO2 
 PCOD9521249
Probable space group: I M M M
;
_chemical_formula_sum "Si O2"
_cell_formula_units_Z 72
_cell_length_a 25.567610
_cell_length_b 15.636358
_cell_length_c 10.369793
_cell_angle_alpha 90.000000
_cell_angle_beta 90.000000
_cell_angle_gamma 90.000000
_cell_volume 4145.680468
_symmetry_space_group_name_H-M "I M M M"
_symmetry_group_IT_number 71
_symmetry_cell_setting 'orthorhombic'
loop_
_space_group_symop_operation_xyz
x,y,z
-x,-y,z
x,-y,-z
-x,y,-z
-x,-y,-z
x,y,-z
-x,y,z
x,-y,z
1/2+x,1/2+y,1/2+z
1/2-x,1/2-y,1/2+z
1/2+x,1/2-y,1/2-z
1/2-x,1/2+y,1/2-z
1/2-x,1/2-y,1/2-z
1/2+x,1/2+y,1/2-z
1/2-x,1/2+y,1/2+z
1/2+x,1/2-y,1/2+z
loop_
_atom_site_type_symbol
_atom_site_label
_atom_site_fract_x
_atom_site_fract_y
_atom_site_fract_z
Si Si1 0.000000 0.399871 0.656243
Si Si2 0.319723 0.000000 0.155771
Si Si3 0.123946 0.848503 0.752089
Si Si4 0.061660 0.898085 0.000000
Si Si5 0.058702 0.101558 0.500000
Si Si6 0.614613 0.833548 0.156840
Si Si7 0.698251 0.500000 0.657993
O O1 0.053884 0.352259 0.692724
O O2 0.000000 0.500000 0.698654
O O3 0.000000 0.402685 0.500000
O O4 0.351401 0.915799 0.194407
O O5 0.259246 0.000000 0.194014
O O6 0.320282 0.000000 0.000000
O O7 0.090903 0.874349 0.626303
O O8 0.137683 0.750425 0.724274
O O9 0.169749 0.916165 0.783649
O O10 0.086316 0.856797 0.874304
O O11 0.000000 0.889022 0.000000
O O12 0.073563 0.000000 0.000000
O O13 0.000000 0.139976 0.500000
O O14 0.053594 0.000000 0.500000
O O15 0.616410 0.823542 0.000000
O O16 0.694051 0.500000 0.500000
#
# Coordination Sequence:
#
# PCOD9521249 Si02
#       7
#     8   8  16   8   8  16   8
#     4   9  16  30  54  82 121 148 178 229 293 344
#     4   9  20  39  59  81 113 151 201 244 285 335
#     4  12  21  36  58  85 120 147 194 235 289 341
#     4  11  22  38  56  78 116 166 202 223 268 350
#     4  11  22  34  52  84 122 154 182 233 292 344
#     4  10  20  33  56  91 118 147 185 238 293 347
#     4  11  22  41  59  76 111 163 203 238 275 339
#
# _framework density 17.367474000000001
#
# number of rings (size 3 to 8) (size 9 to 14) (size 15 to 20)
#    0.000    1.444    5.556    0.667    3.111    2.667 
#    0.000    0.000    0.000    2.000    0.000    1.556 
#    0.000    0.000    0.000    0.000    0.000    0.000 
#
# Total GULP energy -200832.348165 kJ/mol
# GULP energy per Si atom -5578.676338 kJ/mol
# Density = 1.732794 g / cm^3
# Si number density = 17.367474 Si / 1000 Ang^3
#
#
#
# Elastic Constant Matrix: (Units=GPa)
#
#
# Indices 1 2 3 4 5 6 
#
# 1 142.7967 71.9552 36.3921 0.0000 0.0000 0.0000
# 2 71.9552 164.7367 37.5965 0.0000 0.0000 0.0000
# 3 36.3921 37.5965 91.0731 0.0000 0.0000 0.0000
# 4 0.0000 0.0000 0.0000 15.2529 0.0000 0.0000
# 5 0.0000 0.0000 0.0000 0.0000 -8.4720 0.0000
# 6 0.0000 0.0000 0.0000 0.0000 0.0000 1.1666
#
#
#
# Elastic Compliance Matrix: (Units=1/GPa)
#
#
# Indices 1 2 3 4 5 6 
#
# 1 0.009387 -0.003581 -0.002272 0.000000 0.000000 0.000000
# 2 -0.003581 0.008068 -0.001900 0.000000 0.000000 0.000000
# 3 -0.002272 -0.001900 0.012672 0.000000 0.000000 0.000000
# 4 0.000000 0.000000 0.000000 0.065561 0.000000 0.000000
# 5 0.000000 0.000000 0.000000 0.000000 -0.118036 0.000000
# 6 0.000000 0.000000 0.000000 0.000000 0.000000 0.857172
#
#
# Mechanical properties :
#
#
# Convention : Reuss Voigt Hill
#
# Bulk Modulus (GPa) = 68.39694 76.72154 72.55924
# Shear Modulus (GPa) = 5.84655 18.43367 12.14011
#
# Velocity S-wave (km/s) = 1.83676 3.26143 2.64676
# Velocity P-wave (km/s) = 6.63068 7.64552 7.15611
#
# Compressibility (1/GPa) = 0.01462054
#
# Stress axis : x y z
#
# Youngs Moduli (GPa) = 106.53287 123.94425 78.91166
#
# Poissons Ratio (x) = 0.44390 0.17932
# Poissons Ratio (y) = 0.38154 0.14990
# Poissons Ratio (z) = 0.24209 0.23544
#
# Static dielectric constant tensor:
#      x y z
#    x 1.593930 0.000000 0.000000 
#    y 0.000000 1.627700 0.000000 
#    z 0.000000 0.000000 1.564990 
# 
# From -- ./inp_files/14408.got.cif
#   From: 2010.05.17/outbox.cif.g08.bks.cpg/sg71_8_cif.got.tgz:14408.got - 2010.06.03 16:22:01.
