data_PCOD9521158
_publ_section_title
;
Structure prediction by ZEFSAII (Michael W. Deem and Ramdas Pophale) SiO2 
 PCOD9521158
Probable space group: I M M M
;
_chemical_formula_sum "Si O2"
_cell_formula_units_Z 120
_cell_length_a 7.550209
_cell_length_b 26.707106
_cell_length_c 27.792721
_cell_angle_alpha 90.000000
_cell_angle_beta 90.000000
_cell_angle_gamma 90.000000
_cell_volume 5604.241884
_symmetry_space_group_name_H-M "I M M M"
_symmetry_group_IT_number 71
_symmetry_cell_setting 'orthorhombic'
loop_
_space_group_symop_operation_xyz
x,y,z
-x,-y,z
x,-y,-z
-x,y,-z
-x,-y,-z
x,y,-z
-x,y,z
x,-y,z
1/2+x,1/2+y,1/2+z
1/2-x,1/2-y,1/2+z
1/2+x,1/2-y,1/2-z
1/2-x,1/2+y,1/2-z
1/2-x,1/2-y,1/2-z
1/2+x,1/2+y,1/2-z
1/2-x,1/2+y,1/2+z
1/2+x,1/2-y,1/2+z
loop_
_atom_site_type_symbol
_atom_site_label
_atom_site_fract_x
_atom_site_fract_y
_atom_site_fract_z
Si Si1 0.289769 0.645851 0.173025
Si Si2 0.783313 0.446204 0.343271
Si Si3 0.211377 0.557235 0.000000
Si Si4 0.792985 0.423284 0.552001
Si Si5 0.209737 0.942681 0.393583
Si Si6 0.787333 0.193701 0.052919
Si Si7 0.208291 0.255507 0.347001
Si Si8 0.285551 0.151030 0.214699
O O1 0.500000 0.646227 0.162377
O O2 0.217452 0.597561 0.144502
O O3 0.215054 0.699898 0.157336
O O4 0.265781 0.644089 0.230181
O O5 0.733616 0.500000 0.321770
O O6 0.719616 0.443888 0.398365
O O7 0.723244 0.397193 0.315269
O O8 0.000000 0.444146 0.344243
O O9 0.267127 0.577828 0.051864
O O10 0.281018 0.500000 0.000000
O O11 0.000000 0.556321 0.000000
O O12 0.715054 0.437206 0.500000
O O13 0.781556 0.363106 0.556131
O O14 0.000000 0.437421 0.550750
O O15 0.000000 0.947213 0.385142
O O16 0.282752 0.000000 0.391044
O O17 0.725314 0.224233 0.098917
O O18 0.000000 0.191503 0.054383
O O19 0.734385 0.213477 0.000000
O O20 0.280256 0.297690 0.310292
O O21 0.000000 0.251454 0.335333
O O22 0.500000 0.151868 0.212101
#
# Coordination Sequence:
#
# PCOD9521158 Si02
#       8
#    16  16   8  16  16  16  16  16
#     4  10  22  37  55  81 106 134 178 222 259 307
#     4   9  17  30  49  76 107 136 174 222 266 310
#     4   9  17  31  55  85 111 139 175 211 252 307
#     4   9  16  29  51  75 102 139 179 219 264 313
#     4   9  18  35  57  79 108 143 174 209 257 313
#     4  10  20  33  52  79 109 140 174 213 263 318
#     4  10  20  37  57  77 103 137 179 220 260 312
#     4  10  20  35  54  75 103 140 177 218 270 315
#
# _framework density 21.412351000000001
#
# number of rings (size 3 to 8) (size 9 to 14) (size 15 to 20)
#    0.000    2.467    1.333    1.000    0.000    4.000 
#    1.200    1.333    0.000    1.200    0.000    1.867 
#    0.000    0.000    0.000    0.000    0.000    0.000 
#
# Total GULP energy -334774.612564 kJ/mol
# GULP energy per Si atom -5579.576876 kJ/mol
# Density = 2.136362 g / cm^3
# Si number density = 21.412351 Si / 1000 Ang^3
#
#
#
# Elastic Constant Matrix: (Units=GPa)
#
#
# Indices 1 2 3 4 5 6 
#
# 1 51.3301 9.1358 -14.0791 0.0000 0.0000 0.0000
# 2 9.1358 159.8794 95.4634 0.0000 0.0000 0.0000
# 3 -14.0791 95.4634 147.7732 0.0000 0.0000 0.0000
# 4 0.0000 0.0000 0.0000 -12.7838 0.0000 0.0000
# 5 0.0000 0.0000 0.0000 0.0000 21.9153 0.0000
# 6 0.0000 0.0000 0.0000 0.0000 0.0000 -14.1707
#
#
#
# Elastic Compliance Matrix: (Units=1/GPa)
#
#
# Indices 1 2 3 4 5 6 
#
# 1 0.021457 -0.003983 0.004618 0.000000 0.000000 0.000000
# 2 -0.003983 0.010922 -0.007435 0.000000 0.000000 0.000000
# 3 0.004618 -0.007435 0.012010 0.000000 0.000000 0.000000
# 4 0.000000 0.000000 0.000000 -0.078224 0.000000 0.000000
# 5 0.000000 0.000000 0.000000 0.000000 0.045630 0.000000
# 6 0.000000 0.000000 0.000000 0.000000 0.000000 -0.070568
#
#
# Mechanical properties :
#
#
# Convention : Reuss Voigt Hill
#
# Bulk Modulus (GPa) = 32.48054 60.00255 46.24155
# Shear Modulus (GPa) = -143.23183 16.88967 -63.17108
#
# Velocity S-wave (km/s) = -8.18764 2.81157 -5.43748
# Velocity P-wave (km/s) = 8.61285 6.21475 4.21652
#
# Compressibility (1/GPa) = 0.03078766
#
# Stress axis : x y z
#
# Youngs Moduli (GPa) = 46.60437 91.55983 83.26215
#
# Poissons Ratio (x) = 0.36470 -0.38447
# Poissons Ratio (y) = 0.18564 0.61907
# Poissons Ratio (z) = -0.21520 0.68076
#
# Static dielectric constant tensor:
#      x y z
#    x 1.786470 0.000000 0.000000 
#    y 0.000000 1.789780 0.000000 
#    z 0.000000 0.000000 1.760440 
# 
# From -- ./inp_files/63761.got.cif
#   From: 2010.05.17/outbox.cif.g08.bks.cpg/sg71_32_cif.got.tgz:63761.got - 2010.06.03 16:22:01.
