data_PCOD9521534
_publ_section_title
;
Structure prediction by ZEFSAII (Michael W. Deem and Ramdas Pophale) SiO2 
 PCOD9521534
Probable space group: I M M M
;
_chemical_formula_sum "Si O2"
_cell_formula_units_Z 104
_cell_length_a 9.019757
_cell_length_b 28.792470
_cell_length_c 24.370726
_cell_angle_alpha 90.000000
_cell_angle_beta 90.000000
_cell_angle_gamma 90.000000
_cell_volume 6329.103932
_symmetry_space_group_name_H-M "I M M M"
_symmetry_group_IT_number 71
_symmetry_cell_setting 'orthorhombic'
loop_
_space_group_symop_operation_xyz
x,y,z
-x,-y,z
x,-y,-z
-x,y,-z
-x,-y,-z
x,y,-z
-x,y,z
x,-y,z
1/2+x,1/2+y,1/2+z
1/2-x,1/2-y,1/2+z
1/2+x,1/2-y,1/2-z
1/2-x,1/2+y,1/2-z
1/2-x,1/2-y,1/2-z
1/2+x,1/2+y,1/2-z
1/2-x,1/2+y,1/2+z
1/2+x,1/2-y,1/2+z
loop_
_atom_site_type_symbol
_atom_site_label
_atom_site_fract_x
_atom_site_fract_y
_atom_site_fract_z
Si Si1 0.829649 0.722852 0.433357
Si Si2 0.323631 0.626875 0.565150
Si Si3 0.174733 0.000000 0.565702
Si Si4 0.175477 0.944555 0.736519
Si Si5 0.321918 0.086853 0.373411
Si Si6 0.322657 0.181722 0.564380
Si Si7 0.176818 0.554513 0.353634
O O1 0.827194 0.723648 0.500000
O O2 0.738132 0.677270 0.417222
O O3 0.757776 0.771537 0.416048
O O4 0.000000 0.719047 0.415655
O O5 0.293422 0.621501 0.500000
O O6 0.500000 0.624931 0.573055
O O7 0.244042 0.587066 0.599707
O O8 0.251576 0.954628 0.590983
O O9 0.188693 0.000000 0.500000
O O10 0.000000 0.000000 0.580167
O O11 0.255934 0.918080 0.687341
O O12 0.247681 0.934194 0.795327
O O13 0.000000 0.935117 0.737157
O O14 0.195292 0.000000 0.726596
O O15 0.500000 0.081929 0.372448
O O16 0.284652 0.136138 0.401051
O O17 0.285512 0.173913 0.500000
O O18 0.500000 0.188797 0.567308
O O19 0.206703 0.500000 0.365041
O O20 0.000000 0.560574 0.349852
#
# Coordination Sequence:
#
# PCOD9521534 Si02
#       7
#    16  16   8  16  16  16  16
#     4   9  17  30  50  75 102 134 172 212 253 302
#     4  10  20  34  54  80 110 142 172 205 251 306
#     4  11  23  35  47  69 103 139 174 217 270 321
#     4  10  20  35  54  74 100 134 176 219 260 308
#     4  11  21  33  52  74 100 135 176 220 264 314
#     4   9  18  32  49  72 102 135 172 214 261 311
#     4  10  21  36  55  79 107 138 174 214 254 300
#
# _framework density 16.432026
#
# number of rings (size 3 to 8) (size 9 to 14) (size 15 to 20)
#    0.000    2.077    0.769    3.000    0.000    7.077 
#    0.000    3.077    0.000    0.923    0.000    0.000 
#    0.000    0.000    0.000    0.000    0.000    0.000 
#
# Total GULP energy -290230.610059 kJ/mol
# GULP energy per Si atom -5581.357886 kJ/mol
# Density = 1.639463 g / cm^3
# Si number density = 16.432026 Si / 1000 Ang^3
#
#
#
# Elastic Constant Matrix: (Units=GPa)
#
#
# Indices 1 2 3 4 5 6 
#
# 1 96.8986 79.9068 64.1035 0.0000 0.0000 0.0000
# 2 79.9068 129.6961 75.4548 0.0000 0.0000 0.0000
# 3 64.1035 75.4548 81.4049 0.0000 0.0000 0.0000
# 4 0.0000 0.0000 0.0000 5.2178 0.0000 0.0000
# 5 0.0000 0.0000 0.0000 0.0000 28.9860 0.0000
# 6 0.0000 0.0000 0.0000 0.0000 0.0000 30.4895
#
#
#
# Elastic Compliance Matrix: (Units=1/GPa)
#
#
# Indices 1 2 3 4 5 6 
#
# 1 0.025384 -0.008704 -0.011922 0.000000 0.000000 0.000000
# 2 -0.008704 0.019719 -0.011424 0.000000 0.000000 0.000000
# 3 -0.011922 -0.011424 0.032261 0.000000 0.000000 0.000000
# 4 0.000000 0.000000 0.000000 0.191652 0.000000 0.000000
# 5 0.000000 0.000000 0.000000 0.000000 0.034499 0.000000
# 6 0.000000 0.000000 0.000000 0.000000 0.000000 0.032798
#
#
# Mechanical properties :
#
#
# Convention : Reuss Voigt Hill
#
# Bulk Modulus (GPa) = 75.38155 82.99220 79.18688
# Shear Modulus (GPa) = 12.35074 18.84096 15.59585
#
# Velocity S-wave (km/s) = 2.74455 3.38982 3.08411
# Velocity P-wave (km/s) = 7.48450 8.12017 7.80881
#
# Compressibility (1/GPa) = 0.01326585
#
# Stress axis : x y z
#
# Youngs Moduli (GPa) = 39.39440 50.71302 30.99708
#
# Poissons Ratio (x) = 0.44138 0.36954
# Poissons Ratio (y) = 0.34287 0.35410
# Poissons Ratio (z) = 0.46965 0.57933
#
# Static dielectric constant tensor:
#      x y z
#    x 1.547710 0.000000 0.000000 
#    y 0.000000 1.531120 0.000000 
#    z 0.000000 0.000000 1.531590 
# 
# From -- ./inp_files/15514.got.cif
#   From: 2010.05.17/outbox.cif.g08.bks.cpg/sg71_8_cif.got.tgz:15514.got - 2010.06.03 16:22:01.
