data_PCOD9521084
_publ_section_title
;
Structure prediction by ZEFSAII (Michael W. Deem and Ramdas Pophale) SiO2 
 PCOD9521084
Probable space group: I M M M
;
_chemical_formula_sum "Si O2"
_cell_formula_units_Z 88
_cell_length_a 21.845104
_cell_length_b 23.340905
_cell_length_c 10.204646
_cell_angle_alpha 90.000000
_cell_angle_beta 90.000000
_cell_angle_gamma 90.000000
_cell_volume 5203.190795
_symmetry_space_group_name_H-M "I M M M"
_symmetry_group_IT_number 71
_symmetry_cell_setting 'orthorhombic'
loop_
_space_group_symop_operation_xyz
x,y,z
-x,-y,z
x,-y,-z
-x,y,-z
-x,-y,-z
x,y,-z
-x,y,z
x,-y,z
1/2+x,1/2+y,1/2+z
1/2-x,1/2-y,1/2+z
1/2+x,1/2-y,1/2-z
1/2-x,1/2+y,1/2-z
1/2-x,1/2-y,1/2-z
1/2+x,1/2+y,1/2-z
1/2-x,1/2+y,1/2+z
1/2+x,1/2-y,1/2+z
loop_
_atom_site_type_symbol
_atom_site_label
_atom_site_fract_x
_atom_site_fract_y
_atom_site_fract_z
Si Si1 0.367637 0.884521 0.156654
Si Si2 0.926583 0.064997 0.850480
Si Si3 0.646925 0.362898 0.850615
Si Si4 0.230335 0.565695 0.150998
Si Si5 0.500000 0.066642 0.158430
Si Si6 0.806313 0.738346 0.347966
O O1 0.322452 0.922458 0.244576
O O2 0.437498 0.900083 0.194199
O O3 0.344998 0.819139 0.179523
O O4 0.361025 0.895679 0.000000
O O5 0.898590 0.109629 0.751614
O O6 0.000000 0.066879 0.847997
O O7 0.907884 0.000000 0.815563
O O8 0.906672 0.075837 0.000000
O O9 0.713705 0.390874 0.826683
O O10 0.652068 0.294829 0.838885
O O11 0.629882 0.377649 0.000000
O O12 0.251836 0.500000 0.162345
O O13 0.209170 0.574067 0.000000
O O14 0.500000 0.000000 0.204479
O O15 0.500000 0.064324 0.000000
O O16 0.784461 0.734560 0.500000
O O17 0.750000 0.750000 0.250000
#
# Coordination Sequence:
#
# PCOD9521084 Si02
#       6
#    16  16  16  16   8  16
#     4  10  20  35  56  80 104 138 182 224 268 318
#     4   9  19  36  55  76 105 139 176 220 267 314
#     4  10  20  34  52  77 107 140 176 215 266 325
#     4  10  20  33  51  77 109 140 170 213 267 320
#     4   9  18  34  55  79 109 141 176 225 276 318
#     4  10  20  35  55  79 106 138 175 217 264 318
#
# _framework density 16.912700000000001
#
# number of rings (size 3 to 8) (size 9 to 14) (size 15 to 20)
#    0.000    2.273    1.818    1.636    0.000    4.000 
#    1.636    1.364    0.000    1.636    0.000    0.000 
#    0.000    0.000    0.000    0.000    0.000    0.000 
#
# Total GULP energy -245256.134493 kJ/mol
# GULP energy per Si atom -5574.003057 kJ/mol
# Density = 1.687421 g / cm^3
# Si number density = 16.912700 Si / 1000 Ang^3
#
#
#
# Elastic Constant Matrix: (Units=GPa)
#
#
# Indices 1 2 3 4 5 6 
#
# 1 54.6679 39.0880 37.7916 0.0000 0.0000 0.0000
# 2 39.0880 94.2989 37.5120 0.0000 0.0000 0.0000
# 3 37.7916 37.5120 50.5675 0.0000 0.0000 0.0000
# 4 0.0000 0.0000 0.0000 26.7168 0.0000 0.0000
# 5 0.0000 0.0000 0.0000 0.0000 29.8369 0.0000
# 6 0.0000 0.0000 0.0000 0.0000 0.0000 24.3729
#
#
#
# Elastic Compliance Matrix: (Units=1/GPa)
#
#
# Indices 1 2 3 4 5 6 
#
# 1 0.040673 -0.006763 -0.025380 0.000000 0.000000 0.000000
# 2 -0.006763 0.016169 -0.006940 0.000000 0.000000 0.000000
# 3 -0.025380 -0.006940 0.043891 0.000000 0.000000 0.000000
# 4 0.000000 0.000000 0.000000 0.037430 0.000000 0.000000
# 5 0.000000 0.000000 0.000000 0.000000 0.033516 0.000000
# 6 0.000000 0.000000 0.000000 0.000000 0.000000 0.041029
#
#
# Mechanical properties :
#
#
# Convention : Reuss Voigt Hill
#
# Bulk Modulus (GPa) = 44.31210 47.59083 45.95146
# Shear Modulus (GPa) = 16.75632 21.86150 19.30891
#
# Velocity S-wave (km/s) = 3.15104 3.59919 3.38254
# Velocity P-wave (km/s) = 6.28459 6.74332 6.51799
#
# Compressibility (1/GPa) = 0.02256720
#
# Stress axis : x y z
#
# Youngs Moduli (GPa) = 24.58634 61.84805 22.78369
#
# Poissons Ratio (x) = 0.41830 0.57824
# Poissons Ratio (y) = 0.16629 0.15811
# Poissons Ratio (z) = 0.62399 0.42920
#
# Static dielectric constant tensor:
#      x y z
#    x 1.551800 0.000000 0.000000 
#    y 0.000000 1.577400 0.000000 
#    z 0.000000 0.000000 1.568070 
# 
# From -- ./inp_files/10420.got.cif
#   From: 2010.05.17/outbox.cif.g08.bks.cpg/sg71_6_cif.got.tgz:10420.got - 2010.06.03 16:22:01.
