data_PCOD9521121
_publ_section_title
;
Structure prediction by ZEFSAII (Michael W. Deem and Ramdas Pophale) SiO2 
 PCOD9521121
Probable space group: I M M M
;
_chemical_formula_sum "Si O2"
_cell_formula_units_Z 88
_cell_length_a 8.568806
_cell_length_b 27.891119
_cell_length_c 19.753264
_cell_angle_alpha 90.000000
_cell_angle_beta 90.000000
_cell_angle_gamma 90.000000
_cell_volume 4720.903435
_symmetry_space_group_name_H-M "I M M M"
_symmetry_group_IT_number 71
_symmetry_cell_setting 'orthorhombic'
loop_
_space_group_symop_operation_xyz
x,y,z
-x,-y,z
x,-y,-z
-x,y,-z
-x,-y,-z
x,y,-z
-x,y,z
x,-y,z
1/2+x,1/2+y,1/2+z
1/2-x,1/2-y,1/2+z
1/2+x,1/2-y,1/2-z
1/2-x,1/2+y,1/2-z
1/2-x,1/2-y,1/2-z
1/2+x,1/2+y,1/2-z
1/2-x,1/2+y,1/2+z
1/2+x,1/2-y,1/2+z
loop_
_atom_site_type_symbol
_atom_site_label
_atom_site_fract_x
_atom_site_fract_y
_atom_site_fract_z
Si Si1 0.311171 0.229575 0.077206
Si Si2 0.815123 0.446704 0.719159
Si Si3 0.680044 0.584002 0.142317
Si Si4 0.823294 0.442778 0.000000
Si Si5 0.183040 0.806165 0.685897
Si Si6 0.187458 0.845503 0.173087
O O1 0.500000 0.231863 0.076786
O O2 0.250426 0.268651 0.131888
O O3 0.256963 0.178632 0.106499
O O4 0.258701 0.238021 0.000000
O O5 0.761505 0.500000 0.697721
O O6 0.780165 0.440959 0.799188
O O7 0.735180 0.400649 0.684830
O O8 0.000000 0.443517 0.707965
O O9 0.500000 0.569650 0.151796
O O10 0.690500 0.640939 0.153991
O O11 0.736402 0.572650 0.067688
O O12 0.829558 0.500000 0.000000
O O13 0.000000 0.423727 0.000000
O O14 0.248194 0.814327 0.761669
O O15 0.000000 0.793719 0.694640
O O16 0.000000 0.842869 0.172885
#
# Coordination Sequence:
#
# PCOD9521121 Si02
#       6
#    16  16  16   8  16  16
#     4  10  20  34  55  79 107 144 182 219 266 323
#     4  10  20  35  56  80 106 136 173 218 268 324
#     4  10  20  33  52  76 103 136 180 228 271 318
#     4  11  23  35  45  63  99 145 187 227 274 323
#     4   8  17  33  53  78 104 138 180 220 265 315
#     4  10  20  35  55  80 111 142 178 224 267 315
#
# _framework density 18.640499999999999
#
# number of rings (size 3 to 8) (size 9 to 14) (size 15 to 20)
#    0.000    2.273    0.000    4.091    1.273    4.727 
#    0.000    4.545    0.000    0.545    0.000    3.818 
#    0.000    0.000    0.000    0.000    0.000    0.000 
#
# Total GULP energy -245423.399304 kJ/mol
# GULP energy per Si atom -5577.804530 kJ/mol
# Density = 1.859807 g / cm^3
# Si number density = 18.640500 Si / 1000 Ang^3
#
#
#
# Elastic Constant Matrix: (Units=GPa)
#
#
# Indices 1 2 3 4 5 6 
#
# 1 22.9761 11.1389 13.2268 0.0000 0.0000 0.0000
# 2 11.1389 75.8336 38.3980 0.0000 0.0000 0.0000
# 3 13.2268 38.3980 64.2837 -0.0001 0.0000 0.0000
# 4 0.0000 0.0000 -0.0001 11.3678 0.0000 0.0000
# 5 0.0000 0.0000 0.0000 0.0000 -10.2030 0.0000
# 6 0.0000 0.0000 0.0000 0.0000 0.0000 23.1877
#
#
#
# Elastic Compliance Matrix: (Units=1/GPa)
#
#
# Indices 1 2 3 4 5 6 
#
# 1 0.049860 -0.003052 -0.008436 0.000000 0.000000 0.000000
# 2 -0.003052 0.019091 -0.010776 0.000000 0.000000 0.000000
# 3 -0.008436 -0.010776 0.023728 0.000000 0.000000 0.000000
# 4 0.000000 0.000000 0.000000 0.087968 0.000000 0.000000
# 5 0.000000 0.000000 0.000000 0.000000 -0.098010 0.000000
# 6 0.000000 0.000000 0.000000 0.000000 0.000000 0.043126
#
#
# Mechanical properties :
#
#
# Convention : Reuss Voigt Hill
#
# Bulk Modulus (GPa) = 20.76764 32.06897 26.41830
# Shear Modulus (GPa) = 26.83259 11.55914 19.19586
#
# Velocity S-wave (km/s) = 3.79816 2.49290 3.21252
# Velocity P-wave (km/s) = 5.51362 5.05246 5.28807
#
# Compressibility (1/GPa) = 0.04815185
#
# Stress axis : x y z
#
# Youngs Moduli (GPa) = 20.05635 52.37989 42.14390
#
# Poissons Ratio (x) = 0.15988 0.35551
# Poissons Ratio (y) = 0.06122 0.45413
# Poissons Ratio (z) = 0.16919 0.56443
#
# Static dielectric constant tensor:
#      x y z
#    x 1.643520 0.000000 0.000000 
#    y 0.000000 1.657790 0.000000 
#    z 0.000000 0.000000 1.620830 
# 
# From -- ./inp_files/10937.got.cif
#   From: 2010.05.17/outbox.cif.g08.bks.cpg/sg71_6_cif.got.tgz:10937.got - 2010.06.03 16:22:01.
