data_PCOD9521253
_publ_section_title
;
Structure prediction by ZEFSAII (Michael W. Deem and Ramdas Pophale) SiO2 
 PCOD9521253
Probable space group: I M M M
;
_chemical_formula_sum "Si O2"
_cell_formula_units_Z 64
_cell_length_a 24.733336
_cell_length_b 8.426744
_cell_length_c 16.012428
_cell_angle_alpha 90.000000
_cell_angle_beta 90.000000
_cell_angle_gamma 90.000000
_cell_volume 3337.334114
_symmetry_space_group_name_H-M "I M M M"
_symmetry_group_IT_number 71
_symmetry_cell_setting 'orthorhombic'
loop_
_space_group_symop_operation_xyz
x,y,z
-x,-y,z
x,-y,-z
-x,y,-z
-x,-y,-z
x,y,-z
-x,y,z
x,-y,z
1/2+x,1/2+y,1/2+z
1/2-x,1/2-y,1/2+z
1/2+x,1/2-y,1/2-z
1/2-x,1/2+y,1/2-z
1/2-x,1/2-y,1/2-z
1/2+x,1/2+y,1/2-z
1/2-x,1/2+y,1/2+z
1/2+x,1/2-y,1/2+z
loop_
_atom_site_type_symbol
_atom_site_label
_atom_site_fract_x
_atom_site_fract_y
_atom_site_fract_z
Si Si1 0.226023 0.690100 0.663030
Si Si2 0.611642 0.193770 0.096380
Si Si3 0.500000 0.308642 0.634047
Si Si4 0.288969 0.811848 0.500000
Si Si5 0.000000 0.308988 0.321769
Si Si6 0.910874 0.808230 0.000000
O O1 0.226044 0.500000 0.664338
O O2 0.250000 0.750000 0.750000
O O3 0.164223 0.745154 0.648017
O O4 0.260614 0.744483 0.583100
O O5 0.554881 0.249035 0.134336
O O6 0.611142 0.000000 0.097253
O O7 0.617347 0.242485 0.000000
O O8 0.500000 0.500000 0.639492
O O9 0.500000 0.236537 0.725204
O O10 0.447190 0.262931 0.580188
O O11 0.351966 0.765669 0.500000
O O12 0.283143 0.000000 0.500000
O O13 0.000000 0.500000 0.329090
O O14 0.905973 0.000000 0.000000
#
# Coordination Sequence:
#
# PCOD9521253 Si02
#       6
#    16  16   8   8   8   8
#     4  11  23  41  63  90 125 164 205 254 309 370
#     4   9  18  36  60  85 115 152 195 242 296 354
#     4   9  20  39  59  84 118 156 194 237 300 366
#     4  12  25  41  63  93 123 160 210 258 309 368
#     4  10  20  33  59  91 116 146 193 248 297 350
#     4   9  20  40  62  82 115 161 199 238 298 365
#
# _framework density 19.176981999999999
#
# number of rings (size 3 to 8) (size 9 to 14) (size 15 to 20)
#    0.000    2.000    1.250    3.000    3.500    2.500 
#    0.000    2.500    0.000    0.750    0.000    0.000 
#    0.000    0.000    0.000    0.000    0.000    0.000 
#
# Total GULP energy -178740.834073 kJ/mol
# GULP energy per Si atom -5585.651065 kJ/mol
# Density = 1.913333 g / cm^3
# Si number density = 19.176982 Si / 1000 Ang^3
#
#
#
# Elastic Constant Matrix: (Units=GPa)
#
#
# Indices 1 2 3 4 5 6 
#
# 1 210.0002 34.3465 111.0466 0.0000 0.0000 0.0000
# 2 34.3465 34.5171 27.3347 0.0000 0.0000 0.0000
# 3 111.0466 27.3347 176.8441 0.0000 0.0000 0.0000
# 4 0.0000 0.0000 0.0000 36.8996 0.0000 0.0000
# 5 0.0000 0.0000 0.0000 0.0000 0.6673 0.0000
# 6 0.0000 0.0000 0.0000 0.0000 0.0000 8.7309
#
#
#
# Elastic Compliance Matrix: (Units=1/GPa)
#
#
# Indices 1 2 3 4 5 6 
#
# 1 0.007661 -0.004346 -0.004139 0.000000 0.000000 0.000000
# 2 -0.004346 0.035477 -0.002755 0.000000 0.000000 0.000000
# 3 -0.004139 -0.002755 0.008680 0.000000 0.000000 0.000000
# 4 0.000000 0.000000 0.000000 0.027101 0.000000 0.000000
# 5 0.000000 0.000000 0.000000 0.000000 1.498493 0.000000
# 6 0.000000 0.000000 0.000000 0.000000 0.000000 0.114536
#
#
# Mechanical properties :
#
#
# Convention : Reuss Voigt Hill
#
# Bulk Modulus (GPa) = 34.08476 85.20190 59.64333
# Shear Modulus (GPa) = 2.89989 25.83514 14.36751
#
# Velocity S-wave (km/s) = 1.23104 3.67440 2.74013
# Velocity P-wave (km/s) = 4.45342 7.90742 6.41718
#
# Compressibility (1/GPa) = 0.02933863
#
# Stress axis : x y z
#
# Youngs Moduli (GPa) = 130.52426 28.18730 115.21219
#
# Poissons Ratio (x) = 0.12249 0.47688
# Poissons Ratio (y) = 0.56722 0.31739
# Poissons Ratio (z) = 0.54026 0.07765
#
# Static dielectric constant tensor:
#      x y z
#    x 1.665360 0.000000 0.000000 
#    y 0.000000 1.663630 0.000000 
#    z 0.000000 0.000000 1.600790 
# 
# From -- ./inp_files/5926.got.cif
#   From: 2010.05.17/outbox.cif.g08.bks.cpg/sg71_3_cif.got.tgz:5926.got - 2010.06.03 16:22:01.
