data_PCOD9521800
_publ_section_title
;
Structure prediction by ZEFSAII (Michael W. Deem and Ramdas Pophale) SiO2 
 PCOD9521800
Probable space group: I M M M
;
_chemical_formula_sum "Si O2"
_cell_formula_units_Z 96
_cell_length_a 14.183354
_cell_length_b 13.079535
_cell_length_c 29.321234
_cell_angle_alpha 90.000000
_cell_angle_beta 90.000000
_cell_angle_gamma 90.000000
_cell_volume 5439.431234
_symmetry_space_group_name_H-M "I M M M"
_symmetry_group_IT_number 71
_symmetry_cell_setting 'orthorhombic'
loop_
_space_group_symop_operation_xyz
x,y,z
-x,-y,z
x,-y,-z
-x,y,-z
-x,-y,-z
x,y,-z
-x,y,z
x,-y,z
1/2+x,1/2+y,1/2+z
1/2-x,1/2-y,1/2+z
1/2+x,1/2-y,1/2-z
1/2-x,1/2+y,1/2-z
1/2-x,1/2-y,1/2-z
1/2+x,1/2+y,1/2-z
1/2-x,1/2+y,1/2+z
1/2+x,1/2-y,1/2+z
loop_
_atom_site_type_symbol
_atom_site_label
_atom_site_fract_x
_atom_site_fract_y
_atom_site_fract_z
Si Si1 0.610126 0.225277 0.444806
Si Si2 0.890367 0.816976 0.732547
Si Si3 0.216461 0.383213 0.707493
Si Si4 0.114259 0.500000 0.948113
Si Si5 0.111615 0.884677 0.372191
Si Si6 0.610202 0.000000 0.945636
Si Si7 0.281224 0.817559 0.102600
O O1 0.619637 0.226920 0.500000
O O2 0.500000 0.243205 0.434642
O O3 0.680562 0.302733 0.421159
O O4 0.637017 0.110342 0.427922
O O5 0.857729 0.698868 0.727356
O O6 0.815854 0.866892 0.766867
O O7 0.879088 0.867192 0.682404
O O8 0.000000 0.825783 0.745746
O O9 0.185320 0.500000 0.712685
O O10 0.228280 0.356064 0.654380
O O11 0.000000 0.500000 0.951188
O O12 0.151328 0.500000 0.000000
O O13 0.166541 0.792230 0.395853
O O14 0.000000 0.876807 0.382496
O O15 0.143249 0.000000 0.383849
O O16 0.658312 0.099976 0.924661
O O17 0.500000 0.000000 0.933906
O O18 0.620405 0.000000 0.000000
#
# Coordination Sequence:
#
# PCOD9521800 Si02
#       7
#    16  16  16   8  16   8  16
#     4   9  18  33  53  77 107 143 185 228 275 336
#     4   9  19  35  56  79 109 148 182 217 267 325
#     4  10  20  35  53  82 112 141 185 228 266 322
#     4   7  12  26  48  72  96 129 174 216 254 309
#     4   9  18  33  54  82 111 142 180 225 281 340
#     4  11  24  42  61  79 106 147 195 245 291 338
#     4  11  21  35  56  83 111 145 186 233 282 332
#
# _framework density 17.648904000000002
#
# number of rings (size 3 to 8) (size 9 to 14) (size 15 to 20)
#    0.000    2.500    0.833    2.500    1.167    2.667 
#    0.000    0.417    0.000    1.500    0.000    3.500 
#    0.000    0.000    0.000    0.000    0.000    0.000 
#
# Total GULP energy -267621.720000 kJ/mol
# GULP energy per Si atom -5575.452500 kJ/mol
# Density = 1.760873 g / cm^3
# Si number density = 17.648904 Si / 1000 Ang^3
#
#
#
# Elastic Constant Matrix: (Units=GPa)
#
#
# Indices 1 2 3 4 5 6 
#
# 1 76.0898 35.5295 28.2610 0.0000 0.0000 0.0000
# 2 35.5295 122.6425 22.6621 0.0000 0.0000 0.0000
# 3 28.2610 22.6621 26.9947 0.0000 0.0000 0.0000
# 4 0.0000 0.0000 0.0000 19.3306 0.0000 0.0000
# 5 0.0000 0.0000 0.0000 0.0000 17.1851 0.0000
# 6 0.0000 0.0000 0.0000 0.0000 0.0000 27.8910
#
#
#
# Elastic Compliance Matrix: (Units=1/GPa)
#
#
# Indices 1 2 3 4 5 6 
#
# 1 0.022144 -0.002523 -0.021065 0.000000 0.000000 0.000000
# 2 -0.002523 0.009938 -0.005702 0.000000 0.000000 0.000000
# 3 -0.021065 -0.005702 0.063885 0.000000 0.000000 0.000000
# 4 0.000000 0.000000 0.000000 0.051731 0.000000 0.000000
# 5 0.000000 0.000000 0.000000 0.000000 0.058190 0.000000
# 6 0.000000 0.000000 0.000000 0.000000 0.000000 0.035854
#
#
# Mechanical properties :
#
#
# Convention : Reuss Voigt Hill
#
# Bulk Modulus (GPa) = 26.74723 44.29247 35.51985
# Shear Modulus (GPa) = 15.98544 22.16631 19.07587
#
# Velocity S-wave (km/s) = 3.01283 3.54780 3.29120
# Velocity P-wave (km/s) = 5.22407 6.47560 5.88321
#
# Compressibility (1/GPa) = 0.03738704
#
# Stress axis : x y z
#
# Youngs Moduli (GPa) = 45.15837 100.62122 15.65322
#
# Poissons Ratio (x) = 0.25384 0.32974
# Poissons Ratio (y) = 0.11392 0.08926
# Poissons Ratio (z) = 0.95127 0.57375
#
# Static dielectric constant tensor:
#      x y z
#    x 1.576790 0.000000 0.000000 
#    y 0.000000 1.619660 0.000000 
#    z 0.000000 0.000000 1.576720 
# 
# From -- ./inp_files/69916.got.cif
#   From: 2010.05.17/outbox.cif.g08.bks.cpg/sg71_35_cif.got.tgz:69916.got - 2010.06.03 16:22:01.
