data_PCOD9521265
_publ_section_title
;
Structure prediction by ZEFSAII (Michael W. Deem and Ramdas Pophale) SiO2 
 PCOD9521265
Probable space group: I M M M
;
_chemical_formula_sum "Si O2"
_cell_formula_units_Z 104
_cell_length_a 29.258373
_cell_length_b 24.787445
_cell_length_c 8.854201
_cell_angle_alpha 90.000000
_cell_angle_beta 90.000000
_cell_angle_gamma 90.000000
_cell_volume 6421.423492
_symmetry_space_group_name_H-M "I M M M"
_symmetry_group_IT_number 71
_symmetry_cell_setting 'orthorhombic'
loop_
_space_group_symop_operation_xyz
x,y,z
-x,-y,z
x,-y,-z
-x,y,-z
-x,-y,-z
x,y,-z
-x,y,z
x,-y,z
1/2+x,1/2+y,1/2+z
1/2-x,1/2-y,1/2+z
1/2+x,1/2-y,1/2-z
1/2-x,1/2+y,1/2-z
1/2-x,1/2-y,1/2-z
1/2+x,1/2+y,1/2-z
1/2-x,1/2+y,1/2+z
1/2+x,1/2-y,1/2+z
loop_
_atom_site_type_symbol
_atom_site_label
_atom_site_fract_x
_atom_site_fract_y
_atom_site_fract_z
Si Si1 0.272146 0.065534 0.674158
Si Si2 0.822525 0.937682 0.181446
Si Si3 0.554209 0.733959 0.820377
Si Si4 0.413157 0.374719 0.681646
Si Si5 0.000000 0.935721 0.320435
Si Si6 0.052927 0.649933 0.817765
Si Si7 0.372919 0.062086 0.684510
O O1 0.268196 0.082633 0.500000
O O2 0.226683 0.082159 0.761259
O O3 0.322304 0.081206 0.733817
O O4 0.273103 0.000000 0.676291
O O5 0.865415 0.901837 0.230038
O O6 0.828810 0.000000 0.232627
O O7 0.821857 0.938150 0.000000
O O8 0.500000 0.724833 0.790388
O O9 0.581361 0.685886 0.741491
O O10 0.565405 0.792790 0.755120
O O11 0.560897 0.732619 0.000000
O O12 0.415691 0.375445 0.500000
O O13 0.455184 0.409085 0.747959
O O14 0.000000 0.925018 0.500000
O O15 0.000000 0.000000 0.296021
O O16 0.087164 0.602597 0.769600
O O17 0.000000 0.637981 0.778626
O O18 0.055409 0.654755 0.000000
O O19 0.371656 0.061334 0.500000
O O20 0.380478 0.000000 0.732538
#
# Coordination Sequence:
#
# PCOD9521265 Si02
#       7
#    16  16  16  16   8  16  16
#     4   8  14  26  45  67  92 125 160 191 229 280
#     4   9  18  31  46  68  96 122 152 194 242 286
#     4  10  20  34  50  67  92 124 162 204 243 284
#     4  11  21  33  51  70  92 124 162 203 243 288
#     4  11  23  35  47  69 101 131 158 193 240 291
#     4   9  17  29  48  73  99 128 162 196 233 282
#     4   8  14  26  46  74 104 129 156 193 235 280
#
# _framework density 16.195785999999998
#
# number of rings (size 3 to 8) (size 9 to 14) (size 15 to 20)
#    0.000    2.692    0.769    2.538    0.000    3.385 
#    0.000    3.846    0.000    2.308    0.000    2.154 
#    0.000    0.000    0.000    0.000    0.000    0.000 
#
# Total GULP energy -289791.291568 kJ/mol
# GULP energy per Si atom -5572.909453 kJ/mol
# Density = 1.615892 g / cm^3
# Si number density = 16.195786 Si / 1000 Ang^3
#
#
#
# Elastic Constant Matrix: (Units=GPa)
#
#
# Indices 1 2 3 4 5 6 
#
# 1 148.1123 90.6775 37.0653 0.0000 0.0000 0.0000
# 2 90.6775 104.3129 34.0597 0.0000 0.0000 0.0000
# 3 37.0653 34.0597 23.7517 0.0000 0.0000 0.0000
# 4 0.0000 0.0000 0.0000 16.5553 0.0000 0.0000
# 5 0.0000 0.0000 0.0000 0.0000 18.7132 0.0000
# 6 0.0000 0.0000 0.0000 0.0000 0.0000 7.3050
#
#
#
# Elastic Compliance Matrix: (Units=1/GPa)
#
#
# Indices 1 2 3 4 5 6 
#
# 1 0.015412 -0.010426 -0.009100 0.000000 0.000000 0.000000
# 2 -0.010426 0.025081 -0.019695 0.000000 0.000000 0.000000
# 3 -0.009100 -0.019695 0.084546 0.000000 0.000000 0.000000
# 4 0.000000 0.000000 0.000000 0.060403 0.000000 0.000000
# 5 0.000000 0.000000 0.000000 0.000000 0.053438 0.000000
# 6 0.000000 0.000000 0.000000 0.000000 0.000000 0.136892
#
#
# Mechanical properties :
#
#
# Convention : Reuss Voigt Hill
#
# Bulk Modulus (GPa) = 21.46107 66.64243 44.05175
# Shear Modulus (GPa) = 10.64406 16.13968 13.39187
#
# Velocity S-wave (km/s) = 2.56639 3.16022 2.87866
# Velocity P-wave (km/s) = 4.69698 7.38602 6.18930
#
# Compressibility (1/GPa) = 0.04659599
#
# Stress axis : x y z
#
# Youngs Moduli (GPa) = 64.88441 39.87158 11.82794
#
# Poissons Ratio (x) = 0.41571 0.10763
# Poissons Ratio (y) = 0.67649 0.23295
# Poissons Ratio (z) = 0.59044 0.78527
#
# Static dielectric constant tensor:
#      x y z
#    x 1.546080 0.000000 0.000000 
#    y 0.000000 1.525030 0.000000 
#    z 0.000000 0.000000 1.545670 
# 
# From -- ./inp_files/15526.got.cif
#   From: 2010.05.17/outbox.cif.g08.bks.cpg/sg71_8_cif.got.tgz:15526.got - 2010.06.03 16:22:01.
