data_PCOD9521553
_publ_section_title
;
Structure prediction by ZEFSAII (Michael W. Deem and Ramdas Pophale) SiO2 
 PCOD9521553
Probable space group: I M M M
;
_chemical_formula_sum "Si O2"
_cell_formula_units_Z 108
_cell_length_a 13.081856
_cell_length_b 28.218296
_cell_length_c 15.951215
_cell_angle_alpha 90.000000
_cell_angle_beta 90.000000
_cell_angle_gamma 90.000000
_cell_volume 5888.354088
_symmetry_space_group_name_H-M "I M M M"
_symmetry_group_IT_number 71
_symmetry_cell_setting 'orthorhombic'
loop_
_space_group_symop_operation_xyz
x,y,z
-x,-y,z
x,-y,-z
-x,y,-z
-x,-y,-z
x,y,-z
-x,y,z
x,-y,z
1/2+x,1/2+y,1/2+z
1/2-x,1/2-y,1/2+z
1/2+x,1/2-y,1/2-z
1/2-x,1/2+y,1/2-z
1/2-x,1/2-y,1/2-z
1/2+x,1/2+y,1/2-z
1/2-x,1/2+y,1/2+z
1/2+x,1/2-y,1/2+z
loop_
_atom_site_type_symbol
_atom_site_label
_atom_site_fract_x
_atom_site_fract_y
_atom_site_fract_z
Si Si1 0.695610 0.110607 0.159947
Si Si2 0.114420 0.385101 0.844403
Si Si3 0.616715 0.555235 0.727495
Si Si4 0.198355 0.055735 0.591725
Si Si5 0.175719 0.277616 0.638539
Si Si6 0.000000 0.260099 0.500000
Si Si7 0.378270 0.946822 0.000000
Si Si8 0.617040 0.227774 0.332643
O O1 0.631601 0.103700 0.245700
O O2 0.807816 0.091263 0.182305
O O3 0.690088 0.165661 0.136776
O O4 0.654703 0.080642 0.082838
O O5 0.201350 0.412735 0.894246
O O6 0.125349 0.328361 0.851959
O O7 0.000000 0.398530 0.869785
O O8 0.500000 0.560991 0.701688
O O9 0.647006 0.500000 0.712721
O O10 0.627487 0.563721 0.827577
O O11 0.152720 0.065666 0.500000
O O12 0.225888 0.000000 0.593856
O O13 0.090324 0.262335 0.572835
O O14 0.287132 0.254132 0.625386
O O15 0.135947 0.265947 0.732675
O O16 0.500000 0.949026 0.000000
O O17 0.335724 0.000000 0.000000
O O18 0.500000 0.242509 0.353099
#
# Coordination Sequence:
#
# PCOD9521553 Si02
#       8
#    16  16  16  16  16   4   8  16
#     4  10  20  34  54  81 110 144 185 235 277 339
#     4   9  18  33  55  77 108 149 188 227 283 346
#     4   9  18  34  55  76 105 146 189 233 283 338
#     4   9  18  32  51  78 109 141 185 234 279 337
#     4  10  21  34  61  87 116 152 194 242 295 347
#     4  12  22  38  58  94 117 146 193 244 296 348
#     4  11  23  35  53  82 115 146 178 227 285 337
#     4   9  18  38  59  83 112 155 195 238 291 361
#
# _framework density 18.341287999999999
#
# number of rings (size 3 to 8) (size 9 to 14) (size 15 to 20)
#    0.000    2.444    0.741    1.333    3.111    2.074 
#    1.333    2.963    1.630    3.111    0.000    0.000 
#    0.000    0.000    0.000    0.000    0.000    0.000 
#
# Total GULP energy -300606.277479 kJ/mol
# GULP energy per Si atom -5566.782916 kJ/mol
# Density = 1.829954 g / cm^3
# Si number density = 18.341288 Si / 1000 Ang^3
#
#
#
# Elastic Constant Matrix: (Units=GPa)
#
#
# Indices 1 2 3 4 5 6 
#
# 1 117.2071 31.0738 21.5574 0.0000 0.0000 0.0000
# 2 31.0738 30.0131 26.5344 0.0000 0.0000 0.0000
# 3 21.5574 26.5344 63.8848 0.0000 0.0000 0.0000
# 4 0.0000 0.0000 0.0000 54.5222 0.0000 0.0000
# 5 0.0000 0.0000 0.0000 0.0000 16.7368 0.0000
# 6 0.0000 0.0000 0.0000 0.0000 0.0000 19.7617
#
#
#
# Elastic Compliance Matrix: (Units=1/GPa)
#
#
# Indices 1 2 3 4 5 6 
#
# 1 0.011881 -0.013837 0.001738 0.000000 0.000000 0.000000
# 2 -0.013837 0.068770 -0.023894 0.000000 0.000000 0.000000
# 3 0.001738 -0.023894 0.024991 0.000000 0.000000 0.000000
# 4 0.000000 0.000000 0.000000 0.018341 0.000000 0.000000
# 5 0.000000 0.000000 0.000000 0.000000 0.059749 0.000000
# 6 0.000000 0.000000 0.000000 0.000000 0.000000 0.050603
#
#
# Mechanical properties :
#
#
# Convention : Reuss Voigt Hill
#
# Bulk Modulus (GPa) = 29.71316 41.04847 35.38082
# Shear Modulus (GPa) = 15.74611 27.00010 21.37310
#
# Velocity S-wave (km/s) = 2.93321 3.84095 3.41735
# Velocity P-wave (km/s) = 5.26374 6.48841 5.90789
#
# Compressibility (1/GPa) = 0.03365512
#
# Stress axis : x y z
#
# Youngs Moduli (GPa) = 84.16966 14.54128 40.01461
#
# Poissons Ratio (x) = 0.20121 -0.06956
# Poissons Ratio (y) = 1.16469 0.95611
# Poissons Ratio (z) = -0.14631 0.34745
#
# Static dielectric constant tensor:
#      x y z
#    x 1.610580 0.000000 0.000000 
#    y 0.000000 1.621680 0.000000 
#    z 0.000000 0.000000 1.633440 
# 
# From -- ./inp_files/33313.got.cif
#   From: 2010.05.17/outbox.cif.g08.bks.cpg/sg71_17_cif.got.tgz:33313.got - 2010.06.03 16:22:01.
