data_PCOD9521387
_publ_section_title
;
Structure prediction by ZEFSAII (Michael W. Deem and Ramdas Pophale) SiO2 
 PCOD9521387
Probable space group: I M M M
;
_chemical_formula_sum "Si O2"
_cell_formula_units_Z 80
_cell_length_a 20.576739
_cell_length_b 18.247669
_cell_length_c 12.819693
_cell_angle_alpha 90.000000
_cell_angle_beta 90.000000
_cell_angle_gamma 90.000000
_cell_volume 4813.506565
_symmetry_space_group_name_H-M "I M M M"
_symmetry_group_IT_number 71
_symmetry_cell_setting 'orthorhombic'
loop_
_space_group_symop_operation_xyz
x,y,z
-x,-y,z
x,-y,-z
-x,y,-z
-x,-y,-z
x,y,-z
-x,y,z
x,-y,z
1/2+x,1/2+y,1/2+z
1/2-x,1/2-y,1/2+z
1/2+x,1/2-y,1/2-z
1/2-x,1/2+y,1/2-z
1/2-x,1/2-y,1/2-z
1/2+x,1/2+y,1/2-z
1/2-x,1/2+y,1/2+z
1/2+x,1/2-y,1/2+z
loop_
_atom_site_type_symbol
_atom_site_label
_atom_site_fract_x
_atom_site_fract_y
_atom_site_fract_z
Si Si1 0.809812 0.801899 0.623548
Si Si2 0.923870 0.300629 0.121697
Si Si3 0.774756 0.500000 0.377786
Si Si4 0.618039 0.500000 0.377780
Si Si5 0.689164 0.852088 0.761949
Si Si6 0.575132 0.352382 0.736317
O O1 0.804726 0.808940 0.500000
O O2 0.748981 0.838309 0.682906
O O3 0.810323 0.716607 0.658331
O O4 0.875022 0.838301 0.669741
O O5 0.876665 0.347102 0.194968
O O6 0.915008 0.215990 0.157137
O O7 0.000000 0.318473 0.135671
O O8 0.907343 0.308473 0.000000
O O9 0.791475 0.500000 0.500000
O O10 0.696280 0.500000 0.369696
O O11 0.801211 0.572505 0.322016
O O12 0.600349 0.500000 0.500000
O O13 0.591171 0.572386 0.322032
O O14 0.500000 0.351576 0.769598
#
# Coordination Sequence:
#
# PCOD9521387 Si02
#       6
#    16  16   8   8  16  16
#     4  10  20  35  55  78 104 142 185 220 259 311
#     4   9  18  34  57  83 108 137 175 221 271 317
#     4  11  22  37  57  81 109 139 174 221 271 315
#     4  11  21  34  53  79 111 145 179 218 266 314
#     4  10  20  36  56  80 106 138 176 225 267 311
#     4  10  20  34  52  79 113 144 179 220 259 310
#
# _framework density 16.619900000000001
#
# number of rings (size 3 to 8) (size 9 to 14) (size 15 to 20)
#    0.000    2.000    2.000    2.100    0.000    2.000 
#    0.000    4.000    0.000    4.800    0.000    0.000 
#    0.000    0.000    0.000    0.000    0.000    0.000 
#
# Total GULP energy -223284.174473 kJ/mol
# GULP energy per Si atom -5582.104362 kJ/mol
# Density = 1.658207 g / cm^3
# Si number density = 16.619900 Si / 1000 Ang^3
#
#
#
# Elastic Constant Matrix: (Units=GPa)
#
#
# Indices 1 2 3 4 5 6 
#
# 1 85.7676 53.6628 63.8559 0.0000 0.0000 0.0000
# 2 53.6628 105.8582 68.3146 0.0000 0.0000 0.0000
# 3 63.8559 68.3146 142.1540 0.0000 0.0000 0.0000
# 4 0.0000 0.0000 0.0000 12.8929 0.0000 0.0000
# 5 0.0000 0.0000 0.0000 0.0000 22.9129 0.0000
# 6 0.0000 0.0000 0.0000 0.0000 0.0000 23.4134
#
#
#
# Elastic Compliance Matrix: (Units=1/GPa)
#
#
# Indices 1 2 3 4 5 6 
#
# 1 0.020058 -0.006311 -0.005978 0.000000 0.000000 0.000000
# 2 -0.006311 0.015679 -0.004700 0.000000 0.000000 0.000000
# 3 -0.005978 -0.004700 0.011978 0.000000 0.000000 0.000000
# 4 0.000000 0.000000 0.000000 0.077562 0.000000 0.000000
# 5 0.000000 0.000000 0.000000 0.000000 0.043644 0.000000
# 6 0.000000 0.000000 0.000000 0.000000 0.000000 0.042711
#
#
# Mechanical properties :
#
#
# Convention : Reuss Voigt Hill
#
# Bulk Modulus (GPa) = 72.78458 78.38292 75.58375
# Shear Modulus (GPa) = 19.98502 21.70695 20.84598
#
# Velocity S-wave (km/s) = 3.47143 3.61790 3.54542
# Velocity P-wave (km/s) = 7.74316 8.04467 7.89535
#
# Compressibility (1/GPa) = 0.01373917
#
# Stress axis : x y z
#
# Youngs Moduli (GPa) = 49.85488 63.78091 83.48373
#
# Poissons Ratio (x) = 0.40249 0.49903
# Poissons Ratio (y) = 0.31461 0.39237
# Poissons Ratio (z) = 0.29801 0.29977
#
# Static dielectric constant tensor:
#      x y z
#    x 1.564300 0.000000 0.000000 
#    y 0.000000 1.533780 0.000000 
#    z 0.000000 0.000000 1.524250 
# 
# From -- ./inp_files/23860.got.cif
#   From: 2010.05.17/outbox.cif.g08.bks.cpg/sg71_12_cif.got.tgz:23860.got - 2010.06.03 16:22:01.
