data_PCOD9521449
_publ_section_title
;
Structure prediction by ZEFSAII (Michael W. Deem and Ramdas Pophale) SiO2 
 PCOD9521449
Probable space group: I M M M
;
_chemical_formula_sum "Si O2"
_cell_formula_units_Z 56
_cell_length_a 15.149199
_cell_length_b 8.616518
_cell_length_c 25.412558
_cell_angle_alpha 90.000000
_cell_angle_beta 90.000000
_cell_angle_gamma 90.000000
_cell_volume 3317.186223
_symmetry_space_group_name_H-M "I M M M"
_symmetry_group_IT_number 71
_symmetry_cell_setting 'orthorhombic'
loop_
_space_group_symop_operation_xyz
x,y,z
-x,-y,z
x,-y,-z
-x,y,-z
-x,-y,-z
x,y,-z
-x,y,z
x,-y,z
1/2+x,1/2+y,1/2+z
1/2-x,1/2-y,1/2+z
1/2+x,1/2-y,1/2-z
1/2-x,1/2+y,1/2-z
1/2-x,1/2-y,1/2-z
1/2+x,1/2+y,1/2-z
1/2-x,1/2+y,1/2+z
1/2+x,1/2-y,1/2+z
loop_
_atom_site_type_symbol
_atom_site_label
_atom_site_fract_x
_atom_site_fract_y
_atom_site_fract_z
Si Si1 0.500000 0.822127 0.837565
Si Si2 0.696760 0.811066 0.698816
Si Si3 0.896547 0.314887 0.500000
Si Si4 0.170465 0.184617 0.391358
Si Si5 0.000000 0.678189 0.788200
O O1 0.585323 0.734597 0.858040
O O2 0.500000 0.826804 0.774981
O O3 0.500000 0.000000 0.857740
O O4 0.750000 0.750000 0.750000
O O5 0.747237 0.767454 0.645138
O O6 0.595400 0.753620 0.697149
O O7 0.695693 0.000000 0.703082
O O8 0.900102 0.500000 0.500000
O O9 0.845352 0.258490 0.551759
O O10 0.000000 0.258736 0.500000
O O11 0.173703 0.000000 0.397510
O O12 0.000000 0.500000 0.808252
#
# Coordination Sequence:
#
# PCOD9521449 Si02
#       5
#     8  16   8  16   8
#     4  11  19  30  52  77 108 146 178 206 252 316
#     4  10  20  34  53  78 107 141 176 213 259 309
#     4  11  23  37  55  76 102 141 181 212 262 326
#     4  11  22  34  52  79 110 138 174 222 264 303
#     4   9  18  33  52  75 108 145 176 208 250 311
#
# _framework density 16.881778000000001
#
# number of rings (size 3 to 8) (size 9 to 14) (size 15 to 20)
#    0.000    1.571    4.286    1.714    0.000    1.714 
#    0.000    0.714    0.000    0.857    0.000    6.000 
#    0.000    0.000    0.000    0.000    0.000    0.000 
#
# Total GULP energy -156159.115735 kJ/mol
# GULP energy per Si atom -5577.111276 kJ/mol
# Density = 1.684335 g / cm^3
# Si number density = 16.881778 Si / 1000 Ang^3
#
#
#
# Elastic Constant Matrix: (Units=GPa)
#
#
# Indices 1 2 3 4 5 6 
#
# 1 167.5589 22.3235 78.8260 0.0000 0.0000 0.0000
# 2 22.3235 25.9837 33.0765 0.0000 0.0000 0.0000
# 3 78.8260 33.0765 123.2873 0.0000 0.0000 0.0000
# 4 0.0000 0.0000 0.0000 24.6432 0.0000 0.0000
# 5 0.0000 0.0000 0.0000 0.0000 31.7265 0.0000
# 6 0.0000 0.0000 0.0000 0.0000 0.0000 11.4201
#
#
#
# Elastic Compliance Matrix: (Units=1/GPa)
#
#
# Indices 1 2 3 4 5 6 
#
# 1 0.008541 -0.000587 -0.005304 0.000000 0.000000 0.000000
# 2 -0.000587 0.058487 -0.015316 0.000000 0.000000 0.000000
# 3 -0.005304 -0.015316 0.015611 0.000000 0.000000 0.000000
# 4 0.000000 0.000000 0.000000 0.040579 0.000000 0.000000
# 5 0.000000 0.000000 0.000000 0.000000 0.031519 0.000000
# 6 0.000000 0.000000 0.000000 0.000000 0.000000 0.087565
#
#
# Mechanical properties :
#
#
# Convention : Reuss Voigt Hill
#
# Bulk Modulus (GPa) = 24.85938 65.03131 44.94534
# Shear Modulus (GPa) = 16.77152 25.73156 21.25154
#
# Velocity S-wave (km/s) = 3.15535 3.90836 3.55187
# Velocity P-wave (km/s) = 5.29458 7.67934 6.59564
#
# Compressibility (1/GPa) = 0.04022627
#
# Stress axis : x y z
#
# Youngs Moduli (GPa) = 117.07933 17.09788 64.05669
#
# Poissons Ratio (x) = 0.01003 0.33973
# Poissons Ratio (y) = 0.06870 0.98110
# Poissons Ratio (z) = 0.62094 0.26187
#
# Static dielectric constant tensor:
#      x y z
#    x 1.582860 0.000000 0.000000 
#    y 0.000000 1.590950 0.000000 
#    z 0.000000 0.000000 1.559450 
# 
# From -- ./inp_files/5085.got.cif
#   From: 2010.05.17/outbox.cif.g08.bks.cpg/sg71_3_cif.got.tgz:5085.got - 2010.06.03 16:22:01.
