data_PCOD9521012
_publ_section_title
;
Structure prediction by ZEFSAII (Michael W. Deem and Ramdas Pophale) SiO2 
 PCOD9521012
Probable space group: I M M M
;
_chemical_formula_sum "Si O2"
_cell_formula_units_Z 104
_cell_length_a 28.037526
_cell_length_b 23.058026
_cell_length_c 9.374191
_cell_angle_alpha 90.000000
_cell_angle_beta 90.000000
_cell_angle_gamma 90.000000
_cell_volume 6060.320772
_symmetry_space_group_name_H-M "I M M M"
_symmetry_group_IT_number 71
_symmetry_cell_setting 'orthorhombic'
loop_
_space_group_symop_operation_xyz
x,y,z
-x,-y,z
x,-y,-z
-x,y,-z
-x,-y,-z
x,y,-z
-x,y,z
x,-y,z
1/2+x,1/2+y,1/2+z
1/2-x,1/2-y,1/2+z
1/2+x,1/2-y,1/2-z
1/2-x,1/2+y,1/2-z
1/2-x,1/2-y,1/2-z
1/2+x,1/2+y,1/2-z
1/2-x,1/2+y,1/2+z
1/2+x,1/2-y,1/2+z
loop_
_atom_site_type_symbol
_atom_site_label
_atom_site_fract_x
_atom_site_fract_y
_atom_site_fract_z
Si Si1 0.093862 0.569993 0.835106
Si Si2 0.236645 0.067744 0.666290
Si Si3 0.360545 0.631281 0.168755
Si Si4 0.819694 0.374612 0.334083
Si Si5 0.299760 0.257132 0.167001
Si Si6 0.944470 0.067830 0.171478
Si Si7 0.500000 0.070592 0.836268
O O1 0.095664 0.500000 0.832230
O O2 0.140030 0.594385 0.757640
O O3 0.047057 0.588712 0.748507
O O4 0.091519 0.587940 0.000000
O O5 0.248758 0.079833 0.500000
O O6 0.181401 0.083693 0.685143
O O7 0.269240 0.106063 0.768459
O O8 0.245266 0.000000 0.693194
O O9 0.334784 0.691273 0.216145
O O10 0.406853 0.609874 0.252699
O O11 0.371545 0.636621 0.000000
O O12 0.822660 0.391422 0.500000
O O13 0.824536 0.305405 0.324092
O O14 0.250000 0.250000 0.250000
O O15 0.288837 0.269354 0.000000
O O16 0.000000 0.080102 0.207596
O O17 0.935170 0.000000 0.209350
O O18 0.939871 0.072469 0.000000
O O19 0.500000 0.000000 0.838038
O O20 0.500000 0.090257 0.000000
#
# Coordination Sequence:
#
# PCOD9521012 Si02
#       7
#    16  16  16  16  16  16   8
#     4  10  20  34  53  77 106 140 175 213 262 319
#     4  10  20  33  50  75 108 142 173 211 263 320
#     4  10  20  35  56  80 107 141 182 224 266 319
#     4  11  22  34  51  76 104 137 178 222 267 313
#     4  10  21  37  56  77 103 138 182 223 262 310
#     4   9  19  36  57  83 115 146 177 220 275 331
#     4   9  17  31  53  79 105 133 167 211 260 309
#
# _framework density 17.160806999999998
#
# number of rings (size 3 to 8) (size 9 to 14) (size 15 to 20)
#    0.000    2.077    1.538    2.538    0.000    7.077 
#    0.000    0.769    1.692    0.000    0.000    0.000 
#    0.000    0.000    0.000    0.000    0.000    0.000 
#
# Total GULP energy -290106.574298 kJ/mol
# GULP energy per Si atom -5578.972583 kJ/mol
# Density = 1.712175 g / cm^3
# Si number density = 17.160807 Si / 1000 Ang^3
#
#
#
# Elastic Constant Matrix: (Units=GPa)
#
#
# Indices 1 2 3 4 5 6 
#
# 1 115.5401 39.3872 65.5714 0.0000 0.0000 0.0000
# 2 39.3872 71.1491 40.6780 0.0000 0.0000 0.0000
# 3 65.5714 40.6780 95.5403 0.0000 0.0000 0.0000
# 4 0.0000 0.0000 0.0000 22.0674 0.0000 0.0000
# 5 0.0000 0.0000 0.0000 0.0000 32.4300 0.0000
# 6 0.0000 0.0000 0.0000 0.0000 0.0000 20.8201
#
#
#
# Elastic Compliance Matrix: (Units=1/GPa)
#
#
# Indices 1 2 3 4 5 6 
#
# 1 0.014686 -0.003129 -0.008747 0.000000 0.000000 0.000000
# 2 -0.003129 0.019244 -0.006046 0.000000 0.000000 0.000000
# 3 -0.008747 -0.006046 0.019044 0.000000 0.000000 0.000000
# 4 0.000000 0.000000 0.000000 0.045316 0.000000 0.000000
# 5 0.000000 0.000000 0.000000 0.000000 0.030836 0.000000
# 6 0.000000 0.000000 0.000000 0.000000 0.000000 0.048031
#
#
# Mechanical properties :
#
#
# Convention : Reuss Voigt Hill
#
# Bulk Modulus (GPa) = 58.37692 63.72252 61.04972
# Shear Modulus (GPa) = 22.86142 24.16970 23.51556
#
# Velocity S-wave (km/s) = 3.65387 3.75697 3.70578
# Velocity P-wave (km/s) = 7.20364 7.48552 7.34593
#
# Compressibility (1/GPa) = 0.01713006
#
# Stress axis : x y z
#
# Youngs Moduli (GPa) = 68.09349 51.96490 52.50960
#
# Poissons Ratio (x) = 0.16260 0.45930
# Poissons Ratio (y) = 0.21306 0.31747
# Poissons Ratio (z) = 0.59561 0.31418
#
# Static dielectric constant tensor:
#      x y z
#    x 1.565480 0.000000 0.000000 
#    y 0.000000 1.584310 0.000000 
#    z 0.000000 0.000000 1.578880 
# 
# From -- ./inp_files/15292.got.cif
#   From: 2010.05.17/outbox.cif.g08.bks.cpg/sg71_8_cif.got.tgz:15292.got - 2010.06.03 16:22:01.
