data_PCOD9521395
_publ_section_title
;
Structure prediction by ZEFSAII (Michael W. Deem and Ramdas Pophale) SiO2 
 PCOD9521395
Probable space group: I M M M
;
_chemical_formula_sum "Si O2"
_cell_formula_units_Z 72
_cell_length_a 13.966732
_cell_length_b 34.754132
_cell_length_c 8.998055
_cell_angle_alpha 90.000000
_cell_angle_beta 90.000000
_cell_angle_gamma 90.000000
_cell_volume 4367.670722
_symmetry_space_group_name_H-M "I M M M"
_symmetry_group_IT_number 71
_symmetry_cell_setting 'orthorhombic'
loop_
_space_group_symop_operation_xyz
x,y,z
-x,-y,z
x,-y,-z
-x,y,-z
-x,-y,-z
x,y,-z
-x,y,z
x,-y,z
1/2+x,1/2+y,1/2+z
1/2-x,1/2-y,1/2+z
1/2+x,1/2-y,1/2-z
1/2-x,1/2+y,1/2-z
1/2-x,1/2-y,1/2-z
1/2+x,1/2+y,1/2-z
1/2-x,1/2+y,1/2+z
1/2+x,1/2-y,1/2+z
loop_
_atom_site_type_symbol
_atom_site_label
_atom_site_fract_x
_atom_site_fract_y
_atom_site_fract_z
Si Si1 0.609276 0.771906 0.179008
Si Si2 0.388337 0.611894 0.179421
Si Si3 0.611599 0.000000 0.322136
Si Si4 0.772765 0.042826 0.824887
Si Si5 0.289980 0.691910 0.821263
O O1 0.500000 0.778387 0.226442
O O2 0.643588 0.728578 0.218470
O O3 0.686810 0.800323 0.249760
O O4 0.613239 0.774936 0.000000
O O5 0.500000 0.612157 0.221485
O O6 0.333632 0.576034 0.250435
O O7 0.338294 0.651945 0.224131
O O8 0.383251 0.609223 0.000000
O O9 0.669684 0.963912 0.253138
O O10 0.500000 0.000000 0.283734
O O11 0.621417 0.000000 0.500000
O O12 0.818723 0.000000 0.806641
O O13 0.760907 0.049670 0.000000
O O14 0.280913 0.691827 0.000000
#
# Coordination Sequence:
#
# PCOD9521395 Si02
#       5
#    16  16   8  16  16
#     4   9  17  31  51  73 100 134 169 207 254 304
#     4  10  20  34  53  75 101 135 173 213 257 303
#     4   9  17  33  58  81 100 127 165 206 246 293
#     4   9  20  35  52  77 107 135 165 206 252 302
#     4   9  18  32  50  74 102 131 169 214 254 299
#
# _framework density 16.484759
#
# number of rings (size 3 to 8) (size 9 to 14) (size 15 to 20)
#    0.667    2.111    0.000    1.333    0.000    5.778 
#    0.000    3.333    0.000    5.333    0.000    0.000 
#    0.000    0.000    0.000    0.000    0.000    0.000 
#
# Total GULP energy -200459.668470 kJ/mol
# GULP energy per Si atom -5568.324124 kJ/mol
# Density = 1.644724 g / cm^3
# Si number density = 16.484759 Si / 1000 Ang^3
#
#
#
# Elastic Constant Matrix: (Units=GPa)
#
#
# Indices 1 2 3 4 5 6 
#
# 1 181.7928 94.5132 54.9264 -0.0003 -0.0002 0.0001
# 2 94.5132 117.7510 46.8540 0.0001 0.0002 0.0001
# 3 54.9264 46.8540 33.0750 -0.0021 0.0019 0.0004
# 4 -0.0003 0.0001 -0.0021 25.5136 0.0009 0.0000
# 5 -0.0002 0.0002 0.0019 0.0009 19.5562 -0.0002
# 6 0.0001 0.0001 0.0004 0.0000 -0.0002 23.3423
#
#
#
# Elastic Compliance Matrix: (Units=1/GPa)
#
#
# Indices 1 2 3 4 5 6 
#
# 1 0.011744 -0.003818 -0.014094 -0.000001 0.000002 0.000000
# 2 -0.003818 0.020705 -0.022990 -0.000002 0.000002 0.000000
# 3 -0.014094 -0.022990 0.086207 0.000007 -0.000008 -0.000001
# 4 -0.000001 -0.000002 0.000007 0.039195 -0.000002 0.000000
# 5 0.000002 0.000002 -0.000008 -0.000002 0.051135 0.000001
# 6 0.000000 0.000000 -0.000001 0.000000 0.000001 0.042841
#
#
# Mechanical properties :
#
#
# Convention : Reuss Voigt Hill
#
# Bulk Modulus (GPa) = 27.13564 80.57843 53.85704
# Shear Modulus (GPa) = 14.45442 22.77078 18.61260
#
# Velocity S-wave (km/s) = 2.96435 3.72065 3.36382
# Velocity P-wave (km/s) = 5.31162 8.21245 6.91584
#
# Compressibility (1/GPa) = 0.03685191
#
# Stress axis : x y z
#
# Youngs Moduli (GPa) = 85.14749 48.29710 11.59999
#
# Poissons Ratio (x) = 0.18442 0.16349
# Poissons Ratio (y) = 0.32513 0.26668
# Poissons Ratio (z) = 1.20008 1.11034
#
# Static dielectric constant tensor:
#      x y z
#    x 1.536830 0.000000 0.000000 
#    y 0.000000 1.541610 0.000000 
#    z 0.000000 0.000000 1.551060 
# 
# From -- ./inp_files/6433.got.cif
#   From: 2010.05.17/outbox.cif.g08.bks.cpg/sg71_4_cif.got.tgz:6433.got - 2010.06.03 16:22:01.
