data_PCOD9521775
_publ_section_title
;
Structure prediction by ZEFSAII (Michael W. Deem and Ramdas Pophale) SiO2 
 PCOD9521775
Probable space group: I M M M
;
_chemical_formula_sum "Si O2"
_cell_formula_units_Z 64
_cell_length_a 8.186723
_cell_length_b 25.127726
_cell_length_c 14.333923
_cell_angle_alpha 90.000000
_cell_angle_beta 90.000000
_cell_angle_gamma 90.000000
_cell_volume 2948.684800
_symmetry_space_group_name_H-M "I M M M"
_symmetry_group_IT_number 71
_symmetry_cell_setting 'orthorhombic'
loop_
_space_group_symop_operation_xyz
x,y,z
-x,-y,z
x,-y,-z
-x,y,-z
-x,-y,-z
x,y,-z
-x,y,z
x,-y,z
1/2+x,1/2+y,1/2+z
1/2-x,1/2-y,1/2+z
1/2+x,1/2-y,1/2-z
1/2-x,1/2+y,1/2-z
1/2-x,1/2-y,1/2-z
1/2+x,1/2+y,1/2-z
1/2-x,1/2+y,1/2+z
1/2+x,1/2-y,1/2+z
loop_
_atom_site_type_symbol
_atom_site_label
_atom_site_fract_x
_atom_site_fract_y
_atom_site_fract_z
Si Si1 0.182307 0.777296 0.614117
Si Si2 0.694139 0.500000 0.798422
Si Si3 0.000000 0.906533 0.893613
Si Si4 0.310718 0.107963 0.387725
Si Si5 0.000000 0.789121 0.115069
Si Si6 0.740730 0.000000 0.893626
O O1 0.182085 0.776320 0.500000
O O2 0.220841 0.838043 0.642072
O O3 0.333158 0.740329 0.644156
O O4 0.000000 0.761010 0.644081
O O5 0.500000 0.500000 0.772548
O O6 0.727351 0.554081 0.853503
O O7 0.821899 0.500000 0.711615
O O8 0.000000 0.849545 0.845723
O O9 0.153222 0.945823 0.886362
O O10 0.000000 0.889615 0.000000
O O11 0.310081 0.107456 0.500000
O O12 0.500000 0.109843 0.357262
O O13 0.000000 0.785205 0.000000
O O14 0.673219 0.000000 0.000000
#
# Coordination Sequence:
#
# PCOD9521775 Si02
#       6
#    16   8   8  16   8   8
#     4   9  16  28  48  78 117 154 189 230 274 333
#     4  12  22  31  53  85 108 147 191 247 288 343
#     4   8  14  29  56  82 105 138 186 236 292 358
#     4  10  20  35  52  76 117 163 198 229 276 343
#     4   9  15  26  51  85 112 147 188 226 284 349
#     4   9  18  36  58  86 111 141 191 248 303 349
#
# _framework density 21.704592000000002
#
# number of rings (size 3 to 8) (size 9 to 14) (size 15 to 20)
#    0.000    2.500    2.500    2.250    0.000    3.000 
#    0.000    0.000    0.000    6.000    0.000    7.875 
#    0.000    8.500    0.000    0.000    0.000    0.000 
#
# Total GULP energy -178240.163363 kJ/mol
# GULP energy per Si atom -5570.005105 kJ/mol
# Density = 2.165519 g / cm^3
# Si number density = 21.704592 Si / 1000 Ang^3
#
#
#
# Elastic Constant Matrix: (Units=GPa)
#
#
# Indices 1 2 3 4 5 6 
#
# 1 173.7170 85.1623 26.3655 0.0000 0.0000 0.0000
# 2 85.1623 183.7182 17.3203 0.0000 0.0000 0.0000
# 3 26.3655 17.3203 38.6257 -0.0001 0.0001 0.0000
# 4 0.0000 0.0000 -0.0001 -8.0252 0.0001 0.0000
# 5 0.0000 0.0000 0.0001 0.0001 -39.5473 0.0000
# 6 0.0000 0.0000 0.0000 0.0000 0.0000 -7.3541
#
#
#
# Elastic Compliance Matrix: (Units=1/GPa)
#
#
# Indices 1 2 3 4 5 6 
#
# 1 0.007990 -0.003331 -0.003961 0.000000 0.000000 0.000000
# 2 -0.003331 0.007072 -0.000898 0.000000 0.000000 0.000000
# 3 -0.003961 -0.000898 0.028995 0.000000 0.000000 0.000000
# 4 0.000000 0.000000 0.000000 -0.124607 0.000000 0.000000
# 5 0.000000 0.000000 0.000000 0.000000 -0.025286 0.000000
# 6 0.000000 0.000000 0.000000 0.000000 0.000000 -0.135979
#
#
# Mechanical properties :
#
#
# Convention : Reuss Voigt Hill
#
# Bulk Modulus (GPa) = 36.12741 72.63968 54.38354
# Shear Modulus (GPa) = -23.12562 6.82886 -8.14838
#
# Velocity S-wave (km/s) = -3.26770 1.77570 -1.93968
# Velocity P-wave (km/s) = 1.56335 6.14363 4.48265
#
# Compressibility (1/GPa) = 0.02767982
#
# Stress axis : x y z
#
# Youngs Moduli (GPa) = 125.15098 141.41075 34.48812
#
# Poissons Ratio (x) = 0.47097 0.13660
# Poissons Ratio (y) = 0.41682 0.03096
# Poissons Ratio (z) = 0.49568 0.12693
#
# Static dielectric constant tensor:
#      x y z
#    x 1.803130 0.000000 0.000000 
#    y 0.000000 1.808960 0.000000 
#    z 0.000000 0.000000 1.852410 
# 
# From -- ./inp_files/31226.got.cif
#   From: 2010.05.17/outbox.cif.g08.bks.cpg/sg71_16_cif.got.tgz:31226.got - 2010.06.03 16:22:01.
