data_PCOD9521808
_publ_section_title
;
Structure prediction by ZEFSAII (Michael W. Deem and Ramdas Pophale) SiO2 
 PCOD9521808
Probable space group: I M M M
;
_chemical_formula_sum "Si O2"
_cell_formula_units_Z 112
_cell_length_a 25.004838
_cell_length_b 14.331462
_cell_length_c 15.670598
_cell_angle_alpha 90.000000
_cell_angle_beta 90.000000
_cell_angle_gamma 90.000000
_cell_volume 5615.651024
_symmetry_space_group_name_H-M "I M M M"
_symmetry_group_IT_number 71
_symmetry_cell_setting 'orthorhombic'
loop_
_space_group_symop_operation_xyz
x,y,z
-x,-y,z
x,-y,-z
-x,y,-z
-x,-y,-z
x,y,-z
-x,y,z
x,-y,z
1/2+x,1/2+y,1/2+z
1/2-x,1/2-y,1/2+z
1/2+x,1/2-y,1/2-z
1/2-x,1/2+y,1/2-z
1/2-x,1/2-y,1/2-z
1/2+x,1/2+y,1/2-z
1/2-x,1/2+y,1/2+z
1/2+x,1/2-y,1/2+z
loop_
_atom_site_type_symbol
_atom_site_label
_atom_site_fract_x
_atom_site_fract_y
_atom_site_fract_z
Si Si1 0.868761 0.111952 0.595036
Si Si2 0.663824 0.104495 0.400258
Si Si3 0.560253 0.793337 0.347517
Si Si4 0.324730 0.894955 0.102176
Si Si5 0.936086 0.892523 0.238569
Si Si6 0.058036 0.612802 0.661254
Si Si7 0.760038 0.224339 0.601808
O O1 0.887325 0.141628 0.500000
O O2 0.907617 0.135065 0.673076
O O3 0.810573 0.155554 0.609148
O O4 0.864367 0.000000 0.594090
O O5 0.677950 0.095206 0.500000
O O6 0.605601 0.149832 0.395230
O O7 0.707544 0.174933 0.361512
O O8 0.664409 0.000000 0.362659
O O9 0.500000 0.798434 0.383367
O O10 0.576018 0.685282 0.332443
O O11 0.558405 0.840138 0.253787
O O12 0.385758 0.861901 0.117957
O O13 0.281280 0.822546 0.137342
O O14 0.318544 0.000000 0.135821
O O15 0.318659 0.898441 0.000000
O O16 0.000000 0.889108 0.251213
O O17 0.921659 0.000000 0.217408
O O18 0.058783 0.500000 0.668741
O O19 0.000000 0.637069 0.620630
O O20 0.750808 0.239263 0.500000
#
# Coordination Sequence:
#
# PCOD9521808 Si02
#       7
#    16  16  16  16  16  16  16
#     4   9  16  27  47  74 102 135 176 216 247 276
#     4  10  21  37  58  81  99 117 149 198 258 321
#     4  10  20  35  54  74  99 129 158 195 251 312
#     4   9  17  29  46  69 100 140 181 213 237 270
#     4   9  18  32  49  71 103 142 177 206 239 281
#     4   9  17  29  46  70 101 136 172 209 251 295
#     4   9  17  31  49  69  97 130 162 201 252 302
#
# _framework density 19.944258999999999
#
# number of rings (size 3 to 8) (size 9 to 14) (size 15 to 20)
#    0.000    2.714    0.000    1.714    0.000    3.429 
#    0.000    7.143    0.000    9.857    0.000    2.000 
#    0.000    0.000    0.000    0.000    0.000    0.000 
#
# Total GULP energy -312098.045482 kJ/mol
# GULP energy per Si atom -5573.179384 kJ/mol
# Density = 1.989887 g / cm^3
# Si number density = 19.944259 Si / 1000 Ang^3
#
#
#
# Elastic Constant Matrix: (Units=GPa)
#
#
# Indices 1 2 3 4 5 6 
#
# 1 87.7104 69.5607 6.8557 0.0000 0.0000 0.0000
# 2 69.5607 96.8255 11.8468 0.0000 0.0000 0.0000
# 3 6.8557 11.8468 13.5138 0.0000 0.0000 0.0000
# 4 0.0000 0.0000 0.0000 18.5052 0.0000 0.0000
# 5 0.0000 0.0000 0.0000 0.0000 39.1726 0.0000
# 6 0.0000 0.0000 0.0000 0.0000 0.0000 28.0394
#
#
#
# Elastic Compliance Matrix: (Units=1/GPa)
#
#
# Indices 1 2 3 4 5 6 
#
# 1 0.026660 -0.019600 0.003658 0.000000 0.000000 0.000000
# 2 -0.019600 0.025979 -0.012831 0.000000 0.000000 0.000000
# 3 0.003658 -0.012831 0.083391 0.000000 0.000000 0.000000
# 4 0.000000 0.000000 0.000000 0.054039 0.000000 0.000000
# 5 0.000000 0.000000 0.000000 0.000000 0.025528 0.000000
# 6 0.000000 0.000000 0.000000 0.000000 0.000000 0.035664
#
#
# Mechanical properties :
#
#
# Convention : Reuss Voigt Hill
#
# Bulk Modulus (GPa) = 12.74167 41.61955 27.18061
# Shear Modulus (GPa) = 14.92684 24.46255 19.69470
#
# Velocity S-wave (km/s) = 2.73871 3.50601 3.14584
# Velocity P-wave (km/s) = 4.05009 6.10759 5.18198
#
# Compressibility (1/GPa) = 0.07848267
#
# Stress axis : x y z
#
# Youngs Moduli (GPa) = 37.51002 38.49312 11.99174
#
# Poissons Ratio (x) = 0.75447 -0.04386
# Poissons Ratio (y) = 0.73520 0.15386
# Poissons Ratio (z) = -0.13720 0.49389
#
# Static dielectric constant tensor:
#      x y z
#    x 1.698420 0.000000 0.000000 
#    y 0.000000 1.762620 0.000000 
#    z 0.000000 0.000000 1.709960 
# 
# From -- ./inp_files/34883.got.cif
#   From: 2010.05.17/outbox.cif.g08.bks.cpg/sg71_18_cif.got.tgz:34883.got - 2010.06.03 16:22:01.
