data_PCOD9521593
_publ_section_title
;
Structure prediction by ZEFSAII (Michael W. Deem and Ramdas Pophale) SiO2 
 PCOD9521593
Probable space group: I M M M
;
_chemical_formula_sum "Si O2"
_cell_formula_units_Z 88
_cell_length_a 19.330204
_cell_length_b 8.873566
_cell_length_c 27.986309
_cell_angle_alpha 90.000000
_cell_angle_beta 90.000000
_cell_angle_gamma 90.000000
_cell_volume 4800.431160
_symmetry_space_group_name_H-M "I M M M"
_symmetry_group_IT_number 71
_symmetry_cell_setting 'orthorhombic'
loop_
_space_group_symop_operation_xyz
x,y,z
-x,-y,z
x,-y,-z
-x,y,-z
-x,-y,-z
x,y,-z
-x,y,z
x,-y,z
1/2+x,1/2+y,1/2+z
1/2-x,1/2-y,1/2+z
1/2+x,1/2-y,1/2-z
1/2-x,1/2+y,1/2-z
1/2-x,1/2-y,1/2-z
1/2+x,1/2+y,1/2-z
1/2-x,1/2+y,1/2+z
1/2+x,1/2-y,1/2+z
loop_
_atom_site_type_symbol
_atom_site_label
_atom_site_fract_x
_atom_site_fract_y
_atom_site_fract_z
Si Si1 0.583986 0.173202 0.216020
Si Si2 0.578924 0.183068 0.500000
Si Si3 0.581943 0.319798 0.316424
Si Si4 0.800304 0.319764 0.555756
Si Si5 0.418153 0.679366 0.115829
Si Si6 0.337245 0.818714 0.594698
O O1 0.500000 0.172694 0.216075
O O2 0.604344 0.254749 0.265000
O O3 0.604428 0.259477 0.167880
O O4 0.607567 0.000000 0.215020
O O5 0.500000 0.236827 0.500000
O O6 0.618739 0.228924 0.547871
O O7 0.577740 0.000000 0.500000
O O8 0.500000 0.283714 0.323055
O O9 0.588789 0.500000 0.316682
O O10 0.626026 0.246862 0.358634
O O11 0.791717 0.278422 0.500000
O O12 0.796533 0.500000 0.559801
O O13 0.872720 0.260543 0.576004
O O14 0.739277 0.244221 0.586207
O O15 0.500000 0.711075 0.110259
O O16 0.408505 0.500000 0.113665
O O17 0.336154 0.000000 0.596947
#
# Coordination Sequence:
#
# PCOD9521593 Si02
#       6
#    16   8  16  16  16  16
#     4   9  17  32  56  85 116 150 188 231 282 338
#     4   9  18  32  53  81 110 143 188 239 283 328
#     4  10  20  34  54  83 119 156 194 237 284 335
#     4  11  24  41  60  82 114 153 191 234 288 346
#     4  10  21  38  62  90 117 146 185 233 284 342
#     4  11  21  36  57  81 113 152 195 240 287 339
#
# _framework density 18.331686999999999
#
# number of rings (size 3 to 8) (size 9 to 14) (size 15 to 20)
#    0.000    1.909    0.909    3.273    0.000    6.545 
#    0.000    2.727    0.000    2.182    0.000    0.000 
#    0.000    0.000    0.000    0.000    0.000    0.000 
#
# Total GULP energy -245728.779516 kJ/mol
# GULP energy per Si atom -5584.744989 kJ/mol
# Density = 1.828996 g / cm^3
# Si number density = 18.331687 Si / 1000 Ang^3
#
#
#
# Elastic Constant Matrix: (Units=GPa)
#
#
# Indices 1 2 3 4 5 6 
#
# 1 59.8723 35.7149 31.0944 0.0000 0.0000 0.0000
# 2 35.7149 70.2555 33.0574 0.0000 0.0000 0.0000
# 3 31.0944 33.0574 69.9613 0.0000 0.0000 0.0000
# 4 0.0000 0.0000 0.0000 31.1776 0.0000 0.0000
# 5 0.0000 0.0000 0.0000 0.0000 -31.4464 0.0000
# 6 0.0000 0.0000 0.0000 0.0000 0.0000 27.5526
#
#
#
# Elastic Compliance Matrix: (Units=1/GPa)
#
#
# Indices 1 2 3 4 5 6 
#
# 1 0.026341 -0.010135 -0.006918 0.000000 0.000000 0.000000
# 2 -0.010135 0.022203 -0.005986 0.000000 0.000000 0.000000
# 3 -0.006918 -0.005986 0.020197 0.000000 0.000000 0.000000
# 4 0.000000 0.000000 0.000000 0.032074 0.000000 0.000000
# 5 0.000000 0.000000 0.000000 0.000000 -0.031800 0.000000
# 6 0.000000 0.000000 0.000000 0.000000 0.000000 0.036294
#
#
# Mechanical properties :
#
#
# Convention : Reuss Voigt Hill
#
# Bulk Modulus (GPa) = 44.12873 44.42471 44.27672
# Shear Modulus (GPa) = 31.45771 12.13826 21.79798
#
# Velocity S-wave (km/s) = 4.14699 2.57601 3.45206
# Velocity P-wave (km/s) = 6.85964 5.75623 6.33202
#
# Compressibility (1/GPa) = 0.02266097
#
# Stress axis : x y z
#
# Youngs Moduli (GPa) = 37.96338 45.03896 49.51209
#
# Poissons Ratio (x) = 0.45649 0.34254
# Poissons Ratio (y) = 0.38478 0.29640
# Poissons Ratio (z) = 0.26264 0.26962
#
# Static dielectric constant tensor:
#      x y z
#    x 1.623780 0.000000 0.000000 
#    y 0.000000 1.608990 0.000000 
#    z 0.000000 0.000000 1.605950 
# 
# From -- ./inp_files/10506.got.cif
#   From: 2010.05.17/outbox.cif.g08.bks.cpg/sg71_6_cif.got.tgz:10506.got - 2010.06.03 16:22:01.
