data_PCOD9521080
_publ_section_title
;
Structure prediction by ZEFSAII (Michael W. Deem and Ramdas Pophale) SiO2 
 PCOD9521080
Probable space group: I M M M
;
_chemical_formula_sum "Si O2"
_cell_formula_units_Z 88
_cell_length_a 23.511609
_cell_length_b 21.928323
_cell_length_c 9.078991
_cell_angle_alpha 90.000000
_cell_angle_beta 90.000000
_cell_angle_gamma 90.000000
_cell_volume 4680.856810
_symmetry_space_group_name_H-M "I M M M"
_symmetry_group_IT_number 71
_symmetry_cell_setting 'orthorhombic'
loop_
_space_group_symop_operation_xyz
x,y,z
-x,-y,z
x,-y,-z
-x,y,-z
-x,-y,-z
x,y,-z
-x,y,z
x,-y,z
1/2+x,1/2+y,1/2+z
1/2-x,1/2-y,1/2+z
1/2+x,1/2-y,1/2-z
1/2-x,1/2+y,1/2-z
1/2-x,1/2-y,1/2-z
1/2+x,1/2+y,1/2-z
1/2-x,1/2+y,1/2+z
1/2+x,1/2-y,1/2+z
loop_
_atom_site_type_symbol
_atom_site_label
_atom_site_fract_x
_atom_site_fract_y
_atom_site_fract_z
Si Si1 0.843667 0.778939 0.676028
Si Si2 0.432016 0.628821 0.676754
Si Si3 0.671583 0.072594 0.163042
Si Si4 0.936088 0.426104 0.835689
Si Si5 0.717606 0.826584 0.671001
Si Si6 0.568960 0.500000 0.829282
O O1 0.852502 0.777531 0.500000
O O2 0.893636 0.817496 0.753097
O O3 0.782378 0.809983 0.708745
O O4 0.829611 0.711939 0.739611
O O5 0.424393 0.627011 0.500000
O O6 0.500000 0.637800 0.705517
O O7 0.414957 0.563069 0.747214
O O8 0.607275 0.089157 0.207888
O O9 0.709344 0.103646 0.286217
O O10 0.676381 0.000000 0.165759
O O11 0.686499 0.094645 0.000000
O O12 0.938189 0.500000 0.840064
O O13 0.000000 0.403772 0.811994
O O14 0.916986 0.406313 0.000000
O O15 0.709403 0.813787 0.500000
O O16 0.500000 0.500000 0.829908
O O17 0.588158 0.500000 0.000000
#
# Coordination Sequence:
#
# PCOD9521080 Si02
#       6
#    16  16  16  16  16   8
#     4  10  21  38  60  83 107 142 184 228 275 328
#     4  10  20  35  57  86 119 153 188 228 279 337
#     4  10  20  33  51  77 108 140 175 221 273 322
#     4   8  14  26  45  68  95 130 169 207 253 310
#     4  10  21  38  59  80 105 142 184 227 275 330
#     4   9  17  31  53  81 115 153 189 227 274 329
#
# _framework density 18.799976999999998
#
# number of rings (size 3 to 8) (size 9 to 14) (size 15 to 20)
#    0.000    2.455    0.000    3.000    0.000    5.818 
#    1.636    2.727    0.000    5.455    0.000    0.000 
#    0.000    0.000    0.000    0.000    0.000    0.000 
#
# Total GULP energy -245123.961541 kJ/mol
# GULP energy per Si atom -5570.999126 kJ/mol
# Density = 1.875719 g / cm^3
# Si number density = 18.799977 Si / 1000 Ang^3
#
#
#
# Elastic Constant Matrix: (Units=GPa)
#
#
# Indices 1 2 3 4 5 6 
#
# 1 54.6104 41.4563 38.6977 0.0000 0.0000 0.0000
# 2 41.4563 59.8214 43.0566 0.0000 0.0000 0.0000
# 3 38.6977 43.0566 70.0748 0.0000 0.0000 0.0000
# 4 0.0000 0.0000 0.0000 32.4773 0.0000 0.0000
# 5 0.0000 0.0000 0.0000 0.0000 26.1492 0.0000
# 6 0.0000 0.0000 0.0000 0.0000 0.0000 23.0539
#
#
#
# Elastic Compliance Matrix: (Units=1/GPa)
#
#
# Indices 1 2 3 4 5 6 
#
# 1 0.041888 -0.022195 -0.009495 0.000000 0.000000 0.000000
# 2 -0.022195 0.041731 -0.013384 0.000000 0.000000 0.000000
# 3 -0.009495 -0.013384 0.027738 0.000000 0.000000 0.000000
# 4 0.000000 0.000000 0.000000 0.030791 0.000000 0.000000
# 5 0.000000 0.000000 0.000000 0.000000 0.038242 0.000000
# 6 0.000000 0.000000 0.000000 0.000000 0.000000 0.043377
#
#
# Mechanical properties :
#
#
# Convention : Reuss Voigt Hill
#
# Bulk Modulus (GPa) = 47.14976 47.88086 47.51531
# Shear Modulus (GPa) = 15.57711 20.42247 17.99979
#
# Velocity S-wave (km/s) = 2.88161 3.29949 3.09760
# Velocity P-wave (km/s) = 6.01712 6.32767 6.17435
#
# Compressibility (1/GPa) = 0.02120902
#
# Stress axis : x y z
#
# Youngs Moduli (GPa) = 23.87292 23.96319 36.05210
#
# Poissons Ratio (x) = 0.53186 0.34231
# Poissons Ratio (y) = 0.52985 0.48253
# Poissons Ratio (z) = 0.22667 0.32073
#
# Static dielectric constant tensor:
#      x y z
#    x 1.654800 0.000000 0.000000 
#    y 0.000000 1.701970 0.000000 
#    z 0.000000 0.000000 1.661960 
# 
# From -- ./inp_files/12550.got.cif
#   From: 2010.05.17/outbox.cif.g08.bks.cpg/sg71_7_cif.got.tgz:12550.got - 2010.06.03 16:22:01.
