data_PCOD9521143
_publ_section_title
;
Structure prediction by ZEFSAII (Michael W. Deem and Ramdas Pophale) SiO2 
 PCOD9521143
Probable space group: I M M M
;
_chemical_formula_sum "Si O2"
_cell_formula_units_Z 88
_cell_length_a 7.432438
_cell_length_b 28.806447
_cell_length_c 18.445819
_cell_angle_alpha 90.000000
_cell_angle_beta 90.000000
_cell_angle_gamma 90.000000
_cell_volume 3949.289162
_symmetry_space_group_name_H-M "I M M M"
_symmetry_group_IT_number 71
_symmetry_cell_setting 'orthorhombic'
loop_
_space_group_symop_operation_xyz
x,y,z
-x,-y,z
x,-y,-z
-x,y,-z
-x,-y,-z
x,y,-z
-x,y,z
x,-y,z
1/2+x,1/2+y,1/2+z
1/2-x,1/2-y,1/2+z
1/2+x,1/2-y,1/2-z
1/2-x,1/2+y,1/2-z
1/2-x,1/2-y,1/2-z
1/2+x,1/2+y,1/2-z
1/2-x,1/2+y,1/2+z
1/2+x,1/2-y,1/2+z
loop_
_atom_site_type_symbol
_atom_site_label
_atom_site_fract_x
_atom_site_fract_y
_atom_site_fract_z
Si Si1 0.782955 0.445942 0.420416
Si Si2 0.293972 0.901541 0.645593
Si Si3 0.780896 0.500000 0.085427
Si Si4 0.202470 0.873255 0.803821
Si Si5 0.792988 0.306735 0.086699
Si Si6 0.720791 0.703934 0.584084
O O1 0.728620 0.428523 0.500000
O O2 0.737277 0.500000 0.415683
O O3 0.698756 0.416624 0.357546
O O4 0.000000 0.442412 0.415566
O O5 0.500000 0.902746 0.617762
O O6 0.218581 0.951977 0.623552
O O7 0.294975 0.890879 0.730995
O O8 0.208836 0.854972 0.612080
O O9 0.000000 0.500000 0.090695
O O10 0.734274 0.500000 0.000000
O O11 0.280411 0.832491 0.854823
O O12 0.000000 0.859186 0.783062
O O13 0.718415 0.255953 0.104992
O O14 0.000000 0.306412 0.114400
O O15 0.798252 0.307487 0.000000
O O16 0.774918 0.693985 0.500000
O O17 0.500000 0.703326 0.583221
#
# Coordination Sequence:
#
# PCOD9521143 Si02
#       6
#    16  16   8  16  16  16
#     4   9  19  36  56  75  97 130 173 220 265 304
#     4  10  20  33  52  78 104 133 168 215 269 313
#     4   9  18  34  57  81 100 123 166 221 267 308
#     4  11  22  33  48  74 109 144 174 206 247 309
#     4   8  14  28  52  77  98 126 172 223 265 309
#     4   8  15  29  49  73 101 134 172 215 258 298
#
# _framework density 22.282491
#
# number of rings (size 3 to 8) (size 9 to 14) (size 15 to 20)
#    0.000    2.818    0.000    3.273    1.273    4.364 
#    0.000    0.909    0.000    3.818    0.000    5.091 
#    0.000    0.000    0.000    0.000    0.000    0.000 
#
# Total GULP energy -245370.543868 kJ/mol
# GULP energy per Si atom -5576.603270 kJ/mol
# Density = 2.223178 g / cm^3
# Si number density = 22.282491 Si / 1000 Ang^3
#
#
#
# Elastic Constant Matrix: (Units=GPa)
#
#
# Indices 1 2 3 4 5 6 
#
# 1 65.7510 9.0753 -0.4704 0.0000 0.0000 0.0000
# 2 9.0753 174.4318 83.8696 0.0000 0.0000 0.0000
# 3 -0.4704 83.8696 85.1306 -0.0001 0.0000 0.0000
# 4 0.0000 0.0000 -0.0001 145.9964 0.0000 0.0000
# 5 0.0000 0.0000 0.0000 0.0000 21.0485 0.0000
# 6 0.0000 0.0000 0.0000 0.0000 0.0000 -31.9799
#
#
#
# Elastic Compliance Matrix: (Units=1/GPa)
#
#
# Indices 1 2 3 4 5 6 
#
# 1 0.015442 -0.001604 0.001666 0.000000 0.000000 0.000000
# 2 -0.001604 0.011059 -0.010904 0.000000 0.000000 0.000000
# 3 0.001666 -0.010904 0.022499 0.000000 0.000000 0.000000
# 4 0.000000 0.000000 0.000000 0.006849 0.000000 0.000000
# 5 0.000000 0.000000 0.000000 0.000000 0.047509 0.000000
# 6 0.000000 0.000000 0.000000 0.000000 0.000000 -0.031270
#
#
# Mechanical properties :
#
#
# Convention : Reuss Voigt Hill
#
# Bulk Modulus (GPa) = 36.61034 56.69580 46.65307
# Shear Modulus (GPa) = 48.60015 42.53559 45.56787
#
# Velocity S-wave (km/s) = 4.67528 4.37386 4.52708
# Velocity P-wave (km/s) = 6.75353 7.14191 6.95043
#
# Compressibility (1/GPa) = 0.02731469
#
# Stress axis : x y z
#
# Youngs Moduli (GPa) = 64.75734 90.42070 44.44685
#
# Poissons Ratio (x) = 0.14508 -0.07405
# Poissons Ratio (y) = 0.10390 0.48467
# Poissons Ratio (z) = -0.10789 0.98599
#
# Static dielectric constant tensor:
#      x y z
#    x 1.944310 0.000000 0.000000 
#    y 0.000000 1.837290 0.000000 
#    z 0.000000 0.000000 1.771960 
# 
# From -- ./inp_files/42512.got.cif
#   From: 2010.05.17/outbox.cif.g08.bks.cpg/sg71_22_cif.got.tgz:42512.got - 2010.06.03 16:22:01.
