data_PCOD9521163
_publ_section_title
;
Structure prediction by ZEFSAII (Michael W. Deem and Ramdas Pophale) SiO2 
 PCOD9521163
Probable space group: I M M M
;
_chemical_formula_sum "Si O2"
_cell_formula_units_Z 64
_cell_length_a 13.145131
_cell_length_b 7.798675
_cell_length_c 25.305736
_cell_angle_alpha 90.000000
_cell_angle_beta 90.000000
_cell_angle_gamma 90.000000
_cell_volume 2594.207518
_symmetry_space_group_name_H-M "I M M M"
_symmetry_group_IT_number 71
_symmetry_cell_setting 'orthorhombic'
loop_
_space_group_symop_operation_xyz
x,y,z
-x,-y,z
x,-y,-z
-x,y,-z
-x,-y,-z
x,y,-z
-x,y,z
x,-y,z
1/2+x,1/2+y,1/2+z
1/2-x,1/2-y,1/2+z
1/2+x,1/2-y,1/2-z
1/2-x,1/2+y,1/2-z
1/2-x,1/2-y,1/2-z
1/2+x,1/2+y,1/2-z
1/2-x,1/2+y,1/2+z
1/2+x,1/2-y,1/2+z
loop_
_atom_site_type_symbol
_atom_site_label
_atom_site_fract_x
_atom_site_fract_y
_atom_site_fract_z
Si Si1 0.608322 0.696185 0.936803
Si Si2 0.828998 0.201599 0.828703
Si Si3 0.832407 0.705661 0.058537
Si Si4 0.112173 0.792772 0.286868
O O1 0.500000 0.774137 0.920329
O O2 0.612279 0.500000 0.914727
O O3 0.718620 0.779950 0.932304
O O4 0.602031 0.678220 0.000000
O O5 0.878117 0.263374 0.883633
O O6 0.872371 0.272127 0.773323
O O7 0.707698 0.236504 0.821903
O O8 0.845525 0.000000 0.827971
O O9 0.824928 0.500000 0.054063
O O10 0.870241 0.764102 0.000000
O O11 0.000000 0.740426 0.304743
O O12 0.115288 0.000000 0.285503
#
# Coordination Sequence:
#
# PCOD9521163 Si02
#       4
#    16  16  16  16
#     4   7  10  18  33  53  77 109 153 196 224 257
#     4  10  20  33  52  80 108 131 165 217 268 307
#     4   9  17  29  46  69 100 140 178 206 242 302
#     4   9  19  37  58  76  98 134 176 213 255 314
#
# _framework density 24.670347
#
# number of rings (size 3 to 8) (size 9 to 14) (size 15 to 20)
#    0.000    3.250    0.000    3.000    0.000    3.000 
#    0.000    2.500    0.000    0.750    0.000   10.500 
#    0.000    0.000    0.000    0.000    0.000    0.000 
#
# Total GULP energy -178187.472412 kJ/mol
# GULP energy per Si atom -5568.358513 kJ/mol
# Density = 2.461420 g / cm^3
# Si number density = 24.670347 Si / 1000 Ang^3
#
#
#
# Elastic Constant Matrix: (Units=GPa)
#
#
# Indices 1 2 3 4 5 6 
#
# 1 78.2002 -6.9811 22.9372 0.0000 0.0000 0.0000
# 2 -6.9811 37.0730 16.3376 0.0000 0.0000 0.0000
# 3 22.9372 16.3376 257.5432 0.0000 0.0000 0.0000
# 4 0.0000 0.0000 0.0000 25.0468 0.0000 0.0000
# 5 0.0000 0.0000 0.0000 0.0000 -17.6777 0.0000
# 6 0.0000 0.0000 0.0000 0.0000 0.0000 2.8896
#
#
#
# Elastic Compliance Matrix: (Units=1/GPa)
#
#
# Indices 1 2 3 4 5 6 
#
# 1 0.013480 0.003156 -0.001401 0.000000 0.000000 0.000000
# 2 0.003156 0.028488 -0.002088 0.000000 0.000000 0.000000
# 3 -0.001401 -0.002088 0.004140 0.000000 0.000000 0.000000
# 4 0.000000 0.000000 0.000000 0.039925 0.000000 0.000000
# 5 0.000000 0.000000 0.000000 0.000000 -0.056569 0.000000
# 6 0.000000 0.000000 0.000000 0.000000 0.000000 0.346064
#
#
# Mechanical properties :
#
#
# Convention : Reuss Voigt Hill
#
# Bulk Modulus (GPa) = 22.00602 48.60042 35.30322
# Shear Modulus (GPa) = 12.77650 24.75327 18.76489
#
# Velocity S-wave (km/s) = 2.27819 3.17102 2.76094
# Velocity P-wave (km/s) = 3.98241 5.75759 4.95023
#
# Compressibility (1/GPa) = 0.04544211
#
# Stress axis : x y z
#
# Youngs Moduli (GPa) = 74.18250 35.10209 241.54183
#
# Poissons Ratio (x) = -0.11077 0.33834
# Poissons Ratio (y) = -0.23410 0.50440
# Poissons Ratio (z) = 0.10391 0.07330
#
# Static dielectric constant tensor:
#      x y z
#    x 2.039820 0.000000 0.000000 
#    y 0.000000 1.914910 0.000000 
#    z 0.000000 0.000000 2.022410 
# 
# From -- ./inp_files/69663.got.cif
#   From: 2010.05.17/outbox.cif.g08.bks.cpg/sg71_35_cif.got.tgz:69663.got - 2010.06.03 16:22:01.
