data_PCOD9521891
_publ_section_title
;
Structure prediction by ZEFSAII (Michael W. Deem and Ramdas Pophale) SiO2 
 PCOD9521891
Probable space group: I M M M
;
_chemical_formula_sum "Si O2"
_cell_formula_units_Z 104
_cell_length_a 22.248969
_cell_length_b 8.823315
_cell_length_c 27.946850
_cell_angle_alpha 90.000000
_cell_angle_beta 90.000000
_cell_angle_gamma 90.000000
_cell_volume 5486.236675
_symmetry_space_group_name_H-M "I M M M"
_symmetry_group_IT_number 71
_symmetry_cell_setting 'orthorhombic'
loop_
_space_group_symop_operation_xyz
x,y,z
-x,-y,z
x,-y,-z
-x,y,-z
-x,-y,-z
x,y,-z
-x,y,z
x,-y,z
1/2+x,1/2+y,1/2+z
1/2-x,1/2-y,1/2+z
1/2+x,1/2-y,1/2-z
1/2-x,1/2+y,1/2-z
1/2-x,1/2-y,1/2-z
1/2+x,1/2+y,1/2-z
1/2-x,1/2+y,1/2+z
1/2+x,1/2-y,1/2+z
loop_
_atom_site_type_symbol
_atom_site_label
_atom_site_fract_x
_atom_site_fract_y
_atom_site_fract_z
Si Si1 0.500000 0.170587 0.056326
Si Si2 0.931296 0.315640 0.813456
Si Si3 0.820342 0.320013 0.878623
Si Si4 0.773880 0.318517 0.443899
Si Si5 0.890766 0.821057 0.393009
Si Si6 0.902314 0.328209 0.704567
Si Si7 0.740249 0.171451 0.800115
O O1 0.558892 0.260300 0.071418
O O2 0.500000 0.000000 0.077608
O O3 0.500000 0.156022 0.000000
O O4 0.928075 0.500000 0.812818
O O5 0.883007 0.267198 0.853764
O O6 0.915410 0.270382 0.758457
O O7 0.000000 0.271263 0.823846
O O8 0.824019 0.500000 0.886385
O O9 0.790638 0.241633 0.924848
O O10 0.771469 0.278441 0.838325
O O11 0.782782 0.280186 0.500000
O O12 0.775143 0.500000 0.438748
O O13 0.828036 0.252713 0.411312
O O14 0.917466 0.773529 0.340940
O O15 0.882673 0.000000 0.393994
O O16 0.927232 0.500000 0.700978
O O17 0.830972 0.339484 0.696867
O O18 0.750000 0.250000 0.750000
O O19 0.765007 0.000000 0.803478
#
# Coordination Sequence:
#
# PCOD9521891 Si02
#       7
#     8  16  16  16  16  16  16
#     4  11  25  45  65  81 107 157 211 251 296 355
#     4   9  19  36  58  85 117 157 201 242 287 349
#     4  11  21  36  59  88 118 150 195 247 304 361
#     4  11  24  42  63  87 116 152 196 245 304 371
#     4  12  25  39  59  89 123 155 197 251 302 348
#     4  10  20  35  55  81 116 159 201 233 281 348
#     4  11  20  32  53  81 115 153 192 233 284 341
#
# _framework density 18.956529
#
# number of rings (size 3 to 8) (size 9 to 14) (size 15 to 20)
#    0.000    1.308    3.077    3.462    1.077    4.308 
#    0.000    0.000    0.000    4.154    0.000    3.231 
#    0.000    0.000    0.000    0.000    0.000    0.000 
#
# Total GULP energy -289984.192141 kJ/mol
# GULP energy per Si atom -5576.619080 kJ/mol
# Density = 1.891338 g / cm^3
# Si number density = 18.956529 Si / 1000 Ang^3
#
#
#
# Elastic Constant Matrix: (Units=GPa)
#
#
# Indices 1 2 3 4 5 6 
#
# 1 122.0419 18.7040 41.3773 0.0000 0.0000 0.0000
# 2 18.7040 60.2099 31.7174 0.0000 0.0000 0.0000
# 3 41.3773 31.7174 85.5814 0.0000 0.0000 0.0000
# 4 0.0000 0.0000 0.0000 17.4376 0.0000 0.0000
# 5 0.0000 0.0000 0.0000 0.0000 46.6591 0.0000
# 6 0.0000 0.0000 0.0000 0.0000 0.0000 18.0566
#
#
#
# Elastic Compliance Matrix: (Units=1/GPa)
#
#
# Indices 1 2 3 4 5 6 
#
# 1 0.009823 -0.000683 -0.004496 0.000000 0.000000 0.000000
# 2 -0.000683 0.020685 -0.007336 0.000000 0.000000 0.000000
# 3 -0.004496 -0.007336 0.016577 0.000000 0.000000 0.000000
# 4 0.000000 0.000000 0.000000 0.057347 0.000000 0.000000
# 5 0.000000 0.000000 0.000000 0.000000 0.021432 0.000000
# 6 0.000000 0.000000 0.000000 0.000000 0.000000 0.055381
#
#
# Mechanical properties :
#
#
# Convention : Reuss Voigt Hill
#
# Bulk Modulus (GPa) = 45.34042 50.15897 47.74970
# Shear Modulus (GPa) = 23.40516 28.16629 25.78572
#
# Velocity S-wave (km/s) = 3.51761 3.85884 3.69217
# Velocity P-wave (km/s) = 6.36145 6.80967 6.58937
#
# Compressibility (1/GPa) = 0.02205537
#
# Stress axis : x y z
#
# Youngs Moduli (GPa) = 101.80232 48.34389 60.32327
#
# Poissons Ratio (x) = 0.03302 0.27122
# Poissons Ratio (y) = 0.06953 0.44253
# Poissons Ratio (z) = 0.45772 0.35465
#
# Static dielectric constant tensor:
#      x y z
#    x 1.607320 0.000000 0.000000 
#    y 0.000000 1.668780 0.000000 
#    z 0.000000 0.000000 1.677340 
# 
# From -- ./inp_files/66458.got.cif
#   From: 2010.05.17/outbox.cif.g08.bks.cpg/sg71_34_cif.got.tgz:66458.got - 2010.06.03 16:22:01.
