data_PCOD9521002
_publ_section_title
;
Structure prediction by ZEFSAII (Michael W. Deem and Ramdas Pophale) SiO2 
 PCOD9521002
Probable space group: I M M M
;
_chemical_formula_sum "Si O2"
_cell_formula_units_Z 72
_cell_length_a 7.784851
_cell_length_b 38.107078
_cell_length_c 14.571250
_cell_angle_alpha 90.000000
_cell_angle_beta 90.000000
_cell_angle_gamma 90.000000
_cell_volume 4322.676779
_symmetry_space_group_name_H-M "I M M M"
_symmetry_group_IT_number 71
_symmetry_cell_setting 'orthorhombic'
loop_
_space_group_symop_operation_xyz
x,y,z
-x,-y,z
x,-y,-z
-x,y,-z
-x,-y,-z
x,y,-z
-x,y,z
x,-y,z
1/2+x,1/2+y,1/2+z
1/2-x,1/2-y,1/2+z
1/2+x,1/2-y,1/2-z
1/2-x,1/2+y,1/2-z
1/2-x,1/2-y,1/2-z
1/2+x,1/2+y,1/2-z
1/2-x,1/2+y,1/2+z
1/2+x,1/2-y,1/2+z
loop_
_atom_site_type_symbol
_atom_site_label
_atom_site_fract_x
_atom_site_fract_y
_atom_site_fract_z
Si Si1 0.500000 0.039921 0.111296
Si Si2 0.805918 0.091217 0.892260
Si Si3 0.707856 0.307477 0.105549
Si Si4 0.291372 0.771225 0.893178
Si Si5 0.202252 0.339851 0.288179
O O1 0.332644 0.062349 0.137245
O O2 0.500000 0.000000 0.145520
O O3 0.500000 0.038231 0.000000
O O4 0.787435 0.126252 0.832583
O O5 0.000000 0.077697 0.885882
O O6 0.772537 0.099999 0.000000
O O7 0.500000 0.307496 0.107480
O O8 0.767935 0.267968 0.132286
O O9 0.772790 0.334933 0.179844
O O10 0.759921 0.313704 0.000000
O O11 0.500000 0.770662 0.887064
O O12 0.228860 0.803801 0.833639
O O13 0.247863 0.776840 0.000000
O O14 0.000000 0.342447 0.309360
#
# Coordination Sequence:
#
# PCOD9521002 Si02
#       5
#     8  16  16  16  16
#     4   9  18  34  54  76 105 137 165 195 236 288
#     4  10  20  33  50  75 105 134 166 200 236 286
#     4   9  18  32  45  59  85 123 169 216 258 301
#     4   8  15  27  43  62  86 122 164 205 253 301
#     4  11  19  28  46  68  94 127 163 207 254 297
#
# _framework density 16.656345000000002
#
# number of rings (size 3 to 8) (size 9 to 14) (size 15 to 20)
#    0.000    2.556    1.111    3.333    0.000    1.778 
#    0.000    3.333    0.000    2.667    0.000    0.000 
#    0.000    1.778    0.000    4.667    0.000    0.222 
#
# Total GULP energy -200828.087412 kJ/mol
# GULP energy per Si atom -5578.557984 kJ/mol
# Density = 1.661843 g / cm^3
# Si number density = 16.656345 Si / 1000 Ang^3
#
#
#
# Elastic Constant Matrix: (Units=GPa)
#
#
# Indices 1 2 3 4 5 6 
#
# 1 64.3080 37.6811 18.6501 0.0001 0.0000 0.0000
# 2 37.6811 100.6705 52.5924 0.0002 0.0000 0.0000
# 3 18.6501 52.5924 52.4488 0.0005 0.0000 0.0000
# 4 0.0001 0.0002 0.0005 15.2461 0.0000 0.0000
# 5 0.0000 0.0000 0.0000 0.0000 15.8274 0.0000
# 6 0.0000 0.0000 0.0000 0.0000 0.0000 7.3339
#
#
#
# Elastic Compliance Matrix: (Units=1/GPa)
#
#
# Indices 1 2 3 4 5 6 
#
# 1 0.019936 -0.007894 0.000826 0.000000 0.000000 0.000000
# 2 -0.007894 0.023988 -0.021246 0.000000 0.000000 0.000000
# 3 0.000826 -0.021246 0.040077 -0.000001 0.000000 0.000000
# 4 0.000000 0.000000 -0.000001 0.065591 0.000000 0.000000
# 5 0.000000 0.000000 0.000000 0.000000 0.063182 0.000000
# 6 0.000000 0.000000 0.000000 0.000000 0.000000 0.136352
#
#
# Mechanical properties :
#
#
# Convention : Reuss Voigt Hill
#
# Bulk Modulus (GPa) = 36.53239 48.36384 42.44812
# Shear Modulus (GPa) = 12.05177 14.91505 13.48341
#
# Velocity S-wave (km/s) = 2.69282 2.99567 2.84827
# Velocity P-wave (km/s) = 5.62574 6.40817 6.02966
#
# Compressibility (1/GPa) = 0.02737297
#
# Stress axis : x y z
#
# Youngs Moduli (GPa) = 50.16099 41.68823 24.95205
#
# Poissons Ratio (x) = 0.32908 -0.02062
# Poissons Ratio (y) = 0.39596 0.53014
# Poissons Ratio (z) = -0.04146 0.88572
#
# Static dielectric constant tensor:
#      x y z
#    x 1.605400 0.000000 0.000000 
#    y 0.000000 1.536880 0.000000 
#    z 0.000000 0.000000 1.556280 
# 
# From -- ./inp_files/31651.got.cif
#   From: 2010.05.17/outbox.cif.g08.bks.cpg/sg71_16_cif.got.tgz:31651.got - 2010.06.03 16:22:01.
