data_PCOD9521634
_publ_section_title
;
Structure prediction by ZEFSAII (Michael W. Deem and Ramdas Pophale) SiO2 
 PCOD9521634
Probable space group: I M M M
;
_chemical_formula_sum "Si O2"
_cell_formula_units_Z 120
_cell_length_a 29.074170
_cell_length_b 13.887224
_cell_length_c 15.280185
_cell_angle_alpha 90.000000
_cell_angle_beta 90.000000
_cell_angle_gamma 90.000000
_cell_volume 6169.520030
_symmetry_space_group_name_H-M "I M M M"
_symmetry_group_IT_number 71
_symmetry_cell_setting 'orthorhombic'
loop_
_space_group_symop_operation_xyz
x,y,z
-x,-y,z
x,-y,-z
-x,y,-z
-x,-y,-z
x,y,-z
-x,y,z
x,-y,z
1/2+x,1/2+y,1/2+z
1/2-x,1/2-y,1/2+z
1/2+x,1/2-y,1/2-z
1/2-x,1/2+y,1/2-z
1/2-x,1/2-y,1/2-z
1/2+x,1/2+y,1/2-z
1/2-x,1/2+y,1/2+z
1/2+x,1/2-y,1/2+z
loop_
_atom_site_type_symbol
_atom_site_label
_atom_site_fract_x
_atom_site_fract_y
_atom_site_fract_z
Si Si1 0.234076 0.612274 0.241493
Si Si2 0.226421 0.753150 0.601084
Si Si3 0.117287 0.717545 0.407761
Si Si4 0.447710 0.383900 0.500000
Si Si5 0.050303 0.616040 0.101701
Si Si6 0.397163 0.388971 0.319366
Si Si7 0.131697 0.686361 0.778550
Si Si8 0.446854 0.390370 0.139404
O O1 0.241178 0.500000 0.253543
O O2 0.243750 0.668758 0.332836
O O3 0.261918 0.653053 0.158448
O O4 0.180841 0.636043 0.218158
O O5 0.243847 0.751922 0.500000
O O6 0.171401 0.742457 0.595136
O O7 0.107890 0.666907 0.500000
O O8 0.109840 0.664359 0.316569
O O9 0.086969 0.813671 0.402904
O O10 0.451103 0.500000 0.500000
O O11 0.500000 0.346702 0.500000
O O12 0.419906 0.361802 0.411812
O O13 0.050551 0.500000 0.105185
O O14 0.094388 0.653068 0.152156
O O15 0.000000 0.648781 0.135875
O O16 0.053230 0.643978 0.000000
O O17 0.379355 0.500000 0.323048
O O18 0.363204 0.302536 0.291035
O O19 0.435794 0.387916 0.243334
O O20 0.500000 0.367464 0.123033
O O21 0.438073 0.500000 0.110397
#
# Coordination Sequence:
#
# PCOD9521634 Si02
#       8
#    16  16  16   8  16  16  16  16
#     4  10  21  38  62  91 117 144 185 239 288 337
#     4   9  20  40  61  85 116 150 186 229 283 349
#     4   9  19  35  53  74 103 139 179 220 268 326
#     4   9  16  26  42  64  93 137 191 235 270 320
#     4   9  19  35  53  75 106 145 188 231 276 332
#     4   9  18  31  46  68 104 147 185 225 272 327
#     4  10  20  34  55  82 109 144 184 232 284 332
#     4   9  17  29  45  68 100 137 179 226 272 318
#
# _framework density 19.45046
#
# number of rings (size 3 to 8) (size 9 to 14) (size 15 to 20)
#    0.000    2.733    0.000    1.200    0.933    6.400 
#    0.000    8.667    0.000    1.200    0.000    0.933 
#    0.000    0.000    0.000    0.000    0.000    0.000 
#
# Total GULP energy -334407.120313 kJ/mol
# GULP energy per Si atom -5573.452005 kJ/mol
# Density = 1.940619 g / cm^3
# Si number density = 19.450460 Si / 1000 Ang^3
#
#
#
# Elastic Constant Matrix: (Units=GPa)
#
#
# Indices 1 2 3 4 5 6 
#
# 1 14.9255 -1.3653 13.2524 0.0000 0.0000 0.0000
# 2 -1.3653 62.3924 16.2958 0.0000 0.0000 0.0000
# 3 13.2524 16.2958 124.4480 0.0000 0.0000 0.0000
# 4 0.0000 0.0000 0.0000 9.0491 0.0000 0.0000
# 5 0.0000 0.0000 0.0000 0.0000 -25.7823 0.0000
# 6 0.0000 0.0000 0.0000 0.0000 0.0000 24.1624
#
#
#
# Elastic Compliance Matrix: (Units=1/GPa)
#
#
# Indices 1 2 3 4 5 6 
#
# 1 0.074880 0.003853 -0.008478 0.000000 0.000000 0.000000
# 2 0.003853 0.016793 -0.002609 0.000000 0.000000 0.000000
# 3 -0.008478 -0.002609 0.009280 0.000000 0.000000 0.000000
# 4 0.000000 0.000000 0.000000 0.110508 0.000000 0.000000
# 5 0.000000 0.000000 0.000000 0.000000 -0.038786 0.000000
# 6 0.000000 0.000000 0.000000 0.000000 0.000000 0.041387
#
#
# Mechanical properties :
#
#
# Convention : Reuss Voigt Hill
#
# Bulk Modulus (GPa) = 11.56286 28.68130 20.12208
# Shear Modulus (GPa) = 19.42807 13.05803 16.24305
#
# Velocity S-wave (km/s) = 3.16389 2.59385 2.89294
# Velocity P-wave (km/s) = 4.39370 4.87325 4.63967
#
# Compressibility (1/GPa) = 0.08648382
#
# Stress axis : x y z
#
# Youngs Moduli (GPa) = 13.35471 59.54715 107.75836
#
# Poissons Ratio (x) = -0.22943 0.91362
# Poissons Ratio (y) = -0.05146 0.28117
# Poissons Ratio (z) = 0.11323 0.15538
#
# Static dielectric constant tensor:
#      x y z
#    x 1.662430 0.000000 0.000000 
#    y 0.000000 1.701750 0.000000 
#    z 0.000000 0.000000 1.725090 
# 
# From -- ./inp_files/41135.got.cif
#   From: 2010.05.17/outbox.cif.g08.bks.cpg/sg71_21_cif.got.tgz:41135.got - 2010.06.03 16:22:01.
