data_PCOD9521921
_publ_section_title
;
Structure prediction by ZEFSAII (Michael W. Deem and Ramdas Pophale) SiO2 
 PCOD9521921
Probable space group: I M M M
;
_chemical_formula_sum "Si O2"
_cell_formula_units_Z 88
_cell_length_a 31.507205
_cell_length_b 8.926175
_cell_length_c 17.872564
_cell_angle_alpha 90.000000
_cell_angle_beta 90.000000
_cell_angle_gamma 90.000000
_cell_volume 5026.458910
_symmetry_space_group_name_H-M "I M M M"
_symmetry_group_IT_number 71
_symmetry_cell_setting 'orthorhombic'
loop_
_space_group_symop_operation_xyz
x,y,z
-x,-y,z
x,-y,-z
-x,y,-z
-x,-y,-z
x,y,-z
-x,y,z
x,-y,z
1/2+x,1/2+y,1/2+z
1/2-x,1/2-y,1/2+z
1/2+x,1/2-y,1/2-z
1/2-x,1/2+y,1/2-z
1/2-x,1/2-y,1/2-z
1/2+x,1/2+y,1/2-z
1/2-x,1/2+y,1/2+z
1/2+x,1/2-y,1/2+z
loop_
_atom_site_type_symbol
_atom_site_label
_atom_site_fract_x
_atom_site_fract_y
_atom_site_fract_z
Si Si1 0.382488 0.325021 0.304067
Si Si2 0.329789 0.177919 0.916494
Si Si3 0.586743 0.325487 0.866871
Si Si4 0.951734 0.680505 0.912326
Si Si5 0.204542 0.819990 0.733450
Si Si6 0.000000 0.672627 0.589765
O O1 0.380456 0.500000 0.325387
O O2 0.402657 0.315335 0.221162
O O3 0.413773 0.243386 0.361594
O O4 0.333852 0.271104 0.289620
O O5 0.378694 0.227500 0.910448
O O6 0.307761 0.267466 0.849837
O O7 0.325875 0.000000 0.903961
O O8 0.313835 0.212110 0.000000
O O9 0.590057 0.500000 0.888693
O O10 0.541049 0.259294 0.882214
O O11 0.950976 0.500000 0.907896
O O12 0.000000 0.728586 0.889757
O O13 0.946238 0.721451 0.000000
O O14 0.250000 0.750000 0.750000
O O15 0.205902 0.000000 0.736452
O O16 0.000000 0.500000 0.615636
O O17 0.000000 0.672691 0.500000
#
# Coordination Sequence:
#
# PCOD9521921 Si02
#       6
#    16  16  16  16  16   8
#     4   9  20  36  54  79 107 137 176 220 268 324
#     4  10  20  35  56  81 108 139 178 222 267 321
#     4  10  21  35  51  74 105 140 178 222 266 313
#     4   9  19  35  54  79 110 143 182 227 273 324
#     4  10  21  38  59  83 111 143 181 228 280 334
#     4  11  23  35  47  69 102 139 180 221 261 308
#
# _framework density 17.507356000000001
#
# number of rings (size 3 to 8) (size 9 to 14) (size 15 to 20)
#    0.000    2.273    0.000    4.091    1.273    9.455 
#    0.000    1.818    0.000    1.091    0.000    0.000 
#    0.000    0.000    0.000    0.000    0.000    0.000 
#
# Total GULP energy -245381.848025 kJ/mol
# GULP energy per Si atom -5576.860182 kJ/mol
# Density = 1.746751 g / cm^3
# Si number density = 17.507356 Si / 1000 Ang^3
#
#
#
# Elastic Constant Matrix: (Units=GPa)
#
#
# Indices 1 2 3 4 5 6 
#
# 1 154.0090 40.6074 58.8890 0.0000 0.0000 0.0000
# 2 40.6074 52.1257 33.6234 0.0000 0.0000 0.0000
# 3 58.8890 33.6234 69.0382 0.0000 0.0000 0.0000
# 4 0.0000 0.0000 0.0000 -98.5181 0.0000 0.0000
# 5 0.0000 0.0000 0.0000 0.0000 15.0045 0.0000
# 6 0.0000 0.0000 0.0000 0.0000 0.0000 33.3749
#
#
#
# Elastic Compliance Matrix: (Units=1/GPa)
#
#
# Indices 1 2 3 4 5 6 
#
# 1 0.010020 -0.003343 -0.006919 0.000000 0.000000 0.000000
# 2 -0.003343 0.029087 -0.011315 0.000000 0.000000 0.000000
# 3 -0.006919 -0.011315 0.025897 0.000000 0.000000 0.000000
# 4 0.000000 0.000000 0.000000 -0.010150 0.000000 0.000000
# 5 0.000000 0.000000 0.000000 0.000000 0.066647 0.000000
# 6 0.000000 0.000000 0.000000 0.000000 0.000000 0.029963
#
#
# Mechanical properties :
#
#
# Convention : Reuss Voigt Hill
#
# Bulk Modulus (GPa) = 45.76418 60.15694 52.96056
# Shear Modulus (GPa) = 24.76466 -0.55755 12.10355
#
# Velocity S-wave (km/s) = 3.76510 -0.56494 2.63219
# Velocity P-wave (km/s) = 6.71551 5.83181 6.28920
#
# Compressibility (1/GPa) = 0.02185115
#
# Stress axis : x y z
#
# Youngs Moduli (GPa) = 99.79808 34.37949 38.61428
#
# Poissons Ratio (x) = 0.11493 0.26717
# Poissons Ratio (y) = 0.33362 0.43691
# Poissons Ratio (z) = 0.69051 0.38899
#
# Static dielectric constant tensor:
#      x y z
#    x 1.190860 0.000000 0.000000 
#    y 0.000000 1.588660 0.000000 
#    z 0.000000 0.000000 1.589410 
# 
# From -- ./inp_files/8755.got.cif
#   From: 2010.05.17/outbox.cif.g08.bks.cpg/sg71_5_cif.got.tgz:8755.got - 2010.06.03 16:22:01.
