data_PCOD9521101
_publ_section_title
;
Structure prediction by ZEFSAII (Michael W. Deem and Ramdas Pophale) SiO2 
 PCOD9521101
Probable space group: I M M M
;
_chemical_formula_sum "Si O2"
_cell_formula_units_Z 120
_cell_length_a 24.730281
_cell_length_b 28.866540
_cell_length_c 9.120222
_cell_angle_alpha 90.000000
_cell_angle_beta 90.000000
_cell_angle_gamma 90.000000
_cell_volume 6510.722610
_symmetry_space_group_name_H-M "I M M M"
_symmetry_group_IT_number 71
_symmetry_cell_setting 'orthorhombic'
loop_
_space_group_symop_operation_xyz
x,y,z
-x,-y,z
x,-y,-z
-x,y,-z
-x,-y,-z
x,y,-z
-x,y,z
x,-y,z
1/2+x,1/2+y,1/2+z
1/2-x,1/2-y,1/2+z
1/2+x,1/2-y,1/2-z
1/2-x,1/2+y,1/2-z
1/2-x,1/2-y,1/2-z
1/2+x,1/2+y,1/2-z
1/2-x,1/2+y,1/2+z
1/2+x,1/2-y,1/2+z
loop_
_atom_site_type_symbol
_atom_site_label
_atom_site_fract_x
_atom_site_fract_y
_atom_site_fract_z
Si Si1 0.935405 0.281966 0.664634
Si Si2 0.267216 0.703033 0.672286
Si Si3 0.371194 0.582931 0.173787
Si Si4 0.878077 0.813033 0.671898
Si Si5 0.142909 0.553275 0.323710
Si Si6 0.755298 0.100373 0.823308
Si Si7 0.935931 0.000000 0.824157
Si Si8 0.936144 0.373842 0.174179
O O1 0.915322 0.293029 0.500000
O O2 0.917604 0.229796 0.698463
O O3 0.917798 0.322871 0.771810
O O4 0.000000 0.282550 0.663004
O O5 0.260275 0.709180 0.500000
O O6 0.250000 0.750000 0.750000
O O7 0.328756 0.694424 0.718753
O O8 0.240088 0.653861 0.714021
O O9 0.397241 0.634271 0.191610
O O10 0.310510 0.586414 0.241004
O O11 0.406211 0.544564 0.255706
O O12 0.367944 0.572989 0.000000
O O13 0.860195 0.809996 0.500000
O O14 0.137952 0.557087 0.500000
O O15 0.133733 0.500000 0.281596
O O16 0.204196 0.568550 0.286836
O O17 0.100216 0.587455 0.250046
O O18 0.764818 0.098523 0.000000
O O19 0.000000 0.000000 0.790060
O O20 0.929739 0.000000 0.000000
O O21 0.000000 0.379310 0.212983
O O22 0.931504 0.376913 0.000000
#
# Coordination Sequence:
#
# PCOD9521101 Si02
#       8
#    16  16  16  16  16  16   8  16
#     4   9  18  34  57  82 109 147 190 229 276 337
#     4  10  20  33  51  78 113 150 187 227 275 333
#     4  10  21  38  61  89 119 152 191 242 295 344
#     4   9  19  35  55  81 114 147 184 230 283 341
#     4  10  22  39  60  86 111 144 194 243 288 344
#     4   9  20  38  58  83 116 154 190 232 288 348
#     4  11  25  43  63  87 117 159 204 241 286 343
#     4  10  22  39  57  81 115 151 187 235 294 347
#
# _framework density 18.431134
#
# number of rings (size 3 to 8) (size 9 to 14) (size 15 to 20)
#    0.000    2.333    0.000    1.400    2.800    4.533 
#    0.000    2.667    0.000    1.600    0.000    0.000 
#    0.000    0.000    0.000    0.000    0.000    0.000 
#
# Total GULP energy -334629.095944 kJ/mol
# GULP energy per Si atom -5577.151599 kJ/mol
# Density = 1.838918 g / cm^3
# Si number density = 18.431134 Si / 1000 Ang^3
#
#
#
# Elastic Constant Matrix: (Units=GPa)
#
#
# Indices 1 2 3 4 5 6 
#
# 1 67.2968 71.3008 44.3204 0.0000 0.0000 0.0000
# 2 71.3008 161.8441 66.2427 0.0000 0.0000 0.0000
# 3 44.3204 66.2427 53.1687 0.0000 0.0000 0.0000
# 4 0.0000 0.0000 0.0000 26.4225 0.0000 0.0000
# 5 0.0000 0.0000 0.0000 0.0000 26.6774 0.0000
# 6 0.0000 0.0000 0.0000 0.0000 0.0000 37.7452
#
#
#
# Elastic Compliance Matrix: (Units=1/GPa)
#
#
# Indices 1 2 3 4 5 6 
#
# 1 0.036912 -0.007485 -0.021444 0.000000 0.000000 0.000000
# 2 -0.007485 0.014126 -0.011360 0.000000 0.000000 0.000000
# 3 -0.021444 -0.011360 0.050837 0.000000 0.000000 0.000000
# 4 0.000000 0.000000 0.000000 0.037847 0.000000 0.000000
# 5 0.000000 0.000000 0.000000 0.000000 0.037485 0.000000
# 6 0.000000 0.000000 0.000000 0.000000 0.000000 0.026493
#
#
# Mechanical properties :
#
#
# Convention : Reuss Voigt Hill
#
# Bulk Modulus (GPa) = 46.95488 71.78194 59.36841
# Shear Modulus (GPa) = 17.15980 24.86540 21.01260
#
# Velocity S-wave (km/s) = 3.05458 3.67699 3.38014
# Velocity P-wave (km/s) = 6.16212 7.55365 6.89309
#
# Compressibility (1/GPa) = 0.02129704
#
# Stress axis : x y z
#
# Youngs Moduli (GPa) = 27.09115 70.79146 19.67054
#
# Poissons Ratio (x) = 0.52985 0.42182
# Poissons Ratio (y) = 0.20277 0.22347
# Poissons Ratio (z) = 0.58095 0.80422
#
# Static dielectric constant tensor:
#      x y z
#    x 1.628070 0.000000 0.000000 
#    y 0.000000 1.654700 0.000000 
#    z 0.000000 0.000000 1.624370 
# 
# From -- ./inp_files/15624.got.cif
#   From: 2010.05.17/outbox.cif.g08.bks.cpg/sg71_8_cif.got.tgz:15624.got - 2010.06.03 16:22:01.
