data_PCOD9521137
_publ_section_title
;
Structure prediction by ZEFSAII (Michael W. Deem and Ramdas Pophale) SiO2 
 PCOD9521137
Probable space group: I M M M
;
_chemical_formula_sum "Si O2"
_cell_formula_units_Z 88
_cell_length_a 24.531599
_cell_length_b 7.796086
_cell_length_c 22.815547
_cell_angle_alpha 90.000000
_cell_angle_beta 90.000000
_cell_angle_gamma 90.000000
_cell_volume 4363.483757
_symmetry_space_group_name_H-M "I M M M"
_symmetry_group_IT_number 71
_symmetry_cell_setting 'orthorhombic'
loop_
_space_group_symop_operation_xyz
x,y,z
-x,-y,z
x,-y,-z
-x,y,-z
-x,-y,-z
x,y,-z
-x,y,z
x,-y,z
1/2+x,1/2+y,1/2+z
1/2-x,1/2-y,1/2+z
1/2+x,1/2-y,1/2-z
1/2-x,1/2+y,1/2-z
1/2-x,1/2-y,1/2-z
1/2+x,1/2+y,1/2-z
1/2-x,1/2+y,1/2+z
1/2+x,1/2-y,1/2+z
loop_
_atom_site_type_symbol
_atom_site_label
_atom_site_fract_x
_atom_site_fract_y
_atom_site_fract_z
Si Si1 0.189397 0.293479 0.724616
Si Si2 0.437183 0.790355 0.435729
Si Si3 0.063825 0.791184 0.500000
Si Si4 0.844959 0.202735 0.407004
Si Si5 0.145234 0.700591 0.842200
Si Si6 0.773449 0.801078 0.937141
O O1 0.188781 0.500000 0.720539
O O2 0.250000 0.250000 0.750000
O O3 0.165242 0.230262 0.662710
O O4 0.152205 0.226425 0.777940
O O5 0.419037 0.732027 0.500000
O O6 0.500000 0.745254 0.428374
O O7 0.400445 0.722471 0.383834
O O8 0.433997 0.000000 0.435850
O O9 0.100265 0.740995 0.442254
O O10 0.000000 0.732684 0.500000
O O11 0.061430 0.000000 0.500000
O O12 0.791466 0.289254 0.434039
O O13 0.840557 0.000000 0.417938
O O14 0.132905 0.500000 0.833988
O O15 0.200131 0.712651 0.880939
O O16 0.789202 0.000000 0.934427
O O17 0.791312 0.726774 0.000000
#
# Coordination Sequence:
#
# PCOD9521137 Si02
#       6
#    16  16   8  16  16  16
#     4  11  22  35  52  79 115 152 187 226 277 335
#     4   8  14  27  49  76 103 132 171 221 267 305
#     4   9  20  40  65  89 111 143 194 249 296 349
#     4  11  21  36  59  83 108 142 184 233 286 339
#     4  10  20  33  52  77 107 144 186 224 263 325
#     4  11  22  33  50  79 114 145 176 225 282 334
#
# _framework density 20.167373000000001
#
# number of rings (size 3 to 8) (size 9 to 14) (size 15 to 20)
#    0.000    1.909    2.727    2.727    0.000    2.545 
#    0.000    0.909    0.000    6.000    0.000    2.545 
#    0.000    0.000    0.000    0.000    0.000    0.000 
#
# Total GULP energy -245213.548643 kJ/mol
# GULP energy per Si atom -5573.035196 kJ/mol
# Density = 2.012147 g / cm^3
# Si number density = 20.167373 Si / 1000 Ang^3
#
#
#
# Elastic Constant Matrix: (Units=GPa)
#
#
# Indices 1 2 3 4 5 6 
#
# 1 122.7837 -6.0583 68.1057 0.0000 0.0000 0.0000
# 2 -6.0583 40.3881 -0.2944 0.0000 0.0000 0.0000
# 3 68.1057 -0.2944 186.3580 0.0000 0.0000 0.0000
# 4 0.0000 0.0000 0.0000 15.6980 0.0000 0.0000
# 5 0.0000 0.0000 0.0000 0.0000 387.2952 0.0000
# 6 0.0000 0.0000 0.0000 0.0000 0.0000 4.3338
#
#
#
# Elastic Compliance Matrix: (Units=1/GPa)
#
#
# Indices 1 2 3 4 5 6 
#
# 1 0.010307 0.001519 -0.003765 0.000000 0.000000 0.000000
# 2 0.001519 0.024984 -0.000516 0.000000 0.000000 0.000000
# 3 -0.003765 -0.000516 0.006741 0.000000 0.000000 0.000000
# 4 0.000000 0.000000 0.000000 0.063702 0.000000 0.000000
# 5 0.000000 0.000000 0.000000 0.000000 0.002582 0.000000
# 6 0.000000 0.000000 0.000000 0.000000 0.000000 0.230743
#
#
# Mechanical properties :
#
#
# Convention : Reuss Voigt Hill
#
# Bulk Modulus (GPa) = 27.39012 52.55953 39.97482
# Shear Modulus (GPa) = 14.01532 100.65053 57.33293
#
# Velocity S-wave (km/s) = 2.63905 7.07220 5.33763
# Velocity P-wave (km/s) = 4.78508 9.63360 7.60602
#
# Compressibility (1/GPa) = 0.03650952
#
# Stress axis : x y z
#
# Youngs Moduli (GPa) = 97.01727 40.02588 148.34657
#
# Poissons Ratio (x) = -0.06079 0.55845
# Poissons Ratio (y) = -0.14734 0.07648
# Poissons Ratio (z) = 0.36522 0.02064
#
# Static dielectric constant tensor:
#      x y z
#    x 1.734910 0.000000 0.000000 
#    y 0.000000 1.746450 0.000000 
#    z 0.000000 0.000000 1.776850 
# 
# From -- ./inp_files/55569.got.cif
#   From: 2010.05.17/outbox.cif.g08.bks.cpg/sg71_28_cif.got.tgz:55569.got - 2010.06.03 16:22:01.
