data_PCOD9521685
_publ_section_title
;
Structure prediction by ZEFSAII (Michael W. Deem and Ramdas Pophale) SiO2 
 PCOD9521685
Probable space group: I M M M
;
_chemical_formula_sum "Si O2"
_cell_formula_units_Z 96
_cell_length_a 20.024434
_cell_length_b 13.993989
_cell_length_c 18.508531
_cell_angle_alpha 90.000000
_cell_angle_beta 90.000000
_cell_angle_gamma 90.000000
_cell_volume 5186.492190
_symmetry_space_group_name_H-M "I M M M"
_symmetry_group_IT_number 71
_symmetry_cell_setting 'orthorhombic'
loop_
_space_group_symop_operation_xyz
x,y,z
-x,-y,z
x,-y,-z
-x,y,-z
-x,-y,-z
x,y,-z
-x,y,z
x,-y,z
1/2+x,1/2+y,1/2+z
1/2-x,1/2-y,1/2+z
1/2+x,1/2-y,1/2-z
1/2-x,1/2+y,1/2-z
1/2-x,1/2-y,1/2-z
1/2+x,1/2+y,1/2-z
1/2-x,1/2+y,1/2+z
1/2+x,1/2-y,1/2+z
loop_
_atom_site_type_symbol
_atom_site_label
_atom_site_fract_x
_atom_site_fract_y
_atom_site_fract_z
Si Si1 0.202508 0.387218 0.797654
Si Si2 0.389651 0.608368 0.415122
Si Si3 0.577864 0.390115 0.839543
Si Si4 0.802169 0.194730 0.581905
Si Si5 0.574893 0.247004 0.294063
Si Si6 0.235577 0.608048 0.632396
O O1 0.193601 0.500000 0.809417
O O2 0.249029 0.344400 0.860080
O O3 0.132456 0.331733 0.796188
O O4 0.236400 0.375124 0.718767
O O5 0.401586 0.622312 0.500000
O O6 0.411214 0.500000 0.395862
O O7 0.422172 0.688433 0.365804
O O8 0.310255 0.613786 0.399158
O O9 0.500000 0.384434 0.860193
O O10 0.592608 0.500000 0.819151
O O11 0.628204 0.356545 0.901139
O O12 0.588492 0.320120 0.771757
O O13 0.780498 0.177588 0.500000
O O14 0.806833 0.308149 0.596431
O O15 0.500000 0.207696 0.285053
O O16 0.210670 0.500000 0.620138
#
# Coordination Sequence:
#
# PCOD9521685 Si02
#       6
#    16  16  16  16  16  16
#     4  11  23  39  60  86 116 152 199 246 285 340
#     4  10  20  34  55  86 120 149 182 233 297 356
#     4  10  22  40  61  87 118 153 194 237 286 349
#     4  12  23  38  62  90 122 155 190 237 294 350
#     4  11  22  38  59  82 113 155 200 244 291 339
#     4  10  20  37  62  88 114 149 193 241 291 342
#
# _framework density 18.509620999999999
#
# number of rings (size 3 to 8) (size 9 to 14) (size 15 to 20)
#    0.000    1.333    3.333    3.000    0.000    5.667 
#    0.000    1.667    0.000    0.500    0.000    3.500 
#    0.000    0.000    0.000    0.000    0.000    0.000 
#
# Total GULP energy -268271.352824 kJ/mol
# GULP energy per Si atom -5588.986517 kJ/mol
# Density = 1.846749 g / cm^3
# Si number density = 18.509621 Si / 1000 Ang^3
#
#
#
# Elastic Constant Matrix: (Units=GPa)
#
#
# Indices 1 2 3 4 5 6 
#
# 1 63.0352 37.6075 13.0507 0.0000 0.0000 0.0000
# 2 37.6075 89.6647 16.3638 0.0000 0.0000 0.0000
# 3 13.0507 16.3638 53.3302 0.0000 0.0000 0.0000
# 4 0.0000 0.0000 0.0000 21.5749 0.0000 0.0000
# 5 0.0000 0.0000 0.0000 0.0000 -18.1579 0.0000
# 6 0.0000 0.0000 0.0000 0.0000 0.0000 21.9932
#
#
#
# Elastic Compliance Matrix: (Units=1/GPa)
#
#
# Indices 1 2 3 4 5 6 
#
# 1 0.021505 -0.008537 -0.002643 0.000000 0.000000 0.000000
# 2 -0.008537 0.015203 -0.002576 0.000000 0.000000 0.000000
# 3 -0.002643 -0.002576 0.020188 0.000000 0.000000 0.000000
# 4 0.000000 0.000000 0.000000 0.046350 0.000000 0.000000
# 5 0.000000 0.000000 0.000000 0.000000 -0.055072 0.000000
# 6 0.000000 0.000000 0.000000 0.000000 0.000000 0.045469
#
#
# Mechanical properties :
#
#
# Convention : Reuss Voigt Hill
#
# Bulk Modulus (GPa) = 34.03173 37.78603 35.90888
# Shear Modulus (GPa) = 38.18254 14.34924 26.26589
#
# Velocity S-wave (km/s) = 4.54679 2.78732 3.77110
# Velocity P-wave (km/s) = 6.78161 5.55135 6.19708
#
# Compressibility (1/GPa) = 0.02938434
#
# Stress axis : x y z
#
# Youngs Moduli (GPa) = 46.50129 65.77439 49.53383
#
# Poissons Ratio (x) = 0.56153 0.13092
# Poissons Ratio (y) = 0.39699 0.12759
# Poissons Ratio (z) = 0.12290 0.16942
#
# Static dielectric constant tensor:
#      x y z
#    x 1.642410 0.000000 0.000000 
#    y 0.000000 1.635680 0.000000 
#    z 0.000000 0.000000 1.630160 
# 
# From -- ./inp_files/34506.got.cif
#   From: 2010.05.17/outbox.cif.g08.bks.cpg/sg71_18_cif.got.tgz:34506.got - 2010.06.03 16:22:01.
