data_PCOD9521437
_publ_section_title
;
Structure prediction by ZEFSAII (Michael W. Deem and Ramdas Pophale) SiO2 
 PCOD9521437
Probable space group: I M M M
;
_chemical_formula_sum "Si O2"
_cell_formula_units_Z 112
_cell_length_a 14.072584
_cell_length_b 14.586877
_cell_length_c 30.013462
_cell_angle_alpha 90.000000
_cell_angle_beta 90.000000
_cell_angle_gamma 90.000000
_cell_volume 6161.014969
_symmetry_space_group_name_H-M "I M M M"
_symmetry_group_IT_number 71
_symmetry_cell_setting 'orthorhombic'
loop_
_space_group_symop_operation_xyz
x,y,z
-x,-y,z
x,-y,-z
-x,y,-z
-x,-y,-z
x,y,-z
-x,y,z
x,-y,z
1/2+x,1/2+y,1/2+z
1/2-x,1/2-y,1/2+z
1/2+x,1/2-y,1/2-z
1/2-x,1/2+y,1/2-z
1/2-x,1/2-y,1/2-z
1/2+x,1/2+y,1/2-z
1/2-x,1/2+y,1/2+z
1/2+x,1/2-y,1/2+z
loop_
_atom_site_type_symbol
_atom_site_label
_atom_site_fract_x
_atom_site_fract_y
_atom_site_fract_z
Si Si1 0.387102 0.231128 0.049493
Si Si2 0.274818 0.109650 0.775398
Si Si3 0.887451 0.747946 0.214037
Si Si4 0.384439 0.602210 0.448510
Si Si5 0.610920 0.892239 0.866074
Si Si6 0.243796 0.605548 0.949190
Si Si7 0.387786 0.222910 0.391190
O O1 0.500000 0.245614 0.050747
O O2 0.363455 0.164502 0.090095
O O3 0.332712 0.326572 0.054726
O O4 0.363537 0.193816 0.000000
O O5 0.173797 0.161915 0.773413
O O6 0.343091 0.162194 0.740657
O O7 0.321801 0.125858 0.824009
O O8 0.268863 0.000000 0.768182
O O9 0.873576 0.731614 0.161368
O O10 0.000000 0.757927 0.222731
O O11 0.357673 0.619376 0.500000
O O12 0.500000 0.599796 0.447482
O O13 0.351335 0.500000 0.435446
O O14 0.355552 0.684154 0.416385
O O15 0.500000 0.871683 0.854452
O O16 0.616052 0.000000 0.876148
O O17 0.269522 0.500000 0.942813
O O18 0.167671 0.639939 0.913682
O O19 0.206274 0.616099 0.000000
O O20 0.500000 0.212688 0.399292
#
# Coordination Sequence:
#
# PCOD9521437 Si02
#       7
#    16  16  16  16  16  16  16
#     4   9  18  33  53  77 105 136 172 219 272 320
#     4  10  21  38  59  81 108 142 178 219 268 323
#     4  10  22  38  57  83 110 138 177 224 272 323
#     4   8  14  26  46  73 105 140 174 205 241 292
#     4   9  17  31  55  84 110 139 173 209 259 327
#     4  10  21  35  50  70  99 138 184 228 265 305
#     4  10  20  34  53  77 107 141 173 210 259 312
#
# _framework density 18.178823000000001
#
# number of rings (size 3 to 8) (size 9 to 14) (size 15 to 20)
#    0.000    2.571    0.000    2.143    0.000    4.000 
#    0.000    7.143    0.000    0.857    0.000    4.000 
#    0.000    0.000    0.000    0.000    0.000    0.000 
#
# Total GULP energy -312487.504722 kJ/mol
# GULP energy per Si atom -5580.134013 kJ/mol
# Density = 1.813745 g / cm^3
# Si number density = 18.178823 Si / 1000 Ang^3
#
#
#
# Elastic Constant Matrix: (Units=GPa)
#
#
# Indices 1 2 3 4 5 6 
#
# 1 100.4823 46.3215 43.1002 0.0000 0.0000 0.0000
# 2 46.3215 99.4177 64.9359 0.0000 0.0000 0.0000
# 3 43.1002 64.9359 93.1606 0.0000 0.0000 0.0000
# 4 0.0000 0.0000 0.0000 4.5518 0.0000 0.0000
# 5 0.0000 0.0000 0.0000 0.0000 6.3140 0.0000
# 6 0.0000 0.0000 0.0000 0.0000 0.0000 21.7905
#
#
#
# Elastic Compliance Matrix: (Units=1/GPa)
#
#
# Indices 1 2 3 4 5 6 
#
# 1 0.013219 -0.003974 -0.003346 0.000000 0.000000 0.000000
# 2 -0.003974 0.019660 -0.011865 0.000000 0.000000 0.000000
# 3 -0.003346 -0.011865 0.020553 0.000000 0.000000 0.000000
# 4 0.000000 0.000000 0.000000 0.219692 0.000000 0.000000
# 5 0.000000 0.000000 0.000000 0.000000 0.158378 0.000000
# 6 0.000000 0.000000 0.000000 0.000000 0.000000 0.045892
#
#
# Mechanical properties :
#
#
# Convention : Reuss Voigt Hill
#
# Bulk Modulus (GPa) = 66.39271 66.86397 66.62834
# Shear Modulus (GPa) = 9.60093 15.77813 12.68953
#
# Velocity S-wave (km/s) = 2.30062 2.94928 2.64491
# Velocity P-wave (km/s) = 6.60745 6.96123 6.78665
#
# Compressibility (1/GPa) = 0.01506190
#
# Stress axis : x y z
#
# Youngs Moduli (GPa) = 75.64860 50.86495 48.65587
#
# Poissons Ratio (x) = 0.20212 0.16280
# Poissons Ratio (y) = 0.30060 0.57731
# Poissons Ratio (z) = 0.25311 0.60352
#
# Static dielectric constant tensor:
#      x y z
#    x 1.645120 0.000000 0.000000 
#    y 0.000000 1.599770 0.000000 
#    z 0.000000 0.000000 1.614250 
# 
# From -- ./inp_files/22710.got.cif
#   From: 2010.05.17/outbox.cif.g08.bks.cpg/sg71_12_cif.got.tgz:22710.got - 2010.06.03 16:22:01.
