data_PCOD9521372
_publ_section_title
;
Structure prediction by ZEFSAII (Michael W. Deem and Ramdas Pophale) SiO2 
 PCOD9521372
Probable space group: I M M M
;
_chemical_formula_sum "Si O2"
_cell_formula_units_Z 88
_cell_length_a 16.135207
_cell_length_b 13.425543
_cell_length_c 19.259359
_cell_angle_alpha 90.000000
_cell_angle_beta 90.000000
_cell_angle_gamma 90.000000
_cell_volume 4172.037755
_symmetry_space_group_name_H-M "I M M M"
_symmetry_group_IT_number 71
_symmetry_cell_setting 'orthorhombic'
loop_
_space_group_symop_operation_xyz
x,y,z
-x,-y,z
x,-y,-z
-x,y,-z
-x,-y,-z
x,y,-z
-x,y,z
x,-y,z
1/2+x,1/2+y,1/2+z
1/2-x,1/2-y,1/2+z
1/2+x,1/2-y,1/2-z
1/2-x,1/2+y,1/2-z
1/2-x,1/2-y,1/2-z
1/2+x,1/2+y,1/2-z
1/2-x,1/2+y,1/2+z
1/2+x,1/2-y,1/2+z
loop_
_atom_site_type_symbol
_atom_site_label
_atom_site_fract_x
_atom_site_fract_y
_atom_site_fract_z
Si Si1 0.099092 0.681296 0.724871
Si Si2 0.133499 0.717302 0.579168
Si Si3 0.399307 0.609920 0.285528
Si Si4 0.900465 0.394389 0.128574
Si Si5 0.671497 0.694848 0.575884
Si Si6 0.000000 0.887654 0.582258
O O1 0.117801 0.648828 0.646597
O O2 0.128017 0.794989 0.740191
O O3 0.129322 0.620101 0.791553
O O4 0.000000 0.681904 0.729579
O O5 0.109132 0.686498 0.500000
O O6 0.232172 0.725244 0.579211
O O7 0.079934 0.817295 0.595549
O O8 0.500000 0.615511 0.292042
O O9 0.378450 0.500000 0.258539
O O10 0.358094 0.626579 0.360750
O O11 0.869717 0.500000 0.100985
O O12 0.875877 0.298565 0.085712
O O13 0.000000 0.396763 0.130224
O O14 0.655255 0.650483 0.500000
O O15 0.000000 0.900913 0.500000
O O16 0.000000 0.000000 0.613748
#
# Coordination Sequence:
#
# PCOD9521372 Si02
#       6
#    16  16  16  16  16   8
#     4   9  17  33  55  77 103 138 176 219 263 315
#     4  10  20  34  52  77 107 141 175 215 266 316
#     4   9  19  35  55  81 110 141 179 222 270 323
#     4   9  19  35  54  76 103 137 177 216 260 314
#     4  10  21  35  52  78 111 141 175 221 268 318
#     4   9  18  32  50  74 103 137 178 217 261 319
#
# _framework density 21.09281
#
# number of rings (size 3 to 8) (size 9 to 14) (size 15 to 20)
#    0.000    2.636    0.909    1.636    0.000    6.545 
#    0.000    6.364    0.000    1.636    0.000    2.545 
#    0.000    0.000    0.000    0.000    0.000    0.000 
#
# Total GULP energy -245020.651232 kJ/mol
# GULP energy per Si atom -5568.651164 kJ/mol
# Density = 2.104480 g / cm^3
# Si number density = 21.092810 Si / 1000 Ang^3
#
#
#
# Elastic Constant Matrix: (Units=GPa)
#
#
# Indices 1 2 3 4 5 6 
#
# 1 25.2255 7.0327 1.6080 0.0000 0.0000 0.0000
# 2 7.0327 40.4671 -21.3720 0.0000 0.0000 0.0000
# 3 1.6080 -21.3720 88.8454 0.0000 0.0000 0.0000
# 4 0.0000 0.0000 0.0000 -2.9383 0.0000 0.0000
# 5 0.0000 0.0000 0.0000 0.0000 -85.5072 0.0000
# 6 0.0000 0.0000 0.0000 0.0000 0.0000 0.5092
#
#
#
# Elastic Compliance Matrix: (Units=1/GPa)
#
#
# Indices 1 2 3 4 5 6 
#
# 1 0.042305 -0.008885 -0.002903 0.000000 0.000000 0.000000
# 2 -0.008885 0.030174 0.007419 0.000000 0.000000 0.000000
# 3 -0.002903 0.007419 0.013093 0.000000 0.000000 0.000000
# 4 0.000000 0.000000 0.000000 -0.340336 0.000000 0.000000
# 5 0.000000 0.000000 0.000000 0.000000 -0.011695 0.000000
# 6 0.000000 0.000000 0.000000 0.000000 0.000000 1.964056
#
#
# Mechanical properties :
#
#
# Convention : Reuss Voigt Hill
#
# Bulk Modulus (GPa) = 13.01522 14.34173 13.67847
# Shear Modulus (GPa) = 2.88693 -6.43598 -1.77453
#
# Velocity S-wave (km/s) = 1.17117 -1.74868 -0.91822
# Velocity P-wave (km/s) = 2.83067 1.65436 2.31836
#
# Compressibility (1/GPa) = 0.07683315
#
# Stress axis : x y z
#
# Youngs Moduli (GPa) = 23.63811 33.14123 76.37806
#
# Poissons Ratio (x) = 0.29447 0.22173
# Poissons Ratio (y) = 0.21003 -0.56667
# Poissons Ratio (z) = 0.06862 -0.24588
#
# Static dielectric constant tensor:
#      x y z
#    x 1.795150 0.000000 0.000000 
#    y 0.000000 1.763160 0.000000 
#    z 0.000000 0.000000 1.801590 
# 
# From -- ./inp_files/52908.got.cif
#   From: 2010.05.17/outbox.cif.g08.bks.cpg/sg71_27_cif.got.tgz:52908.got - 2010.06.03 16:22:01.
