data_PCOD9521404
_publ_section_title
;
Structure prediction by ZEFSAII (Michael W. Deem and Ramdas Pophale) SiO2 
 PCOD9521404
Probable space group: I M M M
;
_chemical_formula_sum "Si O2"
_cell_formula_units_Z 88
_cell_length_a 28.290655
_cell_length_b 8.018339
_cell_length_c 19.511916
_cell_angle_alpha 90.000000
_cell_angle_beta 90.000000
_cell_angle_gamma 90.000000
_cell_volume 4426.162289
_symmetry_space_group_name_H-M "I M M M"
_symmetry_group_IT_number 71
_symmetry_cell_setting 'orthorhombic'
loop_
_space_group_symop_operation_xyz
x,y,z
-x,-y,z
x,-y,-z
-x,y,-z
-x,-y,-z
x,y,-z
-x,y,z
x,-y,z
1/2+x,1/2+y,1/2+z
1/2-x,1/2-y,1/2+z
1/2+x,1/2-y,1/2-z
1/2-x,1/2+y,1/2-z
1/2-x,1/2-y,1/2-z
1/2+x,1/2+y,1/2-z
1/2-x,1/2+y,1/2+z
1/2+x,1/2-y,1/2+z
loop_
_atom_site_type_symbol
_atom_site_label
_atom_site_fract_x
_atom_site_fract_y
_atom_site_fract_z
Si Si1 0.844977 0.303568 0.347136
Si Si2 0.552418 0.202765 0.804064
Si Si3 0.947584 0.500000 0.080557
Si Si4 0.744353 0.204914 0.077059
Si Si5 0.416940 0.681548 0.343578
Si Si6 0.691058 0.311330 0.702404
O O1 0.849961 0.500000 0.359089
O O2 0.898897 0.238156 0.340983
O O3 0.809050 0.239786 0.404734
O O4 0.817327 0.280004 0.274617
O O5 0.500000 0.246157 0.831795
O O6 0.557202 0.274408 0.727524
O O7 0.554663 0.000000 0.799910
O O8 0.924016 0.668117 0.105381
O O9 0.000000 0.500000 0.111483
O O10 0.950079 0.500000 0.000000
O O11 0.776945 0.260117 0.141077
O O12 0.746171 0.000000 0.077839
O O13 0.758242 0.256673 0.000000
O O14 0.432525 0.500000 0.368703
O O15 0.361591 0.676255 0.327148
O O16 0.708061 0.500000 0.718124
#
# Coordination Sequence:
#
# PCOD9521404 Si02
#       6
#    16  16   8  16  16  16
#     4   9  17  29  49  73  98 131 168 210 257 308
#     4   9  16  28  48  73 101 129 162 212 265 308
#     4  11  24  38  50  68 100 140 175 213 262 312
#     4   9  17  30  48  71 100 134 171 208 254 313
#     4  10  20  34  53  76 100 129 171 217 265 310
#     4   9  18  31  51  75  97 127 165 213 262 309
#
# _framework density 19.881782999999999
#
# number of rings (size 3 to 8) (size 9 to 14) (size 15 to 20)
#    0.000    2.636    0.909    1.091    1.273    2.545 
#    0.000    2.727    0.000    2.182    0.000    3.818 
#    0.000    0.000    0.000    9.091    0.000    9.455 
#
# Total GULP energy -245080.407313 kJ/mol
# GULP energy per Si atom -5570.009257 kJ/mol
# Density = 1.983653 g / cm^3
# Si number density = 19.881783 Si / 1000 Ang^3
#
#
#
# Elastic Constant Matrix: (Units=GPa)
#
#
# Indices 1 2 3 4 5 6 
#
# 1 104.2149 -5.9573 23.4302 0.0000 0.0000 0.0000
# 2 -5.9573 46.5426 -4.1357 0.0000 0.0000 0.0000
# 3 23.4302 -4.1357 22.7571 0.0000 0.0000 0.0000
# 4 0.0000 0.0000 0.0000 -10.4356 0.0000 0.0000
# 5 0.0000 0.0000 0.0000 0.0000 12.5993 0.0000
# 6 0.0000 0.0000 0.0000 0.0000 0.0000 11.7425
#
#
#
# Elastic Compliance Matrix: (Units=1/GPa)
#
#
# Indices 1 2 3 4 5 6 
#
# 1 0.012496 0.000464 -0.012781 0.000000 0.000000 0.000000
# 2 0.000464 0.021856 0.003494 0.000000 0.000000 0.000000
# 3 -0.012781 0.003494 0.057736 0.000000 0.000000 0.000000
# 4 0.000000 0.000000 0.000000 -0.095825 0.000000 0.000000
# 5 0.000000 0.000000 0.000000 0.000000 0.079369 0.000000
# 6 0.000000 0.000000 0.000000 0.000000 0.000000 0.085161
#
#
# Mechanical properties :
#
#
# Convention : Reuss Voigt Hill
#
# Bulk Modulus (GPa) = 13.43327 22.24321 17.83824
# Shear Modulus (GPa) = 24.60002 13.45972 19.02987
#
# Velocity S-wave (km/s) = 3.52136 2.60472 3.09714
# Velocity P-wave (km/s) = 4.82748 4.50090 4.66705
#
# Compressibility (1/GPa) = 0.07444205
#
# Stress axis : x y z
#
# Youngs Moduli (GPa) = 80.02849 45.75498 17.32008
#
# Poissons Ratio (x) = -0.02122 0.22137
# Poissons Ratio (y) = -0.03711 -0.06052
# Poissons Ratio (z) = 1.02284 -0.15989
#
# Static dielectric constant tensor:
#      x y z
#    x 1.755250 0.000000 0.000000 
#    y 0.000000 0.239850 0.000000 
#    z 0.000000 0.000000 1.665130 
# 
# From -- ./inp_files/10933.got.cif
#   From: 2010.05.17/outbox.cif.g08.bks.cpg/sg71_6_cif.got.tgz:10933.got - 2010.06.03 16:22:01.
