data_PCOD9521584
_publ_section_title
;
Structure prediction by ZEFSAII (Michael W. Deem and Ramdas Pophale) SiO2 
 PCOD9521584
Probable space group: I M M M
;
_chemical_formula_sum "Si O2"
_cell_formula_units_Z 72
_cell_length_a 9.044486
_cell_length_b 13.882057
_cell_length_c 29.155237
_cell_angle_alpha 90.000000
_cell_angle_beta 90.000000
_cell_angle_gamma 90.000000
_cell_volume 3660.616983
_symmetry_space_group_name_H-M "I M M M"
_symmetry_group_IT_number 71
_symmetry_cell_setting 'orthorhombic'
loop_
_space_group_symop_operation_xyz
x,y,z
-x,-y,z
x,-y,-z
-x,y,-z
-x,-y,-z
x,y,-z
-x,y,z
x,-y,z
1/2+x,1/2+y,1/2+z
1/2-x,1/2-y,1/2+z
1/2+x,1/2-y,1/2-z
1/2-x,1/2+y,1/2-z
1/2-x,1/2-y,1/2-z
1/2+x,1/2+y,1/2-z
1/2-x,1/2+y,1/2+z
1/2+x,1/2-y,1/2+z
loop_
_atom_site_type_symbol
_atom_site_label
_atom_site_fract_x
_atom_site_fract_y
_atom_site_fract_z
Si Si1 0.824232 0.209097 0.588669
Si Si2 0.322298 0.612442 0.628724
Si Si3 0.675181 0.884923 0.500000
Si Si4 0.831123 0.383538 0.175244
Si Si5 0.330741 0.382551 0.733231
O O1 0.762474 0.317028 0.594989
O O2 0.749733 0.159323 0.545021
O O3 0.770712 0.153879 0.634426
O O4 0.000000 0.207500 0.584888
O O5 0.500000 0.621761 0.623985
O O6 0.285461 0.500000 0.622673
O O7 0.285351 0.641788 0.681360
O O8 0.500000 0.864555 0.500000
O O9 0.694618 0.000000 0.500000
O O10 0.829327 0.500000 0.174651
O O11 0.773339 0.351775 0.225184
O O12 0.000000 0.351543 0.167663
O O13 0.500000 0.351195 0.741149
O O14 0.332667 0.500000 0.733799
#
# Coordination Sequence:
#
# PCOD9521584 Si02
#       5
#    16  16   8  16  16
#     4  12  25  39  60  89 119 152 191 238 292 350
#     4   9  19  38  62  86 117 158 200 242 288 339
#     4  11  25  47  72  93 116 147 185 234 290 347
#     4  10  20  34  54  82 117 157 200 244 290 345
#     4   8  15  30  53  81 114 153 196 242 291 339
#
# _framework density 19.668814999999999
#
# number of rings (size 3 to 8) (size 9 to 14) (size 15 to 20)
#    0.000    2.111    0.000    5.000    0.000    7.111 
#    0.000    2.778    0.000    3.333    0.000    0.000 
#    0.000    0.000    0.000    0.000    0.000    0.000 
#
# Total GULP energy -201290.264751 kJ/mol
# GULP energy per Si atom -5591.396243 kJ/mol
# Density = 1.962405 g / cm^3
# Si number density = 19.668815 Si / 1000 Ang^3
#
#
#
# Elastic Constant Matrix: (Units=GPa)
#
#
# Indices 1 2 3 4 5 6 
#
# 1 130.2848 70.4550 87.5479 0.0000 0.0000 0.0000
# 2 70.4550 100.9139 57.6100 0.0000 0.0000 0.0000
# 3 87.5479 57.6100 124.2399 0.0000 0.0000 0.0000
# 4 0.0000 0.0000 0.0000 38.9966 0.0000 0.0000
# 5 0.0000 0.0000 0.0000 0.0000 35.8994 0.0000
# 6 0.0000 0.0000 0.0000 0.0000 0.0000 23.1713
#
#
#
# Elastic Compliance Matrix: (Units=1/GPa)
#
#
# Indices 1 2 3 4 5 6 
#
# 1 0.017675 -0.007113 -0.009157 0.000000 0.000000 0.000000
# 2 -0.007113 0.016339 -0.002564 0.000000 0.000000 0.000000
# 3 -0.009157 -0.002564 0.015691 0.000000 0.000000 0.000000
# 4 0.000000 0.000000 0.000000 0.025643 0.000000 0.000000
# 5 0.000000 0.000000 0.000000 0.000000 0.027856 0.000000
# 6 0.000000 0.000000 0.000000 0.000000 0.000000 0.043157
#
#
# Mechanical properties :
#
#
# Convention : Reuss Voigt Hill
#
# Bulk Modulus (GPa) = 83.07752 87.40716 85.24234
# Shear Modulus (GPa) = 26.58992 28.93515 27.76254
#
# Velocity S-wave (km/s) = 3.68078 3.83968 3.76107
# Velocity P-wave (km/s) = 7.77136 8.01208 7.89264
#
# Compressibility (1/GPa) = 0.01203695
#
# Stress axis : x y z
#
# Youngs Moduli (GPa) = 56.57695 61.20216 63.73221
#
# Poissons Ratio (x) = 0.43531 0.58359
# Poissons Ratio (y) = 0.40241 0.16344
# Poissons Ratio (z) = 0.51807 0.15695
#
# Static dielectric constant tensor:
#      x y z
#    x 1.651620 0.000000 0.000000 
#    y 0.000000 1.744190 0.000000 
#    z 0.000000 0.000000 1.654100 
# 
# From -- ./inp_files/14305.got.cif
#   From: 2010.05.17/outbox.cif.g08.bks.cpg/sg71_8_cif.got.tgz:14305.got - 2010.06.03 16:22:01.
