data_PCOD9521576
_publ_section_title
;
Structure prediction by ZEFSAII (Michael W. Deem and Ramdas Pophale) SiO2 
 PCOD9521576
Probable space group: I M M M
;
_chemical_formula_sum "Si O2"
_cell_formula_units_Z 104
_cell_length_a 30.618937
_cell_length_b 20.182827
_cell_length_c 8.982324
_cell_angle_alpha 90.000000
_cell_angle_beta 90.000000
_cell_angle_gamma 90.000000
_cell_volume 5550.867019
_symmetry_space_group_name_H-M "I M M M"
_symmetry_group_IT_number 71
_symmetry_cell_setting 'orthorhombic'
loop_
_space_group_symop_operation_xyz
x,y,z
-x,-y,z
x,-y,-z
-x,y,-z
-x,-y,-z
x,y,-z
-x,y,z
x,-y,z
1/2+x,1/2+y,1/2+z
1/2-x,1/2-y,1/2+z
1/2+x,1/2-y,1/2-z
1/2-x,1/2+y,1/2-z
1/2-x,1/2-y,1/2-z
1/2+x,1/2+y,1/2-z
1/2-x,1/2+y,1/2+z
1/2+x,1/2-y,1/2+z
loop_
_atom_site_type_symbol
_atom_site_label
_atom_site_fract_x
_atom_site_fract_y
_atom_site_fract_z
Si Si1 0.951081 0.865418 0.677049
Si Si2 0.311214 0.423513 0.678558
Si Si3 0.549593 0.077345 0.180949
Si Si4 0.864133 0.803011 0.322037
Si Si5 0.053146 0.000000 0.833081
Si Si6 0.362411 0.847400 0.180531
Si Si7 0.217750 0.578743 0.829655
O O1 0.952972 0.875747 0.500000
O O2 0.915892 0.809809 0.706700
O O3 0.000000 0.850754 0.730569
O O4 0.934849 0.933420 0.749406
O O5 0.311897 0.421305 0.500000
O O6 0.323296 0.500000 0.723173
O O7 0.340693 0.364529 0.743426
O O8 0.262530 0.410226 0.740042
O O9 0.500000 0.095886 0.229138
O O10 0.590056 0.123778 0.227965
O O11 0.557162 0.000000 0.223138
O O12 0.549179 0.079072 0.000000
O O13 0.856943 0.809621 0.500000
O O14 0.852820 0.728687 0.275936
O O15 0.000000 0.000000 0.837277
O O16 0.070430 0.000000 0.000000
O O17 0.323734 0.890202 0.249225
O O18 0.361457 0.850539 0.000000
O O19 0.211463 0.500000 0.834306
O O20 0.222155 0.602991 0.000000
#
# Coordination Sequence:
#
# PCOD9521576 Si02
#       7
#    16  16  16  16   8  16  16
#     4   9  18  33  51  72 102 141 182 221 266 321
#     4  10  22  40  61  83 105 135 179 228 277 330
#     4   8  14  26  48  80 114 146 182 225 269 309
#     4  10  22  36  52  79 112 148 184 222 274 327
#     4   9  17  29  47  71  95 123 169 227 275 313
#     4  10  20  34  54  82 115 149 186 224 266 321
#     4  10  21  38  61  86 110 139 176 220 273 329
#
# _framework density 18.735811000000002
#
# number of rings (size 3 to 8) (size 9 to 14) (size 15 to 20)
#    0.000    2.538    0.000    2.077    1.077    5.846 
#    0.000    3.077    0.000    0.462    0.000    4.308 
#    0.000    0.000    0.000    0.000    0.000    0.000 
#
# Total GULP energy -289882.803130 kJ/mol
# GULP energy per Si atom -5574.669291 kJ/mol
# Density = 1.869317 g / cm^3
# Si number density = 18.735811 Si / 1000 Ang^3
#
#
#
# Elastic Constant Matrix: (Units=GPa)
#
#
# Indices 1 2 3 4 5 6 
#
# 1 113.4637 69.6093 34.8092 0.0000 0.0000 0.0000
# 2 69.6093 76.8014 30.5357 0.0000 0.0000 0.0000
# 3 34.8092 30.5357 23.5987 0.0000 0.0000 0.0000
# 4 0.0000 0.0000 0.0000 19.8587 0.0000 0.0000
# 5 0.0000 0.0000 0.0000 0.0000 21.4213 0.0000
# 6 0.0000 0.0000 0.0000 0.0000 0.0000 26.3771
#
#
#
# Elastic Compliance Matrix: (Units=1/GPa)
#
#
# Indices 1 2 3 4 5 6 
#
# 1 0.021771 -0.014344 -0.013554 0.000000 0.000000 0.000000
# 2 -0.014344 0.036267 -0.025771 0.000000 0.000000 0.000000
# 3 -0.013554 -0.025771 0.095714 0.000000 0.000000 0.000000
# 4 0.000000 0.000000 0.000000 0.050356 0.000000 0.000000
# 5 0.000000 0.000000 0.000000 0.000000 0.046683 0.000000
# 6 0.000000 0.000000 0.000000 0.000000 0.000000 0.037912
#
#
# Mechanical properties :
#
#
# Convention : Reuss Voigt Hill
#
# Bulk Modulus (GPa) = 21.54414 53.75245 37.64829
# Shear Modulus (GPa) = 12.15037 18.79206 15.47122
#
# Velocity S-wave (km/s) = 2.54935 3.17046 2.87672
# Velocity P-wave (km/s) = 4.49327 6.49264 5.58318
#
# Compressibility (1/GPa) = 0.04641634
#
# Stress axis : x y z
#
# Youngs Moduli (GPa) = 45.93234 27.57313 10.44781
#
# Poissons Ratio (x) = 0.39550 0.14161
# Poissons Ratio (y) = 0.65883 0.26925
# Poissons Ratio (z) = 0.62255 0.71058
#
# Static dielectric constant tensor:
#      x y z
#    x 1.660260 0.000000 0.000000 
#    y 0.000000 1.597410 0.000000 
#    z 0.000000 0.000000 1.638940 
# 
# From -- ./inp_files/16968.got.cif
#   From: 2010.05.17/outbox.cif.g08.bks.cpg/sg71_9_cif.got.tgz:16968.got - 2010.06.03 16:22:01.
