data_PCOD9521162
_publ_section_title
;
Structure prediction by ZEFSAII (Michael W. Deem and Ramdas Pophale) SiO2 
 PCOD9521162
Probable space group: I M M M
;
_chemical_formula_sum "Si O2"
_cell_formula_units_Z 88
_cell_length_a 14.218564
_cell_length_b 17.323228
_cell_length_c 20.555054
_cell_angle_alpha 90.000000
_cell_angle_beta 90.000000
_cell_angle_gamma 90.000000
_cell_volume 5062.944662
_symmetry_space_group_name_H-M "I M M M"
_symmetry_group_IT_number 71
_symmetry_cell_setting 'orthorhombic'
loop_
_space_group_symop_operation_xyz
x,y,z
-x,-y,z
x,-y,-z
-x,y,-z
-x,-y,-z
x,y,-z
-x,y,z
x,-y,z
1/2+x,1/2+y,1/2+z
1/2-x,1/2-y,1/2+z
1/2+x,1/2-y,1/2-z
1/2-x,1/2+y,1/2-z
1/2-x,1/2-y,1/2-z
1/2+x,1/2+y,1/2-z
1/2-x,1/2+y,1/2+z
1/2+x,1/2-y,1/2+z
loop_
_atom_site_type_symbol
_atom_site_label
_atom_site_fract_x
_atom_site_fract_y
_atom_site_fract_z
Si Si1 0.186604 0.165857 0.185565
Si Si2 0.143079 0.165533 0.572481
Si Si3 0.356743 0.218720 0.426531
Si Si4 0.393351 0.766632 0.804447
Si Si5 0.114056 0.000000 0.783040
Si Si6 0.887696 0.000000 0.631270
Si Si7 0.500000 0.088372 0.579025
O O1 0.143481 0.211078 0.123732
O O2 0.300732 0.178041 0.189128
O O3 0.138941 0.207277 0.248030
O O4 0.156541 0.077273 0.186207
O O5 0.103056 0.173246 0.500000
O O6 0.249861 0.192810 0.569435
O O7 0.100098 0.218212 0.628794
O O8 0.142360 0.077130 0.594806
O O9 0.389097 0.238446 0.500000
O O10 0.412969 0.143176 0.402556
O O11 0.500000 0.797251 0.790842
O O12 0.141981 0.000000 0.706533
O O13 0.000000 0.000000 0.787181
O O14 0.000000 0.000000 0.631552
O O15 0.500000 0.083076 0.500000
O O16 0.500000 0.000000 0.603377
#
# Coordination Sequence:
#
# PCOD9521162 Si02
#       7
#    16  16  16  16   8   8   8
#     4  10  21  37  58  80 107 149 191 232 279 334
#     4  10  20  33  52  79 112 143 175 218 272 337
#     4   9  20  36  54  79 109 144 186 231 277 331
#     4  10  20  36  57  79 107 144 184 227 281 338
#     4  11  22  37  58  80 110 150 193 235 279 324
#     4  11  21  32  47  77 111 141 177 221 262 326
#     4   9  18  32  52  77 109 147 184 222 275 337
#
# _framework density 17.381188999999999
#
# number of rings (size 3 to 8) (size 9 to 14) (size 15 to 20)
#    0.000    2.091    1.818    1.364    3.818    1.818 
#    0.000    0.909    0.000    0.545    0.000    0.000 
#    0.000    5.818    0.000    0.000    0.000    0.000 
#
# Total GULP energy -245132.876925 kJ/mol
# GULP energy per Si atom -5571.201748 kJ/mol
# Density = 1.734163 g / cm^3
# Si number density = 17.381189 Si / 1000 Ang^3
#
#
#
# Elastic Constant Matrix: (Units=GPa)
#
#
# Indices 1 2 3 4 5 6 
#
# 1 108.9302 45.1626 39.3422 0.0000 0.0000 0.0000
# 2 45.1626 133.8602 65.4903 0.0000 0.0000 0.0000
# 3 39.3422 65.4903 105.5606 0.0000 0.0000 0.0000
# 4 0.0000 0.0000 0.0000 28.5542 0.0000 0.0000
# 5 0.0000 0.0000 0.0000 0.0000 5.5503 0.0000
# 6 0.0000 0.0000 0.0000 0.0000 0.0000 -38.9024
#
#
#
# Elastic Compliance Matrix: (Units=1/GPa)
#
#
# Indices 1 2 3 4 5 6 
#
# 1 0.011155 -0.002483 -0.002617 0.000000 0.000000 0.000000
# 2 -0.002483 0.011279 -0.006072 0.000000 0.000000 0.000000
# 3 -0.002617 -0.006072 0.014216 0.000000 0.000000 0.000000
# 4 0.000000 0.000000 0.000000 0.035021 0.000000 0.000000
# 5 0.000000 0.000000 0.000000 0.000000 0.180170 0.000000
# 6 0.000000 0.000000 0.000000 0.000000 0.000000 -0.025705
#
#
# Mechanical properties :
#
#
# Convention : Reuss Voigt Hill
#
# Bulk Modulus (GPa) = 69.90397 72.03794 70.97095
# Shear Modulus (GPa) = 19.74349 12.26414 16.00381
#
# Velocity S-wave (km/s) = 3.37398 2.65919 3.03769
# Velocity P-wave (km/s) = 7.44875 7.13893 7.29548
#
# Compressibility (1/GPa) = 0.01430534
#
# Stress axis : x y z
#
# Youngs Moduli (GPa) = 89.64717 88.66019 70.34516
#
# Poissons Ratio (x) = 0.22017 0.18408
# Poissons Ratio (y) = 0.22262 0.42714
# Poissons Ratio (z) = 0.23458 0.53835
#
# Static dielectric constant tensor:
#      x y z
#    x 1.645120 0.000000 0.000000 
#    y 0.000000 1.542090 0.000000 
#    z 0.000000 0.000000 1.629710 
# 
# From -- ./inp_files/52931.got.cif
#   From: 2010.05.17/outbox.cif.g08.bks.cpg/sg71_27_cif.got.tgz:52931.got - 2010.06.03 16:22:01.
