data_PCOD9521017
_publ_section_title
;
Structure prediction by ZEFSAII (Michael W. Deem and Ramdas Pophale) SiO2 
 PCOD9521017
Probable space group: I M M M
;
_chemical_formula_sum "Si O2"
_cell_formula_units_Z 104
_cell_length_a 8.803510
_cell_length_b 28.814135
_cell_length_c 21.514025
_cell_angle_alpha 90.000000
_cell_angle_beta 90.000000
_cell_angle_gamma 90.000000
_cell_volume 5457.366460
_symmetry_space_group_name_H-M "I M M M"
_symmetry_group_IT_number 71
_symmetry_cell_setting 'orthorhombic'
loop_
_space_group_symop_operation_xyz
x,y,z
-x,-y,z
x,-y,-z
-x,y,-z
-x,-y,-z
x,y,-z
-x,y,z
x,-y,z
1/2+x,1/2+y,1/2+z
1/2-x,1/2-y,1/2+z
1/2+x,1/2-y,1/2-z
1/2-x,1/2+y,1/2-z
1/2-x,1/2-y,1/2-z
1/2+x,1/2+y,1/2-z
1/2-x,1/2+y,1/2+z
1/2+x,1/2-y,1/2+z
loop_
_atom_site_type_symbol
_atom_site_label
_atom_site_fract_x
_atom_site_fract_y
_atom_site_fract_z
Si Si1 0.818212 0.134358 0.264771
Si Si2 0.818657 0.227044 0.431621
Si Si3 0.680193 0.447107 0.333335
Si Si4 0.319156 0.698278 0.655001
Si Si5 0.179348 0.617376 0.427302
Si Si6 0.681674 0.870996 0.599553
Si Si7 0.315297 0.053134 0.500000
O O1 0.790251 0.089210 0.221967
O O2 0.771090 0.178869 0.222775
O O3 0.732896 0.128431 0.329132
O O4 0.000000 0.137890 0.275707
O O5 0.776334 0.247215 0.500000
O O6 0.754449 0.256022 0.373853
O O7 0.756322 0.175075 0.428562
O O8 0.000000 0.226963 0.427804
O O9 0.500000 0.443699 0.347458
O O10 0.714694 0.500000 0.316457
O O11 0.774358 0.429663 0.392380
O O12 0.500000 0.703424 0.656260
O O13 0.272466 0.657563 0.607235
O O14 0.213377 0.615744 0.500000
O O15 0.000000 0.626717 0.419444
O O16 0.500000 0.867141 0.594908
O O17 0.729250 0.916383 0.560226
O O18 0.500000 0.051262 0.500000
O O19 0.260047 0.000000 0.500000
#
# Coordination Sequence:
#
# PCOD9521017 Si02
#       7
#    16  16  16  16  16  16   8
#     4   9  20  38  57  81 115 149 186 237 290 342
#     4  11  23  38  59  86 119 154 189 236 288 338
#     4   9  19  36  56  77 105 145 191 238 287 340
#     4  10  21  37  58  83 113 153 196 236 281 339
#     4  10  20  33  50  76 112 149 188 237 289 338
#     4  11  22  38  62  88 115 150 189 231 283 344
#     4   9  20  40  63  89 121 151 187 239 292 345
#
# _framework density 19.056809999999999
#
# number of rings (size 3 to 8) (size 9 to 14) (size 15 to 20)
#    0.000    2.077    0.769    3.231    0.000    8.923 
#    0.000    1.538    0.000    3.231    0.000    0.000 
#    0.000    0.000    0.000    0.000    0.000    0.000 
#
# Total GULP energy -290272.626131 kJ/mol
# GULP energy per Si atom -5582.165887 kJ/mol
# Density = 1.901344 g / cm^3
# Si number density = 19.056810 Si / 1000 Ang^3
#
#
#
# Elastic Constant Matrix: (Units=GPa)
#
#
# Indices 1 2 3 4 5 6 
#
# 1 32.2236 22.4410 38.0714 0.0000 0.0000 0.0000
# 2 22.4410 114.8251 46.9285 0.0000 0.0000 0.0000
# 3 38.0714 46.9285 125.3545 0.0000 0.0000 0.0000
# 4 0.0000 0.0000 0.0000 13.1145 0.0000 0.0000
# 5 0.0000 0.0000 0.0000 0.0000 25.7599 0.0000
# 6 0.0000 0.0000 0.0000 0.0000 0.0000 2.1747
#
#
#
# Elastic Compliance Matrix: (Units=1/GPa)
#
#
# Indices 1 2 3 4 5 6 
#
# 1 0.050071 -0.004216 -0.013629 0.000000 0.000000 0.000000
# 2 -0.004216 0.010637 -0.002702 0.000000 0.000000 0.000000
# 3 -0.013629 -0.002702 0.013128 0.000000 0.000000 0.000000
# 4 0.000000 0.000000 0.000000 0.076252 0.000000 0.000000
# 5 0.000000 0.000000 0.000000 0.000000 0.038820 0.000000
# 6 0.000000 0.000000 0.000000 0.000000 0.000000 0.459831
#
#
# Mechanical properties :
#
#
# Convention : Reuss Voigt Hill
#
# Bulk Modulus (GPa) = 30.54033 54.14276 42.34154
# Shear Modulus (GPa) = 7.13525 19.20730 13.17128
#
# Velocity S-wave (km/s) = 1.93709 3.17818 2.63184
# Velocity P-wave (km/s) = 4.58954 6.47617 5.61269
#
# Compressibility (1/GPa) = 0.03274359
#
# Stress axis : x y z
#
# Youngs Moduli (GPa) = 19.97152 94.01143 76.17254
#
# Poissons Ratio (x) = 0.39632 1.03815
# Poissons Ratio (y) = 0.08419 0.20580
# Poissons Ratio (z) = 0.27219 0.25400
#
# Static dielectric constant tensor:
#      x y z
#    x 1.641920 0.000000 0.000000 
#    y 0.000000 1.674600 0.000000 
#    z 0.000000 0.000000 1.667860 
# 
# From -- ./inp_files/11064.got.cif
#   From: 2010.05.17/outbox.cif.g08.bks.cpg/sg71_6_cif.got.tgz:11064.got - 2010.06.03 16:22:01.
