data_PCOD9521643
_publ_section_title
;
Structure prediction by ZEFSAII (Michael W. Deem and Ramdas Pophale) SiO2 
 PCOD9521643
Probable space group: I M M M
;
_chemical_formula_sum "Si O2"
_cell_formula_units_Z 120
_cell_length_a 27.070433
_cell_length_b 19.856536
_cell_length_c 13.047707
_cell_angle_alpha 90.000000
_cell_angle_beta 90.000000
_cell_angle_gamma 90.000000
_cell_volume 7013.469063
_symmetry_space_group_name_H-M "I M M M"
_symmetry_group_IT_number 71
_symmetry_cell_setting 'orthorhombic'
loop_
_space_group_symop_operation_xyz
x,y,z
-x,-y,z
x,-y,-z
-x,y,-z
-x,-y,-z
x,y,-z
-x,y,z
x,-y,z
1/2+x,1/2+y,1/2+z
1/2-x,1/2-y,1/2+z
1/2+x,1/2-y,1/2-z
1/2-x,1/2+y,1/2-z
1/2-x,1/2-y,1/2-z
1/2+x,1/2+y,1/2-z
1/2-x,1/2+y,1/2+z
1/2+x,1/2-y,1/2+z
loop_
_atom_site_type_symbol
_atom_site_label
_atom_site_fract_x
_atom_site_fract_y
_atom_site_fract_z
Si Si1 0.941291 0.076131 0.500000
Si Si2 0.295841 0.697830 0.876726
Si Si3 0.279046 0.158652 0.774777
Si Si4 0.557539 0.194747 0.122041
Si Si5 0.096509 0.837384 0.689703
Si Si6 0.414742 0.576894 0.616363
Si Si7 0.363509 0.079201 0.120781
Si Si8 0.295959 0.571958 0.616986
O O1 0.925166 0.117450 0.598999
O O2 0.000000 0.072189 0.500000
O O3 0.920814 0.000000 0.500000
O O4 0.296676 0.771750 0.825098
O O5 0.242914 0.668063 0.839210
O O6 0.344239 0.660925 0.830388
O O7 0.299976 0.700738 0.000000
O O8 0.320411 0.104228 0.803402
O O9 0.229970 0.134508 0.832902
O O10 0.500000 0.185445 0.147768
O O11 0.579575 0.260195 0.177542
O O12 0.589792 0.127879 0.140030
O O13 0.560763 0.209202 0.000000
O O14 0.076021 0.869521 0.794814
O O15 0.431240 0.592961 0.500000
O O16 0.431328 0.500000 0.640403
O O17 0.354889 0.575047 0.614931
O O18 0.373824 0.000000 0.133438
O O19 0.349041 0.089367 0.000000
O O20 0.278862 0.570282 0.500000
O O21 0.281895 0.500000 0.666395
#
# Coordination Sequence:
#
# PCOD9521643 Si02
#       8
#     8  16  16  16  16  16  16  16
#     4  11  24  38  58  86 109 141 191 239 281 337
#     4  11  22  34  50  77 110 148 189 224 274 333
#     4  11  20  32  49  73 106 148 182 224 267 324
#     4  10  20  35  57  83 111 144 181 231 296 351
#     4  12  19  36  58  80 112 151 186 229 284 342
#     4   9  19  34  52  78 110 145 185 228 273 327
#     4  10  20  34  55  82 112 148 190 235 280 335
#     4   9  16  27  45  68  96 131 174 215 253 302
#
# _framework density 17.109935
#
# number of rings (size 3 to 8) (size 9 to 14) (size 15 to 20)
#    0.000    1.667    4.000    3.200    0.000    1.333 
#    0.000    1.333    0.000    1.600    0.000    4.667 
#    0.000    0.000    0.000    2.400    0.000    0.267 
#
# Total GULP energy -334322.861344 kJ/mol
# GULP energy per Si atom -5572.047689 kJ/mol
# Density = 1.707099 g / cm^3
# Si number density = 17.109935 Si / 1000 Ang^3
#
#
#
# Elastic Constant Matrix: (Units=GPa)
#
#
# Indices 1 2 3 4 5 6 
#
# 1 70.7293 36.4818 26.5682 0.0000 0.0000 0.0000
# 2 36.4818 103.9907 42.0895 0.0000 0.0000 0.0000
# 3 26.5682 42.0895 77.4157 0.0000 0.0000 0.0000
# 4 0.0000 0.0000 0.0000 33.3014 0.0000 0.0000
# 5 0.0000 0.0000 0.0000 0.0000 15.3398 0.0000
# 6 0.0000 0.0000 0.0000 0.0000 0.0000 17.7835
#
#
#
# Elastic Compliance Matrix: (Units=1/GPa)
#
#
# Indices 1 2 3 4 5 6 
#
# 1 0.017978 -0.004885 -0.003514 0.000000 0.000000 0.000000
# 2 -0.004885 0.013657 -0.005748 0.000000 0.000000 0.000000
# 3 -0.003514 -0.005748 0.017249 0.000000 0.000000 0.000000
# 4 0.000000 0.000000 0.000000 0.030029 0.000000 0.000000
# 5 0.000000 0.000000 0.000000 0.000000 0.065190 0.000000
# 6 0.000000 0.000000 0.000000 0.000000 0.000000 0.056232
#
#
# Mechanical properties :
#
#
# Convention : Reuss Voigt Hill
#
# Bulk Modulus (GPa) = 48.57056 51.37941 49.97498
# Shear Modulus (GPa) = 21.23225 23.08468 22.15847
#
# Velocity S-wave (km/s) = 3.52651 3.67713 3.60260
# Velocity P-wave (km/s) = 6.71049 6.93704 6.82470
#
# Compressibility (1/GPa) = 0.02058860
#
# Stress axis : x y z
#
# Youngs Moduli (GPa) = 55.62380 73.22507 57.97572
#
# Poissons Ratio (x) = 0.35768 0.20373
# Poissons Ratio (y) = 0.27170 0.33327
# Poissons Ratio (z) = 0.19547 0.42093
#
# Static dielectric constant tensor:
#      x y z
#    x 1.605720 0.000000 0.000000 
#    y 0.000000 1.602920 0.000000 
#    z 0.000000 0.000000 1.595380 
# 
# From -- ./inp_files/29145.got.cif
#   From: 2010.05.17/outbox.cif.g08.bks.cpg/sg71_15_cif.got.tgz:29145.got - 2010.06.03 16:22:01.
