data_PCOD9521604
_publ_section_title
;
Structure prediction by ZEFSAII (Michael W. Deem and Ramdas Pophale) SiO2 
 PCOD9521604
Probable space group: I M M M
;
_chemical_formula_sum "Si O2"
_cell_formula_units_Z 88
_cell_length_a 21.067317
_cell_length_b 23.435389
_cell_length_c 7.595509
_cell_angle_alpha 90.000000
_cell_angle_beta 90.000000
_cell_angle_gamma 90.000000
_cell_volume 3750.060545
_symmetry_space_group_name_H-M "I M M M"
_symmetry_group_IT_number 71
_symmetry_cell_setting 'orthorhombic'
loop_
_space_group_symop_operation_xyz
x,y,z
-x,-y,z
x,-y,-z
-x,y,-z
-x,-y,-z
x,y,-z
-x,y,z
x,-y,z
1/2+x,1/2+y,1/2+z
1/2-x,1/2-y,1/2+z
1/2+x,1/2-y,1/2-z
1/2-x,1/2+y,1/2-z
1/2-x,1/2-y,1/2-z
1/2+x,1/2+y,1/2-z
1/2-x,1/2+y,1/2+z
1/2+x,1/2-y,1/2+z
loop_
_atom_site_type_symbol
_atom_site_label
_atom_site_fract_x
_atom_site_fract_y
_atom_site_fract_z
Si Si1 0.000000 0.286175 0.295314
Si Si2 0.424754 0.500000 0.215791
Si Si3 0.000000 0.421174 0.295078
Si Si4 0.344554 0.610648 0.800086
Si Si5 0.371361 0.271032 0.297203
Si Si6 0.212293 0.331767 0.215756
Si Si7 0.859699 0.559691 0.796649
O O1 0.000000 0.353571 0.283067
O O2 0.064051 0.263940 0.209860
O O3 0.000000 0.269330 0.500000
O O4 0.500000 0.500000 0.270134
O O5 0.384564 0.443198 0.272476
O O6 0.426433 0.500000 0.000000
O O7 0.064855 0.441218 0.210878
O O8 0.000000 0.437212 0.500000
O O9 0.384508 0.668996 0.796788
O O10 0.278686 0.638610 0.728068
O O11 0.328843 0.593490 0.000000
O O12 0.356377 0.283525 0.500000
O O13 0.315432 0.229594 0.222819
O O14 0.162838 0.380208 0.276673
O O15 0.213381 0.327020 0.000000
O O16 0.835434 0.500000 0.716617
O O17 0.838910 0.559966 0.000000
#
# Coordination Sequence:
#
# PCOD9521604 Si02
#       7
#     8   8   8  16  16  16  16
#     4  11  23  38  58  84 113 152 199 240 292 353
#     4   9  20  38  61  91 123 156 198 253 299 344
#     4  11  22  36  53  78 113 151 193 240 293 346
#     4  10  21  38  62  88 119 156 198 242 294 356
#     4  11  22  38  60  87 120 154 193 245 305 354
#     4   9  19  35  57  87 118 153 196 247 295 346
#     4  10  20  34  55  79 110 153 201 244 287 338
#
# _framework density 23.466287000000001
#
# number of rings (size 3 to 8) (size 9 to 14) (size 15 to 20)
#    0.000    1.909    1.818    1.909    2.545    2.182 
#    0.000    2.273    0.000    0.545    0.000    0.000 
#    0.000    0.000    0.000    0.000    0.000    0.000 
#
# Total GULP energy -245316.148738 kJ/mol
# GULP energy per Si atom -5575.367017 kJ/mol
# Density = 2.341288 g / cm^3
# Si number density = 23.466287 Si / 1000 Ang^3
#
#
#
# Elastic Constant Matrix: (Units=GPa)
#
#
# Indices 1 2 3 4 5 6 
#
# 1 121.3698 64.3362 5.4170 0.0000 0.0000 0.0000
# 2 64.3362 190.9088 17.7738 0.0000 0.0000 0.0000
# 3 5.4170 17.7738 57.9735 0.0000 0.0000 0.0000
# 4 0.0000 0.0000 0.0000 76.2806 0.0000 0.0000
# 5 0.0000 0.0000 0.0000 0.0000 5.3424 0.0000
# 6 0.0000 0.0000 0.0000 0.0000 0.0000 7.8967
#
#
#
# Elastic Compliance Matrix: (Units=1/GPa)
#
#
# Indices 1 2 3 4 5 6 
#
# 1 0.010032 -0.003390 0.000102 0.000000 0.000000 0.000000
# 2 -0.003390 0.006538 -0.001688 0.000000 0.000000 0.000000
# 3 0.000102 -0.001688 0.017757 0.000000 0.000000 0.000000
# 4 0.000000 0.000000 0.000000 0.013109 0.000000 0.000000
# 5 0.000000 0.000000 0.000000 0.000000 0.187184 0.000000
# 6 0.000000 0.000000 0.000000 0.000000 0.000000 0.126635
#
#
# Mechanical properties :
#
#
# Convention : Reuss Voigt Hill
#
# Bulk Modulus (GPa) = 41.02547 60.58958 50.80752
# Shear Modulus (GPa) = 13.18109 36.75226 24.96668
#
# Velocity S-wave (km/s) = 2.37260 3.96178 3.26534
# Velocity P-wave (km/s) = 5.00263 6.84131 5.99291
#
# Compressibility (1/GPa) = 0.02437510
#
# Stress axis : x y z
#
# Youngs Moduli (GPa) = 99.68269 152.95844 56.31541
#
# Poissons Ratio (x) = 0.51856 -0.00575
# Poissons Ratio (y) = 0.33795 0.09504
# Poissons Ratio (z) = -0.01017 0.25813
#
# Static dielectric constant tensor:
#      x y z
#    x 1.915590 0.000000 0.000000 
#    y 0.000000 2.545540 0.000000 
#    z 0.000000 0.000000 1.955050 
# 
# From -- ./inp_files/10526.got.cif
#   From: 2010.05.17/outbox.cif.g08.bks.cpg/sg71_6_cif.got.tgz:10526.got - 2010.06.03 16:22:01.
