data_PCOD9521302
_publ_section_title
;
Structure prediction by ZEFSAII (Michael W. Deem and Ramdas Pophale) SiO2 
 PCOD9521302
Probable space group: I M M M
;
_chemical_formula_sum "Si O2"
_cell_formula_units_Z 88
_cell_length_a 20.700744
_cell_length_b 12.976078
_cell_length_c 19.087319
_cell_angle_alpha 90.000000
_cell_angle_beta 90.000000
_cell_angle_gamma 90.000000
_cell_volume 5127.130054
_symmetry_space_group_name_H-M "I M M M"
_symmetry_group_IT_number 71
_symmetry_cell_setting 'orthorhombic'
loop_
_space_group_symop_operation_xyz
x,y,z
-x,-y,z
x,-y,-z
-x,y,-z
-x,-y,-z
x,y,-z
-x,y,z
x,-y,z
1/2+x,1/2+y,1/2+z
1/2-x,1/2-y,1/2+z
1/2+x,1/2-y,1/2-z
1/2-x,1/2+y,1/2-z
1/2-x,1/2-y,1/2-z
1/2+x,1/2+y,1/2-z
1/2-x,1/2+y,1/2+z
1/2+x,1/2-y,1/2+z
loop_
_atom_site_type_symbol
_atom_site_label
_atom_site_fract_x
_atom_site_fract_y
_atom_site_fract_z
Si Si1 0.923831 0.618172 0.308209
Si Si2 0.775032 0.122972 0.678138
Si Si3 0.870970 0.759610 0.583114
Si Si4 0.149512 0.757103 0.202321
Si Si5 0.000000 0.884562 0.415370
Si Si6 0.576633 0.377523 0.581682
O O1 0.909734 0.500000 0.289325
O O2 0.881044 0.654005 0.374520
O O3 0.904432 0.696078 0.246643
O O4 0.000000 0.625233 0.324656
O O5 0.811175 0.175920 0.612579
O O6 0.816198 0.160394 0.745913
O O7 0.704711 0.173991 0.684105
O O8 0.773426 0.000000 0.673162
O O9 0.868633 0.745823 0.500000
O O10 0.935135 0.824709 0.603086
O O11 0.118951 0.812231 0.135408
O O12 0.000000 0.890679 0.500000
O O13 0.000000 0.000000 0.386420
O O14 0.590817 0.354267 0.500000
O O15 0.500000 0.358729 0.592935
O O16 0.587419 0.500000 0.592098
#
# Coordination Sequence:
#
# PCOD9521302 Si02
#       6
#    16  16  16  16   8  16
#     4  10  20  34  54  78 104 138 178 218 264 315
#     4  10  21  35  52  75 105 144 183 218 259 310
#     4  10  20  34  51  75 104 137 178 221 265 313
#     4  10  20  35  55  77 107 140 177 219 261 312
#     4   9  16  28  47  69  97 131 165 210 262 305
#     4   9  18  34  58  86 111 135 167 213 270 322
#
# _framework density 17.163596999999999
#
# number of rings (size 3 to 8) (size 9 to 14) (size 15 to 20)
#    0.000    2.273    0.909    2.727    0.000    2.182 
#    0.000    1.818    0.000    1.636    0.000    6.364 
#    0.000    0.000    0.000    0.000    0.000    0.000 
#
# Total GULP energy -245411.368544 kJ/mol
# GULP energy per Si atom -5577.531103 kJ/mol
# Density = 1.712453 g / cm^3
# Si number density = 17.163597 Si / 1000 Ang^3
#
#
#
# Elastic Constant Matrix: (Units=GPa)
#
#
# Indices 1 2 3 4 5 6 
#
# 1 48.7437 38.6185 42.6447 0.0000 0.0000 0.0000
# 2 38.6185 99.5721 57.3230 0.0000 0.0000 0.0000
# 3 42.6447 57.3230 109.7070 0.0000 0.0000 0.0000
# 4 0.0000 0.0000 0.0000 20.8356 0.0000 0.0000
# 5 0.0000 0.0000 0.0000 0.0000 26.4681 0.0000
# 6 0.0000 0.0000 0.0000 0.0000 0.0000 22.1431
#
#
#
# Elastic Compliance Matrix: (Units=1/GPa)
#
#
# Indices 1 2 3 4 5 6 
#
# 1 0.035294 -0.008282 -0.009392 0.000000 0.000000 0.000000
# 2 -0.008282 0.016307 -0.005301 0.000000 0.000000 0.000000
# 3 -0.009392 -0.005301 0.015536 0.000000 0.000000 0.000000
# 4 0.000000 0.000000 0.000000 0.047995 0.000000 0.000000
# 5 0.000000 0.000000 0.000000 0.000000 0.037781 0.000000
# 6 0.000000 0.000000 0.000000 0.000000 0.000000 0.045161
#
#
# Mechanical properties :
#
#
# Convention : Reuss Voigt Hill
#
# Bulk Modulus (GPa) = 47.19929 59.46615 53.33272
# Shear Modulus (GPa) = 19.91357 21.85181 20.88269
#
# Velocity S-wave (km/s) = 3.40990 3.57199 3.49189
# Velocity P-wave (km/s) = 6.56221 7.19264 6.88464
#
# Compressibility (1/GPa) = 0.02118676
#
# Stress axis : x y z
#
# Youngs Moduli (GPa) = 28.33378 61.32382 64.36674
#
# Poissons Ratio (x) = 0.50786 0.60453
# Poissons Ratio (y) = 0.23465 0.34123
# Poissons Ratio (z) = 0.26611 0.32510
#
# Static dielectric constant tensor:
#      x y z
#    x 1.583490 0.000000 0.000000 
#    y 0.000000 1.570960 0.000000 
#    z 0.000000 0.000000 1.569400 
# 
# From -- ./inp_files/25660.got.cif
#   From: 2010.05.17/outbox.cif.g08.bks.cpg/sg71_13_cif.got.tgz:25660.got - 2010.06.03 16:22:01.
