data_PCOD9521383
_publ_section_title
;
Structure prediction by ZEFSAII (Michael W. Deem and Ramdas Pophale) SiO2 
 PCOD9521383
Probable space group: I M M M
;
_chemical_formula_sum "Si O2"
_cell_formula_units_Z 56
_cell_length_a 29.347508
_cell_length_b 8.504000
_cell_length_c 10.145405
_cell_angle_alpha 90.000000
_cell_angle_beta 90.000000
_cell_angle_gamma 90.000000
_cell_volume 2532.000982
_symmetry_space_group_name_H-M "I M M M"
_symmetry_group_IT_number 71
_symmetry_cell_setting 'orthorhombic'
loop_
_space_group_symop_operation_xyz
x,y,z
-x,-y,z
x,-y,-z
-x,y,-z
-x,-y,-z
x,y,-z
-x,y,z
x,-y,z
1/2+x,1/2+y,1/2+z
1/2-x,1/2-y,1/2+z
1/2+x,1/2-y,1/2-z
1/2-x,1/2+y,1/2-z
1/2-x,1/2-y,1/2-z
1/2+x,1/2+y,1/2-z
1/2-x,1/2+y,1/2+z
1/2+x,1/2-y,1/2+z
loop_
_atom_site_type_symbol
_atom_site_label
_atom_site_fract_x
_atom_site_fract_y
_atom_site_fract_z
Si Si1 0.821452 0.811226 0.500000
Si Si2 0.448443 0.685826 0.713025
Si Si3 0.853743 0.687826 0.219629
Si Si4 0.053415 0.323737 0.500000
Si Si5 0.283385 0.191542 0.500000
O O1 0.844877 0.751104 0.366634
O O2 0.768776 0.756369 0.500000
O O3 0.822913 0.000000 0.500000
O O4 0.500000 0.743017 0.677140
O O5 0.448006 0.500000 0.689829
O O6 0.402288 0.760713 0.657733
O O7 0.440849 0.724952 0.867546
O O8 0.853708 0.500000 0.224532
O O9 0.812129 0.742448 0.127419
O O10 0.075325 0.500000 0.500000
O O11 0.000000 0.352134 0.500000
O O12 0.282859 0.000000 0.500000
#
# Coordination Sequence:
#
# PCOD9521383 Si02
#       5
#     8  16  16   8   8
#     4  11  22  40  64  91 121 152 191 241 298 354
#     4  10  20  34  52  78 114 154 194 237 287 343
#     4  11  22  39  62  89 119 154 198 243 291 347
#     4   9  16  27  46  73 104 141 186 235 284 331
#     4   9  22  42  63  87 118 155 196 244 293 348
#
# _framework density 22.116895
#
# number of rings (size 3 to 8) (size 9 to 14) (size 15 to 20)
#    0.000    1.857    0.000    4.286    0.000    3.429 
#    0.000    7.857    0.000    4.286    0.000    0.000 
#    0.000    0.000    0.000    0.000    0.000    0.000 
#
# Total GULP energy -156261.055449 kJ/mol
# GULP energy per Si atom -5580.751980 kJ/mol
# Density = 2.206656 g / cm^3
# Si number density = 22.116895 Si / 1000 Ang^3
#
#
#
# Elastic Constant Matrix: (Units=GPa)
#
#
# Indices 1 2 3 4 5 6 
#
# 1 230.5136 35.3921 48.4932 0.0000 0.0000 0.0000
# 2 35.3921 64.6521 14.6502 0.0000 0.0000 0.0000
# 3 48.4932 14.6502 97.4732 0.0000 0.0000 0.0000
# 4 0.0000 0.0000 0.0000 -1.5965 0.0000 0.0000
# 5 0.0000 0.0000 0.0000 0.0000 253.5433 0.0000
# 6 0.0000 0.0000 0.0000 0.0000 0.0000 34.7995
#
#
#
# Elastic Compliance Matrix: (Units=1/GPa)
#
#
# Indices 1 2 3 4 5 6 
#
# 1 0.005162 -0.002323 -0.002219 0.000000 0.000000 0.000000
# 2 -0.002323 0.017058 -0.001408 0.000000 0.000000 0.000000
# 3 -0.002219 -0.001408 0.011575 0.000000 0.000000 0.000000
# 4 0.000000 0.000000 0.000000 -0.626369 0.000000 0.000000
# 5 0.000000 0.000000 0.000000 0.000000 0.003944 0.000000
# 6 0.000000 0.000000 0.000000 0.000000 0.000000 0.028736
#
#
# Mechanical properties :
#
#
# Convention : Reuss Voigt Hill
#
# Bulk Modulus (GPa) = 45.67298 65.52330 55.59814
# Shear Modulus (GPa) = -9.24733 76.95615 33.85441
#
# Velocity S-wave (km/s) = -2.04700 5.90514 3.91667
# Velocity P-wave (km/s) = 3.88698 8.72837 6.75622
#
# Compressibility (1/GPa) = 0.02189478
#
# Stress axis : x y z
#
# Youngs Moduli (GPa) = 193.74098 58.62334 86.39509
#
# Poissons Ratio (x) = 0.13617 0.19169
# Poissons Ratio (y) = 0.45002 0.12166
# Poissons Ratio (z) = 0.42987 0.08256
#
# Static dielectric constant tensor:
#      x y z
#    x 1.864890 0.000000 0.000000 
#    y 0.000000 1.767930 0.000000 
#    z 0.000000 0.000000 3.754960 
# 
# From -- ./inp_files/29407.got.cif
#   From: 2010.05.17/outbox.cif.g08.bks.cpg/sg71_15_cif.got.tgz:29407.got - 2010.06.03 16:22:01.
