data_PCOD9521821
_publ_section_title
;
Structure prediction by ZEFSAII (Michael W. Deem and Ramdas Pophale) SiO2 
 PCOD9521821
Probable space group: I M M M
;
_chemical_formula_sum "Si O2"
_cell_formula_units_Z 76
_cell_length_a 21.385544
_cell_length_b 7.412455
_cell_length_c 24.608507
_cell_angle_alpha 90.000000
_cell_angle_beta 90.000000
_cell_angle_gamma 90.000000
_cell_volume 3900.925335
_symmetry_space_group_name_H-M "I M M M"
_symmetry_group_IT_number 71
_symmetry_cell_setting 'orthorhombic'
loop_
_space_group_symop_operation_xyz
x,y,z
-x,-y,z
x,-y,-z
-x,y,-z
-x,-y,-z
x,y,-z
-x,y,z
x,-y,z
1/2+x,1/2+y,1/2+z
1/2-x,1/2-y,1/2+z
1/2+x,1/2-y,1/2-z
1/2-x,1/2+y,1/2-z
1/2-x,1/2-y,1/2-z
1/2+x,1/2+y,1/2-z
1/2-x,1/2+y,1/2+z
1/2+x,1/2-y,1/2+z
loop_
_atom_site_type_symbol
_atom_site_label
_atom_site_fract_x
_atom_site_fract_y
_atom_site_fract_z
Si Si1 0.719590 0.209396 0.409653
Si Si2 0.682865 0.500000 0.500000
Si Si3 0.141342 0.206618 0.609585
Si Si4 0.571798 0.216830 0.000000
Si Si5 0.071390 0.779358 0.284031
Si Si6 0.688630 0.714676 0.712420
O O1 0.686278 0.340824 0.452077
O O2 0.790517 0.284177 0.402008
O O3 0.693848 0.210222 0.348221
O O4 0.721593 0.000000 0.428783
O O5 0.104463 0.213089 0.553750
O O6 0.098386 0.281543 0.657520
O O7 0.154417 0.000000 0.626116
O O8 0.500000 0.269528 0.000000
O O9 0.576516 0.000000 0.000000
O O10 0.124966 0.723308 0.241743
O O11 0.000000 0.719327 0.274890
O O12 0.069321 0.000000 0.283804
O O13 0.685008 0.500000 0.707272
O O14 0.750000 0.750000 0.750000
#
# Coordination Sequence:
#
# PCOD9521821 Si02
#       6
#    16   4  16   8  16  16
#     4  11  23  39  60  92 122 158 207 262 305 373
#     4  12  24  40  60  92 124 166 212 248 328 364
#     4  10  20  35  54  76 107 154 206 249 295 344
#     4  11  24  35  45  68 106 152 199 248 294 341
#     4   9  18  33  56  85 117 154 203 254 302 368
#     4  11  20  36  60  89 124 164 207 255 320 373
#
# _framework density 19.482557
#
# number of rings (size 3 to 8) (size 9 to 14) (size 15 to 20)
#    0.000    1.579    3.158    2.526    2.947    3.368 
#    0.000    0.000    0.000    3.789    0.000    1.474 
#    0.000    1.684    0.000    0.000    0.000    0.000 
#
# Total GULP energy -211619.697153 kJ/mol
# GULP energy per Si atom -5568.939399 kJ/mol
# Density = 1.943821 g / cm^3
# Si number density = 19.482557 Si / 1000 Ang^3
#
#
#
# Elastic Constant Matrix: (Units=GPa)
#
#
# Indices 1 2 3 4 5 6 
#
# 1 53.3036 2.0313 36.7569 0.0000 0.0000 0.0000
# 2 2.0313 102.7583 14.7793 0.0000 0.0000 0.0000
# 3 36.7569 14.7793 147.5204 0.0000 0.0000 0.0000
# 4 0.0000 0.0000 0.0000 37.0552 0.0000 0.0000
# 5 0.0000 0.0000 0.0000 0.0000 -35.4894 0.0000
# 6 0.0000 0.0000 0.0000 0.0000 0.0000 19.0965
#
#
#
# Elastic Compliance Matrix: (Units=1/GPa)
#
#
# Indices 1 2 3 4 5 6 
#
# 1 0.022666 0.000370 -0.005685 0.000000 0.000000 0.000000
# 2 0.000370 0.009880 -0.001082 0.000000 0.000000 0.000000
# 3 -0.005685 -0.001082 0.008304 0.000000 0.000000 0.000000
# 4 0.000000 0.000000 0.000000 0.026987 0.000000 0.000000
# 5 0.000000 0.000000 0.000000 0.000000 -0.028177 0.000000
# 6 0.000000 0.000000 0.000000 0.000000 0.000000 0.052365
#
#
# Mechanical properties :
#
#
# Convention : Reuss Voigt Hill
#
# Bulk Modulus (GPa) = 35.64332 45.63524 40.63928
# Shear Modulus (GPa) = 43.79408 20.80012 32.29710
#
# Velocity S-wave (km/s) = 4.74630 3.27100 4.07596
# Velocity P-wave (km/s) = 6.95494 6.14332 6.56170
#
# Compressibility (1/GPa) = 0.02805575
#
# Stress axis : x y z
#
# Youngs Moduli (GPa) = 44.11814 101.21586 120.43061
#
# Poissons Ratio (x) = -0.03740 0.68461
# Poissons Ratio (y) = -0.01630 0.13029
# Poissons Ratio (z) = 0.25080 0.10950
#
# Static dielectric constant tensor:
#      x y z
#    x 1.674900 0.000000 0.000000 
#    y 0.000000 1.752880 0.000000 
#    z 0.000000 0.000000 1.635270 
# 
# From -- ./inp_files/65826.got.cif
#   From: 2010.05.17/outbox.cif.g08.bks.cpg/sg71_33_cif.got.tgz:65826.got - 2010.06.03 16:22:01.
