data_PCOD9521540
_publ_section_title
;
Structure prediction by ZEFSAII (Michael W. Deem and Ramdas Pophale) SiO2 
 PCOD9521540
Probable space group: I M M M
;
_chemical_formula_sum "Si O2"
_cell_formula_units_Z 96
_cell_length_a 20.156573
_cell_length_b 8.929972
_cell_length_c 29.976527
_cell_angle_alpha 90.000000
_cell_angle_beta 90.000000
_cell_angle_gamma 90.000000
_cell_volume 5395.703891
_symmetry_space_group_name_H-M "I M M M"
_symmetry_group_IT_number 71
_symmetry_cell_setting 'orthorhombic'
loop_
_space_group_symop_operation_xyz
x,y,z
-x,-y,z
x,-y,-z
-x,y,-z
-x,-y,-z
x,y,-z
-x,y,z
x,-y,z
1/2+x,1/2+y,1/2+z
1/2-x,1/2-y,1/2+z
1/2+x,1/2-y,1/2-z
1/2-x,1/2+y,1/2-z
1/2-x,1/2-y,1/2-z
1/2+x,1/2+y,1/2-z
1/2-x,1/2+y,1/2+z
1/2+x,1/2-y,1/2+z
loop_
_atom_site_type_symbol
_atom_site_label
_atom_site_fract_x
_atom_site_fract_y
_atom_site_fract_z
Si Si1 0.289106 0.678705 0.207894
Si Si2 0.426669 0.825758 0.945735
Si Si3 0.425650 0.323561 0.328842
Si Si4 0.289916 0.322609 0.626722
Si Si5 0.290732 0.675335 0.946789
Si Si6 0.924330 0.678454 0.267737
O O1 0.287487 0.500000 0.211706
O O2 0.250000 0.750000 0.250000
O O3 0.252120 0.735050 0.163853
O O4 0.364641 0.737473 0.207934
O O5 0.500000 0.775611 0.930649
O O6 0.363573 0.730697 0.931352
O O7 0.418127 0.000000 0.932966
O O8 0.427580 0.821391 0.000000
O O9 0.500000 0.300024 0.346514
O O10 0.419937 0.500000 0.316028
O O11 0.366974 0.291490 0.363072
O O12 0.418011 0.226515 0.284160
O O13 0.278887 0.500000 0.631914
O O14 0.264293 0.268320 0.579193
O O15 0.283357 0.500000 0.937480
O O16 0.286820 0.698215 0.000000
O O17 0.916199 0.500000 0.272119
O O18 0.000000 0.717358 0.281579
#
# Coordination Sequence:
#
# PCOD9521540 Si02
#       6
#    16  16  16  16  16  16
#     4  12  23  36  55  80 113 148 182 224 270 323
#     4   8  14  27  49  75 101 131 170 216 265 318
#     4   9  18  33  54  80 108 139 178 224 272 325
#     4  11  22  36  57  83 110 143 182 227 276 329
#     4  10  21  36  54  78 109 144 183 229 277 327
#     4  10  20  34  54  80 111 148 187 226 271 324
#
# _framework density 17.791931999999999
#
# number of rings (size 3 to 8) (size 9 to 14) (size 15 to 20)
#    0.000    2.000    1.667    3.500    0.000    3.000 
#    0.000    2.500    0.000    5.500    0.000    3.500 
#    0.000    0.000    0.000    0.000    0.000    0.000 
#
# Total GULP energy -267904.227217 kJ/mol
# GULP energy per Si atom -5581.338067 kJ/mol
# Density = 1.775144 g / cm^3
# Si number density = 17.791932 Si / 1000 Ang^3
#
#
#
# Elastic Constant Matrix: (Units=GPa)
#
#
# Indices 1 2 3 4 5 6 
#
# 1 138.8021 69.1370 30.2483 0.0000 0.0000 0.0000
# 2 69.1370 92.4335 28.1636 0.0000 0.0000 0.0000
# 3 30.2483 28.1636 19.2502 0.0000 0.0000 0.0000
# 4 0.0000 0.0000 0.0000 24.8357 0.0000 0.0000
# 5 0.0000 0.0000 0.0000 0.0000 22.8388 0.0000
# 6 0.0000 0.0000 0.0000 0.0000 0.0000 24.0056
#
#
#
# Elastic Compliance Matrix: (Units=1/GPa)
#
#
# Indices 1 2 3 4 5 6 
#
# 1 0.012628 -0.006134 -0.010869 0.000000 0.000000 0.000000
# 2 -0.006134 0.022499 -0.023279 0.000000 0.000000 0.000000
# 3 -0.010869 -0.023279 0.103085 0.000000 0.000000 0.000000
# 4 0.000000 0.000000 0.000000 0.040265 0.000000 0.000000
# 5 0.000000 0.000000 0.000000 0.000000 0.043785 0.000000
# 6 0.000000 0.000000 0.000000 0.000000 0.000000 0.041657
#
#
# Mechanical properties :
#
#
# Convention : Reuss Voigt Hill
#
# Bulk Modulus (GPa) = 17.34663 56.17594 36.76129
# Shear Modulus (GPa) = 13.74760 22.53181 18.13971
#
# Velocity S-wave (km/s) = 2.78274 3.56252 3.19650
# Velocity P-wave (km/s) = 4.48283 6.96882 5.85919
#
# Compressibility (1/GPa) = 0.05764809
#
# Stress axis : x y z
#
# Youngs Moduli (GPa) = 79.18623 44.44566 9.70076
#
# Poissons Ratio (x) = 0.27262 0.10544
# Poissons Ratio (y) = 0.48572 0.22582
# Poissons Ratio (z) = 0.86071 1.03465
#
# Static dielectric constant tensor:
#      x y z
#    x 1.624790 0.000000 0.000000 
#    y 0.000000 1.598630 0.000000 
#    z 0.000000 0.000000 1.605420 
# 
# From -- ./inp_files/10843.got.cif
#   From: 2010.05.17/outbox.cif.g08.bks.cpg/sg71_6_cif.got.tgz:10843.got - 2010.06.03 16:22:01.
