data_PCOD9521507
_publ_section_title
;
Structure prediction by ZEFSAII (Michael W. Deem and Ramdas Pophale) SiO2 
 PCOD9521507
Probable space group: I M M M
;
_chemical_formula_sum "Si O2"
_cell_formula_units_Z 112
_cell_length_a 14.240471
_cell_length_b 14.831105
_cell_length_c 30.627542
_cell_angle_alpha 90.000000
_cell_angle_beta 90.000000
_cell_angle_gamma 90.000000
_cell_volume 6468.595695
_symmetry_space_group_name_H-M "I M M M"
_symmetry_group_IT_number 71
_symmetry_cell_setting 'orthorhombic'
loop_
_space_group_symop_operation_xyz
x,y,z
-x,-y,z
x,-y,-z
-x,y,-z
-x,-y,-z
x,y,-z
-x,y,z
x,-y,z
1/2+x,1/2+y,1/2+z
1/2-x,1/2-y,1/2+z
1/2+x,1/2-y,1/2-z
1/2-x,1/2+y,1/2-z
1/2-x,1/2-y,1/2-z
1/2+x,1/2+y,1/2-z
1/2-x,1/2+y,1/2+z
1/2+x,1/2-y,1/2+z
loop_
_atom_site_type_symbol
_atom_site_label
_atom_site_fract_x
_atom_site_fract_y
_atom_site_fract_z
Si Si1 0.809666 0.399447 0.947549
Si Si2 0.893823 0.359727 0.550602
Si Si3 0.247193 0.396971 0.373328
Si Si4 0.398226 0.641962 0.051382
Si Si5 0.107117 0.609453 0.296635
Si Si6 0.385955 0.103090 0.301510
Si Si7 0.888946 0.735308 0.879491
O O1 0.846789 0.500000 0.938431
O O2 0.700710 0.394736 0.932090
O O3 0.865685 0.322566 0.922593
O O4 0.810797 0.385792 0.000000
O O5 0.876753 0.383304 0.500000
O O6 0.817166 0.396072 0.583482
O O7 0.892436 0.250631 0.553594
O O8 0.000000 0.388854 0.562088
O O9 0.276926 0.500000 0.364413
O O10 0.179317 0.364112 0.334100
O O11 0.331672 0.327707 0.379011
O O12 0.500000 0.614540 0.070245
O O13 0.400783 0.617541 0.000000
O O14 0.103117 0.500000 0.297232
O O15 0.138762 0.633434 0.247602
O O16 0.000000 0.641626 0.304411
O O17 0.500000 0.099684 0.301994
O O18 0.357356 0.171946 0.339015
O O19 0.353057 0.000000 0.309004
O O20 0.000000 0.750655 0.876075
#
# Coordination Sequence:
#
# PCOD9521507 Si02
#       7
#    16  16  16  16  16  16  16
#     4  10  20  34  54  79 103 129 166 211 259 307
#     4   9  17  31  52  76 103 133 163 199 246 301
#     4  11  22  34  51  75 102 135 173 209 250 299
#     4   8  14  27  48  73 102 133 160 188 233 299
#     4   8  15  30  53  81 108 127 150 196 255 310
#     4   8  15  31  55  79 101 125 156 200 256 311
#     4  11  23  37  52  70  97 135 178 221 258 291
#
# _framework density 17.314423000000001
#
# number of rings (size 3 to 8) (size 9 to 14) (size 15 to 20)
#    0.000    2.714    1.429    2.571    0.000    3.429 
#    0.000    2.857    0.000    0.000    0.000    2.000 
#    0.000    3.429    0.000    0.000    0.000    0.000 
#
# Total GULP energy -312090.797437 kJ/mol
# GULP energy per Si atom -5573.049954 kJ/mol
# Density = 1.727501 g / cm^3
# Si number density = 17.314423 Si / 1000 Ang^3
#
#
#
# Elastic Constant Matrix: (Units=GPa)
#
#
# Indices 1 2 3 4 5 6 
#
# 1 75.5094 45.6977 41.0116 0.0000 0.0000 0.0000
# 2 45.6977 88.7661 39.7115 0.0000 0.0000 0.0000
# 3 41.0116 39.7115 67.2542 0.0000 0.0000 0.0000
# 4 0.0000 0.0000 0.0000 16.4314 0.0000 0.0000
# 5 0.0000 0.0000 0.0000 0.0000 12.4871 0.0000
# 6 0.0000 0.0000 0.0000 0.0000 0.0000 356.9469
#
#
#
# Elastic Compliance Matrix: (Units=1/GPa)
#
#
# Indices 1 2 3 4 5 6 
#
# 1 0.023023 -0.007572 -0.009568 0.000000 0.000000 0.000000
# 2 -0.007572 0.017800 -0.005893 0.000000 0.000000 0.000000
# 3 -0.009568 -0.005893 0.024183 0.000000 0.000000 0.000000
# 4 0.000000 0.000000 0.000000 0.060859 0.000000 0.000000
# 5 0.000000 0.000000 0.000000 0.000000 0.080083 0.000000
# 6 0.000000 0.000000 0.000000 0.000000 0.000000 0.002802
#
#
# Mechanical properties :
#
#
# Convention : Reuss Voigt Hill
#
# Bulk Modulus (GPa) = 52.79906 53.81904 53.30905
# Shear Modulus (GPa) = 19.14763 84.18034 51.66399
#
# Velocity S-wave (km/s) = 3.32908 6.98027 5.46841
# Velocity P-wave (km/s) = 6.73331 9.80390 8.40993
#
# Compressibility (1/GPa) = 0.01893973
#
# Stress axis : x y z
#
# Youngs Moduli (GPa) = 43.43566 56.17988 41.35068
#
# Poissons Ratio (x) = 0.42538 0.39566
# Poissons Ratio (y) = 0.32888 0.24368
# Poissons Ratio (z) = 0.41561 0.33108
#
# Static dielectric constant tensor:
#      x y z
#    x 1.589500 0.000000 0.000000 
#    y 0.000000 1.604110 0.000000 
#    z 0.000000 0.000000 1.598810 
# 
# From -- ./inp_files/70065.got.cif
#   From: 2010.05.17/outbox.cif.g08.bks.cpg/sg71_36_cif.got.tgz:70065.got - 2010.06.03 16:22:01.
