data_PCOD9521371
_publ_section_title
;
Structure prediction by ZEFSAII (Michael W. Deem and Ramdas Pophale) SiO2 
 PCOD9521371
Probable space group: I M M M
;
_chemical_formula_sum "Si O2"
_cell_formula_units_Z 104
_cell_length_a 20.353743
_cell_length_b 26.874880
_cell_length_c 8.303227
_cell_angle_alpha 90.000000
_cell_angle_beta 90.000000
_cell_angle_gamma 90.000000
_cell_volume 4541.901709
_symmetry_space_group_name_H-M "I M M M"
_symmetry_group_IT_number 71
_symmetry_cell_setting 'orthorhombic'
loop_
_space_group_symop_operation_xyz
x,y,z
-x,-y,z
x,-y,-z
-x,y,-z
-x,-y,-z
x,y,-z
-x,y,z
x,-y,z
1/2+x,1/2+y,1/2+z
1/2-x,1/2-y,1/2+z
1/2+x,1/2-y,1/2-z
1/2-x,1/2+y,1/2-z
1/2-x,1/2-y,1/2-z
1/2+x,1/2+y,1/2-z
1/2-x,1/2+y,1/2+z
1/2+x,1/2-y,1/2+z
loop_
_atom_site_type_symbol
_atom_site_label
_atom_site_fract_x
_atom_site_fract_y
_atom_site_fract_z
Si Si1 0.074832 0.598581 0.826783
Si Si2 0.076201 0.441283 0.500000
Si Si3 0.070815 0.915349 0.306070
Si Si4 0.394891 0.200452 0.191530
Si Si5 0.215395 0.054096 0.305871
Si Si6 0.109080 0.807585 0.806208
Si Si7 0.746925 0.160818 0.192426
O O1 0.107053 0.577164 0.665823
O O2 0.071544 0.657313 0.794556
O O3 0.000000 0.578566 0.832445
O O4 0.105987 0.587726 0.000000
O O5 0.074398 0.500000 0.500000
O O6 0.000000 0.422221 0.500000
O O7 0.071473 0.919355 0.500000
O O8 0.139124 0.939619 0.249290
O O9 0.075137 0.857385 0.257512
O O10 0.000000 0.935292 0.249261
O O11 0.415862 0.255767 0.235917
O O12 0.317971 0.191478 0.234281
O O13 0.404285 0.191607 0.000000
O O14 0.214892 0.053666 0.500000
O O15 0.251897 0.104328 0.255012
O O16 0.240512 0.000000 0.250150
O O17 0.185444 0.813654 0.753297
O O18 0.105148 0.806380 0.000000
O O19 0.749337 0.158262 0.000000
#
# Coordination Sequence:
#
# PCOD9521371 Si02
#       7
#    16   8  16  16  16  16  16
#     4  10  21  37  57  84 115 145 182 227 277 334
#     4   9  18  36  60  82 108 142 178 220 268 320
#     4   9  18  33  52  76 108 145 185 227 272 327
#     4  11  21  35  56  79 107 145 186 226 280 339
#     4   9  18  33  54  79 107 141 181 228 280 329
#     4  10  20  34  52  77 107 140 181 228 280 334
#     4   9  20  36  54  77 105 139 181 229 277 333
#
# _framework density 22.897895999999999
#
# number of rings (size 3 to 8) (size 9 to 14) (size 15 to 20)
#    0.000    2.385    0.769    1.385    0.000    3.692 
#    0.000    3.846    0.000    0.000    0.000    4.308 
#    0.000    0.000    0.000    0.000    0.000    0.000 
#
# Total GULP energy -290419.228629 kJ/mol
# GULP energy per Si atom -5584.985166 kJ/mol
# Density = 2.284578 g / cm^3
# Si number density = 22.897896 Si / 1000 Ang^3
#
#
#
# Elastic Constant Matrix: (Units=GPa)
#
#
# Indices 1 2 3 4 5 6 
#
# 1 68.2471 -9.1087 8.1173 0.0000 0.0000 0.0000
# 2 -9.1087 101.5523 8.7929 0.0000 0.0000 0.0000
# 3 8.1173 8.7929 68.1737 0.0000 0.0000 0.0000
# 4 0.0000 0.0000 0.0000 12.9503 0.0000 0.0000
# 5 0.0000 0.0000 0.0000 0.0000 -19.8509 0.0000
# 6 0.0000 0.0000 0.0000 0.0000 0.0000 11.5966
#
#
#
# Elastic Compliance Matrix: (Units=1/GPa)
#
#
# Indices 1 2 3 4 5 6 
#
# 1 0.015094 0.001526 -0.001994 0.000000 0.000000 0.000000
# 2 0.001526 0.010113 -0.001486 0.000000 0.000000 0.000000
# 3 -0.001994 -0.001486 0.015098 0.000000 0.000000 0.000000
# 4 0.000000 0.000000 0.000000 0.077218 0.000000 0.000000
# 5 0.000000 0.000000 0.000000 0.000000 -0.050376 0.000000
# 6 0.000000 0.000000 0.000000 0.000000 0.000000 0.086232
#
#
# Mechanical properties :
#
#
# Convention : Reuss Voigt Hill
#
# Bulk Modulus (GPa) = 27.47518 28.17513 27.82515
# Shear Modulus (GPa) = 29.51271 16.28396 22.89834
#
# Velocity S-wave (km/s) = 3.59400 2.66964 3.16574
# Velocity P-wave (km/s) = 5.40809 4.67269 5.05379
#
# Compressibility (1/GPa) = 0.03639649
#
# Stress axis : x y z
#
# Youngs Moduli (GPa) = 66.25346 98.88526 66.23611
#
# Poissons Ratio (x) = -0.15095 0.13208
# Poissons Ratio (y) = -0.10113 0.09843
# Poissons Ratio (z) = 0.13211 0.14695
#
# Static dielectric constant tensor:
#      x y z
#    x 1.935220 0.000000 0.000000 
#    y 0.000000 1.809760 0.000000 
#    z 0.000000 0.000000 1.835350 
# 
# From -- ./inp_files/13607.got.cif
#   From: 2010.05.17/outbox.cif.g08.bks.cpg/sg71_7_cif.got.tgz:13607.got - 2010.06.03 16:22:01.
