data_PCOD9521183
_publ_section_title
;
Structure prediction by ZEFSAII (Michael W. Deem and Ramdas Pophale) SiO2 
 PCOD9521183
Probable space group: I M M M
;
_chemical_formula_sum "Si O2"
_cell_formula_units_Z 90
_cell_length_a 25.003643
_cell_length_b 22.514080
_cell_length_c 7.809313
_cell_angle_alpha 90.000000
_cell_angle_beta 90.000000
_cell_angle_gamma 90.000000
_cell_volume 4396.127951
_symmetry_space_group_name_H-M "I M M M"
_symmetry_group_IT_number 71
_symmetry_cell_setting 'orthorhombic'
loop_
_space_group_symop_operation_xyz
x,y,z
-x,-y,z
x,-y,-z
-x,y,-z
-x,-y,-z
x,y,-z
-x,y,z
x,-y,z
1/2+x,1/2+y,1/2+z
1/2-x,1/2-y,1/2+z
1/2+x,1/2-y,1/2-z
1/2-x,1/2+y,1/2-z
1/2-x,1/2-y,1/2-z
1/2+x,1/2+y,1/2-z
1/2-x,1/2+y,1/2+z
1/2+x,1/2-y,1/2+z
loop_
_atom_site_type_symbol
_atom_site_label
_atom_site_fract_x
_atom_site_fract_y
_atom_site_fract_z
Si Si1 0.000000 0.207669 0.705255
Si Si2 0.500000 0.155862 0.203763
Si Si3 0.588155 0.500000 0.309309
Si Si4 0.706393 0.932830 0.290501
Si Si5 0.000000 0.000000 0.500000
Si Si6 0.116010 0.656839 0.204689
Si Si7 0.673518 0.593970 0.198901
Si Si8 0.116531 0.792887 0.202467
O O1 0.943587 0.182409 0.765718
O O2 0.000000 0.206220 0.500000
O O3 0.000000 0.275902 0.770386
O O4 0.443042 0.130688 0.260035
O O5 0.500000 0.158167 0.000000
O O6 0.564235 0.500000 0.500000
O O7 0.627995 0.556269 0.291680
O O8 0.546607 0.500000 0.152843
O O9 0.706183 0.930740 0.500000
O O10 0.663116 0.885015 0.229409
O O11 0.766862 0.918498 0.235491
O O12 0.692549 0.000000 0.240189
O O13 0.118421 0.725002 0.270466
O O14 0.121354 0.660852 0.000000
O O15 0.658407 0.662935 0.213672
O O16 0.672265 0.575864 0.000000
O O17 0.125995 0.791829 0.000000
#
# Coordination Sequence:
#
# PCOD9521183 Si02
#       8
#     8   8   8  16   2  16  16  16
#     4   9  17  32  52  76 104 148 195 231 286 360
#     4   9  17  31  53  79 115 151 182 232 296 359
#     4  12  25  45  69  94 127 168 217 266 321 371
#     4   9  18  35  62  86 110 153 207 253 304 368
#     4  12  26  48  68  98 132 168 218 278 314 366
#     4   9  18  34  57  86 116 152 198 249 304 367
#     4  11  21  39  62  86 118 162 208 255 308 370
#     4  10  20  33  52  83 119 151 192 249 309 366
#
# _framework density 20.472560999999999
#
# number of rings (size 3 to 8) (size 9 to 14) (size 15 to 20)
#    0.000    2.133    1.778    1.733    0.000    4.267 
#    1.600    4.000    0.000    2.667    0.000    0.000 
#    0.000    0.000    0.000    0.000    0.000    0.000 
#
# Total GULP energy -250897.084617 kJ/mol
# GULP energy per Si atom -5575.490769 kJ/mol
# Density = 2.042596 g / cm^3
# Si number density = 20.472561 Si / 1000 Ang^3
#
#
#
# Elastic Constant Matrix: (Units=GPa)
#
#
# Indices 1 2 3 4 5 6 
#
# 1 131.9662 68.3500 20.5380 0.0000 0.0000 0.0000
# 2 68.3500 95.4744 8.5171 0.0000 0.0000 0.0000
# 3 20.5380 8.5171 71.7097 0.0000 0.0000 0.0000
# 4 0.0000 0.0000 0.0000 14.8510 0.0000 0.0000
# 5 0.0000 0.0000 0.0000 0.0000 7.0435 0.0000
# 6 0.0000 0.0000 0.0000 0.0000 0.0000 -71.3272
#
#
#
# Elastic Compliance Matrix: (Units=1/GPa)
#
#
# Indices 1 2 3 4 5 6 
#
# 1 0.012485 -0.008711 -0.002541 0.000000 0.000000 0.000000
# 2 -0.008711 0.016664 0.000516 0.000000 0.000000 0.000000
# 3 -0.002541 0.000516 0.014612 0.000000 0.000000 0.000000
# 4 0.000000 0.000000 0.000000 0.067335 0.000000 0.000000
# 5 0.000000 0.000000 0.000000 0.000000 0.141975 0.000000
# 6 0.000000 0.000000 0.000000 0.000000 0.000000 -0.014020
#
#
# Mechanical properties :
#
#
# Convention : Reuss Voigt Hill
#
# Bulk Modulus (GPa) = 44.86793 54.88449 49.87621
# Shear Modulus (GPa) = 18.65986 3.56315 11.11150
#
# Velocity S-wave (km/s) = 3.02231 1.32069 2.33223
# Velocity P-wave (km/s) = 5.84319 5.40302 5.62741
#
# Compressibility (1/GPa) = 0.02228763
#
# Stress axis : x y z
#
# Youngs Moduli (GPa) = 80.09542 60.00793 68.43851
#
# Poissons Ratio (x) = 0.52275 0.17391
# Poissons Ratio (y) = 0.69774 -0.03529
# Poissons Ratio (z) = 0.20353 -0.03095
#
# Static dielectric constant tensor:
#      x y z
#    x 1.718970 0.000000 0.000000 
#    y 0.000000 1.746990 0.000000 
#    z 0.000000 0.000000 1.732020 
# 
# From -- ./inp_files/12665.got.cif
#   From: 2010.05.17/outbox.cif.g08.bks.cpg/sg71_7_cif.got.tgz:12665.got - 2010.06.03 16:22:01.
