data_PCOD9521745
_publ_section_title
;
Structure prediction by ZEFSAII (Michael W. Deem and Ramdas Pophale) SiO2 
 PCOD9521745
Probable space group: I M M M
;
_chemical_formula_sum "Si O2"
_cell_formula_units_Z 96
_cell_length_a 21.378151
_cell_length_b 14.061021
_cell_length_c 17.028457
_cell_angle_alpha 90.000000
_cell_angle_beta 90.000000
_cell_angle_gamma 90.000000
_cell_volume 5118.730848
_symmetry_space_group_name_H-M "I M M M"
_symmetry_group_IT_number 71
_symmetry_cell_setting 'orthorhombic'
loop_
_space_group_symop_operation_xyz
x,y,z
-x,-y,z
x,-y,-z
-x,y,-z
-x,-y,-z
x,y,-z
-x,y,z
x,-y,z
1/2+x,1/2+y,1/2+z
1/2-x,1/2-y,1/2+z
1/2+x,1/2-y,1/2-z
1/2-x,1/2+y,1/2-z
1/2-x,1/2-y,1/2-z
1/2+x,1/2+y,1/2-z
1/2-x,1/2+y,1/2+z
1/2+x,1/2-y,1/2+z
loop_
_atom_site_type_symbol
_atom_site_label
_atom_site_fract_x
_atom_site_fract_y
_atom_site_fract_z
Si Si1 0.570628 0.261583 0.405637
Si Si2 0.431174 0.111193 0.094284
Si Si3 0.347649 0.110534 0.333671
Si Si4 0.281720 0.390176 0.910475
Si Si5 0.312541 0.793611 0.827797
Si Si6 0.309300 0.611808 0.405655
O O1 0.571980 0.250948 0.500000
O O2 0.500000 0.289555 0.383289
O O3 0.591373 0.163212 0.365537
O O4 0.625321 0.336811 0.385258
O O5 0.500000 0.144627 0.120798
O O6 0.373375 0.166662 0.128593
O O7 0.425389 0.000000 0.115408
O O8 0.429657 0.116623 0.000000
O O9 0.293306 0.114227 0.399319
O O10 0.320967 0.170777 0.260654
O O11 0.357118 0.000000 0.312217
O O12 0.300076 0.500000 0.898184
O O13 0.309551 0.318052 0.847042
O O14 0.297599 0.361873 0.000000
O O15 0.249594 0.839433 0.863701
O O16 0.300667 0.621193 0.500000
O O17 0.311083 0.500000 0.386713
#
# Coordination Sequence:
#
# PCOD9521745 Si02
#       6
#    16  16  16  16  16  16
#     4  10  22  40  59  81 115 162 211 252 292 342
#     4   9  18  32  51  78 113 151 187 226 281 350
#     4  11  23  37  56  85 118 150 189 243 303 357
#     4  10  21  37  58  83 113 152 195 238 284 341
#     4  12  21  35  58  88 117 151 188 241 301 357
#     4  10  20  34  57  88 118 153 199 248 295 349
#
# _framework density 18.754649000000001
#
# number of rings (size 3 to 8) (size 9 to 14) (size 15 to 20)
#    0.000    1.667    1.667    4.500    0.000    3.667 
#    0.000    2.500    0.000    0.500    0.000    2.333 
#    0.000    0.000    0.000    0.000    0.000    0.000 
#
# Total GULP energy -268011.806824 kJ/mol
# GULP energy per Si atom -5583.579309 kJ/mol
# Density = 1.871196 g / cm^3
# Si number density = 18.754649 Si / 1000 Ang^3
#
#
#
# Elastic Constant Matrix: (Units=GPa)
#
#
# Indices 1 2 3 4 5 6 
#
# 1 136.6443 45.6513 29.4917 0.0000 0.0000 0.0000
# 2 45.6513 103.4224 37.8354 0.0000 0.0000 0.0000
# 3 29.4917 37.8354 40.8023 0.0000 0.0000 0.0000
# 4 0.0000 0.0000 0.0000 -67.6438 0.0000 0.0000
# 5 0.0000 0.0000 0.0000 0.0000 122.0420 0.0000
# 6 0.0000 0.0000 0.0000 0.0000 0.0000 25.5671
#
#
#
# Elastic Compliance Matrix: (Units=1/GPa)
#
#
# Indices 1 2 3 4 5 6 
#
# 1 0.009056 -0.002426 -0.004296 0.000000 0.000000 0.000000
# 2 -0.002426 0.015283 -0.012418 0.000000 0.000000 0.000000
# 3 -0.004296 -0.012418 0.039129 0.000000 0.000000 0.000000
# 4 0.000000 0.000000 0.000000 -0.014783 0.000000 0.000000
# 5 0.000000 0.000000 0.000000 0.000000 0.008194 0.000000
# 6 0.000000 0.000000 0.000000 0.000000 0.000000 0.039113
#
#
# Mechanical properties :
#
#
# Convention : Reuss Voigt Hill
#
# Bulk Modulus (GPa) = 39.70254 56.31399 48.00826
# Shear Modulus (GPa) = 35.04654 27.18576 31.11615
#
# Velocity S-wave (km/s) = 4.32752 3.81142 4.07764
# Velocity P-wave (km/s) = 6.79598 7.03286 6.91543
#
# Compressibility (1/GPa) = 0.02518730
#
# Stress axis : x y z
#
# Youngs Moduli (GPa) = 110.42514 65.43307 25.55643
#
# Poissons Ratio (x) = 0.15871 0.10980
# Poissons Ratio (y) = 0.26785 0.31737
# Poissons Ratio (z) = 0.47443 0.81257
#
# Static dielectric constant tensor:
#      x y z
#    x 1.637110 0.000000 0.000000 
#    y 0.000000 1.659440 0.000000 
#    z 0.000000 0.000000 1.687050 
# 
# From -- ./inp_files/34524.got.cif
#   From: 2010.05.17/outbox.cif.g08.bks.cpg/sg71_18_cif.got.tgz:34524.got - 2010.06.03 16:22:01.
