data_PCOD9521069
_publ_section_title
;
Structure prediction by ZEFSAII (Michael W. Deem and Ramdas Pophale) SiO2 
 PCOD9521069
Probable space group: I M M M
;
_chemical_formula_sum "Si O2"
_cell_formula_units_Z 104
_cell_length_a 8.424441
_cell_length_b 29.330019
_cell_length_c 23.091171
_cell_angle_alpha 90.000000
_cell_angle_beta 90.000000
_cell_angle_gamma 90.000000
_cell_volume 5705.574688
_symmetry_space_group_name_H-M "I M M M"
_symmetry_group_IT_number 71
_symmetry_cell_setting 'orthorhombic'
loop_
_space_group_symop_operation_xyz
x,y,z
-x,-y,z
x,-y,-z
-x,y,-z
-x,-y,-z
x,y,-z
-x,y,z
x,-y,z
1/2+x,1/2+y,1/2+z
1/2-x,1/2-y,1/2+z
1/2+x,1/2-y,1/2-z
1/2-x,1/2+y,1/2-z
1/2-x,1/2-y,1/2-z
1/2+x,1/2+y,1/2-z
1/2-x,1/2+y,1/2+z
1/2+x,1/2-y,1/2+z
loop_
_atom_site_type_symbol
_atom_site_label
_atom_site_fract_x
_atom_site_fract_y
_atom_site_fract_z
Si Si1 0.500000 0.052429 0.570538
Si Si2 0.689215 0.642090 0.369212
Si Si3 0.691820 0.226242 0.935301
Si Si4 0.815196 0.190305 0.640779
Si Si5 0.693534 0.447895 0.567132
Si Si6 0.315626 0.198376 0.240527
Si Si7 0.824166 0.100134 0.430420
O O1 0.500000 0.055178 0.500000
O O2 0.334249 0.074645 0.590112
O O3 0.500000 0.000000 0.587088
O O4 0.500000 0.640133 0.366698
O O5 0.742730 0.677144 0.418987
O O6 0.747338 0.591753 0.388665
O O7 0.745262 0.666563 0.309969
O O8 0.500000 0.225566 0.933168
O O9 0.745276 0.263061 0.887894
O O10 0.739542 0.239873 0.000000
O O11 0.718172 0.176363 0.697033
O O12 0.812158 0.151471 0.592469
O O13 0.000000 0.196419 0.658053
O O14 0.739911 0.438152 0.500000
O O15 0.500000 0.447642 0.567869
O O16 0.743263 0.500000 0.580989
O O17 0.500000 0.202771 0.227813
O O18 0.250000 0.250000 0.250000
O O19 0.823139 0.099323 0.500000
O O20 0.000000 0.082438 0.412005
#
# Coordination Sequence:
#
# PCOD9521069 Si02
#       7
#     8  16  16  16  16  16  16
#     4   9  18  32  52  80 112 142 178 224 272 330
#     4  11  21  34  54  80 110 144 186 232 274 327
#     4  10  20  33  51  76 110 148 179 217 272 326
#     4  10  20  35  55  77 106 143 184 224 269 330
#     4   8  15  30  54  84 115 145 180 227 281 332
#     4  12  24  38  55  76 105 144 188 231 275 325
#     4   9  18  33  54  80 111 145 182 226 280 339
#
# _framework density 18.227788
#
# number of rings (size 3 to 8) (size 9 to 14) (size 15 to 20)
#    0.000    2.077    1.538    3.231    1.077    3.077 
#    0.000    1.538    0.000    2.769    0.000    7.538 
#    0.000    0.000    0.000    0.000    0.000    0.000 
#
# Total GULP energy -289800.520680 kJ/mol
# GULP energy per Si atom -5573.086936 kJ/mol
# Density = 1.818630 g / cm^3
# Si number density = 18.227788 Si / 1000 Ang^3
#
#
#
# Elastic Constant Matrix: (Units=GPa)
#
#
# Indices 1 2 3 4 5 6 
#
# 1 46.4974 35.3290 21.5149 0.0000 0.0000 0.0000
# 2 35.3290 115.2651 42.8821 0.0000 0.0000 0.0000
# 3 21.5149 42.8821 80.4424 0.0000 0.0000 0.0000
# 4 0.0000 0.0000 0.0000 21.2528 0.0000 0.0000
# 5 0.0000 0.0000 0.0000 0.0000 16.9637 0.0000
# 6 0.0000 0.0000 0.0000 0.0000 0.0000 -4.4775
#
#
#
# Elastic Compliance Matrix: (Units=1/GPa)
#
#
# Indices 1 2 3 4 5 6 
#
# 1 0.028917 -0.007466 -0.003754 0.000000 0.000000 0.000000
# 2 -0.007466 0.012750 -0.004800 0.000000 0.000000 0.000000
# 3 -0.003754 -0.004800 0.015994 0.000000 0.000000 0.000000
# 4 0.000000 0.000000 0.000000 0.047053 0.000000 0.000000
# 5 0.000000 0.000000 0.000000 0.000000 0.058950 0.000000
# 6 0.000000 0.000000 0.000000 0.000000 0.000000 -0.223339
#
#
# Mechanical properties :
#
#
# Convention : Reuss Voigt Hill
#
# Bulk Modulus (GPa) = 39.03140 49.07300 44.05220
# Shear Modulus (GPa) = -261.82543 16.24639 -122.78952
#
# Velocity S-wave (km/s) = -11.99803 2.98870 -8.21646
# Velocity P-wave (km/s) = 13.05669 6.23621 8.11132
#
# Compressibility (1/GPa) = 0.02562040
#
# Stress axis : x y z
#
# Youngs Moduli (GPa) = 34.58230 78.43282 62.52421
#
# Poissons Ratio (x) = 0.58562 0.23470
# Poissons Ratio (y) = 0.25821 0.30010
# Poissons Ratio (z) = 0.12981 0.37645
#
# Static dielectric constant tensor:
#      x y z
#    x 1.661450 0.000000 0.000000 
#    y 0.000000 1.634260 0.000000 
#    z 0.000000 0.000000 1.641890 
# 
# From -- ./inp_files/58231.got.cif
#   From: 2010.05.17/outbox.cif.g08.bks.cpg/sg71_30_cif.got.tgz:58231.got - 2010.06.03 16:22:01.
