data_PCOD9521296
_publ_section_title
;
Structure prediction by ZEFSAII (Michael W. Deem and Ramdas Pophale) SiO2 
 PCOD9521296
Probable space group: I M M M
;
_chemical_formula_sum "Si O2"
_cell_formula_units_Z 104
_cell_length_a 7.546477
_cell_length_b 24.646996
_cell_length_c 26.099925
_cell_angle_alpha 90.000000
_cell_angle_beta 90.000000
_cell_angle_gamma 90.000000
_cell_volume 4854.533548
_symmetry_space_group_name_H-M "I M M M"
_symmetry_group_IT_number 71
_symmetry_cell_setting 'orthorhombic'
loop_
_space_group_symop_operation_xyz
x,y,z
-x,-y,z
x,-y,-z
-x,y,-z
-x,-y,-z
x,y,-z
-x,y,z
x,-y,z
1/2+x,1/2+y,1/2+z
1/2-x,1/2-y,1/2+z
1/2+x,1/2-y,1/2-z
1/2-x,1/2+y,1/2-z
1/2-x,1/2-y,1/2-z
1/2+x,1/2+y,1/2-z
1/2-x,1/2+y,1/2+z
1/2+x,1/2-y,1/2+z
loop_
_atom_site_type_symbol
_atom_site_label
_atom_site_fract_x
_atom_site_fract_y
_atom_site_fract_z
Si Si1 0.215336 0.834674 0.716758
Si Si2 0.296968 0.934043 0.000000
Si Si3 0.202927 0.269349 0.884480
Si Si4 0.786025 0.561536 0.611502
Si Si5 0.206432 0.125367 0.556819
Si Si6 0.289011 0.331768 0.331038
Si Si7 0.283676 0.561479 0.844015
O O1 0.287898 0.796737 0.671912
O O2 0.278982 0.821487 0.773693
O O3 0.264041 0.896030 0.700354
O O4 0.000000 0.830637 0.715081
O O5 0.217399 0.920250 0.944815
O O6 0.500000 0.913886 0.000000
O O7 0.303208 0.000000 0.000000
O O8 0.286844 0.312827 0.922717
O O9 0.282353 0.210025 0.873686
O O10 0.000000 0.264283 0.901368
O O11 0.725222 0.500000 0.622345
O O12 0.738865 0.606450 0.652715
O O13 0.000000 0.559392 0.607853
O O14 0.284430 0.120166 0.500000
O O15 0.280395 0.087669 0.602269
O O16 0.000000 0.110512 0.553198
O O17 0.500000 0.322080 0.329158
O O18 0.500000 0.560953 0.845452
O O19 0.223661 0.500000 0.836958
#
# Coordination Sequence:
#
# PCOD9521296 Si02
#       7
#    16   8  16  16  16  16  16
#     4   9  18  33  52  72  98 132 169 206 245 296
#     4   7  12  28  51  69  89 121 159 195 232 279
#     4  10  20  34  51  72  99 132 169 209 258 303
#     4   9  18  33  53  75  99 129 165 205 248 296
#     4   9  18  33  52  73  99 133 171 209 250 300
#     4  10  21  34  49  74 103 132 166 206 254 305
#     4   8  14  26  47  75 101 125 158 200 244 289
#
# _framework density 21.423273999999999
#
# number of rings (size 3 to 8) (size 9 to 14) (size 15 to 20)
#    0.000    3.000    0.000    2.769    0.000    3.385 
#    1.385    3.462    0.000    8.769    0.000    4.308 
#    0.000    0.000    0.000    0.000    0.000    0.000 
#
# Total GULP energy -289912.605089 kJ/mol
# GULP energy per Si atom -5575.242406 kJ/mol
# Density = 2.137451 g / cm^3
# Si number density = 21.423274 Si / 1000 Ang^3
#
#
#
# Elastic Constant Matrix: (Units=GPa)
#
#
# Indices 1 2 3 4 5 6 
#
# 1 52.7182 -7.4209 -6.3615 0.0000 0.0000 0.0000
# 2 -7.4209 82.6934 -15.8924 0.0000 0.0000 0.0000
# 3 -6.3615 -15.8924 20.2739 0.0000 0.0000 0.0000
# 4 0.0000 0.0000 0.0000 9.8275 0.0000 0.0000
# 5 0.0000 0.0000 0.0000 0.0000 -3.6880 0.0000
# 6 0.0000 0.0000 0.0000 0.0000 0.0000 20.0500
#
#
#
# Elastic Compliance Matrix: (Units=1/GPa)
#
#
# Indices 1 2 3 4 5 6 
#
# 1 0.020606 0.003640 0.009319 0.000000 0.000000 0.000000
# 2 0.003640 0.014881 0.012807 0.000000 0.000000 0.000000
# 3 0.009319 0.012807 0.062288 0.000000 0.000000 0.000000
# 4 0.000000 0.000000 0.000000 0.101755 0.000000 0.000000
# 5 0.000000 0.000000 0.000000 0.000000 -0.271152 0.000000
# 6 0.000000 0.000000 0.000000 0.000000 0.000000 0.049875
#
#
# Mechanical properties :
#
#
# Convention : Reuss Voigt Hill
#
# Bulk Modulus (GPa) = 6.69761 10.70399 8.70080
# Shear Modulus (GPa) = -212.66804 17.59527 -97.53639
#
# Velocity S-wave (km/s) = -9.97422 2.86897 -6.75478
# Velocity P-wave (km/s) = 11.38041 3.99774 7.53432
#
# Compressibility (1/GPa) = 0.14930703
#
# Stress axis : x y z
#
# Youngs Moduli (GPa) = 48.53026 67.20040 16.05448
#
# Poissons Ratio (x) = -0.24462 -0.14961
# Poissons Ratio (y) = -0.17666 -0.20561
# Poissons Ratio (z) = -0.45226 -0.86064
#
# Static dielectric constant tensor:
#      x y z
#    x 1.840300 0.000000 0.000000 
#    y 0.000000 1.777530 0.000000 
#    z 0.000000 0.000000 1.778270 
# 
# From -- ./inp_files/61940.got.cif
#   From: 2010.05.17/outbox.cif.g08.bks.cpg/sg71_31_cif.got.tgz:61940.got - 2010.06.03 16:22:01.
