data_PCOD9521391
_publ_section_title
;
Structure prediction by ZEFSAII (Michael W. Deem and Ramdas Pophale) SiO2 
 PCOD9521391
Probable space group: I M M M
;
_chemical_formula_sum "Si O2"
_cell_formula_units_Z 72
_cell_length_a 30.550761
_cell_length_b 15.425685
_cell_length_c 7.796998
_cell_angle_alpha 90.000000
_cell_angle_beta 90.000000
_cell_angle_gamma 90.000000
_cell_volume 3674.463301
_symmetry_space_group_name_H-M "I M M M"
_symmetry_group_IT_number 71
_symmetry_cell_setting 'orthorhombic'
loop_
_space_group_symop_operation_xyz
x,y,z
-x,-y,z
x,-y,-z
-x,y,-z
-x,-y,-z
x,y,-z
-x,y,z
x,-y,z
1/2+x,1/2+y,1/2+z
1/2-x,1/2-y,1/2+z
1/2+x,1/2-y,1/2-z
1/2-x,1/2+y,1/2-z
1/2-x,1/2-y,1/2-z
1/2+x,1/2+y,1/2-z
1/2-x,1/2+y,1/2+z
1/2+x,1/2-y,1/2+z
loop_
_atom_site_type_symbol
_atom_site_label
_atom_site_fract_x
_atom_site_fract_y
_atom_site_fract_z
Si Si1 0.722486 0.500000 0.699823
Si Si2 0.053124 0.903039 0.000000
Si Si3 0.949078 0.222176 0.694099
Si Si4 0.793039 0.193024 0.206916
Si Si5 0.676978 0.000000 0.708024
Si Si6 0.130852 0.321937 0.792377
O O1 0.709043 0.500000 0.500000
O O2 0.708376 0.406120 0.773407
O O3 0.775019 0.500000 0.712806
O O4 0.065518 0.849371 0.168067
O O5 0.000000 0.907955 0.000000
O O6 0.070881 0.000000 0.000000
O O7 0.946228 0.189398 0.500000
O O8 0.916716 0.302251 0.718695
O O9 0.000000 0.243672 0.728471
O O10 0.750000 0.250000 0.250000
O O11 0.835438 0.246865 0.264114
O O12 0.794301 0.188520 0.000000
O O13 0.651071 0.086215 0.757496
O O14 0.682099 0.000000 0.500000
O O15 0.128211 0.320036 0.000000
#
# Coordination Sequence:
#
# PCOD9521391 Si02
#       6
#     8   8  16  16   8  16
#     4  10  20  34  52  81 114 149 188 234 292 349
#     4   9  18  36  62  87 115 155 193 238 300 351
#     4  10  21  38  61  88 119 156 201 248 296 355
#     4  10  20  34  54  79 111 148 189 235 287 348
#     4  10  20  34  57  83 112 148 200 243 290 359
#     4  10  20  36  56  83 114 156 199 247 300 356
#
# _framework density 19.594698999999999
#
# number of rings (size 3 to 8) (size 9 to 14) (size 15 to 20)
#    0.000    2.111    3.333    0.000    0.000    2.222 
#    2.000    2.778    0.000    3.333    0.000    0.000 
#    0.000    0.000    0.000    0.000    0.000    0.000 
#
# Total GULP energy -200931.813879 kJ/mol
# GULP energy per Si atom -5581.439274 kJ/mol
# Density = 1.955010 g / cm^3
# Si number density = 19.594699 Si / 1000 Ang^3
#
#
#
# Elastic Constant Matrix: (Units=GPa)
#
#
# Indices 1 2 3 4 5 6 
#
# 1 79.7220 54.5485 20.6476 0.0000 0.0000 0.0000
# 2 54.5485 168.0868 29.4724 0.0000 0.0000 0.0000
# 3 20.6476 29.4724 49.9006 0.0000 0.0000 0.0000
# 4 0.0000 0.0000 0.0000 6.4135 0.0000 0.0000
# 5 0.0000 0.0000 0.0000 0.0000 20.6412 0.0000
# 6 0.0000 0.0000 0.0000 0.0000 0.0000 17.8684
#
#
#
# Elastic Compliance Matrix: (Units=1/GPa)
#
#
# Indices 1 2 3 4 5 6 
#
# 1 0.016871 -0.004742 -0.004180 0.000000 0.000000 0.000000
# 2 -0.004742 0.007970 -0.002745 0.000000 0.000000 0.000000
# 3 -0.004180 -0.002745 0.023391 0.000000 0.000000 0.000000
# 4 0.000000 0.000000 0.000000 0.155920 0.000000 0.000000
# 5 0.000000 0.000000 0.000000 0.000000 0.048447 0.000000
# 6 0.000000 0.000000 0.000000 0.000000 0.000000 0.055965
#
#
# Mechanical properties :
#
#
# Convention : Reuss Voigt Hill
#
# Bulk Modulus (GPa) = 40.16515 56.33850 48.25182
# Shear Modulus (GPa) = 14.69743 21.85402 18.27572
#
# Velocity S-wave (km/s) = 2.74171 3.34324 3.05731
# Velocity P-wave (km/s) = 5.52857 6.61191 6.09436
#
# Compressibility (1/GPa) = 0.02489721
#
# Stress axis : x y z
#
# Youngs Moduli (GPa) = 59.27367 125.47801 42.75229
#
# Poissons Ratio (x) = 0.59503 0.17870
# Poissons Ratio (y) = 0.28108 0.11735
# Poissons Ratio (z) = 0.24776 0.34441
#
# Static dielectric constant tensor:
#      x y z
#    x 1.672300 0.000000 0.000000 
#    y 0.000000 1.704700 0.000000 
#    z 0.000000 0.000000 1.716050 
# 
# From -- ./inp_files/6155.got.cif
#   From: 2010.05.17/outbox.cif.g08.bks.cpg/sg71_4_cif.got.tgz:6155.got - 2010.06.03 16:22:01.
