data_PCOD9521491
_publ_section_title
;
Structure prediction by ZEFSAII (Michael W. Deem and Ramdas Pophale) SiO2 
 PCOD9521491
Probable space group: I M M M
;
_chemical_formula_sum "Si O2"
_cell_formula_units_Z 104
_cell_length_a 20.962347
_cell_length_b 32.941184
_cell_length_c 8.497076
_cell_angle_alpha 90.000000
_cell_angle_beta 90.000000
_cell_angle_gamma 90.000000
_cell_volume 5867.439408
_symmetry_space_group_name_H-M "I M M M"
_symmetry_group_IT_number 71
_symmetry_cell_setting 'orthorhombic'
loop_
_space_group_symop_operation_xyz
x,y,z
-x,-y,z
x,-y,-z
-x,y,-z
-x,-y,-z
x,y,-z
-x,y,z
x,-y,z
1/2+x,1/2+y,1/2+z
1/2-x,1/2-y,1/2+z
1/2+x,1/2-y,1/2-z
1/2-x,1/2+y,1/2-z
1/2-x,1/2-y,1/2-z
1/2+x,1/2+y,1/2-z
1/2-x,1/2+y,1/2+z
1/2+x,1/2-y,1/2+z
loop_
_atom_site_type_symbol
_atom_site_label
_atom_site_fract_x
_atom_site_fract_y
_atom_site_fract_z
Si Si1 0.136250 0.428165 0.184842
Si Si2 0.500000 0.951610 0.682023
Si Si3 0.818392 0.336005 0.184242
Si Si4 0.927780 0.724571 0.810184
Si Si5 0.572275 0.684610 0.187847
Si Si6 0.768650 0.044328 0.188550
Si Si7 0.187717 0.132320 0.812161
O O1 0.149241 0.380272 0.192536
O O2 0.194185 0.450330 0.270279
O O3 0.066704 0.437466 0.252624
O O4 0.137532 0.440544 0.000000
O O5 0.500000 0.936160 0.500000
O O6 0.500000 0.000000 0.678283
O O7 0.869775 0.303667 0.247125
O O8 0.750487 0.341476 0.268045
O O9 0.805861 0.326895 0.000000
O O10 0.916598 0.771085 0.762567
O O11 0.000000 0.713302 0.755797
O O12 0.928207 0.721246 0.000000
O O13 0.500000 0.672098 0.231660
O O14 0.625329 0.653197 0.243106
O O15 0.575130 0.688785 0.000000
O O16 0.801437 0.085953 0.247833
O O17 0.790675 0.000000 0.247823
O O18 0.775737 0.044326 0.000000
O O19 0.182735 0.130983 0.000000
#
# Coordination Sequence:
#
# PCOD9521491 Si02
#       7
#    16   8  16  16  16  16  16
#     4   9  17  28  44  66  94 128 167 208 249 291
#     4   9  16  24  37  61  91 123 163 209 251 289
#     4   9  18  31  48  72 101 133 169 211 253 290
#     4   9  18  32  51  74 101 135 175 211 247 293
#     4  10  21  37  56  77 101 128 159 198 247 299
#     4   9  18  33  51  71  97 127 160 200 244 290
#     4  10  20  34  54  77 101 130 165 203 245 295
#
# _framework density 17.724938000000002
#
# number of rings (size 3 to 8) (size 9 to 14) (size 15 to 20)
#    0.000    2.692    0.000    1.385    1.077    3.692 
#    0.000    0.385    0.000    1.846    0.000    3.231 
#    0.000    0.000    0.000    0.000    0.000    0.000 
#
# Total GULP energy -289794.746178 kJ/mol
# GULP energy per Si atom -5572.975888 kJ/mol
# Density = 1.768459 g / cm^3
# Si number density = 17.724938 Si / 1000 Ang^3
#
#
#
# Elastic Constant Matrix: (Units=GPa)
#
#
# Indices 1 2 3 4 5 6 
#
# 1 108.5520 70.6064 13.9676 0.0000 0.0002 0.0000
# 2 70.6064 89.7108 10.8358 0.0000 0.0001 0.0000
# 3 13.9676 10.8358 8.1086 0.0001 0.0009 0.0000
# 4 0.0000 0.0000 0.0001 16.0041 0.0001 0.0000
# 5 0.0002 0.0001 0.0009 0.0001 19.2253 0.0000
# 6 0.0000 0.0000 0.0000 0.0000 0.0000 15.1297
#
#
#
# Elastic Compliance Matrix: (Units=1/GPa)
#
#
# Indices 1 2 3 4 5 6 
#
# 1 0.020563 -0.014197 -0.016449 0.000000 0.000001 0.000000
# 2 -0.014197 0.023095 -0.006406 0.000000 0.000000 0.000000
# 3 -0.016449 -0.006406 0.160223 -0.000001 -0.000008 0.000000
# 4 0.000000 0.000000 -0.000001 0.062484 0.000000 0.000000
# 5 0.000001 0.000000 -0.000008 0.000000 0.052015 0.000000
# 6 0.000000 0.000000 0.000000 0.000000 0.000000 0.066095
#
#
# Mechanical properties :
#
#
# Convention : Reuss Voigt Hill
#
# Bulk Modulus (GPa) = 7.70567 44.13235 25.91901
# Shear Modulus (GPa) = 9.96337 17.46927 13.71632
#
# Velocity S-wave (km/s) = 2.37346 3.14279 2.78482
# Velocity P-wave (km/s) = 3.44498 6.17430 4.99950
#
# Compressibility (1/GPa) = 0.12977460
#
# Stress axis : x y z
#
# Youngs Moduli (GPa) = 48.63054 43.30013 6.24131
#
# Poissons Ratio (x) = 0.61474 0.10267
# Poissons Ratio (y) = 0.69042 0.03998
# Poissons Ratio (z) = 0.79994 0.27740
#
# Static dielectric constant tensor:
#      x y z
#    x 1.599500 0.000000 0.000000 
#    y 0.000000 1.611670 0.000000 
#    z 0.000000 0.000000 1.619400 
# 
# From -- ./inp_files/11458.got.cif
#   From: 2010.05.17/outbox.cif.g08.bks.cpg/sg71_6_cif.got.tgz:11458.got - 2010.06.03 16:22:01.
