data_PCOD9521505
_publ_section_title
;
Structure prediction by ZEFSAII (Michael W. Deem and Ramdas Pophale) SiO2 
 PCOD9521505
Probable space group: I M M M
;
_chemical_formula_sum "Si O2"
_cell_formula_units_Z 80
_cell_length_a 10.255863
_cell_length_b 14.110046
_cell_length_c 27.664124
_cell_angle_alpha 90.000000
_cell_angle_beta 90.000000
_cell_angle_gamma 90.000000
_cell_volume 4003.294713
_symmetry_space_group_name_H-M "I M M M"
_symmetry_group_IT_number 71
_symmetry_cell_setting 'orthorhombic'
loop_
_space_group_symop_operation_xyz
x,y,z
-x,-y,z
x,-y,-z
-x,y,-z
-x,-y,-z
x,y,-z
-x,y,z
x,-y,z
1/2+x,1/2+y,1/2+z
1/2-x,1/2-y,1/2+z
1/2+x,1/2-y,1/2-z
1/2-x,1/2+y,1/2-z
1/2-x,1/2-y,1/2-z
1/2+x,1/2+y,1/2-z
1/2-x,1/2+y,1/2+z
1/2+x,1/2-y,1/2+z
loop_
_atom_site_type_symbol
_atom_site_label
_atom_site_fract_x
_atom_site_fract_y
_atom_site_fract_z
Si Si1 0.843574 0.000000 0.943714
Si Si2 0.278368 0.706359 0.443643
Si Si3 0.784617 0.886457 0.730225
Si Si4 0.000000 0.198600 0.554029
Si Si5 0.000000 0.714333 0.117460
Si Si6 0.000000 0.887091 0.342702
Si Si7 0.000000 0.388316 0.214020
Si Si8 0.500000 0.390903 0.688311
O O1 0.794759 0.099772 0.923157
O O2 0.000000 0.000000 0.943180
O O3 0.800100 0.000000 0.000000
O O4 0.321057 0.703984 0.500000
O O5 0.129787 0.738548 0.442282
O O6 0.371843 0.778286 0.415401
O O7 0.637649 0.847431 0.733148
O O8 0.871211 0.849539 0.685191
O O9 0.873731 0.877632 0.777477
O O10 0.769953 0.000000 0.722397
O O11 0.000000 0.154096 0.500000
O O12 0.000000 0.132432 0.600751
O O13 0.000000 0.810969 0.148496
O O14 0.000000 0.630931 0.156474
O O15 0.000000 0.000000 0.334716
O O16 0.000000 0.500000 0.224825
O O17 0.500000 0.500000 0.670686
#
# Coordination Sequence:
#
# PCOD9521505 Si02
#       8
#     8  16  16   8   8   8   8   8
#     4   9  16  31  55  75  93 133 181 211 249 319
#     4  10  21  36  54  77 107 141 176 216 267 319
#     4   8  16  34  55  75 104 140 174 214 260 313
#     4  10  21  35  50  76 111 138 174 230 271 305
#     4  12  22  32  57  84 103 138 179 226 263 304
#     4   9  16  31  56  76 103 147 184 215 258 314
#     4  10  20  34  54  78 106 140 179 216 258 315
#     4   9  20  35  53  80 106 130 169 220 266 315
#
# _framework density 19.983540000000001
#
# number of rings (size 3 to 8) (size 9 to 14) (size 15 to 20)
#    0.000    2.500    1.000    2.700    1.400    1.400 
#    0.000    3.000    0.000    2.400    0.000    0.000 
#    0.000    0.000    0.000    0.000    0.000    0.000 
#
# Total GULP energy -223122.019788 kJ/mol
# GULP energy per Si atom -5578.050495 kJ/mol
# Density = 1.993806 g / cm^3
# Si number density = 19.983540 Si / 1000 Ang^3
#
#
#
# Elastic Constant Matrix: (Units=GPa)
#
#
# Indices 1 2 3 4 5 6 
#
# 1 152.6172 -0.7499 28.8078 0.0000 0.0000 0.0000
# 2 -0.7499 10.0479 -15.6650 0.0000 0.0000 0.0000
# 3 28.8078 -15.6650 54.4945 0.0000 0.0000 0.0000
# 4 0.0000 0.0000 0.0000 32.3806 0.0000 0.0000
# 5 0.0000 0.0000 0.0000 0.0000 -13.5277 0.0000
# 6 0.0000 0.0000 0.0000 0.0000 0.0000 10.6595
#
#
#
# Elastic Compliance Matrix: (Units=1/GPa)
#
#
# Indices 1 2 3 4 5 6 
#
# 1 0.007864 -0.010682 -0.007228 0.000000 0.000000 0.000000
# 2 -0.010682 0.194858 0.061661 0.000000 0.000000 0.000000
# 3 -0.007228 0.061661 0.039896 0.000000 0.000000 0.000000
# 4 0.000000 0.000000 0.000000 0.030883 0.000000 0.000000
# 5 0.000000 0.000000 0.000000 0.000000 -0.073922 0.000000
# 6 0.000000 0.000000 0.000000 0.000000 0.000000 0.093813
#
#
# Mechanical properties :
#
#
# Convention : Reuss Voigt Hill
#
# Bulk Modulus (GPa) = 3.02919 26.88282 14.95600
# Shear Modulus (GPa) = 15.82630 19.55360 17.68995
#
# Velocity S-wave (km/s) = 2.81724 3.13147 2.97850
# Velocity P-wave (km/s) = 3.47874 5.15330 4.39648
#
# Compressibility (1/GPa) = 0.33012169
#
# Stress axis : x y z
#
# Youngs Moduli (GPa) = 127.15900 5.13194 25.06488
#
# Poissons Ratio (x) = 0.05482 0.18116
# Poissons Ratio (y) = 1.35826 -1.54552
# Poissons Ratio (z) = 0.91908 -0.31644
#
# Static dielectric constant tensor:
#      x y z
#    x 1.723370 0.000000 0.000000 
#    y 0.000000 1.717290 0.000000 
#    z 0.000000 0.000000 1.711780 
# 
# From -- ./inp_files/67983.got.cif
#   From: 2010.05.17/outbox.cif.g08.bks.cpg/sg71_34_cif.got.tgz:67983.got - 2010.06.03 16:22:01.
