data_PCOD9521111
_publ_section_title
;
Structure prediction by ZEFSAII (Michael W. Deem and Ramdas Pophale) SiO2 
 PCOD9521111
Probable space group: I M M M
;
_chemical_formula_sum "Si O2"
_cell_formula_units_Z 104
_cell_length_a 18.645809
_cell_length_b 20.881812
_cell_length_c 14.367884
_cell_angle_alpha 90.000000
_cell_angle_beta 90.000000
_cell_angle_gamma 90.000000
_cell_volume 5594.254575
_symmetry_space_group_name_H-M "I M M M"
_symmetry_group_IT_number 71
_symmetry_cell_setting 'orthorhombic'
loop_
_space_group_symop_operation_xyz
x,y,z
-x,-y,z
x,-y,-z
-x,y,-z
-x,-y,-z
x,y,-z
-x,y,z
x,-y,z
1/2+x,1/2+y,1/2+z
1/2-x,1/2-y,1/2+z
1/2+x,1/2-y,1/2-z
1/2-x,1/2+y,1/2-z
1/2-x,1/2-y,1/2-z
1/2+x,1/2+y,1/2-z
1/2-x,1/2+y,1/2+z
1/2+x,1/2-y,1/2+z
loop_
_atom_site_type_symbol
_atom_site_label
_atom_site_fract_x
_atom_site_fract_y
_atom_site_fract_z
Si Si1 0.084312 0.073825 0.610566
Si Si2 0.000000 0.264390 0.602538
Si Si3 0.606739 0.271134 0.396586
Si Si4 0.000000 0.603587 0.702781
Si Si5 0.000000 0.345994 0.896457
Si Si6 0.376991 0.306837 0.196311
Si Si7 0.222672 0.292238 0.392255
Si Si8 0.848443 0.428646 0.388341
O O1 0.091555 0.084256 0.500000
O O2 0.135392 0.120726 0.667191
O O3 0.000000 0.084878 0.634244
O O4 0.099698 0.000000 0.629557
O O5 0.932816 0.220191 0.621090
O O6 0.000000 0.292852 0.500000
O O7 0.000000 0.321313 0.675811
O O8 0.584350 0.295384 0.500000
O O9 0.569320 0.201426 0.389015
O O10 0.588561 0.304280 0.298686
O O11 0.692775 0.277976 0.395135
O O12 0.000000 0.603169 0.814064
O O13 0.926472 0.577137 0.659600
O O14 0.000000 0.373707 0.000000
O O15 0.312716 0.257739 0.178915
O O16 0.197217 0.282738 0.500000
O O17 0.199312 0.365268 0.365946
O O18 0.858721 0.426483 0.500000
O O19 0.818553 0.500000 0.366053
#
# Coordination Sequence:
#
# PCOD9521111 Si02
#       8
#    16   8  16   8   8  16  16  16
#     4   9  18  31  48  74 108 140 168 204 259 323
#     4  12  20  27  48  84 111 131 165 210 266 316
#     4  10  21  36  52  76 106 140 182 226 273 322
#     4  12  19  31  51  81 114 148 175 218 262 321
#     4  10  20  37  56  76 105 141 183 233 287 321
#     4  12  19  31  53  78 108 141 176 221 267 319
#     4  10  20  33  52  79 108 139 180 227 272 327
#     4  10  20  33  51  79 117 153 178 211 271 339
#
# _framework density 18.590502000000001
#
# number of rings (size 3 to 8) (size 9 to 14) (size 15 to 20)
#    0.000    1.538    3.846    3.231    0.000    0.615 
#    0.000    0.769    0.000    2.308    0.000    1.077 
#    0.000    3.692    0.000    0.000    0.000    0.462 
#
# Total GULP energy -289610.935667 kJ/mol
# GULP energy per Si atom -5569.441071 kJ/mol
# Density = 1.854819 g / cm^3
# Si number density = 18.590502 Si / 1000 Ang^3
#
#
#
# Elastic Constant Matrix: (Units=GPa)
#
#
# Indices 1 2 3 4 5 6 
#
# 1 83.2280 23.2578 7.5378 0.0000 0.0000 0.0000
# 2 23.2578 100.9255 36.6472 0.0000 0.0000 0.0000
# 3 7.5378 36.6472 83.3616 0.0000 0.0000 0.0000
# 4 0.0000 0.0000 0.0000 14.6068 0.0000 0.0000
# 5 0.0000 0.0000 0.0000 0.0000 10.0156 0.0000
# 6 0.0000 0.0000 0.0000 0.0000 0.0000 175.6745
#
#
#
# Elastic Compliance Matrix: (Units=1/GPa)
#
#
# Indices 1 2 3 4 5 6 
#
# 1 0.012844 -0.003020 0.000166 0.000000 0.000000 0.000000
# 2 -0.003020 0.012501 -0.005222 0.000000 0.000000 0.000000
# 3 0.000166 -0.005222 0.014277 0.000000 0.000000 0.000000
# 4 0.000000 0.000000 0.000000 0.068461 0.000000 0.000000
# 5 0.000000 0.000000 0.000000 0.000000 0.099845 0.000000
# 6 0.000000 0.000000 0.000000 0.000000 0.000000 0.005692
#
#
# Mechanical properties :
#
#
# Convention : Reuss Voigt Hill
#
# Bulk Modulus (GPa) = 42.60961 44.71119 43.66040
# Shear Modulus (GPa) = 21.04420 53.39754 37.22087
#
# Velocity S-wave (km/s) = 3.36815 5.36520 4.47939
# Velocity P-wave (km/s) = 6.17218 7.90464 7.09151
#
# Compressibility (1/GPa) = 0.02346888
#
# Stress axis : x y z
#
# Youngs Moduli (GPa) = 77.85657 79.99613 70.04405
#
# Poissons Ratio (x) = 0.24161 -0.01165
# Poissons Ratio (y) = 0.23515 0.36580
# Poissons Ratio (z) = -0.01295 0.41777
#
# Static dielectric constant tensor:
#      x y z
#    x 1.167780 0.000000 0.000000 
#    y 0.000000 1.669530 0.000000 
#    z 0.000000 0.000000 1.665060 
# 
# From -- ./inp_files/36748.got.cif
#   From: 2010.05.17/outbox.cif.g08.bks.cpg/sg71_19_cif.got.tgz:36748.got - 2010.06.03 16:22:01.
