data_PCOD9521607
_publ_section_title
;
Structure prediction by ZEFSAII (Michael W. Deem and Ramdas Pophale) SiO2 
 PCOD9521607
Probable space group: I M M M
;
_chemical_formula_sum "Si O2"
_cell_formula_units_Z 72
_cell_length_a 24.776289
_cell_length_b 15.464076
_cell_length_c 10.331225
_cell_angle_alpha 90.000000
_cell_angle_beta 90.000000
_cell_angle_gamma 90.000000
_cell_volume 3958.330508
_symmetry_space_group_name_H-M "I M M M"
_symmetry_group_IT_number 71
_symmetry_cell_setting 'orthorhombic'
loop_
_space_group_symop_operation_xyz
x,y,z
-x,-y,z
x,-y,-z
-x,y,-z
-x,-y,-z
x,y,-z
-x,y,z
x,-y,z
1/2+x,1/2+y,1/2+z
1/2-x,1/2-y,1/2+z
1/2+x,1/2-y,1/2-z
1/2-x,1/2+y,1/2-z
1/2-x,1/2-y,1/2-z
1/2+x,1/2+y,1/2-z
1/2-x,1/2+y,1/2+z
1/2+x,1/2-y,1/2+z
loop_
_atom_site_type_symbol
_atom_site_label
_atom_site_fract_x
_atom_site_fract_y
_atom_site_fract_z
Si Si1 0.689975 0.717825 0.000000
Si Si2 0.127820 0.170541 0.754910
Si Si3 0.061400 0.654120 0.272192
Si Si4 0.564485 0.500000 0.656853
Si Si5 0.315707 0.250783 0.500000
Si Si6 0.363512 0.094867 0.000000
Si Si7 0.599127 0.096623 0.500000
O O1 0.663591 0.672857 0.125313
O O2 0.673463 0.819807 0.000000
O O3 0.754342 0.719896 0.000000
O O4 0.085098 0.249066 0.739998
O O5 0.167122 0.194690 0.874024
O O6 0.094720 0.084058 0.786268
O O7 0.098928 0.604495 0.373763
O O8 0.000000 0.655131 0.317020
O O9 0.065718 0.612684 0.130340
O O10 0.500000 0.500000 0.685996
O O11 0.569566 0.500000 0.500000
O O12 0.353340 0.166324 0.500000
O O13 0.337055 0.000000 0.000000
O O14 0.620745 0.000000 0.500000
#
# Coordination Sequence:
#
# PCOD9521607 Si02
#       7
#     8  16  16   8   8   8   8
#     4  10  22  40  62  81 119 159 191 250 304 339
#     4  10  21  39  59  89 118 149 203 241 292 365
#     4  10  20  34  55  79 112 151 179 222 282 337
#     4  11  22  39  65  93 125 157 199 261 310 368
#     4  10  20  40  62  79 113 157 197 242 290 349
#     4  10  21  36  53  81 113 144 189 229 271 344
#     4  10  21  34  51  79 111 136 187 233 269 334
#
# _framework density 18.189488000000001
#
# number of rings (size 3 to 8) (size 9 to 14) (size 15 to 20)
#    0.000    1.889    1.111    2.667    0.000    3.111 
#    4.000    2.222    0.000    0.000    0.000    0.000 
#    0.000    0.000    0.000    0.000    0.000    0.000 
#
# Total GULP energy -200954.776085 kJ/mol
# GULP energy per Si atom -5582.077113 kJ/mol
# Density = 1.814809 g / cm^3
# Si number density = 18.189488 Si / 1000 Ang^3
#
#
#
# Elastic Constant Matrix: (Units=GPa)
#
#
# Indices 1 2 3 4 5 6 
#
# 1 108.7690 35.9316 34.5279 0.0000 0.0000 0.0000
# 2 35.9316 120.9520 43.8099 0.0000 0.0000 0.0000
# 3 34.5279 43.8099 113.1446 0.0000 0.0000 0.0000
# 4 0.0000 0.0000 0.0000 -375.3093 0.0000 0.0000
# 5 0.0000 0.0000 0.0000 0.0000 -12.7752 0.0000
# 6 0.0000 0.0000 0.0000 0.0000 0.0000 10.3651
#
#
#
# Elastic Compliance Matrix: (Units=1/GPa)
#
#
# Indices 1 2 3 4 5 6 
#
# 1 0.010714 -0.002325 -0.002369 0.000000 0.000000 0.000000
# 2 -0.002325 0.010121 -0.003209 0.000000 0.000000 0.000000
# 3 -0.002369 -0.003209 0.010804 0.000000 0.000000 0.000000
# 4 0.000000 0.000000 0.000000 -0.002664 0.000000 0.000000
# 5 0.000000 0.000000 0.000000 0.000000 -0.078277 0.000000
# 6 0.000000 0.000000 0.000000 0.000000 0.000000 0.096478
#
#
# Mechanical properties :
#
#
# Convention : Reuss Voigt Hill
#
# Bulk Modulus (GPa) = 63.16389 63.48939 63.32664
# Shear Modulus (GPa) = 73.24982 -60.30414 6.47284
#
# Velocity S-wave (km/s) = 6.35278 -5.76414 1.88846
# Velocity P-wave (km/s) = 9.41336 3.05289 6.29647
#
# Compressibility (1/GPa) = 0.01583183
#
# Stress axis : x y z
#
# Youngs Moduli (GPa) = 93.33695 98.80647 92.55818
#
# Poissons Ratio (x) = 0.22968 0.21931
# Poissons Ratio (y) = 0.21697 0.29706
# Poissons Ratio (z) = 0.22116 0.31711
#
# Static dielectric constant tensor:
#      x y z
#    x 1.582550 0.000000 0.000000 
#    y 0.000000 1.612540 0.000000 
#    z 0.000000 0.000000 1.634520 
# 
# From -- ./inp_files/14395.got.cif
#   From: 2010.05.17/outbox.cif.g08.bks.cpg/sg71_8_cif.got.tgz:14395.got - 2010.06.03 16:22:01.
