data_PCOD9521039
_publ_section_title
;
Structure prediction by ZEFSAII (Michael W. Deem and Ramdas Pophale) SiO2 
 PCOD9521039
Probable space group: I M M M
;
_chemical_formula_sum "Si O2"
_cell_formula_units_Z 100
_cell_length_a 8.642536
_cell_length_b 19.169708
_cell_length_c 33.575652
_cell_angle_alpha 90.000000
_cell_angle_beta 90.000000
_cell_angle_gamma 90.000000
_cell_volume 5562.642502
_symmetry_space_group_name_H-M "I M M M"
_symmetry_group_IT_number 71
_symmetry_cell_setting 'orthorhombic'
loop_
_space_group_symop_operation_xyz
x,y,z
-x,-y,z
x,-y,-z
-x,y,-z
-x,-y,-z
x,y,-z
-x,y,z
x,-y,z
1/2+x,1/2+y,1/2+z
1/2-x,1/2-y,1/2+z
1/2+x,1/2-y,1/2-z
1/2-x,1/2+y,1/2-z
1/2-x,1/2-y,1/2-z
1/2+x,1/2+y,1/2-z
1/2-x,1/2+y,1/2+z
1/2+x,1/2-y,1/2+z
loop_
_atom_site_type_symbol
_atom_site_label
_atom_site_fract_x
_atom_site_fract_y
_atom_site_fract_z
Si Si1 0.218457 0.500000 0.000000
Si Si2 0.185548 0.155510 0.350337
Si Si3 0.684824 0.581400 0.311934
Si Si4 0.815780 0.581260 0.226707
Si Si5 0.684970 0.615927 0.062032
Si Si6 0.815034 0.312253 0.375785
Si Si7 0.816419 0.768067 0.044483
O O1 0.228146 0.439171 0.034710
O O2 0.263405 0.124703 0.311390
O O3 0.222030 0.113187 0.390926
O O4 0.229818 0.235927 0.358435
O O5 0.000000 0.153069 0.345562
O O6 0.500000 0.585710 0.314515
O O7 0.730965 0.500000 0.316072
O O8 0.738488 0.604826 0.267994
O O9 0.759621 0.628553 0.345852
O O10 0.771597 0.500000 0.220529
O O11 0.000000 0.585027 0.231268
O O12 0.500000 0.604183 0.056616
O O13 0.727755 0.694408 0.049152
O O14 0.740167 0.316147 0.419481
O O15 0.000000 0.312963 0.379654
O O16 0.000000 0.755088 0.048483
O O17 0.787192 0.795553 0.000000
#
# Coordination Sequence:
#
# PCOD9521039 Si02
#       7
#     4  16  16  16  16  16  16
#     4  12  21  32  53  78 105 148 199 246 289 328
#     4   9  20  35  52  77 107 143 187 232 278 327
#     4  10  21  38  61  87 113 141 173 214 268 332
#     4  10  21  36  54  77 107 146 187 228 274 324
#     4  10  20  33  51  74 103 142 191 238 280 326
#     4  10  21  37  59  85 111 143 183 225 270 324
#     4  10  20  35  54  77 108 144 181 224 273 321
#
# _framework density 17.977067999999999
#
# number of rings (size 3 to 8) (size 9 to 14) (size 15 to 20)
#    0.000    2.080    0.800    3.600    1.120    6.720 
#    0.000    0.800    0.000    0.480    0.000    3.360 
#    0.000    0.000    0.000    0.000    0.000    0.000 
#
# Total GULP energy -278609.437208 kJ/mol
# GULP energy per Si atom -5572.188744 kJ/mol
# Density = 1.793615 g / cm^3
# Si number density = 17.977068 Si / 1000 Ang^3
#
#
#
# Elastic Constant Matrix: (Units=GPa)
#
#
# Indices 1 2 3 4 5 6 
#
# 1 22.3671 14.5860 34.2956 0.0000 0.0000 0.0000
# 2 14.5860 48.8102 56.9086 0.0000 0.0000 0.0000
# 3 34.2956 56.9086 157.1437 0.0000 0.0000 0.0000
# 4 0.0000 0.0000 0.0000 41.6420 0.0000 0.0000
# 5 0.0000 0.0000 0.0000 0.0000 19.8111 0.0000
# 6 0.0000 0.0000 0.0000 0.0000 0.0000 4.3692
#
#
#
# Elastic Compliance Matrix: (Units=1/GPa)
#
#
# Indices 1 2 3 4 5 6 
#
# 1 0.067954 -0.005219 -0.012940 0.000000 0.000000 0.000000
# 2 -0.005219 0.035861 -0.011848 0.000000 0.000000 0.000000
# 3 -0.012940 -0.011848 0.013478 0.000000 0.000000 0.000000
# 4 0.000000 0.000000 0.000000 0.024014 0.000000 0.000000
# 5 0.000000 0.000000 0.000000 0.000000 0.050477 0.000000
# 6 0.000000 0.000000 0.000000 0.000000 0.000000 0.228876
#
#
# Mechanical properties :
#
#
# Convention : Reuss Voigt Hill
#
# Bulk Modulus (GPa) = 17.45875 48.87793 33.16834
# Shear Modulus (GPa) = 10.00467 21.33317 15.66892
#
# Velocity S-wave (km/s) = 2.36164 3.44857 2.95550
# Velocity P-wave (km/s) = 4.14357 6.56543 5.48972
#
# Compressibility (1/GPa) = 0.05727787
#
# Stress axis : x y z
#
# Youngs Moduli (GPa) = 14.71593 27.88577 74.19364
#
# Poissons Ratio (x) = 0.14555 0.96008
# Poissons Ratio (y) = 0.07681 0.87901
# Poissons Ratio (z) = 0.19043 0.33038
#
# Static dielectric constant tensor:
#      x y z
#    x 1.622670 0.000000 0.000000 
#    y 0.000000 1.591320 0.000000 
#    z 0.000000 0.000000 1.609940 
# 
# From -- ./inp_files/63282.got.cif
#   From: 2010.05.17/outbox.cif.g08.bks.cpg/sg71_32_cif.got.tgz:63282.got - 2010.06.03 16:22:01.
