data_PCOD9521496
_publ_section_title
;
Structure prediction by ZEFSAII (Michael W. Deem and Ramdas Pophale) SiO2 
 PCOD9521496
Probable space group: I M M M
;
_chemical_formula_sum "Si O2"
_cell_formula_units_Z 96
_cell_length_a 17.284015
_cell_length_b 24.505172
_cell_length_c 13.201171
_cell_angle_alpha 90.000000
_cell_angle_beta 90.000000
_cell_angle_gamma 90.000000
_cell_volume 5591.326412
_symmetry_space_group_name_H-M "I M M M"
_symmetry_group_IT_number 71
_symmetry_cell_setting 'orthorhombic'
loop_
_space_group_symop_operation_xyz
x,y,z
-x,-y,z
x,-y,-z
-x,y,-z
-x,-y,-z
x,y,-z
-x,y,z
x,-y,z
1/2+x,1/2+y,1/2+z
1/2-x,1/2-y,1/2+z
1/2+x,1/2-y,1/2-z
1/2-x,1/2+y,1/2-z
1/2-x,1/2-y,1/2-z
1/2+x,1/2+y,1/2-z
1/2-x,1/2+y,1/2+z
1/2+x,1/2-y,1/2+z
loop_
_atom_site_type_symbol
_atom_site_label
_atom_site_fract_x
_atom_site_fract_y
_atom_site_fract_z
Si Si1 0.910931 0.234582 0.878399
Si Si2 0.588919 0.434927 0.386458
Si Si3 0.911456 0.562929 0.824020
Si Si4 0.190397 0.338432 0.115513
Si Si5 0.300413 0.360499 0.703359
Si Si6 0.329548 0.062642 0.115064
O O1 0.871625 0.292455 0.851548
O O2 0.850509 0.188531 0.843142
O O3 0.000000 0.229014 0.840892
O O4 0.914976 0.231989 0.000000
O O5 0.618008 0.418765 0.500000
O O6 0.500000 0.416835 0.381250
O O7 0.590593 0.500000 0.383161
O O8 0.637596 0.409356 0.296568
O O9 0.899495 0.500000 0.853946
O O10 0.853284 0.603870 0.877559
O O11 0.892923 0.566369 0.703653
O O12 0.000000 0.577762 0.844714
O O13 0.261544 0.341528 0.192777
O O14 0.213711 0.326888 0.000000
O O15 0.231872 0.389381 0.638430
O O16 0.296142 0.000000 0.123530
O O17 0.357965 0.067824 0.000000
#
# Coordination Sequence:
#
# PCOD9521496 Si02
#       6
#    16  16  16  16  16  16
#     4  10  20  34  54  77  97 119 151 194 244 293
#     4   9  17  29  48  77 109 134 156 190 239 289
#     4   9  18  32  50  71  93 122 163 205 243 284
#     4  10  22  37  50  68  96 128 162 202 243 278
#     4  11  19  30  50  74  98 127 162 197 232 282
#     4   9  17  28  44  70 104 135 157 186 235 291
#
# _framework density 17.169450999999999
#
# number of rings (size 3 to 8) (size 9 to 14) (size 15 to 20)
#    0.000    2.333    0.000    4.000    0.000    5.000 
#    0.000    2.500    0.000    2.000    0.000    1.167 
#    0.000    0.000    0.000    0.000    0.000    0.000 
#
# Total GULP energy -267360.760689 kJ/mol
# GULP energy per Si atom -5570.015848 kJ/mol
# Density = 1.713037 g / cm^3
# Si number density = 17.169451 Si / 1000 Ang^3
#
#
#
# Elastic Constant Matrix: (Units=GPa)
#
#
# Indices 1 2 3 4 5 6 
#
# 1 80.3038 30.6364 22.1158 0.0000 0.0000 0.0000
# 2 30.6364 54.3828 17.5907 0.0000 0.0000 0.0000
# 3 22.1158 17.5907 48.4482 0.0000 0.0000 0.0000
# 4 0.0000 0.0000 0.0000 19.1401 0.0000 0.0000
# 5 0.0000 0.0000 0.0000 0.0000 19.1076 0.0000
# 6 0.0000 0.0000 0.0000 0.0000 0.0000 37.4941
#
#
#
# Elastic Compliance Matrix: (Units=1/GPa)
#
#
# Indices 1 2 3 4 5 6 
#
# 1 0.016790 -0.007908 -0.004793 0.000000 0.000000 0.000000
# 2 -0.007908 0.024560 -0.005307 0.000000 0.000000 0.000000
# 3 -0.004793 -0.005307 0.024755 0.000000 0.000000 0.000000
# 4 0.000000 0.000000 0.000000 0.052246 0.000000 0.000000
# 5 0.000000 0.000000 0.000000 0.000000 0.052335 0.000000
# 6 0.000000 0.000000 0.000000 0.000000 0.000000 0.026671
#
#
# Mechanical properties :
#
#
# Convention : Reuss Voigt Hill
#
# Bulk Modulus (GPa) = 33.23547 35.98005 34.60776
# Shear Modulus (GPa) = 20.54203 22.66784 21.60493
#
# Velocity S-wave (km/s) = 3.46270 3.63746 3.55115
# Velocity P-wave (km/s) = 5.94864 6.21633 6.08396
#
# Compressibility (1/GPa) = 0.03008834
#
# Stress axis : x y z
#
# Youngs Moduli (GPa) = 59.56047 40.71686 40.39511
#
# Poissons Ratio (x) = 0.32199 0.19361
# Poissons Ratio (y) = 0.47101 0.21439
# Poissons Ratio (z) = 0.28547 0.21610
#
# Static dielectric constant tensor:
#      x y z
#    x 1.586460 0.000000 0.000000 
#    y 0.000000 1.619460 0.000000 
#    z 0.000000 0.000000 1.576860 
# 
# From -- ./inp_files/24234.got.cif
#   From: 2010.05.17/outbox.cif.g08.bks.cpg/sg71_13_cif.got.tgz:24234.got - 2010.06.03 16:22:01.
