data_PCOD9521906
_publ_section_title
;
Structure prediction by ZEFSAII (Michael W. Deem and Ramdas Pophale) SiO2 
 PCOD9521906
Probable space group: I M M M
;
_chemical_formula_sum "Si O2"
_cell_formula_units_Z 96
_cell_length_a 25.740754
_cell_length_b 22.091912
_cell_length_c 9.284212
_cell_angle_alpha 90.000000
_cell_angle_beta 90.000000
_cell_angle_gamma 90.000000
_cell_volume 5279.582948
_symmetry_space_group_name_H-M "I M M M"
_symmetry_group_IT_number 71
_symmetry_cell_setting 'orthorhombic'
loop_
_space_group_symop_operation_xyz
x,y,z
-x,-y,z
x,-y,-z
-x,y,-z
-x,-y,-z
x,y,-z
-x,y,z
x,-y,z
1/2+x,1/2+y,1/2+z
1/2-x,1/2-y,1/2+z
1/2+x,1/2-y,1/2-z
1/2-x,1/2+y,1/2-z
1/2-x,1/2-y,1/2-z
1/2+x,1/2+y,1/2-z
1/2-x,1/2+y,1/2+z
1/2+x,1/2-y,1/2+z
loop_
_atom_site_type_symbol
_atom_site_label
_atom_site_fract_x
_atom_site_fract_y
_atom_site_fract_z
Si Si1 0.384564 0.430766 0.825132
Si Si2 0.193393 0.304385 0.663963
Si Si3 0.437726 0.068013 0.840701
Si Si4 0.089416 0.319767 0.832158
Si Si5 0.500000 0.250783 0.167971
Si Si6 0.209622 0.159079 0.666089
Si Si7 0.000000 0.895662 0.669448
O O1 0.370167 0.500000 0.785763
O O2 0.340766 0.380459 0.786412
O O3 0.443847 0.417808 0.772444
O O4 0.386934 0.427710 0.000000
O O5 0.181310 0.322704 0.500000
O O6 0.147118 0.311531 0.775685
O O7 0.200755 0.231544 0.659970
O O8 0.242188 0.342531 0.724082
O O9 0.500000 0.065468 0.845098
O O10 0.423888 0.112081 0.712859
O O11 0.417817 0.000000 0.822420
O O12 0.421068 0.090545 0.000000
O O13 0.050310 0.277055 0.743949
O O14 0.083623 0.308512 0.000000
O O15 0.500000 0.323038 0.177908
O O16 0.500000 0.233452 0.000000
O O17 0.222180 0.140402 0.500000
O O18 0.000000 0.913403 0.500000
#
# Coordination Sequence:
#
# PCOD9521906 Si02
#       7
#    16  16  16  16   8  16   8
#     4   9  16  28  50  80 113 145 177 219 270 322
#     4  10  20  35  56  77 103 140 181 226 277 330
#     4   9  18  34  55  75  99 136 176 211 255 315
#     4  12  23  34  51  80 111 140 178 226 275 324
#     4  11  21  34  52  75 110 150 185 225 272 323
#     4   9  18  34  54  79 106 137 180 228 277 328
#     4   9  17  29  48  78 113 148 183 216 258 319
#
# _framework density 18.183254000000002
#
# number of rings (size 3 to 8) (size 9 to 14) (size 15 to 20)
#    0.000    2.167    0.833    4.000    0.000    4.667 
#    0.000    1.667    0.000    3.500    0.000    0.000 
#    0.000    5.333    0.000    0.000    0.000    0.000 
#
# Total GULP energy -267338.699617 kJ/mol
# GULP energy per Si atom -5569.556242 kJ/mol
# Density = 1.814187 g / cm^3
# Si number density = 18.183254 Si / 1000 Ang^3
#
#
#
# Elastic Constant Matrix: (Units=GPa)
#
#
# Indices 1 2 3 4 5 6 
#
# 1 98.0071 39.7884 32.1652 0.0000 0.0000 0.0000
# 2 39.7884 55.7074 25.9871 0.0000 0.0000 0.0000
# 3 32.1652 25.9871 93.7382 0.0000 0.0000 0.0000
# 4 0.0000 0.0000 0.0000 8.2052 0.0000 0.0000
# 5 0.0000 0.0000 0.0000 0.0000 34.6010 0.0000
# 6 0.0000 0.0000 0.0000 0.0000 0.0000 9.5540
#
#
#
# Elastic Compliance Matrix: (Units=1/GPa)
#
#
# Indices 1 2 3 4 5 6 
#
# 1 0.014854 -0.009454 -0.002476 0.000000 0.000000 0.000000
# 2 -0.009454 0.026635 -0.004140 0.000000 0.000000 0.000000
# 3 -0.002476 -0.004140 0.012665 0.000000 0.000000 0.000000
# 4 0.000000 0.000000 0.000000 0.121874 0.000000 0.000000
# 5 0.000000 0.000000 0.000000 0.000000 0.028901 0.000000
# 6 0.000000 0.000000 0.000000 0.000000 0.000000 0.104668
#
#
# Mechanical properties :
#
#
# Convention : Reuss Voigt Hill
#
# Bulk Modulus (GPa) = 45.42589 49.25936 47.34262
# Shear Modulus (GPa) = 14.32355 20.43950 17.38152
#
# Velocity S-wave (km/s) = 2.80970 3.35637 3.09513
# Velocity P-wave (km/s) = 5.96342 6.49382 6.23426
#
# Compressibility (1/GPa) = 0.02201388
#
# Stress axis : x y z
#
# Youngs Moduli (GPa) = 67.32105 37.54484 78.95579
#
# Poissons Ratio (x) = 0.35496 0.19550
# Poissons Ratio (y) = 0.63648 0.32686
# Poissons Ratio (z) = 0.16669 0.15543
#
# Static dielectric constant tensor:
#      x y z
#    x 1.596130 0.000000 0.000000 
#    y 0.000000 1.643180 0.000000 
#    z 0.000000 0.000000 1.611440 
# 
# From -- ./inp_files/12894.got.cif
#   From: 2010.05.17/outbox.cif.g08.bks.cpg/sg71_7_cif.got.tgz:12894.got - 2010.06.03 16:22:01.
