data_PCOD9521320
_publ_section_title
;
Structure prediction by ZEFSAII (Michael W. Deem and Ramdas Pophale) SiO2 
 PCOD9521320
Probable space group: I M M M
;
_chemical_formula_sum "Si O2"
_cell_formula_units_Z 80
_cell_length_a 29.150504
_cell_length_b 17.350906
_cell_length_c 7.672934
_cell_angle_alpha 90.000000
_cell_angle_beta 90.000000
_cell_angle_gamma 90.000000
_cell_volume 3880.875293
_symmetry_space_group_name_H-M "I M M M"
_symmetry_group_IT_number 71
_symmetry_cell_setting 'orthorhombic'
loop_
_space_group_symop_operation_xyz
x,y,z
-x,-y,z
x,-y,-z
-x,y,-z
-x,-y,-z
x,y,-z
-x,y,z
x,-y,z
1/2+x,1/2+y,1/2+z
1/2-x,1/2-y,1/2+z
1/2+x,1/2-y,1/2-z
1/2-x,1/2+y,1/2-z
1/2-x,1/2-y,1/2-z
1/2+x,1/2+y,1/2-z
1/2-x,1/2+y,1/2+z
1/2+x,1/2-y,1/2+z
loop_
_atom_site_type_symbol
_atom_site_label
_atom_site_fract_x
_atom_site_fract_y
_atom_site_fract_z
Si Si1 0.824570 0.000000 0.202631
Si Si2 0.821808 0.587022 0.296623
Si Si3 0.142252 0.257032 0.285084
Si Si4 0.275756 0.348295 0.198110
Si Si5 0.549628 0.673789 0.795521
Si Si6 0.066399 0.000000 0.200469
O O1 0.806186 0.924983 0.296373
O O2 0.878814 0.000000 0.204896
O O3 0.808744 0.000000 0.000000
O O4 0.832872 0.579242 0.500000
O O5 0.821696 0.500000 0.220956
O O6 0.855256 0.653942 0.227390
O O7 0.771292 0.625170 0.285812
O O8 0.143355 0.253728 0.500000
O O9 0.189516 0.215321 0.226245
O O10 0.096530 0.212077 0.225276
O O11 0.264720 0.326349 0.000000
O O12 0.500000 0.698225 0.720531
O O13 0.551879 0.581104 0.781086
O O14 0.549202 0.693458 0.000000
O O15 0.051544 0.000000 0.000000
#
# Coordination Sequence:
#
# PCOD9521320 Si02
#       6
#     8  16  16  16  16   8
#     4  11  21  32  48  73 106 142 171 199 248 301
#     4  10  20  34  52  73 102 135 168 208 256 306
#     4   9  19  34  51  74 101 133 170 210 254 298
#     4  11  20  32  52  74 102 136 172 210 245 290
#     4  10  20  35  55  75  99 135 176 212 250 302
#     4  11  22  34  51  76 108 138 168 209 253 301
#
# _framework density 20.613907000000001
#
# number of rings (size 3 to 8) (size 9 to 14) (size 15 to 20)
#    0.000    1.800    3.000    2.100    0.000    2.400 
#    0.000    2.000    0.000    0.600    0.000    4.200 
#    0.000    0.000    0.000    3.600    0.000    4.000 
#
# Total GULP energy -223147.304205 kJ/mol
# GULP energy per Si atom -5578.682605 kJ/mol
# Density = 2.056699 g / cm^3
# Si number density = 20.613907 Si / 1000 Ang^3
#
#
#
# Elastic Constant Matrix: (Units=GPa)
#
#
# Indices 1 2 3 4 5 6 
#
# 1 87.9180 68.1362 0.7203 0.0000 0.0000 0.0000
# 2 68.1362 166.6974 -2.3210 0.0000 0.0000 0.0000
# 3 0.7203 -2.3210 41.9893 0.0000 0.0000 0.0000
# 4 0.0000 0.0000 0.0000 -7.0339 0.0000 0.0000
# 5 0.0000 0.0000 0.0000 0.0000 29.4544 0.0000
# 6 0.0000 0.0000 0.0000 0.0000 0.0000 85.7981
#
#
#
# Elastic Compliance Matrix: (Units=1/GPa)
#
#
# Indices 1 2 3 4 5 6 
#
# 1 0.016666 -0.006821 -0.000663 0.000000 0.000000 0.000000
# 2 -0.006821 0.008795 0.000603 0.000000 0.000000 0.000000
# 3 -0.000663 0.000603 0.023860 0.000000 0.000000 0.000000
# 4 0.000000 0.000000 0.000000 -0.142169 0.000000 0.000000
# 5 0.000000 0.000000 0.000000 0.000000 0.033951 0.000000
# 6 0.000000 0.000000 0.000000 0.000000 0.000000 0.011655
#
#
# Mechanical properties :
#
#
# Convention : Reuss Voigt Hill
#
# Bulk Modulus (GPa) = 28.12173 47.74173 37.93173
# Shear Modulus (GPa) = -231.20871 36.98168 -97.11352
#
# Velocity S-wave (km/s) = -10.60212 4.24018 -6.87117
# Velocity P-wave (km/s) = 11.67054 6.86894 6.67155
#
# Compressibility (1/GPa) = 0.03555969
#
# Stress axis : x y z
#
# Youngs Moduli (GPa) = 60.00152 113.69459 41.91061
#
# Poissons Ratio (x) = 0.77556 0.02778
# Poissons Ratio (y) = 0.40930 -0.02528
# Poissons Ratio (z) = 0.03978 -0.06858
#
# Static dielectric constant tensor:
#      x y z
#    x 1.747850 0.000000 0.000000 
#    y 0.000000 1.756220 0.000000 
#    z 0.000000 0.000000 1.801030 
# 
# From -- ./inp_files/14564.got.cif
#   From: 2010.05.17/outbox.cif.g08.bks.cpg/sg71_8_cif.got.tgz:14564.got - 2010.06.03 16:22:01.
