data_PCOD9521738
_publ_section_title
;
Structure prediction by ZEFSAII (Michael W. Deem and Ramdas Pophale) SiO2 
 PCOD9521738
Probable space group: I M M M
;
_chemical_formula_sum "Si O2"
_cell_formula_units_Z 108
_cell_length_a 33.616131
_cell_length_b 14.999995
_cell_length_c 11.680959
_cell_angle_alpha 90.000000
_cell_angle_beta 90.000000
_cell_angle_gamma 90.000000
_cell_volume 5890.027756
_symmetry_space_group_name_H-M "I M M M"
_symmetry_group_IT_number 71
_symmetry_cell_setting 'orthorhombic'
loop_
_space_group_symop_operation_xyz
x,y,z
-x,-y,z
x,-y,-z
-x,y,-z
-x,-y,-z
x,y,-z
-x,y,z
x,-y,z
1/2+x,1/2+y,1/2+z
1/2-x,1/2-y,1/2+z
1/2+x,1/2-y,1/2-z
1/2-x,1/2+y,1/2-z
1/2-x,1/2-y,1/2-z
1/2+x,1/2+y,1/2-z
1/2-x,1/2+y,1/2+z
1/2+x,1/2-y,1/2+z
loop_
_atom_site_type_symbol
_atom_site_label
_atom_site_fract_x
_atom_site_fract_y
_atom_site_fract_z
Si Si1 0.323567 0.356119 0.291440
Si Si2 0.548262 0.101181 0.000000
Si Si3 0.953503 0.734881 0.299005
Si Si4 0.817718 0.000000 0.000000
Si Si5 0.747743 0.604983 0.133125
Si Si6 0.101439 0.898893 0.364079
Si Si7 0.335787 0.154711 0.636555
Si Si8 0.577866 0.902643 0.637453
O O1 0.318435 0.422195 0.398345
O O2 0.283067 0.349183 0.218268
O O3 0.357567 0.390693 0.205174
O O4 0.336488 0.258740 0.333944
O O5 0.559740 0.160376 0.108734
O O6 0.500000 0.096325 0.000000
O O7 0.563395 0.000000 0.000000
O O8 0.928277 0.823859 0.316680
O O9 0.946091 0.682436 0.181633
O O10 0.000000 0.754031 0.316247
O O11 0.738155 0.500000 0.133629
O O12 0.793186 0.616862 0.174176
O O13 0.744653 0.636193 0.000000
O O14 0.107592 0.884369 0.500000
O O15 0.086014 0.000000 0.349230
O O16 0.336012 0.142419 0.500000
O O17 0.376371 0.109215 0.678111
O O18 0.577611 0.902621 0.500000
O O19 0.562391 0.000000 0.676148
#
# Coordination Sequence:
#
# PCOD9521738 Si02
#       8
#    16   8  16   4  16  16  16  16
#     4  12  21  38  58  86 117 157 197 246 294 355
#     4   9  18  34  57  84 112 146 190 237 294 363
#     4  11  22  38  60  87 119 155 196 249 308 363
#     4  12  24  36  62  86 117 156 206 240 299 352
#     4  10  20  35  56  83 115 151 197 244 290 343
#     4  11  23  40  63  88 118 156 203 255 304 357
#     4  10  20  34  57  85 115 152 196 242 293 348
#     4  10  21  38  61  88 121 160 202 245 295 359
#
# _framework density 18.336077
#
# number of rings (size 3 to 8) (size 9 to 14) (size 15 to 20)
#    0.000    1.407    4.444    1.778    0.000    4.444 
#    0.000    1.481    0.000    0.000    1.926    1.556 
#    0.000    0.000    0.000    0.000    0.000    0.000 
#
# Total GULP energy -300737.185887 kJ/mol
# GULP energy per Si atom -5569.207146 kJ/mol
# Density = 1.829434 g / cm^3
# Si number density = 18.336077 Si / 1000 Ang^3
#
#
#
# Elastic Constant Matrix: (Units=GPa)
#
#
# Indices 1 2 3 4 5 6 
#
# 1 48.8144 12.8930 20.1439 0.0000 0.0000 0.0000
# 2 12.8930 69.4792 12.4116 0.0000 0.0000 0.0000
# 3 20.1439 12.4116 57.8934 0.0000 0.0000 0.0000
# 4 0.0000 0.0000 0.0000 24.5375 0.0000 0.0000
# 5 0.0000 0.0000 0.0000 0.0000 19.6520 0.0000
# 6 0.0000 0.0000 0.0000 0.0000 0.0000 172.1361
#
#
#
# Elastic Compliance Matrix: (Units=1/GPa)
#
#
# Indices 1 2 3 4 5 6 
#
# 1 0.024567 -0.003153 -0.007872 0.000000 0.000000 0.000000
# 2 -0.003153 0.015371 -0.002198 0.000000 0.000000 0.000000
# 3 -0.007872 -0.002198 0.020484 0.000000 0.000000 0.000000
# 4 0.000000 0.000000 0.000000 0.040754 0.000000 0.000000
# 5 0.000000 0.000000 0.000000 0.000000 0.050885 0.000000
# 6 0.000000 0.000000 0.000000 0.000000 0.000000 0.005809
#
#
# Mechanical properties :
#
#
# Convention : Reuss Voigt Hill
#
# Bulk Modulus (GPa) = 29.43345 29.67600 29.55473
# Shear Modulus (GPa) = 25.55703 51.98101 38.76902
#
# Velocity S-wave (km/s) = 3.73743 5.33016 4.60320
# Velocity P-wave (km/s) = 5.89165 7.35530 6.66378
#
# Compressibility (1/GPa) = 0.03397495
#
# Stress axis : x y z
#
# Youngs Moduli (GPa) = 40.70506 65.05964 48.81972
#
# Poissons Ratio (x) = 0.20510 0.38432
# Poissons Ratio (y) = 0.12832 0.10732
# Poissons Ratio (z) = 0.32044 0.14302
#
# Static dielectric constant tensor:
#      x y z
#    x 1.640940 0.000000 0.000000 
#    y 0.000000 1.638920 0.000000 
#    z 0.000000 0.000000 1.649470 
# 
# From -- ./inp_files/30064.got.cif
#   From: 2010.05.17/outbox.cif.g08.bks.cpg/sg71_16_cif.got.tgz:30064.got - 2010.06.03 16:22:01.
