data_PCOD9521259
_publ_section_title
;
Structure prediction by ZEFSAII (Michael W. Deem and Ramdas Pophale) SiO2 
 PCOD9521259
Probable space group: I M M M
;
_chemical_formula_sum "Si O2"
_cell_formula_units_Z 66
_cell_length_a 23.421095
_cell_length_b 7.222861
_cell_length_c 16.615887
_cell_angle_alpha 90.000000
_cell_angle_beta 90.000000
_cell_angle_gamma 90.000000
_cell_volume 2810.864968
_symmetry_space_group_name_H-M "I M M M"
_symmetry_group_IT_number 71
_symmetry_cell_setting 'orthorhombic'
loop_
_space_group_symop_operation_xyz
x,y,z
-x,-y,z
x,-y,-z
-x,y,-z
-x,-y,-z
x,y,-z
-x,y,z
x,-y,z
1/2+x,1/2+y,1/2+z
1/2-x,1/2-y,1/2+z
1/2+x,1/2-y,1/2-z
1/2-x,1/2+y,1/2-z
1/2-x,1/2-y,1/2-z
1/2+x,1/2+y,1/2-z
1/2-x,1/2+y,1/2+z
1/2+x,1/2-y,1/2+z
loop_
_atom_site_type_symbol
_atom_site_label
_atom_site_fract_x
_atom_site_fract_y
_atom_site_fract_z
Si Si1 0.500000 0.724611 0.093866
Si Si2 0.624729 0.275072 0.153575
Si Si3 0.373929 0.726751 0.672517
Si Si4 0.330526 0.290199 0.500000
Si Si5 0.000000 0.203211 0.835167
Si Si6 0.697986 0.275588 0.000000
Si Si7 0.000000 0.000000 0.000000
O O1 0.500000 0.500000 0.092992
O O2 0.440852 0.782458 0.136148
O O3 0.500000 0.781810 0.000000
O O4 0.623731 0.500000 0.153000
O O5 0.650445 0.220086 0.240408
O O6 0.663856 0.216923 0.079302
O O7 0.373191 0.500000 0.669117
O O8 0.349590 0.789528 0.586518
O O9 0.439426 0.788803 0.680664
O O10 0.355472 0.500000 0.500000
O O11 0.262499 0.292702 0.500000
O O12 0.000000 0.000000 0.791863
O O13 0.000000 0.156028 0.929384
O O14 0.700140 0.500000 0.000000
#
# Coordination Sequence:
#
# PCOD9521259 Si02
#       7
#     8  16  16   8   8   8   2
#     4   9  13  21  40  67  95 118 142 180 233 285
#     4   9  16  26  43  67  93 120 148 187 233 278
#     4   9  16  26  42  66  94 120 149 185 233 280
#     4  10  21  33  47  66  92 124 160 194 224 268
#     4   8  13  20  37  63  92 120 137 174 230 286
#     4  10  20  34  48  65  91 124 159 194 230 264
#     4   8  12  16  32  52  88 126 142 160 212 286
#
# _framework density 23.480315999999998
#
# number of rings (size 3 to 8) (size 9 to 14) (size 15 to 20)
#    0.364    2.545    1.212    1.455    1.697    3.879 
#    0.000    0.000    0.000    0.000    0.000    3.394 
#    0.000    3.879    0.000    0.000    0.000    0.000 
#
# Total GULP energy -183830.228431 kJ/mol
# GULP energy per Si atom -5570.612983 kJ/mol
# Density = 2.342687 g / cm^3
# Si number density = 23.480316 Si / 1000 Ang^3
#
#
#
# Elastic Constant Matrix: (Units=GPa)
#
#
# Indices 1 2 3 4 5 6 
#
# 1 107.8178 -7.4887 83.0380 0.0000 0.0000 0.0000
# 2 -7.4887 106.5896 7.9652 0.0000 0.0000 0.0000
# 3 83.0380 7.9652 285.7901 0.0000 0.0000 0.0000
# 4 0.0000 0.0000 0.0000 -22.7197 0.0000 0.0000
# 5 0.0000 0.0000 0.0000 0.0000 -3.5685 0.0000
# 6 0.0000 0.0000 0.0000 0.0000 0.0000 -7.4536
#
#
#
# Elastic Compliance Matrix: (Units=1/GPa)
#
#
# Indices 1 2 3 4 5 6 
#
# 1 0.012079 0.001113 -0.003541 0.000000 0.000000 0.000000
# 2 0.001113 0.009504 -0.000588 0.000000 0.000000 0.000000
# 3 -0.003541 -0.000588 0.004544 0.000000 0.000000 0.000000
# 4 0.000000 0.000000 0.000000 -0.044015 0.000000 0.000000
# 5 0.000000 0.000000 0.000000 0.000000 -0.280226 0.000000
# 6 0.000000 0.000000 0.000000 0.000000 0.000000 -0.134163
#
#
# Mechanical properties :
#
#
# Convention : Reuss Voigt Hill
#
# Bulk Modulus (GPa) = 49.76171 74.13626 61.94899
# Shear Modulus (GPa) = -11.91762 21.03051 4.55645
#
# Velocity S-wave (km/s) = -2.25535 2.99601 1.39454
# Velocity P-wave (km/s) = 3.80221 6.60382 5.38829
#
# Compressibility (1/GPa) = 0.02009577
#
# Stress axis : x y z
#
# Youngs Moduli (GPa) = 82.78715 105.21928 220.05875
#
# Poissons Ratio (x) = -0.11713 0.77916
# Poissons Ratio (y) = -0.09216 0.12947
# Poissons Ratio (z) = 0.29312 0.06190
#
# Static dielectric constant tensor:
#      x y z
#    x 1.837050 0.000000 0.000000 
#    y 0.000000 1.992440 0.000000 
#    z 0.000000 0.000000 1.896530 
# 
# From -- ./inp_files/39943.got.cif
#   From: 2010.05.17/outbox.cif.g08.bks.cpg/sg71_20_cif.got.tgz:39943.got - 2010.06.03 16:22:01.
