data_PCOD9521613
_publ_section_title
;
Structure prediction by ZEFSAII (Michael W. Deem and Ramdas Pophale) SiO2 
 PCOD9521613
Probable space group: I M M M
;
_chemical_formula_sum "Si O2"
_cell_formula_units_Z 64
_cell_length_a 24.257418
_cell_length_b 8.109043
_cell_length_c 15.698059
_cell_angle_alpha 90.000000
_cell_angle_beta 90.000000
_cell_angle_gamma 90.000000
_cell_volume 3087.877993
_symmetry_space_group_name_H-M "I M M M"
_symmetry_group_IT_number 71
_symmetry_cell_setting 'orthorhombic'
loop_
_space_group_symop_operation_xyz
x,y,z
-x,-y,z
x,-y,-z
-x,y,-z
-x,-y,-z
x,y,-z
-x,y,z
x,-y,z
1/2+x,1/2+y,1/2+z
1/2-x,1/2-y,1/2+z
1/2+x,1/2-y,1/2-z
1/2-x,1/2+y,1/2-z
1/2-x,1/2-y,1/2-z
1/2+x,1/2+y,1/2-z
1/2-x,1/2+y,1/2+z
1/2+x,1/2-y,1/2+z
loop_
_atom_site_type_symbol
_atom_site_label
_atom_site_fract_x
_atom_site_fract_y
_atom_site_fract_z
Si Si1 0.821029 0.322650 0.400594
Si Si2 0.061092 0.808941 0.368347
Si Si3 0.936489 0.813877 0.837199
Si Si4 0.368036 0.000000 0.398305
Si Si5 0.740713 0.500000 0.895211
O O1 0.805013 0.329305 0.500000
O O2 0.807738 0.500000 0.360906
O O3 0.886534 0.292680 0.397858
O O4 0.790609 0.163430 0.363665
O O5 0.062524 0.809383 0.265574
O O6 0.000000 0.751403 0.394444
O O7 0.067315 0.000000 0.396024
O O8 0.898826 0.664961 0.867790
O O9 0.000000 0.790520 0.866047
O O10 0.918990 0.000000 0.862792
O O11 0.368825 0.000000 0.500000
O O12 0.304423 0.000000 0.370677
O O13 0.737516 0.500000 0.000000
#
# Coordination Sequence:
#
# PCOD9521613 Si02
#       5
#    16  16  16   8   8
#     4  10  20  34  55  80 110 149 188 227 270 315
#     4   9  18  34  57  81 111 150 183 219 273 329
#     4   9  20  38  58  83 115 145 174 219 279 335
#     4  11  23  38  61  85 105 141 189 227 273 335
#     4   9  20  39  55  75 111 147 185 232 272 312
#
# _framework density 20.726208
#
# number of rings (size 3 to 8) (size 9 to 14) (size 15 to 20)
#    0.000    2.500    1.250    1.875    1.750    3.500 
#    0.000    7.500    0.000    0.000    0.000    0.000 
#    0.000    0.000    0.000    0.000    0.000    0.000 
#
# Total GULP energy -178609.892787 kJ/mol
# GULP energy per Si atom -5581.559150 kJ/mol
# Density = 2.067903 g / cm^3
# Si number density = 20.726208 Si / 1000 Ang^3
#
#
#
# Elastic Constant Matrix: (Units=GPa)
#
#
# Indices 1 2 3 4 5 6 
#
# 1 120.2325 109.2278 11.8233 0.0000 0.0000 0.0000
# 2 109.2278 207.6123 19.6000 0.0000 0.0000 0.0000
# 3 11.8233 19.6000 29.2967 0.0000 0.0000 0.0000
# 4 0.0000 0.0000 0.0000 12.9422 0.0000 0.0000
# 5 0.0000 0.0000 0.0000 0.0000 30.2883 0.0000
# 6 0.0000 0.0000 0.0000 0.0000 0.0000 0.4779
#
#
#
# Elastic Compliance Matrix: (Units=1/GPa)
#
#
# Indices 1 2 3 4 5 6 
#
# 1 0.015953 -0.008310 -0.000879 0.000000 0.000000 0.000000
# 2 -0.008310 0.009470 -0.002982 0.000000 0.000000 0.000000
# 3 -0.000879 -0.002982 0.036483 0.000000 0.000000 0.000000
# 4 0.000000 0.000000 0.000000 0.077267 0.000000 0.000000
# 5 0.000000 0.000000 0.000000 0.000000 0.033016 0.000000
# 6 0.000000 0.000000 0.000000 0.000000 0.000000 2.092443
#
#
# Mechanical properties :
#
#
# Convention : Reuss Voigt Hill
#
# Bulk Modulus (GPa) = 26.62054 70.93818 48.77936
# Shear Modulus (GPa) = 2.17250 23.17438 12.67344
#
# Velocity S-wave (km/s) = 1.02492 3.34746 2.47547
# Velocity P-wave (km/s) = 3.77788 7.01721 5.63532
#
# Compressibility (1/GPa) = 0.03756498
#
# Stress axis : x y z
#
# Youngs Moduli (GPa) = 62.68300 105.59255 27.40994
#
# Poissons Ratio (x) = 0.87751 0.02408
# Poissons Ratio (y) = 0.52092 0.08174
# Poissons Ratio (z) = 0.05507 0.31488
#
# Static dielectric constant tensor:
#      x y z
#    x 1.715220 0.000000 0.000000 
#    y 0.000000 1.764950 0.000000 
#    z 0.000000 0.000000 1.748560 
# 
# From -- ./inp_files/7498.got.cif
#   From: 2010.05.17/outbox.cif.g08.bks.cpg/sg71_4_cif.got.tgz:7498.got - 2010.06.03 16:22:01.
