data_PCOD9521332
_publ_section_title
;
Structure prediction by ZEFSAII (Michael W. Deem and Ramdas Pophale) SiO2 
 PCOD9521332
Probable space group: I M M M
;
_chemical_formula_sum "Si O2"
_cell_formula_units_Z 88
_cell_length_a 9.150725
_cell_length_b 28.783361
_cell_length_c 18.578581
_cell_angle_alpha 90.000000
_cell_angle_beta 90.000000
_cell_angle_gamma 90.000000
_cell_volume 4893.386831
_symmetry_space_group_name_H-M "I M M M"
_symmetry_group_IT_number 71
_symmetry_cell_setting 'orthorhombic'
loop_
_space_group_symop_operation_xyz
x,y,z
-x,-y,z
x,-y,-z
-x,y,-z
-x,-y,-z
x,y,-z
-x,y,z
x,-y,z
1/2+x,1/2+y,1/2+z
1/2-x,1/2-y,1/2+z
1/2+x,1/2-y,1/2-z
1/2-x,1/2+y,1/2-z
1/2-x,1/2-y,1/2-z
1/2+x,1/2+y,1/2-z
1/2-x,1/2+y,1/2+z
1/2+x,1/2-y,1/2+z
loop_
_atom_site_type_symbol
_atom_site_label
_atom_site_fract_x
_atom_site_fract_y
_atom_site_fract_z
Si Si1 0.171237 0.110574 0.717798
Si Si2 0.332105 0.747934 0.915549
Si Si3 0.829276 0.556105 0.657853
Si Si4 0.822177 0.445625 0.500000
Si Si5 0.674068 0.148518 0.583640
Si Si6 0.670920 0.290185 0.704990
O O1 0.238792 0.075312 0.775402
O O2 0.256084 0.114276 0.642228
O O3 0.186521 0.161074 0.755223
O O4 0.000000 0.101648 0.705634
O O5 0.500000 0.742459 0.890920
O O6 0.248190 0.699078 0.905472
O O7 0.251012 0.787649 0.871396
O O8 0.332284 0.758016 0.000000
O O9 0.823578 0.500000 0.656512
O O10 0.776923 0.573324 0.578402
O O11 0.000000 0.569461 0.666128
O O12 0.779478 0.500000 0.500000
O O13 0.000000 0.444445 0.500000
O O14 0.701168 0.135373 0.500000
O O15 0.500000 0.152193 0.594137
O O16 0.500000 0.279731 0.697023
O O17 0.750000 0.250000 0.750000
#
# Coordination Sequence:
#
# PCOD9521332 Si02
#       6
#    16  16  16   8  16  16
#     4  11  23  36  53  80 111 144 179 220 272 324
#     4  10  20  34  52  74 102 138 180 224 269 317
#     4   9  18  35  60  85 109 140 179 222 266 318
#     4   7  12  28  55  83 107 135 175 219 261 309
#     4  10  20  34  55  80 104 137 181 225 268 319
#     4  11  22  35  52  74 105 145 183 222 267 315
#
# _framework density 17.983453999999998
#
# number of rings (size 3 to 8) (size 9 to 14) (size 15 to 20)
#    0.000    2.091    1.818    3.273    0.000    4.727 
#    1.636    0.455    0.000    2.182    0.000    3.818 
#    0.000    0.000    0.000    0.000    0.000    0.000 
#
# Total GULP energy -245440.567634 kJ/mol
# GULP energy per Si atom -5578.194719 kJ/mol
# Density = 1.794252 g / cm^3
# Si number density = 17.983454 Si / 1000 Ang^3
#
#
#
# Elastic Constant Matrix: (Units=GPa)
#
#
# Indices 1 2 3 4 5 6 
#
# 1 106.0950 28.7638 71.9361 0.0000 0.0000 0.0000
# 2 28.7638 15.5778 21.8758 0.0000 0.0000 0.0000
# 3 71.9361 21.8758 134.9509 -0.0001 0.0000 0.0000
# 4 0.0000 0.0000 -0.0001 30.5265 0.0000 0.0000
# 5 0.0000 0.0000 0.0000 0.0000 27.9375 0.0000
# 6 0.0000 0.0000 0.0000 0.0000 0.0000 21.6066
#
#
#
# Elastic Compliance Matrix: (Units=1/GPa)
#
#
# Indices 1 2 3 4 5 6 
#
# 1 0.023021 -0.032724 -0.006967 0.000000 0.000000 0.000000
# 2 -0.032724 0.129631 -0.003570 0.000000 0.000000 0.000000
# 3 -0.006967 -0.003570 0.011702 0.000000 0.000000 0.000000
# 4 0.000000 0.000000 0.000000 0.032758 0.000000 0.000000
# 5 0.000000 0.000000 0.000000 0.000000 0.035794 0.000000
# 6 0.000000 0.000000 0.000000 0.000000 0.000000 0.046282
#
#
# Mechanical properties :
#
#
# Convention : Reuss Voigt Hill
#
# Bulk Modulus (GPa) = 12.84804 55.75280 34.30042
# Shear Modulus (GPa) = 12.76633 24.95065 18.85849
#
# Velocity S-wave (km/s) = 2.66727 3.72885 3.24181
# Velocity P-wave (km/s) = 4.07991 7.04334 5.75562
#
# Compressibility (1/GPa) = 0.07783286
#
# Stress axis : x y z
#
# Youngs Moduli (GPa) = 43.43787 7.71422 85.45189
#
# Poissons Ratio (x) = 0.25244 0.59534
# Poissons Ratio (y) = 1.42148 0.30502
# Poissons Ratio (z) = 0.30263 0.02754
#
# Static dielectric constant tensor:
#      x y z
#    x 1.608210 0.000000 0.000000 
#    y 0.000000 1.595510 0.000000 
#    z 0.000000 0.000000 1.677880 
# 
# From -- ./inp_files/42453.got.cif
#   From: 2010.05.17/outbox.cif.g08.bks.cpg/sg71_22_cif.got.tgz:42453.got - 2010.06.03 16:22:01.
