data_PCOD9521100
_publ_section_title
;
Structure prediction by ZEFSAII (Michael W. Deem and Ramdas Pophale) SiO2 
 PCOD9521100
Probable space group: I M M M
;
_chemical_formula_sum "Si O2"
_cell_formula_units_Z 104
_cell_length_a 8.715019
_cell_length_b 23.439079
_cell_length_c 28.688986
_cell_angle_alpha 90.000000
_cell_angle_beta 90.000000
_cell_angle_gamma 90.000000
_cell_volume 5860.357088
_symmetry_space_group_name_H-M "I M M M"
_symmetry_group_IT_number 71
_symmetry_cell_setting 'orthorhombic'
loop_
_space_group_symop_operation_xyz
x,y,z
-x,-y,z
x,-y,-z
-x,y,-z
-x,-y,-z
x,y,-z
-x,y,z
x,-y,z
1/2+x,1/2+y,1/2+z
1/2-x,1/2-y,1/2+z
1/2+x,1/2-y,1/2-z
1/2-x,1/2+y,1/2-z
1/2-x,1/2-y,1/2-z
1/2+x,1/2+y,1/2-z
1/2-x,1/2+y,1/2+z
1/2+x,1/2-y,1/2+z
loop_
_atom_site_type_symbol
_atom_site_label
_atom_site_fract_x
_atom_site_fract_y
_atom_site_fract_z
Si Si1 0.815758 0.143018 0.682128
Si Si2 0.181136 0.760412 0.198202
Si Si3 0.316480 0.565089 0.905461
Si Si4 0.684003 0.564830 0.269487
Si Si5 0.183369 0.371077 0.646349
Si Si6 0.813195 0.566187 0.553227
Si Si7 0.681958 0.066972 0.500000
O O1 0.726018 0.201161 0.674078
O O2 0.781810 0.100172 0.640369
O O3 0.773776 0.111111 0.730203
O O4 0.000000 0.153824 0.683466
O O5 0.250000 0.750000 0.250000
O O6 0.247543 0.813435 0.168898
O O7 0.000000 0.768557 0.202908
O O8 0.500000 0.563438 0.910746
O O9 0.260466 0.500000 0.900180
O O10 0.246693 0.591400 0.952211
O O11 0.500000 0.569237 0.276346
O O12 0.716516 0.500000 0.254132
O O13 0.768728 0.579945 0.317085
O O14 0.236474 0.391546 0.594858
O O15 0.000000 0.364974 0.645232
O O16 0.765574 0.580896 0.500000
O O17 0.767356 0.500000 0.562296
O O18 0.000000 0.566725 0.553598
O O19 0.500000 0.068854 0.500000
O O20 0.731987 0.000000 0.500000
#
# Coordination Sequence:
#
# PCOD9521100 Si02
#       7
#    16  16  16  16  16  16   8
#     4  10  20  35  55  78 106 140 179 221 267 322
#     4  12  24  39  57  77 104 142 185 226 270 319
#     4   9  17  31  53  79 106 137 174 215 263 320
#     4  10  20  33  51  78 113 147 175 212 268 326
#     4  11  21  34  56  83 110 144 187 229 270 322
#     4   8  15  30  54  85 118 147 178 223 276 326
#     4   9  17  29  47  73 105 139 173 211 258 309
#
# _framework density 17.746359000000002
#
# number of rings (size 3 to 8) (size 9 to 14) (size 15 to 20)
#    0.000    2.077    1.538    3.462    0.000    4.308 
#    0.000    0.000    1.692    4.615    0.000    5.385 
#    0.000    0.000    0.000    0.000    0.000    0.000 
#
# Total GULP energy -289970.359335 kJ/mol
# GULP energy per Si atom -5576.353064 kJ/mol
# Density = 1.770597 g / cm^3
# Si number density = 17.746359 Si / 1000 Ang^3
#
#
#
# Elastic Constant Matrix: (Units=GPa)
#
#
# Indices 1 2 3 4 5 6 
#
# 1 30.5002 30.2725 35.9911 0.0000 0.0000 0.0000
# 2 30.2725 96.0308 49.4972 0.0000 0.0000 0.0000
# 3 35.9911 49.4972 140.1000 0.0000 0.0000 0.0000
# 4 0.0000 0.0000 0.0000 20.3289 0.0000 0.0000
# 5 0.0000 0.0000 0.0000 0.0000 19.6822 0.0000
# 6 0.0000 0.0000 0.0000 0.0000 0.0000 24.0674
#
#
#
# Elastic Compliance Matrix: (Units=1/GPa)
#
#
# Indices 1 2 3 4 5 6 
#
# 1 0.057704 -0.012899 -0.010267 0.000000 0.000000 0.000000
# 2 -0.012899 0.015615 -0.002203 0.000000 0.000000 0.000000
# 3 -0.010267 -0.002203 0.010554 0.000000 0.000000 0.000000
# 4 0.000000 0.000000 0.000000 0.049191 0.000000 0.000000
# 5 0.000000 0.000000 0.000000 0.000000 0.050807 0.000000
# 6 0.000000 0.000000 0.000000 0.000000 0.000000 0.041550
#
#
# Mechanical properties :
#
#
# Convention : Reuss Voigt Hill
#
# Bulk Modulus (GPa) = 30.17911 55.35029 42.76470
# Shear Modulus (GPa) = 17.40924 22.87372 20.14148
#
# Velocity S-wave (km/s) = 3.13550 3.59405 3.37258
# Velocity P-wave (km/s) = 5.49101 6.96278 6.27023
#
# Compressibility (1/GPa) = 0.03313551
#
# Stress axis : x y z
#
# Youngs Moduli (GPa) = 17.32975 64.04078 94.75397
#
# Poissons Ratio (x) = 0.82604 0.97283
# Poissons Ratio (y) = 0.22353 0.20876
# Poissons Ratio (z) = 0.17792 0.14109
#
# Static dielectric constant tensor:
#      x y z
#    x 1.603620 0.000000 0.000000 
#    y 0.000000 1.625910 0.000000 
#    z 0.000000 0.000000 1.622760 
# 
# From -- ./inp_files/63560.got.cif
#   From: 2010.05.17/outbox.cif.g08.bks.cpg/sg71_32_cif.got.tgz:63560.got - 2010.06.03 16:22:01.
