data_PCOD9521076
_publ_section_title
;
Structure prediction by ZEFSAII (Michael W. Deem and Ramdas Pophale) SiO2 
 PCOD9521076
Probable space group: I M M M
;
_chemical_formula_sum "Si O2"
_cell_formula_units_Z 72
_cell_length_a 13.929764
_cell_length_b 34.955828
_cell_length_c 8.979703
_cell_angle_alpha 90.000000
_cell_angle_beta 90.000000
_cell_angle_gamma 90.000000
_cell_volume 4372.454764
_symmetry_space_group_name_H-M "I M M M"
_symmetry_group_IT_number 71
_symmetry_cell_setting 'orthorhombic'
loop_
_space_group_symop_operation_xyz
x,y,z
-x,-y,z
x,-y,-z
-x,y,-z
-x,-y,-z
x,y,-z
-x,y,z
x,-y,z
1/2+x,1/2+y,1/2+z
1/2-x,1/2-y,1/2+z
1/2+x,1/2-y,1/2-z
1/2-x,1/2+y,1/2-z
1/2-x,1/2-y,1/2-z
1/2+x,1/2+y,1/2-z
1/2-x,1/2+y,1/2+z
1/2+x,1/2-y,1/2+z
loop_
_atom_site_type_symbol
_atom_site_label
_atom_site_fract_x
_atom_site_fract_y
_atom_site_fract_z
Si Si1 0.610576 0.771702 0.178736
Si Si2 0.388339 0.616981 0.680154
Si Si3 0.610527 0.000000 0.322003
Si Si4 0.773398 0.041854 0.822775
Si Si5 0.291099 0.690883 0.822315
O O1 0.500000 0.777586 0.221476
O O2 0.643612 0.728207 0.212796
O O3 0.685938 0.799258 0.259171
O O4 0.618843 0.776575 0.000000
O O5 0.384323 0.619088 0.500000
O O6 0.500000 0.616423 0.723976
O O7 0.335084 0.577857 0.726594
O O8 0.335797 0.653509 0.748480
O O9 0.671314 0.035866 0.258094
O O10 0.500000 0.000000 0.274615
O O11 0.614671 0.000000 0.500000
O O12 0.822042 0.000000 0.798121
O O13 0.757376 0.045348 0.000000
O O14 0.288004 0.686723 0.000000
#
# Coordination Sequence:
#
# PCOD9521076 Si02
#       5
#    16  16   8  16  16
#     4   9  18  34  54  74 100 136 175 213 254 301
#     4  10  20  34  53  76 103 136 172 209 252 303
#     4   9  17  31  52  75  98 126 161 203 250 297
#     4   8  17  33  52  75 101 130 167 207 245 294
#     4  10  20  33  51  77 107 135 168 212 258 307
#
# _framework density 16.466723000000002
#
# number of rings (size 3 to 8) (size 9 to 14) (size 15 to 20)
#    0.667    2.111    0.000    1.333    0.000    4.889 
#    0.000    3.333    0.000    2.000    0.000    0.000 
#    0.000    0.000    0.000    0.000    0.000    0.000 
#
# Total GULP energy -200439.070277 kJ/mol
# GULP energy per Si atom -5567.751952 kJ/mol
# Density = 1.642924 g / cm^3
# Si number density = 16.466723 Si / 1000 Ang^3
#
#
#
# Elastic Constant Matrix: (Units=GPa)
#
#
# Indices 1 2 3 4 5 6 
#
# 1 171.0397 97.2545 48.0362 0.0000 0.0004 -0.0001
# 2 97.2545 131.8297 44.4467 0.0007 0.0000 -0.0001
# 3 48.0362 44.4467 24.1703 -0.0004 0.0038 0.0003
# 4 0.0000 0.0007 -0.0004 23.1019 -0.0001 -0.0001
# 5 0.0004 0.0000 0.0038 -0.0001 15.8685 -0.0003
# 6 -0.0001 -0.0001 0.0003 -0.0001 -0.0003 21.1105
#
#
#
# Elastic Compliance Matrix: (Units=1/GPa)
#
#
# Indices 1 2 3 4 5 6 
#
# 1 0.013516 -0.002407 -0.022437 0.000000 0.000005 0.000000
# 2 -0.002407 0.020390 -0.032712 -0.000001 0.000008 0.000001
# 3 -0.022437 -0.032712 0.146118 0.000003 -0.000035 -0.000002
# 4 0.000000 -0.000001 0.000003 0.043286 0.000000 0.000000
# 5 0.000005 0.000008 -0.000035 0.000000 0.063018 0.000001
# 6 0.000000 0.000001 -0.000002 0.000000 0.000001 0.047370
#
#
# Mechanical properties :
#
#
# Convention : Reuss Voigt Hill
#
# Bulk Modulus (GPa) = 15.40511 78.50160 46.95336
# Shear Modulus (GPa) = 10.62819 21.16967 15.89893
#
# Velocity S-wave (km/s) = 2.54330 3.58942 3.11065
# Velocity P-wave (km/s) = 4.24265 8.05946 6.44030
#
# Compressibility (1/GPa) = 0.06491351
#
# Stress axis : x y z
#
# Youngs Moduli (GPa) = 73.98368 49.04358 6.84380
#
# Poissons Ratio (x) = 0.11804 0.15355
# Poissons Ratio (y) = 0.17807 0.22387
# Poissons Ratio (z) = 1.65995 1.60430
#
# Static dielectric constant tensor:
#      x y z
#    x 1.538280 0.000000 0.000000 
#    y 0.000000 1.542010 0.000000 
#    z 0.000000 0.000000 1.546910 
# 
# From -- ./inp_files/6435.got.cif
#   From: 2010.05.17/outbox.cif.g08.bks.cpg/sg71_4_cif.got.tgz:6435.got - 2010.06.03 16:22:01.
