data_PCOD9521927
_publ_section_title
;
Structure prediction by ZEFSAII (Michael W. Deem and Ramdas Pophale) SiO2 
 PCOD9521927
Probable space group: I M M M
;
_chemical_formula_sum "Si O2"
_cell_formula_units_Z 72
_cell_length_a 11.370329
_cell_length_b 20.970188
_cell_length_c 17.665904
_cell_angle_alpha 90.000000
_cell_angle_beta 90.000000
_cell_angle_gamma 90.000000
_cell_volume 4212.221701
_symmetry_space_group_name_H-M "I M M M"
_symmetry_group_IT_number 71
_symmetry_cell_setting 'orthorhombic'
loop_
_space_group_symop_operation_xyz
x,y,z
-x,-y,z
x,-y,-z
-x,y,-z
-x,-y,-z
x,y,-z
-x,y,z
x,-y,z
1/2+x,1/2+y,1/2+z
1/2-x,1/2-y,1/2+z
1/2+x,1/2-y,1/2-z
1/2-x,1/2+y,1/2-z
1/2-x,1/2-y,1/2-z
1/2+x,1/2+y,1/2-z
1/2-x,1/2+y,1/2+z
1/2+x,1/2-y,1/2+z
loop_
_atom_site_type_symbol
_atom_site_label
_atom_site_fract_x
_atom_site_fract_y
_atom_site_fract_z
Si Si1 0.857658 0.000000 0.913455
Si Si2 0.359649 0.625491 0.681838
Si Si3 0.860683 0.000000 0.415911
Si Si4 0.500000 0.075543 0.412089
Si Si5 0.637811 0.755928 0.589825
Si Si6 0.259051 0.878625 0.343130
O O1 0.825820 0.936486 0.867347
O O2 0.000000 0.000000 0.917453
O O3 0.813846 0.000000 0.000000
O O4 0.500000 0.620060 0.700906
O O5 0.344852 0.689299 0.632647
O O6 0.281263 0.628874 0.756931
O O7 0.823296 0.065854 0.376817
O O8 0.806285 0.000000 0.500000
O O9 0.000000 0.000000 0.420394
O O10 0.500000 0.101269 0.500000
O O11 0.612843 0.094664 0.363761
O O12 0.500000 0.000000 0.419595
O O13 0.649031 0.747664 0.500000
O O14 0.500000 0.774995 0.604663
O O15 0.730103 0.809004 0.618297
#
# Coordination Sequence:
#
# PCOD9521927 Si02
#       6
#     8  16   8   8  16  16
#     4   9  17  33  56  80 109 142 179 222 272 329
#     4  10  21  35  54  84 115 144 180 228 287 339
#     4  11  23  36  53  78 110 147 180 215 271 341
#     4  11  22  36  56  82 108 143 191 235 274 324
#     4  10  20  35  56  81 110 145 189 236 281 328
#     4  12  21  35  55  81 112 144 183 232 281 328
#
# _framework density 17.093115999999998
#
# number of rings (size 3 to 8) (size 9 to 14) (size 15 to 20)
#    0.000    1.444    2.222    4.667    0.000    3.556 
#    0.000    0.000    0.000    0.000    0.000    3.111 
#    0.000    0.000    0.000    0.000    0.000    0.000 
#
# Total GULP energy -200704.157879 kJ/mol
# GULP energy per Si atom -5575.115497 kJ/mol
# Density = 1.705421 g / cm^3
# Si number density = 17.093116 Si / 1000 Ang^3
#
#
#
# Elastic Constant Matrix: (Units=GPa)
#
#
# Indices 1 2 3 4 5 6 
#
# 1 68.9609 42.1964 53.5243 0.0000 0.0000 0.0000
# 2 42.1964 150.3981 84.5343 0.0000 0.0000 0.0000
# 3 53.5243 84.5343 166.3912 0.0000 0.0000 0.0000
# 4 0.0000 0.0000 0.0000 32.5779 0.0000 0.0000
# 5 0.0000 0.0000 0.0000 0.0000 33.1172 0.0000
# 6 0.0000 0.0000 0.0000 0.0000 0.0000 -8.9908
#
#
#
# Elastic Compliance Matrix: (Units=1/GPa)
#
#
# Indices 1 2 3 4 5 6 
#
# 1 0.020142 -0.002812 -0.005050 0.000000 0.000000 0.000000
# 2 -0.002812 0.009699 -0.004023 0.000000 0.000000 0.000000
# 3 -0.005050 -0.004023 0.009678 0.000000 0.000000 0.000000
# 4 0.000000 0.000000 0.000000 0.030696 0.000000 0.000000
# 5 0.000000 0.000000 0.000000 0.000000 0.030196 0.000000
# 6 0.000000 0.000000 0.000000 0.000000 0.000000 -0.111225
#
#
# Mechanical properties :
#
#
# Convention : Reuss Voigt Hill
#
# Bulk Modulus (GPa) = 63.50045 82.91781 73.20913
# Shear Modulus (GPa) = 274.61927 25.04052 149.82989
#
# Velocity S-wave (km/s) = 12.68895 3.83162 9.37259
# Velocity P-wave (km/s) = 15.87166 8.25771 12.65108
#
# Compressibility (1/GPa) = 0.01574792
#
# Stress axis : x y z
#
# Youngs Moduli (GPa) = 49.64829 103.10036 103.32339
#
# Poissons Ratio (x) = 0.28996 0.52181
# Poissons Ratio (y) = 0.13963 0.41567
# Poissons Ratio (z) = 0.25074 0.41477
#
# Static dielectric constant tensor:
#      x y z
#    x 1.581320 0.000000 0.000000 
#    y 0.000000 1.617500 0.000000 
#    z 0.000000 0.000000 1.567920 
# 
# From -- ./inp_files/43229.got.cif
#   From: 2010.05.17/outbox.cif.g08.bks.cpg/sg71_22_cif.got.tgz:43229.got - 2010.06.03 16:22:01.
