data_PCOD9521867
_publ_section_title
;
Structure prediction by ZEFSAII (Michael W. Deem and Ramdas Pophale) SiO2 
 PCOD9521867
Probable space group: I M M M
;
_chemical_formula_sum "Si O2"
_cell_formula_units_Z 96
_cell_length_a 24.362059
_cell_length_b 25.994092
_cell_length_c 8.523193
_cell_angle_alpha 90.000000
_cell_angle_beta 90.000000
_cell_angle_gamma 90.000000
_cell_volume 5397.479047
_symmetry_space_group_name_H-M "I M M M"
_symmetry_group_IT_number 71
_symmetry_cell_setting 'orthorhombic'
loop_
_space_group_symop_operation_xyz
x,y,z
-x,-y,z
x,-y,-z
-x,y,-z
-x,-y,-z
x,y,-z
-x,y,z
x,-y,z
1/2+x,1/2+y,1/2+z
1/2-x,1/2-y,1/2+z
1/2+x,1/2-y,1/2-z
1/2-x,1/2+y,1/2-z
1/2-x,1/2-y,1/2-z
1/2+x,1/2+y,1/2-z
1/2-x,1/2+y,1/2+z
1/2+x,1/2-y,1/2+z
loop_
_atom_site_type_symbol
_atom_site_label
_atom_site_fract_x
_atom_site_fract_y
_atom_site_fract_z
Si Si1 0.249300 0.808544 0.811767
Si Si2 0.062669 0.059555 0.810647
Si Si3 0.437622 0.940963 0.310817
Si Si4 0.562812 0.749174 0.191364
Si Si5 0.632582 0.151817 0.189279
Si Si6 0.634924 0.651362 0.812072
O O1 0.250000 0.750000 0.750000
O O2 0.305229 0.836779 0.759659
O O3 0.195240 0.837800 0.754059
O O4 0.249274 0.806516 0.000000
O O5 0.106493 0.098841 0.742025
O O6 0.000000 0.073134 0.762063
O O7 0.072401 0.000000 0.765788
O O8 0.064482 0.062059 0.000000
O O9 0.436960 0.939836 0.500000
O O10 0.500000 0.927219 0.260164
O O11 0.393936 0.900712 0.247947
O O12 0.427152 0.000000 0.262047
O O13 0.500000 0.748514 0.245106
O O14 0.594721 0.800348 0.242016
O O15 0.596061 0.698684 0.240908
O O16 0.562364 0.749250 0.000000
O O17 0.632094 0.151462 0.000000
O O18 0.637705 0.652537 0.000000
#
# Coordination Sequence:
#
# PCOD9521867 Si02
#       6
#    16  16  16  16  16  16
#     4  11  22  38  57  79 109 148 189 231 278 329
#     4   9  19  37  59  83 114 150 186 229 282 334
#     4   9  19  36  56  80 112 145 176 217 271 325
#     4   9  17  30  49  76 110 140 168 215 274 325
#     4  10  20  35  55  79 107 141 184 225 268 322
#     4  11  21  35  55  82 113 147 187 228 277 335
#
# _framework density 17.786079999999998
#
# number of rings (size 3 to 8) (size 9 to 14) (size 15 to 20)
#    0.000    2.167    1.667    3.000    0.000    4.000 
#    0.000    2.500    0.000    4.000    0.000    0.000 
#    0.000    0.000    0.000    0.000    0.000    0.000 
#
# Total GULP energy -267936.476093 kJ/mol
# GULP energy per Si atom -5582.009919 kJ/mol
# Density = 1.774560 g / cm^3
# Si number density = 17.786080 Si / 1000 Ang^3
#
#
#
# Elastic Constant Matrix: (Units=GPa)
#
#
# Indices 1 2 3 4 5 6 
#
# 1 200.0959 110.5113 36.2605 0.0000 0.0000 0.0000
# 2 110.5113 131.7158 29.1479 0.0000 0.0000 0.0000
# 3 36.2605 29.1479 23.9061 0.0000 0.0000 0.0000
# 4 0.0000 0.0000 0.0000 29.5495 0.0000 0.0000
# 5 0.0000 0.0000 0.0000 0.0000 25.1960 0.0000
# 6 0.0000 0.0000 0.0000 0.0000 0.0000 23.2043
#
#
#
# Elastic Compliance Matrix: (Units=1/GPa)
#
#
# Indices 1 2 3 4 5 6 
#
# 1 0.010061 -0.006936 -0.006804 0.000000 0.000000 0.000000
# 2 -0.006936 0.015179 -0.007987 0.000000 0.000000 0.000000
# 3 -0.006804 -0.007987 0.061889 0.000000 0.000000 0.000000
# 4 0.000000 0.000000 0.000000 0.033842 0.000000 0.000000
# 5 0.000000 0.000000 0.000000 0.000000 0.039689 0.000000
# 6 0.000000 0.000000 0.000000 0.000000 0.000000 0.043095
#
#
# Mechanical properties :
#
#
# Convention : Reuss Voigt Hill
#
# Bulk Modulus (GPa) = 22.89627 78.61747 50.75687
# Shear Modulus (GPa) = 19.10099 27.57649 23.33874
#
# Velocity S-wave (km/s) = 3.28064 3.94185 3.62635
# Velocity P-wave (km/s) = 5.22027 8.06320 6.79214
#
# Compressibility (1/GPa) = 0.04367525
#
# Stress axis : x y z
#
# Youngs Moduli (GPa) = 99.39190 65.88166 16.15801
#
# Poissons Ratio (x) = 0.45694 0.10994
# Poissons Ratio (y) = 0.68936 0.12905
# Poissons Ratio (z) = 0.67628 0.52619
#
# Static dielectric constant tensor:
#      x y z
#    x 1.595230 0.000000 0.000000 
#    y 0.000000 1.583210 0.000000 
#    z 0.000000 0.000000 1.614530 
# 
# From -- ./inp_files/12826.got.cif
#   From: 2010.05.17/outbox.cif.g08.bks.cpg/sg71_7_cif.got.tgz:12826.got - 2010.06.03 16:22:01.
