data_PCOD9521334
_publ_section_title
;
Structure prediction by ZEFSAII (Michael W. Deem and Ramdas Pophale) SiO2 
 PCOD9521334
Probable space group: I M M M
;
_chemical_formula_sum "Si O2"
_cell_formula_units_Z 96
_cell_length_a 29.549467
_cell_length_b 19.067631
_cell_length_c 8.303461
_cell_angle_alpha 90.000000
_cell_angle_beta 90.000000
_cell_angle_gamma 90.000000
_cell_volume 4678.488224
_symmetry_space_group_name_H-M "I M M M"
_symmetry_group_IT_number 71
_symmetry_cell_setting 'orthorhombic'
loop_
_space_group_symop_operation_xyz
x,y,z
-x,-y,z
x,-y,-z
-x,y,-z
-x,-y,-z
x,y,-z
-x,y,z
x,-y,z
1/2+x,1/2+y,1/2+z
1/2-x,1/2-y,1/2+z
1/2+x,1/2-y,1/2-z
1/2-x,1/2+y,1/2-z
1/2-x,1/2-y,1/2-z
1/2+x,1/2+y,1/2-z
1/2-x,1/2+y,1/2+z
1/2+x,1/2-y,1/2+z
loop_
_atom_site_type_symbol
_atom_site_label
_atom_site_fract_x
_atom_site_fract_y
_atom_site_fract_z
Si Si1 0.701960 0.814893 0.819049
Si Si2 0.353635 0.680453 0.804688
Si Si3 0.949200 0.388959 0.312306
Si Si4 0.050853 0.231262 0.808475
Si Si5 0.858085 0.578185 0.820441
Si Si6 0.722254 0.579150 0.806842
O O1 0.679225 0.744698 0.747935
O O2 0.660937 0.869951 0.811723
O O3 0.741515 0.860784 0.739336
O O4 0.716496 0.797851 0.000000
O O5 0.404423 0.688147 0.739160
O O6 0.326897 0.609772 0.760617
O O7 0.355893 0.685805 0.000000
O O8 0.941282 0.405310 0.500000
O O9 0.946129 0.305229 0.284317
O O10 0.911453 0.422617 0.201949
O O11 0.000000 0.410350 0.270839
O O12 0.000000 0.201911 0.774934
O O13 0.052971 0.245329 0.000000
O O14 0.839555 0.500000 0.803391
O O15 0.846254 0.603867 0.000000
O O16 0.730531 0.500000 0.743599
O O17 0.723595 0.575074 0.000000
#
# Coordination Sequence:
#
# PCOD9521334 Si02
#       6
#    16  16  16  16  16  16
#     4  11  22  36  56  83 112 146 190 236 280 330
#     4  10  21  37  59  87 115 148 190 234 282 333
#     4  10  20  34  52  74 103 140 183 232 284 335
#     4  10  20  34  56  86 116 147 185 230 281 336
#     4  11  23  36  51  73 105 147 191 234 280 330
#     4  10  22  40  60  83 115 152 189 232 283 340
#
# _framework density 20.519449000000002
#
# number of rings (size 3 to 8) (size 9 to 14) (size 15 to 20)
#    0.000    1.667    1.667    3.000    0.000    7.333 
#    0.000    1.667    0.000    0.500    0.000    3.500 
#    0.000    0.000    0.000    0.000    0.000    0.000 
#
# Total GULP energy -267819.213720 kJ/mol
# GULP energy per Si atom -5579.566952 kJ/mol
# Density = 2.047275 g / cm^3
# Si number density = 20.519449 Si / 1000 Ang^3
#
#
#
# Elastic Constant Matrix: (Units=GPa)
#
#
# Indices 1 2 3 4 5 6 
#
# 1 135.7884 54.8175 16.8877 0.0000 0.0000 0.0000
# 2 54.8175 48.3577 16.1253 0.0000 0.0000 0.0000
# 3 16.8877 16.1253 31.6054 0.0000 0.0000 0.0000
# 4 0.0000 0.0000 0.0000 14.6997 0.0000 0.0000
# 5 0.0000 0.0000 0.0000 0.0000 32.3348 0.0000
# 6 0.0000 0.0000 0.0000 0.0000 0.0000-3051.6124
#
#
#
# Elastic Compliance Matrix: (Units=1/GPa)
#
#
# Indices 1 2 3 4 5 6 
#
# 1 0.013592 -0.015648 0.000721 0.000000 0.000000 0.000000
# 2 -0.015648 0.042934 -0.013544 0.000000 0.000000 0.000000
# 3 0.000721 -0.013544 0.038165 0.000000 0.000000 0.000000
# 4 0.000000 0.000000 0.000000 0.068028 0.000000 0.000000
# 5 0.000000 0.000000 0.000000 0.000000 0.030926 0.000000
# 6 0.000000 0.000000 0.000000 0.000000 0.000000 -0.000328
#
#
# Mechanical properties :
#
#
# Convention : Reuss Voigt Hill
#
# Bulk Modulus (GPa) = 26.49061 43.49028 34.99045
# Shear Modulus (GPa) = 19.02286 -592.38751 -286.68233
#
# Velocity S-wave (km/s) = 3.04808 -17.00948 -11.83283
# Velocity P-wave (km/s) = 5.03247 19.09247 13.02299
#
# Compressibility (1/GPa) = 0.03774923
#
# Stress axis : x y z
#
# Youngs Moduli (GPa) = 73.57433 23.29178 26.20201
#
# Poissons Ratio (x) = 0.36446 -0.01890
# Poissons Ratio (y) = 1.15128 0.35488
# Poissons Ratio (z) = -0.05306 0.31546
#
# Static dielectric constant tensor:
#      x y z
#    x 1.783970 0.000000 0.000000 
#    y 0.000000 1.731650 0.000000 
#    z 0.000000 0.000000 1.718460 
# 
# From -- ./inp_files/14825.got.cif
#   From: 2010.05.17/outbox.cif.g08.bks.cpg/sg71_8_cif.got.tgz:14825.got - 2010.06.03 16:22:01.
