data_PCOD9521984
_publ_section_title
;
Structure prediction by ZEFSAII (Michael W. Deem and Ramdas Pophale) SiO2 
 PCOD9521984
Probable space group: I M M M
;
_chemical_formula_sum "Si O2"
_cell_formula_units_Z 56
_cell_length_a 15.963869
_cell_length_b 7.384198
_cell_length_c 20.282476
_cell_angle_alpha 90.000000
_cell_angle_beta 90.000000
_cell_angle_gamma 90.000000
_cell_volume 2390.905766
_symmetry_space_group_name_H-M "I M M M"
_symmetry_group_IT_number 71
_symmetry_cell_setting 'orthorhombic'
loop_
_space_group_symop_operation_xyz
x,y,z
-x,-y,z
x,-y,-z
-x,y,-z
-x,-y,-z
x,y,-z
-x,y,z
x,-y,z
1/2+x,1/2+y,1/2+z
1/2-x,1/2-y,1/2+z
1/2+x,1/2-y,1/2-z
1/2-x,1/2+y,1/2-z
1/2-x,1/2-y,1/2-z
1/2+x,1/2+y,1/2-z
1/2-x,1/2+y,1/2+z
1/2+x,1/2-y,1/2+z
loop_
_atom_site_type_symbol
_atom_site_label
_atom_site_fract_x
_atom_site_fract_y
_atom_site_fract_z
Si Si1 0.593656 0.219018 0.000000
Si Si2 0.000000 0.277942 0.275410
Si Si3 0.337532 0.781723 0.142833
Si Si4 0.500000 0.215882 0.375495
Si Si5 0.316978 0.286880 0.426023
O O1 0.634752 0.266817 0.931374
O O2 0.500000 0.287856 0.000000
O O3 0.591399 0.000000 0.000000
O O4 0.913091 0.217075 0.310382
O O5 0.000000 0.500000 0.278788
O O6 0.000000 0.219895 0.199853
O O7 0.240306 0.719999 0.135879
O O8 0.337451 0.000000 0.152854
O O9 0.414632 0.271323 0.410702
O O10 0.500000 0.000000 0.374054
O O11 0.301388 0.211150 0.500000
O O12 0.296727 0.500000 0.430731
#
# Coordination Sequence:
#
# PCOD9521984 Si02
#       5
#     8   8  16   8  16
#     4   9  12  18  40  75 107 128 152 199 263 314
#     4   9  18  31  48  74 110 143 166 197 251 318
#     4   9  15  26  48  78 107 130 159 208 264 309
#     4  11  24  38  50  70 105 148 183 206 242 304
#     4  10  20  35  57  82 102 126 170 225 268 297
#
# _framework density 23.422084999999999
#
# number of rings (size 3 to 8) (size 9 to 14) (size 15 to 20)
#    0.000    2.429    2.857    0.857    0.000    3.429 
#    0.000    0.000    0.000    1.714    0.000    0.000 
#    0.000    3.429    0.000    0.000    0.000    0.000 
#
# Total GULP energy -156074.493680 kJ/mol
# GULP energy per Si atom -5574.089060 kJ/mol
# Density = 2.336878 g / cm^3
# Si number density = 23.422085 Si / 1000 Ang^3
#
#
#
# Elastic Constant Matrix: (Units=GPa)
#
#
# Indices 1 2 3 4 5 6 
#
# 1 174.0222 -1.2614 37.1333 0.0000 0.0000 0.0000
# 2 -1.2614 78.1093 1.8873 0.0000 0.0000 0.0000
# 3 37.1333 1.8873 85.1982 0.0000 0.0000 0.0000
# 4 0.0000 0.0000 0.0000 100.3387 0.0000 0.0000
# 5 0.0000 0.0000 0.0000 0.0000 54.8247 0.0000
# 6 0.0000 0.0000 0.0000 0.0000 0.0000 -33.9085
#
#
#
# Elastic Compliance Matrix: (Units=1/GPa)
#
#
# Indices 1 2 3 4 5 6 
#
# 1 0.006338 0.000169 -0.002766 0.000000 0.000000 0.000000
# 2 0.000169 0.012814 -0.000358 0.000000 0.000000 0.000000
# 3 -0.002766 -0.000358 0.012951 0.000000 0.000000 0.000000
# 4 0.000000 0.000000 0.000000 0.009966 0.000000 0.000000
# 5 0.000000 0.000000 0.000000 0.000000 0.018240 0.000000
# 6 0.000000 0.000000 0.000000 0.000000 0.000000 -0.029491
#
#
# Mechanical properties :
#
#
# Convention : Reuss Voigt Hill
#
# Bulk Modulus (GPa) = 38.17715 45.87201 42.02458
# Shear Modulus (GPa) = 109.99176 44.22233 77.10705
#
# Velocity S-wave (km/s) = 6.86022 4.34990 5.74388
# Velocity P-wave (km/s) = 8.89299 6.69748 7.87215
#
# Compressibility (1/GPa) = 0.02619368
#
# Stress axis : x y z
#
# Youngs Moduli (GPa) = 157.78215 78.03996 77.21501
#
# Poissons Ratio (x) = -0.01320 0.21358
# Poissons Ratio (y) = -0.02669 0.02761
# Poissons Ratio (z) = 0.43644 0.02791
#
# Static dielectric constant tensor:
#      x y z
#    x 1.997300 0.000000 0.000000 
#    y 0.000000 1.958200 0.000000 
#    z 0.000000 0.000000 1.834910 
# 
# From -- ./inp_files/52619.got.cif
#   From: 2010.05.17/outbox.cif.g08.bks.cpg/sg71_27_cif.got.tgz:52619.got - 2010.06.03 16:22:01.
