data_PCOD9521558
_publ_section_title
;
Structure prediction by ZEFSAII (Michael W. Deem and Ramdas Pophale) SiO2 
 PCOD9521558
Probable space group: I M M M
;
_chemical_formula_sum "Si O2"
_cell_formula_units_Z 80
_cell_length_a 23.927199
_cell_length_b 20.846362
_cell_length_c 7.657162
_cell_angle_alpha 90.000000
_cell_angle_beta 90.000000
_cell_angle_gamma 90.000000
_cell_volume 3819.354518
_symmetry_space_group_name_H-M "I M M M"
_symmetry_group_IT_number 71
_symmetry_cell_setting 'orthorhombic'
loop_
_space_group_symop_operation_xyz
x,y,z
-x,-y,z
x,-y,-z
-x,y,-z
-x,-y,-z
x,y,-z
-x,y,z
x,-y,z
1/2+x,1/2+y,1/2+z
1/2-x,1/2-y,1/2+z
1/2+x,1/2-y,1/2-z
1/2-x,1/2+y,1/2-z
1/2-x,1/2-y,1/2-z
1/2+x,1/2+y,1/2-z
1/2-x,1/2+y,1/2+z
1/2+x,1/2-y,1/2+z
loop_
_atom_site_type_symbol
_atom_site_label
_atom_site_fract_x
_atom_site_fract_y
_atom_site_fract_z
Si Si1 0.936523 0.000000 0.207048
Si Si2 0.625703 0.631481 0.209050
Si Si3 0.564930 0.000000 0.285436
Si Si4 0.246730 0.173974 0.289133
Si Si5 0.862414 0.620228 0.204510
Si Si6 0.936527 0.741716 0.712082
O O1 0.902133 0.063431 0.255172
O O2 0.000000 0.000000 0.281169
O O3 0.941562 0.000000 0.000000
O O4 0.688523 0.643862 0.275436
O O5 0.586718 0.689667 0.271637
O O6 0.628841 0.637695 0.000000
O O7 0.599719 0.062322 0.225380
O O8 0.500000 0.000000 0.229008
O O9 0.563241 0.000000 0.500000
O O10 0.247583 0.169149 0.500000
O O11 0.250000 0.250000 0.250000
O O12 0.301171 0.136182 0.220903
O O13 0.897279 0.685385 0.221866
O O14 0.854289 0.605205 0.000000
O O15 0.935349 0.740302 0.500000
O O16 0.000000 0.731949 0.768966
#
# Coordination Sequence:
#
# PCOD9521558 Si02
#       6
#     8  16   8  16  16  16
#     4  11  25  42  59  85 119 151 190 245 298 341
#     4  10  21  38  60  83 111 153 193 230 285 350
#     4   9  18  33  51  75 111 147 180 221 270 326
#     4  10  20  35  58  86 114 145 185 235 282 334
#     4  10  20  34  56  83 109 145 188 232 281 330
#     4  10  20  34  54  81 111 146 190 234 277 333
#
# _framework density 20.945947
#
# number of rings (size 3 to 8) (size 9 to 14) (size 15 to 20)
#    0.000    2.000    2.000    1.500    0.000    5.200 
#    0.000    3.500    0.000    1.800    0.000    0.000 
#    0.000    0.000    0.000    0.000    0.000    0.000 
#
# Total GULP energy -223402.939602 kJ/mol
# GULP energy per Si atom -5585.073490 kJ/mol
# Density = 2.089827 g / cm^3
# Si number density = 20.945947 Si / 1000 Ang^3
#
#
#
# Elastic Constant Matrix: (Units=GPa)
#
#
# Indices 1 2 3 4 5 6 
#
# 1 162.7715 45.6953 2.4198 0.0000 0.0000 0.0000
# 2 45.6953 124.9298 -12.9821 0.0000 0.0000 0.0000
# 3 2.4198 -12.9821 35.8693 0.0000 0.0000 0.0000
# 4 0.0000 0.0000 0.0000 24.0580 0.0000 0.0000
# 5 0.0000 0.0000 0.0000 0.0000 14.0695 0.0000
# 6 0.0000 0.0000 0.0000 0.0000 0.0000 41.7302
#
#
#
# Elastic Compliance Matrix: (Units=1/GPa)
#
#
# Indices 1 2 3 4 5 6 
#
# 1 0.006917 -0.002679 -0.001436 0.000000 0.000000 0.000000
# 2 -0.002679 0.009355 0.003567 0.000000 0.000000 0.000000
# 3 -0.001436 0.003567 0.029267 0.000000 0.000000 0.000000
# 4 0.000000 0.000000 0.000000 0.041566 0.000000 0.000000
# 5 0.000000 0.000000 0.000000 0.000000 0.071076 0.000000
# 6 0.000000 0.000000 0.000000 0.000000 0.000000 0.023963
#
#
# Mechanical properties :
#
#
# Convention : Reuss Voigt Hill
#
# Bulk Modulus (GPa) = 22.50180 43.75963 33.13071
# Shear Modulus (GPa) = 25.24535 35.20071 30.22303
#
# Velocity S-wave (km/s) = 3.47545 4.10390 3.80268
# Velocity P-wave (km/s) = 5.18374 6.58734 5.92723
#
# Compressibility (1/GPa) = 0.04444090
#
# Stress axis : x y z
#
# Youngs Moduli (GPa) = 144.56913 106.89318 34.16849
#
# Poissons Ratio (x) = 0.28640 0.04908
# Poissons Ratio (y) = 0.38735 -0.12187
# Poissons Ratio (z) = 0.20765 -0.38125
#
# Static dielectric constant tensor:
#      x y z
#    x 1.761650 0.000000 0.000000 
#    y 0.000000 1.727160 0.000000 
#    z 0.000000 0.000000 1.802710 
# 
# From -- ./inp_files/12399.got.cif
#   From: 2010.05.17/outbox.cif.g08.bks.cpg/sg71_7_cif.got.tgz:12399.got - 2010.06.03 16:22:01.
