data_PCOD9521041
_publ_section_title
;
Structure prediction by ZEFSAII (Michael W. Deem and Ramdas Pophale) SiO2 
 PCOD9521041
Probable space group: I M M M
;
_chemical_formula_sum "Si O2"
_cell_formula_units_Z 120
_cell_length_a 27.713262
_cell_length_b 8.701400
_cell_length_c 28.512106
_cell_angle_alpha 90.000000
_cell_angle_beta 90.000000
_cell_angle_gamma 90.000000
_cell_volume 6875.528363
_symmetry_space_group_name_H-M "I M M M"
_symmetry_group_IT_number 71
_symmetry_cell_setting 'orthorhombic'
loop_
_space_group_symop_operation_xyz
x,y,z
-x,-y,z
x,-y,-z
-x,y,-z
-x,-y,-z
x,y,-z
-x,y,z
x,-y,z
1/2+x,1/2+y,1/2+z
1/2-x,1/2-y,1/2+z
1/2+x,1/2-y,1/2-z
1/2-x,1/2+y,1/2-z
1/2-x,1/2-y,1/2-z
1/2+x,1/2+y,1/2-z
1/2-x,1/2+y,1/2+z
1/2+x,1/2-y,1/2+z
loop_
_atom_site_type_symbol
_atom_site_label
_atom_site_fract_x
_atom_site_fract_y
_atom_site_fract_z
Si Si1 0.793259 0.685289 0.445935
Si Si2 0.200236 0.683540 0.268802
Si Si3 0.553651 0.685283 0.189114
Si Si4 0.594112 0.814208 0.387976
Si Si5 0.000000 0.312450 0.054035
Si Si6 0.600576 0.815278 0.280901
Si Si7 0.682719 0.685233 0.554376
Si Si8 0.151034 0.815893 0.359849
O O1 0.802496 0.729262 0.500000
O O2 0.795183 0.500000 0.443346
O O3 0.737880 0.731102 0.434364
O O4 0.830277 0.755345 0.409292
O O5 0.203398 0.500000 0.272684
O O6 0.250000 0.750000 0.250000
O O7 0.155644 0.720930 0.234065
O O8 0.185863 0.752877 0.319003
O O9 0.500000 0.738030 0.175923
O O10 0.553954 0.500000 0.189228
O O11 0.567079 0.741875 0.241184
O O12 0.597093 0.736038 0.154999
O O13 0.548028 0.763384 0.418432
O O14 0.590346 0.764251 0.333843
O O15 0.643012 0.755819 0.411789
O O16 0.594864 0.000000 0.388094
O O17 0.000000 0.500000 0.053807
O O18 0.000000 0.261465 0.000000
O O19 0.594918 0.000000 0.278685
O O20 0.673163 0.728898 0.500000
O O21 0.680464 0.500000 0.556924
O O22 0.152213 0.000000 0.359354
#
# Coordination Sequence:
#
# PCOD9521041 Si02
#       8
#    16  16  16  16   8  16  16  16
#     4   9  19  36  56  79 109 142 174 212 260 312
#     4  10  20  34  50  73 106 140 174 213 260 312
#     4   9  19  36  56  77 104 137 172 213 259 312
#     4  10  20  33  51  74  98 128 169 216 261 306
#     4   9  18  32  49  69  95 129 167 209 262 313
#     4   9  20  34  49  74 103 131 170 216 257 302
#     4   9  19  35  52  72  99 132 169 208 255 309
#     4  10  20  34  54  80 107 137 177 218 260 314
#
# _framework density 17.453203999999999
#
# number of rings (size 3 to 8) (size 9 to 14) (size 15 to 20)
#    0.000    2.600    0.000    2.000    2.800    3.467 
#    0.000    1.667    0.000    1.600    0.000    2.800 
#    0.000    0.000    0.000    0.000    0.000    0.000 
#
# Total GULP energy -334729.195654 kJ/mol
# GULP energy per Si atom -5578.819928 kJ/mol
# Density = 1.741348 g / cm^3
# Si number density = 17.453204 Si / 1000 Ang^3
#
#
#
# Elastic Constant Matrix: (Units=GPa)
#
#
# Indices 1 2 3 4 5 6 
#
# 1 140.2201 29.9663 91.8218 0.0000 0.0000 0.0000
# 2 29.9663 14.2131 28.5063 0.0000 0.0000 0.0000
# 3 91.8218 28.5063 138.2911 0.0000 0.0000 0.0000
# 4 0.0000 0.0000 0.0000 25.0908 0.0000 0.0000
# 5 0.0000 0.0000 0.0000 0.0000 14.7973 0.0000
# 6 0.0000 0.0000 0.0000 0.0000 0.0000 20.1297
#
#
#
# Elastic Compliance Matrix: (Units=1/GPa)
#
#
# Indices 1 2 3 4 5 6 
#
# 1 0.015471 -0.020485 -0.006050 0.000000 0.000000 0.000000
# 2 -0.020485 0.147069 -0.016714 0.000000 0.000000 0.000000
# 3 -0.006050 -0.016714 0.014693 0.000000 0.000000 0.000000
# 4 0.000000 0.000000 0.000000 0.039855 0.000000 0.000000
# 5 0.000000 0.000000 0.000000 0.000000 0.067580 0.000000
# 6 0.000000 0.000000 0.000000 0.000000 0.000000 0.049678
#
#
# Mechanical properties :
#
#
# Convention : Reuss Voigt Hill
#
# Bulk Modulus (GPa) = 11.02101 65.92367 38.47234
# Shear Modulus (GPa) = 11.08426 21.49888 16.29157
#
# Velocity S-wave (km/s) = 2.52282 3.51351 3.05854
# Velocity P-wave (km/s) = 3.84896 7.36976 5.87911
#
# Compressibility (1/GPa) = 0.09073580
#
# Stress axis : x y z
#
# Youngs Moduli (GPa) = 64.63659 6.79952 68.05757
#
# Poissons Ratio (x) = 0.13929 0.41174
# Poissons Ratio (y) = 1.32406 1.13754
# Poissons Ratio (z) = 0.39104 0.11365
#
# Static dielectric constant tensor:
#      x y z
#    x 1.591310 0.000000 0.000000 
#    y 0.000000 1.590490 0.000000 
#    z 0.000000 0.000000 1.574380 
# 
# From -- ./inp_files/67134.got.cif
#   From: 2010.05.17/outbox.cif.g08.bks.cpg/sg71_34_cif.got.tgz:67134.got - 2010.06.03 16:22:01.
