data_PCOD9521118
_publ_section_title
;
Structure prediction by ZEFSAII (Michael W. Deem and Ramdas Pophale) SiO2 
 PCOD9521118
Probable space group: I M M M
;
_chemical_formula_sum "Si O2"
_cell_formula_units_Z 72
_cell_length_a 20.748681
_cell_length_b 8.318635
_cell_length_c 22.207726
_cell_angle_alpha 90.000000
_cell_angle_beta 90.000000
_cell_angle_gamma 90.000000
_cell_volume 3833.069141
_symmetry_space_group_name_H-M "I M M M"
_symmetry_group_IT_number 71
_symmetry_cell_setting 'orthorhombic'
loop_
_space_group_symop_operation_xyz
x,y,z
-x,-y,z
x,-y,-z
-x,y,-z
-x,-y,-z
x,y,-z
-x,y,z
x,-y,z
1/2+x,1/2+y,1/2+z
1/2-x,1/2-y,1/2+z
1/2+x,1/2-y,1/2-z
1/2-x,1/2+y,1/2-z
1/2-x,1/2-y,1/2-z
1/2+x,1/2+y,1/2-z
1/2-x,1/2+y,1/2+z
1/2+x,1/2-y,1/2+z
loop_
_atom_site_type_symbol
_atom_site_label
_atom_site_fract_x
_atom_site_fract_y
_atom_site_fract_z
Si Si1 0.000000 0.303271 0.151366
Si Si2 0.381444 0.194065 0.568924
Si Si3 0.384426 0.692169 0.127608
Si Si4 0.236631 0.691289 0.430154
Si Si5 0.923990 0.816973 0.500000
Si Si6 0.500000 0.191748 0.789034
O O1 0.063685 0.252462 0.115115
O O2 0.000000 0.248436 0.220300
O O3 0.000000 0.500000 0.151199
O O4 0.399664 0.235299 0.500000
O O5 0.310969 0.264984 0.580823
O O6 0.376624 0.000000 0.572084
O O7 0.391955 0.500000 0.128010
O O8 0.308971 0.734419 0.121715
O O9 0.406283 0.762112 0.062710
O O10 0.434570 0.755126 0.176811
O O11 0.222257 0.747981 0.500000
O O12 0.228529 0.500000 0.429668
O O13 0.000000 0.832150 0.500000
O O14 0.896742 0.000000 0.500000
O O15 0.500000 0.000000 0.788085
#
# Coordination Sequence:
#
# PCOD9521118 Si02
#       6
#     8  16  16  16   8   8
#     4   9  19  37  59  81 108 140 178 224 268 317
#     4   9  17  33  60  88 108 134 175 220 267 322
#     4  11  20  34  54  77 106 144 188 225 260 308
#     4  10  20  33  51  82 118 143 168 215 278 330
#     4   9  16  28  48  74 100 129 172 227 264 294
#     4  11  23  37  52  76 111 147 181 222 272 316
#
# _framework density 18.783904
#
# number of rings (size 3 to 8) (size 9 to 14) (size 15 to 20)
#    0.000    2.111    2.222    2.000    0.000    2.222 
#    0.000    4.444    0.000    2.667    0.000    0.000 
#    0.000    0.000    0.000    0.000    0.000    0.000 
#
# Total GULP energy -200592.360913 kJ/mol
# GULP energy per Si atom -5572.010025 kJ/mol
# Density = 1.874115 g / cm^3
# Si number density = 18.783904 Si / 1000 Ang^3
#
#
#
# Elastic Constant Matrix: (Units=GPa)
#
#
# Indices 1 2 3 4 5 6 
#
# 1 137.0421 27.4753 90.5089 0.0000 0.0000 0.0000
# 2 27.4753 35.8244 27.9578 0.0000 0.0000 0.0000
# 3 90.5089 27.9578 133.2757 0.0000 0.0000 0.0000
# 4 0.0000 0.0000 0.0000 15.4745 0.0000 0.0000
# 5 0.0000 0.0000 0.0000 0.0000 5.1196 0.0000
# 6 0.0000 0.0000 0.0000 0.0000 0.0000 25.7244
#
#
#
# Elastic Compliance Matrix: (Units=1/GPa)
#
#
# Indices 1 2 3 4 5 6 
#
# 1 0.013667 -0.003872 -0.008469 0.000000 0.000000 0.000000
# 2 -0.003872 0.034476 -0.004602 0.000000 0.000000 0.000000
# 3 -0.008469 -0.004602 0.014220 0.000000 0.000000 0.000000
# 4 0.000000 0.000000 0.000000 0.064622 0.000000 0.000000
# 5 0.000000 0.000000 0.000000 0.000000 0.195329 0.000000
# 6 0.000000 0.000000 0.000000 0.000000 0.000000 0.038874
#
#
# Mechanical properties :
#
#
# Convention : Reuss Voigt Hill
#
# Bulk Modulus (GPa) = 35.11840 66.44736 50.78288
# Shear Modulus (GPa) = 12.35895 19.94371 16.15133
#
# Velocity S-wave (km/s) = 2.56784 3.26198 2.93550
# Velocity P-wave (km/s) = 5.24675 7.04548 6.21157
#
# Compressibility (1/GPa) = 0.02847510
#
# Stress axis : x y z
#
# Youngs Moduli (GPa) = 73.17128 29.00610 70.32379
#
# Poissons Ratio (x) = 0.11232 0.59556
# Poissons Ratio (y) = 0.28334 0.32365
# Poissons Ratio (z) = 0.61967 0.13350
#
# Static dielectric constant tensor:
#      x y z
#    x 1.691300 0.000000 0.000000 
#    y 0.000000 1.670940 0.000000 
#    z 0.000000 0.000000 1.659580 
# 
# From -- ./inp_files/54728.got.cif
#   From: 2010.05.17/outbox.cif.g08.bks.cpg/sg71_28_cif.got.tgz:54728.got - 2010.06.03 16:22:01.
