data_PCOD9521623
_publ_section_title
;
Structure prediction by ZEFSAII (Michael W. Deem and Ramdas Pophale) SiO2 
 PCOD9521623
Probable space group: I M M M
;
_chemical_formula_sum "Si O2"
_cell_formula_units_Z 80
_cell_length_a 9.599123
_cell_length_b 23.112405
_cell_length_c 20.033986
_cell_angle_alpha 90.000000
_cell_angle_beta 90.000000
_cell_angle_gamma 90.000000
_cell_volume 4444.716462
_symmetry_space_group_name_H-M "I M M M"
_symmetry_group_IT_number 71
_symmetry_cell_setting 'orthorhombic'
loop_
_space_group_symop_operation_xyz
x,y,z
-x,-y,z
x,-y,-z
-x,y,-z
-x,-y,-z
x,y,-z
-x,y,z
x,-y,z
1/2+x,1/2+y,1/2+z
1/2-x,1/2-y,1/2+z
1/2+x,1/2-y,1/2-z
1/2-x,1/2+y,1/2-z
1/2-x,1/2-y,1/2-z
1/2+x,1/2+y,1/2-z
1/2-x,1/2+y,1/2+z
1/2+x,1/2-y,1/2+z
loop_
_atom_site_type_symbol
_atom_site_label
_atom_site_fract_x
_atom_site_fract_y
_atom_site_fract_z
Si Si1 0.839083 0.256974 0.317257
Si Si2 0.843571 0.068918 0.071821
Si Si3 0.832713 0.679920 0.079351
Si Si4 0.168716 0.566201 0.159546
Si Si5 0.342373 0.105814 0.807513
O O1 0.750000 0.250000 0.250000
O O2 0.757089 0.224965 0.376926
O O3 0.846034 0.326131 0.322717
O O4 0.000000 0.235888 0.311841
O O5 0.752539 0.080667 0.135432
O O6 0.000000 0.092704 0.079711
O O7 0.854118 0.000000 0.067232
O O8 0.787402 0.090254 0.000000
O O9 0.793989 0.615329 0.105590
O O10 0.000000 0.687896 0.092098
O O11 0.810060 0.685471 0.000000
O O12 0.218549 0.500000 0.149281
O O13 0.208578 0.590251 0.232951
O O14 0.000000 0.563912 0.158640
O O15 0.500000 0.082871 0.812026
#
# Coordination Sequence:
#
# PCOD9521623 Si02
#       5
#    16  16  16  16  16
#     4  11  22  38  60  83 112 147 187 233 281 335
#     4   9  19  35  52  74 109 148 183 223 272 326
#     4  10  21  38  59  85 118 153 191 233 281 338
#     4   9  17  32  55  83 114 146 185 233 280 328
#     4  10  20  34  55  81 109 142 183 231 278 331
#
# _framework density 17.998899999999999
#
# number of rings (size 3 to 8) (size 9 to 14) (size 15 to 20)
#    0.000    2.200    2.000    1.800    0.000    4.800 
#    0.000    7.000    0.000    0.600    0.000    1.400 
#    0.000    0.000    0.000    0.000    0.000    0.000 
#
# Total GULP energy -222787.322180 kJ/mol
# GULP energy per Si atom -5569.683055 kJ/mol
# Density = 1.795793 g / cm^3
# Si number density = 17.998900 Si / 1000 Ang^3
#
#
#
# Elastic Constant Matrix: (Units=GPa)
#
#
# Indices 1 2 3 4 5 6 
#
# 1 73.4229 28.1396 66.8281 0.0000 0.0000 0.0000
# 2 28.1396 71.2127 35.0038 0.0000 -0.0001 0.0000
# 3 66.8281 35.0038 140.2107 0.0000 -0.0005 0.0000
# 4 0.0000 0.0000 0.0000 32.5335 -0.0003 0.0000
# 5 0.0000 -0.0001 -0.0005 -0.0003 1150.6783 0.0000
# 6 0.0000 0.0000 0.0000 0.0000 0.0000 25.9111
#
#
#
# Elastic Compliance Matrix: (Units=1/GPa)
#
#
# Indices 1 2 3 4 5 6 
#
# 1 0.025336 -0.004646 -0.010916 0.000000 0.000000 0.000000
# 2 -0.004646 0.016859 -0.001994 0.000000 0.000000 0.000000
# 3 -0.010916 -0.001994 0.012833 0.000000 0.000000 0.000000
# 4 0.000000 0.000000 0.000000 0.030738 0.000000 0.000000
# 5 0.000000 0.000000 0.000000 0.000000 0.000869 0.000000
# 6 0.000000 0.000000 0.000000 0.000000 0.000000 0.038594
#
#
# Mechanical properties :
#
#
# Convention : Reuss Voigt Hill
#
# Bulk Modulus (GPa) = 50.21370 60.53215 55.37292
# Shear Modulus (GPa) = 29.94417 252.14957 141.04687
#
# Velocity S-wave (km/s) = 4.08323 11.84887 8.86196
# Velocity P-wave (km/s) = 7.08443 14.86265 11.64233
#
# Compressibility (1/GPa) = 0.01991488
#
# Stress axis : x y z
#
# Youngs Moduli (GPa) = 39.47018 59.31701 77.92541
#
# Poissons Ratio (x) = 0.27557 0.85062
# Poissons Ratio (y) = 0.18337 0.15542
# Poissons Ratio (z) = 0.43085 0.11831
#
# Static dielectric constant tensor:
#      x y z
#    x 1.627850 0.000000 0.000000 
#    y 0.000000 1.564830 0.000000 
#    z 0.000000 0.000000 1.640100 
# 
# From -- ./inp_files/8376.got.cif
#   From: 2010.05.17/outbox.cif.g08.bks.cpg/sg71_5_cif.got.tgz:8376.got - 2010.06.03 16:22:01.
