data_PCOD9521986
_publ_section_title
;
Structure prediction by ZEFSAII (Michael W. Deem and Ramdas Pophale) SiO2 
 PCOD9521986
Probable space group: I M M M
;
_chemical_formula_sum "Si O2"
_cell_formula_units_Z 64
_cell_length_a 7.681824
_cell_length_b 18.548838
_cell_length_c 21.169710
_cell_angle_alpha 90.000000
_cell_angle_beta 90.000000
_cell_angle_gamma 90.000000
_cell_volume 3016.448880
_symmetry_space_group_name_H-M "I M M M"
_symmetry_group_IT_number 71
_symmetry_cell_setting 'orthorhombic'
loop_
_space_group_symop_operation_xyz
x,y,z
-x,-y,z
x,-y,-z
-x,y,-z
-x,-y,-z
x,y,-z
-x,y,z
x,-y,z
1/2+x,1/2+y,1/2+z
1/2-x,1/2-y,1/2+z
1/2+x,1/2-y,1/2-z
1/2-x,1/2+y,1/2-z
1/2-x,1/2-y,1/2-z
1/2+x,1/2+y,1/2-z
1/2-x,1/2+y,1/2+z
1/2+x,1/2-y,1/2+z
loop_
_atom_site_type_symbol
_atom_site_label
_atom_site_fract_x
_atom_site_fract_y
_atom_site_fract_z
Si Si1 0.792053 0.082149 0.000000
Si Si2 0.290141 0.917868 0.749503
Si Si3 0.292035 0.166859 0.872344
Si Si4 0.708979 0.330317 0.876884
Si Si5 0.713396 0.583089 0.000000
O O1 0.737760 0.124652 0.062730
O O2 0.000000 0.078777 0.000000
O O3 0.723676 0.000000 0.000000
O O4 0.500000 0.921335 0.753874
O O5 0.223783 0.877728 0.812317
O O6 0.246965 0.872399 0.687438
O O7 0.225108 0.000000 0.745179
O O8 0.500000 0.172530 0.863618
O O9 0.222776 0.248485 0.875154
O O10 0.500000 0.326074 0.883542
O O11 0.772495 0.374993 0.937418
O O12 0.769061 0.500000 0.000000
O O13 0.500000 0.582795 0.000000
#
# Coordination Sequence:
#
# PCOD9521986 Si02
#       5
#     8  16  16  16   8
#     4  11  24  39  57  85 116 145 184 233 278 322
#     4  10  21  36  54  79 111 146 184 227 279 336
#     4  10  21  38  59  81 109 148 189 227 274 335
#     4  10  20  35  57  82 107 141 186 231 275 327
#     4   9  17  30  49  75 106 137 172 218 272 327
#
# _framework density 21.217002000000001
#
# number of rings (size 3 to 8) (size 9 to 14) (size 15 to 20)
#    0.000    2.000    0.000    3.375    0.000    7.500 
#    0.000    0.625    0.000    2.250    0.000    0.000 
#    0.000    0.000    0.000    0.000    0.000    0.000 
#
# Total GULP energy -178889.223237 kJ/mol
# GULP energy per Si atom -5590.288226 kJ/mol
# Density = 2.116871 g / cm^3
# Si number density = 21.217002 Si / 1000 Ang^3
#
#
#
# Elastic Constant Matrix: (Units=GPa)
#
#
# Indices 1 2 3 4 5 6 
#
# 1 32.6081 3.4236 -12.5887 0.0000 0.0000 0.0000
# 2 3.4236 265.9615 148.3871 0.0000 0.0000 0.0000
# 3 -12.5887 148.3871 232.1874 0.0000 0.0000 0.0000
# 4 0.0000 0.0000 0.0000 20.4548 0.0000 0.0000
# 5 0.0000 0.0000 0.0000 0.0000 29.2481 0.0000
# 6 0.0000 0.0000 0.0000 0.0000 0.0000 -84.7458
#
#
#
# Elastic Compliance Matrix: (Units=1/GPa)
#
#
# Indices 1 2 3 4 5 6 
#
# 1 0.032096 -0.002151 0.003115 0.000000 0.000000 0.000000
# 2 -0.002151 0.005988 -0.003943 0.000000 0.000000 0.000000
# 3 0.003115 -0.003943 0.006996 0.000000 0.000000 0.000000
# 4 0.000000 0.000000 0.000000 0.048888 0.000000 0.000000
# 5 0.000000 0.000000 0.000000 0.000000 0.034190 0.000000
# 6 0.000000 0.000000 0.000000 0.000000 0.000000 -0.011800
#
#
# Mechanical properties :
#
#
# Convention : Reuss Voigt Hill
#
# Bulk Modulus (GPa) = 25.56222 89.91122 57.73672
# Shear Modulus (GPa) = 36.93946 19.09375 28.01661
#
# Velocity S-wave (km/s) = 4.17709 3.00313 3.63778
# Velocity P-wave (km/s) = 5.94460 7.38201 6.70195
#
# Compressibility (1/GPa) = 0.03912023
#
# Stress axis : x y z
#
# Youngs Moduli (GPa) = 31.15694 167.00978 142.94276
#
# Poissons Ratio (x) = 0.35924 -0.44524
# Poissons Ratio (y) = 0.06702 0.56366
# Poissons Ratio (z) = -0.09705 0.65856
#
# Static dielectric constant tensor:
#      x y z
#    x 1.786430 0.000000 0.000000 
#    y 0.000000 1.750080 0.000000 
#    z 0.000000 0.000000 1.707990 
# 
# From -- ./inp_files/41863.got.cif
#   From: 2010.05.17/outbox.cif.g08.bks.cpg/sg71_21_cif.got.tgz:41863.got - 2010.06.03 16:22:01.
