data_PCOD9521651
_publ_section_title
;
Structure prediction by ZEFSAII (Michael W. Deem and Ramdas Pophale) SiO2 
 PCOD9521651
Probable space group: I M M M
;
_chemical_formula_sum "Si O2"
_cell_formula_units_Z 82
_cell_length_a 7.716455
_cell_length_b 21.439766
_cell_length_c 23.585787
_cell_angle_alpha 90.000000
_cell_angle_beta 90.000000
_cell_angle_gamma 90.000000
_cell_volume 3902.008769
_symmetry_space_group_name_H-M "I M M M"
_symmetry_group_IT_number 71
_symmetry_cell_setting 'orthorhombic'
loop_
_space_group_symop_operation_xyz
x,y,z
-x,-y,z
x,-y,-z
-x,y,-z
-x,-y,-z
x,y,-z
-x,y,z
x,-y,z
1/2+x,1/2+y,1/2+z
1/2-x,1/2-y,1/2+z
1/2+x,1/2-y,1/2-z
1/2-x,1/2+y,1/2-z
1/2-x,1/2-y,1/2-z
1/2+x,1/2+y,1/2-z
1/2-x,1/2+y,1/2+z
1/2+x,1/2-y,1/2+z
loop_
_atom_site_type_symbol
_atom_site_label
_atom_site_fract_x
_atom_site_fract_y
_atom_site_fract_z
Si Si1 0.792047 0.120389 0.875799
Si Si2 0.211121 0.630881 0.119951
Si Si3 0.807038 0.102297 0.500000
Si Si4 0.708284 0.746895 0.683950
Si Si5 0.793682 0.428171 0.500000
Si Si6 0.790242 0.000000 0.194455
Si Si7 0.793300 0.500000 0.172675
Si Si8 0.500000 0.000000 0.500000
O O1 0.726172 0.185350 0.849047
O O2 0.000000 0.121206 0.869759
O O3 0.727659 0.061600 0.838602
O O4 0.756621 0.106862 0.941925
O O5 0.280301 0.640474 0.057130
O O6 0.270620 0.688313 0.157595
O O7 0.271475 0.563661 0.143753
O O8 0.000000 0.629485 0.119147
O O9 0.000000 0.075091 0.500000
O O10 0.652283 0.052982 0.500000
O O11 0.500000 0.746153 0.678150
O O12 0.750000 0.750000 0.750000
O O13 0.723912 0.500000 0.500000
O O14 0.000000 0.432474 0.500000
O O15 0.739055 0.000000 0.260266
O O16 0.000000 0.000000 0.192508
O O17 0.000000 0.500000 0.162838
#
# Coordination Sequence:
#
# PCOD9521651 Si02
#       8
#    16  16   8  16   8   8   8   2
#     4  10  21  38  60  86 119 164 206 248 311 384
#     4  10  21  40  61  86 127 169 209 268 324 382
#     4  12  25  40  68  98 125 175 218 264 330 389
#     4  10  22  39  62  90 124 169 212 257 323 381
#     4  11  23  38  59  91 121 153 199 259 318 370
#     4  10  20  34  55  82 116 153 200 263 313 364
#     4  10  21  34  57  83 112 158 204 250 314 370
#     4  12  22  44  64  94 140 164 206 270 324 384
#
# _framework density 21.014814999999999
#
# number of rings (size 3 to 8) (size 9 to 14) (size 15 to 20)
#    0.000    1.659    1.951    2.195    1.366    4.293 
#    0.000    3.902    0.000    0.000    0.000    0.000 
#    0.000    0.000    0.000    0.000    0.000    0.000 
#
# Total GULP energy -228806.918400 kJ/mol
# GULP energy per Si atom -5580.656546 kJ/mol
# Density = 2.096698 g / cm^3
# Si number density = 21.014815 Si / 1000 Ang^3
#
#
#
# Elastic Constant Matrix: (Units=GPa)
#
#
# Indices 1 2 3 4 5 6 
#
# 1 58.3475 19.1624 -7.7175 0.0000 0.0000 0.0000
# 2 19.1624 198.5679 118.8983 -0.0001 0.0000 0.0000
# 3 -7.7175 118.8983 205.1965 0.0000 0.0000 0.0000
# 4 0.0000 -0.0001 0.0000 1353.1924 0.0000 0.0000
# 5 0.0000 0.0000 0.0000 0.0000 74.4209 0.0000
# 6 0.0000 0.0000 0.0000 0.0000 0.0000 1.8421
#
#
#
# Elastic Compliance Matrix: (Units=1/GPa)
#
#
# Indices 1 2 3 4 5 6 
#
# 1 0.018605 -0.003391 0.002665 0.000000 0.000000 0.000000
# 2 -0.003391 0.008330 -0.004954 0.000000 0.000000 0.000000
# 3 0.002665 -0.004954 0.007844 0.000000 0.000000 0.000000
# 4 0.000000 0.000000 0.000000 0.000739 0.000000 0.000000
# 5 0.000000 0.000000 0.000000 0.000000 0.013437 0.000000
# 6 0.000000 0.000000 0.000000 0.000000 0.000000 0.542862
#
#
# Mechanical properties :
#
#
# Convention : Reuss Voigt Hill
#
# Bulk Modulus (GPa) = 42.70256 80.31092 61.50674
# Shear Modulus (GPa) = 8.18353 308.00898 158.09626
#
# Velocity S-wave (km/s) = 1.97551 12.11964 8.68298
# Velocity P-wave (km/s) = 5.05646 15.30186 11.39550
#
# Compressibility (1/GPa) = 0.02341780
#
# Stress axis : x y z
#
# Youngs Moduli (GPa) = 53.74965 120.05271 127.48356
#
# Poissons Ratio (x) = 0.40709 -0.33968
# Poissons Ratio (y) = 0.18226 0.63156
# Poissons Ratio (z) = -0.14322 0.59475
#
# Static dielectric constant tensor:
#      x y z
#    x 1.762320 0.000000 0.000000 
#    y 0.000000 1.749430 0.000000 
#    z 0.000000 0.000000 1.718020 
# 
# From -- ./inp_files/57504.got.cif
#   From: 2010.05.17/outbox.cif.g08.bks.cpg/sg71_29_cif.got.tgz:57504.got - 2010.06.03 16:22:01.
