data_PCOD9521814
_publ_section_title
;
Structure prediction by ZEFSAII (Michael W. Deem and Ramdas Pophale) SiO2 
 PCOD9521814
Probable space group: I M M M
;
_chemical_formula_sum "Si O2"
_cell_formula_units_Z 88
_cell_length_a 28.386254
_cell_length_b 8.949461
_cell_length_c 19.586070
_cell_angle_alpha 90.000000
_cell_angle_beta 90.000000
_cell_angle_gamma 90.000000
_cell_volume 4975.677992
_symmetry_space_group_name_H-M "I M M M"
_symmetry_group_IT_number 71
_symmetry_cell_setting 'orthorhombic'
loop_
_space_group_symop_operation_xyz
x,y,z
-x,-y,z
x,-y,-z
-x,y,-z
-x,-y,-z
x,y,-z
-x,y,z
x,-y,z
1/2+x,1/2+y,1/2+z
1/2-x,1/2-y,1/2+z
1/2+x,1/2-y,1/2-z
1/2-x,1/2+y,1/2-z
1/2-x,1/2-y,1/2-z
1/2+x,1/2+y,1/2-z
1/2-x,1/2+y,1/2+z
1/2+x,1/2-y,1/2+z
loop_
_atom_site_type_symbol
_atom_site_label
_atom_site_fract_x
_atom_site_fract_y
_atom_site_fract_z
Si Si1 0.944750 0.819989 0.192211
Si Si2 0.315246 0.319942 0.919718
Si Si3 0.500000 0.317559 0.078338
Si Si4 0.092297 0.817927 0.338440
Si Si5 0.119266 0.321558 0.920148
Si Si6 0.717165 0.671404 0.582932
O O1 0.916839 0.772698 0.260516
O O2 0.921303 0.746185 0.126622
O O3 0.000000 0.783027 0.199573
O O4 0.941409 0.000000 0.186760
O O5 0.311619 0.500000 0.916098
O O6 0.359237 0.269925 0.873808
O O7 0.265923 0.249067 0.896665
O O8 0.323378 0.282511 0.000000
O O9 0.500000 0.500000 0.078932
O O10 0.452857 0.269908 0.117272
O O11 0.500000 0.269473 0.000000
O O12 0.092488 0.000000 0.339374
O O13 0.119838 0.500000 0.915593
O O14 0.169831 0.257230 0.896675
O O15 0.112827 0.280481 0.000000
O O16 0.717482 0.672988 0.500000
O O17 0.715299 0.500000 0.605820
#
# Coordination Sequence:
#
# PCOD9521814 Si02
#       6
#    16  16   8  16  16  16
#     4  10  20  35  54  75 104 140 173 209 255 305
#     4   9  16  27  47  76 108 140 174 212 252 293
#     4   9  14  22  42  72 104 137 176 218 253 287
#     4   9  16  28  45  71 106 141 175 211 252 295
#     4  10  21  37  57  79 101 126 163 213 263 313
#     4   9  17  31  52  77 104 133 166 207 257 310
#
# _framework density 17.686032999999998
#
# number of rings (size 3 to 8) (size 9 to 14) (size 15 to 20)
#    0.000    2.636    0.909    1.636    0.000    6.182 
#    0.000    3.636    0.000    0.000    0.000    0.000 
#    0.000    4.364    0.000    0.000    0.000    0.000 
#
# Total GULP energy -245329.582153 kJ/mol
# GULP energy per Si atom -5575.672322 kJ/mol
# Density = 1.764578 g / cm^3
# Si number density = 17.686033 Si / 1000 Ang^3
#
#
#
# Elastic Constant Matrix: (Units=GPa)
#
#
# Indices 1 2 3 4 5 6 
#
# 1 99.0100 35.2219 55.8635 0.0000 0.0000 0.0000
# 2 35.2219 25.0298 31.3309 0.0000 0.0000 0.0000
# 3 55.8635 31.3309 88.2880 0.0000 0.0000 0.0000
# 4 0.0000 0.0000 0.0000 10.7681 0.0000 0.0000
# 5 0.0000 0.0000 0.0000 0.0000 -3.8046 0.0000
# 6 0.0000 0.0000 0.0000 0.0000 0.0000 23.2540
#
#
#
# Elastic Compliance Matrix: (Units=1/GPa)
#
#
# Indices 1 2 3 4 5 6 
#
# 1 0.021450 -0.023742 -0.005147 0.000000 0.000000 0.000000
# 2 -0.023742 0.098162 -0.019813 0.000000 0.000000 0.000000
# 3 -0.005147 -0.019813 0.021614 0.000000 0.000000 0.000000
# 4 0.000000 0.000000 0.000000 0.092867 0.000000 0.000000
# 5 0.000000 0.000000 0.000000 0.000000 -0.262843 0.000000
# 6 0.000000 0.000000 0.000000 0.000000 0.000000 0.043003
#
#
# Mechanical properties :
#
#
# Convention : Reuss Voigt Hill
#
# Bulk Modulus (GPa) = 22.81870 50.79561 36.80716
# Shear Modulus (GPa) = 39.59960 12.03761 25.81861
#
# Velocity S-wave (km/s) = 4.73698 2.61172 3.82492
# Velocity P-wave (km/s) = 6.54589 6.15450 6.35321
#
# Compressibility (1/GPa) = 0.04382370
#
# Stress axis : x y z
#
# Youngs Moduli (GPa) = 46.62025 10.18724 46.26574
#
# Poissons Ratio (x) = 0.24186 0.23813
# Poissons Ratio (y) = 1.10684 0.91665
# Poissons Ratio (z) = 0.23996 0.20184
#
# Static dielectric constant tensor:
#      x y z
#    x 1.585860 0.000000 0.000000 
#    y 0.000000 1.597170 0.000000 
#    z 0.000000 0.000000 1.596860 
# 
# From -- ./inp_files/10451.got.cif
#   From: 2010.05.17/outbox.cif.g08.bks.cpg/sg71_6_cif.got.tgz:10451.got - 2010.06.03 16:22:01.
