data_PCOD9521541
_publ_section_title
;
Structure prediction by ZEFSAII (Michael W. Deem and Ramdas Pophale) SiO2 
 PCOD9521541
Probable space group: I M M M
;
_chemical_formula_sum "Si O2"
_cell_formula_units_Z 112
_cell_length_a 14.479167
_cell_length_b 26.001721
_cell_length_c 15.645294
_cell_angle_alpha 90.000000
_cell_angle_beta 90.000000
_cell_angle_gamma 90.000000
_cell_volume 5890.191299
_symmetry_space_group_name_H-M "I M M M"
_symmetry_group_IT_number 71
_symmetry_cell_setting 'orthorhombic'
loop_
_space_group_symop_operation_xyz
x,y,z
-x,-y,z
x,-y,-z
-x,y,-z
-x,-y,-z
x,y,-z
-x,y,z
x,-y,z
1/2+x,1/2+y,1/2+z
1/2-x,1/2-y,1/2+z
1/2+x,1/2-y,1/2-z
1/2-x,1/2+y,1/2-z
1/2-x,1/2-y,1/2-z
1/2+x,1/2+y,1/2-z
1/2-x,1/2+y,1/2+z
1/2+x,1/2-y,1/2+z
loop_
_atom_site_type_symbol
_atom_site_label
_atom_site_fract_x
_atom_site_fract_y
_atom_site_fract_z
Si Si1 0.611167 0.903594 0.601390
Si Si2 0.599583 0.213367 0.599993
Si Si3 0.395076 0.558994 0.222576
Si Si4 0.891921 0.845433 0.403011
Si Si5 0.194005 0.441759 0.275449
Si Si6 0.609930 0.856215 0.100742
Si Si7 0.279518 0.245300 0.847404
O O1 0.636776 0.911204 0.500000
O O2 0.500000 0.912610 0.606028
O O3 0.626730 0.843935 0.629364
O O4 0.663720 0.934537 0.675583
O O5 0.587903 0.205236 0.500000
O O6 0.500000 0.227763 0.638456
O O7 0.679752 0.254144 0.608664
O O8 0.500000 0.565118 0.258202
O O9 0.390395 0.500000 0.189088
O O10 0.382706 0.603190 0.152223
O O11 0.305192 0.564820 0.281780
O O12 0.864427 0.856757 0.500000
O O13 0.833521 0.797033 0.372141
O O14 0.000000 0.830882 0.401064
O O15 0.170208 0.500000 0.300103
O O16 0.144337 0.401134 0.336517
O O17 0.500000 0.849909 0.110139
O O18 0.660772 0.803850 0.128742
O O19 0.629167 0.866278 0.000000
O O20 0.250000 0.250000 0.750000
#
# Coordination Sequence:
#
# PCOD9521541 Si02
#       7
#    16  16  16  16  16  16  16
#     4   9  18  33  54  84 123 160 192 235 297 365
#     4   9  18  33  53  77 108 146 182 215 259 324
#     4   9  19  36  57  84 119 154 188 231 283 339
#     4  10  20  34  54  80 111 149 191 231 276 340
#     4  11  23  39  61  86 112 150 201 251 301 360
#     4  11  25  44  64  87 118 155 197 249 305 354
#     4  12  23  35  56  83 113 148 185 234 291 348
#
# _framework density 19.014662999999999
#
# number of rings (size 3 to 8) (size 9 to 14) (size 15 to 20)
#    0.000    1.857    0.000    5.571    0.000    7.143 
#    0.000    5.000    0.000    1.286    0.000    2.000 
#    0.000    0.000    0.000    0.000    0.000    0.000 
#
# Total GULP energy -312258.236919 kJ/mol
# GULP energy per Si atom -5576.039945 kJ/mol
# Density = 1.897138 g / cm^3
# Si number density = 19.014663 Si / 1000 Ang^3
#
#
#
# Elastic Constant Matrix: (Units=GPa)
#
#
# Indices 1 2 3 4 5 6 
#
# 1 92.2955 77.4480 38.5756 0.0000 0.0000 0.0000
# 2 77.4480 99.3369 39.0562 0.0000 0.0000 0.0000
# 3 38.5756 39.0562 67.6545 0.0000 0.0000 0.0000
# 4 0.0000 0.0000 0.0000 -4.1522 0.0000 0.0000
# 5 0.0000 0.0000 0.0000 0.0000 24.0122 0.0000
# 6 0.0000 0.0000 0.0000 0.0000 0.0000 18.8037
#
#
#
# Elastic Compliance Matrix: (Units=1/GPa)
#
#
# Indices 1 2 3 4 5 6 
#
# 1 0.032626 -0.023444 -0.005069 0.000000 0.000000 0.000000
# 2 -0.023444 0.029868 -0.003875 0.000000 0.000000 0.000000
# 3 -0.005069 -0.003875 0.019908 0.000000 0.000000 0.000000
# 4 0.000000 0.000000 0.000000 -0.240837 0.000000 0.000000
# 5 0.000000 0.000000 0.000000 0.000000 0.041645 0.000000
# 6 0.000000 0.000000 0.000000 0.000000 0.000000 0.053181
#
#
# Mechanical properties :
#
#
# Convention : Reuss Voigt Hill
#
# Bulk Modulus (GPa) = 56.73294 63.27182 60.00238
# Shear Modulus (GPa) = 709.88326 14.67989 362.28158
#
# Velocity S-wave (km/s) = 19.34283 2.78156 13.81814
# Velocity P-wave (km/s) = 22.99481 6.60784 16.91782
#
# Compressibility (1/GPa) = 0.01762644
#
# Stress axis : x y z
#
# Youngs Moduli (GPa) = 30.65075 33.48030 50.22999
#
# Poissons Ratio (x) = 0.78490 0.25461
# Poissons Ratio (y) = 0.71857 0.19466
# Poissons Ratio (z) = 0.15536 0.12975
#
# Static dielectric constant tensor:
#      x y z
#    x 1.698720 0.000000 0.000000 
#    y 0.000000 1.681740 0.000000 
#    z 0.000000 0.000000 1.563670 
# 
# From -- ./inp_files/34884.got.cif
#   From: 2010.05.17/outbox.cif.g08.bks.cpg/sg71_18_cif.got.tgz:34884.got - 2010.06.03 16:22:01.
