data_PCOD9521658
_publ_section_title
;
Structure prediction by ZEFSAII (Michael W. Deem and Ramdas Pophale) SiO2 
 PCOD9521658
Probable space group: I M M M
;
_chemical_formula_sum "Si O2"
_cell_formula_units_Z 116
_cell_length_a 22.862911
_cell_length_b 30.307539
_cell_length_c 8.237402
_cell_angle_alpha 90.000000
_cell_angle_beta 90.000000
_cell_angle_gamma 90.000000
_cell_volume 5707.848788
_symmetry_space_group_name_H-M "I M M M"
_symmetry_group_IT_number 71
_symmetry_cell_setting 'orthorhombic'
loop_
_space_group_symop_operation_xyz
x,y,z
-x,-y,z
x,-y,-z
-x,y,-z
-x,-y,-z
x,y,-z
-x,y,z
x,-y,z
1/2+x,1/2+y,1/2+z
1/2-x,1/2-y,1/2+z
1/2+x,1/2-y,1/2-z
1/2-x,1/2+y,1/2-z
1/2-x,1/2-y,1/2-z
1/2+x,1/2+y,1/2-z
1/2-x,1/2+y,1/2+z
1/2+x,1/2-y,1/2+z
loop_
_atom_site_type_symbol
_atom_site_label
_atom_site_fract_x
_atom_site_fract_y
_atom_site_fract_z
Si Si1 0.564684 0.427933 0.809911
Si Si2 0.690222 0.451257 0.690947
Si Si3 0.563231 0.914851 0.192142
Si Si4 0.065280 0.262112 0.696109
Si Si5 0.220853 0.857755 0.312740
Si Si6 0.500000 0.000000 0.707131
Si Si7 0.097419 0.165200 0.813241
Si Si8 0.349153 0.839536 0.803085
O O1 0.500000 0.441486 0.754091
O O2 0.620244 0.447297 0.716819
O O3 0.570770 0.375012 0.789632
O O4 0.570434 0.439161 0.000000
O O5 0.702913 0.446052 0.500000
O O6 0.709084 0.500000 0.743654
O O7 0.718488 0.410500 0.784678
O O8 0.500000 0.890229 0.201553
O O9 0.550046 0.960653 0.282076
O O10 0.614938 0.883404 0.247060
O O11 0.571069 0.925785 0.000000
O O12 0.067102 0.261203 0.500000
O O13 0.076965 0.213023 0.758527
O O14 0.113910 0.297018 0.750697
O O15 0.000000 0.275827 0.745800
O O16 0.208609 0.847857 0.500000
O O17 0.167405 0.838440 0.209013
O O18 0.283785 0.840174 0.262110
O O19 0.081803 0.157371 0.000000
O O20 0.347756 0.839956 0.000000
#
# Coordination Sequence:
#
# PCOD9521658 Si02
#       8
#    16  16  16  16  16   4  16  16
#     4  10  20  34  55  83 115 150 184 222 273 335
#     4  10  21  38  59  82 109 143 186 235 281 325
#     4   8  13  25  47  77 111 142 176 224 275 320
#     4  10  21  37  58  85 116 151 185 224 276 335
#     4  11  23  40  60  80 109 149 188 230 280 335
#     4   8  13  24  48  84 117 142 181 232 279 326
#     4  11  22  37  59  83 110 144 187 237 280 328
#     4  10  20  35  56  82 115 149 187 232 277 328
#
# _framework density 20.322892
#
# number of rings (size 3 to 8) (size 9 to 14) (size 15 to 20)
#    0.414    1.655    0.000    6.207    0.000    7.172 
#    1.241    1.379    0.000    1.241    0.000    0.483 
#    0.000    0.000    0.000    0.000    0.000    0.000 
#
# Total GULP energy -323217.503891 kJ/mol
# GULP energy per Si atom -5572.715584 kJ/mol
# Density = 2.027664 g / cm^3
# Si number density = 20.322892 Si / 1000 Ang^3
#
#
#
# Elastic Constant Matrix: (Units=GPa)
#
#
# Indices 1 2 3 4 5 6 
#
# 1 75.2718 7.7867 -0.6891 0.0000 0.0000 0.0000
# 2 7.7867 72.3521 0.7628 0.0000 0.0000 0.0000
# 3 -0.6891 0.7628 27.3845 0.0000 0.0000 0.0000
# 4 0.0000 0.0000 0.0000 6.4180 0.0000 0.0000
# 5 0.0000 0.0000 0.0000 0.0000 12.3635 0.0000
# 6 0.0000 0.0000 0.0000 0.0000 0.0000 3.2825
#
#
#
# Elastic Compliance Matrix: (Units=1/GPa)
#
#
# Indices 1 2 3 4 5 6 
#
# 1 0.013439 -0.001450 0.000379 0.000000 0.000000 0.000000
# 2 -0.001450 0.013982 -0.000426 0.000000 0.000000 0.000000
# 3 0.000379 -0.000426 0.036538 0.000000 0.000000 0.000000
# 4 0.000000 0.000000 0.000000 0.155812 0.000000 0.000000
# 5 0.000000 0.000000 0.000000 0.000000 0.080883 0.000000
# 6 0.000000 0.000000 0.000000 0.000000 0.000000 0.304641
#
#
# Mechanical properties :
#
#
# Convention : Reuss Voigt Hill
#
# Bulk Modulus (GPa) = 16.40323 21.19212 18.79767
# Shear Modulus (GPa) = 7.95403 15.55601 11.75502
#
# Velocity S-wave (km/s) = 1.98049 2.76966 2.40763
# Velocity P-wave (km/s) = 3.64947 4.54735 4.12292
#
# Compressibility (1/GPa) = 0.06096362
#
# Stress axis : x y z
#
# Youngs Moduli (GPa) = 74.41201 71.52112 27.36844
#
# Poissons Ratio (x) = 0.10373 -0.01036
# Poissons Ratio (y) = 0.10792 0.01166
# Poissons Ratio (z) = -0.02817 0.03047
#
# Static dielectric constant tensor:
#      x y z
#    x 1.717780 0.000000 0.000000 
#    y 0.000000 1.707950 0.000000 
#    z 0.000000 0.000000 1.722390 
# 
# From -- ./inp_files/13734.got.cif
#   From: 2010.05.17/outbox.cif.g08.bks.cpg/sg71_7_cif.got.tgz:13734.got - 2010.06.03 16:22:01.
