data_PCOD9521074
_publ_section_title
;
Structure prediction by ZEFSAII (Michael W. Deem and Ramdas Pophale) SiO2 
 PCOD9521074
Probable space group: I M M M
;
_chemical_formula_sum "Si O2"
_cell_formula_units_Z 64
_cell_length_a 42.264782
_cell_length_b 9.421277
_cell_length_c 7.565699
_cell_angle_alpha 90.000000
_cell_angle_beta 90.000000
_cell_angle_gamma 90.000000
_cell_volume 3012.572207
_symmetry_space_group_name_H-M "I M M M"
_symmetry_group_IT_number 71
_symmetry_cell_setting 'orthorhombic'
loop_
_space_group_symop_operation_xyz
x,y,z
-x,-y,z
x,-y,-z
-x,y,-z
-x,-y,-z
x,y,-z
-x,y,z
x,-y,z
1/2+x,1/2+y,1/2+z
1/2-x,1/2-y,1/2+z
1/2+x,1/2-y,1/2-z
1/2-x,1/2+y,1/2-z
1/2-x,1/2-y,1/2-z
1/2+x,1/2+y,1/2-z
1/2-x,1/2+y,1/2+z
1/2+x,1/2-y,1/2+z
loop_
_atom_site_type_symbol
_atom_site_label
_atom_site_fract_x
_atom_site_fract_y
_atom_site_fract_z
Si Si1 0.218464 0.838402 0.288003
Si Si2 0.157217 0.336640 0.283344
Si Si3 0.035539 0.661651 0.212988
Si Si4 0.096997 0.159686 0.290071
O O1 0.215536 0.847011 0.500000
O O2 0.250000 0.750000 0.250000
O O3 0.187640 0.753274 0.224585
O O4 0.220148 0.000000 0.220101
O O5 0.157284 0.338105 0.500000
O O6 0.158789 0.500000 0.226334
O O7 0.125135 0.259849 0.222452
O O8 0.042272 0.500000 0.273380
O O9 0.063095 0.767695 0.265199
O O10 0.000000 0.700221 0.273062
O O11 0.034886 0.658702 0.000000
O O12 0.102261 0.149262 0.500000
O O13 0.098024 0.000000 0.217179
#
# Coordination Sequence:
#
# PCOD9521074 Si02
#       4
#    16  16  16  16
#     4  10  20  34  53  77 105 136 170 209 253 300
#     4   9  17  31  52  75 100 133 170 207 251 301
#     4   9  19  36  55  74  99 133 171 209 251 300
#     4  10  20  33  51  77 106 133 165 207 252 299
#
# _framework density 21.244302999999999
#
# number of rings (size 3 to 8) (size 9 to 14) (size 15 to 20)
#    0.000    2.500    0.000    3.000    0.000    7.500 
#    0.000    5.000    0.000    7.500    0.000    0.000 
#    0.000    0.000    0.000    0.000    0.000    0.000 
#
# Total GULP energy -178753.133304 kJ/mol
# GULP energy per Si atom -5586.035416 kJ/mol
# Density = 2.119595 g / cm^3
# Si number density = 21.244303 Si / 1000 Ang^3
#
#
#
# Elastic Constant Matrix: (Units=GPa)
#
#
# Indices 1 2 3 4 5 6 
#
# 1 186.5521 143.2400 -2.5051 0.0000 0.0000 0.0000
# 2 143.2400 236.6237 7.3449 0.0000 0.0000 0.0000
# 3 -2.5051 7.3449 47.0635 0.0000 0.0000 0.0000
# 4 0.0000 0.0000 0.0000 11.0528 0.0000 0.0000
# 5 0.0000 0.0000 0.0000 0.0000 18.4175 0.0000
# 6 0.0000 0.0000 0.0000 0.0000 0.0000 39.0015
#
#
#
# Elastic Compliance Matrix: (Units=1/GPa)
#
#
# Indices 1 2 3 4 5 6 
#
# 1 0.010120 -0.006173 0.001502 0.000000 0.000000 0.000000
# 2 -0.006173 0.008012 -0.001579 0.000000 0.000000 0.000000
# 3 0.001502 -0.001579 0.021574 0.000000 0.000000 0.000000
# 4 0.000000 0.000000 0.000000 0.090474 0.000000 0.000000
# 5 0.000000 0.000000 0.000000 0.000000 0.054296 0.000000
# 6 0.000000 0.000000 0.000000 0.000000 0.000000 0.025640
#
#
# Mechanical properties :
#
#
# Convention : Reuss Voigt Hill
#
# Bulk Modulus (GPa) = 36.75544 85.15545 60.95544
# Shear Modulus (GPa) = 21.58093 35.17166 28.37630
#
# Velocity S-wave (km/s) = 3.19069 4.07330 3.65871
# Velocity P-wave (km/s) = 5.55994 7.89261 6.82664
#
# Compressibility (1/GPa) = 0.02720686
#
# Stress axis : x y z
#
# Youngs Moduli (GPa) = 98.81007 124.81331 46.35151
#
# Poissons Ratio (x) = 0.77048 -0.06962
# Poissons Ratio (y) = 0.60996 0.07319
# Poissons Ratio (z) = -0.14842 0.19708
#
# Static dielectric constant tensor:
#      x y z
#    x 1.721290 0.000000 0.000000 
#    y 0.000000 1.744300 0.000000 
#    z 0.000000 0.000000 1.892740 
# 
# From -- ./inp_files/3692.got.cif
#   From: 2010.05.17/outbox.cif.g08.bks.cpg/sg71_2_cif.got.tgz:3692.got - 2010.06.03 16:22:01.
