data_PCOD9521574
_publ_section_title
;
Structure prediction by ZEFSAII (Michael W. Deem and Ramdas Pophale) SiO2 
 PCOD9521574
Probable space group: I M M M
;
_chemical_formula_sum "Si O2"
_cell_formula_units_Z 104
_cell_length_a 23.380667
_cell_length_b 8.713100
_cell_length_c 28.402180
_cell_angle_alpha 90.000000
_cell_angle_beta 90.000000
_cell_angle_gamma 90.000000
_cell_volume 5786.037851
_symmetry_space_group_name_H-M "I M M M"
_symmetry_group_IT_number 71
_symmetry_cell_setting 'orthorhombic'
loop_
_space_group_symop_operation_xyz
x,y,z
-x,-y,z
x,-y,-z
-x,y,-z
-x,-y,-z
x,y,-z
-x,y,z
x,-y,z
1/2+x,1/2+y,1/2+z
1/2-x,1/2-y,1/2+z
1/2+x,1/2-y,1/2-z
1/2-x,1/2+y,1/2-z
1/2-x,1/2-y,1/2-z
1/2+x,1/2+y,1/2-z
1/2-x,1/2+y,1/2+z
1/2+x,1/2-y,1/2+z
loop_
_atom_site_type_symbol
_atom_site_label
_atom_site_fract_x
_atom_site_fract_y
_atom_site_fract_z
Si Si1 0.258389 0.181007 0.802459
Si Si2 0.569486 0.176716 0.500000
Si Si3 0.931352 0.821395 0.098652
Si Si4 0.433855 0.686903 0.946349
Si Si5 0.130196 0.816716 0.353385
Si Si6 0.064969 0.683965 0.268562
Si Si7 0.358570 0.819031 0.320652
O O1 0.250000 0.250000 0.750000
O O2 0.311796 0.247220 0.831610
O O3 0.199241 0.224959 0.827553
O O4 0.266137 0.000000 0.797780
O O5 0.500000 0.175042 0.500000
O O6 0.586938 0.264523 0.452904
O O7 0.588715 0.000000 0.500000
O O8 0.901930 0.717555 0.137631
O O9 0.000000 0.806721 0.101708
O O10 0.916949 0.000000 0.105754
O O11 0.500000 0.733026 0.936707
O O12 0.433443 0.500000 0.945931
O O13 0.390835 0.737097 0.905041
O O14 0.419466 0.734707 0.000000
O O15 0.081380 0.769218 0.316217
O O16 0.136304 0.000000 0.354580
O O17 0.069307 0.500000 0.275645
O O18 0.109828 0.726166 0.227876
O O19 0.000000 0.718484 0.253845
O O20 0.345647 0.000000 0.318286
#
# Coordination Sequence:
#
# PCOD9521574 Si02
#       7
#    16   8  16  16  16  16  16
#     4  12  24  40  59  80 107 145 189 232 279 332
#     4   9  17  31  53  79 107 143 185 225 268 325
#     4  10  20  34  54  82 115 148 182 226 280 335
#     4   8  15  30  54  86 121 152 185 230 282 334
#     4  11  21  34  57  85 112 148 191 233 278 334
#     4  10  21  35  52  78 114 150 181 222 277 332
#     4  11  22  37  57  80 108 146 188 231 279 333
#
# _framework density 17.974302999999999
#
# number of rings (size 3 to 8) (size 9 to 14) (size 15 to 20)
#    0.000    1.769    1.538    4.385    0.000    4.000 
#    0.000    0.000    1.692    1.846    0.000    5.385 
#    0.000    0.000    0.000    0.000    0.000    0.000 
#
# Total GULP energy -290251.139130 kJ/mol
# GULP energy per Si atom -5581.752676 kJ/mol
# Density = 1.793339 g / cm^3
# Si number density = 17.974303 Si / 1000 Ang^3
#
#
#
# Elastic Constant Matrix: (Units=GPa)
#
#
# Indices 1 2 3 4 5 6 
#
# 1 89.4562 30.9973 44.8133 0.0000 0.0000 0.0000
# 2 30.9973 44.1272 24.3134 0.0000 0.0000 0.0000
# 3 44.8133 24.3134 124.9036 0.0000 0.0000 0.0000
# 4 0.0000 0.0000 0.0000 22.5448 0.0000 0.0000
# 5 0.0000 0.0000 0.0000 0.0000 19.2335 0.0000
# 6 0.0000 0.0000 0.0000 0.0000 0.0000 27.8514
#
#
#
# Elastic Compliance Matrix: (Units=1/GPa)
#
#
# Indices 1 2 3 4 5 6 
#
# 1 0.016452 -0.009302 -0.004092 0.000000 0.000000 0.000000
# 2 -0.009302 0.030644 -0.002628 0.000000 0.000000 0.000000
# 3 -0.004092 -0.002628 0.009986 0.000000 0.000000 0.000000
# 4 0.000000 0.000000 0.000000 0.044356 0.000000 0.000000
# 5 0.000000 0.000000 0.000000 0.000000 0.051993 0.000000
# 6 0.000000 0.000000 0.000000 0.000000 0.000000 0.035905
#
#
# Mechanical properties :
#
#
# Convention : Reuss Voigt Hill
#
# Bulk Modulus (GPa) = 39.93901 50.97057 45.45479
# Shear Modulus (GPa) = 21.76524 24.48346 23.12435
#
# Velocity S-wave (km/s) = 3.48359 3.69472 3.59070
# Velocity P-wave (km/s) = 6.20071 6.82790 6.52185
#
# Compressibility (1/GPa) = 0.02503818
#
# Stress axis : x y z
#
# Youngs Moduli (GPa) = 60.78388 32.63307 100.14250
#
# Poissons Ratio (x) = 0.30355 0.40977
# Poissons Ratio (y) = 0.56541 0.26314
# Poissons Ratio (z) = 0.24872 0.08575
#
# Static dielectric constant tensor:
#      x y z
#    x 1.622190 0.000000 0.000000 
#    y 0.000000 1.613250 0.000000 
#    z 0.000000 0.000000 1.616540 
# 
# From -- ./inp_files/56716.got.cif
#   From: 2010.05.17/outbox.cif.g08.bks.cpg/sg71_29_cif.got.tgz:56716.got - 2010.06.03 16:22:01.
