data_PCOD9521938
_publ_section_title
;
Structure prediction by ZEFSAII (Michael W. Deem and Ramdas Pophale) SiO2 
 PCOD9521938
Probable space group: I M M M
;
_chemical_formula_sum "Si O2"
_cell_formula_units_Z 88
_cell_length_a 12.750448
_cell_length_b 28.732406
_cell_length_c 13.953655
_cell_angle_alpha 90.000000
_cell_angle_beta 90.000000
_cell_angle_gamma 90.000000
_cell_volume 5111.936141
_symmetry_space_group_name_H-M "I M M M"
_symmetry_group_IT_number 71
_symmetry_cell_setting 'orthorhombic'
loop_
_space_group_symop_operation_xyz
x,y,z
-x,-y,z
x,-y,-z
-x,y,-z
-x,-y,-z
x,y,-z
-x,y,z
x,-y,z
1/2+x,1/2+y,1/2+z
1/2-x,1/2-y,1/2+z
1/2+x,1/2-y,1/2-z
1/2-x,1/2+y,1/2-z
1/2-x,1/2-y,1/2-z
1/2+x,1/2+y,1/2-z
1/2-x,1/2+y,1/2+z
1/2+x,1/2-y,1/2+z
loop_
_atom_site_type_symbol
_atom_site_label
_atom_site_fract_x
_atom_site_fract_y
_atom_site_fract_z
Si Si1 0.500000 0.443429 0.890167
Si Si2 0.376260 0.600283 0.388089
Si Si3 0.785713 0.945326 0.714935
Si Si4 0.254986 0.713537 0.110795
Si Si5 0.877671 0.619675 0.887714
Si Si6 0.622233 0.703321 0.302179
O O1 0.500000 0.500000 0.888682
O O2 0.606927 0.428809 0.838193
O O3 0.500000 0.427832 0.000000
O O4 0.350450 0.600827 0.500000
O O5 0.500000 0.588312 0.378855
O O6 0.307821 0.565098 0.325837
O O7 0.361545 0.651492 0.342858
O O8 0.689297 0.916170 0.674504
O O9 0.772267 0.000000 0.696805
O O10 0.174677 0.670407 0.121529
O O11 0.343980 0.706123 0.190917
O O12 0.193408 0.760423 0.139342
O O13 0.290222 0.714896 0.000000
O O14 0.000000 0.620916 0.861678
O O15 0.869484 0.606335 0.000000
O O16 0.500000 0.715012 0.313756
#
# Coordination Sequence:
#
# PCOD9521938 Si02
#       6
#     8  16  16  16  16  16
#     4   9  18  32  51  75 107 143 174 220 289 347
#     4  10  20  35  56  82 112 145 183 228 280 335
#     4  11  21  35  53  79 111 143 188 237 281 329
#     4  10  20  35  57  84 114 148 183 222 271 327
#     4  10  21  37  57  82 112 147 187 227 273 332
#     4  10  20  35  56  84 116 146 180 224 274 328
#
# _framework density 17.214613
#
# number of rings (size 3 to 8) (size 9 to 14) (size 15 to 20)
#    0.000    1.909    2.727    1.636    0.000    4.000 
#    0.000    1.818    0.000    0.545    0.000    1.273 
#    0.000    0.000    0.000    0.000    0.000    0.000 
#
# Total GULP energy -245602.727148 kJ/mol
# GULP energy per Si atom -5581.880162 kJ/mol
# Density = 1.717543 g / cm^3
# Si number density = 17.214613 Si / 1000 Ang^3
#
#
#
# Elastic Constant Matrix: (Units=GPa)
#
#
# Indices 1 2 3 4 5 6 
#
# 1 12.4715 -3.4431 -6.7010 0.0000 -0.0001 0.0000
# 2 -3.4431 35.4168 -0.7247 0.0000 0.0000 0.0000
# 3 -6.7010 -0.7247 75.9371 -0.0001 0.0000 0.0000
# 4 0.0000 0.0000 -0.0001 18.3813 0.0000 0.0000
# 5 -0.0001 0.0000 0.0000 0.0000 21.2089 0.0000
# 6 0.0000 0.0000 0.0000 0.0000 0.0000 19.6842
#
#
#
# Elastic Compliance Matrix: (Units=1/GPa)
#
#
# Indices 1 2 3 4 5 6 
#
# 1 0.086709 0.008588 0.007734 0.000000 0.000000 0.000000
# 2 0.008588 0.029091 0.001035 0.000000 0.000000 0.000000
# 3 0.007734 0.001035 0.013861 0.000000 0.000000 0.000000
# 4 0.000000 0.000000 0.000000 0.054403 0.000000 0.000000
# 5 0.000000 0.000000 0.000000 0.000000 0.047150 0.000000
# 6 0.000000 0.000000 0.000000 0.000000 0.000000 0.050802
#
#
# Mechanical properties :
#
#
# Convention : Reuss Voigt Hill
#
# Bulk Modulus (GPa) = 6.08366 11.34309 8.71338
# Shear Modulus (GPa) = 16.55112 20.83450 18.69281
#
# Velocity S-wave (km/s) = 3.10410 3.48268 3.29883
# Velocity P-wave (km/s) = 4.04833 4.77238 4.42519
#
# Compressibility (1/GPa) = 0.16437461
#
# Stress axis : x y z
#
# Youngs Moduli (GPa) = 11.53287 34.37455 72.14430
#
# Poissons Ratio (x) = -0.29520 -0.55793
# Poissons Ratio (y) = -0.09904 -0.07470
# Poissons Ratio (z) = -0.08919 -0.03559
#
# Static dielectric constant tensor:
#      x y z
#    x 1.552240 0.000000 0.000000 
#    y 0.000000 1.578030 0.000000 
#    z 0.000000 0.000000 1.590250 
# 
# From -- ./inp_files/20263.got.cif
#   From: 2010.05.17/outbox.cif.g08.bks.cpg/sg71_11_cif.got.tgz:20263.got - 2010.06.03 16:22:01.
