data_PCOD9521892
_publ_section_title
;
Structure prediction by ZEFSAII (Michael W. Deem and Ramdas Pophale) SiO2 
 PCOD9521892
Probable space group: I M M M
;
_chemical_formula_sum "Si O2"
_cell_formula_units_Z 88
_cell_length_a 7.660474
_cell_length_b 19.531208
_cell_length_c 29.694456
_cell_angle_alpha 90.000000
_cell_angle_beta 90.000000
_cell_angle_gamma 90.000000
_cell_volume 4442.834355
_symmetry_space_group_name_H-M "I M M M"
_symmetry_group_IT_number 71
_symmetry_cell_setting 'orthorhombic'
loop_
_space_group_symop_operation_xyz
x,y,z
-x,-y,z
x,-y,-z
-x,y,-z
-x,-y,-z
x,y,-z
-x,y,z
x,-y,z
1/2+x,1/2+y,1/2+z
1/2-x,1/2-y,1/2+z
1/2+x,1/2-y,1/2-z
1/2-x,1/2+y,1/2-z
1/2-x,1/2-y,1/2-z
1/2+x,1/2+y,1/2-z
1/2-x,1/2+y,1/2+z
1/2+x,1/2-y,1/2+z
loop_
_atom_site_type_symbol
_atom_site_label
_atom_site_fract_x
_atom_site_fract_y
_atom_site_fract_z
Si Si1 0.209677 0.177308 0.773209
Si Si2 0.702108 0.842128 0.603742
Si Si3 0.500000 0.577945 0.946413
Si Si4 0.212466 0.920539 0.694469
Si Si5 0.789636 0.421995 0.550804
Si Si6 0.208003 0.809856 0.874426
O O1 0.250000 0.250000 0.750000
O O2 0.270204 0.116905 0.740274
O O3 0.278142 0.174879 0.824316
O O4 0.000000 0.171278 0.775305
O O5 0.500000 0.842344 0.588970
O O6 0.714937 0.877938 0.652519
O O7 0.769205 0.764289 0.608651
O O8 0.829224 0.883882 0.571545
O O9 0.500000 0.500000 0.928837
O O10 0.500000 0.576946 0.000000
O O11 0.000000 0.917363 0.691795
O O12 0.263058 0.000000 0.692720
O O13 0.730249 0.403065 0.500000
O O14 0.729889 0.500000 0.559999
O O15 0.739171 0.368822 0.589239
O O16 0.000000 0.423382 0.549706
O O17 0.000000 0.801984 0.869514
#
# Coordination Sequence:
#
# PCOD9521892 Si02
#       6
#    16  16   8  16  16  16
#     4  10  20  35  55  81 117 156 194 242 297 356
#     4  11  23  40  63  93 125 159 205 259 309 367
#     4  11  26  46  66  90 121 161 209 257 317 383
#     4  10  20  35  58  86 116 158 208 249 297 365
#     4   9  20  39  61  86 117 156 202 248 298 360
#     4  10  22  37  58  90 123 157 200 249 307 367
#
# _framework density 19.807174
#
# number of rings (size 3 to 8) (size 9 to 14) (size 15 to 20)
#    0.000    1.909    2.727    1.091    1.273    4.727 
#    0.000    5.455    0.000    0.000    0.000    0.000 
#    0.000    0.000    0.000    0.000    0.000    0.000 
#
# Total GULP energy -245776.269619 kJ/mol
# GULP energy per Si atom -5585.824310 kJ/mol
# Density = 1.976209 g / cm^3
# Si number density = 19.807174 Si / 1000 Ang^3
#
#
#
# Elastic Constant Matrix: (Units=GPa)
#
#
# Indices 1 2 3 4 5 6 
#
# 1 55.8399 8.0332 13.7590 0.0000 0.0000 0.0000
# 2 8.0332 144.6197 79.6200 0.0000 0.0000 0.0000
# 3 13.7590 79.6200 131.3756 0.0000 0.0000 0.0000
# 4 0.0000 0.0000 0.0000 40.9179 0.0000 0.0000
# 5 0.0000 0.0000 0.0000 0.0000 14.8434 0.0000
# 6 0.0000 0.0000 0.0000 0.0000 0.0000 7.9870
#
#
#
# Elastic Compliance Matrix: (Units=1/GPa)
#
#
# Indices 1 2 3 4 5 6 
#
# 1 0.018383 0.000058 -0.001961 0.000000 0.000000 0.000000
# 2 0.000058 0.010377 -0.006295 0.000000 0.000000 0.000000
# 3 -0.001961 -0.006295 0.011632 0.000000 0.000000 0.000000
# 4 0.000000 0.000000 0.000000 0.024439 0.000000 0.000000
# 5 0.000000 0.000000 0.000000 0.000000 0.067370 0.000000
# 6 0.000000 0.000000 0.000000 0.000000 0.000000 0.125203
#
#
# Mechanical properties :
#
#
# Convention : Reuss Voigt Hill
#
# Bulk Modulus (GPa) = 41.67094 59.40664 50.53879
# Shear Modulus (GPa) = 17.74312 28.11119 22.92716
#
# Velocity S-wave (km/s) = 2.99623 3.77137 3.40592
# Velocity P-wave (km/s) = 5.74924 7.00157 6.40608
#
# Compressibility (1/GPa) = 0.02399754
#
# Stress axis : x y z
#
# Youngs Moduli (GPa) = 54.39793 96.36432 85.96732
#
# Poissons Ratio (x) = -0.00561 0.16855
# Poissons Ratio (y) = -0.00317 0.54119
# Poissons Ratio (z) = 0.10665 0.60664
#
# Static dielectric constant tensor:
#      x y z
#    x 1.728470 0.000000 0.000000 
#    y 0.000000 1.674510 0.000000 
#    z 0.000000 0.000000 1.686620 
# 
# From -- ./inp_files/8741.got.cif
#   From: 2010.05.17/outbox.cif.g08.bks.cpg/sg71_5_cif.got.tgz:8741.got - 2010.06.03 16:22:01.
