data_PCOD9521315
_publ_section_title
;
Structure prediction by ZEFSAII (Michael W. Deem and Ramdas Pophale) SiO2 
 PCOD9521315
Probable space group: I M M M
;
_chemical_formula_sum "Si O2"
_cell_formula_units_Z 80
_cell_length_a 9.131209
_cell_length_b 22.389055
_cell_length_c 22.927847
_cell_angle_alpha 90.000000
_cell_angle_beta 90.000000
_cell_angle_gamma 90.000000
_cell_volume 4687.349335
_symmetry_space_group_name_H-M "I M M M"
_symmetry_group_IT_number 71
_symmetry_cell_setting 'orthorhombic'
loop_
_space_group_symop_operation_xyz
x,y,z
-x,-y,z
x,-y,-z
-x,y,-z
-x,-y,-z
x,y,-z
-x,y,z
x,-y,z
1/2+x,1/2+y,1/2+z
1/2-x,1/2-y,1/2+z
1/2+x,1/2-y,1/2-z
1/2-x,1/2+y,1/2-z
1/2-x,1/2-y,1/2-z
1/2+x,1/2+y,1/2-z
1/2-x,1/2+y,1/2+z
1/2+x,1/2-y,1/2+z
loop_
_atom_site_type_symbol
_atom_site_label
_atom_site_fract_x
_atom_site_fract_y
_atom_site_fract_z
Si Si1 0.173786 0.203097 0.168265
Si Si2 0.825331 0.664686 0.784254
Si Si3 0.177405 0.368441 0.431649
Si Si4 0.331622 0.427346 0.000000
Si Si5 0.675669 0.930233 0.381051
Si Si6 0.168665 0.500000 0.429198
O O1 0.201546 0.272932 0.181958
O O2 0.239324 0.167929 0.223749
O O3 0.252028 0.179981 0.110301
O O4 0.000000 0.194507 0.164203
O O5 0.782891 0.610360 0.826236
O O6 0.000000 0.661102 0.772392
O O7 0.212817 0.359678 0.500000
O O8 0.230865 0.435262 0.413084
O O9 0.000000 0.367732 0.427009
O O10 0.250988 0.408891 0.059260
O O11 0.327653 0.500000 0.000000
O O12 0.500000 0.408249 0.000000
O O13 0.500000 0.926225 0.388267
O O14 0.712690 0.000000 0.371776
O O15 0.164875 0.500000 0.500000
O O16 0.000000 0.500000 0.408817
#
# Coordination Sequence:
#
# PCOD9521315 Si02
#       6
#    16  16  16   8  16   8
#     4  10  20  34  52  73 100 135 167 202 251 300
#     4   9  19  36  54  71  96 133 173 208 245 293
#     4   9  17  32  54  77 101 130 167 208 245 289
#     4   9  17  29  47  73 105 135 157 190 249 306
#     4   9  17  32  54  76  97 126 169 213 246 285
#     4   7  12  26  49  73  95 125 163 200 239 280
#
# _framework density 17.067215000000001
#
# number of rings (size 3 to 8) (size 9 to 14) (size 15 to 20)
#    0.000    3.000    0.000    2.100    0.000    3.200 
#    3.600    0.500    0.000    1.800    0.000    0.000 
#    0.000    0.000    0.000    0.000    0.000    0.000 
#
# Total GULP energy -222821.507234 kJ/mol
# GULP energy per Si atom -5570.537681 kJ/mol
# Density = 1.702837 g / cm^3
# Si number density = 17.067215 Si / 1000 Ang^3
#
#
#
# Elastic Constant Matrix: (Units=GPa)
#
#
# Indices 1 2 3 4 5 6 
#
# 1 33.5788 34.1633 49.7134 0.0000 0.0000 0.0000
# 2 34.1633 54.8958 57.9235 0.0000 0.0000 0.0000
# 3 49.7134 57.9235 110.8777 0.0000 0.0000 0.0000
# 4 0.0000 0.0000 0.0000 27.0600 0.0000 0.0000
# 5 0.0000 0.0000 0.0000 0.0000 28.7729 0.0000
# 6 0.0000 0.0000 0.0000 0.0000 0.0000 19.8275
#
#
#
# Elastic Compliance Matrix: (Units=1/GPa)
#
#
# Indices 1 2 3 4 5 6 
#
# 1 0.116757 -0.038827 -0.032066 0.000000 0.000000 0.000000
# 2 -0.038827 0.053503 -0.010542 0.000000 0.000000 0.000000
# 3 -0.032066 -0.010542 0.028903 0.000000 0.000000 0.000000
# 4 0.000000 0.000000 0.000000 0.036955 0.000000 0.000000
# 5 0.000000 0.000000 0.000000 0.000000 0.034755 0.000000
# 6 0.000000 0.000000 0.000000 0.000000 0.000000 0.050435
#
#
# Mechanical properties :
#
#
# Convention : Reuss Voigt Hill
#
# Bulk Modulus (GPa) = 27.55305 53.66143 40.60724
# Shear Modulus (GPa) = 10.07507 18.96888 14.52198
#
# Velocity S-wave (km/s) = 2.43228 3.33742 2.92013
# Velocity P-wave (km/s) = 4.90580 6.80886 5.93412
#
# Compressibility (1/GPa) = 0.03629363
#
# Stress axis : x y z
#
# Youngs Moduli (GPa) = 8.56481 18.69065 34.59829
#
# Poissons Ratio (x) = 0.72570 1.10942
# Poissons Ratio (y) = 0.33255 0.36473
# Poissons Ratio (z) = 0.27464 0.19703
#
# Static dielectric constant tensor:
#      x y z
#    x 1.569090 0.000000 0.000000 
#    y 0.000000 1.595260 0.000000 
#    z 0.000000 0.000000 1.551750 
# 
# From -- ./inp_files/50418.got.cif
#   From: 2010.05.17/outbox.cif.g08.bks.cpg/sg71_26_cif.got.tgz:50418.got - 2010.06.03 16:22:01.
