data_PCOD9521159
_publ_section_title
;
Structure prediction by ZEFSAII (Michael W. Deem and Ramdas Pophale) SiO2 
 PCOD9521159
Probable space group: I M M M
;
_chemical_formula_sum "Si O2"
_cell_formula_units_Z 88
_cell_length_a 19.522932
_cell_length_b 8.357175
_cell_length_c 26.650775
_cell_angle_alpha 90.000000
_cell_angle_beta 90.000000
_cell_angle_gamma 90.000000
_cell_volume 4348.248750
_symmetry_space_group_name_H-M "I M M M"
_symmetry_group_IT_number 71
_symmetry_cell_setting 'orthorhombic'
loop_
_space_group_symop_operation_xyz
x,y,z
-x,-y,z
x,-y,-z
-x,y,-z
-x,-y,-z
x,y,-z
-x,y,z
x,-y,z
1/2+x,1/2+y,1/2+z
1/2-x,1/2-y,1/2+z
1/2+x,1/2-y,1/2-z
1/2-x,1/2+y,1/2-z
1/2-x,1/2-y,1/2-z
1/2+x,1/2+y,1/2-z
1/2-x,1/2+y,1/2+z
1/2+x,1/2-y,1/2+z
loop_
_atom_site_type_symbol
_atom_site_label
_atom_site_fract_x
_atom_site_fract_y
_atom_site_fract_z
Si Si1 0.922855 0.690586 0.248170
Si Si2 0.919702 0.000000 0.061236
Si Si3 0.708625 0.309878 0.298089
Si Si4 0.654254 0.822827 0.441791
Si Si5 0.283969 0.190138 0.901401
Si Si6 0.421786 0.309064 0.861155
O O1 0.920439 0.500000 0.254126
O O2 0.867188 0.741723 0.207840
O O3 0.907137 0.763531 0.303066
O O4 0.000000 0.739591 0.234676
O O5 0.883177 0.836164 0.079609
O O6 0.000000 0.000000 0.073588
O O7 0.913550 0.000000 0.000000
O O8 0.705273 0.500000 0.296543
O O9 0.750000 0.250000 0.250000
O O10 0.748923 0.265201 0.348108
O O11 0.633204 0.830391 0.500000
O O12 0.735307 0.785144 0.439182
O O13 0.640179 0.000000 0.419640
O O14 0.363293 0.234868 0.896087
O O15 0.277413 0.000000 0.909798
O O16 0.500000 0.255057 0.871635
O O17 0.419246 0.500000 0.865610
#
# Coordination Sequence:
#
# PCOD9521159 Si02
#       6
#    16   8  16  16  16  16
#     4  10  20  34  51  72 103 143 184 229 280 330
#     4   9  18  36  62  90 121 153 187 233 286 342
#     4  11  22  34  52  78 106 142 185 228 275 329
#     4  10  21  38  62  91 119 151 192 237 287 341
#     4  11  22  36  57  83 111 149 190 233 286 342
#     4  10  20  33  52  79 109 144 188 236 282 332
#
# _framework density 20.238032
#
# number of rings (size 3 to 8) (size 9 to 14) (size 15 to 20)
#    0.000    1.727    2.727    2.182    0.000    4.727 
#    0.000    2.727    0.000    0.545    0.000    3.818 
#    0.000    0.000    0.000    0.000    0.000    0.000 
#
# Total GULP energy -245665.121881 kJ/mol
# GULP energy per Si atom -5583.298225 kJ/mol
# Density = 2.019197 g / cm^3
# Si number density = 20.238032 Si / 1000 Ang^3
#
#
#
# Elastic Constant Matrix: (Units=GPa)
#
#
# Indices 1 2 3 4 5 6 
#
# 1 122.4115 46.5734 2.4555 0.0000 0.0000 0.0000
# 2 46.5734 95.2346 19.7299 0.0000 0.0000 0.0000
# 3 2.4555 19.7299 14.6521 0.0000 0.0000 0.0000
# 4 0.0000 0.0000 0.0000 17.3158 0.0000 0.0000
# 5 0.0000 0.0000 0.0000 0.0000 27.9349 0.0000
# 6 0.0000 0.0000 0.0000 0.0000 0.0000 34.4909
#
#
#
# Elastic Compliance Matrix: (Units=1/GPa)
#
#
# Indices 1 2 3 4 5 6 
#
# 1 0.010555 -0.006651 0.007187 0.000000 0.000000 0.000000
# 2 -0.006651 0.018754 -0.024138 0.000000 0.000000 0.000000
# 3 0.007187 -0.024138 0.099548 0.000000 0.000000 0.000000
# 4 0.000000 0.000000 0.000000 0.057751 0.000000 0.000000
# 5 0.000000 0.000000 0.000000 0.000000 0.035798 0.000000
# 6 0.000000 0.000000 0.000000 0.000000 0.000000 0.028993
#
#
# Mechanical properties :
#
#
# Convention : Reuss Voigt Hill
#
# Bulk Modulus (GPa) = 12.24696 41.09065 26.66880
# Shear Modulus (GPa) = 15.34585 26.85096 21.09840
#
# Velocity S-wave (km/s) = 2.75665 3.64642 3.23230
# Velocity P-wave (km/s) = 4.02452 6.17060 5.20927
#
# Compressibility (1/GPa) = 0.08165295
#
# Stress axis : x y z
#
# Youngs Moduli (GPa) = 94.73773 53.32282 10.04536
#
# Poissons Ratio (x) = 0.35465 -0.07219
# Poissons Ratio (y) = 0.63009 0.24248
# Poissons Ratio (z) = -0.68087 1.28712
#
# Static dielectric constant tensor:
#      x y z
#    x 1.738060 0.000000 0.000000 
#    y 0.000000 1.715540 0.000000 
#    z 0.000000 0.000000 1.735290 
# 
# From -- ./inp_files/70339.got.cif
#   From: 2010.05.17/outbox.cif.g08.bks.cpg/sg71_36_cif.got.tgz:70339.got - 2010.06.03 16:22:01.
