data_PCOD9521035
_publ_section_title
;
Structure prediction by ZEFSAII (Michael W. Deem and Ramdas Pophale) SiO2 
 PCOD9521035
Probable space group: I M M M
;
_chemical_formula_sum "Si O2"
_cell_formula_units_Z 96
_cell_length_a 13.696812
_cell_length_b 21.440717
_cell_length_c 18.486653
_cell_angle_alpha 90.000000
_cell_angle_beta 90.000000
_cell_angle_gamma 90.000000
_cell_volume 5428.965587
_symmetry_space_group_name_H-M "I M M M"
_symmetry_group_IT_number 71
_symmetry_cell_setting 'orthorhombic'
loop_
_space_group_symop_operation_xyz
x,y,z
-x,-y,z
x,-y,-z
-x,y,-z
-x,-y,-z
x,y,-z
-x,y,z
x,-y,z
1/2+x,1/2+y,1/2+z
1/2-x,1/2-y,1/2+z
1/2+x,1/2-y,1/2-z
1/2-x,1/2+y,1/2-z
1/2-x,1/2-y,1/2-z
1/2+x,1/2+y,1/2-z
1/2-x,1/2+y,1/2+z
1/2+x,1/2-y,1/2+z
loop_
_atom_site_type_symbol
_atom_site_label
_atom_site_fract_x
_atom_site_fract_y
_atom_site_fract_z
Si Si1 0.282675 0.425484 0.086995
Si Si2 0.888281 0.730705 0.313218
Si Si3 0.609531 0.699323 0.586995
Si Si4 0.698358 0.131508 0.912964
Si Si5 0.500000 0.426516 0.086795
Si Si6 0.387143 0.000000 0.088188
Si Si7 0.199669 0.314560 0.168714
O O1 0.272482 0.500000 0.099327
O O2 0.393029 0.404461 0.109318
O O3 0.210856 0.381531 0.131842
O O4 0.272603 0.415794 0.000000
O O5 0.870405 0.685350 0.381217
O O6 0.859762 0.689558 0.243128
O O7 0.807253 0.785054 0.316585
O O8 0.000000 0.752059 0.309732
O O9 0.608308 0.699914 0.500000
O O10 0.500000 0.686160 0.613144
O O11 0.691664 0.649655 0.610162
O O12 0.646306 0.765779 0.615541
O O13 0.665288 0.063387 0.888137
O O14 0.694255 0.132925 0.000000
O O15 0.500000 0.500000 0.102900
O O16 0.500000 0.420052 0.000000
O O17 0.500000 0.000000 0.110500
O O18 0.385634 0.000000 0.000000
#
# Coordination Sequence:
#
# PCOD9521035 Si02
#       7
#    16  16  16  16   8   8  16
#     4   9  17  31  52  79 111 141 171 212 260 313
#     4  10  21  35  50  72 101 134 173 218 264 306
#     4   9  17  31  52  74  98 131 170 211 251 295
#     4   9  18  33  52  76 100 125 166 212 260 316
#     4   7  12  24  44  72 104 136 165 196 246 307
#     4   9  16  28  49  73  99 129 153 191 255 312
#     4  10  20  33  51  74 101 139 175 212 254 313
#
# _framework density 17.682926999999999
#
# number of rings (size 3 to 8) (size 9 to 14) (size 15 to 20)
#    0.000    2.833    0.000    2.500    1.167    1.667 
#    1.500    0.417    0.000    4.000    0.000    5.833 
#    0.000    0.000    0.000    0.000    0.000    0.000 
#
# Total GULP energy -267314.949850 kJ/mol
# GULP energy per Si atom -5569.061455 kJ/mol
# Density = 1.764268 g / cm^3
# Si number density = 17.682927 Si / 1000 Ang^3
#
#
#
# Elastic Constant Matrix: (Units=GPa)
#
#
# Indices 1 2 3 4 5 6 
#
# 1 108.2255 30.0919 12.2630 0.0000 0.0000 0.0000
# 2 30.0919 70.6980 19.9341 0.0000 0.0000 0.0000
# 3 12.2630 19.9341 20.3403 0.0000 0.0000 0.0000
# 4 0.0000 0.0000 0.0000 16.0883 0.0000 0.0000
# 5 0.0000 0.0000 0.0000 0.0000 16.1144 0.0000
# 6 0.0000 0.0000 0.0000 0.0000 0.0000 16.6276
#
#
#
# Elastic Compliance Matrix: (Units=1/GPa)
#
#
# Indices 1 2 3 4 5 6 
#
# 1 0.010588 -0.003740 -0.002718 0.000000 0.000000 0.000000
# 2 -0.003740 0.020867 -0.018195 0.000000 0.000000 0.000000
# 3 -0.002718 -0.018195 0.068634 0.000000 0.000000 0.000000
# 4 0.000000 0.000000 0.000000 0.062157 0.000000 0.000000
# 5 0.000000 0.000000 0.000000 0.000000 0.062056 0.000000
# 6 0.000000 0.000000 0.000000 0.000000 0.000000 0.060141
#
#
# Mechanical properties :
#
#
# Convention : Reuss Voigt Hill
#
# Bulk Modulus (GPa) = 19.69192 35.98241 27.83717
# Shear Modulus (GPa) = 14.25810 18.89771 16.57791
#
# Velocity S-wave (km/s) = 2.84266 3.27264 3.06520
# Velocity P-wave (km/s) = 4.68344 5.88839 5.32013
#
# Compressibility (1/GPa) = 0.05078225
#
# Stress axis : x y z
#
# Youngs Moduli (GPa) = 94.44735 47.92227 14.57001
#
# Poissons Ratio (x) = 0.17925 0.03960
# Poissons Ratio (y) = 0.35327 0.26511
# Poissons Ratio (z) = 0.25668 0.87197
#
# Static dielectric constant tensor:
#      x y z
#    x 1.632820 0.000000 0.000000 
#    y 0.000000 1.578050 0.000000 
#    z 0.000000 0.000000 1.607580 
# 
# From -- ./inp_files/52036.got.cif
#   From: 2010.05.17/outbox.cif.g08.bks.cpg/sg71_27_cif.got.tgz:52036.got - 2010.06.03 16:22:01.
