data_PCOD9521693
_publ_section_title
;
Structure prediction by ZEFSAII (Michael W. Deem and Ramdas Pophale) SiO2 
 PCOD9521693
Probable space group: I M M M
;
_chemical_formula_sum "Si O2"
_cell_formula_units_Z 104
_cell_length_a 23.340743
_cell_length_b 28.443291
_cell_length_c 8.765789
_cell_angle_alpha 90.000000
_cell_angle_beta 90.000000
_cell_angle_gamma 90.000000
_cell_volume 5819.498142
_symmetry_space_group_name_H-M "I M M M"
_symmetry_group_IT_number 71
_symmetry_cell_setting 'orthorhombic'
loop_
_space_group_symop_operation_xyz
x,y,z
-x,-y,z
x,-y,-z
-x,y,-z
-x,-y,-z
x,y,-z
-x,y,z
x,-y,z
1/2+x,1/2+y,1/2+z
1/2-x,1/2-y,1/2+z
1/2+x,1/2-y,1/2-z
1/2-x,1/2+y,1/2-z
1/2-x,1/2-y,1/2-z
1/2+x,1/2+y,1/2-z
1/2-x,1/2+y,1/2+z
1/2+x,1/2-y,1/2+z
loop_
_atom_site_type_symbol
_atom_site_label
_atom_site_fract_x
_atom_site_fract_y
_atom_site_fract_z
Si Si1 0.066530 0.053118 0.185548
Si Si2 0.623979 0.648973 0.684744
Si Si3 0.568908 0.098150 0.176937
Si Si4 0.243540 0.802488 0.182282
Si Si5 0.069628 0.500000 0.175829
Si Si6 0.860743 0.320119 0.179224
Si Si7 0.434537 0.263043 0.182179
O O1 0.107328 0.096080 0.233564
O O2 0.000000 0.061857 0.229856
O O3 0.082203 0.000000 0.235657
O O4 0.067396 0.052701 0.000000
O O5 0.621137 0.650717 0.500000
O O6 0.686258 0.669532 0.730410
O O7 0.578536 0.685427 0.753736
O O8 0.500000 0.100970 0.186844
O O9 0.587051 0.046936 0.235972
O O10 0.596981 0.137631 0.280465
O O11 0.584658 0.105360 0.000000
O O12 0.250000 0.750000 0.250000
O O13 0.300644 0.828373 0.237427
O O14 0.242300 0.798554 0.000000
O O15 0.000000 0.500000 0.174067
O O16 0.088763 0.500000 0.000000
O O17 0.890315 0.272929 0.242229
O O18 0.851404 0.315292 0.000000
O O19 0.500000 0.249116 0.217076
O O20 0.427187 0.262064 0.000000
#
# Coordination Sequence:
#
# PCOD9521693 Si02
#       7
#    16  16  16  16   8  16  16
#     4   8  14  27  51  84 117 143 171 217 274 327
#     4  10  20  34  56  82 107 142 186 226 268 325
#     4  10  20  35  56  82 112 144 179 225 280 333
#     4  11  22  37  56  78 106 143 186 230 273 323
#     4   9  17  31  53  81 111 143 179 217 262 325
#     4  12  24  37  55  78 105 144 186 229 278 328
#     4  11  23  36  52  78 112 145 175 218 276 332
#
# _framework density 17.870956
#
# number of rings (size 3 to 8) (size 9 to 14) (size 15 to 20)
#    0.000    1.769    1.538    4.385    0.000    6.154 
#    0.000    0.000    1.692    0.462    0.000    2.154 
#    0.000    0.000    0.000    0.000    0.000    0.000 
#
# Total GULP energy -290255.911836 kJ/mol
# GULP energy per Si atom -5581.844458 kJ/mol
# Density = 1.783028 g / cm^3
# Si number density = 17.870956 Si / 1000 Ang^3
#
#
#
# Elastic Constant Matrix: (Units=GPa)
#
#
# Indices 1 2 3 4 5 6 
#
# 1 76.6748 40.4106 27.2418 0.0000 0.0000 0.0000
# 2 40.4106 120.6846 13.7685 0.0000 0.0000 0.0000
# 3 27.2418 13.7685 37.3618 0.0000 0.0000 0.0000
# 4 0.0000 0.0000 0.0000 22.8642 0.0000 0.0000
# 5 0.0000 0.0000 0.0000 0.0000 21.0003 0.0000
# 6 0.0000 0.0000 0.0000 0.0000 0.0000 17.3441
#
#
#
# Elastic Compliance Matrix: (Units=1/GPa)
#
#
# Indices 1 2 3 4 5 6 
#
# 1 0.020478 -0.005380 -0.012949 0.000000 0.000000 0.000000
# 2 -0.005380 0.010063 0.000214 0.000000 0.000000 0.000000
# 3 -0.012949 0.000214 0.036128 0.000000 0.000000 0.000000
# 4 0.000000 0.000000 0.000000 0.043736 0.000000 0.000000
# 5 0.000000 0.000000 0.000000 0.000000 0.047618 0.000000
# 6 0.000000 0.000000 0.000000 0.000000 0.000000 0.057656
#
#
# Mechanical properties :
#
#
# Convention : Reuss Voigt Hill
#
# Bulk Modulus (GPa) = 32.85130 44.17369 38.51249
# Shear Modulus (GPa) = 19.07996 22.46176 20.77086
#
# Velocity S-wave (km/s) = 3.27104 3.54911 3.41291
# Velocity P-wave (km/s) = 5.71740 6.44722 6.09325
#
# Compressibility (1/GPa) = 0.03044020
#
# Stress axis : x y z
#
# Youngs Moduli (GPa) = 48.83309 99.37416 27.67951
#
# Poissons Ratio (x) = 0.53460 0.35841
# Poissons Ratio (y) = 0.26270 -0.00593
# Poissons Ratio (z) = 0.63233 -0.02127
#
# Static dielectric constant tensor:
#      x y z
#    x 1.619960 0.000000 0.000000 
#    y 0.000000 1.618670 0.000000 
#    z 0.000000 0.000000 1.602180 
# 
# From -- ./inp_files/11516.got.cif
#   From: 2010.05.17/outbox.cif.g08.bks.cpg/sg71_6_cif.got.tgz:11516.got - 2010.06.03 16:22:01.
