data_PCOD9521696
_publ_section_title
;
Structure prediction by ZEFSAII (Michael W. Deem and Ramdas Pophale) SiO2 
 PCOD9521696
Probable space group: I M M M
;
_chemical_formula_sum "Si O2"
_cell_formula_units_Z 72
_cell_length_a 29.434721
_cell_length_b 9.218891
_cell_length_c 14.119274
_cell_angle_alpha 90.000000
_cell_angle_beta 90.000000
_cell_angle_gamma 90.000000
_cell_volume 3831.342437
_symmetry_space_group_name_H-M "I M M M"
_symmetry_group_IT_number 71
_symmetry_cell_setting 'orthorhombic'
loop_
_space_group_symop_operation_xyz
x,y,z
-x,-y,z
x,-y,-z
-x,y,-z
-x,-y,-z
x,y,-z
-x,y,z
x,-y,z
1/2+x,1/2+y,1/2+z
1/2-x,1/2-y,1/2+z
1/2+x,1/2-y,1/2-z
1/2-x,1/2+y,1/2-z
1/2-x,1/2-y,1/2-z
1/2+x,1/2+y,1/2-z
1/2-x,1/2+y,1/2+z
1/2+x,1/2-y,1/2+z
loop_
_atom_site_type_symbol
_atom_site_label
_atom_site_fract_x
_atom_site_fract_y
_atom_site_fract_z
Si Si1 0.910381 0.825777 0.275969
Si Si2 0.318052 0.671318 0.112440
Si Si3 0.272402 0.334420 0.384706
Si Si4 0.865776 0.671896 0.111890
Si Si5 0.500000 0.676610 0.108894
O O1 0.865005 0.793019 0.336226
O O2 0.903779 0.745606 0.176675
O O3 0.954788 0.780699 0.334449
O O4 0.912086 0.000000 0.262073
O O5 0.309006 0.500000 0.124643
O O6 0.274395 0.760449 0.146705
O O7 0.323619 0.697005 0.000000
O O8 0.270538 0.336370 0.500000
O O9 0.276397 0.500000 0.351457
O O10 0.317513 0.244692 0.361564
O O11 0.863637 0.500000 0.127587
O O12 0.873126 0.697640 0.000000
O O13 0.500000 0.500000 0.105708
O O14 0.500000 0.727140 0.000000
#
# Coordination Sequence:
#
# PCOD9521696 Si02
#       5
#    16  16  16  16   8
#     4  10  20  34  56  83 107 137 178 221 265 313
#     4   9  17  30  49  76 110 144 177 214 260 317
#     4   9  17  30  50  76 106 141 180 221 263 308
#     4  10  21  37  55  75 104 143 182 221 266 314
#     4   9  18  36  62  89 114 138 169 213 264 317
#
# _framework density 18.792369999999998
#
# number of rings (size 3 to 8) (size 9 to 14) (size 15 to 20)
#    0.000    2.556    0.000    2.000    0.000    8.444 
#    0.000    1.111    0.000    6.000    0.000    0.000 
#    0.000    0.000    0.000    0.000    0.000    0.000 
#
# Total GULP energy -201053.022062 kJ/mol
# GULP energy per Si atom -5584.806168 kJ/mol
# Density = 1.874960 g / cm^3
# Si number density = 18.792370 Si / 1000 Ang^3
#
#
#
# Elastic Constant Matrix: (Units=GPa)
#
#
# Indices 1 2 3 4 5 6 
#
# 1 142.2033 61.5211 85.2174 0.0000 0.0000 0.0000
# 2 61.5211 57.8855 56.4315 0.0000 0.0000 0.0000
# 3 85.2174 56.4315 110.4804 0.0000 0.0000 0.0000
# 4 0.0000 0.0000 0.0000 21.3956 0.0000 0.0000
# 5 0.0000 0.0000 0.0000 0.0000 34.9988 0.0000
# 6 0.0000 0.0000 0.0000 0.0000 0.0000 22.9312
#
#
#
# Elastic Compliance Matrix: (Units=1/GPa)
#
#
# Indices 1 2 3 4 5 6 
#
# 1 0.015307 -0.009477 -0.006966 0.000000 0.000000 0.000000
# 2 -0.009477 0.040278 -0.013263 0.000000 0.000000 0.000000
# 3 -0.006966 -0.013263 0.021199 0.000000 0.000000 0.000000
# 4 0.000000 0.000000 0.000000 0.046739 0.000000 0.000000
# 5 0.000000 0.000000 0.000000 0.000000 0.028572 0.000000
# 6 0.000000 0.000000 0.000000 0.000000 0.000000 0.043609
#
#
# Mechanical properties :
#
#
# Convention : Reuss Voigt Hill
#
# Bulk Modulus (GPa) = 57.56651 79.65657 68.61154
# Shear Modulus (GPa) = 19.16402 23.02508 21.09455
#
# Velocity S-wave (km/s) = 3.19686 3.50413 3.35402
# Velocity P-wave (km/s) = 6.65777 7.67148 7.18254
#
# Compressibility (1/GPa) = 0.01737121
#
# Stress axis : x y z
#
# Youngs Moduli (GPa) = 65.33134 24.82750 47.17230
#
# Poissons Ratio (x) = 0.23530 0.32859
# Poissons Ratio (y) = 0.61916 0.62565
# Poissons Ratio (z) = 0.45508 0.32929
#
# Static dielectric constant tensor:
#      x y z
#    x 1.613830 0.000000 0.000000 
#    y 0.000000 1.632510 0.000000 
#    z 0.000000 0.000000 1.694390 
# 
# From -- ./inp_files/6008.got.cif
#   From: 2010.05.17/outbox.cif.g08.bks.cpg/sg71_4_cif.got.tgz:6008.got - 2010.06.03 16:22:01.
