data_PCOD9521204
_publ_section_title
;
Structure prediction by ZEFSAII (Michael W. Deem and Ramdas Pophale) SiO2 
 PCOD9521204
Probable space group: I M M M
;
_chemical_formula_sum "Si O2"
_cell_formula_units_Z 96
_cell_length_a 12.575320
_cell_length_b 29.881184
_cell_length_c 13.760481
_cell_angle_alpha 90.000000
_cell_angle_beta 90.000000
_cell_angle_gamma 90.000000
_cell_volume 5170.713346
_symmetry_space_group_name_H-M "I M M M"
_symmetry_group_IT_number 71
_symmetry_cell_setting 'orthorhombic'
loop_
_space_group_symop_operation_xyz
x,y,z
-x,-y,z
x,-y,-z
-x,y,-z
-x,-y,-z
x,y,-z
-x,y,z
x,-y,z
1/2+x,1/2+y,1/2+z
1/2-x,1/2-y,1/2+z
1/2+x,1/2-y,1/2-z
1/2-x,1/2+y,1/2-z
1/2-x,1/2-y,1/2-z
1/2+x,1/2+y,1/2-z
1/2-x,1/2+y,1/2+z
1/2+x,1/2-y,1/2+z
loop_
_atom_site_type_symbol
_atom_site_label
_atom_site_fract_x
_atom_site_fract_y
_atom_site_fract_z
Si Si1 0.825465 0.286134 0.616170
Si Si2 0.119196 0.794586 0.759600
Si Si3 0.195609 0.551283 0.108577
Si Si4 0.000000 0.639146 0.384907
Si Si5 0.871004 0.051376 0.891940
Si Si6 0.500000 0.051935 0.754809
Si Si7 0.375690 0.395128 0.200198
O O1 0.831094 0.278217 0.500000
O O2 0.867805 0.244755 0.680650
O O3 0.706158 0.291966 0.655697
O O4 0.897582 0.329717 0.638446
O O5 0.133199 0.842022 0.706502
O O6 0.000000 0.793175 0.800105
O O7 0.233574 0.500000 0.118317
O O8 0.294809 0.583505 0.125054
O O9 0.103516 0.557877 0.187065
O O10 0.151559 0.556753 0.000000
O O11 0.000000 0.631921 0.500000
O O12 0.000000 0.591580 0.332433
O O13 0.842372 0.083856 0.804672
O O14 0.000000 0.050900 0.895022
O O15 0.836730 0.000000 0.873527
O O16 0.833577 0.064699 0.000000
O O17 0.500000 0.000000 0.790625
O O18 0.500000 0.406755 0.183133
#
# Coordination Sequence:
#
# PCOD9521204 Si02
#       7
#    16  16  16   8  16   8  16
#     4  10  21  38  60  83 110 149 190 232 286 347
#     4  10  21  37  57  83 115 147 187 237 285 341
#     4  10  21  37  56  79 110 151 196 237 280 331
#     4  10  20  38  65  90 114 149 188 228 290 359
#     4   8  14  26  45  71 105 144 183 217 257 318
#     4  10  21  39  62  85 111 144 189 244 288 331
#     4  10  20  33  53  82 115 150 182 229 287 341
#
# _framework density 18.566102999999998
#
# number of rings (size 3 to 8) (size 9 to 14) (size 15 to 20)
#    0.000    2.333    0.833    2.250    0.000    4.167 
#    0.000    5.000    0.000    2.000    0.000    0.000 
#    0.000    0.000    0.000    0.000    0.000    0.000 
#
# Total GULP energy -267771.011224 kJ/mol
# GULP energy per Si atom -5578.562734 kJ/mol
# Density = 1.852385 g / cm^3
# Si number density = 18.566103 Si / 1000 Ang^3
#
#
#
# Elastic Constant Matrix: (Units=GPa)
#
#
# Indices 1 2 3 4 5 6 
#
# 1 84.8294 46.9328 27.4864 0.0002 0.0000 0.0001
# 2 46.9328 119.5267 58.8656 0.0001 0.0000 0.0000
# 3 27.4864 58.8656 75.1060 0.0007 0.0004 0.0001
# 4 0.0002 0.0001 0.0007 16.9326 0.0003 0.0000
# 5 0.0000 0.0000 0.0004 0.0003 15.1404 0.0000
# 6 0.0001 0.0000 0.0001 0.0000 0.0000 19.2618
#
#
#
# Elastic Compliance Matrix: (Units=1/GPa)
#
#
# Indices 1 2 3 4 5 6 
#
# 1 0.015155 -0.005243 -0.001437 0.000000 0.000000 0.000000
# 2 -0.005243 0.015440 -0.010182 0.000000 0.000000 0.000000
# 3 -0.001437 -0.010182 0.021821 -0.000001 -0.000001 0.000000
# 4 0.000000 0.000000 -0.000001 0.059058 -0.000001 0.000000
# 5 0.000000 0.000000 -0.000001 -0.000001 0.066048 0.000000
# 6 0.000000 0.000000 0.000000 0.000000 0.000000 0.051916
#
#
# Mechanical properties :
#
#
# Convention : Reuss Voigt Hill
#
# Bulk Modulus (GPa) = 53.50185 60.67020 57.08602
# Shear Modulus (GPa) = 18.56030 20.01213 19.28621
#
# Velocity S-wave (km/s) = 3.16521 3.28668 3.22652
# Velocity P-wave (km/s) = 6.49905 6.86672 6.68541
#
# Compressibility (1/GPa) = 0.01869094
#
# Stress axis : x y z
#
# Youngs Moduli (GPa) = 65.98641 64.76814 45.82744
#
# Poissons Ratio (x) = 0.33957 0.06585
# Poissons Ratio (y) = 0.34596 0.46663
# Poissons Ratio (z) = 0.09482 0.65949
#
# Static dielectric constant tensor:
#      x y z
#    x 1.652600 0.000000 0.000000 
#    y 0.000000 1.628810 0.000000 
#    z 0.000000 0.000000 1.632420 
# 
# From -- ./inp_files/33234.got.cif
#   From: 2010.05.17/outbox.cif.g08.bks.cpg/sg71_17_cif.got.tgz:33234.got - 2010.06.03 16:22:01.
