data_PCOD9521178
_publ_section_title
;
Structure prediction by ZEFSAII (Michael W. Deem and Ramdas Pophale) SiO2 
 PCOD9521178
Probable space group: I M M M
;
_chemical_formula_sum "Si O2"
_cell_formula_units_Z 104
_cell_length_a 22.976199
_cell_length_b 8.958676
_cell_length_c 30.226785
_cell_angle_alpha 90.000000
_cell_angle_beta 90.000000
_cell_angle_gamma 90.000000
_cell_volume 6221.770267
_symmetry_space_group_name_H-M "I M M M"
_symmetry_group_IT_number 71
_symmetry_cell_setting 'orthorhombic'
loop_
_space_group_symop_operation_xyz
x,y,z
-x,-y,z
x,-y,-z
-x,y,-z
-x,-y,-z
x,y,-z
-x,y,z
x,-y,z
1/2+x,1/2+y,1/2+z
1/2-x,1/2-y,1/2+z
1/2+x,1/2-y,1/2-z
1/2-x,1/2+y,1/2-z
1/2-x,1/2-y,1/2-z
1/2+x,1/2+y,1/2-z
1/2-x,1/2+y,1/2+z
1/2+x,1/2-y,1/2+z
loop_
_atom_site_type_symbol
_atom_site_label
_atom_site_fract_x
_atom_site_fract_y
_atom_site_fract_z
Si Si1 0.344081 0.822232 0.551610
Si Si2 0.280961 0.177074 0.052474
Si Si3 0.568875 0.677022 0.379714
Si Si4 0.389386 0.678243 0.898794
Si Si5 0.000000 0.323544 0.552987
Si Si6 0.070604 0.671856 0.211119
Si Si7 0.069224 0.320449 0.689800
O O1 0.357898 0.790912 0.500000
O O2 0.282891 0.742348 0.561821
O O3 0.393725 0.761191 0.583650
O O4 0.337660 0.000000 0.556568
O O5 0.330131 0.260239 0.080212
O O6 0.282621 0.000000 0.061082
O O7 0.292237 0.199761 0.000000
O O8 0.500000 0.711744 0.384286
O O9 0.576162 0.500000 0.384239
O O10 0.587721 0.729342 0.330640
O O11 0.391604 0.500000 0.900714
O O12 0.443077 0.747938 0.926324
O O13 0.397496 0.736052 0.848790
O O14 0.000000 0.500000 0.564042
O O15 0.000000 0.308602 0.500000
O O16 0.088955 0.500000 0.204132
O O17 0.088579 0.720616 0.260372
O O18 0.000000 0.671590 0.212557
O O19 0.075621 0.500000 0.685352
O O20 0.000000 0.288250 0.685300
#
# Coordination Sequence:
#
# PCOD9521178 Si02
#       7
#    16  16  16  16   8  16  16
#     4  10  21  37  57  80 106 137 175 219 260 304
#     4  10  21  38  58  76  98 135 179 218 260 315
#     4  10  20  33  52  81 114 145 174 209 255 308
#     4  12  23  33  50  77 106 136 173 221 270 316
#     4  11  23  37  51  69  99 139 179 221 272 323
#     4   8  15  29  50  75 102 137 176 214 256 305
#     4   9  17  31  51  73 102 139 177 217 263 316
#
# _framework density 16.715499999999999
#
# number of rings (size 3 to 8) (size 9 to 14) (size 15 to 20)
#    0.000    2.077    0.769    4.385    0.000    6.154 
#    0.000    3.077    0.000    0.923    0.000    0.000 
#    0.000    0.000    0.000    0.000    0.000    0.000 
#
# Total GULP energy -290224.403258 kJ/mol
# GULP energy per Si atom -5581.238524 kJ/mol
# Density = 1.667745 g / cm^3
# Si number density = 16.715500 Si / 1000 Ang^3
#
#
#
# Elastic Constant Matrix: (Units=GPa)
#
#
# Indices 1 2 3 4 5 6 
#
# 1 69.8552 57.3538 68.2969 0.0000 0.0000 0.0000
# 2 57.3538 96.8441 76.4516 0.0000 0.0000 0.0000
# 3 68.2969 76.4516 118.2962 0.0000 0.0000 0.0000
# 4 0.0000 0.0000 0.0000 21.6418 0.0000 0.0000
# 5 0.0000 0.0000 0.0000 0.0000 -5.5093 0.0000
# 6 0.0000 0.0000 0.0000 0.0000 0.0000 27.1981
#
#
#
# Elastic Compliance Matrix: (Units=1/GPa)
#
#
# Indices 1 2 3 4 5 6 
#
# 1 0.037393 -0.010418 -0.014856 0.000000 0.000000 0.000000
# 2 -0.010418 0.023984 -0.009485 0.000000 0.000000 0.000000
# 3 -0.014856 -0.009485 0.023160 0.000000 0.000000 0.000000
# 4 0.000000 0.000000 0.000000 0.046207 0.000000 0.000000
# 5 0.000000 0.000000 0.000000 0.000000 -0.181510 0.000000
# 6 0.000000 0.000000 0.000000 0.000000 0.000000 0.036767
#
#
# Mechanical properties :
#
#
# Convention : Reuss Voigt Hill
#
# Bulk Modulus (GPa) = 66.58126 76.57778 71.57952
# Shear Modulus (GPa) = 82.61114 14.19233 48.40173
#
# Velocity S-wave (km/s) = 7.03770 2.91701 5.38693
# Velocity P-wave (km/s) = 10.29356 7.56685 9.03368
#
# Compressibility (1/GPa) = 0.01501924
#
# Stress axis : x y z
#
# Youngs Moduli (GPa) = 26.74304 41.69524 43.17728
#
# Poissons Ratio (x) = 0.43436 0.64143
# Poissons Ratio (y) = 0.27860 0.40956
# Poissons Ratio (z) = 0.39729 0.39550
#
# Static dielectric constant tensor:
#      x y z
#    x 1.531730 0.000000 0.000000 
#    y 0.000000 1.552420 0.000000 
#    z 0.000000 0.000000 1.567720 
# 
# From -- ./inp_files/70713.got.cif
#   From: 2010.05.17/outbox.cif.g08.bks.cpg/sg71_36_cif.got.tgz:70713.got - 2010.06.03 16:22:01.
