data_PCOD9521749
_publ_section_title
;
Structure prediction by ZEFSAII (Michael W. Deem and Ramdas Pophale) SiO2 
 PCOD9521749
Probable space group: I M M M
;
_chemical_formula_sum "Si O2"
_cell_formula_units_Z 80
_cell_length_a 29.588106
_cell_length_b 18.835341
_cell_length_c 7.415705
_cell_angle_alpha 90.000000
_cell_angle_beta 90.000000
_cell_angle_gamma 90.000000
_cell_volume 4132.787718
_symmetry_space_group_name_H-M "I M M M"
_symmetry_group_IT_number 71
_symmetry_cell_setting 'orthorhombic'
loop_
_space_group_symop_operation_xyz
x,y,z
-x,-y,z
x,-y,-z
-x,y,-z
-x,-y,-z
x,y,-z
-x,y,z
x,-y,z
1/2+x,1/2+y,1/2+z
1/2-x,1/2-y,1/2+z
1/2+x,1/2-y,1/2-z
1/2-x,1/2+y,1/2-z
1/2-x,1/2-y,1/2-z
1/2+x,1/2+y,1/2-z
1/2-x,1/2+y,1/2+z
1/2+x,1/2-y,1/2+z
loop_
_atom_site_type_symbol
_atom_site_label
_atom_site_fract_x
_atom_site_fract_y
_atom_site_fract_z
Si Si1 0.550892 0.262471 0.284192
Si Si2 0.142740 0.578687 0.500000
Si Si3 0.692608 0.171631 0.717943
Si Si4 0.049680 0.637237 0.500000
Si Si5 0.852762 0.818566 0.784193
Si Si6 0.723559 0.420289 0.788486
O O1 0.553954 0.250375 0.500000
O O2 0.500000 0.291646 0.248038
O O3 0.554067 0.189841 0.171863
O O4 0.594999 0.307999 0.228846
O O5 0.161459 0.500000 0.500000
O O6 0.158973 0.619633 0.322157
O O7 0.089123 0.581445 0.500000
O O8 0.688968 0.168870 0.500000
O O9 0.677469 0.250630 0.775695
O O10 0.741380 0.140338 0.777212
O O11 0.000000 0.605789 0.500000
O O12 0.826682 0.889431 0.729934
O O13 0.852671 0.817375 0.000000
O O14 0.728783 0.500000 0.712177
O O15 0.733441 0.425928 0.000000
#
# Coordination Sequence:
#
# PCOD9521749 Si02
#       6
#    16   8  16   8  16  16
#     4   9  18  34  56  83 110 137 180 232 278 326
#     4  12  24  35  58  84 110 154 187 226 282 323
#     4  10  22  40  57  80 111 146 193 233 270 324
#     4  10  20  35  56  80 110 147 178 225 283 326
#     4  10  20  34  58  85 106 143 185 230 281 322
#     4  10  22  37  54  78 114 153 182 224 281 331
#
# _framework density 19.357392999999998
#
# number of rings (size 3 to 8) (size 9 to 14) (size 15 to 20)
#    0.000    2.000    2.000    1.200    4.200    1.800 
#    0.000    0.000    0.000    0.600    0.000    8.400 
#    0.000    0.000    0.000    0.000    0.000    0.000 
#
# Total GULP energy -222938.177385 kJ/mol
# GULP energy per Si atom -5573.454435 kJ/mol
# Density = 1.931333 g / cm^3
# Si number density = 19.357393 Si / 1000 Ang^3
#
#
#
# Elastic Constant Matrix: (Units=GPa)
#
#
# Indices 1 2 3 4 5 6 
#
# 1 140.1196 46.8071 8.9227 0.0000 0.0000 0.0000
# 2 46.8071 56.9529 3.2603 0.0000 0.0000 0.0000
# 3 8.9227 3.2603 57.5398 0.0000 0.0000 0.0000
# 4 0.0000 0.0000 0.0000 -14.0771 0.0000 0.0000
# 5 0.0000 0.0000 0.0000 0.0000 20.6395 0.0000
# 6 0.0000 0.0000 0.0000 0.0000 0.0000 -12.6251
#
#
#
# Elastic Compliance Matrix: (Units=1/GPa)
#
#
# Indices 1 2 3 4 5 6 
#
# 1 0.009904 -0.008078 -0.001078 0.000000 0.000000 0.000000
# 2 -0.008078 0.024204 -0.000119 0.000000 0.000000 0.000000
# 3 -0.001078 -0.000119 0.017553 0.000000 0.000000 0.000000
# 4 0.000000 0.000000 0.000000 -0.071038 0.000000 0.000000
# 5 0.000000 0.000000 0.000000 0.000000 0.048451 0.000000
# 6 0.000000 0.000000 0.000000 0.000000 0.000000 -0.079208
#
#
# Mechanical properties :
#
#
# Convention : Reuss Voigt Hill
#
# Bulk Modulus (GPa) = 30.20091 41.39914 35.80003
# Shear Modulus (GPa) = -243.34532 11.82897 -115.75818
#
# Velocity S-wave (km/s) = -11.22429 2.47469 -7.74147
# Velocity P-wave (km/s) = 12.34277 5.44046 7.83407
#
# Compressibility (1/GPa) = 0.03311159
#
# Stress axis : x y z
#
# Youngs Moduli (GPa) = 100.97132 41.31562 56.96969
#
# Poissons Ratio (x) = 0.33374 0.06142
# Poissons Ratio (y) = 0.81562 0.00677
# Poissons Ratio (z) = 0.10886 0.00491
#
# Static dielectric constant tensor:
#      x y z
#    x 1.727010 0.000000 0.000000 
#    y 0.000000 1.641700 0.000000 
#    z 0.000000 0.000000 1.754150 
# 
# From -- ./inp_files/8664.got.cif
#   From: 2010.05.17/outbox.cif.g08.bks.cpg/sg71_5_cif.got.tgz:8664.got - 2010.06.03 16:22:01.
