data_PCOD9521989
_publ_section_title
;
Structure prediction by ZEFSAII (Michael W. Deem and Ramdas Pophale) SiO2 
 PCOD9521989
Probable space group: I M M M
;
_chemical_formula_sum "Si O2"
_cell_formula_units_Z 72
_cell_length_a 17.676157
_cell_length_b 7.438635
_cell_length_c 23.178413
_cell_angle_alpha 90.000000
_cell_angle_beta 90.000000
_cell_angle_gamma 90.000000
_cell_volume 3047.647940
_symmetry_space_group_name_H-M "I M M M"
_symmetry_group_IT_number 71
_symmetry_cell_setting 'orthorhombic'
loop_
_space_group_symop_operation_xyz
x,y,z
-x,-y,z
x,-y,-z
-x,y,-z
-x,-y,-z
x,y,-z
-x,y,z
x,-y,z
1/2+x,1/2+y,1/2+z
1/2-x,1/2-y,1/2+z
1/2+x,1/2-y,1/2-z
1/2-x,1/2+y,1/2-z
1/2-x,1/2-y,1/2-z
1/2+x,1/2+y,1/2-z
1/2-x,1/2+y,1/2+z
1/2+x,1/2-y,1/2+z
loop_
_atom_site_type_symbol
_atom_site_label
_atom_site_fract_x
_atom_site_fract_y
_atom_site_fract_z
Si Si1 0.590321 0.285373 0.500000
Si Si2 0.796693 0.204557 0.663950
Si Si3 0.917324 0.779535 0.754440
Si Si4 0.633191 0.295219 0.375743
Si Si5 0.913754 0.717432 0.566099
O O1 0.608053 0.500000 0.500000
O O2 0.500000 0.262132 0.500000
O O3 0.622417 0.213673 0.439202
O O4 0.845850 0.281496 0.716779
O O5 0.720447 0.298228 0.643668
O O6 0.854804 0.206213 0.610848
O O7 0.775562 0.000000 0.678319
O O8 0.909451 0.717351 0.820357
O O9 0.000000 0.727381 0.731078
O O10 0.914499 0.000000 0.753550
O O11 0.604404 0.500000 0.380582
O O12 0.896901 0.767550 0.500000
O O13 0.910511 0.500000 0.569402
O O14 0.000000 0.771968 0.578958
#
# Coordination Sequence:
#
# PCOD9521989 Si02
#       5
#     8  16  16  16  16
#     4   9  18  34  59  87 106 131 182 237 277 318
#     4  11  22  34  52  80 115 149 181 218 271 336
#     4   9  18  34  56  80 107 142 185 233 279 323
#     4  10  20  35  57  82 109 142 182 231 280 323
#     4   9  19  36  56  77 104 141 186 233 276 320
#
# _framework density 23.624776000000001
#
# number of rings (size 3 to 8) (size 9 to 14) (size 15 to 20)
#    0.000    2.333    0.000    3.333    1.556    4.444 
#    0.000    2.222    0.000    6.000    0.000    0.000 
#    0.000    0.000    0.000    0.000    0.000    0.000 
#
# Total GULP energy -201200.725074 kJ/mol
# GULP energy per Si atom -5588.909030 kJ/mol
# Density = 2.357100 g / cm^3
# Si number density = 23.624776 Si / 1000 Ang^3
#
#
#
# Elastic Constant Matrix: (Units=GPa)
#
#
# Indices 1 2 3 4 5 6 
#
# 1 77.5300 -0.0176 53.3056 0.0000 0.0000 0.0000
# 2 -0.0176 74.6013 1.5836 0.0000 0.0000 0.0000
# 3 53.3056 1.5836 141.7556 0.0000 0.0000 0.0000
# 4 0.0000 0.0000 0.0000 -29.0232 0.0000 0.0000
# 5 0.0000 0.0000 0.0000 0.0000 65.4135 0.0000
# 6 0.0000 0.0000 0.0000 0.0000 0.0000 11.4583
#
#
#
# Elastic Compliance Matrix: (Units=1/GPa)
#
#
# Indices 1 2 3 4 5 6 
#
# 1 0.017397 0.000143 -0.006544 0.000000 0.000000 0.000000
# 2 0.000143 0.013409 -0.000204 0.000000 0.000000 0.000000
# 3 -0.006544 -0.000204 0.009517 0.000000 0.000000 0.000000
# 4 0.000000 0.000000 0.000000 -0.034455 0.000000 0.000000
# 5 0.000000 0.000000 0.000000 0.000000 0.015287 0.000000
# 6 0.000000 0.000000 0.000000 0.000000 0.000000 0.087273
#
#
# Mechanical properties :
#
#
# Convention : Reuss Voigt Hill
#
# Bulk Modulus (GPa) = 36.87972 44.84779 40.86376
# Shear Modulus (GPa) = 38.26259 25.50407 31.88333
#
# Velocity S-wave (km/s) = 4.02879 3.28921 3.67764
# Velocity P-wave (km/s) = 6.10623 5.78358 5.94709
#
# Compressibility (1/GPa) = 0.02711517
#
# Stress axis : x y z
#
# Youngs Moduli (GPa) = 57.47998 74.57703 105.07137
#
# Poissons Ratio (x) = -0.01067 0.68755
# Poissons Ratio (y) = -0.00822 0.02139
# Poissons Ratio (z) = 0.37613 0.01518
#
# Static dielectric constant tensor:
#      x y z
#    x 1.845610 0.000000 0.000000 
#    y 0.000000 1.956800 0.000000 
#    z 0.000000 0.000000 1.897650 
# 
# From -- ./inp_files/7976.got.cif
#   From: 2010.05.17/outbox.cif.g08.bks.cpg/sg71_4_cif.got.tgz:7976.got - 2010.06.03 16:22:01.
