data_PCOD9521015
_publ_section_title
;
Structure prediction by ZEFSAII (Michael W. Deem and Ramdas Pophale) SiO2 
 PCOD9521015
Probable space group: I M M M
;
_chemical_formula_sum "Si O2"
_cell_formula_units_Z 64
_cell_length_a 8.936088
_cell_length_b 18.263321
_cell_length_c 23.998942
_cell_angle_alpha 90.000000
_cell_angle_beta 90.000000
_cell_angle_gamma 90.000000
_cell_volume 3916.690779
_symmetry_space_group_name_H-M "I M M M"
_symmetry_group_IT_number 71
_symmetry_cell_setting 'orthorhombic'
loop_
_space_group_symop_operation_xyz
x,y,z
-x,-y,z
x,-y,-z
-x,y,-z
-x,-y,-z
x,y,-z
-x,y,z
x,-y,z
1/2+x,1/2+y,1/2+z
1/2-x,1/2-y,1/2+z
1/2+x,1/2-y,1/2-z
1/2-x,1/2+y,1/2-z
1/2-x,1/2-y,1/2-z
1/2+x,1/2+y,1/2-z
1/2-x,1/2+y,1/2+z
1/2+x,1/2-y,1/2+z
loop_
_atom_site_type_symbol
_atom_site_label
_atom_site_fract_x
_atom_site_fract_y
_atom_site_fract_z
Si Si1 0.681211 0.000000 0.261375
Si Si2 0.177737 0.582427 0.865587
Si Si3 0.319641 0.000000 0.866117
Si Si4 0.322423 0.711261 0.934747
Si Si5 0.678483 0.632457 0.565713
O O1 0.722591 0.069187 0.300685
O O2 0.500000 0.000000 0.260314
O O3 0.733059 0.000000 0.198354
O O4 0.200187 0.500000 0.889967
O O5 0.266310 0.644596 0.897177
O O6 0.000000 0.597880 0.868075
O O7 0.257963 0.928910 0.897652
O O8 0.500000 0.000000 0.867178
O O9 0.500000 0.721593 0.928862
O O10 0.238943 0.786765 0.920414
O O11 0.290346 0.695460 0.000000
O O12 0.710811 0.619556 0.500000
O O13 0.500000 0.628988 0.573111
#
# Coordination Sequence:
#
# PCOD9521015 Si02
#       5
#     8  16   8  16  16
#     4   7  16  34  53  74 100 133 170 209 246 291
#     4   8  16  33  54  73 100 136 172 206 243 295
#     4  11  20  34  57  79 101 130 166 209 258 301
#     4  10  20  33  50  76 107 134 165 209 257 298
#     4  10  21  36  53  75 104 135 168 205 247 302
#
# _framework density 16.340326000000001
#
# number of rings (size 3 to 8) (size 9 to 14) (size 15 to 20)
#    0.750    2.000    0.000    2.250    0.000    5.500 
#    0.000    6.250    0.000    0.000    0.000    0.000 
#    0.000    0.000    0.000    0.000    0.000    0.000 
#
# Total GULP energy -178146.782261 kJ/mol
# GULP energy per Si atom -5567.086946 kJ/mol
# Density = 1.630313 g / cm^3
# Si number density = 16.340326 Si / 1000 Ang^3
#
#
#
# Elastic Constant Matrix: (Units=GPa)
#
#
# Indices 1 2 3 4 5 6 
#
# 1 53.0138 50.8630 49.7720 0.0000 0.0000 0.0000
# 2 50.8630 113.7839 86.5409 0.0000 0.0000 0.0000
# 3 49.7720 86.5409 103.2006 0.0000 0.0000 0.0000
# 4 0.0000 0.0000 0.0000 -16.1803 0.0000 0.0000
# 5 0.0000 0.0000 0.0000 0.0000 22.2720 0.0000
# 6 0.0000 0.0000 0.0000 0.0000 0.0000 34.0364
#
#
#
# Elastic Compliance Matrix: (Units=1/GPa)
#
#
# Indices 1 2 3 4 5 6 
#
# 1 0.037052 -0.008204 -0.010990 0.000000 0.000000 0.000000
# 2 -0.008204 0.026081 -0.017914 0.000000 0.000000 0.000000
# 3 -0.010990 -0.017914 0.030012 0.000000 0.000000 0.000000
# 4 0.000000 0.000000 0.000000 -0.061804 0.000000 0.000000
# 5 0.000000 0.000000 0.000000 0.000000 0.044899 0.000000
# 6 0.000000 0.000000 0.000000 0.000000 0.000000 0.029380
#
#
# Mechanical properties :
#
#
# Convention : Reuss Voigt Hill
#
# Bulk Modulus (GPa) = 52.82820 71.59448 62.21134
# Shear Modulus (GPa) = 26.86055 13.54712 20.20384
#
# Velocity S-wave (km/s) = 4.05880 2.88246 3.52012
# Velocity P-wave (km/s) = 7.37328 7.41538 7.39436
#
# Compressibility (1/GPa) = 0.01892929
#
# Stress axis : x y z
#
# Youngs Moduli (GPa) = 26.98883 38.34249 33.32002
#
# Poissons Ratio (x) = 0.31458 0.36618
# Poissons Ratio (y) = 0.22143 0.59688
# Poissons Ratio (z) = 0.29660 0.68686
#
# Static dielectric constant tensor:
#      x y z
#    x 1.541420 0.000000 0.000000 
#    y 0.000000 1.522900 0.000000 
#    z 0.000000 0.000000 1.555070 
# 
# From -- ./inp_files/57185.got.cif
#   From: 2010.05.17/outbox.cif.g08.bks.cpg/sg71_29_cif.got.tgz:57185.got - 2010.06.03 16:22:01.
