data_PCOD9521770
_publ_section_title
;
Structure prediction by ZEFSAII (Michael W. Deem and Ramdas Pophale) SiO2 
 PCOD9521770
Probable space group: I M M M
;
_chemical_formula_sum "Si O2"
_cell_formula_units_Z 90
_cell_length_a 12.127621
_cell_length_b 26.419998
_cell_length_c 16.764318
_cell_angle_alpha 90.000000
_cell_angle_beta 90.000000
_cell_angle_gamma 90.000000
_cell_volume 5371.484008
_symmetry_space_group_name_H-M "I M M M"
_symmetry_group_IT_number 71
_symmetry_cell_setting 'orthorhombic'
loop_
_space_group_symop_operation_xyz
x,y,z
-x,-y,z
x,-y,-z
-x,y,-z
-x,-y,-z
x,y,-z
-x,y,z
x,-y,z
1/2+x,1/2+y,1/2+z
1/2-x,1/2-y,1/2+z
1/2+x,1/2-y,1/2-z
1/2-x,1/2+y,1/2-z
1/2-x,1/2-y,1/2-z
1/2+x,1/2+y,1/2-z
1/2-x,1/2+y,1/2+z
1/2+x,1/2-y,1/2+z
loop_
_atom_site_type_symbol
_atom_site_label
_atom_site_fract_x
_atom_site_fract_y
_atom_site_fract_z
Si Si1 0.130875 0.138099 0.246704
Si Si2 0.208861 0.769584 0.335605
Si Si3 0.130577 0.203545 0.912411
Si Si4 0.628561 0.560977 0.500000
Si Si5 0.500000 0.211572 0.907068
Si Si6 0.261135 0.939587 0.164594
Si Si7 0.500000 0.907317 0.871577
Si Si8 0.000000 0.500000 0.500000
O O1 0.175687 0.172774 0.318311
O O2 0.155595 0.167381 0.162539
O O3 0.186681 0.084257 0.233735
O O4 0.000000 0.134319 0.253248
O O5 0.250000 0.750000 0.250000
O O6 0.305491 0.755662 0.396616
O O7 0.105412 0.736267 0.364196
O O8 0.000000 0.211254 0.911503
O O9 0.162146 0.182935 0.000000
O O10 0.617569 0.500000 0.500000
O O11 0.500000 0.581092 0.500000
O O12 0.699973 0.572104 0.420555
O O13 0.500000 0.150549 0.902362
O O14 0.500000 0.225859 0.000000
O O15 0.381964 0.914830 0.170549
O O16 0.270334 0.000000 0.168597
O O17 0.500000 0.954616 0.932654
#
# Coordination Sequence:
#
# PCOD9521770 Si02
#       8
#    16  16  16   8   8  16   8   2
#     4  10  20  35  52  71 104 142 175 225 283 318
#     4  10  20  36  52  74 108 140 182 230 281 329
#     4   9  18  32  51  74 101 134 175 218 260 319
#     4   9  19  32  47  69  97 133 180 233 259 293
#     4  12  24  36  60  84 106 149 204 232 271 329
#     4  11  22  34  51  72 103 141 184 223 269 324
#     4  12  22  36  50  76 110 150 180 228 270 306
#     4  12  20  36  48  64 122 148 180 220 264 294
#
# _framework density 16.755146
#
# number of rings (size 3 to 8) (size 9 to 14) (size 15 to 20)
#    0.000    1.689    2.222    3.733    3.733    1.067 
#    1.600    0.000    0.000    0.000    0.000    0.000 
#    0.000    3.556    0.000    1.956    0.000    0.000 
#
# Total GULP energy -250526.923297 kJ/mol
# GULP energy per Si atom -5567.264962 kJ/mol
# Density = 1.671701 g / cm^3
# Si number density = 16.755146 Si / 1000 Ang^3
#
#
#
# Elastic Constant Matrix: (Units=GPa)
#
#
# Indices 1 2 3 4 5 6 
#
# 1 52.7609 25.3603 18.0639 0.0000 0.0000 0.0000
# 2 25.3603 71.8514 26.6570 -0.0001 0.0000 0.0000
# 3 18.0639 26.6570 40.6869 -0.0001 0.0000 0.0000
# 4 0.0000 -0.0001 -0.0001 23.7857 0.0000 0.0000
# 5 0.0000 0.0000 0.0000 0.0000 161.3419 0.0000
# 6 0.0000 0.0000 0.0000 0.0000 0.0000 21.1303
#
#
#
# Elastic Compliance Matrix: (Units=1/GPa)
#
#
# Indices 1 2 3 4 5 6 
#
# 1 0.024168 -0.006010 -0.006792 0.000000 0.000000 0.000000
# 2 -0.006010 0.019882 -0.010358 0.000000 0.000000 0.000000
# 3 -0.006792 -0.010358 0.034380 0.000000 0.000000 0.000000
# 4 0.000000 0.000000 0.000000 0.042042 0.000000 0.000000
# 5 0.000000 0.000000 0.000000 0.000000 0.006198 0.000000
# 6 0.000000 0.000000 0.000000 0.000000 0.000000 0.047325
#
#
# Mechanical properties :
#
#
# Convention : Reuss Voigt Hill
#
# Bulk Modulus (GPa) = 31.14385 33.94018 32.54201
# Shear Modulus (GPa) = 21.64338 47.59942 34.62140
#
# Velocity S-wave (km/s) = 3.59798 5.33578 4.55060
# Velocity P-wave (km/s) = 5.99071 7.63290 6.86112
#
# Compressibility (1/GPa) = 0.03210907
#
# Stress axis : x y z
#
# Youngs Moduli (GPa) = 41.37738 50.29765 29.08709
#
# Poissons Ratio (x) = 0.30230 0.19756
# Poissons Ratio (y) = 0.24869 0.30127
# Poissons Ratio (z) = 0.28104 0.52096
#
# Static dielectric constant tensor:
#      x y z
#    x 1.659050 0.000000 0.000000 
#    y 0.000000 1.601750 0.000000 
#    z 0.000000 0.000000 1.559690 
# 
# From -- ./inp_files/43962.got.cif
#   From: 2010.05.17/outbox.cif.g08.bks.cpg/sg71_22_cif.got.tgz:43962.got - 2010.06.03 16:22:01.
