data_PCOD9521839
_publ_section_title
;
Structure prediction by ZEFSAII (Michael W. Deem and Ramdas Pophale) SiO2 
 PCOD9521839
Probable space group: I M M M
;
_chemical_formula_sum "Si O2"
_cell_formula_units_Z 80
_cell_length_a 8.201752
_cell_length_b 27.696781
_cell_length_c 19.387389
_cell_angle_alpha 90.000000
_cell_angle_beta 90.000000
_cell_angle_gamma 90.000000
_cell_volume 4404.080560
_symmetry_space_group_name_H-M "I M M M"
_symmetry_group_IT_number 71
_symmetry_cell_setting 'orthorhombic'
loop_
_space_group_symop_operation_xyz
x,y,z
-x,-y,z
x,-y,-z
-x,y,-z
-x,-y,-z
x,y,-z
-x,y,z
x,-y,z
1/2+x,1/2+y,1/2+z
1/2-x,1/2-y,1/2+z
1/2+x,1/2-y,1/2-z
1/2-x,1/2+y,1/2-z
1/2-x,1/2-y,1/2-z
1/2+x,1/2+y,1/2-z
1/2-x,1/2+y,1/2+z
1/2+x,1/2-y,1/2+z
loop_
_atom_site_type_symbol
_atom_site_label
_atom_site_fract_x
_atom_site_fract_y
_atom_site_fract_z
Si Si1 0.305482 0.845900 0.423055
Si Si2 0.694218 0.700388 0.216038
Si Si3 0.698795 0.443614 0.575821
Si Si4 0.300989 0.601275 0.282702
Si Si5 0.197141 0.946306 0.640930
O O1 0.243217 0.834780 0.500000
O O2 0.500000 0.842947 0.423690
O O3 0.244621 0.810576 0.362666
O O4 0.257954 0.900821 0.402911
O O5 0.500000 0.699160 0.218150
O O6 0.750000 0.750000 0.250000
O O7 0.755531 0.654248 0.259840
O O8 0.752501 0.426436 0.500000
O O9 0.500000 0.441698 0.576211
O O10 0.742323 0.500000 0.582523
O O11 0.757716 0.415017 0.642521
O O12 0.500000 0.601634 0.284655
O O13 0.256775 0.565112 0.220462
O O14 0.000000 0.945688 0.637414
O O15 0.252856 0.000000 0.620471
#
# Coordination Sequence:
#
# PCOD9521839 Si02
#       5
#    16  16  16  16  16
#     4  10  21  36  53  74 101 131 164 206 255 303
#     4  10  20  35  55  75  96 126 164 205 251 301
#     4   8  12  18  32  57  89 122 151 181 222 271
#     4   8  14  25  41  62  90 124 161 199 237 282
#     4   9  17  29  47  71  99 134 172 206 244 296
#
# _framework density 18.164973
#
# number of rings (size 3 to 8) (size 9 to 14) (size 15 to 20)
#    0.000    3.000    0.000    3.600    0.000    4.800 
#    0.000    3.000    0.000    3.600    0.000    0.000 
#    0.000    7.200    0.000   64.200    0.000   58.000 
#
# Total GULP energy -222880.519723 kJ/mol
# GULP energy per Si atom -5572.012993 kJ/mol
# Density = 1.812363 g / cm^3
# Si number density = 18.164973 Si / 1000 Ang^3
#
#
#
# Elastic Constant Matrix: (Units=GPa)
#
#
# Indices 1 2 3 4 5 6 
#
# 1 18.9162 15.7157 16.5815 0.0000 0.0000 0.0000
# 2 15.7157 100.9073 65.4925 0.0000 0.0000 0.0000
# 3 16.5815 65.4925 168.7959 0.0000 0.0000 0.0000
# 4 0.0000 0.0000 0.0000 12.9856 0.0000 0.0000
# 5 0.0000 0.0000 0.0000 0.0000 14.2266 0.0000
# 6 0.0000 0.0000 0.0000 0.0000 0.0000 21.4232
#
#
#
# Elastic Compliance Matrix: (Units=1/GPa)
#
#
# Indices 1 2 3 4 5 6 
#
# 1 0.061934 -0.007615 -0.003130 0.000000 0.000000 0.000000
# 2 -0.007615 0.014182 -0.004755 0.000000 0.000000 0.000000
# 3 -0.003130 -0.004755 0.008076 0.000000 0.000000 0.000000
# 4 0.000000 0.000000 0.000000 0.077008 0.000000 0.000000
# 5 0.000000 0.000000 0.000000 0.000000 0.070291 0.000000
# 6 0.000000 0.000000 0.000000 0.000000 0.000000 0.046678
#
#
# Mechanical properties :
#
#
# Convention : Reuss Voigt Hill
#
# Bulk Modulus (GPa) = 18.79873 53.79989 36.29931
# Shear Modulus (GPa) = 15.29521 22.44906 18.87213
#
# Velocity S-wave (km/s) = 2.90490 3.51927 3.22674
# Velocity P-wave (km/s) = 4.65001 6.79672 5.82314
#
# Compressibility (1/GPa) = 0.05319510
#
# Stress axis : x y z
#
# Youngs Moduli (GPa) = 16.14614 70.51246 123.81616
#
# Poissons Ratio (x) = 0.53693 0.38749
# Poissons Ratio (y) = 0.12295 0.58869
# Poissons Ratio (z) = 0.05053 0.33525
#
# Static dielectric constant tensor:
#      x y z
#    x 1.644700 0.000000 0.000000 
#    y 0.000000 1.624770 0.000000 
#    z 0.000000 0.000000 1.655750 
# 
# From -- ./inp_files/8611.got.cif
#   From: 2010.05.17/outbox.cif.g08.bks.cpg/sg71_5_cif.got.tgz:8611.got - 2010.06.03 16:22:01.
