data_PCOD9521899
_publ_section_title
;
Structure prediction by ZEFSAII (Michael W. Deem and Ramdas Pophale) SiO2 
 PCOD9521899
Probable space group: I M M M
;
_chemical_formula_sum "Si O2"
_cell_formula_units_Z 116
_cell_length_a 27.004322
_cell_length_b 7.893286
_cell_length_c 27.624644
_cell_angle_alpha 90.000000
_cell_angle_beta 90.000000
_cell_angle_gamma 90.000000
_cell_volume 5888.271234
_symmetry_space_group_name_H-M "I M M M"
_symmetry_group_IT_number 71
_symmetry_cell_setting 'orthorhombic'
loop_
_space_group_symop_operation_xyz
x,y,z
-x,-y,z
x,-y,-z
-x,y,-z
-x,-y,-z
x,y,-z
-x,y,z
x,-y,z
1/2+x,1/2+y,1/2+z
1/2-x,1/2-y,1/2+z
1/2+x,1/2-y,1/2-z
1/2-x,1/2+y,1/2-z
1/2-x,1/2-y,1/2-z
1/2+x,1/2+y,1/2-z
1/2-x,1/2+y,1/2+z
1/2+x,1/2-y,1/2+z
loop_
_atom_site_type_symbol
_atom_site_label
_atom_site_fract_x
_atom_site_fract_y
_atom_site_fract_z
Si Si1 0.132902 0.304460 0.349734
Si Si2 0.893179 0.197417 0.927619
Si Si3 0.057667 0.697512 0.168068
Si Si4 0.555984 0.302253 0.228239
Si Si5 0.783730 0.796390 0.898701
Si Si6 0.819543 0.707423 0.445702
Si Si7 0.265553 0.697015 0.196391
Si Si8 0.579352 0.000000 0.500000
O O1 0.118884 0.500000 0.354635
O O2 0.091307 0.220440 0.317266
O O3 0.143755 0.233837 0.403318
O O4 0.185706 0.293418 0.322324
O O5 0.913126 0.203721 0.872832
O O6 0.835023 0.245798 0.924623
O O7 0.897976 0.000000 0.944383
O O8 0.919089 0.345884 0.958412
O O9 0.059542 0.500000 0.155612
O O10 0.076467 0.717986 0.222895
O O11 0.000000 0.752022 0.168524
O O12 0.500000 0.237583 0.219144
O O13 0.552993 0.500000 0.239375
O O14 0.735866 0.741409 0.929545
O O15 0.776447 0.727168 0.844396
O O16 0.782316 0.000000 0.894917
O O17 0.830717 0.763024 0.500000
O O18 0.820087 0.500000 0.445083
O O19 0.278442 0.500000 0.196755
O O20 0.250000 0.750000 0.250000
#
# Coordination Sequence:
#
# PCOD9521899 Si02
#       8
#    16  16  16  16  16  16  16   4
#     4  10  20  35  55  83 117 150 191 239 291 353
#     4  11  24  42  65  89 119 159 199 253 309 359
#     4  10  21  40  64  90 118 148 190 243 299 367
#     4  10  21  37  60  88 117 152 193 240 297 359
#     4   9  20  36  55  82 113 149 198 240 292 349
#     4   8  15  31  55  81 111 149 191 239 287 339
#     4  11  22  35  53  77 112 154 193 235 288 350
#     4  12  26  44  61  92 124 150 210 252 305 358
#
# _framework density 19.70018
#
# number of rings (size 3 to 8) (size 9 to 14) (size 15 to 20)
#    0.000    2.069    0.690    3.517    3.862    1.655 
#    0.000    0.690    0.000    8.690    0.000    2.897 
#    0.000    0.000    0.000    0.000    0.000    0.000 
#
# Total GULP energy -323151.040330 kJ/mol
# GULP energy per Si atom -5571.569661 kJ/mol
# Density = 1.965534 g / cm^3
# Si number density = 19.700180 Si / 1000 Ang^3
#
#
#
# Elastic Constant Matrix: (Units=GPa)
#
#
# Indices 1 2 3 4 5 6 
#
# 1 28.3345 4.3997 28.6357 0.0000 0.0000 0.0000
# 2 4.3997 63.3246 13.1680 0.0000 0.0000 0.0000
# 3 28.6357 13.1680 148.6174 0.0000 0.0000 0.0000
# 4 0.0000 0.0000 0.0000 -92.7302 0.0000 0.0000
# 5 0.0000 0.0000 0.0000 0.0000 4.6196 0.0000
# 6 0.0000 0.0000 0.0000 0.0000 0.0000 18.9712
#
#
#
# Elastic Compliance Matrix: (Units=1/GPa)
#
#
# Indices 1 2 3 4 5 6 
#
# 1 0.043935 -0.001316 -0.008349 0.000000 0.000000 0.000000
# 2 -0.001316 0.016128 -0.001175 0.000000 0.000000 0.000000
# 3 -0.008349 -0.001175 0.008441 0.000000 0.000000 0.000000
# 4 0.000000 0.000000 0.000000 -0.010784 0.000000 0.000000
# 5 0.000000 0.000000 0.000000 0.000000 0.216471 0.000000
# 6 0.000000 0.000000 0.000000 0.000000 0.000000 0.052712
#
#
# Mechanical properties :
#
#
# Convention : Reuss Voigt Hill
#
# Bulk Modulus (GPa) = 21.35720 36.96480 29.16100
# Shear Modulus (GPa) = 13.72909 -0.88970 6.41970
#
# Velocity S-wave (km/s) = 2.64275 -0.67275 1.80715
# Velocity P-wave (km/s) = 4.49187 4.26626 4.38051
#
# Compressibility (1/GPa) = 0.04682261
#
# Stress axis : x y z
#
# Youngs Moduli (GPa) = 22.76114 62.00579 118.46301
#
# Poissons Ratio (x) = 0.08163 0.98901
# Poissons Ratio (y) = 0.02996 0.13923
# Poissons Ratio (z) = 0.19003 0.07288
#
# Static dielectric constant tensor:
#      x y z
#    x 1.700220 0.000000 0.000000 
#    y 0.000000 1.711160 0.000000 
#    z 0.000000 0.000000 1.701600 
# 
# From -- ./inp_files/62078.got.cif
#   From: 2010.05.17/outbox.cif.g08.bks.cpg/sg71_32_cif.got.tgz:62078.got - 2010.06.03 16:22:01.
