data_PCOD9521615
_publ_section_title
;
Structure prediction by ZEFSAII (Michael W. Deem and Ramdas Pophale) SiO2 
 PCOD9521615
Probable space group: I M M M
;
_chemical_formula_sum "Si O2"
_cell_formula_units_Z 104
_cell_length_a 20.638292
_cell_length_b 31.993600
_cell_length_c 9.262525
_cell_angle_alpha 90.000000
_cell_angle_beta 90.000000
_cell_angle_gamma 90.000000
_cell_volume 6115.982818
_symmetry_space_group_name_H-M "I M M M"
_symmetry_group_IT_number 71
_symmetry_cell_setting 'orthorhombic'
loop_
_space_group_symop_operation_xyz
x,y,z
-x,-y,z
x,-y,-z
-x,y,-z
-x,-y,-z
x,y,-z
-x,y,z
x,-y,z
1/2+x,1/2+y,1/2+z
1/2-x,1/2-y,1/2+z
1/2+x,1/2-y,1/2-z
1/2-x,1/2+y,1/2-z
1/2-x,1/2-y,1/2-z
1/2+x,1/2+y,1/2-z
1/2-x,1/2+y,1/2+z
1/2+x,1/2-y,1/2+z
loop_
_atom_site_type_symbol
_atom_site_label
_atom_site_fract_x
_atom_site_fract_y
_atom_site_fract_z
Si Si1 0.000000 0.449782 0.334491
Si Si2 0.425875 0.777493 0.828685
Si Si3 0.371029 0.072887 0.334030
Si Si4 0.755796 0.045844 0.171899
Si Si5 0.806197 0.136775 0.827400
Si Si6 0.179839 0.332414 0.833267
Si Si7 0.925701 0.177527 0.329537
O O1 0.936366 0.434686 0.252517
O O2 0.000000 0.500000 0.334649
O O3 0.000000 0.435030 0.500000
O O4 0.500000 0.789371 0.786897
O O5 0.370594 0.801059 0.740681
O O6 0.419853 0.727568 0.809284
O O7 0.418998 0.786261 0.000000
O O8 0.377665 0.059399 0.500000
O O9 0.311499 0.049877 0.256735
O O10 0.353076 0.121842 0.331823
O O11 0.796474 0.087413 0.207736
O O12 0.785095 0.000000 0.202170
O O13 0.742592 0.047882 0.000000
O O14 0.746751 0.161816 0.753758
O O15 0.872998 0.153800 0.764340
O O16 0.803143 0.141543 0.000000
O O17 0.192710 0.320857 0.000000
O O18 0.915064 0.169290 0.500000
O O19 0.000000 0.166063 0.294678
#
# Coordination Sequence:
#
# PCOD9521615 Si02
#       7
#     8  16  16  16  16  16  16
#     4  11  23  35  47  65  91 129 175 217 261 311
#     4   9  19  35  54  76 102 137 179 218 257 304
#     4  10  21  34  48  70  99 130 168 215 262 306
#     4   9  18  34  54  75 101 132 167 208 254 305
#     4  10  20  34  55  81 106 134 172 213 255 306
#     4  10  21  35  51  74 105 138 173 214 261 307
#     4   9  19  37  58  79 106 137 168 207 258 310
#
# _framework density 17.004626999999999
#
# number of rings (size 3 to 8) (size 9 to 14) (size 15 to 20)
#    0.000    2.385    0.000    3.000    1.077    7.077 
#    0.000    1.538    0.000    0.462    0.000    3.231 
#    0.000    0.000    0.000    0.000    0.000    0.000 
#
# Total GULP energy -290122.860180 kJ/mol
# GULP energy per Si atom -5579.285773 kJ/mol
# Density = 1.696592 g / cm^3
# Si number density = 17.004627 Si / 1000 Ang^3
#
#
#
# Elastic Constant Matrix: (Units=GPa)
#
#
# Indices 1 2 3 4 5 6 
#
# 1 128.3859 64.0135 78.5122 0.0000 0.0000 0.0000
# 2 64.0135 60.1863 52.6560 0.0000 0.0000 0.0000
# 3 78.5122 52.6560 86.3662 0.0003 0.0003 0.0001
# 4 0.0000 0.0000 0.0003 25.1917 0.0001 0.0000
# 5 0.0000 0.0000 0.0003 0.0001 36.1968 0.0000
# 6 0.0000 0.0000 0.0001 0.0000 0.0000 7.8955
#
#
#
# Elastic Compliance Matrix: (Units=1/GPa)
#
#
# Indices 1 2 3 4 5 6 
#
# 1 0.020951 -0.012046 -0.011702 0.000000 0.000000 0.000000
# 2 -0.012046 0.042534 -0.014982 0.000000 0.000000 0.000000
# 3 -0.011702 -0.014982 0.031351 0.000000 0.000000 0.000000
# 4 0.000000 0.000000 0.000000 0.039696 0.000000 0.000000
# 5 0.000000 0.000000 0.000000 0.000000 0.027627 0.000000
# 6 0.000000 0.000000 0.000000 0.000000 0.000000 0.126655
#
#
# Mechanical properties :
#
#
# Convention : Reuss Voigt Hill
#
# Bulk Modulus (GPa) = 57.54814 73.92243 65.73529
# Shear Modulus (GPa) = 13.43852 19.17392 16.30622
#
# Velocity S-wave (km/s) = 2.81425 3.36158 3.10002
# Velocity P-wave (km/s) = 6.66904 7.65723 7.18016
#
# Compressibility (1/GPa) = 0.01737676
#
# Stress axis : x y z
#
# Youngs Moduli (GPa) = 47.73053 23.51042 31.89731
#
# Poissons Ratio (x) = 0.28320 0.37325
# Poissons Ratio (y) = 0.57494 0.47789
# Poissons Ratio (z) = 0.55853 0.35224
#
# Static dielectric constant tensor:
#      x y z
#    x 1.537520 0.000000 0.000000 
#    y 0.000000 1.584080 0.000000 
#    z 0.000000 0.000000 1.571480 
# 
# From -- ./inp_files/11083.got.cif
#   From: 2010.05.17/outbox.cif.g08.bks.cpg/sg71_6_cif.got.tgz:11083.got - 2010.06.03 16:22:01.
