data_PCOD9521266
_publ_section_title
;
Structure prediction by ZEFSAII (Michael W. Deem and Ramdas Pophale) SiO2 
 PCOD9521266
Probable space group: I M M M
;
_chemical_formula_sum "Si O2"
_cell_formula_units_Z 96
_cell_length_a 14.273666
_cell_length_b 23.864382
_cell_length_c 15.393379
_cell_angle_alpha 90.000000
_cell_angle_beta 90.000000
_cell_angle_gamma 90.000000
_cell_volume 5243.480831
_symmetry_space_group_name_H-M "I M M M"
_symmetry_group_IT_number 71
_symmetry_cell_setting 'orthorhombic'
loop_
_space_group_symop_operation_xyz
x,y,z
-x,-y,z
x,-y,-z
-x,y,-z
-x,-y,-z
x,y,-z
-x,y,z
x,-y,z
1/2+x,1/2+y,1/2+z
1/2-x,1/2-y,1/2+z
1/2+x,1/2-y,1/2-z
1/2-x,1/2+y,1/2-z
1/2-x,1/2-y,1/2-z
1/2+x,1/2+y,1/2-z
1/2-x,1/2+y,1/2+z
1/2+x,1/2-y,1/2+z
loop_
_atom_site_type_symbol
_atom_site_label
_atom_site_fract_x
_atom_site_fract_y
_atom_site_fract_z
Si Si1 0.890382 0.438003 0.854065
Si Si2 0.748042 0.347858 0.594967
Si Si3 0.613788 0.814816 0.597601
Si Si4 0.388680 0.290981 0.284210
Si Si5 0.896984 0.435443 0.355642
Si Si6 0.109734 0.244265 0.595384
O O1 0.851209 0.500000 0.878105
O O2 0.851293 0.378533 0.887519
O O3 0.890154 0.433952 0.749305
O O4 0.000000 0.439174 0.881203
O O5 0.703105 0.346308 0.500000
O O6 0.671280 0.337604 0.667715
O O7 0.810477 0.402465 0.606524
O O8 0.823729 0.297810 0.599953
O O9 0.640407 0.795978 0.500000
O O10 0.500000 0.817561 0.600784
O O11 0.639265 0.768813 0.670486
O O12 0.500000 0.297411 0.298146
O O13 0.370453 0.290845 0.181564
O O14 0.895292 0.500000 0.382187
O O15 0.000000 0.411873 0.379334
O O16 0.122928 0.217575 0.500000
O O17 0.000000 0.260865 0.601578
#
# Coordination Sequence:
#
# PCOD9521266 Si02
#       6
#    16  16  16  16  16  16
#     4   8  14  25  41  61  87 121 159 200 246 289
#     4  11  21  31  48  73 100 133 170 205 246 299
#     4   9  16  25  39  61  91 129 169 202 233 277
#     4  10  20  34  50  68  98 137 172 209 251 298
#     4   9  18  33  52  73  98 129 166 209 256 303
#     4   9  18  32  50  73  99 127 163 208 256 302
#
# _framework density 18.308449
#
# number of rings (size 3 to 8) (size 9 to 14) (size 15 to 20)
#    0.000    2.667    0.000    3.500    0.000    5.333 
#    0.000    2.500    0.000    0.500    0.000    1.167 
#    0.000    0.000    0.000    4.167    0.000    0.667 
#
# Total GULP energy -267621.141653 kJ/mol
# GULP energy per Si atom -5575.440451 kJ/mol
# Density = 1.826678 g / cm^3
# Si number density = 18.308449 Si / 1000 Ang^3
#
#
#
# Elastic Constant Matrix: (Units=GPa)
#
#
# Indices 1 2 3 4 5 6 
#
# 1 56.9104 24.0563 33.2809 -0.0001 0.0000 0.0000
# 2 24.0563 58.1642 28.5905 -0.0003 0.0000 0.0000
# 3 33.2809 28.5905 115.8172 -0.0005 0.0000 0.0000
# 4 -0.0001 -0.0003 -0.0005 -21.2060 0.0002 0.0001
# 5 0.0000 0.0000 0.0000 0.0002 7.4999 0.0000
# 6 0.0000 0.0000 0.0000 0.0001 0.0000 23.4229
#
#
#
# Elastic Compliance Matrix: (Units=1/GPa)
#
#
# Indices 1 2 3 4 5 6 
#
# 1 0.023564 -0.007304 -0.004968 0.000000 0.000000 0.000000
# 2 -0.007304 0.021831 -0.003290 0.000000 0.000000 0.000000
# 3 -0.004968 -0.003290 0.010874 0.000000 0.000000 0.000000
# 4 0.000000 0.000000 0.000000 -0.047156 0.000001 0.000000
# 5 0.000000 0.000000 0.000000 0.000001 0.133335 0.000000
# 6 0.000000 0.000000 0.000000 0.000000 0.000000 0.042693
#
#
# Mechanical properties :
#
#
# Convention : Reuss Voigt Hill
#
# Bulk Modulus (GPa) = 39.77035 44.74970 42.26002
# Shear Modulus (GPa) = 22.25705 11.60763 16.93234
#
# Velocity S-wave (km/s) = 3.49043 2.52068 3.04441
# Velocity P-wave (km/s) = 6.16552 5.74168 5.95737
#
# Compressibility (1/GPa) = 0.02514436
#
# Stress axis : x y z
#
# Youngs Moduli (GPa) = 42.43702 45.80660 91.96043
#
# Poissons Ratio (x) = 0.33457 0.45689
# Poissons Ratio (y) = 0.30995 0.30258
# Poissons Ratio (z) = 0.21084 0.15072
#
# Static dielectric constant tensor:
#      x y z
#    x 1.619500 0.000000 0.000000 
#    y 0.000000 1.633830 0.000000 
#    z 0.000000 0.000000 1.679410 
# 
# From -- ./inp_files/34488.got.cif
#   From: 2010.05.17/outbox.cif.g08.bks.cpg/sg71_18_cif.got.tgz:34488.got - 2010.06.03 16:22:01.
