data_PCOD9521561
_publ_section_title
;
Structure prediction by ZEFSAII (Michael W. Deem and Ramdas Pophale) SiO2 
 PCOD9521561
Probable space group: I M M M
;
_chemical_formula_sum "Si O2"
_cell_formula_units_Z 104
_cell_length_a 8.874520
_cell_length_b 29.154445
_cell_length_c 21.595810
_cell_angle_alpha 90.000000
_cell_angle_beta 90.000000
_cell_angle_gamma 90.000000
_cell_volume 5587.520747
_symmetry_space_group_name_H-M "I M M M"
_symmetry_group_IT_number 71
_symmetry_cell_setting 'orthorhombic'
loop_
_space_group_symop_operation_xyz
x,y,z
-x,-y,z
x,-y,-z
-x,y,-z
-x,-y,-z
x,y,-z
-x,y,z
x,-y,z
1/2+x,1/2+y,1/2+z
1/2-x,1/2-y,1/2+z
1/2+x,1/2-y,1/2-z
1/2-x,1/2+y,1/2-z
1/2-x,1/2-y,1/2-z
1/2+x,1/2+y,1/2-z
1/2-x,1/2+y,1/2+z
1/2+x,1/2-y,1/2+z
loop_
_atom_site_type_symbol
_atom_site_label
_atom_site_fract_x
_atom_site_fract_y
_atom_site_fract_z
Si Si1 0.320315 0.947082 0.370796
Si Si2 0.180482 0.392884 0.375734
Si Si3 0.173629 0.055070 0.238359
Si Si4 0.819321 0.136900 0.431406
Si Si5 0.681513 0.704294 0.821616
Si Si6 0.819975 0.804810 0.180638
Si Si7 0.816429 0.553375 0.500000
O O1 0.500000 0.943669 0.365799
O O2 0.245759 0.934736 0.304865
O O3 0.257264 0.911906 0.420496
O O4 0.281309 0.000000 0.384510
O O5 0.235618 0.422395 0.317244
O O6 0.248314 0.342512 0.364270
O O7 0.230016 0.418875 0.438468
O O8 0.000000 0.390001 0.376515
O O9 0.000000 0.070990 0.237070
O O10 0.175924 0.000000 0.231207
O O11 0.784480 0.154843 0.500000
O O12 0.770987 0.170626 0.376448
O O13 0.000000 0.131507 0.426652
O O14 0.500000 0.709777 0.823789
O O15 0.757042 0.753811 0.829817
O O16 0.718531 0.685080 0.753094
O O17 0.000000 0.805410 0.174648
O O18 0.766052 0.500000 0.500000
O O19 0.000000 0.552222 0.500000
#
# Coordination Sequence:
#
# PCOD9521561 Si02
#       7
#    16  16  16  16  16  16   8
#     4  10  21  36  55  81 112 147 188 232 275 325
#     4  11  21  35  57  83 111 148 191 235 283 337
#     4  10  20  34  54  81 112 144 181 230 285 335
#     4  10  21  37  57  81 110 148 189 229 277 333
#     4   9  19  37  58  81 110 144 184 229 279 338
#     4  10  20  35  58  85 112 142 181 232 287 337
#     4   9  20  38  57  79 111 153 199 241 280 333
#
# _framework density 18.612907
#
# number of rings (size 3 to 8) (size 9 to 14) (size 15 to 20)
#    0.000    2.077    0.000    3.231    0.000    5.538 
#    1.385    3.077    0.000    2.769    0.000    0.000 
#    0.000    0.000    0.000    0.000    0.000    0.000 
#
# Total GULP energy -290404.756661 kJ/mol
# GULP energy per Si atom -5584.706859 kJ/mol
# Density = 1.857054 g / cm^3
# Si number density = 18.612907 Si / 1000 Ang^3
#
#
#
# Elastic Constant Matrix: (Units=GPa)
#
#
# Indices 1 2 3 4 5 6 
#
# 1 36.8367 35.4590 33.2488 0.0000 0.0000 0.0000
# 2 35.4590 101.3712 71.9755 0.0000 0.0000 0.0000
# 3 33.2488 71.9755 104.1552 -0.0001 0.0000 0.0000
# 4 0.0000 0.0000 -0.0001 25.2832 0.0000 0.0000
# 5 0.0000 0.0000 0.0000 0.0000 23.5396 0.0000
# 6 0.0000 0.0000 0.0000 0.0000 0.0000 33.7081
#
#
#
# Elastic Compliance Matrix: (Units=1/GPa)
#
#
# Indices 1 2 3 4 5 6 
#
# 1 0.043094 -0.010418 -0.006557 0.000000 0.000000 0.000000
# 2 -0.010418 0.021886 -0.011798 0.000000 0.000000 0.000000
# 3 -0.006557 -0.011798 0.019847 0.000000 0.000000 0.000000
# 4 0.000000 0.000000 0.000000 0.039552 0.000000 0.000000
# 5 0.000000 0.000000 0.000000 0.000000 0.042482 0.000000
# 6 0.000000 0.000000 0.000000 0.000000 0.000000 0.029667
#
#
# Mechanical properties :
#
#
# Convention : Reuss Voigt Hill
#
# Bulk Modulus (GPa) = 36.65716 58.19219 47.42468
# Shear Modulus (GPa) = 18.99921 23.28481 21.14201
#
# Velocity S-wave (km/s) = 3.19839 3.54079 3.37394
# Velocity P-wave (km/s) = 5.77727 6.93171 6.38065
#
# Compressibility (1/GPa) = 0.02727980
#
# Stress axis : x y z
#
# Youngs Moduli (GPa) = 23.20504 45.69114 50.38433
#
# Poissons Ratio (x) = 0.47603 0.33038
# Poissons Ratio (y) = 0.24176 0.59445
# Poissons Ratio (z) = 0.15216 0.53908
#
# Static dielectric constant tensor:
#      x y z
#    x 1.622170 0.000000 0.000000 
#    y 0.000000 1.638300 0.000000 
#    z 0.000000 0.000000 1.628780 
# 
# From -- ./inp_files/11124.got.cif
#   From: 2010.05.17/outbox.cif.g08.bks.cpg/sg71_6_cif.got.tgz:11124.got - 2010.06.03 16:22:01.
