data_PCOD9521198
_publ_section_title
;
Structure prediction by ZEFSAII (Michael W. Deem and Ramdas Pophale) SiO2 
 PCOD9521198
Probable space group: I M M M
;
_chemical_formula_sum "Si O2"
_cell_formula_units_Z 88
_cell_length_a 29.742034
_cell_length_b 16.956725
_cell_length_c 8.679952
_cell_angle_alpha 90.000000
_cell_angle_beta 90.000000
_cell_angle_gamma 90.000000
_cell_volume 4377.538418
_symmetry_space_group_name_H-M "I M M M"
_symmetry_group_IT_number 71
_symmetry_cell_setting 'orthorhombic'
loop_
_space_group_symop_operation_xyz
x,y,z
-x,-y,z
x,-y,-z
-x,y,-z
-x,-y,-z
x,y,-z
-x,y,z
x,-y,z
1/2+x,1/2+y,1/2+z
1/2-x,1/2-y,1/2+z
1/2+x,1/2-y,1/2-z
1/2-x,1/2+y,1/2-z
1/2-x,1/2-y,1/2-z
1/2+x,1/2+y,1/2-z
1/2-x,1/2+y,1/2+z
1/2+x,1/2-y,1/2+z
loop_
_atom_site_type_symbol
_atom_site_label
_atom_site_fract_x
_atom_site_fract_y
_atom_site_fract_z
Si Si1 0.381519 0.853109 0.178686
Si Si2 0.799678 0.256953 0.818720
Si Si3 0.157174 0.085836 0.179217
Si Si4 0.562819 0.411596 0.823412
Si Si5 0.549653 0.746576 0.324864
Si Si6 0.054202 0.500000 0.688181
O O1 0.334346 0.822878 0.251560
O O2 0.414719 0.779766 0.205883
O O3 0.414103 0.925140 0.236529
O O4 0.372813 0.869176 0.000000
O O5 0.750000 0.250000 0.750000
O O6 0.818178 0.168025 0.796545
O O7 0.796856 0.272416 0.000000
O O8 0.116078 0.086018 0.296269
O O9 0.181062 0.000000 0.195947
O O10 0.141009 0.087770 0.000000
O O11 0.547167 0.500000 0.792554
O O12 0.546517 0.345797 0.706855
O O13 0.552021 0.391176 0.000000
O O14 0.564755 0.761921 0.500000
O O15 0.500000 0.781775 0.303360
O O16 0.052346 0.500000 0.500000
O O17 0.000000 0.500000 0.736034
#
# Coordination Sequence:
#
# PCOD9521198 Si02
#       6
#    16  16  16  16  16   8
#     4  11  22  40  66  92 122 159 204 260 317 378
#     4  11  23  40  63  91 126 164 207 257 314 381
#     4   9  18  35  59  84 113 154 199 244 294 358
#     4  10  20  33  53  81 113 150 194 243 290 340
#     4  11  23  37  55  82 117 158 201 244 299 367
#     4   9  20  40  67  99 131 167 213 265 326 397
#
# _framework density 20.102623000000001
#
# number of rings (size 3 to 8) (size 9 to 14) (size 15 to 20)
#    0.000    1.727    1.818    2.727    0.000    4.364 
#    1.636    3.636    0.000    3.273    0.000    0.000 
#    0.000    0.000    0.000    0.000    0.000    0.000 
#
# Total GULP energy -244990.898365 kJ/mol
# GULP energy per Si atom -5567.974963 kJ/mol
# Density = 2.005687 g / cm^3
# Si number density = 20.102623 Si / 1000 Ang^3
#
#
#
# Elastic Constant Matrix: (Units=GPa)
#
#
# Indices 1 2 3 4 5 6 
#
# 1 137.1328 57.9031 50.5442 0.0000 0.0000 0.0000
# 2 57.9031 96.1886 27.9536 0.0000 0.0000 0.0000
# 3 50.5442 27.9536 37.2413 0.0000 0.0000 0.0000
# 4 0.0000 0.0000 0.0000 21.2768 0.0000 0.0000
# 5 0.0000 0.0000 0.0000 0.0000 132.7482 0.0000
# 6 0.0000 0.0000 0.0000 0.0000 0.0000 8.4515
#
#
#
# Elastic Compliance Matrix: (Units=1/GPa)
#
#
# Indices 1 2 3 4 5 6 
#
# 1 0.015814 -0.004198 -0.018312 0.000000 0.000000 0.000000
# 2 -0.004198 0.014411 -0.005120 0.000000 0.000000 0.000000
# 3 -0.018312 -0.005120 0.055548 0.000000 0.000000 0.000000
# 4 0.000000 0.000000 0.000000 0.047000 0.000000 0.000000
# 5 0.000000 0.000000 0.000000 0.000000 0.007533 0.000000
# 6 0.000000 0.000000 0.000000 0.000000 0.000000 0.118323
#
#
# Mechanical properties :
#
#
# Convention : Reuss Voigt Hill
#
# Bulk Modulus (GPa) = 32.77173 60.37384 46.57278
# Shear Modulus (GPa) = 15.42924 41.43940 28.43432
#
# Velocity S-wave (km/s) = 2.77343 4.54518 3.76501
# Velocity P-wave (km/s) = 5.15689 7.59229 6.48985
#
# Compressibility (1/GPa) = 0.03051411
#
# Stress axis : x y z
#
# Youngs Moduli (GPa) = 63.23403 69.39066 18.00237
#
# Poissons Ratio (x) = 0.29130 0.32966
# Poissons Ratio (y) = 0.26546 0.09216
# Poissons Ratio (z) = 1.15795 0.35525
#
# Static dielectric constant tensor:
#      x y z
#    x 1.739700 0.000000 0.000000 
#    y 0.000000 1.764010 0.000000 
#    z 0.000000 0.000000 1.685320 
# 
# From -- ./inp_files/16631.got.cif
#   From: 2010.05.17/outbox.cif.g08.bks.cpg/sg71_9_cif.got.tgz:16631.got - 2010.06.03 16:22:01.
