data_PCOD9521880
_publ_section_title
;
Structure prediction by ZEFSAII (Michael W. Deem and Ramdas Pophale) SiO2 
 PCOD9521880
Probable space group: I M M M
;
_chemical_formula_sum "Si O2"
_cell_formula_units_Z 64
_cell_length_a 15.113804
_cell_length_b 8.341277
_cell_length_c 25.757402
_cell_angle_alpha 90.000000
_cell_angle_beta 90.000000
_cell_angle_gamma 90.000000
_cell_volume 3247.195120
_symmetry_space_group_name_H-M "I M M M"
_symmetry_group_IT_number 71
_symmetry_cell_setting 'orthorhombic'
loop_
_space_group_symop_operation_xyz
x,y,z
-x,-y,z
x,-y,-z
-x,y,-z
-x,-y,-z
x,y,-z
-x,y,z
x,-y,z
1/2+x,1/2+y,1/2+z
1/2-x,1/2-y,1/2+z
1/2+x,1/2-y,1/2-z
1/2-x,1/2+y,1/2-z
1/2-x,1/2-y,1/2-z
1/2+x,1/2+y,1/2-z
1/2-x,1/2+y,1/2+z
1/2+x,1/2-y,1/2+z
loop_
_atom_site_type_symbol
_atom_site_label
_atom_site_fract_x
_atom_site_fract_y
_atom_site_fract_z
Si Si1 0.500000 0.191251 0.559054
Si Si2 0.850761 0.304457 0.361742
Si Si3 0.500000 0.803693 0.059389
Si Si4 0.646694 0.308767 0.362757
Si Si5 0.648154 0.808006 0.252013
O O1 0.500000 0.253902 0.500000
O O2 0.414806 0.245784 0.591641
O O3 0.500000 0.000000 0.557151
O O4 0.849500 0.500000 0.362033
O O5 0.748774 0.251181 0.367281
O O6 0.887123 0.257985 0.304626
O O7 0.914109 0.252065 0.408007
O O8 0.500000 0.000000 0.058971
O O9 0.500000 0.749850 0.000000
O O10 0.647793 0.500000 0.364712
O O11 0.611384 0.258859 0.305823
O O12 0.750000 0.750000 0.250000
O O13 0.644447 0.000000 0.254758
#
# Coordination Sequence:
#
# PCOD9521880 Si02
#       5
#     8  16   8  16  16
#     4  11  25  42  57  76 102 137 184 229 274 335
#     4   8  16  29  47  75 109 143 175 211 259 311
#     4   9  16  27  44  69 102 137 174 211 246 295
#     4  10  20  35  55  80 109 138 173 220 274 328
#     4   9  16  29  50  77 110 143 178 219 265 320
#
# _framework density 19.709318
#
# number of rings (size 3 to 8) (size 9 to 14) (size 15 to 20)
#    0.000    2.750    0.000    3.375    0.000    3.000 
#    0.000    5.000    0.000    0.000    0.000   17.500 
#    0.000   38.000    0.000    0.000    0.000    0.000 
#
# Total GULP energy -178438.465970 kJ/mol
# GULP energy per Si atom -5576.202062 kJ/mol
# Density = 1.966446 g / cm^3
# Si number density = 19.709318 Si / 1000 Ang^3
#
#
#
# Elastic Constant Matrix: (Units=GPa)
#
#
# Indices 1 2 3 4 5 6 
#
# 1 111.8360 14.0658 96.2419 0.0000 0.0000 0.0000
# 2 14.0658 31.3278 27.6138 0.0000 0.0000 0.0000
# 3 96.2419 27.6138 236.3130 0.0000 0.0000 0.0000
# 4 0.0000 0.0000 0.0000 23.7937 0.0000 0.0000
# 5 0.0000 0.0000 0.0000 0.0000 33.8768 0.0000
# 6 0.0000 0.0000 0.0000 0.0000 0.0000 13.7473
#
#
#
# Elastic Compliance Matrix: (Units=1/GPa)
#
#
# Indices 1 2 3 4 5 6 
#
# 1 0.013820 -0.001387 -0.005466 0.000000 0.000000 0.000000
# 2 -0.001387 0.035725 -0.003610 0.000000 0.000000 0.000000
# 3 -0.005466 -0.003610 0.006880 0.000000 0.000000 0.000000
# 4 0.000000 0.000000 0.000000 0.042028 0.000000 0.000000
# 5 0.000000 0.000000 0.000000 0.000000 0.029519 0.000000
# 6 0.000000 0.000000 0.000000 0.000000 0.000000 0.072741
#
#
# Mechanical properties :
#
#
# Convention : Reuss Voigt Hill
#
# Bulk Modulus (GPa) = 28.16974 72.81332 50.49153
# Shear Modulus (GPa) = 21.41583 30.38725 25.90154
#
# Velocity S-wave (km/s) = 3.29991 3.93080 3.62909
# Velocity P-wave (km/s) = 5.37056 7.59114 6.57527
#
# Compressibility (1/GPa) = 0.03549909
#
# Stress axis : x y z
#
# Youngs Moduli (GPa) = 72.35715 27.99159 145.35314
#
# Poissons Ratio (x) = 0.03882 0.79457
# Poissons Ratio (y) = 0.10034 0.52470
# Poissons Ratio (z) = 0.39554 0.10104
#
# Static dielectric constant tensor:
#      x y z
#    x 1.711410 0.000000 0.000000 
#    y 0.000000 1.674150 0.000000 
#    z 0.000000 0.000000 1.701580 
# 
# From -- ./inp_files/5851.got.cif
#   From: 2010.05.17/outbox.cif.g08.bks.cpg/sg71_3_cif.got.tgz:5851.got - 2010.06.03 16:22:01.
