data_PCOD9521297
_publ_section_title
;
Structure prediction by ZEFSAII (Michael W. Deem and Ramdas Pophale) SiO2 
 PCOD9521297
Probable space group: I M M M
;
_chemical_formula_sum "Si O2"
_cell_formula_units_Z 88
_cell_length_a 14.747866
_cell_length_b 12.602858
_cell_length_c 27.986803
_cell_angle_alpha 90.000000
_cell_angle_beta 90.000000
_cell_angle_gamma 90.000000
_cell_volume 5201.774444
_symmetry_space_group_name_H-M "I M M M"
_symmetry_group_IT_number 71
_symmetry_cell_setting 'orthorhombic'
loop_
_space_group_symop_operation_xyz
x,y,z
-x,-y,z
x,-y,-z
-x,y,-z
-x,-y,-z
x,y,-z
-x,y,z
x,-y,z
1/2+x,1/2+y,1/2+z
1/2-x,1/2-y,1/2+z
1/2+x,1/2-y,1/2-z
1/2-x,1/2+y,1/2-z
1/2-x,1/2-y,1/2-z
1/2+x,1/2+y,1/2-z
1/2-x,1/2+y,1/2+z
1/2+x,1/2-y,1/2+z
loop_
_atom_site_type_symbol
_atom_site_label
_atom_site_fract_x
_atom_site_fract_y
_atom_site_fract_z
Si Si1 0.274440 0.874660 0.361412
Si Si2 0.601258 0.874646 0.922968
Si Si3 0.208106 0.785748 0.054278
Si Si4 0.395669 0.500000 0.557943
Si Si5 0.104551 0.747926 0.326914
Si Si6 0.108304 0.623092 0.767974
O O1 0.303432 0.808093 0.407888
O O2 0.174786 0.835355 0.345242
O O3 0.340224 0.851054 0.316763
O O4 0.275671 0.000000 0.370558
O O5 0.500000 0.843129 0.939237
O O6 0.685252 0.815146 0.946330
O O7 0.606361 0.845087 0.866822
O O8 0.610976 0.000000 0.930533
O O9 0.156378 0.892293 0.071644
O O10 0.178717 0.760983 0.000000
O O11 0.500000 0.500000 0.574080
O O12 0.395120 0.500000 0.500000
O O13 0.132228 0.699189 0.276061
O O14 0.000000 0.785130 0.324120
O O15 0.129374 0.500000 0.755786
O O16 0.000000 0.630255 0.774801
#
# Coordination Sequence:
#
# PCOD9521297 Si02
#       6
#    16  16  16   8  16  16
#     4  10  21  34  50  74 103 139 176 209 247 294
#     4   9  16  27  47  76 105 128 156 201 255 307
#     4  10  20  34  51  73 101 133 173 215 257 304
#     4   9  18  34  55  75  95 125 164 210 267 315
#     4   9  17  30  50  74 102 135 168 202 245 300
#     4   9  17  31  52  76 100 127 164 212 261 305
#
# _framework density 16.917304000000001
#
# number of rings (size 3 to 8) (size 9 to 14) (size 15 to 20)
#    0.000    2.636    0.909    1.091    0.000    4.000 
#    0.000    0.909    2.000    0.000    0.000   10.182 
#    0.000    0.000    0.000    0.000    0.000    0.000 
#
# Total GULP energy -245199.393445 kJ/mol
# GULP energy per Si atom -5572.713487 kJ/mol
# Density = 1.687880 g / cm^3
# Si number density = 16.917304 Si / 1000 Ang^3
#
#
#
# Elastic Constant Matrix: (Units=GPa)
#
#
# Indices 1 2 3 4 5 6 
#
# 1 48.5818 28.5790 28.4434 0.0000 0.0000 0.0000
# 2 28.5790 83.9455 62.1221 0.0000 0.0000 0.0000
# 3 28.4434 62.1221 104.4451 0.0000 0.0000 0.0000
# 4 0.0000 0.0000 0.0000 19.1277 0.0000 0.0000
# 5 0.0000 0.0000 0.0000 0.0000 20.5917 0.0000
# 6 0.0000 0.0000 0.0000 0.0000 0.0000 18.4755
#
#
#
# Elastic Compliance Matrix: (Units=1/GPa)
#
#
# Indices 1 2 3 4 5 6 
#
# 1 0.026356 -0.006540 -0.003288 0.000000 0.000000 0.000000
# 2 -0.006540 0.022901 -0.011840 0.000000 0.000000 0.000000
# 3 -0.003288 -0.011840 0.017512 0.000000 0.000000 0.000000
# 4 0.000000 0.000000 0.000000 0.052280 0.000000 0.000000
# 5 0.000000 0.000000 0.000000 0.000000 0.048563 0.000000
# 6 0.000000 0.000000 0.000000 0.000000 0.000000 0.054126
#
#
# Mechanical properties :
#
#
# Convention : Reuss Voigt Hill
#
# Bulk Modulus (GPa) = 42.67368 52.80682 47.74025
# Shear Modulus (GPa) = 18.32276 19.49417 18.90846
#
# Velocity S-wave (km/s) = 3.29459 3.39827 3.34683
# Velocity P-wave (km/s) = 6.30492 6.83228 6.57389
#
# Compressibility (1/GPa) = 0.02343365
#
# Stress axis : x y z
#
# Youngs Moduli (GPa) = 37.94224 43.66626 57.10353
#
# Poissons Ratio (x) = 0.28557 0.18774
# Poissons Ratio (y) = 0.24813 0.67611
# Poissons Ratio (z) = 0.12474 0.51701
#
# Static dielectric constant tensor:
#      x y z
#    x 1.583650 0.000000 0.000000 
#    y 0.000000 1.543690 0.000000 
#    z 0.000000 0.000000 1.575780 
# 
# From -- ./inp_files/22482.got.cif
#   From: 2010.05.17/outbox.cif.g08.bks.cpg/sg71_12_cif.got.tgz:22482.got - 2010.06.03 16:22:01.
