data_PCOD9521378
_publ_section_title
;
Structure prediction by ZEFSAII (Michael W. Deem and Ramdas Pophale) SiO2 
 PCOD9521378
Probable space group: I M M M
;
_chemical_formula_sum "Si O2"
_cell_formula_units_Z 96
_cell_length_a 18.716845
_cell_length_b 24.812343
_cell_length_c 10.578837
_cell_angle_alpha 90.000000
_cell_angle_beta 90.000000
_cell_angle_gamma 90.000000
_cell_volume 4912.904764
_symmetry_space_group_name_H-M "I M M M"
_symmetry_group_IT_number 71
_symmetry_cell_setting 'orthorhombic'
loop_
_space_group_symop_operation_xyz
x,y,z
-x,-y,z
x,-y,-z
-x,y,-z
-x,-y,-z
x,y,-z
-x,y,z
x,-y,z
1/2+x,1/2+y,1/2+z
1/2-x,1/2-y,1/2+z
1/2+x,1/2-y,1/2-z
1/2-x,1/2+y,1/2-z
1/2-x,1/2-y,1/2-z
1/2+x,1/2+y,1/2-z
1/2-x,1/2+y,1/2+z
1/2+x,1/2-y,1/2+z
loop_
_atom_site_type_symbol
_atom_site_label
_atom_site_fract_x
_atom_site_fract_y
_atom_site_fract_z
Si Si1 0.083864 0.859097 0.850720
Si Si2 0.187213 0.899008 0.357708
Si Si3 0.341109 0.061348 0.352719
Si Si4 0.416285 0.866280 0.859262
Si Si5 0.233298 0.284738 0.870149
Si Si6 0.080358 0.732308 0.799748
O O1 0.130862 0.895291 0.756140
O O2 0.089137 0.796887 0.801749
O O3 0.000000 0.873540 0.844685
O O4 0.105208 0.860263 0.000000
O O5 0.157229 0.908525 0.500000
O O6 0.255072 0.937354 0.336903
O O7 0.226054 0.840704 0.361138
O O8 0.354970 0.077149 0.500000
O O9 0.375958 0.100512 0.249342
O O10 0.366747 0.000000 0.335688
O O11 0.500000 0.881336 0.854760
O O12 0.414360 0.802074 0.829185
O O13 0.388237 0.876998 0.000000
O O14 0.250000 0.250000 0.750000
O O15 0.148143 0.290746 0.872466
O O16 0.255853 0.256773 0.000000
O O17 0.000000 0.721917 0.849320
#
# Coordination Sequence:
#
# PCOD9521378 Si02
#       6
#    16  16  16  16  16  16
#     4  10  21  36  56  84 115 150 189 225 266 324
#     4  10  21  36  54  81 111 142 181 226 279 334
#     4  10  22  41  62  83 108 140 184 237 288 339
#     4  10  22  38  56  81 114 151 191 234 277 323
#     4  11  21  33  51  78 109 144 186 226 270 325
#     4  10  20  34  52  77 112 151 188 222 259 312
#
# _framework density 19.540375000000001
#
# number of rings (size 3 to 8) (size 9 to 14) (size 15 to 20)
#    0.000    1.833    3.333    0.500    0.000    5.000 
#    0.000    6.667    0.000    0.500    0.000    3.500 
#    0.000    0.000    0.000    0.000    0.000    0.000 
#
# Total GULP energy -267373.651468 kJ/mol
# GULP energy per Si atom -5570.284406 kJ/mol
# Density = 1.949590 g / cm^3
# Si number density = 19.540375 Si / 1000 Ang^3
#
#
#
# Elastic Constant Matrix: (Units=GPa)
#
#
# Indices 1 2 3 4 5 6 
#
# 1 75.3517 0.7949 51.1375 0.0000 0.0000 0.0000
# 2 0.7949 35.2928 47.0777 0.0000 0.0000 0.0000
# 3 51.1375 47.0777 155.9453 0.0000 0.0000 0.0000
# 4 0.0000 0.0000 0.0000 13.9230 0.0000 0.0000
# 5 0.0000 0.0000 0.0000 0.0000 29.1970 0.0000
# 6 0.0000 0.0000 0.0000 0.0000 0.0000 16.6153
#
#
#
# Elastic Compliance Matrix: (Units=1/GPa)
#
#
# Indices 1 2 3 4 5 6 
#
# 1 0.020656 0.014348 -0.011105 0.000000 0.000000 0.000000
# 2 0.014348 0.057403 -0.022034 0.000000 0.000000 0.000000
# 3 -0.011105 -0.022034 0.016706 0.000000 0.000000 0.000000
# 4 0.000000 0.000000 0.000000 0.071824 0.000000 0.000000
# 5 0.000000 0.000000 0.000000 0.000000 0.034250 0.000000
# 6 0.000000 0.000000 0.000000 0.000000 0.000000 0.060185
#
#
# Mechanical properties :
#
#
# Convention : Reuss Voigt Hill
#
# Bulk Modulus (GPa) = 17.48785 51.62334 34.55559
# Shear Modulus (GPa) = 15.73973 23.11903 19.42938
#
# Velocity S-wave (km/s) = 2.84121 3.44341 3.15670
# Velocity P-wave (km/s) = 4.44211 6.50274 5.56857
#
# Compressibility (1/GPa) = 0.05718255
#
# Stress axis : x y z
#
# Youngs Moduli (GPa) = 48.41170 17.42071 59.85929
#
# Poissons Ratio (x) = -0.24995 0.66474
# Poissons Ratio (y) = -0.69461 1.31895
# Poissons Ratio (z) = 0.53761 0.38385
#
# Static dielectric constant tensor:
#      x y z
#    x 1.713090 0.000000 0.000000 
#    y 0.000000 1.687450 0.000000 
#    z 0.000000 0.000000 1.740590 
# 
# From -- ./inp_files/10900.got.cif
#   From: 2010.05.17/outbox.cif.g08.bks.cpg/sg71_6_cif.got.tgz:10900.got - 2010.06.03 16:22:01.
