data_PCOD9521673
_publ_section_title
;
Structure prediction by ZEFSAII (Michael W. Deem and Ramdas Pophale) SiO2 
 PCOD9521673
Probable space group: I M M M
;
_chemical_formula_sum "Si O2"
_cell_formula_units_Z 104
_cell_length_a 8.203494
_cell_length_b 23.380707
_cell_length_c 28.031605
_cell_angle_alpha 90.000000
_cell_angle_beta 90.000000
_cell_angle_gamma 90.000000
_cell_volume 5376.559658
_symmetry_space_group_name_H-M "I M M M"
_symmetry_group_IT_number 71
_symmetry_cell_setting 'orthorhombic'
loop_
_space_group_symop_operation_xyz
x,y,z
-x,-y,z
x,-y,-z
-x,y,-z
-x,-y,-z
x,y,-z
-x,y,z
x,-y,z
1/2+x,1/2+y,1/2+z
1/2-x,1/2-y,1/2+z
1/2+x,1/2-y,1/2-z
1/2-x,1/2+y,1/2-z
1/2-x,1/2-y,1/2-z
1/2+x,1/2+y,1/2-z
1/2-x,1/2+y,1/2+z
1/2+x,1/2-y,1/2+z
loop_
_atom_site_type_symbol
_atom_site_label
_atom_site_fract_x
_atom_site_fract_y
_atom_site_fract_z
Si Si1 0.197849 0.167811 0.365223
Si Si2 0.808262 0.228368 0.800546
Si Si3 0.199549 0.934738 0.000000
Si Si4 0.185479 0.396379 0.692730
Si Si5 0.196262 0.751273 0.445354
Si Si6 0.805782 0.869946 0.906244
Si Si7 0.303944 0.564682 0.797194
O O1 0.271046 0.219462 0.334828
O O2 0.241733 0.188983 0.418768
O O3 0.252263 0.109863 0.337888
O O4 0.000000 0.168622 0.362282
O O5 0.750000 0.250000 0.750000
O O6 0.702796 0.172191 0.808746
O O7 0.000000 0.213090 0.801584
O O8 0.255855 0.902576 0.952868
O O9 0.000000 0.933253 0.000000
O O10 0.250638 0.000000 0.000000
O O11 0.260925 0.407074 0.640629
O O12 0.262834 0.416538 0.742764
O O13 0.000000 0.415550 0.693384
O O14 0.258180 0.746969 0.500000
O O15 0.248023 0.695789 0.414216
O O16 0.000000 0.749936 0.447085
O O17 0.000000 0.866492 0.906489
O O18 0.500000 0.563772 0.800111
O O19 0.242864 0.500000 0.804951
#
# Coordination Sequence:
#
# PCOD9521673 Si02
#       7
#    16  16   8  16  16  16  16
#     4  10  20  35  57  83 113 151 190 231 287 349
#     4  12  22  33  53  83 115 147 183 226 277 332
#     4   9  20  38  57  77 105 147 196 243 286 334
#     4  12  24  37  55  83 118 153 189 234 287 342
#     4  10  20  34  55  84 118 150 183 233 297 354
#     4  11  21  35  57  84 112 147 194 243 288 340
#     4  10  22  40  60  81 110 152 200 243 284 342
#
# _framework density 19.343226000000001
#
# number of rings (size 3 to 8) (size 9 to 14) (size 15 to 20)
#    0.000    1.308    3.846    3.231    0.000    0.923 
#    0.000    1.538    0.000    3.692    0.000    3.231 
#    0.000    0.000    0.000    4.154    0.000    4.615 
#
# Total GULP energy -289808.840014 kJ/mol
# GULP energy per Si atom -5573.246923 kJ/mol
# Density = 1.929920 g / cm^3
# Si number density = 19.343226 Si / 1000 Ang^3
#
#
#
# Elastic Constant Matrix: (Units=GPa)
#
#
# Indices 1 2 3 4 5 6 
#
# 1 19.5257 8.5172 6.5585 0.0000 0.0000 0.0000
# 2 8.5172 111.9517 46.7178 0.0000 0.0000 0.0000
# 3 6.5585 46.7178 97.9712 0.0000 0.0000 0.0000
# 4 0.0000 0.0000 0.0000 16.9591 0.0000 0.0000
# 5 0.0000 0.0000 0.0000 0.0000 13.3432 0.0000
# 6 0.0000 0.0000 0.0000 0.0000 0.0000 15.1562
#
#
#
# Elastic Compliance Matrix: (Units=1/GPa)
#
#
# Indices 1 2 3 4 5 6 
#
# 1 0.053297 -0.003203 -0.002040 0.000000 0.000000 0.000000
# 2 -0.003203 0.011344 -0.005195 0.000000 0.000000 0.000000
# 3 -0.002040 -0.005195 0.012821 0.000000 0.000000 0.000000
# 4 0.000000 0.000000 0.000000 0.058965 0.000000 0.000000
# 5 0.000000 0.000000 0.000000 0.000000 0.074944 0.000000
# 6 0.000000 0.000000 0.000000 0.000000 0.000000 0.065980
#
#
# Mechanical properties :
#
#
# Convention : Reuss Voigt Hill
#
# Bulk Modulus (GPa) = 17.67257 39.22617 28.44937
# Shear Modulus (GPa) = 15.76836 20.26871 18.01854
#
# Velocity S-wave (km/s) = 2.85825 3.24056 3.05539
# Velocity P-wave (km/s) = 4.47760 5.85872 5.21409
#
# Compressibility (1/GPa) = 0.05658486
#
# Stress axis : x y z
#
# Youngs Moduli (GPa) = 18.76267 88.15217 77.99761
#
# Poissons Ratio (x) = 0.28239 0.15914
# Poissons Ratio (y) = 0.06010 0.40520
# Poissons Ratio (z) = 0.03828 0.45795
#
# Static dielectric constant tensor:
#      x y z
#    x 1.668700 0.000000 0.000000 
#    y 0.000000 1.730880 0.000000 
#    z 0.000000 0.000000 1.632700 
# 
# From -- ./inp_files/56701.got.cif
#   From: 2010.05.17/outbox.cif.g08.bks.cpg/sg71_29_cif.got.tgz:56701.got - 2010.06.03 16:22:01.
