data_PCOD9521868
_publ_section_title
;
Structure prediction by ZEFSAII (Michael W. Deem and Ramdas Pophale) SiO2 
 PCOD9521868
Probable space group: I M M M
;
_chemical_formula_sum "Si O2"
_cell_formula_units_Z 88
_cell_length_a 24.462535
_cell_length_b 24.778781
_cell_length_c 7.884327
_cell_angle_alpha 90.000000
_cell_angle_beta 90.000000
_cell_angle_gamma 90.000000
_cell_volume 4779.098983
_symmetry_space_group_name_H-M "I M M M"
_symmetry_group_IT_number 71
_symmetry_cell_setting 'orthorhombic'
loop_
_space_group_symop_operation_xyz
x,y,z
-x,-y,z
x,-y,-z
-x,y,-z
-x,-y,-z
x,y,-z
-x,y,z
x,-y,z
1/2+x,1/2+y,1/2+z
1/2-x,1/2-y,1/2+z
1/2+x,1/2-y,1/2-z
1/2-x,1/2+y,1/2-z
1/2-x,1/2-y,1/2-z
1/2+x,1/2+y,1/2-z
1/2-x,1/2+y,1/2+z
1/2+x,1/2-y,1/2+z
loop_
_atom_site_type_symbol
_atom_site_label
_atom_site_fract_x
_atom_site_fract_y
_atom_site_fract_z
Si Si1 0.063615 0.936191 0.000000
Si Si2 0.878648 0.875849 0.695778
Si Si3 0.223556 0.062112 0.798779
Si Si4 0.562408 0.732386 0.203543
Si Si5 0.438362 0.854195 0.702286
Si Si6 0.848649 0.561510 0.794432
O O1 0.090236 0.912789 0.830373
O O2 0.000000 0.922582 0.000000
O O3 0.070799 0.000000 0.000000
O O4 0.896190 0.883381 0.500000
O O5 0.815946 0.894613 0.711900
O O6 0.895005 0.814782 0.746283
O O7 0.287301 0.073116 0.766806
O O8 0.212674 0.000000 0.740289
O O9 0.213021 0.063691 0.000000
O O10 0.500000 0.719241 0.261790
O O11 0.576672 0.791782 0.268651
O O12 0.560850 0.735676 0.000000
O O13 0.441147 0.862677 0.500000
O O14 0.500000 0.862167 0.771262
O O15 0.393272 0.895753 0.768516
O O16 0.862333 0.500000 0.743707
O O17 0.847550 0.563092 0.000000
#
# Coordination Sequence:
#
# PCOD9521868 Si02
#       6
#     8  16  16  16  16  16
#     4  11  24  38  54  82 116 148 186 236 288 336
#     4  11  22  37  58  82 111 149 194 235 285 336
#     4  10  20  35  55  79 107 142 188 236 281 335
#     4   9  19  35  54  77 105 141 185 230 276 331
#     4   9  18  32  53  81 110 143 182 226 279 336
#     4   9  18  33  53  79 111 145 182 225 278 340
#
# _framework density 18.413511
#
# number of rings (size 3 to 8) (size 9 to 14) (size 15 to 20)
#    0.000    2.273    0.909    1.636    1.273    4.364 
#    0.000    3.636    0.000    0.000    0.000    5.091 
#    0.000    0.000    0.000    0.000    0.000    0.000 
#
# Total GULP energy -245438.018240 kJ/mol
# GULP energy per Si atom -5578.136778 kJ/mol
# Density = 1.837160 g / cm^3
# Si number density = 18.413511 Si / 1000 Ang^3
#
#
#
# Elastic Constant Matrix: (Units=GPa)
#
#
# Indices 1 2 3 4 5 6 
#
# 1 120.6581 100.2893 22.5768 0.0000 0.0000 0.0000
# 2 100.2893 138.0827 28.7708 0.0000 0.0000 0.0000
# 3 22.5768 28.7708 52.8923 0.0000 0.0000 0.0000
# 4 0.0000 0.0000 0.0000 4.5904 0.0000 0.0000
# 5 0.0000 0.0000 0.0000 0.0000 19.2668 0.0000
# 6 0.0000 0.0000 0.0000 0.0000 0.0000 39.4356
#
#
#
# Elastic Compliance Matrix: (Units=1/GPa)
#
#
# Indices 1 2 3 4 5 6 
#
# 1 0.020939 -0.015052 -0.000750 0.000000 0.000000 0.000000
# 2 -0.015052 0.018987 -0.003903 0.000000 0.000000 0.000000
# 3 -0.000750 -0.003903 0.021350 0.000000 0.000000 0.000000
# 4 0.000000 0.000000 0.000000 0.217846 0.000000 0.000000
# 5 0.000000 0.000000 0.000000 0.000000 0.051903 0.000000
# 6 0.000000 0.000000 0.000000 0.000000 0.000000 0.025358
#
#
# Mechanical properties :
#
#
# Convention : Reuss Voigt Hill
#
# Bulk Modulus (GPa) = 45.73445 68.32300 57.02873
# Shear Modulus (GPa) = 12.40441 23.32497 17.86469
#
# Velocity S-wave (km/s) = 2.59831 3.56298 3.11817
# Velocity P-wave (km/s) = 5.82177 7.35607 6.63343
#
# Compressibility (1/GPa) = 0.02186536
#
# Stress axis : x y z
#
# Youngs Moduli (GPa) = 47.75782 52.66672 46.83853
#
# Poissons Ratio (x) = 0.79272 0.03515
# Poissons Ratio (y) = 0.71883 0.18283
# Poissons Ratio (z) = 0.03584 0.20558
#
# Static dielectric constant tensor:
#      x y z
#    x 1.642250 0.000000 0.000000 
#    y 0.000000 1.620970 0.000000 
#    z 0.000000 0.000000 1.665420 
# 
# From -- ./inp_files/12492.got.cif
#   From: 2010.05.17/outbox.cif.g08.bks.cpg/sg71_7_cif.got.tgz:12492.got - 2010.06.03 16:22:01.
