data_PCOD9521390
_publ_section_title
;
Structure prediction by ZEFSAII (Michael W. Deem and Ramdas Pophale) SiO2 
 PCOD9521390
Probable space group: I M M M
;
_chemical_formula_sum "Si O2"
_cell_formula_units_Z 88
_cell_length_a 29.911831
_cell_length_b 12.287548
_cell_length_c 13.279569
_cell_angle_alpha 90.000000
_cell_angle_beta 90.000000
_cell_angle_gamma 90.000000
_cell_volume 4880.813415
_symmetry_space_group_name_H-M "I M M M"
_symmetry_group_IT_number 71
_symmetry_cell_setting 'orthorhombic'
loop_
_space_group_symop_operation_xyz
x,y,z
-x,-y,z
x,-y,-z
-x,y,-z
-x,-y,-z
x,y,-z
-x,y,z
x,-y,z
1/2+x,1/2+y,1/2+z
1/2-x,1/2-y,1/2+z
1/2+x,1/2-y,1/2-z
1/2-x,1/2+y,1/2-z
1/2-x,1/2-y,1/2-z
1/2+x,1/2+y,1/2-z
1/2-x,1/2+y,1/2+z
1/2+x,1/2-y,1/2+z
loop_
_atom_site_type_symbol
_atom_site_label
_atom_site_fract_x
_atom_site_fract_y
_atom_site_fract_z
Si Si1 0.552504 0.626599 0.000000
Si Si2 0.153347 0.000000 0.887911
Si Si3 0.446149 0.873731 0.611282
Si Si4 0.079734 0.786381 0.710752
Si Si5 0.948519 0.000000 0.830377
Si Si6 0.764640 0.369945 0.119431
Si Si7 0.818774 0.202305 0.247122
O O1 0.563831 0.698693 0.097294
O O2 0.572040 0.500000 0.000000
O O3 0.500000 0.610910 0.000000
O O4 0.098747 0.000000 0.890920
O O5 0.171982 0.103867 0.829621
O O6 0.170572 0.000000 0.000000
O O7 0.430838 0.830577 0.500000
O O8 0.500000 0.870904 0.608924
O O9 0.432044 0.808664 0.710191
O O10 0.432236 0.000000 0.617251
O O11 0.133159 0.783068 0.703661
O O12 0.058144 0.892817 0.763477
O O13 0.000000 0.000000 0.872277
O O14 0.768899 0.500000 0.130767
O O15 0.802120 0.305108 0.182300
O O16 0.718393 0.330932 0.171128
O O17 0.766113 0.344825 0.000000
#
# Coordination Sequence:
#
# PCOD9521390 Si02
#       7
#     8   8  16  16   8  16  16
#     4  11  22  36  59  89 125 169 208 243 291 351
#     4  10  20  35  54  80 120 158 190 239 295 351
#     4   9  19  37  60  84 113 155 202 247 295 348
#     4  11  22  36  58  86 124 157 198 251 294 359
#     4  10  20  34  52  80 118 162 203 245 290 343
#     4  10  21  39  65  86 111 145 189 241 295 358
#     4  10  22  38  55  88 116 146 193 238 294 353
#
# _framework density 18.029781
#
# number of rings (size 3 to 8) (size 9 to 14) (size 15 to 20)
#    0.000    1.909    1.818    2.727    1.273    4.545 
#    0.000    2.273    0.000    1.636    0.000    0.000 
#    0.000    0.000    0.000    0.000    0.000    0.000 
#
# Total GULP energy -245044.964559 kJ/mol
# GULP energy per Si atom -5569.203740 kJ/mol
# Density = 1.798874 g / cm^3
# Si number density = 18.029781 Si / 1000 Ang^3
#
#
#
# Elastic Constant Matrix: (Units=GPa)
#
#
# Indices 1 2 3 4 5 6 
#
# 1 83.5783 28.4749 28.1022 0.0000 0.0000 0.0000
# 2 28.4749 85.1174 60.6705 0.0000 0.0000 0.0000
# 3 28.1022 60.6705 147.5310 0.0000 0.0000 0.0000
# 4 0.0000 0.0000 0.0000 66.1034 0.0000 0.0000
# 5 0.0000 0.0000 0.0000 0.0000 3.0331 0.0000
# 6 0.0000 0.0000 0.0000 0.0000 0.0000 28.1606
#
#
#
# Elastic Compliance Matrix: (Units=1/GPa)
#
#
# Indices 1 2 3 4 5 6 
#
# 1 0.013611 -0.003827 -0.001019 0.000000 0.000000 0.000000
# 2 -0.003827 0.017697 -0.006548 0.000000 0.000000 0.000000
# 3 -0.001019 -0.006548 0.009665 0.000000 0.000000 0.000000
# 4 0.000000 0.000000 0.000000 0.015128 0.000000 0.000000
# 5 0.000000 0.000000 0.000000 0.000000 0.329696 0.000000
# 6 0.000000 0.000000 0.000000 0.000000 0.000000 0.035511
#
#
# Mechanical properties :
#
#
# Convention : Reuss Voigt Hill
#
# Bulk Modulus (GPa) = 54.99339 61.19134 58.09237
# Shear Modulus (GPa) = 11.10722 32.72469 21.91596
#
# Velocity S-wave (km/s) = 2.48472 4.26495 3.49024
# Velocity P-wave (km/s) = 6.22892 7.63320 6.96653
#
# Compressibility (1/GPa) = 0.01818400
#
# Stress axis : x y z
#
# Youngs Moduli (GPa) = 73.46812 56.50828 103.46306
#
# Poissons Ratio (x) = 0.21627 0.10541
# Poissons Ratio (y) = 0.28119 0.67752
# Poissons Ratio (z) = 0.07485 0.37004
#
# Static dielectric constant tensor:
#      x y z
#    x 1.622640 0.000000 0.000000 
#    y 0.000000 1.619050 0.000000 
#    z 0.000000 0.000000 1.657330 
# 
# From -- ./inp_files/29800.got.cif
#   From: 2010.05.17/outbox.cif.g08.bks.cpg/sg71_15_cif.got.tgz:29800.got - 2010.06.03 16:22:01.
