data_PCOD9521825
_publ_section_title
;
Structure prediction by ZEFSAII (Michael W. Deem and Ramdas Pophale) SiO2 
 PCOD9521825
Probable space group: I M M M
;
_chemical_formula_sum "Si O2"
_cell_formula_units_Z 96
_cell_length_a 12.723209
_cell_length_b 14.600896
_cell_length_c 24.207391
_cell_angle_alpha 90.000000
_cell_angle_beta 90.000000
_cell_angle_gamma 90.000000
_cell_volume 4497.013112
_symmetry_space_group_name_H-M "I M M M"
_symmetry_group_IT_number 71
_symmetry_cell_setting 'orthorhombic'
loop_
_space_group_symop_operation_xyz
x,y,z
-x,-y,z
x,-y,-z
-x,y,-z
-x,-y,-z
x,y,-z
-x,y,z
x,-y,z
1/2+x,1/2+y,1/2+z
1/2-x,1/2-y,1/2+z
1/2+x,1/2-y,1/2-z
1/2-x,1/2+y,1/2-z
1/2-x,1/2-y,1/2-z
1/2+x,1/2+y,1/2-z
1/2-x,1/2+y,1/2+z
1/2+x,1/2-y,1/2+z
loop_
_atom_site_type_symbol
_atom_site_label
_atom_site_fract_x
_atom_site_fract_y
_atom_site_fract_z
Si Si1 0.119783 0.101617 0.356012
Si Si2 0.886384 0.894675 0.182394
Si Si3 0.838335 0.148683 0.061380
Si Si4 0.000000 0.388797 0.814706
Si Si5 0.712159 0.106616 0.258340
Si Si6 0.000000 0.312979 0.938782
Si Si7 0.616380 0.228382 0.936025
O O1 0.204495 0.108390 0.308076
O O2 0.134362 0.182975 0.398807
O O3 0.000000 0.108009 0.334266
O O4 0.130600 0.000000 0.381494
O O5 0.879215 0.898034 0.116387
O O6 0.780124 0.851814 0.207903
O O7 0.000000 0.852121 0.196529
O O8 0.888691 0.000000 0.202917
O O9 0.713750 0.160430 0.069067
O O10 0.897877 0.246749 0.061658
O O11 0.859206 0.109795 0.000000
O O12 0.896466 0.354971 0.782074
O O13 0.000000 0.363814 0.879897
O O14 0.000000 0.500000 0.813629
O O15 0.688154 0.000000 0.243829
O O16 0.000000 0.360071 0.000000
O O17 0.500000 0.190310 0.922856
O O18 0.615721 0.257047 0.000000
#
# Coordination Sequence:
#
# PCOD9521825 Si02
#       7
#    16  16  16   8  16   8  16
#     4   9  16  28  49  75 102 134 178 224 258 295
#     4  10  20  36  60  83 102 129 171 222 276 334
#     4  10  20  36  56  77 107 139 168 218 278 328
#     4  10  20  35  54  77 112 152 188 218 249 307
#     4   9  18  33  52  75 104 139 172 212 264 311
#     4  10  20  35  55  80 110 146 182 222 273 313
#     4   9  18  32  49  71 103 143 178 209 257 313
#
# _framework density 21.347503
#
# number of rings (size 3 to 8) (size 9 to 14) (size 15 to 20)
#    0.000    2.500    0.833    1.500    0.000    2.833 
#    1.500    5.833    0.000    6.000    0.000    2.333 
#    0.000    0.000    0.000    0.000    0.000    0.000 
#
# Total GULP energy -267553.285663 kJ/mol
# GULP energy per Si atom -5574.026785 kJ/mol
# Density = 2.129891 g / cm^3
# Si number density = 21.347503 Si / 1000 Ang^3
#
#
#
# Elastic Constant Matrix: (Units=GPa)
#
#
# Indices 1 2 3 4 5 6 
#
# 1 140.6151 18.7197 58.6870 0.0000 0.0000 0.0000
# 2 18.7197 23.9992 13.4861 0.0000 0.0000 0.0000
# 3 58.6870 13.4861 99.8048 0.0000 0.0000 0.0000
# 4 0.0000 0.0000 0.0000 27.2949 0.0000 0.0000
# 5 0.0000 0.0000 0.0000 0.0000 32.7556 0.0000
# 6 0.0000 0.0000 0.0000 0.0000 0.0000 9.0758
#
#
#
# Elastic Compliance Matrix: (Units=1/GPa)
#
#
# Indices 1 2 3 4 5 6 
#
# 1 0.009915 -0.004824 -0.005178 0.000000 0.000000 0.000000
# 2 -0.004824 0.047439 -0.003574 0.000000 0.000000 0.000000
# 3 -0.005178 -0.003574 0.013547 0.000000 0.000000 0.000000
# 4 0.000000 0.000000 0.000000 0.036637 0.000000 0.000000
# 5 0.000000 0.000000 0.000000 0.000000 0.030529 0.000000
# 6 0.000000 0.000000 0.000000 0.000000 0.000000 0.110184
#
#
# Mechanical properties :
#
#
# Convention : Reuss Voigt Hill
#
# Bulk Modulus (GPa) = 22.85742 49.57829 36.21785
# Shear Modulus (GPa) = 17.24221 25.39368 21.31794
#
# Velocity S-wave (km/s) = 2.84508 3.45271 3.16352
# Velocity P-wave (km/s) = 4.63931 6.25858 5.50876
#
# Compressibility (1/GPa) = 0.04374948
#
# Stress axis : x y z
#
# Youngs Moduli (GPa) = 100.85671 21.07975 73.81469
#
# Poissons Ratio (x) = 0.10169 0.38224
# Poissons Ratio (y) = 0.48652 0.26379
# Poissons Ratio (z) = 0.52228 0.07533
#
# Static dielectric constant tensor:
#      x y z
#    x 1.837100 0.000000 0.000000 
#    y 0.000000 1.798220 0.000000 
#    z 0.000000 0.000000 1.772220 
# 
# From -- ./inp_files/43574.got.cif
#   From: 2010.05.17/outbox.cif.g08.bks.cpg/sg71_22_cif.got.tgz:43574.got - 2010.06.03 16:22:01.
