data_PCOD9521088
_publ_section_title
;
Structure prediction by ZEFSAII (Michael W. Deem and Ramdas Pophale) SiO2 
 PCOD9521088
Probable space group: I M M M
;
_chemical_formula_sum "Si O2"
_cell_formula_units_Z 88
_cell_length_a 7.392445
_cell_length_b 28.156637
_cell_length_c 18.578382
_cell_angle_alpha 90.000000
_cell_angle_beta 90.000000
_cell_angle_gamma 90.000000
_cell_volume 3867.023153
_symmetry_space_group_name_H-M "I M M M"
_symmetry_group_IT_number 71
_symmetry_cell_setting 'orthorhombic'
loop_
_space_group_symop_operation_xyz
x,y,z
-x,-y,z
x,-y,-z
-x,y,-z
-x,-y,-z
x,y,-z
-x,y,z
x,-y,z
1/2+x,1/2+y,1/2+z
1/2-x,1/2-y,1/2+z
1/2+x,1/2-y,1/2-z
1/2-x,1/2+y,1/2-z
1/2-x,1/2-y,1/2-z
1/2+x,1/2+y,1/2-z
1/2-x,1/2+y,1/2+z
1/2+x,1/2-y,1/2+z
loop_
_atom_site_type_symbol
_atom_site_label
_atom_site_fract_x
_atom_site_fract_y
_atom_site_fract_z
Si Si1 0.280654 0.183625 0.916969
Si Si2 0.701892 0.774277 0.674568
Si Si3 0.779369 0.500000 0.582055
Si Si4 0.221814 0.640771 0.918887
Si Si5 0.220332 0.591943 0.671872
Si Si6 0.279642 0.945471 0.673292
O O1 0.500000 0.185032 0.915178
O O2 0.212508 0.233032 0.884978
O O3 0.220687 0.140820 0.864959
O O4 0.227041 0.176149 0.000000
O O5 0.500000 0.790945 0.688690
O O6 0.750000 0.750000 0.750000
O O7 0.790889 0.820318 0.638523
O O8 0.719688 0.500000 0.500000
O O9 0.723447 0.452660 0.623299
O O10 0.000000 0.500000 0.582236
O O11 0.272891 0.588366 0.892289
O O12 0.000000 0.642512 0.919816
O O13 0.280990 0.651281 0.000000
O O14 0.277180 0.580529 0.752919
O O15 0.000000 0.593136 0.671977
O O16 0.500000 0.947010 0.674908
O O17 0.218195 0.000000 0.670744
#
# Coordination Sequence:
#
# PCOD9521088 Si02
#       6
#    16  16   8  16  16  16
#     4  10  20  33  51  77 110 145 179 217 260 309
#     4  11  22  37  56  77 103 137 177 220 268 321
#     4   9  14  20  34  58  92 134 174 211 257 309
#     4   9  18  31  47  69  99 134 168 204 253 313
#     4   9  15  25  40  65 101 138 174 213 258 305
#     4   9  15  24  40  63  94 133 170 205 251 308
#
# _framework density 22.756523999999999
#
# number of rings (size 3 to 8) (size 9 to 14) (size 15 to 20)
#    0.000    2.455    0.909    2.727    0.000    6.545 
#    0.000    1.818    0.000    0.000    0.000    0.636 
#    0.000    4.364    0.000   13.455    0.000   14.909 
#
# Total GULP energy -245783.452518 kJ/mol
# GULP energy per Si atom -5585.987557 kJ/mol
# Density = 2.270473 g / cm^3
# Si number density = 22.756524 Si / 1000 Ang^3
#
#
#
# Elastic Constant Matrix: (Units=GPa)
#
#
# Indices 1 2 3 4 5 6 
#
# 1 70.1183 -11.3363 7.0748 0.0000 0.0000 0.0000
# 2 -11.3363 127.5185 55.2965 0.0000 0.0000 0.0000
# 3 7.0748 55.2965 141.7338 0.0000 0.0000 0.0000
# 4 0.0000 0.0000 0.0000 41.7592 0.0000 0.0000
# 5 0.0000 0.0000 0.0000 0.0000 3.1851 0.0000
# 6 0.0000 0.0000 0.0000 0.0000 0.0000 -0.0555
#
#
#
# Elastic Compliance Matrix: (Units=1/GPa)
#
#
# Indices 1 2 3 4 5 6 
#
# 1 0.014730 0.001960 -0.001500 0.000000 0.000000 0.000000
# 2 0.001960 0.009700 -0.003882 0.000000 0.000000 0.000000
# 3 -0.001500 -0.003882 0.008645 0.000000 0.000000 0.000000
# 4 0.000000 0.000000 0.000000 0.023947 0.000000 0.000001
# 5 0.000000 0.000000 0.000000 0.000000 0.313966 0.000001
# 6 0.000000 0.000000 0.000000 0.000001 0.000001-18.012022
#
#
# Mechanical properties :
#
#
# Convention : Reuss Voigt Hill
#
# Bulk Modulus (GPa) = 38.12402 49.04895 43.58649
# Shear Modulus (GPa) = -0.28368 28.20012 13.95822
#
# Velocity S-wave (km/s) = -0.35345 3.52406 2.47932
# Velocity P-wave (km/s) = 4.07711 6.17732 5.23364
#
# Compressibility (1/GPa) = 0.02623018
#
# Stress axis : x y z
#
# Youngs Moduli (GPa) = 67.88955 103.09669 115.67495
#
# Poissons Ratio (x) = -0.20206 0.17350
# Poissons Ratio (y) = -0.13306 0.44906
# Poissons Ratio (z) = 0.10183 0.40023
#
# Static dielectric constant tensor:
#      x y z
#    x 1.931060 0.000000 0.000000 
#    y 0.000000 1.810200 0.000000 
#    z 0.000000 0.000000 1.812060 
# 
# From -- ./inp_files/42475.got.cif
#   From: 2010.05.17/outbox.cif.g08.bks.cpg/sg71_22_cif.got.tgz:42475.got - 2010.06.03 16:22:01.
