data_PCOD9521134
_publ_section_title
;
Structure prediction by ZEFSAII (Michael W. Deem and Ramdas Pophale) SiO2 
 PCOD9521134
Probable space group: I M M M
;
_chemical_formula_sum "Si O2"
_cell_formula_units_Z 104
_cell_length_a 20.158029
_cell_length_b 26.772552
_cell_length_c 8.503530
_cell_angle_alpha 90.000000
_cell_angle_beta 90.000000
_cell_angle_gamma 90.000000
_cell_volume 4589.201054
_symmetry_space_group_name_H-M "I M M M"
_symmetry_group_IT_number 71
_symmetry_cell_setting 'orthorhombic'
loop_
_space_group_symop_operation_xyz
x,y,z
-x,-y,z
x,-y,-z
-x,y,-z
-x,-y,-z
x,y,-z
-x,y,z
x,-y,z
1/2+x,1/2+y,1/2+z
1/2-x,1/2-y,1/2+z
1/2+x,1/2-y,1/2-z
1/2-x,1/2+y,1/2-z
1/2-x,1/2-y,1/2-z
1/2+x,1/2+y,1/2-z
1/2-x,1/2+y,1/2+z
1/2+x,1/2-y,1/2+z
loop_
_atom_site_type_symbol
_atom_site_label
_atom_site_fract_x
_atom_site_fract_y
_atom_site_fract_z
Si Si1 0.923512 0.940943 0.000000
Si Si2 0.283422 0.945104 0.187787
Si Si3 0.075653 0.905786 0.327029
Si Si4 0.747896 0.662248 0.810125
Si Si5 0.392835 0.191708 0.312294
Si Si6 0.888360 0.793573 0.317472
Si Si7 0.572736 0.919226 0.309252
O O1 0.892424 0.924851 0.834323
O O2 0.000000 0.920763 0.000000
O O3 0.926319 0.000000 0.000000
O O4 0.251156 0.895965 0.263912
O O5 0.361770 0.942175 0.232779
O O6 0.258457 0.000000 0.238829
O O7 0.276421 0.941646 0.000000
O O8 0.105654 0.916874 0.500000
O O9 0.073546 0.845907 0.312035
O O10 0.000000 0.925645 0.330386
O O11 0.816478 0.687028 0.756000
O O12 0.683738 0.691333 0.748534
O O13 0.745689 0.664115 0.000000
O O14 0.393105 0.191175 0.500000
O O15 0.419290 0.245033 0.259968
O O16 0.425998 0.139696 0.264651
O O17 0.880118 0.780649 0.500000
O O18 0.579715 0.922858 0.500000
O O19 0.500000 0.939536 0.267458
#
# Coordination Sequence:
#
# PCOD9521134 Si02
#       7
#     8  16  16  16  16  16  16
#     4   9  18  34  56  78 100 134 176 212 258 318
#     4  10  21  36  54  78 107 138 175 224 281 328
#     4   9  19  35  53  78 111 140 174 222 270 324
#     4   9  19  36  54  74 102 137 181 224 262 318
#     4   9  18  31  50  76 104 138 176 217 264 311
#     4  10  20  33  52  77 106 141 178 216 267 325
#     4   9  19  36  55  78 109 143 183 223 259 314
#
# _framework density 22.661895999999999
#
# number of rings (size 3 to 8) (size 9 to 14) (size 15 to 20)
#    0.000    2.692    0.000    1.846    1.077    5.846 
#    0.000    3.846    0.000    2.769    0.000    0.000 
#    0.000    0.000    0.000    0.000    0.000    0.000 
#
# Total GULP energy -290155.012440 kJ/mol
# GULP energy per Si atom -5579.904085 kJ/mol
# Density = 2.261032 g / cm^3
# Si number density = 22.661896 Si / 1000 Ang^3
#
#
#
# Elastic Constant Matrix: (Units=GPa)
#
#
# Indices 1 2 3 4 5 6 
#
# 1 66.5941 -6.4693 0.7920 0.0000 0.0000 0.0000
# 2 -6.4693 108.5482 29.0811 0.0000 0.0000 0.0000
# 3 0.7920 29.0811 72.9636 0.0000 0.0000 0.0000
# 4 0.0000 0.0000 0.0000 16.6111 0.0000 0.0000
# 5 0.0000 0.0000 0.0000 0.0000 40.2892 0.0000
# 6 0.0000 0.0000 0.0000 0.0000 0.0000 13.2874
#
#
#
# Elastic Compliance Matrix: (Units=1/GPa)
#
#
# Indices 1 2 3 4 5 6 
#
# 1 0.015126 0.001059 -0.000586 0.000000 0.000000 0.000000
# 2 0.001059 0.010388 -0.004152 0.000000 0.000000 0.000000
# 3 -0.000586 -0.004152 0.015367 0.000000 0.000000 0.000000
# 4 0.000000 0.000000 0.000000 0.060201 0.000000 0.000000
# 5 0.000000 0.000000 0.000000 0.000000 0.024821 0.000000
# 6 0.000000 0.000000 0.000000 0.000000 0.000000 0.075259
#
#
# Mechanical properties :
#
#
# Convention : Reuss Voigt Hill
#
# Bulk Modulus (GPa) = 29.83121 32.76815 31.29968
# Shear Modulus (GPa) = 22.75898 29.01770 25.88834
#
# Velocity S-wave (km/s) = 3.17248 3.58224 3.38357
# Velocity P-wave (km/s) = 5.15865 5.62146 5.39502
#
# Compressibility (1/GPa) = 0.03352193
#
# Stress axis : x y z
#
# Youngs Moduli (GPa) = 66.11067 96.26600 65.07625
#
# Poissons Ratio (x) = -0.10190 0.03814
# Poissons Ratio (y) = -0.06998 0.27018
# Poissons Ratio (z) = 0.03875 0.39968
#
# Static dielectric constant tensor:
#      x y z
#    x 1.889710 0.000000 0.000000 
#    y 0.000000 1.815860 0.000000 
#    z 0.000000 0.000000 1.824310 
# 
# From -- ./inp_files/13296.got.cif
#   From: 2010.05.17/outbox.cif.g08.bks.cpg/sg71_7_cif.got.tgz:13296.got - 2010.06.03 16:22:01.
