data_PCOD9521664
_publ_section_title
;
Structure prediction by ZEFSAII (Michael W. Deem and Ramdas Pophale) SiO2 
 PCOD9521664
Probable space group: I M M M
;
_chemical_formula_sum "Si O2"
_cell_formula_units_Z 112
_cell_length_a 14.740976
_cell_length_b 14.393339
_cell_length_c 24.800513
_cell_angle_alpha 90.000000
_cell_angle_beta 90.000000
_cell_angle_gamma 90.000000
_cell_volume 5261.971090
_symmetry_space_group_name_H-M "I M M M"
_symmetry_group_IT_number 71
_symmetry_cell_setting 'orthorhombic'
loop_
_space_group_symop_operation_xyz
x,y,z
-x,-y,z
x,-y,-z
-x,y,-z
-x,-y,-z
x,y,-z
-x,y,z
x,-y,z
1/2+x,1/2+y,1/2+z
1/2-x,1/2-y,1/2+z
1/2+x,1/2-y,1/2-z
1/2-x,1/2+y,1/2-z
1/2-x,1/2-y,1/2-z
1/2+x,1/2+y,1/2-z
1/2-x,1/2+y,1/2+z
1/2+x,1/2-y,1/2+z
loop_
_atom_site_type_symbol
_atom_site_label
_atom_site_fract_x
_atom_site_fract_y
_atom_site_fract_z
Si Si1 0.891691 0.390189 0.097984
Si Si2 0.211971 0.211780 0.059475
Si Si3 0.905102 0.805030 0.271818
Si Si4 0.605297 0.391894 0.346527
Si Si5 0.373163 0.899514 0.788869
Si Si6 0.607569 0.892477 0.917506
Si Si7 0.242269 0.398003 0.807352
O O1 0.883783 0.500000 0.082208
O O2 0.826638 0.317577 0.066320
O O3 0.848264 0.382767 0.158099
O O4 0.000000 0.366957 0.096000
O O5 0.166465 0.157516 0.109064
O O6 0.318968 0.182987 0.062134
O O7 0.180904 0.180413 0.000000
O O8 0.891862 0.844101 0.211911
O O9 0.912821 0.695511 0.268317
O O10 0.822277 0.825119 0.312011
O O11 0.000000 0.845320 0.292655
O O12 0.500000 0.386282 0.364157
O O13 0.630381 0.500000 0.341753
O O14 0.377571 0.895356 0.852912
O O15 0.279710 0.898633 0.756072
O O16 0.410536 0.000000 0.773016
O O17 0.500000 0.872911 0.927813
O O18 0.625271 0.000000 0.936097
O O19 0.276835 0.500000 0.822603
#
# Coordination Sequence:
#
# PCOD9521664 Si02
#       7
#    16  16  16  16  16  16  16
#     4  10  23  43  65  92 127 162 198 249 314 376
#     4  12  25  41  65  91 114 151 207 263 314 369
#     4  11  21  34  57  87 123 166 203 238 290 358
#     4  10  22  39  57  83 123 165 205 255 316 374
#     4  10  20  34  55  83 117 158 200 241 285 340
#     4  10  22  40  62  92 131 169 204 249 308 369
#     4  10  20  35  57  85 119 158 199 241 287 351
#
# _framework density 21.284800000000001
#
# number of rings (size 3 to 8) (size 9 to 14) (size 15 to 20)
#    0.000    1.571    0.000    4.714    0.000    8.000 
#    0.000    6.429    0.000    1.286    0.000    1.000 
#    0.000    0.000    0.000    0.000    0.000    0.000 
#
# Total GULP energy -311959.672696 kJ/mol
# GULP energy per Si atom -5570.708441 kJ/mol
# Density = 2.123636 g / cm^3
# Si number density = 21.284800 Si / 1000 Ang^3
#
#
#
# Elastic Constant Matrix: (Units=GPa)
#
#
# Indices 1 2 3 4 5 6 
#
# 1 139.8555 64.3510 27.6396 0.0000 0.0000 0.0000
# 2 64.3510 131.8664 27.6428 0.0000 0.0000 0.0000
# 3 27.6396 27.6428 44.5729 0.0000 0.0000 0.0000
# 4 0.0000 0.0000 0.0000 -10.8167 0.0000 0.0000
# 5 0.0000 0.0000 0.0000 0.0000 -50.0841 0.0000
# 6 0.0000 0.0000 0.0000 0.0000 0.0000 204.9415
#
#
#
# Elastic Compliance Matrix: (Units=1/GPa)
#
#
# Indices 1 2 3 4 5 6 
#
# 1 0.009682 -0.003984 -0.003533 0.000000 0.000000 0.000000
# 2 -0.003984 0.010356 -0.003952 0.000000 0.000000 0.000000
# 3 -0.003533 -0.003952 0.027077 0.000000 0.000000 0.000000
# 4 0.000000 0.000000 0.000000 -0.092449 0.000000 0.000000
# 5 0.000000 0.000000 0.000000 0.000000 -0.019966 0.000000
# 6 0.000000 0.000000 0.000000 0.000000 0.000000 0.004879
#
#
# Mechanical properties :
#
#
# Convention : Reuss Voigt Hill
#
# Bulk Modulus (GPa) = 41.36207 61.72908 51.54558
# Shear Modulus (GPa) = -169.92270 41.91889 -64.00190
#
# Velocity S-wave (km/s) = -8.94462 4.44264 -5.48950
# Velocity P-wave (km/s) = 9.33810 7.44181 3.98871
#
# Compressibility (1/GPa) = 0.02417674
#
# Stress axis : x y z
#
# Youngs Moduli (GPa) = 103.28887 96.56125 36.93207
#
# Poissons Ratio (x) = 0.38471 0.13047
# Poissons Ratio (y) = 0.41151 0.14596
# Poissons Ratio (z) = 0.36489 0.38161
#
# Static dielectric constant tensor:
#      x y z
#    x 2.038200 0.000000 0.000000 
#    y 0.000000 1.791210 0.000000 
#    z 0.000000 0.000000 1.752200 
# 
# From -- ./inp_files/59950.got.cif
#   From: 2010.05.17/outbox.cif.g08.bks.cpg/sg71_30_cif.got.tgz:59950.got - 2010.06.03 16:22:01.
