data_PCOD9521822
_publ_section_title
;
Structure prediction by ZEFSAII (Michael W. Deem and Ramdas Pophale) SiO2 
 PCOD9521822
Probable space group: I M M M
;
_chemical_formula_sum "Si O2"
_cell_formula_units_Z 88
_cell_length_a 14.709892
_cell_length_b 18.578468
_cell_length_c 16.928195
_cell_angle_alpha 90.000000
_cell_angle_beta 90.000000
_cell_angle_gamma 90.000000
_cell_volume 4626.259991
_symmetry_space_group_name_H-M "I M M M"
_symmetry_group_IT_number 71
_symmetry_cell_setting 'orthorhombic'
loop_
_space_group_symop_operation_xyz
x,y,z
-x,-y,z
x,-y,-z
-x,y,-z
-x,-y,-z
x,y,-z
-x,y,z
x,-y,z
1/2+x,1/2+y,1/2+z
1/2-x,1/2-y,1/2+z
1/2+x,1/2-y,1/2-z
1/2-x,1/2+y,1/2-z
1/2-x,1/2-y,1/2-z
1/2+x,1/2+y,1/2-z
1/2-x,1/2+y,1/2+z
1/2+x,1/2-y,1/2+z
loop_
_atom_site_type_symbol
_atom_site_label
_atom_site_fract_x
_atom_site_fract_y
_atom_site_fract_z
Si Si1 0.500000 0.088201 0.090751
Si Si2 0.180120 0.416813 0.676685
Si Si3 0.400172 0.417863 0.094439
Si Si4 0.759943 0.823559 0.680548
Si Si5 0.634435 0.417793 0.407528
Si Si6 0.396192 0.724467 0.309679
O O1 0.411403 0.111843 0.138055
O O2 0.500000 0.000000 0.089220
O O3 0.500000 0.112237 0.000000
O O4 0.166675 0.500000 0.700111
O O5 0.214415 0.372835 0.751711
O O6 0.257821 0.415879 0.609761
O O7 0.500000 0.391056 0.122775
O O8 0.390856 0.500000 0.123756
O O9 0.314365 0.372196 0.119973
O O10 0.403640 0.419776 0.000000
O O11 0.678777 0.774511 0.646153
O O12 0.842173 0.782574 0.726523
O O13 0.614399 0.406018 0.500000
O O14 0.605302 0.500000 0.387104
O O15 0.599395 0.353554 0.352162
O O16 0.500000 0.751477 0.303975
#
# Coordination Sequence:
#
# PCOD9521822 Si02
#       6
#     8  16  16  16  16  16
#     4   9  16  26  44  74 109 141 178 223 261 305
#     4   9  17  29  49  77 104 138 179 215 263 318
#     4   9  18  34  59  88 112 138 179 233 288 333
#     4  10  20  35  54  76 108 148 175 227 274 330
#     4   9  18  34  54  75 102 133 172 224 275 324
#     4  10  22  36  51  76 105 143 183 220 270 331
#
# _framework density 19.021844999999999
#
# number of rings (size 3 to 8) (size 9 to 14) (size 15 to 20)
#    0.000    2.636    0.000    2.182    1.273    4.364 
#    0.000    0.909    0.000    0.000    0.000    1.273 
#    0.000    0.000    0.000    0.000    0.000    0.000 
#
# Total GULP energy -245107.558330 kJ/mol
# GULP energy per Si atom -5570.626326 kJ/mol
# Density = 1.897855 g / cm^3
# Si number density = 19.021845 Si / 1000 Ang^3
#
#
#
# Elastic Constant Matrix: (Units=GPa)
#
#
# Indices 1 2 3 4 5 6 
#
# 1 176.7456 52.9885 29.5437 0.0000 0.0000 0.0000
# 2 52.9885 72.7390 23.4739 0.0000 0.0000 0.0000
# 3 29.5437 23.4739 36.3332 0.0000 0.0000 0.0000
# 4 0.0000 0.0000 0.0000 10.8414 0.0000 0.0000
# 5 0.0000 0.0000 0.0000 0.0000 15.4118 0.0000
# 6 0.0000 0.0000 0.0000 0.0000 0.0000 17.0976
#
#
#
# Elastic Compliance Matrix: (Units=1/GPa)
#
#
# Indices 1 2 3 4 5 6 
#
# 1 0.007532 -0.004435 -0.003259 0.000000 0.000000 0.000000
# 2 -0.004435 0.019981 -0.009303 0.000000 0.000000 0.000000
# 3 -0.003259 -0.009303 0.036183 0.000000 0.000000 0.000000
# 4 0.000000 0.000000 0.000000 0.092239 0.000000 0.000000
# 5 0.000000 0.000000 0.000000 0.000000 0.064886 0.000000
# 6 0.000000 0.000000 0.000000 0.000000 0.000000 0.058488
#
#
# Mechanical properties :
#
#
# Convention : Reuss Voigt Hill
#
# Bulk Modulus (GPa) = 33.66743 55.31443 44.49093
# Shear Modulus (GPa) = 15.47010 20.65760 18.06385
#
# Velocity S-wave (km/s) = 2.85490 3.29902 3.08496
# Velocity P-wave (km/s) = 5.34837 6.60711 6.01078
#
# Compressibility (1/GPa) = 0.02970230
#
# Stress axis : x y z
#
# Youngs Moduli (GPa) = 132.76051 50.04783 27.63697
#
# Poissons Ratio (x) = 0.22198 0.09008
# Poissons Ratio (y) = 0.58884 0.25710
# Poissons Ratio (z) = 0.43270 0.46557
#
# Static dielectric constant tensor:
#      x y z
#    x 1.691820 0.000000 0.000000 
#    y 0.000000 1.729350 0.000000 
#    z 0.000000 0.000000 1.641560 
# 
# From -- ./inp_files/44719.got.cif
#   From: 2010.05.17/outbox.cif.g08.bks.cpg/sg71_23_cif.got.tgz:44719.got - 2010.06.03 16:22:01.
