data_PCOD9521426
_publ_section_title
;
Structure prediction by ZEFSAII (Michael W. Deem and Ramdas Pophale) SiO2 
 PCOD9521426
Probable space group: I M M M
;
_chemical_formula_sum "Si O2"
_cell_formula_units_Z 80
_cell_length_a 29.738961
_cell_length_b 15.582519
_cell_length_c 7.460424
_cell_angle_alpha 90.000000
_cell_angle_beta 90.000000
_cell_angle_gamma 90.000000
_cell_volume 3457.219604
_symmetry_space_group_name_H-M "I M M M"
_symmetry_group_IT_number 71
_symmetry_cell_setting 'orthorhombic'
loop_
_space_group_symop_operation_xyz
x,y,z
-x,-y,z
x,-y,-z
-x,y,-z
-x,-y,-z
x,y,-z
-x,y,z
x,-y,z
1/2+x,1/2+y,1/2+z
1/2-x,1/2-y,1/2+z
1/2+x,1/2-y,1/2-z
1/2-x,1/2+y,1/2-z
1/2-x,1/2-y,1/2-z
1/2+x,1/2+y,1/2-z
1/2-x,1/2+y,1/2+z
1/2+x,1/2-y,1/2+z
loop_
_atom_site_type_symbol
_atom_site_label
_atom_site_fract_x
_atom_site_fract_y
_atom_site_fract_z
Si Si1 0.449912 0.500000 0.714448
Si Si2 0.097095 0.654773 0.203608
Si Si3 0.614528 0.652406 0.789947
Si Si4 0.208860 0.137183 0.707065
Si Si5 0.804627 0.339877 0.780506
Si Si6 0.500000 0.897510 0.290185
O O1 0.500000 0.500000 0.783922
O O2 0.450551 0.500000 0.500000
O O3 0.424282 0.415731 0.774468
O O4 0.101935 0.757875 0.200321
O O5 0.146232 0.627372 0.279129
O O6 0.048458 0.632566 0.285861
O O7 0.095688 0.620137 0.000000
O O8 0.660763 0.610180 0.716848
O O9 0.621760 0.672205 0.000000
O O10 0.210318 0.109767 0.500000
O O11 0.202370 0.241052 0.719721
O O12 0.258224 0.115505 0.780254
O O13 0.805160 0.339173 0.000000
O O14 0.500000 0.868342 0.500000
O O15 0.500000 0.000000 0.284191
#
# Coordination Sequence:
#
# PCOD9521426 Si02
#       6
#     8  16  16  16  16   8
#     4  11  25  41  55  71  99 137 177 216 255 298
#     4   9  17  30  51  76 103 136 176 216 253 300
#     4  10  20  34  53  77 105 134 168 210 259 309
#     4   8  14  25  43  68  99 128 158 199 247 295
#     4   8  13  23  42  69  98 127 164 203 242 291
#     4   9  18  32  51  74 103 134 167 213 260 295
#
# _framework density 23.139980999999999
#
# number of rings (size 3 to 8) (size 9 to 14) (size 15 to 20)
#    0.000    3.000    0.000    0.900    1.400    1.600 
#    0.000    0.000    2.200    1.200    0.000    0.000 
#    0.000    0.000    0.000    0.000    0.000    0.000 
#
# Total GULP energy -222818.690766 kJ/mol
# GULP energy per Si atom -5570.467269 kJ/mol
# Density = 2.308731 g / cm^3
# Si number density = 23.139981 Si / 1000 Ang^3
#
#
#
# Elastic Constant Matrix: (Units=GPa)
#
#
# Indices 1 2 3 4 5 6 
#
# 1 301.0409 40.6252 6.0114 0.0000 0.0000 0.0000
# 2 40.6252 32.0463 -2.0025 0.0000 0.0000 0.0000
# 3 6.0114 -2.0025 84.3092 0.0000 0.0000 0.0000
# 4 0.0000 0.0000 0.0000 46.9454 0.0000 0.0000
# 5 0.0000 0.0000 0.0000 0.0000 -7.5962 0.0000
# 6 0.0000 0.0000 0.0000 0.0000 0.0000-1037.4093
#
#
#
# Elastic Compliance Matrix: (Units=1/GPa)
#
#
# Indices 1 2 3 4 5 6 
#
# 1 0.004021 -0.005123 -0.000408 0.000000 0.000000 0.000000
# 2 -0.005123 0.037779 0.001263 0.000000 0.000000 0.000000
# 3 -0.000408 0.001263 0.011920 0.000000 0.000000 0.000000
# 4 0.000000 0.000000 0.000000 0.021301 0.000000 0.000000
# 5 0.000000 0.000000 0.000000 0.000000 -0.131645 0.000000
# 6 0.000000 0.000000 0.000000 0.000000 0.000000 -0.000964
#
#
# Mechanical properties :
#
#
# Convention : Reuss Voigt Hill
#
# Bulk Modulus (GPa) = 22.13280 56.29609 39.21445
# Shear Modulus (GPa) = -147.10996 -174.76122 -160.93559
#
# Velocity S-wave (km/s) = -7.98198 -8.69985 -8.34863
# Velocity P-wave (km/s) = 8.68123 8.74844 8.71490
#
# Compressibility (1/GPa) = 0.04518181
#
# Stress axis : x y z
#
# Youngs Moduli (GPa) = 248.67179 26.46995 83.89109
#
# Poissons Ratio (x) = 0.13562 0.03426
# Poissons Ratio (y) = 1.27405 -0.10592
# Poissons Ratio (z) = 0.10156 -0.03342
#
# Static dielectric constant tensor:
#      x y z
#    x 1.972560 0.000000 0.000000 
#    y 0.000000 1.868960 0.000000 
#    z 0.000000 0.000000 1.959280 
# 
# From -- ./inp_files/14628.got.cif
#   From: 2010.05.17/outbox.cif.g08.bks.cpg/sg71_8_cif.got.tgz:14628.got - 2010.06.03 16:22:01.
