data_PCOD9521164
_publ_section_title
;
Structure prediction by ZEFSAII (Michael W. Deem and Ramdas Pophale) SiO2 
 PCOD9521164
Probable space group: I M M M
;
_chemical_formula_sum "Si O2"
_cell_formula_units_Z 64
_cell_length_a 24.866519
_cell_length_b 7.555824
_cell_length_c 13.332727
_cell_angle_alpha 90.000000
_cell_angle_beta 90.000000
_cell_angle_gamma 90.000000
_cell_volume 2505.046625
_symmetry_space_group_name_H-M "I M M M"
_symmetry_group_IT_number 71
_symmetry_cell_setting 'orthorhombic'
loop_
_space_group_symop_operation_xyz
x,y,z
-x,-y,z
x,-y,-z
-x,y,-z
-x,-y,-z
x,y,-z
-x,y,z
x,-y,z
1/2+x,1/2+y,1/2+z
1/2-x,1/2-y,1/2+z
1/2+x,1/2-y,1/2-z
1/2-x,1/2+y,1/2-z
1/2-x,1/2-y,1/2-z
1/2+x,1/2+y,1/2-z
1/2-x,1/2+y,1/2+z
1/2+x,1/2-y,1/2+z
loop_
_atom_site_type_symbol
_atom_site_label
_atom_site_fract_x
_atom_site_fract_y
_atom_site_fract_z
Si Si1 0.292447 0.205917 0.892178
Si Si2 0.439850 0.713190 0.672766
Si Si3 0.935565 0.796201 0.606013
Si Si4 0.324306 0.789334 0.674046
O O1 0.317954 0.280368 0.789601
O O2 0.228086 0.214901 0.880231
O O3 0.308268 0.000000 0.894611
O O4 0.305783 0.288091 0.000000
O O5 0.500000 0.772006 0.638231
O O6 0.443499 0.500000 0.678397
O O7 0.429020 0.788049 0.785056
O O8 0.382166 0.751796 0.624208
O O9 0.918121 0.713545 0.500000
O O10 0.000000 0.807243 0.600809
O O11 0.916140 0.000000 0.608722
O O12 0.317266 0.000000 0.676641
#
# Coordination Sequence:
#
# PCOD9521164 Si02
#       4
#    16  16  16  16
#     4   9  19  37  58  77 101 136 175 215 262 316
#     4   9  17  29  46  69 100 140 179 210 247 302
#     4   7  10  18  33  54  81 115 158 203 238 272
#     4  10  20  33  52  80 109 135 170 217 265 311
#
# _framework density 25.548428000000001
#
# number of rings (size 3 to 8) (size 9 to 14) (size 15 to 20)
#    0.000    3.250    0.000    3.000    0.000    3.000 
#    0.000    0.000    0.000    0.750    0.000   12.250 
#    0.000    0.000    0.000    0.000    0.000    0.000 
#
# Total GULP energy -178311.234947 kJ/mol
# GULP energy per Si atom -5572.226092 kJ/mol
# Density = 2.549028 g / cm^3
# Si number density = 25.548428 Si / 1000 Ang^3
#
#
#
# Elastic Constant Matrix: (Units=GPa)
#
#
# Indices 1 2 3 4 5 6 
#
# 1 218.1007 -5.6745 16.8360 0.0000 0.0000 0.0000
# 2 -5.6745 78.7844 3.3948 0.0000 0.0000 0.0000
# 3 16.8360 3.3948 82.4399 0.0000 0.0000 0.0000
# 4 0.0000 0.0000 0.0000 -9.4485 0.0000 0.0000
# 5 0.0000 0.0000 0.0000 0.0000 -11.3621 0.0000
# 6 0.0000 0.0000 0.0000 0.0000 0.0000 19.4652
#
#
#
# Elastic Compliance Matrix: (Units=1/GPa)
#
#
# Indices 1 2 3 4 5 6 
#
# 1 0.004670 0.000378 -0.000969 0.000000 0.000000 0.000000
# 2 0.000378 0.012746 -0.000602 0.000000 0.000000 0.000000
# 3 -0.000969 -0.000602 0.012353 0.000000 0.000000 0.000000
# 4 0.000000 0.000000 0.000000 -0.105837 0.000000 0.000000
# 5 0.000000 0.000000 0.000000 0.000000 -0.088012 0.000000
# 6 0.000000 0.000000 0.000000 0.000000 0.000000 0.051374
#
#
# Mechanical properties :
#
#
# Convention : Reuss Voigt Hill
#
# Bulk Modulus (GPa) = 36.52023 45.38198 40.95111
# Shear Modulus (GPa) = -49.41072 24.04883 -12.68095
#
# Velocity S-wave (km/s) = -4.40250 3.07140 -2.23031
# Velocity P-wave (km/s) = 3.39369 5.51177 3.07103
#
# Compressibility (1/GPa) = 0.02738208
#
# Stress axis : x y z
#
# Youngs Moduli (GPa) = 214.14680 78.45575 80.95349
#
# Poissons Ratio (x) = -0.02966 0.07846
# Poissons Ratio (y) = -0.08097 0.04874
# Poissons Ratio (z) = 0.20756 0.04724
#
# Static dielectric constant tensor:
#      x y z
#    x 2.042010 0.000000 0.000000 
#    y 0.000000 1.958050 0.000000 
#    z 0.000000 0.000000 2.139780 
# 
# From -- ./inp_files/5480.got.cif
#   From: 2010.05.17/outbox.cif.g08.bks.cpg/sg71_3_cif.got.tgz:5480.got - 2010.06.03 16:22:01.
