data_PCOD9521370
_publ_section_title
;
Structure prediction by ZEFSAII (Michael W. Deem and Ramdas Pophale) SiO2 
 PCOD9521370
Probable space group: I M M M
;
_chemical_formula_sum "Si O2"
_cell_formula_units_Z 104
_cell_length_a 19.587729
_cell_length_b 12.876556
_cell_length_c 23.841346
_cell_angle_alpha 90.000000
_cell_angle_beta 90.000000
_cell_angle_gamma 90.000000
_cell_volume 6013.323638
_symmetry_space_group_name_H-M "I M M M"
_symmetry_group_IT_number 71
_symmetry_cell_setting 'orthorhombic'
loop_
_space_group_symop_operation_xyz
x,y,z
-x,-y,z
x,-y,-z
-x,y,-z
-x,-y,-z
x,y,-z
-x,y,z
x,-y,z
1/2+x,1/2+y,1/2+z
1/2-x,1/2-y,1/2+z
1/2+x,1/2-y,1/2-z
1/2-x,1/2+y,1/2-z
1/2-x,1/2-y,1/2-z
1/2+x,1/2+y,1/2-z
1/2-x,1/2+y,1/2+z
1/2+x,1/2-y,1/2+z
loop_
_atom_site_type_symbol
_atom_site_label
_atom_site_fract_x
_atom_site_fract_y
_atom_site_fract_z
Si Si1 0.923052 0.777238 0.283444
Si Si2 0.784344 0.781357 0.843086
Si Si3 0.076409 0.877520 0.837423
Si Si4 0.080449 0.880047 0.596710
Si Si5 0.078208 0.500000 0.431783
Si Si6 0.196197 0.620683 0.749664
Si Si7 0.829715 0.695128 0.436570
O O1 0.921684 0.850057 0.228752
O O2 0.909947 0.844989 0.338603
O O3 0.867095 0.688282 0.274093
O O4 0.000000 0.733713 0.288294
O O5 0.860050 0.813937 0.861580
O O6 0.785351 0.672173 0.809639
O O7 0.757468 0.859450 0.794275
O O8 0.732228 0.788518 0.894101
O O9 0.000000 0.848621 0.857350
O O10 0.085574 0.000000 0.845915
O O11 0.125477 0.799175 0.562933
O O12 0.000000 0.868584 0.583452
O O13 0.099001 0.000000 0.588770
O O14 0.074840 0.500000 0.500000
O O15 0.120830 0.397878 0.415626
O O16 0.000000 0.500000 0.411204
O O17 0.180753 0.500000 0.754045
O O18 0.807497 0.669569 0.500000
#
# Coordination Sequence:
#
# PCOD9521370 Si02
#       7
#    16  16  16  16   8  16  16
#     4   9  17  31  49  77 111 141 178 215 261 320
#     4  10  21  35  51  78 104 137 177 223 269 325
#     4   9  17  30  52  77 102 134 168 210 267 330
#     4  10  20  34  53  77 110 150 190 230 265 305
#     4   9  20  38  58  78 105 145 189 231 267 309
#     4  10  20  34  52  77 107 140 177 221 273 325
#     4  11  23  38  55  78 108 146 190 230 273 321
#
# _framework density 17.294929
#
# number of rings (size 3 to 8) (size 9 to 14) (size 15 to 20)
#    0.000    2.231    1.538    1.385    2.154    4.000 
#    0.000    0.769    0.000    0.462    0.000    1.077 
#    0.000    0.000    0.000    9.077    0.000    0.000 
#
# Total GULP energy -290129.121008 kJ/mol
# GULP energy per Si atom -5579.406173 kJ/mol
# Density = 1.725556 g / cm^3
# Si number density = 17.294929 Si / 1000 Ang^3
#
#
#
# Elastic Constant Matrix: (Units=GPa)
#
#
# Indices 1 2 3 4 5 6 
#
# 1 108.4375 51.7097 35.8293 0.0000 0.0000 0.0000
# 2 51.7097 100.2558 20.4731 0.0000 0.0000 0.0000
# 3 35.8293 20.4731 49.9372 0.0000 0.0000 0.0000
# 4 0.0000 0.0000 0.0000 10.2095 0.0000 0.0000
# 5 0.0000 0.0000 0.0000 0.0000 13.2403 0.0000
# 6 0.0000 0.0000 0.0000 0.0000 0.0000 19.1731
#
#
#
# Elastic Compliance Matrix: (Units=1/GPa)
#
#
# Indices 1 2 3 4 5 6 
#
# 1 0.014747 -0.005943 -0.008144 0.000000 0.000000 0.000000
# 2 -0.005943 0.013281 -0.001181 0.000000 0.000000 0.000000
# 3 -0.008144 -0.001181 0.026353 0.000000 0.000000 0.000000
# 4 0.000000 0.000000 0.000000 0.097948 0.000000 0.000000
# 5 0.000000 0.000000 0.000000 0.000000 0.075527 0.000000
# 6 0.000000 0.000000 0.000000 0.000000 0.000000 0.052156
#
#
# Mechanical properties :
#
#
# Convention : Reuss Voigt Hill
#
# Bulk Modulus (GPa) = 41.93867 52.73940 47.33904
# Shear Modulus (GPa) = 15.69881 18.56581 17.13231
#
# Velocity S-wave (km/s) = 3.01609 3.27996 3.15079
# Velocity P-wave (km/s) = 6.03580 6.70108 6.37712
#
# Compressibility (1/GPa) = 0.02384434
#
# Stress axis : x y z
#
# Youngs Moduli (GPa) = 67.81115 75.29620 37.94688
#
# Poissons Ratio (x) = 0.44748 0.30905
# Poissons Ratio (y) = 0.40300 0.04481
# Poissons Ratio (z) = 0.55227 0.08891
#
# Static dielectric constant tensor:
#      x y z
#    x 1.620270 0.000000 0.000000 
#    y 0.000000 1.571610 0.000000 
#    z 0.000000 0.000000 1.587090 
# 
# From -- ./inp_files/52366.got.cif
#   From: 2010.05.17/outbox.cif.g08.bks.cpg/sg71_27_cif.got.tgz:52366.got - 2010.06.03 16:22:01.
