data_PCOD9521099
_publ_section_title
;
Structure prediction by ZEFSAII (Michael W. Deem and Ramdas Pophale) SiO2 
 PCOD9521099
Probable space group: I M M M
;
_chemical_formula_sum "Si O2"
_cell_formula_units_Z 104
_cell_length_a 28.352739
_cell_length_b 22.909604
_cell_length_c 8.222659
_cell_angle_alpha 90.000000
_cell_angle_beta 90.000000
_cell_angle_gamma 90.000000
_cell_volume 5341.028341
_symmetry_space_group_name_H-M "I M M M"
_symmetry_group_IT_number 71
_symmetry_cell_setting 'orthorhombic'
loop_
_space_group_symop_operation_xyz
x,y,z
-x,-y,z
x,-y,-z
-x,y,-z
-x,-y,-z
x,y,-z
-x,y,z
x,-y,z
1/2+x,1/2+y,1/2+z
1/2-x,1/2-y,1/2+z
1/2+x,1/2-y,1/2-z
1/2-x,1/2+y,1/2-z
1/2-x,1/2-y,1/2-z
1/2+x,1/2+y,1/2-z
1/2-x,1/2+y,1/2+z
1/2+x,1/2-y,1/2+z
loop_
_atom_site_type_symbol
_atom_site_label
_atom_site_fract_x
_atom_site_fract_y
_atom_site_fract_z
Si Si1 0.000000 0.931364 0.801707
Si Si2 0.709609 0.500000 0.801804
Si Si3 0.574833 0.333544 0.308423
Si Si4 0.679578 0.000000 0.698908
Si Si5 0.052388 0.297520 0.693679
Si Si6 0.173217 0.121558 0.696256
Si Si7 0.233142 0.312424 0.805011
Si Si8 0.639817 0.125424 0.696303
O O1 0.044364 0.890032 0.750879
O O2 0.000000 0.000000 0.746859
O O3 0.000000 0.934102 0.000000
O O4 0.764876 0.500000 0.749128
O O5 0.678689 0.444931 0.753291
O O6 0.712637 0.500000 0.000000
O O7 0.565910 0.328397 0.500000
O O8 0.562220 0.270598 0.234272
O O9 0.629460 0.346228 0.274923
O O10 0.652400 0.059210 0.749934
O O11 0.680707 0.000000 0.500000
O O12 0.052216 0.302426 0.500000
O O13 0.091708 0.342494 0.756344
O O14 0.000000 0.311636 0.757454
O O15 0.168265 0.126099 0.500000
O O16 0.224094 0.146251 0.742758
O O17 0.250000 0.250000 0.750000
O O18 0.183025 0.334253 0.742145
O O19 0.230021 0.313399 0.000000
O O20 0.641184 0.124031 0.500000
#
# Coordination Sequence:
#
# PCOD9521099 Si02
#       8
#     8   8  16   8  16  16  16  16
#     4   9  20  38  57  79 111 150 189 236 295 347
#     4   9  16  32  57  81 115 157 193 226 276 339
#     4  11  22  38  61  85 113 151 196 244 292 344
#     4   9  16  34  62  90 118 155 198 241 289 349
#     4  11  24  42  62  84 114 151 194 245 303 359
#     4  10  20  34  54  82 115 150 184 224 275 334
#     4  10  20  33  51  78 112 148 184 225 275 333
#     4  10  20  36  62  90 116 151 197 244 294 351
#
# _framework density 19.471905
#
# number of rings (size 3 to 8) (size 9 to 14) (size 15 to 20)
#    0.000    1.923    2.308    1.846    1.077    4.615 
#    0.000    0.769    0.000    5.077    0.000    0.000 
#    0.000    0.000    0.000    0.000    0.000    0.000 
#
# Total GULP energy -290002.585470 kJ/mol
# GULP energy per Si atom -5576.972797 kJ/mol
# Density = 1.942759 g / cm^3
# Si number density = 19.471905 Si / 1000 Ang^3
#
#
#
# Elastic Constant Matrix: (Units=GPa)
#
#
# Indices 1 2 3 4 5 6 
#
# 1 145.0623 52.6634 15.0094 0.0000 0.0000 0.0000
# 2 52.6634 106.2767 10.8378 0.0000 0.0000 0.0000
# 3 15.0094 10.8378 6.6009 0.0000 0.0000 0.0000
# 4 0.0000 0.0000 0.0000 13.3019 0.0000 0.0000
# 5 0.0000 0.0000 0.0000 0.0000 17.3179 0.0000
# 6 0.0000 0.0000 0.0000 0.0000 0.0000 34.3101
#
#
#
# Elastic Compliance Matrix: (Units=1/GPa)
#
#
# Indices 1 2 3 4 5 6 
#
# 1 0.009798 -0.003103 -0.017185 0.000000 0.000000 0.000000
# 2 -0.003103 0.012284 -0.013114 0.000000 0.000000 0.000000
# 3 -0.017185 -0.013114 0.212101 0.000000 0.000000 0.000000
# 4 0.000000 0.000000 0.000000 0.075177 0.000000 0.000000
# 5 0.000000 0.000000 0.000000 0.000000 0.057744 0.000000
# 6 0.000000 0.000000 0.000000 0.000000 0.000000 0.029146
#
#
# Mechanical properties :
#
#
# Convention : Reuss Voigt Hill
#
# Bulk Modulus (GPa) = 5.97441 46.10679 26.04060
# Shear Modulus (GPa) = 9.63674 24.94792 17.29233
#
# Velocity S-wave (km/s) = 2.22706 3.58331 2.98328
# Velocity P-wave (km/s) = 3.11255 6.39141 5.02683
#
# Compressibility (1/GPa) = 0.16738051
#
# Stress axis : x y z
#
# Youngs Moduli (GPa) = 102.06012 81.40504 4.71472
#
# Poissons Ratio (x) = 0.25258 0.08102
# Poissons Ratio (y) = 0.31667 0.06183
# Poissons Ratio (z) = 1.75391 1.06753
#
# Static dielectric constant tensor:
#      x y z
#    x 1.678010 0.000000 0.000000 
#    y 0.000000 1.609020 0.000000 
#    z 0.000000 0.000000 1.701810 
# 
# From -- ./inp_files/15079.got.cif
#   From: 2010.05.17/outbox.cif.g08.bks.cpg/sg71_8_cif.got.tgz:15079.got - 2010.06.03 16:22:01.
