data_PCOD9521817
_publ_section_title
;
Structure prediction by ZEFSAII (Michael W. Deem and Ramdas Pophale) SiO2 
 PCOD9521817
Probable space group: I M M M
;
_chemical_formula_sum "Si O2"
_cell_formula_units_Z 104
_cell_length_a 30.491716
_cell_length_b 20.784242
_cell_length_c 7.480447
_cell_angle_alpha 90.000000
_cell_angle_beta 90.000000
_cell_angle_gamma 90.000000
_cell_volume 4740.712373
_symmetry_space_group_name_H-M "I M M M"
_symmetry_group_IT_number 71
_symmetry_cell_setting 'orthorhombic'
loop_
_space_group_symop_operation_xyz
x,y,z
-x,-y,z
x,-y,-z
-x,y,-z
-x,-y,-z
x,y,-z
-x,y,z
x,-y,z
1/2+x,1/2+y,1/2+z
1/2-x,1/2-y,1/2+z
1/2+x,1/2-y,1/2-z
1/2-x,1/2+y,1/2-z
1/2-x,1/2-y,1/2-z
1/2+x,1/2+y,1/2-z
1/2-x,1/2+y,1/2+z
1/2+x,1/2-y,1/2+z
loop_
_atom_site_type_symbol
_atom_site_label
_atom_site_fract_x
_atom_site_fract_y
_atom_site_fract_z
Si Si1 0.449582 0.500000 0.711806
Si Si2 0.891161 0.874214 0.713863
Si Si3 0.300176 0.668199 0.206376
Si Si4 0.548189 0.108746 0.708133
Si Si5 0.298338 0.814188 0.717777
Si Si6 0.549704 0.742351 0.784004
Si Si7 0.359050 0.069350 0.281462
O O1 0.500000 0.500000 0.785106
O O2 0.453761 0.500000 0.500000
O O3 0.420863 0.562936 0.758417
O O4 0.887436 0.866549 0.500000
O O5 0.841008 0.872084 0.783048
O O6 0.916854 0.811347 0.781881
O O7 0.312233 0.743955 0.215073
O O8 0.250870 0.668257 0.282064
O O9 0.295068 0.648147 0.000000
O O10 0.545817 0.090024 0.500000
O O11 0.500000 0.096637 0.787471
O O12 0.556631 0.185480 0.716364
O O13 0.591077 0.075536 0.783659
O O14 0.297732 0.810442 0.500000
O O15 0.331072 0.869770 0.775785
O O16 0.500000 0.723102 0.735775
O O17 0.551994 0.745238 0.000000
O O18 0.359835 0.071738 0.500000
O O19 0.340480 0.000000 0.230387
#
# Coordination Sequence:
#
# PCOD9521817 Si02
#       7
#     8  16  16  16  16  16  16
#     4  11  25  41  55  75 105 139 175 215 262 319
#     4  10  20  35  54  76 101 133 172 211 254 307
#     4   9  18  32  52  79 103 126 164 211 256 302
#     4   9  17  28  44  68  95 123 160 205 246 285
#     4   9  17  31  51  76 102 132 167 206 256 306
#     4   9  17  29  47  70  94 122 156 195 242 292
#     4   9  17  29  45  67  95 128 164 198 237 287
#
# _framework density 21.937631
#
# number of rings (size 3 to 8) (size 9 to 14) (size 15 to 20)
#    0.000    2.692    0.000    1.615    0.000    2.769 
#    1.385    3.077    0.000    1.846    0.000    2.154 
#    0.000    0.000    0.000    0.000    0.000    0.000 
#
# Total GULP energy -290181.117847 kJ/mol
# GULP energy per Si atom -5580.406112 kJ/mol
# Density = 2.188770 g / cm^3
# Si number density = 21.937631 Si / 1000 Ang^3
#
#
#
# Elastic Constant Matrix: (Units=GPa)
#
#
# Indices 1 2 3 4 5 6 
#
# 1 125.4156 62.2168 -2.2203 0.0000 0.0000 0.0000
# 2 62.2168 61.1068 -14.1961 0.0000 0.0000 0.0000
# 3 -2.2203 -14.1961 63.5328 0.0000 0.0000 0.0000
# 4 0.0000 0.0000 0.0000 14.9725 0.0000 0.0000
# 5 0.0000 0.0000 0.0000 0.0000 4.7425 0.0000
# 6 0.0000 0.0000 0.0000 0.0000 0.0000 45.2730
#
#
#
# Elastic Compliance Matrix: (Units=1/GPa)
#
#
# Indices 1 2 3 4 5 6 
#
# 1 0.016783 -0.017880 -0.003409 0.000000 0.000000 0.000000
# 2 -0.017880 0.036309 0.007488 0.000000 0.000000 0.000000
# 3 -0.003409 0.007488 0.017294 0.000000 0.000000 0.000000
# 4 0.000000 0.000000 0.000000 0.066789 0.000000 0.000000
# 5 0.000000 0.000000 0.000000 0.000000 0.210859 0.000000
# 6 0.000000 0.000000 0.000000 0.000000 0.000000 0.022088
#
#
# Mechanical properties :
#
#
# Convention : Reuss Voigt Hill
#
# Bulk Modulus (GPa) = 23.37228 37.96177 30.66702
# Shear Modulus (GPa) = 12.13636 26.61458 19.37547
#
# Velocity S-wave (km/s) = 2.35462 3.48687 2.97510
# Velocity P-wave (km/s) = 4.25081 5.79249 5.08047
#
# Compressibility (1/GPa) = 0.04278573
#
# Stress axis : x y z
#
# Youngs Moduli (GPa) = 59.58393 27.54133 57.82348
#
# Poissons Ratio (x) = 0.49243 0.19710
# Poissons Ratio (y) = 1.06535 -0.43300
# Poissons Ratio (z) = 0.20310 -0.20624
#
# Static dielectric constant tensor:
#      x y z
#    x 1.832440 0.000000 0.000000 
#    y 0.000000 1.757070 0.000000 
#    z 0.000000 0.000000 1.820590 
# 
# From -- ./inp_files/16945.got.cif
#   From: 2010.05.17/outbox.cif.g08.bks.cpg/sg71_9_cif.got.tgz:16945.got - 2010.06.03 16:22:01.
