data_PCOD9521478
_publ_section_title
;
Structure prediction by ZEFSAII (Michael W. Deem and Ramdas Pophale) SiO2 
 PCOD9521478
Probable space group: I M M M
;
_chemical_formula_sum "Si O2"
_cell_formula_units_Z 88
_cell_length_a 7.786279
_cell_length_b 28.910822
_cell_length_c 22.197526
_cell_angle_alpha 90.000000
_cell_angle_beta 90.000000
_cell_angle_gamma 90.000000
_cell_volume 4996.834605
_symmetry_space_group_name_H-M "I M M M"
_symmetry_group_IT_number 71
_symmetry_cell_setting 'orthorhombic'
loop_
_space_group_symop_operation_xyz
x,y,z
-x,-y,z
x,-y,-z
-x,y,-z
-x,-y,-z
x,y,-z
-x,y,z
x,-y,z
1/2+x,1/2+y,1/2+z
1/2-x,1/2-y,1/2+z
1/2+x,1/2-y,1/2-z
1/2-x,1/2+y,1/2-z
1/2-x,1/2-y,1/2-z
1/2+x,1/2+y,1/2-z
1/2-x,1/2+y,1/2+z
1/2+x,1/2-y,1/2+z
loop_
_atom_site_type_symbol
_atom_site_label
_atom_site_fract_x
_atom_site_fract_y
_atom_site_fract_z
Si Si1 0.000000 0.793329 0.427004
Si Si2 0.292069 0.551827 0.500000
Si Si3 0.500000 0.813903 0.926483
Si Si4 0.806453 0.640159 0.928612
Si Si5 0.800494 0.118759 0.108523
Si Si6 0.205640 0.051966 0.646870
Si Si7 0.705441 0.052233 0.787283
O O1 0.000000 0.739974 0.408887
O O2 0.833171 0.822394 0.407944
O O3 0.000000 0.792791 0.500000
O O4 0.222972 0.500000 0.500000
O O5 0.500000 0.549065 0.500000
O O6 0.244978 0.580829 0.558704
O O7 0.668428 0.839444 0.900468
O O8 0.500000 0.817654 0.000000
O O9 0.783413 0.592453 0.893082
O O10 0.000000 0.657554 0.920513
O O11 0.779266 0.631708 0.000000
O O12 0.784710 0.092070 0.171669
O O13 0.000000 0.131690 0.097773
O O14 0.250822 0.058413 0.717106
O O15 0.000000 0.053804 0.640420
O O16 0.263542 0.000000 0.629895
O O17 0.500000 0.053864 0.794515
O O18 0.764157 0.000000 0.804731
#
# Coordination Sequence:
#
# PCOD9521478 Si02
#       7
#     8   8   8  16  16  16  16
#     4   9  20  38  59  82 111 142 184 238 284 338
#     4   9  18  31  49  75 110 147 181 224 277 333
#     4  11  22  38  58  83 110 141 189 242 294 335
#     4  10  20  36  59  87 115 147 185 223 277 333
#     4  11  21  35  54  79 110 146 188 233 284 333
#     4  10  20  34  55  85 119 153 186 221 267 327
#     4  10  20  34  53  80 113 151 192 227 267 330
#
# _framework density 17.611149999999999
#
# number of rings (size 3 to 8) (size 9 to 14) (size 15 to 20)
#    0.000    1.909    2.727    1.636    0.000    4.000 
#    0.000    4.091    0.000    1.091    0.000    0.000 
#    0.000    0.000    0.000    0.000    0.000    0.000 
#
# Total GULP energy -245579.919399 kJ/mol
# GULP energy per Si atom -5581.361805 kJ/mol
# Density = 1.757107 g / cm^3
# Si number density = 17.611150 Si / 1000 Ang^3
#
#
#
# Elastic Constant Matrix: (Units=GPa)
#
#
# Indices 1 2 3 4 5 6 
#
# 1 105.0448 70.3839 31.1122 0.0000 0.0000 0.0000
# 2 70.3839 156.3062 50.9730 0.0000 0.0000 0.0000
# 3 31.1122 50.9730 42.4787 0.0001 0.0000 0.0000
# 4 0.0000 0.0000 0.0001 8.9353 0.0000 0.0000
# 5 0.0000 0.0000 0.0000 0.0000 21.8962 0.0000
# 6 0.0000 0.0000 0.0000 0.0000 0.0000 11.9254
#
#
#
# Elastic Compliance Matrix: (Units=1/GPa)
#
#
# Indices 1 2 3 4 5 6 
#
# 1 0.014129 -0.004908 -0.004459 0.000000 0.000000 0.000000
# 2 -0.004908 0.012216 -0.011064 0.000000 0.000000 0.000000
# 3 -0.004459 -0.011064 0.040083 -0.000001 0.000000 0.000000
# 4 0.000000 0.000000 -0.000001 0.111916 0.000000 0.000000
# 5 0.000000 0.000000 0.000000 0.000000 0.045670 0.000000
# 6 0.000000 0.000000 0.000000 0.000000 0.000000 0.083854
#
#
# Mechanical properties :
#
#
# Convention : Reuss Voigt Hill
#
# Bulk Modulus (GPa) = 39.11357 67.64086 53.37722
# Shear Modulus (GPa) = 13.99576 18.64210 16.31893
#
# Velocity S-wave (km/s) = 2.82212 3.25705 3.04735
# Velocity P-wave (km/s) = 5.73384 7.25506 6.53884
#
# Compressibility (1/GPa) = 0.02556657
#
# Stress axis : x y z
#
# Youngs Moduli (GPa) = 70.77650 81.86101 24.94827
#
# Poissons Ratio (x) = 0.40179 0.11124
# Poissons Ratio (y) = 0.34738 0.27602
# Poissons Ratio (z) = 0.31557 0.90569
#
# Static dielectric constant tensor:
#      x y z
#    x 1.624530 0.000000 0.000000 
#    y 0.000000 1.577810 0.000000 
#    z 0.000000 0.000000 1.584850 
# 
# From -- ./inp_files/50554.got.cif
#   From: 2010.05.17/outbox.cif.g08.bks.cpg/sg71_26_cif.got.tgz:50554.got - 2010.06.03 16:22:01.
