data_PCOD9521433
_publ_section_title
;
Structure prediction by ZEFSAII (Michael W. Deem and Ramdas Pophale) SiO2 
 PCOD9521433
Probable space group: I M M M
;
_chemical_formula_sum "Si O2"
_cell_formula_units_Z 80
_cell_length_a 29.344592
_cell_length_b 16.371269
_cell_length_c 7.357058
_cell_angle_alpha 90.000000
_cell_angle_beta 90.000000
_cell_angle_gamma 90.000000
_cell_volume 3534.391060
_symmetry_space_group_name_H-M "I M M M"
_symmetry_group_IT_number 71
_symmetry_cell_setting 'orthorhombic'
loop_
_space_group_symop_operation_xyz
x,y,z
-x,-y,z
x,-y,-z
-x,y,-z
-x,-y,-z
x,y,-z
-x,y,z
x,-y,z
1/2+x,1/2+y,1/2+z
1/2-x,1/2-y,1/2+z
1/2+x,1/2-y,1/2-z
1/2-x,1/2+y,1/2-z
1/2-x,1/2-y,1/2-z
1/2+x,1/2+y,1/2-z
1/2-x,1/2+y,1/2+z
1/2+x,1/2-y,1/2+z
loop_
_atom_site_type_symbol
_atom_site_label
_atom_site_fract_x
_atom_site_fract_y
_atom_site_fract_z
Si Si1 0.852626 0.664099 0.289814
Si Si2 0.190092 0.500000 0.712141
Si Si3 0.549482 0.595637 0.220667
Si Si4 0.853628 0.842207 0.277252
Si Si5 0.796519 0.000000 0.719659
Si Si6 0.948818 0.404922 0.780727
O O1 0.838059 0.666769 0.500000
O O2 0.830186 0.583254 0.207061
O O3 0.839757 0.752307 0.213406
O O4 0.907099 0.649933 0.284174
O O5 0.175804 0.500000 0.500000
O O6 0.244265 0.500000 0.723461
O O7 0.500000 0.626672 0.281516
O O8 0.553150 0.500000 0.270665
O O9 0.594439 0.641497 0.281421
O O10 0.549542 0.597784 0.000000
O O11 0.853452 0.841996 0.500000
O O12 0.822530 0.918052 0.219940
O O13 0.797946 0.000000 0.500000
O O14 0.941343 0.500000 0.725784
O O15 0.000000 0.381159 0.722098
O O16 0.948213 0.403476 0.000000
#
# Coordination Sequence:
#
# PCOD9521433 Si02
#       6
#    16   8  16  16   8  16
#     4  10  20  34  53  77 106 138 170 209 259 311
#     4  10  22  38  51  70 103 136 166 212 269 320
#     4   8  12  20  38  65  98 131 157 190 242 294
#     4   9  17  30  49  75 104 131 167 214 257 300
#     4  10  20  36  57  77  97 128 172 223 267 306
#     4   9  18  33  53  77 107 142 177 212 248 292
#
# _framework density 22.634732
#
# number of rings (size 3 to 8) (size 9 to 14) (size 15 to 20)
#    0.000    2.800    2.000    1.200    0.000    2.800 
#    0.000    4.000    0.000    0.000    0.000    0.000 
#    0.000    2.400    0.000    0.000    0.000    0.000 
#
# Total GULP energy -223390.823449 kJ/mol
# GULP energy per Si atom -5584.770586 kJ/mol
# Density = 2.258321 g / cm^3
# Si number density = 22.634732 Si / 1000 Ang^3
#
#
#
# Elastic Constant Matrix: (Units=GPa)
#
#
# Indices 1 2 3 4 5 6 
#
# 1 116.3266 82.2999 -9.5815 0.0000 0.0000 0.0000
# 2 82.2999 191.3864 6.8534 0.0000 0.0000 0.0000
# 3 -9.5815 6.8534 85.0430 0.0000 0.0000 0.0000
# 4 0.0000 0.0000 0.0000 -14.8800 0.0000 0.0000
# 5 0.0000 0.0000 0.0000 0.0000 17.9675 0.0000
# 6 0.0000 0.0000 0.0000 0.0000 0.0000 -2.1878
#
#
#
# Elastic Compliance Matrix: (Units=1/GPa)
#
#
# Indices 1 2 3 4 5 6 
#
# 1 0.012645 -0.005504 0.001868 0.000000 0.000000 0.000000
# 2 -0.005504 0.007636 -0.001236 0.000000 0.000000 0.000000
# 3 0.001868 -0.001236 0.012069 0.000000 0.000000 0.000000
# 4 0.000000 0.000000 0.000000 -0.067204 0.000000 0.000000
# 5 0.000000 0.000000 0.000000 0.000000 0.055656 0.000000
# 6 0.000000 0.000000 0.000000 0.000000 0.000000 -0.457090
#
#
# Mechanical properties :
#
#
# Convention : Reuss Voigt Hill
#
# Bulk Modulus (GPa) = 44.23538 61.32220 52.77879
# Shear Modulus (GPa) = -11.93289 21.05889 4.56300
#
# Velocity S-wave (km/s) = -2.29856 3.05352 1.42137
# Velocity P-wave (km/s) = 3.54134 6.29149 5.10509
#
# Compressibility (1/GPa) = 0.02260634
#
# Stress axis : x y z
#
# Youngs Moduli (GPa) = 79.08497 130.95436 82.85819
#
# Poissons Ratio (x) = 0.72082 -0.15480
# Poissons Ratio (y) = 0.43531 0.10237
# Poissons Ratio (z) = -0.14775 0.16180
#
# Static dielectric constant tensor:
#      x y z
#    x 1.788140 0.000000 0.000000 
#    y 0.000000 1.841460 0.000000 
#    z 0.000000 0.000000 1.864690 
# 
# From -- ./inp_files/27119.got.cif
#   From: 2010.05.17/outbox.cif.g08.bks.cpg/sg71_14_cif.got.tgz:27119.got - 2010.06.03 16:22:01.
