data_PCOD9521529
_publ_section_title
;
Structure prediction by ZEFSAII (Michael W. Deem and Ramdas Pophale) SiO2 
 PCOD9521529
Probable space group: I M M M
;
_chemical_formula_sum "Si O2"
_cell_formula_units_Z 88
_cell_length_a 20.856111
_cell_length_b 7.900502
_cell_length_c 24.759305
_cell_angle_alpha 90.000000
_cell_angle_beta 90.000000
_cell_angle_gamma 90.000000
_cell_volume 4079.683450
_symmetry_space_group_name_H-M "I M M M"
_symmetry_group_IT_number 71
_symmetry_cell_setting 'orthorhombic'
loop_
_space_group_symop_operation_xyz
x,y,z
-x,-y,z
x,-y,-z
-x,y,-z
-x,-y,-z
x,y,-z
-x,y,z
x,-y,z
1/2+x,1/2+y,1/2+z
1/2-x,1/2-y,1/2+z
1/2+x,1/2-y,1/2-z
1/2-x,1/2+y,1/2-z
1/2-x,1/2-y,1/2-z
1/2+x,1/2+y,1/2-z
1/2-x,1/2+y,1/2+z
1/2+x,1/2-y,1/2+z
loop_
_atom_site_type_symbol
_atom_site_label
_atom_site_fract_x
_atom_site_fract_y
_atom_site_fract_z
Si Si1 0.359237 0.805480 0.727323
Si Si2 0.500000 0.306761 0.730588
Si Si3 0.640637 0.801355 0.152375
Si Si4 0.236335 0.203431 0.441726
Si Si5 0.000000 0.706761 0.063309
Si Si6 0.636190 0.792303 0.388409
Si Si7 0.500000 0.313476 0.860241
O O1 0.436089 0.795600 0.718151
O O2 0.348411 0.725885 0.786771
O O3 0.338050 0.729039 0.670177
O O4 0.336892 0.000000 0.728629
O O5 0.500000 0.500000 0.708956
O O6 0.500000 0.322651 0.795219
O O7 0.692058 0.750095 0.108392
O O8 0.569294 0.765942 0.129399
O O9 0.643599 0.000000 0.161047
O O10 0.213552 0.267888 0.500000
O O11 0.309448 0.256610 0.430906
O O12 0.236433 0.000000 0.443546
O O13 0.934690 0.762836 0.093260
O O14 0.000000 0.500000 0.064288
O O15 0.000000 0.755984 0.000000
O O16 0.634301 0.000000 0.385639
O O17 0.500000 0.500000 0.884377
#
# Coordination Sequence:
#
# PCOD9521529 Si02
#       7
#    16   8  16  16   8  16   8
#     4   9  17  30  49  74 104 138 174 212 260 314
#     4   9  16  26  44  73 108 140 167 201 249 305
#     4  10  20  34  54  80 109 140 174 213 260 318
#     4  10  21  37  55  75 102 138 179 222 268 316
#     4   9  15  24  44  76 108 137 175 221 261 298
#     4   9  17  30  50  75 104 139 178 220 263 307
#     4   9  17  32  55  81 107 136 169 207 254 305
#
# _framework density 21.5703
#
# number of rings (size 3 to 8) (size 9 to 14) (size 15 to 20)
#    0.000    2.636    0.000    2.182    0.000    7.636 
#    0.000    1.364    0.000    2.727    0.000    0.000 
#    0.000    4.364    0.000    0.000    0.000    0.000 
#
# Total GULP energy -245127.038002 kJ/mol
# GULP energy per Si atom -5571.069045 kJ/mol
# Density = 2.152121 g / cm^3
# Si number density = 21.570300 Si / 1000 Ang^3
#
#
#
# Elastic Constant Matrix: (Units=GPa)
#
#
# Indices 1 2 3 4 5 6 
#
# 1 86.1414 5.5327 67.6250 0.0000 0.0000 0.0000
# 2 5.5327 30.7831 7.3475 0.0000 0.0000 0.0000
# 3 67.6250 7.3475 150.3505 0.0000 0.0000 0.0000
# 4 0.0000 0.0000 0.0000 10.2484 0.0000 0.0000
# 5 0.0000 0.0000 0.0000 0.0000 30.7043 0.0000
# 6 0.0000 0.0000 0.0000 0.0000 0.0000 -1.2252
#
#
#
# Elastic Compliance Matrix: (Units=1/GPa)
#
#
# Indices 1 2 3 4 5 6 
#
# 1 0.017998 -0.001318 -0.008031 0.000000 0.000000 0.000000
# 2 -0.001318 0.032965 -0.001018 0.000000 0.000000 0.000000
# 3 -0.008031 -0.001018 0.010313 0.000000 0.000000 0.000000
# 4 0.000000 0.000000 0.000000 0.097576 0.000000 0.000000
# 5 0.000000 0.000000 0.000000 0.000000 0.032569 0.000000
# 6 0.000000 0.000000 0.000000 0.000000 0.000000 -0.816217
#
#
# Mechanical properties :
#
#
# Convention : Reuss Voigt Hill
#
# Bulk Modulus (GPa) = 24.66552 47.58725 36.12638
# Shear Modulus (GPa) = -8.46671 20.39683 5.96506
#
# Velocity S-wave (km/s) = -1.98335 3.07839 1.66475
# Velocity P-wave (km/s) = 2.49296 5.89446 4.52546
#
# Compressibility (1/GPa) = 0.04054243
#
# Stress axis : x y z
#
# Youngs Moduli (GPa) = 55.56177 30.33494 96.96518
#
# Poissons Ratio (x) = 0.03998 0.77870
# Poissons Ratio (y) = 0.07323 0.09873
# Poissons Ratio (z) = 0.44620 0.03089
#
# Static dielectric constant tensor:
#      x y z
#    x 1.762820 0.000000 0.000000 
#    y 0.000000 1.810950 0.000000 
#    z 0.000000 0.000000 2.057710 
# 
# From -- ./inp_files/61181.got.cif
#   From: 2010.05.17/outbox.cif.g08.bks.cpg/sg71_31_cif.got.tgz:61181.got - 2010.06.03 16:22:01.
