data_PCOD9521764
_publ_section_title
;
Structure prediction by ZEFSAII (Michael W. Deem and Ramdas Pophale) SiO2 
 PCOD9521764
Probable space group: I M M M
;
_chemical_formula_sum "Si O2"
_cell_formula_units_Z 92
_cell_length_a 29.970508
_cell_length_b 24.427850
_cell_length_c 7.278290
_cell_angle_alpha 90.000000
_cell_angle_beta 90.000000
_cell_angle_gamma 90.000000
_cell_volume 5328.545821
_symmetry_space_group_name_H-M "I M M M"
_symmetry_group_IT_number 71
_symmetry_cell_setting 'orthorhombic'
loop_
_space_group_symop_operation_xyz
x,y,z
-x,-y,z
x,-y,-z
-x,y,-z
-x,-y,-z
x,y,-z
-x,y,z
x,-y,z
1/2+x,1/2+y,1/2+z
1/2-x,1/2-y,1/2+z
1/2+x,1/2-y,1/2-z
1/2-x,1/2+y,1/2-z
1/2-x,1/2-y,1/2-z
1/2+x,1/2+y,1/2-z
1/2-x,1/2+y,1/2+z
1/2+x,1/2-y,1/2+z
loop_
_atom_site_type_symbol
_atom_site_label
_atom_site_fract_x
_atom_site_fract_y
_atom_site_fract_z
Si Si1 0.681511 0.562615 0.224257
Si Si2 0.000000 0.062967 0.275861
Si Si3 0.081159 0.249514 0.722186
Si Si4 0.500000 0.771372 0.500000
Si Si5 0.178509 0.267601 0.284676
Si Si6 0.236461 0.164882 0.720712
Si Si7 0.090358 0.120974 0.721890
O O1 0.686744 0.500000 0.284322
O O2 0.719351 0.605803 0.282336
O O3 0.634261 0.588718 0.283124
O O4 0.681306 0.561728 0.000000
O O5 0.955308 0.093192 0.214483
O O6 0.000000 0.064215 0.500000
O O7 0.000000 0.000000 0.220552
O O8 0.073888 0.254762 0.500000
O O9 0.128241 0.277082 0.778914
O O10 0.089283 0.185023 0.764308
O O11 0.039351 0.268942 0.839251
O O12 0.173020 0.256087 0.500000
O O13 0.203653 0.213414 0.209515
O O14 0.213410 0.316858 0.264700
O O15 0.233258 0.165185 0.500000
O O16 0.090849 0.117467 0.500000
#
# Coordination Sequence:
#
# PCOD9521764 Si02
#       7
#    16   8  16   4  16  16  16
#     4   9  15  24  41  67  95 124 159 204 254 299
#     4   9  15  20  31  54  77 106 155 206 245 283
#     4  10  20  35  50  69  99 128 165 211 255 302
#     4  12  24  32  50  76  97 132 169 208 264 308
#     4   9  17  30  47  66  91 124 159 204 252 293
#     4   9  16  27  45  69  94 120 158 206 247 296
#     4   9  15  26  41  57  86 121 158 207 250 286
#
# _framework density 17.265498000000001
#
# number of rings (size 3 to 8) (size 9 to 14) (size 15 to 20)
#    0.000    2.696    1.739    1.304    1.217    3.478 
#    0.000    0.000    0.000    0.522    0.000   10.348 
#    0.000    0.000    0.000    1.565    0.000    7.739 
#
# Total GULP energy -256069.721153 kJ/mol
# GULP energy per Si atom -5566.733069 kJ/mol
# Density = 1.722620 g / cm^3
# Si number density = 17.265498 Si / 1000 Ang^3
#
#
#
# Elastic Constant Matrix: (Units=GPa)
#
#
# Indices 1 2 3 4 5 6 
#
# 1 180.8365 48.2952 24.7981 0.0000 0.0000 0.0000
# 2 48.2952 32.0644 -0.5566 0.0000 0.0000 0.0000
# 3 24.7981 -0.5566 89.1591 0.0000 0.0000 0.0000
# 4 0.0000 0.0000 0.0000 -97.2247 0.0000 0.0000
# 5 0.0000 0.0000 0.0000 0.0000 37.9569 0.0000
# 6 0.0000 0.0000 0.0000 0.0000 0.0000 13.4976
#
#
#
# Elastic Compliance Matrix: (Units=1/GPa)
#
#
# Indices 1 2 3 4 5 6 
#
# 1 0.009928 -0.015004 -0.002855 0.000000 0.000000 0.000000
# 2 -0.015004 0.053864 0.004509 0.000000 0.000000 0.000000
# 3 -0.002855 0.004509 0.012038 0.000000 0.000000 0.000000
# 4 0.000000 0.000000 0.000000 -0.010285 0.000000 0.000000
# 5 0.000000 0.000000 0.000000 0.000000 0.026346 0.000000
# 6 0.000000 0.000000 0.000000 0.000000 0.000000 0.074087
#
#
# Mechanical properties :
#
#
# Convention : Reuss Voigt Hill
#
# Bulk Modulus (GPa) = 20.35352 49.68150 35.01751
# Shear Modulus (GPa) = 23.91729 6.14750 15.03240
#
# Velocity S-wave (km/s) = 3.72595 1.88899 2.95390
# Velocity P-wave (km/s) = 5.50676 5.79614 5.65330
#
# Compressibility (1/GPa) = 0.04913154
#
# Stress axis : x y z
#
# Youngs Moduli (GPa) = 100.72220 18.56535 83.06926
#
# Poissons Ratio (x) = 0.27855 0.23717
# Poissons Ratio (y) = 1.51119 -0.37458
# Poissons Ratio (z) = 0.28757 -0.08372
#
# Static dielectric constant tensor:
#      x y z
#    x 1.595090 0.000000 0.000000 
#    y 0.000000 1.561710 0.000000 
#    z 0.000000 0.000000 1.709880 
# 
# From -- ./inp_files/15211.got.cif
#   From: 2010.05.17/outbox.cif.g08.bks.cpg/sg71_8_cif.got.tgz:15211.got - 2010.06.03 16:22:01.
