data_PCOD9521003
_publ_section_title
;
Structure prediction by ZEFSAII (Michael W. Deem and Ramdas Pophale) SiO2 
 PCOD9521003
Probable space group: I M M M
;
_chemical_formula_sum "Si O2"
_cell_formula_units_Z 96
_cell_length_a 9.407483
_cell_length_b 28.383302
_cell_length_c 18.781884
_cell_angle_alpha 90.000000
_cell_angle_beta 90.000000
_cell_angle_gamma 90.000000
_cell_volume 5015.052852
_symmetry_space_group_name_H-M "I M M M"
_symmetry_group_IT_number 71
_symmetry_cell_setting 'orthorhombic'
loop_
_space_group_symop_operation_xyz
x,y,z
-x,-y,z
x,-y,-z
-x,y,-z
-x,-y,-z
x,y,-z
-x,y,z
x,-y,z
1/2+x,1/2+y,1/2+z
1/2-x,1/2-y,1/2+z
1/2+x,1/2-y,1/2-z
1/2-x,1/2+y,1/2-z
1/2-x,1/2-y,1/2-z
1/2+x,1/2+y,1/2-z
1/2-x,1/2+y,1/2+z
1/2+x,1/2-y,1/2+z
loop_
_atom_site_type_symbol
_atom_site_label
_atom_site_fract_x
_atom_site_fract_y
_atom_site_fract_z
Si Si1 0.670141 0.729246 0.180587
Si Si2 0.841064 0.326613 0.376296
Si Si3 0.338446 0.000000 0.912614
Si Si4 0.843145 0.088191 0.916226
Si Si5 0.836640 0.359639 0.211629
Si Si6 0.838261 0.942987 0.500000
Si Si7 0.171866 0.944623 0.341689
O O1 0.500000 0.724121 0.193061
O O2 0.750000 0.750000 0.250000
O O3 0.687645 0.770723 0.122481
O O4 0.745276 0.679284 0.168309
O O5 0.726723 0.360769 0.410121
O O6 0.841543 0.341709 0.293125
O O7 0.000000 0.335638 0.404793
O O8 0.257187 0.046800 0.887823
O O9 0.500000 0.000000 0.888006
O O10 0.341879 0.000000 0.000000
O O11 0.000000 0.086887 0.883437
O O12 0.856316 0.077903 0.000000
O O13 0.754959 0.408998 0.208401
O O14 0.000000 0.362876 0.187020
O O15 0.778214 0.931331 0.577475
O O16 0.000000 0.924815 0.500000
O O17 0.846122 0.000000 0.500000
O O18 0.000000 0.938820 0.337902
O O19 0.200779 0.000000 0.329422
#
# Coordination Sequence:
#
# PCOD9521003 Si02
#       7
#    16  16   8  16  16   8  16
#     4   9  17  31  52  75  98 126 165 206 245 294
#     4   9  19  34  51  73  98 130 169 205 248 301
#     4   9  17  31  51  71  93 127 167 202 241 294
#     4  10  20  33  51  75 101 129 165 211 256 297
#     4  10  20  33  50  75 105 135 167 206 251 297
#     4   7  12  26  49  73  95 125 167 207 239 284
#     4   9  17  31  52  76 102 134 171 208 248 297
#
# _framework density 19.142371000000001
#
# number of rings (size 3 to 8) (size 9 to 14) (size 15 to 20)
#    0.000    2.833    0.000    3.750    0.000    6.333 
#    1.500    0.417    1.833    1.500    0.000    0.000 
#    0.000    0.000    0.000    0.000    0.000    0.000 
#
# Total GULP energy -267286.867576 kJ/mol
# GULP energy per Si atom -5568.476408 kJ/mol
# Density = 1.909880 g / cm^3
# Si number density = 19.142371 Si / 1000 Ang^3
#
#
#
# Elastic Constant Matrix: (Units=GPa)
#
#
# Indices 1 2 3 4 5 6 
#
# 1 136.1485 76.9377 5.2776 0.0000 0.0000 0.0000
# 2 76.9377 113.5181 7.7102 0.0000 0.0000 0.0000
# 3 5.2776 7.7102 9.9941 0.0000 0.0000 0.0000
# 4 0.0000 0.0000 0.0000 22.1401 0.0000 0.0000
# 5 0.0000 0.0000 0.0000 0.0000 15.6535 0.0000
# 6 0.0000 0.0000 0.0000 0.0000 0.0000 29.6549
#
#
#
# Elastic Compliance Matrix: (Units=1/GPa)
#
#
# Indices 1 2 3 4 5 6 
#
# 1 0.011904 -0.008064 -0.000065 0.000000 0.000000 0.000000
# 2 -0.008064 0.014759 -0.007128 0.000000 0.000000 0.000000
# 3 -0.000065 -0.007128 0.105593 0.000000 0.000000 0.000000
# 4 0.000000 0.000000 0.000000 0.045167 0.000000 0.000000
# 5 0.000000 0.000000 0.000000 0.000000 0.063884 0.000000
# 6 0.000000 0.000000 0.000000 0.000000 0.000000 0.033721
#
#
# Mechanical properties :
#
#
# Convention : Reuss Voigt Hill
#
# Bulk Modulus (GPa) = 9.82879 48.83464 29.33171
# Shear Modulus (GPa) = 14.72951 24.80536 19.76744
#
# Velocity S-wave (km/s) = 2.77694 3.60368 3.21698
# Velocity P-wave (km/s) = 3.92780 6.54843 5.39952
#
# Compressibility (1/GPa) = 0.10174197
#
# Stress axis : x y z
#
# Youngs Moduli (GPa) = 84.00307 67.75716 9.47036
#
# Poissons Ratio (x) = 0.54638 0.00062
# Poissons Ratio (y) = 0.67738 0.06750
# Poissons Ratio (z) = 0.00549 0.48295
#
# Static dielectric constant tensor:
#      x y z
#    x 1.665030 0.000000 0.000000 
#    y 0.000000 1.688600 0.000000 
#    z 0.000000 0.000000 1.723420 
# 
# From -- ./inp_files/12926.got.cif
#   From: 2010.05.17/outbox.cif.g08.bks.cpg/sg71_7_cif.got.tgz:12926.got - 2010.06.03 16:22:01.
