data_PCOD9521810
_publ_section_title
;
Structure prediction by ZEFSAII (Michael W. Deem and Ramdas Pophale) SiO2 
 PCOD9521810
Probable space group: I M M M
;
_chemical_formula_sum "Si O2"
_cell_formula_units_Z 72
_cell_length_a 13.263415
_cell_length_b 16.746563
_cell_length_c 20.719189
_cell_angle_alpha 90.000000
_cell_angle_beta 90.000000
_cell_angle_gamma 90.000000
_cell_volume 4602.076124
_symmetry_space_group_name_H-M "I M M M"
_symmetry_group_IT_number 71
_symmetry_cell_setting 'orthorhombic'
loop_
_space_group_symop_operation_xyz
x,y,z
-x,-y,z
x,-y,-z
-x,y,-z
-x,-y,-z
x,y,-z
-x,y,z
x,-y,z
1/2+x,1/2+y,1/2+z
1/2-x,1/2-y,1/2+z
1/2+x,1/2-y,1/2-z
1/2-x,1/2+y,1/2-z
1/2-x,1/2-y,1/2-z
1/2+x,1/2+y,1/2-z
1/2-x,1/2+y,1/2+z
1/2+x,1/2-y,1/2+z
loop_
_atom_site_type_symbol
_atom_site_label
_atom_site_fract_x
_atom_site_fract_y
_atom_site_fract_z
Si Si1 0.119986 0.194017 0.374968
Si Si2 0.381874 0.000000 0.922416
Si Si3 0.382037 0.405525 0.743497
Si Si4 0.750970 0.854033 0.122036
Si Si5 0.119708 0.903123 0.000000
Si Si6 0.878159 0.090410 0.500000
O O1 0.131771 0.142976 0.309676
O O2 0.191156 0.271080 0.375277
O O3 0.148371 0.139064 0.435946
O O4 0.000000 0.215087 0.380808
O O5 0.330246 0.077081 0.891935
O O6 0.500000 0.000000 0.910362
O O7 0.366715 0.000000 0.000000
O O8 0.500000 0.397651 0.724425
O O9 0.362766 0.500000 0.753053
O O10 0.310947 0.371961 0.687593
O O11 0.828938 0.864204 0.062730
O O12 0.000000 0.891293 0.000000
O O13 0.136753 0.000000 0.000000
O O14 0.000000 0.085360 0.500000
O O15 0.838677 0.000000 0.500000
#
# Coordination Sequence:
#
# PCOD9521810 Si02
#       6
#    16   8  16  16   8   8
#     4  10  21  33  51  78 106 135 169 217 263 313
#     4  11  22  34  50  74 108 145 174 205 251 316
#     4  10  20  35  54  75 103 137 175 217 266 310
#     4  12  19  35  50  77 104 140 174 212 255 312
#     4  11  21  34  52  76 102 134 177 214 252 303
#     4   9  17  32  52  73 101 131 164 206 260 309
#
# _framework density 15.645113
#
# number of rings (size 3 to 8) (size 9 to 14) (size 15 to 20)
#    0.000    1.444    3.333    3.333    0.000    4.444 
#    0.000    0.000    0.000    0.000    0.000    0.000 
#    0.000    6.222    0.000    0.000    0.000    0.000 
#
# Total GULP energy -200934.718119 kJ/mol
# GULP energy per Si atom -5581.519948 kJ/mol
# Density = 1.560950 g / cm^3
# Si number density = 15.645113 Si / 1000 Ang^3
#
#
#
# Elastic Constant Matrix: (Units=GPa)
#
#
# Indices 1 2 3 4 5 6 
#
# 1 116.3686 81.5666 76.5838 0.0000 0.0000 0.0000
# 2 81.5666 162.6884 82.7226 0.0000 0.0000 0.0000
# 3 76.5838 82.7226 139.7575 0.0000 0.0000 0.0000
# 4 0.0000 0.0000 0.0000 26.0637 0.0000 0.0000
# 5 0.0000 0.0000 0.0000 0.0000 19.2299 0.0000
# 6 0.0000 0.0000 0.0000 0.0000 0.0000 108.5611
#
#
#
# Elastic Compliance Matrix: (Units=1/GPa)
#
#
# Indices 1 2 3 4 5 6 
#
# 1 0.015909 -0.005069 -0.005717 0.000000 0.000000 0.000000
# 2 -0.005069 0.010408 -0.003383 0.000000 0.000000 0.000000
# 3 -0.005717 -0.003383 0.012291 0.000000 0.000000 0.000000
# 4 0.000000 0.000000 0.000000 0.038368 0.000000 0.000000
# 5 0.000000 0.000000 0.000000 0.000000 0.052002 0.000000
# 6 0.000000 0.000000 0.000000 0.000000 0.000000 0.009211
#
#
# Mechanical properties :
#
#
# Convention : Reuss Voigt Hill
#
# Bulk Modulus (GPa) = 97.37914 100.06227 98.72070
# Shear Modulus (GPa) = 29.42012 42.63371 36.02692
#
# Velocity S-wave (km/s) = 4.34114 5.22586 4.80391
# Velocity P-wave (km/s) = 9.35441 10.02543 9.69573
#
# Compressibility (1/GPa) = 0.01026914
#
# Stress axis : x y z
#
# Youngs Moduli (GPa) = 62.85632 96.07632 81.36298
#
# Poissons Ratio (x) = 0.48703 0.46519
# Poissons Ratio (y) = 0.31863 0.27524
# Poissons Ratio (z) = 0.35938 0.32502
#
# Static dielectric constant tensor:
#      x y z
#    x 1.504720 0.000000 0.000000 
#    y 0.000000 1.503930 0.000000 
#    z 0.000000 0.000000 1.510310 
# 
# From -- ./inp_files/34127.got.cif
#   From: 2010.05.17/outbox.cif.g08.bks.cpg/sg71_18_cif.got.tgz:34127.got - 2010.06.03 16:22:01.
