data_PCOD9521306
_publ_section_title
;
Structure prediction by ZEFSAII (Michael W. Deem and Ramdas Pophale) SiO2 
 PCOD9521306
Probable space group: I M M M
;
_chemical_formula_sum "Si O2"
_cell_formula_units_Z 88
_cell_length_a 13.506128
_cell_length_b 11.808516
_cell_length_c 30.239821
_cell_angle_alpha 90.000000
_cell_angle_beta 90.000000
_cell_angle_gamma 90.000000
_cell_volume 4822.868268
_symmetry_space_group_name_H-M "I M M M"
_symmetry_group_IT_number 71
_symmetry_cell_setting 'orthorhombic'
loop_
_space_group_symop_operation_xyz
x,y,z
-x,-y,z
x,-y,-z
-x,y,-z
-x,-y,-z
x,y,-z
-x,y,z
x,-y,z
1/2+x,1/2+y,1/2+z
1/2-x,1/2-y,1/2+z
1/2+x,1/2-y,1/2-z
1/2-x,1/2+y,1/2-z
1/2-x,1/2-y,1/2-z
1/2+x,1/2+y,1/2-z
1/2-x,1/2+y,1/2+z
1/2+x,1/2-y,1/2+z
loop_
_atom_site_type_symbol
_atom_site_label
_atom_site_fract_x
_atom_site_fract_y
_atom_site_fract_z
Si Si1 0.616250 0.128339 0.553192
Si Si2 0.304909 0.623381 0.304143
Si Si3 0.388588 0.788019 0.238082
Si Si4 0.382379 0.000000 0.053226
Si Si5 0.114954 0.874114 0.344793
Si Si6 0.260170 0.198738 0.100492
O O1 0.624614 0.132252 0.500000
O O2 0.500000 0.139678 0.564417
O O3 0.678796 0.230703 0.573454
O O4 0.647829 0.000000 0.566996
O O5 0.350133 0.500000 0.295454
O O6 0.365521 0.729444 0.284841
O O7 0.199146 0.631118 0.278390
O O8 0.285962 0.638513 0.356197
O O9 0.500000 0.834641 0.236102
O O10 0.380837 0.684818 0.202995
O O11 0.324390 0.891115 0.072728
O O12 0.500000 0.000000 0.065730
O O13 0.377208 0.000000 0.000000
O O14 0.168564 0.793791 0.379052
O O15 0.000000 0.880134 0.356827
O O16 0.157374 0.000000 0.343216
#
# Coordination Sequence:
#
# PCOD9521306 Si02
#       6
#    16  16  16   8  16  16
#     4   9  19  37  60  83 107 140 185 235 287 341
#     4  10  20  34  51  78 108 141 185 225 269 326
#     4   9  19  34  52  73 105 144 180 221 267 318
#     4  11  24  40  57  79 111 149 188 232 285 347
#     4   9  17  30  51  79 106 138 179 223 273 330
#     4  11  20  35  55  81 110 145 182 230 283 335
#
# _framework density 18.246403000000001
#
# number of rings (size 3 to 8) (size 9 to 14) (size 15 to 20)
#    0.000    2.273    0.909    2.727    0.000    2.909 
#    0.000    1.364    0.000    1.636    0.000    7.636 
#    0.000    0.000    0.000    0.000    0.000    0.000 
#
# Total GULP energy -245266.697213 kJ/mol
# GULP energy per Si atom -5574.243118 kJ/mol
# Density = 1.820487 g / cm^3
# Si number density = 18.246403 Si / 1000 Ang^3
#
#
#
# Elastic Constant Matrix: (Units=GPa)
#
#
# Indices 1 2 3 4 5 6 
#
# 1 63.5601 22.0624 24.9148 0.0000 0.0000 0.0000
# 2 22.0624 92.6451 24.1412 0.0000 0.0000 0.0000
# 3 24.9148 24.1412 70.3897 0.0000 0.0000 0.0000
# 4 0.0000 0.0000 0.0000 -0.3867 0.0000 0.0000
# 5 0.0000 0.0000 0.0000 0.0000 25.3887 0.0000
# 6 0.0000 0.0000 0.0000 0.0000 0.0000 29.0387
#
#
#
# Elastic Compliance Matrix: (Units=1/GPa)
#
#
# Indices 1 2 3 4 5 6 
#
# 1 0.019020 -0.003048 -0.005687 0.000000 0.000000 0.000000
# 2 -0.003048 0.012341 -0.003154 0.000000 0.000000 0.000000
# 3 -0.005687 -0.003154 0.017301 0.000000 0.000000 0.000000
# 4 0.000000 0.000000 0.000000 -2.586273 0.000000 0.000000
# 5 0.000000 0.000000 0.000000 0.000000 0.039388 0.000000
# 6 0.000000 0.000000 0.000000 0.000000 0.000000 0.034437
#
#
# Mechanical properties :
#
#
# Convention : Reuss Voigt Hill
#
# Bulk Modulus (GPa) = 40.18365 40.98130 40.58248
# Shear Modulus (GPa) = -2.05616 21.17324 9.55854
#
# Velocity S-wave (km/s) = -1.06270 3.41017 2.29128
# Velocity P-wave (km/s) = 4.53484 6.16558 5.41199
#
# Compressibility (1/GPa) = 0.02488574
#
# Stress axis : x y z
#
# Youngs Moduli (GPa) = 52.57553 81.02753 57.79901
#
# Poissons Ratio (x) = 0.24693 0.32871
# Poissons Ratio (y) = 0.16023 0.18230
# Poissons Ratio (z) = 0.29900 0.25556
#
# Static dielectric constant tensor:
#      x y z
#    x 1.638480 0.000000 0.000000 
#    y 0.000000 1.628240 0.000000 
#    z 0.000000 0.000000 1.625640 
# 
# From -- ./inp_files/65341.got.cif
#   From: 2010.05.17/outbox.cif.g08.bks.cpg/sg71_33_cif.got.tgz:65341.got - 2010.06.03 16:22:01.
