data_PCOD9521494
_publ_section_title
;
Structure prediction by ZEFSAII (Michael W. Deem and Ramdas Pophale) SiO2 
 PCOD9521494
Probable space group: I M M M
;
_chemical_formula_sum "Si O2"
_cell_formula_units_Z 96
_cell_length_a 26.095188
_cell_length_b 7.778713
_cell_length_c 24.094993
_cell_angle_alpha 90.000000
_cell_angle_beta 90.000000
_cell_angle_gamma 90.000000
_cell_volume 4890.969817
_symmetry_space_group_name_H-M "I M M M"
_symmetry_group_IT_number 71
_symmetry_cell_setting 'orthorhombic'
loop_
_space_group_symop_operation_xyz
x,y,z
-x,-y,z
x,-y,-z
-x,y,-z
-x,-y,-z
x,y,-z
-x,y,z
x,-y,z
1/2+x,1/2+y,1/2+z
1/2-x,1/2-y,1/2+z
1/2+x,1/2-y,1/2-z
1/2-x,1/2+y,1/2-z
1/2-x,1/2-y,1/2-z
1/2+x,1/2+y,1/2-z
1/2-x,1/2+y,1/2+z
1/2+x,1/2-y,1/2+z
loop_
_atom_site_type_symbol
_atom_site_label
_atom_site_fract_x
_atom_site_fract_y
_atom_site_fract_z
Si Si1 0.265949 0.700600 0.437159
Si Si2 0.309664 0.793750 0.758001
Si Si3 0.854590 0.299427 0.144300
Si Si4 0.440966 0.789786 0.437339
Si Si5 0.338942 0.297814 0.881737
Si Si6 0.056714 0.790554 0.435239
O O1 0.270254 0.768138 0.500000
O O2 0.279967 0.500000 0.437511
O O3 0.304326 0.789447 0.394350
O O4 0.208114 0.716136 0.415155
O O5 0.250000 0.750000 0.750000
O O6 0.340509 0.725608 0.704413
O O7 0.329479 0.725744 0.816542
O O8 0.313606 0.000000 0.759328
O O9 0.866691 0.500000 0.153465
O O10 0.901557 0.225276 0.108803
O O11 0.426242 0.736315 0.500000
O O12 0.500000 0.740230 0.427597
O O13 0.439424 0.000000 0.437233
O O14 0.337072 0.500000 0.894877
O O15 0.394381 0.230363 0.900660
O O16 0.063212 0.744504 0.500000
O O17 0.000000 0.732071 0.417053
O O18 0.056130 0.000000 0.432729
#
# Coordination Sequence:
#
# PCOD9521494 Si02
#       6
#    16  16  16  16  16  16
#     4  11  23  35  50  76 109 139 168 214 272 322
#     4  11  22  36  53  75 105 144 183 223 267 312
#     4  10  20  34  54  77 101 135 180 219 257 311
#     4   8  14  27  50  79 106 130 162 211 265 311
#     4  11  21  34  55  80 105 139 180 222 267 317
#     4   8  15  30  53  80 107 135 173 222 270 317
#
# _framework density 19.628008999999999
#
# number of rings (size 3 to 8) (size 9 to 14) (size 15 to 20)
#    0.000    2.167    1.667    3.500    0.000    3.333 
#    0.000    0.833    0.000    3.500    0.000    8.167 
#    0.000    0.000    0.000    0.000    0.000    0.000 
#
# Total GULP energy -267952.362658 kJ/mol
# GULP energy per Si atom -5582.340889 kJ/mol
# Density = 1.958333 g / cm^3
# Si number density = 19.628009 Si / 1000 Ang^3
#
#
#
# Elastic Constant Matrix: (Units=GPa)
#
#
# Indices 1 2 3 4 5 6 
#
# 1 96.5878 -15.3634 27.6915 0.0000 0.0000 0.0000
# 2 -15.3634 30.8037 -16.0252 0.0000 0.0000 0.0000
# 3 27.6915 -16.0252 77.1346 0.0000 0.0000 0.0000
# 4 0.0000 0.0000 0.0000 17.0653 0.0000 0.0000
# 5 0.0000 0.0000 0.0000 0.0000 25.5541 0.0000
# 6 0.0000 0.0000 0.0000 0.0000 0.0000 -1.7530
#
#
#
# Elastic Compliance Matrix: (Units=1/GPa)
#
#
# Indices 1 2 3 4 5 6 
#
# 1 0.012007 0.004200 -0.003438 0.000000 0.000000 0.000000
# 2 0.004200 0.037867 0.006359 0.000000 0.000000 0.000000
# 3 -0.003438 0.006359 0.015520 0.000000 0.000000 0.000000
# 4 0.000000 0.000000 0.000000 0.058598 0.000000 0.000000
# 5 0.000000 0.000000 0.000000 0.000000 0.039133 0.000000
# 6 0.000000 0.000000 0.000000 0.000000 0.000000 -0.570455
#
#
# Mechanical properties :
#
#
# Convention : Reuss Voigt Hill
#
# Bulk Modulus (GPa) = 12.55715 21.90355 17.23035
# Shear Modulus (GPa) = -12.65735 22.05482 4.69874
#
# Velocity S-wave (km/s) = -2.54217 3.35571 1.54890
# Velocity P-wave (km/s) = 1.48505 5.11839 3.46357
#
# Compressibility (1/GPa) = 0.07963589
#
# Stress axis : x y z
#
# Youngs Moduli (GPa) = 83.28480 26.40843 64.43394
#
# Poissons Ratio (x) = -0.11091 0.22152
# Poissons Ratio (y) = -0.34979 -0.40975
# Poissons Ratio (z) = 0.28633 -0.16794
#
# Static dielectric constant tensor:
#      x y z
#    x 1.679830 0.000000 0.000000 
#    y 0.000000 1.739930 0.000000 
#    z 0.000000 0.000000 1.671370 
# 
# From -- ./inp_files/12801.got.cif
#   From: 2010.05.17/outbox.cif.g08.bks.cpg/sg71_7_cif.got.tgz:12801.got - 2010.06.03 16:22:01.
