data_PCOD9521174
_publ_section_title
;
Structure prediction by ZEFSAII (Michael W. Deem and Ramdas Pophale) SiO2 
 PCOD9521174
Probable space group: I M M M
;
_chemical_formula_sum "Si O2"
_cell_formula_units_Z 104
_cell_length_a 32.029640
_cell_length_b 8.967987
_cell_length_c 19.698319
_cell_angle_alpha 90.000000
_cell_angle_beta 90.000000
_cell_angle_gamma 90.000000
_cell_volume 5658.172631
_symmetry_space_group_name_H-M "I M M M"
_symmetry_group_IT_number 71
_symmetry_cell_setting 'orthorhombic'
loop_
_space_group_symop_operation_xyz
x,y,z
-x,-y,z
x,-y,-z
-x,y,-z
-x,-y,-z
x,y,-z
-x,y,z
x,-y,z
1/2+x,1/2+y,1/2+z
1/2-x,1/2-y,1/2+z
1/2+x,1/2-y,1/2-z
1/2-x,1/2+y,1/2-z
1/2-x,1/2-y,1/2-z
1/2+x,1/2+y,1/2-z
1/2-x,1/2+y,1/2+z
1/2+x,1/2-y,1/2+z
loop_
_atom_site_type_symbol
_atom_site_label
_atom_site_fract_x
_atom_site_fract_y
_atom_site_fract_z
Si Si1 0.079009 0.678273 0.077071
Si Si2 0.209635 0.179080 0.783858
Si Si3 0.412768 0.822302 0.079252
Si Si4 0.000000 0.168848 0.582420
Si Si5 0.045816 0.179411 0.209914
Si Si6 0.670559 0.678783 0.423278
Si Si7 0.125938 0.820479 0.701980
O O1 0.078795 0.500000 0.084304
O O2 0.051750 0.752702 0.135375
O O3 0.126201 0.739909 0.085014
O O4 0.065575 0.715075 0.000000
O O5 0.250000 0.250000 0.750000
O O6 0.201193 0.222437 0.862255
O O7 0.167860 0.219521 0.742040
O O8 0.213621 0.000000 0.781759
O O9 0.457428 0.752389 0.100114
O O10 0.378406 0.753959 0.128771
O O11 0.414591 0.000000 0.085443
O O12 0.405690 0.785218 0.000000
O O13 0.000000 0.161623 0.500000
O O14 0.000000 0.000000 0.609649
O O15 0.085247 0.227553 0.254877
O O16 0.000000 0.220576 0.237424
O O17 0.047737 0.000000 0.205414
O O18 0.685848 0.708252 0.500000
O O19 0.663137 0.500000 0.417247
O O20 0.124543 0.000000 0.695382
#
# Coordination Sequence:
#
# PCOD9521174 Si02
#       7
#    16  16  16   8  16  16  16
#     4  10  20  33  52  80 114 150 187 231 279 326
#     4  10  21  38  60  87 115 145 182 228 282 338
#     4  10  21  36  54  80 113 147 187 235 284 336
#     4   9  17  31  53  79 107 145 190 231 274 329
#     4  10  21  37  56  79 110 150 193 233 273 327
#     4   9  17  34  60  84 109 144 186 230 274 326
#     4  10  21  38  58  82 112 146 186 231 281 339
#
# _framework density 18.380492
#
# number of rings (size 3 to 8) (size 9 to 14) (size 15 to 20)
#    0.000    2.231    1.538    1.154    1.077    5.231 
#    0.000    2.308    0.000    2.769    0.000    0.000 
#    0.000    0.000    0.000    0.000    0.000    0.000 
#
# Total GULP energy -290255.012118 kJ/mol
# GULP energy per Si atom -5581.827156 kJ/mol
# Density = 1.833866 g / cm^3
# Si number density = 18.380492 Si / 1000 Ang^3
#
#
#
# Elastic Constant Matrix: (Units=GPa)
#
#
# Indices 1 2 3 4 5 6 
#
# 1 114.4303 32.1859 70.7840 0.0000 0.0000 0.0000
# 2 32.1859 19.2373 37.0710 0.0000 0.0000 0.0000
# 3 70.7840 37.0710 121.6119 0.0000 0.0000 0.0000
# 4 0.0000 0.0000 0.0000 25.8476 0.0000 0.0000
# 5 0.0000 0.0000 0.0000 0.0000 28.5864 0.0000
# 6 0.0000 0.0000 0.0000 0.0000 0.0000 28.6068
#
#
#
# Elastic Compliance Matrix: (Units=1/GPa)
#
#
# Indices 1 2 3 4 5 6 
#
# 1 0.016935 -0.022636 -0.002957 0.000000 0.000000 0.000000
# 2 -0.022636 0.156249 -0.034454 0.000000 0.000000 0.000000
# 3 -0.002957 -0.034454 0.020447 0.000000 0.000000 0.000000
# 4 0.000000 0.000000 0.000000 0.038688 0.000000 0.000000
# 5 0.000000 0.000000 0.000000 0.000000 0.034982 0.000000
# 6 0.000000 0.000000 0.000000 0.000000 0.000000 0.034957
#
#
# Mechanical properties :
#
#
# Convention : Reuss Voigt Hill
#
# Bulk Modulus (GPa) = 13.59865 59.48457 36.54161
# Shear Modulus (GPa) = 11.18912 24.29074 17.73993
#
# Velocity S-wave (km/s) = 2.46996 3.63926 3.11006
# Velocity P-wave (km/s) = 3.94319 7.07757 5.72891
#
# Compressibility (1/GPa) = 0.07353673
#
# Stress axis : x y z
#
# Youngs Moduli (GPa) = 59.05048 6.40004 48.90779
#
# Poissons Ratio (x) = 0.14487 0.14461
# Poissons Ratio (y) = 1.33664 1.68509
# Poissons Ratio (z) = 0.17460 0.22051
#
# Static dielectric constant tensor:
#      x y z
#    x 1.610980 0.000000 0.000000 
#    y 0.000000 1.615300 0.000000 
#    z 0.000000 0.000000 1.660350 
# 
# From -- ./inp_files/56645.got.cif
#   From: 2010.05.17/outbox.cif.g08.bks.cpg/sg71_29_cif.got.tgz:56645.got - 2010.06.03 16:22:01.
