data_PCOD9521026
_publ_section_title
;
Structure prediction by ZEFSAII (Michael W. Deem and Ramdas Pophale) SiO2 
 PCOD9521026
Probable space group: I M M M
;
_chemical_formula_sum "Si O2"
_cell_formula_units_Z 120
_cell_length_a 8.469655
_cell_length_b 28.980438
_cell_length_c 27.644803
_cell_angle_alpha 90.000000
_cell_angle_beta 90.000000
_cell_angle_gamma 90.000000
_cell_volume 6785.536090
_symmetry_space_group_name_H-M "I M M M"
_symmetry_group_IT_number 71
_symmetry_cell_setting 'orthorhombic'
loop_
_space_group_symop_operation_xyz
x,y,z
-x,-y,z
x,-y,-z
-x,y,-z
-x,-y,-z
x,y,-z
-x,y,z
x,-y,z
1/2+x,1/2+y,1/2+z
1/2-x,1/2-y,1/2+z
1/2+x,1/2-y,1/2-z
1/2-x,1/2+y,1/2-z
1/2-x,1/2-y,1/2-z
1/2+x,1/2+y,1/2-z
1/2-x,1/2+y,1/2+z
1/2+x,1/2-y,1/2+z
loop_
_atom_site_type_symbol
_atom_site_label
_atom_site_fract_x
_atom_site_fract_y
_atom_site_fract_z
Si Si1 0.680183 0.299390 0.580848
Si Si2 0.314809 0.867900 0.627493
Si Si3 0.192471 0.553416 0.945156
Si Si4 0.814326 0.288735 0.316444
Si Si5 0.000000 0.445137 0.557246
Si Si6 0.682905 0.704146 0.944769
Si Si7 0.676395 0.404306 0.443989
Si Si8 0.186642 0.184235 0.716426
O O1 0.500000 0.284590 0.572615
O O2 0.715285 0.304665 0.637677
O O3 0.789453 0.258595 0.561563
O O4 0.700380 0.349237 0.557312
O O5 0.500000 0.874461 0.636679
O O6 0.253225 0.911585 0.596469
O O7 0.288615 0.824324 0.592137
O O8 0.233178 0.854540 0.677818
O O9 0.237150 0.500000 0.936865
O O10 0.000000 0.555213 0.945243
O O11 0.243106 0.566393 0.000000
O O12 0.776053 0.234750 0.306385
O O13 0.774929 0.316292 0.267621
O O14 0.000000 0.291850 0.327460
O O15 0.165552 0.426373 0.578170
O O16 0.000000 0.500000 0.559913
O O17 0.000000 0.431527 0.500000
O O18 0.500000 0.693635 0.933995
O O19 0.717925 0.691308 0.000000
O O20 0.669601 0.419747 0.500000
O O21 0.500000 0.413715 0.423118
O O22 0.000000 0.183385 0.725370
#
# Coordination Sequence:
#
# PCOD9521026 Si02
#       8
#    16  16  16  16   8  16  16  16
#     4  11  21  33  50  72 101 137 173 207 249 304
#     4  11  20  31  51  75 100 131 171 216 263 312
#     4   8  15  29  49  74 103 134 171 217 266 313
#     4  10  20  33  51  72  98 132 170 208 251 297
#     4   9  18  32  52  76 100 132 172 214 259 301
#     4  11  23  34  45  66  99 140 178 211 248 295
#     4   9  19  33  49  73 105 139 174 214 256 305
#     4  10  20  34  50  69  99 132 165 209 255 298
#
# _framework density 17.684674999999999
#
# number of rings (size 3 to 8) (size 9 to 14) (size 15 to 20)
#    0.000    2.067    1.333    3.200    1.867    3.467 
#    0.000    1.333    0.000    1.600    0.000    5.600 
#    0.000    2.133    0.000    0.000    0.000    0.000 
#
# Total GULP energy -334639.671294 kJ/mol
# GULP energy per Si atom -5577.327855 kJ/mol
# Density = 1.764442 g / cm^3
# Si number density = 17.684675 Si / 1000 Ang^3
#
#
#
# Elastic Constant Matrix: (Units=GPa)
#
#
# Indices 1 2 3 4 5 6 
#
# 1 40.7925 14.8326 3.7500 0.0000 0.0000 0.0000
# 2 14.8326 44.0534 15.6986 0.0000 0.0000 0.0000
# 3 3.7500 15.6986 47.2877 0.0000 0.0000 0.0000
# 4 0.0000 0.0000 0.0000 13.6444 0.0000 0.0000
# 5 0.0000 0.0000 0.0000 0.0000 16.1896 0.0000
# 6 0.0000 0.0000 0.0000 0.0000 0.0000 15.0728
#
#
#
# Elastic Compliance Matrix: (Units=1/GPa)
#
#
# Indices 1 2 3 4 5 6 
#
# 1 0.027978 -0.009787 0.001031 0.000000 0.000000 0.000000
# 2 -0.009787 0.029169 -0.008908 0.000000 0.000000 0.000000
# 3 0.001031 -0.008908 0.024023 0.000000 0.000000 0.000000
# 4 0.000000 0.000000 0.000000 0.073290 0.000000 0.000000
# 5 0.000000 0.000000 0.000000 0.000000 0.061768 0.000000
# 6 0.000000 0.000000 0.000000 0.000000 0.000000 0.066345
#
#
# Mechanical properties :
#
#
# Convention : Reuss Voigt Hill
#
# Bulk Modulus (GPa) = 21.81434 22.29957 22.05696
# Shear Modulus (GPa) = 15.00676 15.50483 15.25579
#
# Velocity S-wave (km/s) = 2.91619 2.96419 2.94029
# Velocity P-wave (km/s) = 4.86835 4.93479 4.90168
#
# Compressibility (1/GPa) = 0.04584140
#
# Stress axis : x y z
#
# Youngs Moduli (GPa) = 35.74183 34.28253 41.62753
#
# Poissons Ratio (x) = 0.33554 -0.04290
# Poissons Ratio (y) = 0.34982 0.37080
# Poissons Ratio (z) = -0.03683 0.30537
#
# Static dielectric constant tensor:
#      x y z
#    x 1.619720 0.000000 0.000000 
#    y 0.000000 1.593370 0.000000 
#    z 0.000000 0.000000 1.604890 
# 
# From -- ./inp_files/63782.got.cif
#   From: 2010.05.17/outbox.cif.g08.bks.cpg/sg71_32_cif.got.tgz:63782.got - 2010.06.03 16:22:01.
