data_PCOD9521915
_publ_section_title
;
Structure prediction by ZEFSAII (Michael W. Deem and Ramdas Pophale) SiO2 
 PCOD9521915
Probable space group: I M M M
;
_chemical_formula_sum "Si O2"
_cell_formula_units_Z 96
_cell_length_a 24.199791
_cell_length_b 8.733890
_cell_length_c 25.831603
_cell_angle_alpha 90.000000
_cell_angle_beta 90.000000
_cell_angle_gamma 90.000000
_cell_volume 5459.724022
_symmetry_space_group_name_H-M "I M M M"
_symmetry_group_IT_number 71
_symmetry_cell_setting 'orthorhombic'
loop_
_space_group_symop_operation_xyz
x,y,z
-x,-y,z
x,-y,-z
-x,y,-z
-x,-y,-z
x,y,-z
-x,y,z
x,-y,z
1/2+x,1/2+y,1/2+z
1/2-x,1/2-y,1/2+z
1/2+x,1/2-y,1/2-z
1/2-x,1/2+y,1/2-z
1/2-x,1/2-y,1/2-z
1/2+x,1/2+y,1/2-z
1/2-x,1/2+y,1/2+z
1/2+x,1/2-y,1/2+z
loop_
_atom_site_type_symbol
_atom_site_label
_atom_site_fract_x
_atom_site_fract_y
_atom_site_fract_z
Si Si1 0.619178 0.815705 0.849339
Si Si2 0.384752 0.682224 0.346181
Si Si3 0.308618 0.315454 0.059324
Si Si4 0.500000 0.813497 0.812217
Si Si5 0.000000 0.315725 0.809021
Si Si6 0.681678 0.183809 0.560725
Si Si7 0.188610 0.316017 0.246445
O O1 0.648534 0.749411 0.899714
O O2 0.556389 0.762602 0.839629
O O3 0.654892 0.776166 0.798479
O O4 0.618619 0.000000 0.853185
O O5 0.387104 0.500000 0.342465
O O6 0.444886 0.752473 0.335451
O O7 0.360059 0.733308 0.401158
O O8 0.343759 0.748023 0.302360
O O9 0.310235 0.500000 0.060473
O O10 0.245320 0.270890 0.072551
O O11 0.319625 0.267156 0.000000
O O12 0.500000 0.769296 0.751725
O O13 0.500000 0.000000 0.812648
O O14 0.000000 0.500000 0.810882
O O15 0.671972 0.215388 0.500000
O O16 0.677533 0.000000 0.567990
O O17 0.190258 0.500000 0.241876
O O18 0.250000 0.250000 0.250000
#
# Coordination Sequence:
#
# PCOD9521915 Si02
#       7
#    16  16  16   8   8  16  16
#     4  10  20  35  56  80 106 142 189 233 278 331
#     4  12  24  37  56  87 120 149 188 236 287 348
#     4   9  19  36  57  82 113 147 184 229 281 337
#     4   9  18  37  58  77 104 144 190 234 276 323
#     4  11  21  41  64  79 108 157 198 237 283 336
#     4   9  19  38  62  84 110 151 196 233 280 343
#     4  11  22  36  55  82 115 150 187 234 291 346
#
# _framework density 17.583306
#
# number of rings (size 3 to 8) (size 9 to 14) (size 15 to 20)
#    0.000    1.833    1.667    4.250    0.000    5.333 
#    0.000    2.917    0.000    5.000    0.000    0.000 
#    0.000    0.000    0.000    0.000    0.000    0.000 
#
# Total GULP energy -268114.216207 kJ/mol
# GULP energy per Si atom -5585.712838 kJ/mol
# Density = 1.754329 g / cm^3
# Si number density = 17.583306 Si / 1000 Ang^3
#
#
#
# Elastic Constant Matrix: (Units=GPa)
#
#
# Indices 1 2 3 4 5 6 
#
# 1 181.0311 56.1575 90.7924 0.0000 0.0000 0.0000
# 2 56.1575 52.7530 46.2795 0.0000 0.0000 0.0000
# 3 90.7924 46.2795 105.0396 0.0000 0.0000 0.0000
# 4 0.0000 0.0000 0.0000 30.2209 0.0000 0.0000
# 5 0.0000 0.0000 0.0000 0.0000 14.1181 0.0000
# 6 0.0000 0.0000 0.0000 0.0000 0.0000 30.9202
#
#
#
# Elastic Compliance Matrix: (Units=1/GPa)
#
#
# Indices 1 2 3 4 5 6 
#
# 1 0.010583 -0.005283 -0.006820 0.000000 0.000000 0.000000
# 2 -0.005283 0.033537 -0.010210 0.000000 0.000000 0.000000
# 3 -0.006820 -0.010210 0.019914 0.000000 0.000000 0.000000
# 4 0.000000 0.000000 0.000000 0.033090 0.000000 0.000000
# 5 0.000000 0.000000 0.000000 0.000000 0.070831 0.000000
# 6 0.000000 0.000000 0.000000 0.000000 0.000000 0.032341
#
#
# Mechanical properties :
#
#
# Convention : Reuss Voigt Hill
#
# Bulk Modulus (GPa) = 51.52453 80.58696 66.05575
# Shear Modulus (GPa) = 19.88932 24.75810 22.32371
#
# Velocity S-wave (km/s) = 3.36690 3.75646 3.56701
# Velocity P-wave (km/s) = 6.66944 8.04647 7.39010
#
# Compressibility (1/GPa) = 0.01940823
#
# Stress axis : x y z
#
# Youngs Moduli (GPa) = 94.48889 29.81774 50.21707
#
# Poissons Ratio (x) = 0.15753 0.34249
# Poissons Ratio (y) = 0.49919 0.51270
# Poissons Ratio (z) = 0.64442 0.30443
#
# Static dielectric constant tensor:
#      x y z
#    x 1.580020 0.000000 0.000000 
#    y 0.000000 1.592310 0.000000 
#    z 0.000000 0.000000 1.578920 
# 
# From -- ./inp_files/61582.got.cif
#   From: 2010.05.17/outbox.cif.g08.bks.cpg/sg71_31_cif.got.tgz:61582.got - 2010.06.03 16:22:01.
