data_PCOD9521851
_publ_section_title
;
Structure prediction by ZEFSAII (Michael W. Deem and Ramdas Pophale) SiO2 
 PCOD9521851
Probable space group: I M M M
;
_chemical_formula_sum "Si O2"
_cell_formula_units_Z 88
_cell_length_a 24.802523
_cell_length_b 21.645249
_cell_length_c 7.868828
_cell_angle_alpha 90.000000
_cell_angle_beta 90.000000
_cell_angle_gamma 90.000000
_cell_volume 4224.433711
_symmetry_space_group_name_H-M "I M M M"
_symmetry_group_IT_number 71
_symmetry_cell_setting 'orthorhombic'
loop_
_space_group_symop_operation_xyz
x,y,z
-x,-y,z
x,-y,-z
-x,y,-z
-x,-y,-z
x,y,-z
-x,y,z
x,-y,z
1/2+x,1/2+y,1/2+z
1/2-x,1/2-y,1/2+z
1/2+x,1/2-y,1/2-z
1/2-x,1/2+y,1/2-z
1/2-x,1/2-y,1/2-z
1/2+x,1/2+y,1/2-z
1/2-x,1/2+y,1/2+z
1/2+x,1/2-y,1/2+z
loop_
_atom_site_type_symbol
_atom_site_label
_atom_site_fract_x
_atom_site_fract_y
_atom_site_fract_z
Si Si1 0.000000 0.070780 0.202966
Si Si2 0.318338 0.500000 0.204347
Si Si3 0.693526 0.000000 0.205705
Si Si4 0.000000 0.404092 0.810841
Si Si5 0.000000 0.744294 0.805819
Si Si6 0.881284 0.609616 0.297375
Si Si7 0.118477 0.251441 0.303886
Si Si8 0.617367 0.380443 0.204987
O O1 0.054955 0.104415 0.256586
O O2 0.000000 0.000000 0.269780
O O3 0.000000 0.068116 0.000000
O O4 0.255593 0.500000 0.245850
O O5 0.347861 0.561689 0.268978
O O6 0.324593 0.500000 0.000000
O O7 0.661984 0.939205 0.268436
O O8 0.689601 0.000000 0.000000
O O9 0.058133 0.416748 0.729644
O O10 0.000000 0.329720 0.819233
O O11 0.000000 0.429482 0.000000
O O12 0.054050 0.758952 0.706338
O O13 0.000000 0.769350 0.000000
O O14 0.875205 0.615116 0.500000
O O15 0.873720 0.679807 0.227369
O O16 0.136216 0.254375 0.500000
O O17 0.137937 0.186263 0.227514
O O18 0.622263 0.377497 0.000000
#
# Coordination Sequence:
#
# PCOD9521851 Si02
#       8
#     8   8   8   8   8  16  16  16
#     4  11  22  33  50  81 115 143 172 210 253 299
#     4  10  22  39  56  73  97 132 174 218 263 308
#     4  10  22  39  58  75  97 134 174 216 265 312
#     4   9  17  29  49  78 109 136 163 203 251 300
#     4   9  16  26  42  70 108 140 163 194 245 301
#     4   9  18  34  54  77 105 137 172 208 252 309
#     4   9  17  30  50  74 100 133 173 209 244 297
#     4  10  20  35  55  77 104 140 176 211 253 303
#
# _framework density 20.831192999999999
#
# number of rings (size 3 to 8) (size 9 to 14) (size 15 to 20)
#    0.000    2.455    0.909    1.364    0.000    7.273 
#    0.000    2.727    0.000    0.000    0.000    0.000 
#    0.000    0.000    0.000    0.000    0.000    0.000 
#
# Total GULP energy -245213.646100 kJ/mol
# GULP energy per Si atom -5573.037411 kJ/mol
# Density = 2.078378 g / cm^3
# Si number density = 20.831193 Si / 1000 Ang^3
#
#
#
# Elastic Constant Matrix: (Units=GPa)
#
#
# Indices 1 2 3 4 5 6 
#
# 1 113.8189 79.8879 -6.9296 0.0000 0.0000 0.0000
# 2 79.8879 198.5488 7.8768 0.0000 0.0000 0.0000
# 3 -6.9296 7.8768 27.9071 0.0000 0.0000 0.0000
# 4 0.0000 0.0000 0.0000 2.8586 0.0000 0.0000
# 5 0.0000 0.0000 0.0000 0.0000 23.0590 0.0000
# 6 0.0000 0.0000 0.0000 0.0000 0.0000 -3.5597
#
#
#
# Elastic Compliance Matrix: (Units=1/GPa)
#
#
# Indices 1 2 3 4 5 6 
#
# 1 0.012824 -0.005346 0.004693 0.000000 0.000000 0.000000
# 2 -0.005346 0.007322 -0.003394 0.000000 0.000000 0.000000
# 3 0.004693 -0.003394 0.037957 0.000000 0.000000 0.000000
# 4 0.000000 0.000000 0.000000 0.349819 0.000000 0.000000
# 5 0.000000 0.000000 0.000000 0.000000 0.043367 0.000000
# 6 0.000000 0.000000 0.000000 0.000000 0.000000 -0.280926
#
#
# Mechanical properties :
#
#
# Convention : Reuss Voigt Hill
#
# Bulk Modulus (GPa) = 19.99651 55.77166 37.88408
# Shear Modulus (GPa) = 25.62453 21.76758 23.69605
#
# Velocity S-wave (km/s) = 3.51109 3.23608 3.37638
# Velocity P-wave (km/s) = 5.10462 6.38703 5.78149
#
# Compressibility (1/GPa) = 0.05000873
#
# Stress axis : x y z
#
# Youngs Moduli (GPa) = 77.97946 136.57089 26.34592
#
# Poissons Ratio (x) = 0.73011 -0.12365
# Poissons Ratio (y) = 0.41688 0.08942
# Poissons Ratio (z) = -0.36597 0.46354
#
# Static dielectric constant tensor:
#      x y z
#    x 1.696420 0.000000 0.000000 
#    y 0.000000 1.844080 0.000000 
#    z 0.000000 0.000000 1.763210 
# 
# From -- ./inp_files/10582.got.cif
#   From: 2010.05.17/outbox.cif.g08.bks.cpg/sg71_6_cif.got.tgz:10582.got - 2010.06.03 16:22:01.
