data_PCOD9521220
_publ_section_title
;
Structure prediction by ZEFSAII (Michael W. Deem and Ramdas Pophale) SiO2 
 PCOD9521220
Probable space group: I M M M
;
_chemical_formula_sum "Si O2"
_cell_formula_units_Z 104
_cell_length_a 28.150067
_cell_length_b 23.236216
_cell_length_c 8.238691
_cell_angle_alpha 90.000000
_cell_angle_beta 90.000000
_cell_angle_gamma 90.000000
_cell_volume 5388.936328
_symmetry_space_group_name_H-M "I M M M"
_symmetry_group_IT_number 71
_symmetry_cell_setting 'orthorhombic'
loop_
_space_group_symop_operation_xyz
x,y,z
-x,-y,z
x,-y,-z
-x,y,-z
-x,-y,-z
x,y,-z
-x,y,z
x,-y,z
1/2+x,1/2+y,1/2+z
1/2-x,1/2-y,1/2+z
1/2+x,1/2-y,1/2-z
1/2-x,1/2+y,1/2-z
1/2-x,1/2-y,1/2-z
1/2+x,1/2+y,1/2-z
1/2-x,1/2+y,1/2+z
1/2+x,1/2-y,1/2+z
loop_
_atom_site_type_symbol
_atom_site_label
_atom_site_fract_x
_atom_site_fract_y
_atom_site_fract_z
Si Si1 0.131794 0.661890 0.688461
Si Si2 0.299995 0.727955 0.188812
Si Si3 0.692724 0.395116 0.315175
Si Si4 0.704141 0.064779 0.307223
Si Si5 0.500000 0.434744 0.698210
Si Si6 0.944835 0.253542 0.303110
Si Si7 0.906133 0.130886 0.197210
O O1 0.123961 0.647513 0.500000
O O2 0.165223 0.718174 0.698288
O O3 0.162842 0.609551 0.758069
O O4 0.082202 0.688203 0.755137
O O5 0.250000 0.750000 0.250000
O O6 0.309882 0.674128 0.303094
O O7 0.298723 0.708533 0.000000
O O8 0.694036 0.415726 0.500000
O O9 0.742512 0.414594 0.239306
O O10 0.640139 0.405093 0.243150
O O11 0.703134 0.062068 0.500000
O O12 0.696638 0.000000 0.240916
O O13 0.500000 0.500000 0.752445
O O14 0.500000 0.434209 0.500000
O O15 0.546832 0.401871 0.751219
O O16 0.944338 0.254800 0.500000
O O17 0.915151 0.196776 0.252150
O O18 0.000000 0.249499 0.249676
O O19 0.903472 0.131146 0.000000
#
# Coordination Sequence:
#
# PCOD9521220 Si02
#       7
#    16  16  16  16   8  16  16
#     4  10  21  36  57  85 113 147 186 225 279 340
#     4  11  20  31  51  80 112 143 178 221 270 324
#     4  11  22  34  53  83 114 149 188 228 278 330
#     4  11  25  42  59  80 109 149 192 235 284 338
#     4   9  18  34  53  73 103 145 192 237 272 311
#     4  10  20  35  57  86 118 147 177 225 287 342
#     4  10  20  33  54  82 111 147 191 234 278 327
#
# _framework density 19.298798999999999
#
# number of rings (size 3 to 8) (size 9 to 14) (size 15 to 20)
#    0.000    1.615    3.846    1.385    0.000    3.692 
#    0.000    1.538    0.000    1.385    0.000    3.231 
#    0.000    0.000    0.000    0.000    0.000    0.000 
#
# Total GULP energy -289712.733278 kJ/mol
# GULP energy per Si atom -5571.398717 kJ/mol
# Density = 1.925487 g / cm^3
# Si number density = 19.298799 Si / 1000 Ang^3
#
#
#
# Elastic Constant Matrix: (Units=GPa)
#
#
# Indices 1 2 3 4 5 6 
#
# 1 107.9085 48.7936 13.7799 0.0000 0.0000 0.0000
# 2 48.7936 108.1288 14.4796 0.0000 0.0000 0.0000
# 3 13.7799 14.4796 22.6969 0.0000 0.0000 0.0000
# 4 0.0000 0.0000 0.0000 15.9747 0.0000 0.0000
# 5 0.0000 0.0000 0.0000 0.0000 6.1509 0.0000
# 6 0.0000 0.0000 0.0000 0.0000 0.0000 12.8002
#
#
#
# Elastic Compliance Matrix: (Units=1/GPa)
#
#
# Indices 1 2 3 4 5 6 
#
# 1 0.011996 -0.004853 -0.004187 0.000000 0.000000 0.000000
# 2 -0.004853 0.012075 -0.004757 0.000000 0.000000 0.000000
# 3 -0.004187 -0.004757 0.049636 0.000000 0.000000 0.000000
# 4 0.000000 0.000000 0.000000 0.062599 0.000000 0.000000
# 5 0.000000 0.000000 0.000000 0.000000 0.162579 0.000000
# 6 0.000000 0.000000 0.000000 0.000000 0.000000 0.078124
#
#
# Mechanical properties :
#
#
# Convention : Reuss Voigt Hill
#
# Bulk Modulus (GPa) = 21.68598 43.64895 32.66747
# Shear Modulus (GPa) = 11.90550 17.76389 14.83470
#
# Velocity S-wave (km/s) = 2.48645 3.03721 2.77552
# Velocity P-wave (km/s) = 4.41640 5.91321 5.21875
#
# Compressibility (1/GPa) = 0.04611274
#
# Stress axis : x y z
#
# Youngs Moduli (GPa) = 83.36086 82.81580 20.14668
#
# Poissons Ratio (x) = 0.40187 0.08436
# Poissons Ratio (y) = 0.40451 0.09584
# Poissons Ratio (z) = 0.34907 0.39397
#
# Static dielectric constant tensor:
#      x y z
#    x 1.819870 0.000000 0.000000 
#    y 0.000000 1.698100 0.000000 
#    z 0.000000 0.000000 1.684370 
# 
# From -- ./inp_files/15298.got.cif
#   From: 2010.05.17/outbox.cif.g08.bks.cpg/sg71_8_cif.got.tgz:15298.got - 2010.06.03 16:22:01.
