data_PCOD9521939
_publ_section_title
;
Structure prediction by ZEFSAII (Michael W. Deem and Ramdas Pophale) SiO2 
 PCOD9521939
Probable space group: I M M M
;
_chemical_formula_sum "Si O2"
_cell_formula_units_Z 104
_cell_length_a 20.615757
_cell_length_b 9.203846
_cell_length_c 25.428881
_cell_angle_alpha 90.000000
_cell_angle_beta 90.000000
_cell_angle_gamma 90.000000
_cell_volume 4824.984020
_symmetry_space_group_name_H-M "I M M M"
_symmetry_group_IT_number 71
_symmetry_cell_setting 'orthorhombic'
loop_
_space_group_symop_operation_xyz
x,y,z
-x,-y,z
x,-y,-z
-x,y,-z
-x,-y,-z
x,y,-z
-x,y,z
x,-y,z
1/2+x,1/2+y,1/2+z
1/2-x,1/2-y,1/2+z
1/2+x,1/2-y,1/2-z
1/2-x,1/2+y,1/2-z
1/2-x,1/2-y,1/2-z
1/2+x,1/2+y,1/2-z
1/2-x,1/2+y,1/2+z
1/2+x,1/2-y,1/2+z
loop_
_atom_site_type_symbol
_atom_site_label
_atom_site_fract_x
_atom_site_fract_y
_atom_site_fract_z
Si Si1 0.924875 0.825359 0.728864
Si Si2 0.076976 0.661866 0.836296
Si Si3 0.624656 0.662454 0.937857
Si Si4 0.500000 0.166539 0.064634
Si Si5 0.782455 0.825985 0.699957
Si Si6 0.890102 0.168791 0.941598
Si Si7 0.247834 0.667897 0.597188
O O1 0.906479 0.761823 0.786407
O O2 0.859982 0.788037 0.695296
O O3 0.000000 0.778030 0.715419
O O4 0.927142 0.000000 0.731297
O O5 0.106525 0.500000 0.832957
O O6 0.088408 0.736027 0.892437
O O7 0.000000 0.646788 0.831877
O O8 0.632754 0.500000 0.915413
O O9 0.562454 0.745922 0.916457
O O10 0.687360 0.760254 0.931345
O O11 0.612986 0.646958 0.000000
O O12 0.500000 0.000000 0.081895
O O13 0.500000 0.163744 0.000000
O O14 0.750000 0.750000 0.750000
O O15 0.745169 0.762529 0.649715
O O16 0.777351 0.000000 0.703732
O O17 0.812100 0.172543 0.937636
O O18 0.910215 0.000000 0.934521
O O19 0.910978 0.216265 0.000000
O O20 0.235322 0.500000 0.610832
#
# Coordination Sequence:
#
# PCOD9521939 Si02
#       7
#    16  16  16   8  16  16  16
#     4   9  19  38  62  85 112 151 195 236 283 343
#     4  10  21  36  57  87 119 149 183 229 286 345
#     4  10  20  35  56  82 112 147 188 233 282 337
#     4   9  17  31  53  79 107 143 185 227 273 325
#     4  11  23  39  60  86 116 149 191 241 295 353
#     4  10  22  39  58  81 111 151 197 240 282 336
#     4  11  23  39  58  82 113 149 191 238 291 345
#
# _framework density 21.554476999999999
#
# number of rings (size 3 to 8) (size 9 to 14) (size 15 to 20)
#    0.000    1.923    0.000    3.462    0.000   10.154 
#    1.385    1.538    0.000    0.000    0.000    0.000 
#    0.000    0.000    0.000    0.000    0.000    0.000 
#
# Total GULP energy -290380.428610 kJ/mol
# GULP energy per Si atom -5584.239012 kJ/mol
# Density = 2.150542 g / cm^3
# Si number density = 21.554477 Si / 1000 Ang^3
#
#
#
# Elastic Constant Matrix: (Units=GPa)
#
#
# Indices 1 2 3 4 5 6 
#
# 1 56.8610 19.8584 -3.5573 0.0000 0.0000 0.0000
# 2 19.8584 70.1455 4.9078 0.0000 0.0000 0.0000
# 3 -3.5573 4.9078 59.3781 0.0000 0.0000 0.0000
# 4 0.0000 0.0000 0.0000 22.8548 0.0000 0.0000
# 5 0.0000 0.0000 0.0000 0.0000 -197.2871 0.0000
# 6 0.0000 0.0000 0.0000 0.0000 0.0000 30.7333
#
#
#
# Elastic Compliance Matrix: (Units=1/GPa)
#
#
# Indices 1 2 3 4 5 6 
#
# 1 0.019676 -0.005686 0.001649 0.000000 0.000000 0.000000
# 2 -0.005686 0.015982 -0.001662 0.000000 0.000000 0.000000
# 3 0.001649 -0.001662 0.017077 0.000000 0.000000 0.000000
# 4 0.000000 0.000000 0.000000 0.043754 0.000000 0.000000
# 5 0.000000 0.000000 0.000000 0.000000 -0.005069 0.000000
# 6 0.000000 0.000000 0.000000 0.000000 0.000000 0.032538
#
#
# Mechanical properties :
#
#
# Convention : Reuss Voigt Hill
#
# Bulk Modulus (GPa) = 24.19089 25.42250 24.80669
# Shear Modulus (GPa) = 33.52675 -17.72808 7.89933
#
# Velocity S-wave (km/s) = 3.94819 -2.87100 1.91645
# Velocity P-wave (km/s) = 5.65966 0.91102 4.05350
#
# Compressibility (1/GPa) = 0.04133788
#
# Stress axis : x y z
#
# Youngs Moduli (GPa) = 50.82447 62.57067 58.55720
#
# Poissons Ratio (x) = 0.35575 -0.09654
# Poissons Ratio (y) = 0.28897 0.09730
# Poissons Ratio (z) = -0.08379 0.10397
#
# Static dielectric constant tensor:
#      x y z
#    x 1.798830 0.000000 0.000000 
#    y 0.000000 2.425910 0.000000 
#    z 0.000000 0.000000 1.810930 
# 
# From -- ./inp_files/11089.got.cif
#   From: 2010.05.17/outbox.cif.g08.bks.cpg/sg71_6_cif.got.tgz:11089.got - 2010.06.03 16:22:01.
