data_PCOD9521254
_publ_section_title
;
Structure prediction by ZEFSAII (Michael W. Deem and Ramdas Pophale) SiO2 
 PCOD9521254
Probable space group: I M M M
;
_chemical_formula_sum "Si O2"
_cell_formula_units_Z 82
_cell_length_a 7.743292
_cell_length_b 23.277167
_cell_length_c 22.279930
_cell_angle_alpha 90.000000
_cell_angle_beta 90.000000
_cell_angle_gamma 90.000000
_cell_volume 4015.776938
_symmetry_space_group_name_H-M "I M M M"
_symmetry_group_IT_number 71
_symmetry_cell_setting 'orthorhombic'
loop_
_space_group_symop_operation_xyz
x,y,z
-x,-y,z
x,-y,-z
-x,y,-z
-x,-y,-z
x,y,-z
-x,y,z
x,-y,z
1/2+x,1/2+y,1/2+z
1/2-x,1/2-y,1/2+z
1/2+x,1/2-y,1/2-z
1/2-x,1/2+y,1/2-z
1/2-x,1/2-y,1/2-z
1/2+x,1/2+y,1/2-z
1/2-x,1/2+y,1/2+z
1/2+x,1/2-y,1/2+z
loop_
_atom_site_type_symbol
_atom_site_label
_atom_site_fract_x
_atom_site_fract_y
_atom_site_fract_z
Si Si1 0.792226 0.725979 0.816449
Si Si2 0.194928 0.403294 0.500000
Si Si3 0.706110 0.096203 0.335719
Si Si4 0.796156 0.061231 0.795713
Si Si5 0.789278 0.838076 0.119276
Si Si6 0.000000 0.000000 0.000000
Si Si7 0.794527 0.000000 0.568396
O O1 0.750000 0.750000 0.750000
O O2 0.727754 0.662065 0.832346
O O3 0.731879 0.774464 0.862926
O O4 0.000000 0.723627 0.819546
O O5 0.220422 0.363390 0.557967
O O6 0.346928 0.450166 0.500000
O O7 0.000000 0.427190 0.500000
O O8 0.500000 0.098079 0.330638
O O9 0.774139 0.066704 0.275219
O O10 0.746058 0.056649 0.393051
O O11 0.729615 0.117476 0.828929
O O12 0.000000 0.059687 0.809167
O O13 0.721727 0.000000 0.816608
O O14 0.000000 0.837809 0.117369
O O15 0.724632 0.000000 0.500000
O O16 0.000000 0.000000 0.564599
#
# Coordination Sequence:
#
# PCOD9521254 Si02
#       7
#    16   8  16  16  16   2   8
#     4  10  21  37  62  95 129 172 212 261 332 392
#     4  12  27  45  71 102 131 184 233 278 341 407
#     4  11  22  37  60  94 129 160 207 266 323 390
#     4  10  20  33  59  91 123 165 208 254 324 389
#     4  10  21  41  64  88 133 180 220 275 336 393
#     4  12  26  52  72  90 140 172 222 286 334 402
#     4  11  25  45  66  87 119 166 217 269 330 395
#
# _framework density 20.419460999999998
#
# number of rings (size 3 to 8) (size 9 to 14) (size 15 to 20)
#    0.000    1.463    3.902    1.024    1.366    3.122 
#    1.756    0.000    0.000    0.000    0.000    0.000 
#    0.000    0.000    0.000    0.000    0.000    0.000 
#
# Total GULP energy -228662.731010 kJ/mol
# GULP energy per Si atom -5577.139781 kJ/mol
# Density = 2.037299 g / cm^3
# Si number density = 20.419461 Si / 1000 Ang^3
#
#
#
# Elastic Constant Matrix: (Units=GPa)
#
#
# Indices 1 2 3 4 5 6 
#
# 1 58.9069 23.3344 -11.2410 0.0000 0.0000 0.0000
# 2 23.3344 197.4847 61.3995 0.0000 0.0000 0.0000
# 3 -11.2410 61.3995 102.7157 0.0000 0.0000 0.0000
# 4 0.0000 0.0000 0.0000 -22.9707 0.0000 0.0000
# 5 0.0000 0.0000 0.0000 0.0000 247.5344 0.0000
# 6 0.0000 0.0000 0.0000 0.0000 0.0000 15.5649
#
#
#
# Elastic Compliance Matrix: (Units=1/GPa)
#
#
# Indices 1 2 3 4 5 6 
#
# 1 0.019209 -0.003591 0.004248 0.000000 0.000000 0.000000
# 2 -0.003591 0.006891 -0.004512 0.000000 0.000000 0.000000
# 3 0.004248 -0.004512 0.012898 0.000000 0.000000 0.000000
# 4 0.000000 0.000000 0.000000 -0.043534 0.000000 0.000000
# 5 0.000000 0.000000 0.000000 0.000000 0.004040 0.000000
# 6 0.000000 0.000000 0.000000 0.000000 0.000000 0.064247
#
#
# Mechanical properties :
#
#
# Convention : Reuss Voigt Hill
#
# Bulk Modulus (GPa) = 31.95987 56.23258 44.09622
# Shear Modulus (GPa) = 61.05881 67.06669 64.06275
#
# Velocity S-wave (km/s) = 5.47423 5.73723 5.60727
# Velocity P-wave (km/s) = 7.45935 8.45495 7.97271
#
# Compressibility (1/GPa) = 0.03128924
#
# Stress axis : x y z
#
# Youngs Moduli (GPa) = 52.05903 145.12218 77.53358
#
# Poissons Ratio (x) = 0.52107 -0.32940
# Poissons Ratio (y) = 0.18692 0.34983
# Poissons Ratio (z) = -0.22117 0.65479
#
# Static dielectric constant tensor:
#      x y z
#    x 1.742920 0.000000 0.000000 
#    y 0.000000 1.766920 0.000000 
#    z 0.000000 0.000000 1.644810 
# 
# From -- ./inp_files/50448.got.cif
#   From: 2010.05.17/outbox.cif.g08.bks.cpg/sg71_26_cif.got.tgz:50448.got - 2010.06.03 16:22:01.
