data_PCOD9521205
_publ_section_title
;
Structure prediction by ZEFSAII (Michael W. Deem and Ramdas Pophale) SiO2 
 PCOD9521205
Probable space group: I M M M
;
_chemical_formula_sum "Si O2"
_cell_formula_units_Z 104
_cell_length_a 20.586291
_cell_length_b 9.204221
_cell_length_c 32.479665
_cell_angle_alpha 90.000000
_cell_angle_beta 90.000000
_cell_angle_gamma 90.000000
_cell_volume 6154.271996
_symmetry_space_group_name_H-M "I M M M"
_symmetry_group_IT_number 71
_symmetry_cell_setting 'orthorhombic'
loop_
_space_group_symop_operation_xyz
x,y,z
-x,-y,z
x,-y,-z
-x,y,-z
-x,-y,-z
x,y,-z
-x,y,z
x,-y,z
1/2+x,1/2+y,1/2+z
1/2-x,1/2-y,1/2+z
1/2+x,1/2-y,1/2-z
1/2-x,1/2+y,1/2-z
1/2-x,1/2-y,1/2-z
1/2+x,1/2+y,1/2-z
1/2-x,1/2+y,1/2+z
1/2+x,1/2-y,1/2+z
loop_
_atom_site_type_symbol
_atom_site_label
_atom_site_fract_x
_atom_site_fract_y
_atom_site_fract_z
Si Si1 0.813002 0.326633 0.631834
Si Si2 0.194904 0.829748 0.546473
Si Si3 0.180101 0.670332 0.157801
Si Si4 0.928437 0.171046 0.000000
Si Si5 0.424439 0.673999 0.716046
Si Si6 0.348146 0.838408 0.436870
Si Si7 0.574406 0.170461 0.802703
O O1 0.801606 0.500000 0.628888
O O2 0.826368 0.261996 0.586249
O O3 0.749635 0.249631 0.651897
O O4 0.873938 0.300006 0.661680
O O5 0.175592 0.783232 0.500000
O O6 0.273333 0.824433 0.549301
O O7 0.176752 0.000000 0.551472
O O8 0.189417 0.500000 0.168780
O O9 0.129997 0.748619 0.188271
O O10 0.150030 0.675142 0.112027
O O11 0.890244 0.222522 0.039873
O O12 0.000000 0.235757 0.000000
O O13 0.932145 0.000000 0.000000
O O14 0.500000 0.709661 0.704475
O O15 0.417369 0.500000 0.713884
O O16 0.415425 0.731059 0.762609
O O17 0.370089 0.000000 0.448610
O O18 0.500000 0.191259 0.816856
O O19 0.581299 0.000000 0.790735
#
# Coordination Sequence:
#
# PCOD9521205 Si02
#       7
#    16  16  16   8  16  16  16
#     4  10  20  33  53  83 110 134 173 221 267 309
#     4   9  17  32  53  75 102 134 168 207 255 312
#     4  10  21  36  54  76 105 140 176 215 263 317
#     4  11  23  33  43  65  95 127 164 209 260 303
#     4  10  21  36  55  79 105 136 177 223 267 311
#     4   9  18  34  51  67  90 126 170 208 246 298
#     4   9  19  37  58  78 105 141 176 211 257 320
#
# _framework density 16.89883
#
# number of rings (size 3 to 8) (size 9 to 14) (size 15 to 20)
#    0.000    2.385    0.769    2.538    0.000    7.385 
#    0.000    3.077    0.000    0.462    0.000    3.231 
#    0.000    0.000    0.000    0.000    0.000    0.000 
#
# Total GULP energy -289839.967700 kJ/mol
# GULP energy per Si atom -5573.845533 kJ/mol
# Density = 1.686037 g / cm^3
# Si number density = 16.898830 Si / 1000 Ang^3
#
#
#
# Elastic Constant Matrix: (Units=GPa)
#
#
# Indices 1 2 3 4 5 6 
#
# 1 78.6838 61.0029 68.7742 0.0000 0.0000 0.0000
# 2 61.0029 94.0199 66.5761 0.0000 0.0000 0.0000
# 3 68.7742 66.5761 112.4962 0.0000 0.0000 0.0000
# 4 0.0000 0.0000 0.0000 33.5688 0.0000 0.0000
# 5 0.0000 0.0000 0.0000 0.0000 21.8776 0.0000
# 6 0.0000 0.0000 0.0000 0.0000 0.0000 1.3714
#
#
#
# Elastic Compliance Matrix: (Units=1/GPa)
#
#
# Indices 1 2 3 4 5 6 
#
# 1 0.034373 -0.012776 -0.013453 0.000000 0.000000 0.000000
# 2 -0.012776 0.023057 -0.005835 0.000000 0.000000 0.000000
# 3 -0.013453 -0.005835 0.020567 0.000000 0.000000 0.000000
# 4 0.000000 0.000000 0.000000 0.029790 0.000000 0.000000
# 5 0.000000 0.000000 0.000000 0.000000 0.045709 0.000000
# 6 0.000000 0.000000 0.000000 0.000000 0.000000 0.729161
#
#
# Mechanical properties :
#
#
# Convention : Reuss Voigt Hill
#
# Bulk Modulus (GPa) = 72.10165 75.32290 73.71227
# Shear Modulus (GPa) = 5.25538 17.28669 11.27103
#
# Velocity S-wave (km/s) = 1.76541 3.20183 2.58538
# Velocity P-wave (km/s) = 6.84944 7.63797 7.25443
#
# Compressibility (1/GPa) = 0.01386931
#
# Stress axis : x y z
#
# Youngs Moduli (GPa) = 29.09286 43.37035 48.62274
#
# Poissons Ratio (x) = 0.55410 0.65410
# Poissons Ratio (y) = 0.37169 0.28370
# Poissons Ratio (z) = 0.39138 0.25306
#
# Static dielectric constant tensor:
#      x y z
#    x 1.547770 0.000000 0.000000 
#    y 0.000000 1.576480 0.000000 
#    z 0.000000 0.000000 1.561690 
# 
# From -- ./inp_files/56666.got.cif
#   From: 2010.05.17/outbox.cif.g08.bks.cpg/sg71_29_cif.got.tgz:56666.got - 2010.06.03 16:22:01.
