data_PCOD9521298
_publ_section_title
;
Structure prediction by ZEFSAII (Michael W. Deem and Ramdas Pophale) SiO2 
 PCOD9521298
Probable space group: I M M M
;
_chemical_formula_sum "Si O2"
_cell_formula_units_Z 100
_cell_length_a 7.525587
_cell_length_b 20.752701
_cell_length_c 29.849321
_cell_angle_alpha 90.000000
_cell_angle_beta 90.000000
_cell_angle_gamma 90.000000
_cell_volume 4661.755224
_symmetry_space_group_name_H-M "I M M M"
_symmetry_group_IT_number 71
_symmetry_cell_setting 'orthorhombic'
loop_
_space_group_symop_operation_xyz
x,y,z
-x,-y,z
x,-y,-z
-x,y,-z
-x,-y,-z
x,y,-z
-x,y,z
x,-y,z
1/2+x,1/2+y,1/2+z
1/2-x,1/2-y,1/2+z
1/2+x,1/2-y,1/2-z
1/2-x,1/2+y,1/2-z
1/2-x,1/2-y,1/2-z
1/2+x,1/2+y,1/2-z
1/2-x,1/2+y,1/2+z
1/2+x,1/2-y,1/2+z
loop_
_atom_site_type_symbol
_atom_site_label
_atom_site_fract_x
_atom_site_fract_y
_atom_site_fract_z
Si Si1 0.200610 0.699020 0.805750
Si Si2 0.204399 0.069705 0.353771
Si Si3 0.200466 0.319252 0.639158
Si Si4 0.215879 0.741052 0.450076
Si Si5 0.782052 0.387422 0.725772
Si Si6 0.500000 0.500000 0.253467
Si Si7 0.792416 0.392493 0.950455
O O1 0.204469 0.632018 0.833512
O O2 0.306445 0.752131 0.833149
O O3 0.255265 0.675443 0.756613
O O4 0.000000 0.723275 0.804255
O O5 0.205092 0.076297 0.407382
O O6 0.000000 0.070000 0.338195
O O7 0.281562 0.000000 0.341647
O O8 0.283733 0.301314 0.591396
O O9 0.271189 0.370596 0.674712
O O10 0.000000 0.340738 0.629485
O O11 0.266527 0.718878 0.500000
O O12 0.276207 0.815100 0.445517
O O13 0.000000 0.742755 0.447787
O O14 0.658493 0.444067 0.743315
O O15 0.000000 0.397752 0.728266
O O16 0.000000 0.409742 0.949209
O O17 0.722313 0.409135 0.000000
#
# Coordination Sequence:
#
# PCOD9521298 Si02
#       7
#    16  16  16  16  16   4  16
#     4  11  23  37  58  85 119 157 200 256 300 356
#     4  11  24  37  52  74 104 150 204 250 300 359
#     4  10  20  37  61  90 127 158 198 254 303 357
#     4   9  17  31  55  85 116 153 193 237 297 361
#     4  10  25  43  63  94 124 162 208 252 305 365
#     4  12  26  44  72  90 125 170 201 262 296 384
#     4  10  20  34  51  73 103 143 190 245 305 357
#
# _framework density 21.451149000000001
#
# number of rings (size 3 to 8) (size 9 to 14) (size 15 to 20)
#    0.000    1.760    1.600    2.160    4.480    2.560 
#    0.000    1.600    0.000    0.000    0.000    1.120 
#    0.000    3.840    0.000    0.000    0.000    0.000 
#
# Total GULP energy -278799.677722 kJ/mol
# GULP energy per Si atom -5575.993554 kJ/mol
# Density = 2.140233 g / cm^3
# Si number density = 21.451149 Si / 1000 Ang^3
#
#
#
# Elastic Constant Matrix: (Units=GPa)
#
#
# Indices 1 2 3 4 5 6 
#
# 1 87.8764 15.8982 10.7709 0.0000 0.0000 0.0000
# 2 15.8982 39.9627 20.6322 0.0000 0.0000 0.0000
# 3 10.7709 20.6322 141.5893 0.0000 0.0000 0.0000
# 4 0.0000 0.0000 0.0000 -7.7797 0.0000 0.0000
# 5 0.0000 0.0000 0.0000 0.0000 18.6919 0.0000
# 6 0.0000 0.0000 0.0000 0.0000 0.0000 53.7112
#
#
#
# Elastic Compliance Matrix: (Units=1/GPa)
#
#
# Indices 1 2 3 4 5 6 
#
# 1 0.012270 -0.004757 -0.000240 0.000000 0.000000 0.000000
# 2 -0.004757 0.028903 -0.003850 0.000000 0.000000 0.000000
# 3 -0.000240 -0.003850 0.007642 0.000000 0.000000 0.000000
# 4 0.000000 0.000000 0.000000 -0.128540 0.000000 0.000000
# 5 0.000000 0.000000 0.000000 0.000000 0.053499 0.000000
# 6 0.000000 0.000000 0.000000 0.000000 0.000000 0.018618
#
#
# Mechanical properties :
#
#
# Convention : Reuss Voigt Hill
#
# Bulk Modulus (GPa) = 32.13302 40.44789 36.29045
# Shear Modulus (GPa) = 244.37416 27.73316 136.05366
#
# Velocity S-wave (km/s) = 10.68497 3.59953 7.97261
# Velocity P-wave (km/s) = 12.93201 6.01433 10.08487
#
# Compressibility (1/GPa) = 0.03112064
#
# Stress axis : x y z
#
# Youngs Moduli (GPa) = 81.50151 34.59789 130.85667
#
# Poissons Ratio (x) = 0.16459 0.03143
# Poissons Ratio (y) = 0.38772 0.50378
# Poissons Ratio (z) = 0.01957 0.13320
#
# Static dielectric constant tensor:
#      x y z
#    x 1.803910 0.000000 0.000000 
#    y 0.000000 1.743290 0.000000 
#    z 0.000000 0.000000 1.857990 
# 
# From -- ./inp_files/17003.got.cif
#   From: 2010.05.17/outbox.cif.g08.bks.cpg/sg71_9_cif.got.tgz:17003.got - 2010.06.03 16:22:01.
