data_PCOD9521722
_publ_section_title
;
Structure prediction by ZEFSAII (Michael W. Deem and Ramdas Pophale) SiO2 
 PCOD9521722
Probable space group: I M M M
;
_chemical_formula_sum "Si O2"
_cell_formula_units_Z 104
_cell_length_a 7.761533
_cell_length_b 22.227090
_cell_length_c 28.491425
_cell_angle_alpha 90.000000
_cell_angle_beta 90.000000
_cell_angle_gamma 90.000000
_cell_volume 4915.235010
_symmetry_space_group_name_H-M "I M M M"
_symmetry_group_IT_number 71
_symmetry_cell_setting 'orthorhombic'
loop_
_space_group_symop_operation_xyz
x,y,z
-x,-y,z
x,-y,-z
-x,y,-z
-x,-y,-z
x,y,-z
-x,y,z
x,-y,z
1/2+x,1/2+y,1/2+z
1/2-x,1/2-y,1/2+z
1/2+x,1/2-y,1/2-z
1/2-x,1/2+y,1/2-z
1/2-x,1/2-y,1/2-z
1/2+x,1/2+y,1/2-z
1/2-x,1/2+y,1/2+z
1/2+x,1/2-y,1/2+z
loop_
_atom_site_type_symbol
_atom_site_label
_atom_site_fract_x
_atom_site_fract_y
_atom_site_fract_z
Si Si1 0.290905 0.930976 0.619776
Si Si2 0.800468 0.843021 0.703704
Si Si3 0.701830 0.259474 0.363410
Si Si4 0.691230 0.891760 0.878903
Si Si5 0.291140 0.565604 0.278644
Si Si6 0.290388 0.172088 0.552646
Si Si7 0.000000 0.927563 0.054339
O O1 0.500000 0.928919 0.624250
O O2 0.215263 0.893544 0.663033
O O3 0.244879 0.893387 0.573186
O O4 0.236370 0.000000 0.619070
O O5 0.719130 0.782953 0.682188
O O6 0.726355 0.877353 0.748906
O O7 0.000000 0.829036 0.712508
O O8 0.500000 0.272818 0.369633
O O9 0.797214 0.322347 0.362873
O O10 0.763987 0.220233 0.408095
O O11 0.500000 0.906286 0.895533
O O12 0.735739 0.928983 0.832273
O O13 0.833029 0.903771 0.918312
O O14 0.500000 0.567528 0.276748
O O15 0.236727 0.500000 0.259521
O O16 0.227763 0.182661 0.500000
O O17 0.500000 0.174823 0.551774
O O18 0.000000 0.000000 0.056587
O O19 0.000000 0.908830 0.000000
#
# Coordination Sequence:
#
# PCOD9521722 Si02
#       7
#    16  16  16  16  16  16   8
#     4   9  17  29  46  71 108 152 199 255 315 375
#     4  10  20  34  56  86 120 164 213 262 316 379
#     4  10  20  38  59  86 125 168 208 264 326 383
#     4  12  25  43  70 102 132 171 215 264 322 387
#     4  10  21  39  62  89 126 170 214 265 327 388
#     4   8  15  28  49  76 104 144 198 253 311 374
#     4  11  26  50  76 102 138 176 211 265 328 388
#
# _framework density 21.158702000000002
#
# number of rings (size 3 to 8) (size 9 to 14) (size 15 to 20)
#    0.000    2.077    1.538    2.769    0.000    5.231 
#    0.000    2.308    0.000   11.077    0.000    4.308 
#    0.000    0.000    0.000    0.000    0.000    0.000 
#
# Total GULP energy -290490.818227 kJ/mol
# GULP energy per Si atom -5586.361889 kJ/mol
# Density = 2.111054 g / cm^3
# Si number density = 21.158702 Si / 1000 Ang^3
#
#
#
# Elastic Constant Matrix: (Units=GPa)
#
#
# Indices 1 2 3 4 5 6 
#
# 1 64.6673 4.7652 26.2360 0.0000 0.0000 0.0000
# 2 4.7652 83.7208 19.2548 0.0000 0.0000 0.0000
# 3 26.2360 19.2548 107.6950 0.0000 0.0000 0.0000
# 4 0.0000 0.0000 0.0000 20.3535 0.0000 0.0000
# 5 0.0000 0.0000 0.0000 0.0000 10.0771 0.0000
# 6 0.0000 0.0000 0.0000 0.0000 0.0000 14.8028
#
#
#
# Elastic Compliance Matrix: (Units=1/GPa)
#
#
# Indices 1 2 3 4 5 6 
#
# 1 0.017160 -0.000016 -0.004178 0.000000 0.000000 0.000000
# 2 -0.000016 0.012457 -0.002223 0.000000 0.000000 0.000000
# 3 -0.004178 -0.002223 0.010701 0.000000 0.000000 0.000000
# 4 0.000000 0.000000 0.000000 0.049132 0.000000 0.000000
# 5 0.000000 0.000000 0.000000 0.000000 0.099235 0.000000
# 6 0.000000 0.000000 0.000000 0.000000 0.000000 0.067555
#
#
# Mechanical properties :
#
#
# Convention : Reuss Voigt Hill
#
# Bulk Modulus (GPa) = 36.38511 39.62169 38.00340
# Shear Modulus (GPa) = 17.97054 22.76849 20.36951
#
# Velocity S-wave (km/s) = 2.91747 3.28393 3.10611
# Velocity P-wave (km/s) = 5.34626 5.75721 5.55554
#
# Compressibility (1/GPa) = 0.02748377
#
# Stress axis : x y z
#
# Youngs Moduli (GPa) = 58.27575 80.27813 93.45199
#
# Poissons Ratio (x) = 0.00128 0.39040
# Poissons Ratio (y) = 0.00093 0.20777
# Poissons Ratio (z) = 0.24345 0.17848
#
# Static dielectric constant tensor:
#      x y z
#    x 1.765650 0.000000 0.000000 
#    y 0.000000 1.760350 0.000000 
#    z 0.000000 0.000000 1.745800 
# 
# From -- ./inp_files/63548.got.cif
#   From: 2010.05.17/outbox.cif.g08.bks.cpg/sg71_32_cif.got.tgz:63548.got - 2010.06.03 16:22:01.
