data_PCOD9521522
_publ_section_title
;
Structure prediction by ZEFSAII (Michael W. Deem and Ramdas Pophale) SiO2 
 PCOD9521522
Probable space group: I M M M
;
_chemical_formula_sum "Si O2"
_cell_formula_units_Z 88
_cell_length_a 10.428384
_cell_length_b 20.280357
_cell_length_c 19.979109
_cell_angle_alpha 90.000000
_cell_angle_beta 90.000000
_cell_angle_gamma 90.000000
_cell_volume 4225.408743
_symmetry_space_group_name_H-M "I M M M"
_symmetry_group_IT_number 71
_symmetry_cell_setting 'orthorhombic'
loop_
_space_group_symop_operation_xyz
x,y,z
-x,-y,z
x,-y,-z
-x,y,-z
-x,-y,-z
x,y,-z
-x,y,z
x,-y,z
1/2+x,1/2+y,1/2+z
1/2-x,1/2-y,1/2+z
1/2+x,1/2-y,1/2-z
1/2-x,1/2+y,1/2-z
1/2-x,1/2-y,1/2-z
1/2+x,1/2+y,1/2-z
1/2-x,1/2+y,1/2+z
1/2+x,1/2-y,1/2+z
loop_
_atom_site_type_symbol
_atom_site_label
_atom_site_fract_x
_atom_site_fract_y
_atom_site_fract_z
Si Si1 0.649264 0.500000 0.418264
Si Si2 0.135838 0.173213 0.240995
Si Si3 0.774574 0.745959 0.634658
Si Si4 0.648916 0.075524 0.282460
Si Si5 0.152016 0.629825 0.926884
Si Si6 0.858271 0.607303 0.580524
O O1 0.500000 0.500000 0.395466
O O2 0.643842 0.500000 0.500000
O O3 0.737106 0.437298 0.397862
O O4 0.144050 0.219727 0.306375
O O5 0.152893 0.218043 0.175833
O O6 0.256550 0.125057 0.245788
O O7 0.000000 0.137698 0.240394
O O8 0.730020 0.802926 0.584795
O O9 0.839262 0.683128 0.601057
O O10 0.500000 0.093047 0.271367
O O11 0.675342 0.084707 0.362031
O O12 0.668662 0.000000 0.263280
O O13 0.000000 0.644523 0.925953
O O14 0.182390 0.601153 0.000000
O O15 0.859844 0.602840 0.500000
O O16 0.000000 0.584501 0.604361
#
# Coordination Sequence:
#
# PCOD9521522 Si02
#       6
#     8  16  16  16  16  16
#     4   9  19  35  53  75 105 139 173 213 260 309
#     4  10  21  36  56  80 107 143 185 227 270 321
#     4  10  20  34  54  79 110 142 177 224 275 322
#     4   9  19  36  56  79 110 146 183 227 275 323
#     4   9  17  30  52  83 114 142 176 220 274 335
#     4  10  20  35  56  80 107 141 179 218 265 324
#
# _framework density 20.826388000000001
#
# number of rings (size 3 to 8) (size 9 to 14) (size 15 to 20)
#    0.000    2.455    0.000    1.909    0.000    8.364 
#    1.636    3.636    0.000    4.909    0.000    5.091 
#    0.000    0.000    0.000    0.000    0.000    0.000 
#
# Total GULP energy -245590.346904 kJ/mol
# GULP energy per Si atom -5581.598793 kJ/mol
# Density = 2.077899 g / cm^3
# Si number density = 20.826388 Si / 1000 Ang^3
#
#
#
# Elastic Constant Matrix: (Units=GPa)
#
#
# Indices 1 2 3 4 5 6 
#
# 1 120.3464 50.2838 0.3630 0.0000 0.0000 0.0000
# 2 50.2838 79.6033 -5.9946 0.0000 0.0000 0.0000
# 3 0.3630 -5.9946 63.8078 0.0000 0.0000 0.0000
# 4 0.0000 0.0000 0.0000 20.3723 0.0000 0.0000
# 5 0.0000 0.0000 0.0000 0.0000 -16.9297 0.0000
# 6 0.0000 0.0000 0.0000 0.0000 0.0000 1.1777
#
#
#
# Elastic Compliance Matrix: (Units=1/GPa)
#
#
# Indices 1 2 3 4 5 6 
#
# 1 0.011324 -0.007209 -0.000742 0.000000 0.000000 0.000000
# 2 -0.007209 0.017241 0.001661 0.000000 0.000000 0.000000
# 3 -0.000742 0.001661 0.015832 0.000000 0.000000 0.000000
# 4 0.000000 0.000000 0.000000 0.049086 0.000000 0.000000
# 5 0.000000 0.000000 0.000000 0.000000 -0.059068 0.000000
# 6 0.000000 0.000000 0.000000 0.000000 0.000000 0.849109
#
#
# Mechanical properties :
#
#
# Convention : Reuss Voigt Hill
#
# Bulk Modulus (GPa) = 31.42915 39.22910 35.32913
# Shear Modulus (GPa) = 5.51445 15.53108 10.52277
#
# Velocity S-wave (km/s) = 1.62898 2.73379 2.25024
# Velocity P-wave (km/s) = 4.31994 5.37047 4.87359
#
# Compressibility (1/GPa) = 0.03181760
#
# Stress axis : x y z
#
# Youngs Moduli (GPa) = 88.31132 58.00137 63.16202
#
# Poissons Ratio (x) = 0.41812 0.04684
# Poissons Ratio (y) = 0.63661 -0.10490
# Poissons Ratio (z) = 0.06550 -0.09633
#
# Static dielectric constant tensor:
#      x y z
#    x 1.733590 0.000000 0.000000 
#    y 0.000000 1.720390 0.000000 
#    z 0.000000 0.000000 1.762070 
# 
# From -- ./inp_files/55551.got.cif
#   From: 2010.05.17/outbox.cif.g08.bks.cpg/sg71_28_cif.got.tgz:55551.got - 2010.06.03 16:22:01.
