data_PCOD9521674
_publ_section_title
;
Structure prediction by ZEFSAII (Michael W. Deem and Ramdas Pophale) SiO2 
 PCOD9521674
Probable space group: I M M M
;
_chemical_formula_sum "Si O2"
_cell_formula_units_Z 112
_cell_length_a 27.432530
_cell_length_b 13.677995
_cell_length_c 14.980631
_cell_angle_alpha 90.000000
_cell_angle_beta 90.000000
_cell_angle_gamma 90.000000
_cell_volume 5621.062448
_symmetry_space_group_name_H-M "I M M M"
_symmetry_group_IT_number 71
_symmetry_cell_setting 'orthorhombic'
loop_
_space_group_symop_operation_xyz
x,y,z
-x,-y,z
x,-y,-z
-x,y,-z
-x,-y,-z
x,y,-z
-x,y,z
x,-y,z
1/2+x,1/2+y,1/2+z
1/2-x,1/2-y,1/2+z
1/2+x,1/2-y,1/2-z
1/2-x,1/2+y,1/2-z
1/2-x,1/2-y,1/2-z
1/2+x,1/2+y,1/2-z
1/2-x,1/2+y,1/2+z
1/2+x,1/2-y,1/2+z
loop_
_atom_site_type_symbol
_atom_site_label
_atom_site_fract_x
_atom_site_fract_y
_atom_site_fract_z
Si Si1 0.658459 0.382659 0.904025
Si Si2 0.671101 0.114246 0.248817
Si Si3 0.944906 0.115896 0.144747
Si Si4 0.447189 0.317494 0.850810
Si Si5 0.351019 0.736195 0.399537
Si Si6 0.588955 0.888242 0.893503
Si Si7 0.715874 0.382420 0.273642
O O1 0.662579 0.500000 0.903999
O O2 0.601607 0.355844 0.897004
O O3 0.686690 0.349372 0.815505
O O4 0.677522 0.346079 0.000000
O O5 0.647603 0.176174 0.328369
O O6 0.639914 0.124976 0.158566
O O7 0.727389 0.142154 0.235680
O O8 0.670276 0.000000 0.272851
O O9 0.944101 0.144063 0.249555
O O10 0.901997 0.178138 0.101867
O O11 0.000000 0.135885 0.112209
O O12 0.935776 0.000000 0.135192
O O13 0.500000 0.349117 0.886941
O O14 0.444002 0.199876 0.857635
O O15 0.339683 0.767660 0.500000
O O16 0.309915 0.665035 0.358642
O O17 0.571971 0.000000 0.876092
O O18 0.594065 0.877626 0.000000
O O19 0.711702 0.500000 0.279650
#
# Coordination Sequence:
#
# PCOD9521674 Si02
#       7
#    16  16  16  16  16  16  16
#     4  10  20  34  55  84 118 155 194 236 287 353
#     4  10  22  42  64  86 120 162 204 251 300 351
#     4  10  21  39  63  89 119 156 197 243 299 362
#     4  11  21  35  58  84 115 156 195 237 289 351
#     4  12  24  38  61  92 123 158 203 250 300 356
#     4  10  21  38  61  88 118 154 198 245 294 349
#     4  10  21  39  61  86 120 157 197 246 299 352
#
# _framework density 19.925059000000001
#
# number of rings (size 3 to 8) (size 9 to 14) (size 15 to 20)
#    0.000    1.571    2.857    1.714    0.000    5.143 
#    0.000    5.000    0.000    0.429    0.000    1.000 
#    0.000    0.000    0.000    0.000    0.000    0.000 
#
# Total GULP energy -312822.107663 kJ/mol
# GULP energy per Si atom -5586.109065 kJ/mol
# Density = 1.987971 g / cm^3
# Si number density = 19.925059 Si / 1000 Ang^3
#
#
#
# Elastic Constant Matrix: (Units=GPa)
#
#
# Indices 1 2 3 4 5 6 
#
# 1 99.0899 23.1554 19.9221 0.0000 0.0000 0.0000
# 2 23.1554 61.6347 3.1223 0.0000 0.0000 0.0000
# 3 19.9221 3.1223 55.9245 0.0000 0.0000 0.0000
# 4 0.0000 0.0000 0.0000 15.1121 0.0000 0.0000
# 5 0.0000 0.0000 0.0000 0.0000 -12.7805 0.0000
# 6 0.0000 0.0000 0.0000 0.0000 0.0000 29.9645
#
#
#
# Elastic Compliance Matrix: (Units=1/GPa)
#
#
# Indices 1 2 3 4 5 6 
#
# 1 0.011892 -0.004265 -0.003998 0.000000 0.000000 0.000000
# 2 -0.004265 0.017800 0.000526 0.000000 0.000000 0.000000
# 3 -0.003998 0.000526 0.019276 0.000000 0.000000 0.000000
# 4 0.000000 0.000000 0.000000 0.066172 0.000000 0.000000
# 5 0.000000 0.000000 0.000000 0.000000 -0.078244 0.000000
# 6 0.000000 0.000000 0.000000 0.000000 0.000000 0.033373
#
#
# Mechanical properties :
#
#
# Convention : Reuss Voigt Hill
#
# Bulk Modulus (GPa) = 29.85692 34.33876 32.09784
# Shear Modulus (GPa) = 51.59418 17.82251 34.70834
#
# Velocity S-wave (km/s) = 5.09415 2.99403 4.17819
# Velocity P-wave (km/s) = 7.04397 5.40589 6.27858
#
# Compressibility (1/GPa) = 0.03349307
#
# Stress axis : x y z
#
# Youngs Moduli (GPa) = 84.08717 56.17849 51.87735
#
# Poissons Ratio (x) = 0.23962 0.20742
# Poissons Ratio (y) = 0.35866 -0.02727
# Poissons Ratio (z) = 0.33621 -0.02953
#
# Static dielectric constant tensor:
#      x y z
#    x 1.695280 0.000000 0.000000 
#    y 0.000000 1.730510 0.000000 
#    z 0.000000 0.000000 1.694660 
# 
# From -- ./inp_files/40338.got.cif
#   From: 2010.05.17/outbox.cif.g08.bks.cpg/sg71_21_cif.got.tgz:40338.got - 2010.06.03 16:22:01.
