data_PCOD9521105
_publ_section_title
;
Structure prediction by ZEFSAII (Michael W. Deem and Ramdas Pophale) SiO2 
 PCOD9521105
Probable space group: I M M M
;
_chemical_formula_sum "Si O2"
_cell_formula_units_Z 104
_cell_length_a 8.429713
_cell_length_b 24.066934
_cell_length_c 27.850023
_cell_angle_alpha 90.000000
_cell_angle_beta 90.000000
_cell_angle_gamma 90.000000
_cell_volume 5650.138764
_symmetry_space_group_name_H-M "I M M M"
_symmetry_group_IT_number 71
_symmetry_cell_setting 'orthorhombic'
loop_
_space_group_symop_operation_xyz
x,y,z
-x,-y,z
x,-y,-z
-x,y,-z
-x,-y,-z
x,y,-z
-x,y,z
x,-y,z
1/2+x,1/2+y,1/2+z
1/2-x,1/2-y,1/2+z
1/2+x,1/2-y,1/2-z
1/2-x,1/2+y,1/2-z
1/2-x,1/2-y,1/2-z
1/2+x,1/2+y,1/2-z
1/2-x,1/2+y,1/2+z
1/2+x,1/2-y,1/2+z
loop_
_atom_site_type_symbol
_atom_site_label
_atom_site_fract_x
_atom_site_fract_y
_atom_site_fract_z
Si Si1 0.190653 0.116803 0.144726
Si Si2 0.312920 0.284889 0.879186
Si Si3 0.692889 0.000000 0.708279
Si Si4 0.690104 0.000000 0.819234
Si Si5 0.682446 0.715453 0.293786
Si Si6 0.307805 0.091283 0.369334
Si Si7 0.690151 0.186643 0.054147
Si Si8 0.307468 0.000000 0.553859
O O1 0.252789 0.156763 0.188152
O O2 0.243029 0.145113 0.094664
O O3 0.000000 0.117292 0.145913
O O4 0.251550 0.055188 0.153969
O O5 0.500000 0.277085 0.868017
O O6 0.206675 0.254525 0.839635
O O7 0.270820 0.349250 0.876298
O O8 0.280779 0.249962 0.927725
O O9 0.739520 0.054896 0.677619
O O10 0.500000 0.000000 0.708174
O O11 0.747050 0.000000 0.763405
O O12 0.500000 0.000000 0.818321
O O13 0.500000 0.705394 0.282752
O O14 0.750000 0.750000 0.250000
O O15 0.500000 0.097404 0.367788
O O16 0.263892 0.053415 0.414916
O O17 0.500000 0.179206 0.053780
O O18 0.750105 0.177697 0.000000
O O19 0.500000 0.000000 0.551997
O O20 0.245506 0.000000 0.500000
#
# Coordination Sequence:
#
# PCOD9521105 Si02
#       8
#    16  16   8   8  16  16  16   8
#     4  10  22  39  57  84 116 143 179 231 280 322
#     4  10  20  33  51  79 111 141 178 221 269 323
#     4   8  18  34  51  73 100 143 190 230 273 319
#     4  11  22  37  59  82 108 148 191 226 273 335
#     4  10  21  36  55  79 110 146 181 219 268 320
#     4   9  17  32  51  73 104 140 186 233 271 321
#     4   9  19  38  61  82 109 146 183 221 271 333
#     4   8  15  29  49  71  99 138 182 230 280 325
#
# _framework density 18.406625999999999
#
# number of rings (size 3 to 8) (size 9 to 14) (size 15 to 20)
#    0.000    2.538    0.000    2.538    2.154    3.385 
#    0.000    2.692    0.000    2.769    0.000    0.000 
#    0.000    0.000    0.000    0.000    0.000    0.000 
#
# Total GULP energy -289814.119146 kJ/mol
# GULP energy per Si atom -5573.348445 kJ/mol
# Density = 1.836473 g / cm^3
# Si number density = 18.406626 Si / 1000 Ang^3
#
#
#
# Elastic Constant Matrix: (Units=GPa)
#
#
# Indices 1 2 3 4 5 6 
#
# 1 21.9411 15.1110 19.3369 0.0000 0.0000 0.0000
# 2 15.1110 154.2269 55.4730 0.0000 0.0000 0.0000
# 3 19.3369 55.4730 114.3467 0.0000 0.0000 0.0000
# 4 0.0000 0.0000 0.0000 11.4612 0.0000 0.0000
# 5 0.0000 0.0000 0.0000 0.0000 17.5020 0.0000
# 6 0.0000 0.0000 0.0000 0.0000 0.0000 29.7353
#
#
#
# Elastic Compliance Matrix: (Units=1/GPa)
#
#
# Indices 1 2 3 4 5 6 
#
# 1 0.054309 -0.002444 -0.007998 0.000000 0.000000 0.000000
# 2 -0.002444 0.007965 -0.003450 0.000000 0.000000 0.000000
# 3 -0.007998 -0.003450 0.011772 0.000000 0.000000 0.000000
# 4 0.000000 0.000000 0.000000 0.087251 0.000000 0.000000
# 5 0.000000 0.000000 0.000000 0.000000 0.057136 0.000000
# 6 0.000000 0.000000 0.000000 0.000000 0.000000 0.033630
#
#
# Mechanical properties :
#
#
# Convention : Reuss Voigt Hill
#
# Bulk Modulus (GPa) = 21.61735 52.26182 36.93959
# Shear Modulus (GPa) = 16.93376 25.11262 21.02319
#
# Velocity S-wave (km/s) = 3.03641 3.69768 3.38324
# Velocity P-wave (km/s) = 4.90539 6.83265 5.94760
#
# Compressibility (1/GPa) = 0.04625915
#
# Stress axis : x y z
#
# Youngs Moduli (GPa) = 18.41324 125.55675 84.94865
#
# Poissons Ratio (x) = 0.30690 0.67944
# Poissons Ratio (y) = 0.04501 0.29311
# Poissons Ratio (z) = 0.14727 0.43323
#
# Static dielectric constant tensor:
#      x y z
#    x 1.628490 0.000000 0.000000 
#    y 0.000000 1.610510 0.000000 
#    z 0.000000 0.000000 1.644860 
# 
# From -- ./inp_files/63366.got.cif
#   From: 2010.05.17/outbox.cif.g08.bks.cpg/sg71_32_cif.got.tgz:63366.got - 2010.06.03 16:22:01.
