data_PCOD9521532
_publ_section_title
;
Structure prediction by ZEFSAII (Michael W. Deem and Ramdas Pophale) SiO2 
 PCOD9521532
Probable space group: I M M M
;
_chemical_formula_sum "Si O2"
_cell_formula_units_Z 88
_cell_length_a 28.253216
_cell_length_b 20.102717
_cell_length_c 8.726391
_cell_angle_alpha 90.000000
_cell_angle_beta 90.000000
_cell_angle_gamma 90.000000
_cell_volume 4956.296930
_symmetry_space_group_name_H-M "I M M M"
_symmetry_group_IT_number 71
_symmetry_cell_setting 'orthorhombic'
loop_
_space_group_symop_operation_xyz
x,y,z
-x,-y,z
x,-y,-z
-x,y,-z
-x,-y,-z
x,y,-z
-x,y,z
x,-y,z
1/2+x,1/2+y,1/2+z
1/2-x,1/2-y,1/2+z
1/2+x,1/2-y,1/2-z
1/2-x,1/2+y,1/2-z
1/2-x,1/2-y,1/2-z
1/2+x,1/2+y,1/2-z
1/2-x,1/2+y,1/2+z
1/2+x,1/2-y,1/2+z
loop_
_atom_site_type_symbol
_atom_site_label
_atom_site_fract_x
_atom_site_fract_y
_atom_site_fract_z
Si Si1 0.586500 0.830158 0.183520
Si Si2 0.054863 0.188448 0.815700
Si Si3 0.370982 0.575592 0.684994
Si Si4 0.814916 0.693643 0.816815
Si Si5 0.209006 0.162426 0.683305
Si Si6 0.500000 0.923585 0.813109
O O1 0.570308 0.757205 0.238618
O O2 0.638822 0.841205 0.249713
O O3 0.546842 0.883104 0.234842
O O4 0.588542 0.831117 0.000000
O O5 0.088469 0.127766 0.767360
O O6 0.000000 0.174877 0.781319
O O7 0.059566 0.196273 0.000000
O O8 0.368810 0.577082 0.500000
O O9 0.380677 0.500000 0.732836
O O10 0.321800 0.602676 0.751048
O O11 0.811341 0.768742 0.752096
O O12 0.764677 0.660038 0.776735
O O13 0.818766 0.697345 0.000000
O O14 0.204936 0.165234 0.500000
O O15 0.500000 0.000000 0.761820
O O16 0.500000 0.923697 0.000000
#
# Coordination Sequence:
#
# PCOD9521532 Si02
#       6
#    16  16  16  16  16   8
#     4  11  20  33  57  85 110 142 184 228 272 326
#     4  10  20  34  54  80 111 147 185 230 277 324
#     4  10  21  36  54  78 112 154 192 228 274 328
#     4  10  20  34  54  81 111 140 177 228 278 329
#     4  10  20  34  54  80 109 143 183 228 277 326
#     4   9  20  38  57  81 114 147 178 220 276 332
#
# _framework density 17.755189999999999
#
# number of rings (size 3 to 8) (size 9 to 14) (size 15 to 20)
#    0.000    1.909    2.727    1.636    0.000    2.909 
#    0.000    2.727    0.000    7.636    0.000    2.545 
#    0.000    0.000    0.000    0.000    0.000    0.000 
#
# Total GULP energy -245623.707943 kJ/mol
# GULP energy per Si atom -5582.356999 kJ/mol
# Density = 1.771478 g / cm^3
# Si number density = 17.755190 Si / 1000 Ang^3
#
#
#
# Elastic Constant Matrix: (Units=GPa)
#
#
# Indices 1 2 3 4 5 6 
#
# 1 154.9470 77.6945 35.7920 0.0000 0.0000 0.0000
# 2 77.6945 126.0636 28.0397 0.0000 0.0000 0.0000
# 3 35.7920 28.0397 22.5651 0.0000 0.0000 0.0000
# 4 0.0000 0.0000 0.0000 21.6736 0.0000 0.0000
# 5 0.0000 0.0000 0.0000 0.0000 28.5938 0.0000
# 6 0.0000 0.0000 0.0000 0.0000 0.0000 27.6746
#
#
#
# Elastic Compliance Matrix: (Units=1/GPa)
#
#
# Indices 1 2 3 4 5 6 
#
# 1 0.011617 -0.004231 -0.013170 0.000000 0.000000 0.000000
# 2 -0.004231 0.012503 -0.008826 0.000000 0.000000 0.000000
# 3 -0.013170 -0.008826 0.076174 0.000000 0.000000 0.000000
# 4 0.000000 0.000000 0.000000 0.046139 0.000000 0.000000
# 5 0.000000 0.000000 0.000000 0.000000 0.034973 0.000000
# 6 0.000000 0.000000 0.000000 0.000000 0.000000 0.036134
#
#
# Mechanical properties :
#
#
# Convention : Reuss Voigt Hill
#
# Bulk Modulus (GPa) = 20.90272 65.18089 43.04181
# Shear Modulus (GPa) = 17.48617 26.39172 21.93894
#
# Velocity S-wave (km/s) = 3.14163 3.85960 3.51897
# Velocity P-wave (km/s) = 4.99581 7.52679 6.38791
#
# Compressibility (1/GPa) = 0.04784067
#
# Stress axis : x y z
#
# Youngs Moduli (GPa) = 86.07792 79.98109 13.12787
#
# Poissons Ratio (x) = 0.33836 0.17290
# Poissons Ratio (y) = 0.36416 0.11587
# Poissons Ratio (z) = 1.13366 0.70591
#
# Static dielectric constant tensor:
#      x y z
#    x 1.621250 0.000000 0.000000 
#    y 0.000000 1.578240 0.000000 
#    z 0.000000 0.000000 1.602260 
# 
# From -- ./inp_files/8796.got.cif
#   From: 2010.05.17/outbox.cif.g08.bks.cpg/sg71_5_cif.got.tgz:8796.got - 2010.06.03 16:22:01.
