data_PCOD9521361
_publ_section_title
;
Structure prediction by ZEFSAII (Michael W. Deem and Ramdas Pophale) SiO2 
 PCOD9521361
Probable space group: I M M M
;
_chemical_formula_sum "Si O2"
_cell_formula_units_Z 104
_cell_length_a 28.000329
_cell_length_b 24.024244
_cell_length_c 8.149752
_cell_angle_alpha 90.000000
_cell_angle_beta 90.000000
_cell_angle_gamma 90.000000
_cell_volume 5482.230072
_symmetry_space_group_name_H-M "I M M M"
_symmetry_group_IT_number 71
_symmetry_cell_setting 'orthorhombic'
loop_
_space_group_symop_operation_xyz
x,y,z
-x,-y,z
x,-y,-z
-x,y,-z
-x,-y,-z
x,y,-z
-x,y,z
x,-y,z
1/2+x,1/2+y,1/2+z
1/2-x,1/2-y,1/2+z
1/2+x,1/2-y,1/2-z
1/2-x,1/2+y,1/2-z
1/2-x,1/2-y,1/2-z
1/2+x,1/2+y,1/2-z
1/2-x,1/2+y,1/2+z
1/2+x,1/2-y,1/2+z
loop_
_atom_site_type_symbol
_atom_site_label
_atom_site_fract_x
_atom_site_fract_y
_atom_site_fract_z
Si Si1 0.380688 0.715998 0.808435
Si Si2 0.813729 0.500000 0.701856
Si Si3 0.296855 0.500000 0.299959
Si Si4 0.355149 0.116513 0.805586
Si Si5 0.794626 0.284668 0.814193
Si Si6 0.555693 0.500000 0.197084
Si Si7 0.446454 0.814001 0.800901
Si Si8 0.627677 0.408002 0.305698
O O1 0.339151 0.742999 0.701199
O O2 0.428373 0.750987 0.767966
O O3 0.380350 0.650587 0.780971
O O4 0.369892 0.728158 0.000000
O O5 0.813598 0.500000 0.500000
O O6 0.758069 0.500000 0.752272
O O7 0.840212 0.443908 0.758528
O O8 0.297931 0.500000 0.500000
O O9 0.326788 0.554886 0.248698
O O10 0.311992 0.160166 0.779348
O O11 0.404071 0.144950 0.740603
O O12 0.362105 0.110497 0.000000
O O13 0.750000 0.250000 0.750000
O O14 0.785392 0.301143 0.000000
O O15 0.500000 0.500000 0.234428
O O16 0.582395 0.446929 0.271312
O O17 0.561913 0.500000 0.000000
O O18 0.500000 0.824470 0.739105
O O19 0.447926 0.819393 0.000000
O O20 0.633040 0.398311 0.500000
#
# Coordination Sequence:
#
# PCOD9521361 Si02
#       8
#    16   8   8  16  16   8  16  16
#     4  10  20  34  53  79 108 140 180 222 268 327
#     4   9  17  31  53  79 108 140 178 221 268 323
#     4   8  17  31  47  70 100 140 176 210 269 328
#     4   9  18  33  54  80 107 141 182 223 268 323
#     4  11  22  36  54  77 108 143 178 221 271 322
#     4  10  21  37  55  73  99 142 189 236 285 326
#     4   8  15  30  51  75 106 141 176 218 268 317
#     4  10  20  34  52  76 106 140 179 226 279 334
#
# _framework density 18.970382000000001
#
# number of rings (size 3 to 8) (size 9 to 14) (size 15 to 20)
#    0.000    2.538    0.000    3.923    2.154    1.231 
#    0.000    2.308    0.000   14.308    0.000    0.000 
#    0.000    4.923    0.000    0.000    0.000    0.000 
#
# Total GULP energy -289909.713798 kJ/mol
# GULP energy per Si atom -5575.186804 kJ/mol
# Density = 1.892720 g / cm^3
# Si number density = 18.970382 Si / 1000 Ang^3
#
#
#
# Elastic Constant Matrix: (Units=GPa)
#
#
# Indices 1 2 3 4 5 6 
#
# 1 132.4006 67.6581 8.9664 0.0000 0.0000 0.0000
# 2 67.6581 153.7494 -1.3925 0.0000 0.0000 0.0000
# 3 8.9664 -1.3925 17.6867 0.0000 0.0000 0.0000
# 4 0.0000 0.0000 0.0000 21.0257 0.0000 0.0000
# 5 0.0000 0.0000 0.0000 0.0000 15.2718 0.0000
# 6 0.0000 0.0000 0.0000 0.0000 0.0000 8.5953
#
#
#
# Elastic Compliance Matrix: (Units=1/GPa)
#
#
# Indices 1 2 3 4 5 6 
#
# 1 0.010263 -0.004567 -0.005563 0.000000 0.000000 0.000000
# 2 -0.004567 0.008541 0.002988 0.000000 0.000000 0.000000
# 3 -0.005563 0.002988 0.059595 0.000000 0.000000 0.000000
# 4 0.000000 0.000000 0.000000 0.047561 0.000000 0.000000
# 5 0.000000 0.000000 0.000000 0.000000 0.065480 0.000000
# 6 0.000000 0.000000 0.000000 0.000000 0.000000 0.116343
#
#
# Mechanical properties :
#
#
# Convention : Reuss Voigt Hill
#
# Bulk Modulus (GPa) = 15.59686 50.47783 33.03735
# Shear Modulus (GPa) = 14.55867 24.21887 19.38877
#
# Velocity S-wave (km/s) = 2.77328 3.57692 3.20043
# Velocity P-wave (km/s) = 4.30050 6.61254 5.57764
#
# Compressibility (1/GPa) = 0.06411547
#
# Stress axis : x y z
#
# Youngs Moduli (GPa) = 97.43556 117.08558 16.77995
#
# Poissons Ratio (x) = 0.53470 0.09334
# Poissons Ratio (y) = 0.44496 -0.05013
# Poissons Ratio (z) = 0.54199 -0.34980
#
# Static dielectric constant tensor:
#      x y z
#    x 1.650240 0.000000 0.000000 
#    y 0.000000 1.635510 0.000000 
#    z 0.000000 0.000000 1.730830 
# 
# From -- ./inp_files/15354.got.cif
#   From: 2010.05.17/outbox.cif.g08.bks.cpg/sg71_8_cif.got.tgz:15354.got - 2010.06.03 16:22:01.
