data_PCOD9521840
_publ_section_title
;
Structure prediction by ZEFSAII (Michael W. Deem and Ramdas Pophale) SiO2 
 PCOD9521840
Probable space group: I M M M
;
_chemical_formula_sum "Si O2"
_cell_formula_units_Z 104
_cell_length_a 26.439298
_cell_length_b 7.977041
_cell_length_c 20.674066
_cell_angle_alpha 90.000000
_cell_angle_beta 90.000000
_cell_angle_gamma 90.000000
_cell_volume 4360.312766
_symmetry_space_group_name_H-M "I M M M"
_symmetry_group_IT_number 71
_symmetry_cell_setting 'orthorhombic'
loop_
_space_group_symop_operation_xyz
x,y,z
-x,-y,z
x,-y,-z
-x,y,-z
-x,-y,-z
x,y,-z
-x,y,z
x,-y,z
1/2+x,1/2+y,1/2+z
1/2-x,1/2-y,1/2+z
1/2+x,1/2-y,1/2-z
1/2-x,1/2+y,1/2-z
1/2-x,1/2-y,1/2-z
1/2+x,1/2+y,1/2-z
1/2-x,1/2+y,1/2+z
1/2+x,1/2-y,1/2+z
loop_
_atom_site_type_symbol
_atom_site_label
_atom_site_fract_x
_atom_site_fract_y
_atom_site_fract_z
Si Si1 0.787468 0.807057 0.123174
Si Si2 0.422052 0.804908 0.930795
Si Si3 0.107872 0.308493 0.922575
Si Si4 0.315522 0.695941 0.896633
Si Si5 0.055691 0.297165 0.714743
Si Si6 0.834481 0.200724 0.250895
Si Si7 0.000000 0.705662 0.075216
O O1 0.842504 0.795443 0.091548
O O2 0.742540 0.719540 0.084298
O O3 0.799650 0.729392 0.193825
O O4 0.772204 0.000000 0.128625
O O5 0.361063 0.792153 0.929877
O O6 0.438769 0.736704 0.860581
O O7 0.437071 0.000000 0.930569
O O8 0.439208 0.731350 0.000000
O O9 0.115592 0.500000 0.899072
O O10 0.054018 0.243181 0.896377
O O11 0.102158 0.317510 0.000000
O O12 0.328602 0.500000 0.900574
O O13 0.317083 0.754101 0.821802
O O14 0.056931 0.500000 0.713904
O O15 0.105896 0.242378 0.752668
O O16 0.000000 0.245823 0.738679
O O17 0.830209 0.000000 0.247281
O O18 0.000000 0.500000 0.076025
O O19 0.000000 0.759597 0.000000
#
# Coordination Sequence:
#
# PCOD9521840 Si02
#       7
#    16  16  16  16  16  16   8
#     4  11  22  35  52  77 105 133 169 212 261 313
#     4   9  18  33  53  78 109 143 176 213 261 312
#     4   9  18  34  55  77 101 131 167 206 249 298
#     4  10  20  35  55  75  99 134 175 217 259 304
#     4   9  18  33  54  80 108 139 177 219 260 305
#     4   9  20  37  54  74 101 136 174 213 260 311
#     4   7  12  28  53  73  91 121 159 197 236 279
#
# _framework density 23.851499
#
# number of rings (size 3 to 8) (size 9 to 14) (size 15 to 20)
#    0.000    2.692    0.000    2.308    0.000    3.692 
#    1.385    1.923    0.000    1.385    0.000    4.308 
#    0.000    0.000    0.000    0.000    0.000    0.000 
#
# Total GULP energy -290206.493330 kJ/mol
# GULP energy per Si atom -5580.894103 kJ/mol
# Density = 2.379721 g / cm^3
# Si number density = 23.851499 Si / 1000 Ang^3
#
#
#
# Elastic Constant Matrix: (Units=GPa)
#
#
# Indices 1 2 3 4 5 6 
#
# 1 152.6007 5.0247 4.7238 0.0000 0.0000 0.0000
# 2 5.0247 32.6202 -0.5842 0.0000 0.0000 0.0000
# 3 4.7238 -0.5842 45.3287 0.0000 0.0000 0.0000
# 4 0.0000 0.0000 0.0000 9.2062 0.0000 0.0000
# 5 0.0000 0.0000 0.0000 0.0000 -66.9124 0.0000
# 6 0.0000 0.0000 0.0000 0.0000 0.0000 20.9779
#
#
#
# Elastic Compliance Matrix: (Units=1/GPa)
#
#
# Indices 1 2 3 4 5 6 
#
# 1 0.006609 -0.001031 -0.000702 0.000000 0.000000 0.000000
# 2 -0.001031 0.030824 0.000505 0.000000 0.000000 0.000000
# 3 -0.000702 0.000505 0.022141 0.000000 0.000000 0.000000
# 4 0.000000 0.000000 0.000000 0.108622 0.000000 0.000000
# 5 0.000000 0.000000 0.000000 0.000000 -0.014945 0.000000
# 6 0.000000 0.000000 0.000000 0.000000 0.000000 0.047669
#
#
# Mechanical properties :
#
#
# Convention : Reuss Voigt Hill
#
# Bulk Modulus (GPa) = 17.50786 27.65315 22.58050
# Shear Modulus (GPa) = 22.48059 7.41336 14.94698
#
# Velocity S-wave (km/s) = 3.07338 1.76490 2.50605
# Velocity P-wave (km/s) = 4.46660 3.97143 4.22627
#
# Compressibility (1/GPa) = 0.05711721
#
# Stress axis : x y z
#
# Youngs Moduli (GPa) = 151.31536 32.44269 45.16561
#
# Poissons Ratio (x) = 0.03343 0.03171
# Poissons Ratio (y) = 0.15594 -0.02279
# Poissons Ratio (z) = 0.10622 -0.01637
#
# Static dielectric constant tensor:
#      x y z
#    x 1.939620 0.000000 0.000000 
#    y 0.000000 1.870980 0.000000 
#    z 0.000000 0.000000 1.981770 
# 
# From -- ./inp_files/13285.got.cif
#   From: 2010.05.17/outbox.cif.g08.bks.cpg/sg71_7_cif.got.tgz:13285.got - 2010.06.03 16:22:01.
