data_PCOD9521930
_publ_section_title
;
Structure prediction by ZEFSAII (Michael W. Deem and Ramdas Pophale) SiO2 
 PCOD9521930
Probable space group: I M M M
;
_chemical_formula_sum "Si O2"
_cell_formula_units_Z 72
_cell_length_a 7.679954
_cell_length_b 17.402666
_cell_length_c 24.231338
_cell_angle_alpha 90.000000
_cell_angle_beta 90.000000
_cell_angle_gamma 90.000000
_cell_volume 3238.558896
_symmetry_space_group_name_H-M "I M M M"
_symmetry_group_IT_number 71
_symmetry_cell_setting 'orthorhombic'
loop_
_space_group_symop_operation_xyz
x,y,z
-x,-y,z
x,-y,-z
-x,y,-z
-x,-y,-z
x,y,-z
-x,y,z
x,-y,z
1/2+x,1/2+y,1/2+z
1/2-x,1/2-y,1/2+z
1/2+x,1/2-y,1/2-z
1/2-x,1/2+y,1/2-z
1/2-x,1/2-y,1/2-z
1/2+x,1/2+y,1/2-z
1/2-x,1/2+y,1/2+z
1/2+x,1/2-y,1/2+z
loop_
_atom_site_type_symbol
_atom_site_label
_atom_site_fract_x
_atom_site_fract_y
_atom_site_fract_z
Si Si1 0.000000 0.607289 0.647110
Si Si2 0.707480 0.913045 0.344720
Si Si3 0.306760 0.385059 0.434970
Si Si4 0.205099 0.211418 0.436943
Si Si5 0.698439 0.336355 0.732336
O O1 0.847333 0.585920 0.602424
O O2 0.845345 0.632945 0.691244
O O3 0.500000 0.911643 0.335584
O O4 0.749165 0.853267 0.393127
O O5 0.794861 0.886385 0.288150
O O6 0.759039 0.000000 0.359389
O O7 0.277211 0.399233 0.500000
O O8 0.500000 0.411920 0.420668
O O9 0.300464 0.291779 0.427935
O O10 0.236177 0.185808 0.500000
O O11 0.000000 0.230342 0.430691
O O12 0.500000 0.336521 0.710304
O O13 0.750000 0.250000 0.750000
#
# Coordination Sequence:
#
# PCOD9521930 Si02
#       5
#     8  16  16  16  16
#     4  12  21  36  55  84 118 157 204 248 302 363
#     4  11  24  42  60  82 118 161 209 265 315 361
#     4  10  20  35  58  88 124 162 198 246 309 371
#     4  10  20  35  56  81 113 156 205 260 310 359
#     4  12  24  40  60  85 118 160 204 259 318 370
#
# _framework density 22.232111
#
# number of rings (size 3 to 8) (size 9 to 14) (size 15 to 20)
#    0.000    1.111    3.333    3.667    0.000    3.556 
#    0.000    2.222    0.000    0.000    0.000    0.000 
#    0.000    7.111    0.000   18.667    0.000    1.333 
#
# Total GULP energy -200476.597515 kJ/mol
# GULP energy per Si atom -5568.794375 kJ/mol
# Density = 2.218151 g / cm^3
# Si number density = 22.232111 Si / 1000 Ang^3
#
#
#
# Elastic Constant Matrix: (Units=GPa)
#
#
# Indices 1 2 3 4 5 6 
#
# 1 201.5912 41.4637 96.7496 0.0000 0.0000 0.0000
# 2 41.4637 100.9236 48.9885 0.0000 0.0000 0.0000
# 3 96.7496 48.9885 117.0393 0.0000 0.0000 0.0000
# 4 0.0000 0.0000 0.0000 1.4764 0.0000 0.0000
# 5 0.0000 0.0000 0.0000 0.0000 56.9279 0.0000
# 6 0.0000 0.0000 0.0000 0.0000 0.0000 -7.8391
#
#
#
# Elastic Compliance Matrix: (Units=1/GPa)
#
#
# Indices 1 2 3 4 5 6 
#
# 1 0.008224 -0.000099 -0.006756 0.000000 0.000000 0.000000
# 2 -0.000099 0.012436 -0.005124 0.000000 0.000000 0.000000
# 3 -0.006756 -0.005124 0.016274 0.000000 0.000000 0.000000
# 4 0.000000 0.000000 0.000000 0.677312 0.000000 0.000000
# 5 0.000000 0.000000 0.000000 0.000000 0.017566 0.000000
# 6 0.000000 0.000000 0.000000 0.000000 0.000000 -0.127565
#
#
# Mechanical properties :
#
#
# Convention : Reuss Voigt Hill
#
# Bulk Modulus (GPa) = 77.06792 88.21752 82.64272
# Shear Modulus (GPa) = 7.90477 25.60319 16.75398
#
# Velocity S-wave (km/s) = 1.88767 3.39725 2.74814
# Velocity P-wave (km/s) = 6.28422 7.42663 6.87918
#
# Compressibility (1/GPa) = 0.01297557
#
# Stress axis : x y z
#
# Youngs Moduli (GPa) = 121.60237 80.41107 61.44828
#
# Poissons Ratio (x) = 0.00796 0.41517
# Poissons Ratio (y) = 0.01203 0.31483
# Poissons Ratio (z) = 0.82160 0.41199
#
# Static dielectric constant tensor:
#      x y z
#    x 1.808280 0.000000 0.000000 
#    y 0.000000 1.843870 0.000000 
#    z 0.000000 0.000000 1.778990 
# 
# From -- ./inp_files/50217.got.cif
#   From: 2010.05.17/outbox.cif.g08.bks.cpg/sg71_26_cif.got.tgz:50217.got - 2010.06.03 16:22:01.
