data_PCOD9521309
_publ_section_title
;
Structure prediction by ZEFSAII (Michael W. Deem and Ramdas Pophale) SiO2 
 PCOD9521309
Probable space group: I M M M
;
_chemical_formula_sum "Si O2"
_cell_formula_units_Z 80
_cell_length_a 7.823449
_cell_length_b 27.740979
_cell_length_c 19.412328
_cell_angle_alpha 90.000000
_cell_angle_beta 90.000000
_cell_angle_gamma 90.000000
_cell_volume 4213.060155
_symmetry_space_group_name_H-M "I M M M"
_symmetry_group_IT_number 71
_symmetry_cell_setting 'orthorhombic'
loop_
_space_group_symop_operation_xyz
x,y,z
-x,-y,z
x,-y,-z
-x,y,-z
-x,-y,-z
x,y,-z
-x,y,z
x,-y,z
1/2+x,1/2+y,1/2+z
1/2-x,1/2-y,1/2+z
1/2+x,1/2-y,1/2-z
1/2-x,1/2+y,1/2-z
1/2-x,1/2-y,1/2-z
1/2+x,1/2+y,1/2-z
1/2-x,1/2+y,1/2+z
1/2+x,1/2-y,1/2+z
loop_
_atom_site_type_symbol
_atom_site_label
_atom_site_fract_x
_atom_site_fract_y
_atom_site_fract_z
Si Si1 0.705508 0.152538 0.576833
Si Si2 0.291499 0.556103 0.423895
Si Si3 0.707172 0.398463 0.716972
Si Si4 0.702613 0.699752 0.215477
Si Si5 0.704840 0.946926 0.643397
O O1 0.768112 0.163828 0.500000
O O2 0.500000 0.149302 0.574094
O O3 0.745659 0.190992 0.636291
O O4 0.770723 0.099854 0.601979
O O5 0.235835 0.572558 0.500000
O O6 0.500000 0.557424 0.423638
O O7 0.243363 0.500000 0.415927
O O8 0.231366 0.586020 0.358252
O O9 0.500000 0.397582 0.715201
O O10 0.771819 0.346258 0.741879
O O11 0.758578 0.435870 0.776534
O O12 0.500000 0.696158 0.217478
O O13 0.750000 0.750000 0.250000
O O14 0.500000 0.947764 0.633895
O O15 0.771184 0.000000 0.624114
#
# Coordination Sequence:
#
# PCOD9521309 Si02
#       5
#    16  16  16  16  16
#     4   9  18  33  52  73  98 128 161 197 238 285
#     4   8  13  22  39  64  91 116 143 179 222 265
#     4   9  17  29  46  67  90 119 157 197 234 278
#     4  10  20  34  52  72  94 122 158 200 246 292
#     4   9  17  28  44  69  99 129 159 191 231 280
#
# _framework density 18.988572999999999
#
# number of rings (size 3 to 8) (size 9 to 14) (size 15 to 20)
#    0.000    3.000    0.000    1.800    0.000    2.800 
#    0.000    3.000    0.000    4.200    0.000    8.400 
#    0.000    0.000    0.000    0.000    0.000    0.000 
#
# Total GULP energy -222934.223111 kJ/mol
# GULP energy per Si atom -5573.355578 kJ/mol
# Density = 1.894535 g / cm^3
# Si number density = 18.988573 Si / 1000 Ang^3
#
#
#
# Elastic Constant Matrix: (Units=GPa)
#
#
# Indices 1 2 3 4 5 6 
#
# 1 23.8156 6.1544 8.0137 0.0000 0.0000 0.0000
# 2 6.1544 103.2170 70.8727 0.0000 0.0000 0.0000
# 3 8.0137 70.8727 175.6251 -0.0001 0.0000 0.0000
# 4 0.0000 0.0000 -0.0001 13.2072 0.0000 0.0000
# 5 0.0000 0.0000 0.0000 0.0000 18.4812 0.0000
# 6 0.0000 0.0000 0.0000 0.0000 0.0000 12.4627
#
#
#
# Elastic Compliance Matrix: (Units=1/GPa)
#
#
# Indices 1 2 3 4 5 6 
#
# 1 0.042853 -0.001677 -0.001279 0.000000 0.000000 0.000000
# 2 -0.001677 0.013467 -0.005358 0.000000 0.000000 0.000000
# 3 -0.001279 -0.005358 0.007915 0.000000 0.000000 0.000000
# 4 0.000000 0.000000 0.000000 0.075716 0.000000 0.000000
# 5 0.000000 0.000000 0.000000 0.000000 0.054109 0.000000
# 6 0.000000 0.000000 0.000000 0.000000 0.000000 0.080239
#
#
# Mechanical properties :
#
#
# Convention : Reuss Voigt Hill
#
# Bulk Modulus (GPa) = 21.00529 52.52659 36.76594
# Shear Modulus (GPa) = 16.29743 23.33801 19.81772
#
# Velocity S-wave (km/s) = 2.93281 3.50959 3.23409
# Velocity P-wave (km/s) = 4.74917 6.64419 5.77494
#
# Compressibility (1/GPa) = 0.04760705
#
# Stress axis : x y z
#
# Youngs Moduli (GPa) = 23.33560 74.25293 126.34937
#
# Poissons Ratio (x) = 0.12454 0.16154
# Poissons Ratio (y) = 0.03914 0.67701
# Poissons Ratio (z) = 0.02984 0.39786
#
# Static dielectric constant tensor:
#      x y z
#    x 1.698240 0.000000 0.000000 
#    y 0.000000 1.725020 0.000000 
#    z 0.000000 0.000000 1.644470 
# 
# From -- ./inp_files/8336.got.cif
#   From: 2010.05.17/outbox.cif.g08.bks.cpg/sg71_5_cif.got.tgz:8336.got - 2010.06.03 16:22:01.
