data_PCOD9521126
_publ_section_title
;
Structure prediction by ZEFSAII (Michael W. Deem and Ramdas Pophale) SiO2 
 PCOD9521126
Probable space group: I M M M
;
_chemical_formula_sum "Si O2"
_cell_formula_units_Z 96
_cell_length_a 7.493126
_cell_length_b 20.578998
_cell_length_c 28.786886
_cell_angle_alpha 90.000000
_cell_angle_beta 90.000000
_cell_angle_gamma 90.000000
_cell_volume 4438.967327
_symmetry_space_group_name_H-M "I M M M"
_symmetry_group_IT_number 71
_symmetry_cell_setting 'orthorhombic'
loop_
_space_group_symop_operation_xyz
x,y,z
-x,-y,z
x,-y,-z
-x,y,-z
-x,-y,-z
x,y,-z
-x,y,z
x,-y,z
1/2+x,1/2+y,1/2+z
1/2-x,1/2-y,1/2+z
1/2+x,1/2-y,1/2-z
1/2-x,1/2+y,1/2-z
1/2-x,1/2-y,1/2-z
1/2+x,1/2+y,1/2-z
1/2-x,1/2+y,1/2+z
1/2+x,1/2-y,1/2+z
loop_
_atom_site_type_symbol
_atom_site_label
_atom_site_fract_x
_atom_site_fract_y
_atom_site_fract_z
Si Si1 0.789553 0.792301 0.449138
Si Si2 0.284596 0.926780 0.595058
Si Si3 0.217614 0.573785 0.201163
Si Si4 0.784333 0.925264 0.947436
Si Si5 0.791283 0.689182 0.622720
Si Si6 0.786089 0.319205 0.726844
O O1 0.712969 0.777734 0.500000
O O2 0.772441 0.868127 0.437457
O O3 0.712875 0.748124 0.407817
O O4 0.000000 0.777080 0.451234
O O5 0.500000 0.927729 0.594800
O O6 0.226201 0.912425 0.648126
O O7 0.224971 0.000000 0.582737
O O8 0.269599 0.500000 0.212460
O O9 0.283046 0.624982 0.238797
O O10 0.000000 0.575580 0.200636
O O11 0.721623 0.874929 0.908897
O O12 0.000000 0.924278 0.947142
O O13 0.728822 0.000000 0.938875
O O14 0.726754 0.907186 0.000000
O O15 0.715066 0.679637 0.674195
O O16 0.000000 0.704548 0.630106
O O17 0.750000 0.250000 0.750000
O O18 0.000000 0.328739 0.724686
#
# Coordination Sequence:
#
# PCOD9521126 Si02
#       6
#    16  16  16  16  16  16
#     4  10  21  35  49  68  99 135 166 201 248 299
#     4   9  18  33  53  75  97 124 162 206 248 293
#     4   8  15  30  51  73  98 128 160 195 239 290
#     4   9  19  36  56  78 105 137 173 213 259 312
#     4  10  21  35  52  77 106 136 173 214 255 303
#     4  10  20  33  52  77 103 133 169 209 251 298
#
# _framework density 21.626652
#
# number of rings (size 3 to 8) (size 9 to 14) (size 15 to 20)
#    0.000    2.667    0.000    3.000    0.000    4.333 
#    0.000    4.167    0.000    1.500    0.000    0.000 
#    0.000    0.000    0.000    0.000    0.000    0.000 
#
# Total GULP energy -268043.275367 kJ/mol
# GULP energy per Si atom -5584.234903 kJ/mol
# Density = 2.157743 g / cm^3
# Si number density = 21.626652 Si / 1000 Ang^3
#
#
#
# Elastic Constant Matrix: (Units=GPa)
#
#
# Indices 1 2 3 4 5 6 
#
# 1 57.4367 -17.7224 -9.5181 0.0000 0.0000 0.0000
# 2 -17.7224 67.2826 27.8124 0.0000 0.0000 0.0000
# 3 -9.5181 27.8124 69.1877 0.0000 0.0000 0.0000
# 4 0.0000 0.0000 0.0000 35.5850 0.0000 0.0000
# 5 0.0000 0.0000 0.0000 0.0000 7.6771 0.0000
# 6 0.0000 0.0000 0.0000 0.0000 0.0000 23.7412
#
#
#
# Elastic Compliance Matrix: (Units=1/GPa)
#
#
# Indices 1 2 3 4 5 6 
#
# 1 0.018981 0.004701 0.000721 0.000000 0.000000 0.000000
# 2 0.004701 0.018989 -0.006987 0.000000 0.000000 0.000000
# 3 0.000721 -0.006987 0.017361 0.000000 0.000000 0.000000
# 4 0.000000 0.000000 0.000000 0.028102 0.000000 0.000000
# 5 0.000000 0.000000 0.000000 0.000000 0.130258 0.000000
# 6 0.000000 0.000000 0.000000 0.000000 0.000000 0.042121
#
#
# Mechanical properties :
#
#
# Convention : Reuss Voigt Hill
#
# Bulk Modulus (GPa) = 19.15595 21.67231 20.41413
# Shear Modulus (GPa) = 18.09364 26.28966 22.19165
#
# Velocity S-wave (km/s) = 2.89560 3.49035 3.20679
# Velocity P-wave (km/s) = 4.47841 5.12701 4.81365
#
# Compressibility (1/GPa) = 0.05220309
#
# Stress axis : x y z
#
# Youngs Moduli (GPa) = 52.68524 52.66191 57.59989
#
# Poissons Ratio (x) = -0.24759 -0.04154
# Poissons Ratio (y) = -0.24769 0.40242
# Poissons Ratio (z) = -0.03800 0.36792
#
# Static dielectric constant tensor:
#      x y z
#    x 1.850450 0.000000 0.000000 
#    y 0.000000 1.770730 0.000000 
#    z 0.000000 0.000000 1.776080 
# 
# From -- ./inp_files/10852.got.cif
#   From: 2010.05.17/outbox.cif.g08.bks.cpg/sg71_6_cif.got.tgz:10852.got - 2010.06.03 16:22:01.
