data_PCOD9521420
_publ_section_title
;
Structure prediction by ZEFSAII (Michael W. Deem and Ramdas Pophale) SiO2 
 PCOD9521420
Probable space group: I M M M
;
_chemical_formula_sum "Si O2"
_cell_formula_units_Z 96
_cell_length_a 9.452977
_cell_length_b 27.960377
_cell_length_c 20.304899
_cell_angle_alpha 90.000000
_cell_angle_beta 90.000000
_cell_angle_gamma 90.000000
_cell_volume 5366.763503
_symmetry_space_group_name_H-M "I M M M"
_symmetry_group_IT_number 71
_symmetry_cell_setting 'orthorhombic'
loop_
_space_group_symop_operation_xyz
x,y,z
-x,-y,z
x,-y,-z
-x,y,-z
-x,-y,-z
x,y,-z
-x,y,z
x,-y,z
1/2+x,1/2+y,1/2+z
1/2-x,1/2-y,1/2+z
1/2+x,1/2-y,1/2-z
1/2-x,1/2+y,1/2-z
1/2-x,1/2-y,1/2-z
1/2+x,1/2+y,1/2-z
1/2-x,1/2+y,1/2+z
1/2+x,1/2-y,1/2+z
loop_
_atom_site_type_symbol
_atom_site_label
_atom_site_fract_x
_atom_site_fract_y
_atom_site_fract_z
Si Si1 0.669416 0.775887 0.075668
Si Si2 0.159619 0.442518 0.697972
Si Si3 0.837421 0.058332 0.073439
Si Si4 0.828943 0.837941 0.571894
Si Si5 0.665923 0.710424 0.706844
Si Si6 0.164658 0.115273 0.295513
O O1 0.500000 0.782907 0.085362
O O2 0.697786 0.718610 0.079531
O O3 0.759546 0.796633 0.135930
O O4 0.703012 0.790922 0.000000
O O5 0.157321 0.500000 0.695522
O O6 0.237538 0.425268 0.631759
O O7 0.246004 0.425298 0.760623
O O8 0.000000 0.424436 0.699963
O O9 0.000000 0.072951 0.084990
O O10 0.836478 0.000000 0.073460
O O11 0.794286 0.073577 0.000000
O O12 0.776830 0.853236 0.500000
O O13 0.778238 0.868253 0.633629
O O14 0.000000 0.841916 0.572248
O O15 0.500000 0.723909 0.699262
O O16 0.750000 0.750000 0.750000
O O17 0.670694 0.661710 0.748571
O O18 0.000000 0.101140 0.301112
#
# Coordination Sequence:
#
# PCOD9521420 Si02
#       6
#    16  16  16  16  16  16
#     4   9  17  32  53  75 104 142 178 213 257 304
#     4  10  21  35  51  74 103 134 170 215 265 310
#     4   8  14  27  49  74  97 124 161 204 250 301
#     4   8  14  28  51  76 101 129 166 211 252 296
#     4  11  21  33  51  77 108 138 172 212 255 307
#     4  10  20  34  53  77 102 135 176 211 254 308
#
# _framework density 17.887875999999999
#
# number of rings (size 3 to 8) (size 9 to 14) (size 15 to 20)
#    0.000    2.667    1.667    2.500    0.000    3.000 
#    0.000    2.500    0.000    2.000    0.000    3.500 
#    0.000    0.000    0.000    0.000    0.000    0.000 
#
# Total GULP energy -267595.069757 kJ/mol
# GULP energy per Si atom -5574.897287 kJ/mol
# Density = 1.784716 g / cm^3
# Si number density = 17.887876 Si / 1000 Ang^3
#
#
#
# Elastic Constant Matrix: (Units=GPa)
#
#
# Indices 1 2 3 4 5 6 
#
# 1 67.8553 15.4530 58.3462 0.0000 0.0000 0.0000
# 2 15.4530 10.4670 13.9171 0.0000 0.0000 0.0000
# 3 58.3462 13.9171 151.0742 0.0001 0.0000 0.0000
# 4 0.0000 0.0000 0.0001 21.4535 0.0000 0.0000
# 5 0.0000 0.0000 0.0000 0.0000 18.6839 0.0000
# 6 0.0000 0.0000 0.0000 0.0000 0.0000 19.6128
#
#
#
# Elastic Compliance Matrix: (Units=1/GPa)
#
#
# Indices 1 2 3 4 5 6 
#
# 1 0.029186 -0.032023 -0.008322 0.000000 0.000000 0.000000
# 2 -0.032023 0.144011 -0.000899 0.000000 0.000000 0.000000
# 3 -0.008322 -0.000899 0.009916 0.000000 0.000000 0.000000
# 4 0.000000 0.000000 0.000000 0.046613 0.000000 0.000000
# 5 0.000000 0.000000 0.000000 0.000000 0.053522 0.000000
# 6 0.000000 0.000000 0.000000 0.000000 0.000000 0.050987
#
#
# Mechanical properties :
#
#
# Convention : Reuss Voigt Hill
#
# Bulk Modulus (GPa) = 9.93791 44.98101 27.45946
# Shear Modulus (GPa) = 11.10461 21.39537 16.24999
#
# Velocity S-wave (km/s) = 2.49427 3.46219 3.01730
# Velocity P-wave (km/s) = 3.72329 6.41740 5.24623
#
# Compressibility (1/GPa) = 0.10062482
#
# Stress axis : x y z
#
# Youngs Moduli (GPa) = 34.26348 6.94392 100.84743
#
# Poissons Ratio (x) = 0.22237 0.83922
# Poissons Ratio (y) = 1.09723 0.09063
# Poissons Ratio (z) = 0.28513 0.00624
#
# Static dielectric constant tensor:
#      x y z
#    x 1.603810 0.000000 0.000000 
#    y 0.000000 1.620290 0.000000 
#    z 0.000000 0.000000 1.631590 
# 
# From -- ./inp_files/50810.got.cif
#   From: 2010.05.17/outbox.cif.g08.bks.cpg/sg71_26_cif.got.tgz:50810.got - 2010.06.03 16:22:01.
