data_PCOD9521869
_publ_section_title
;
Structure prediction by ZEFSAII (Michael W. Deem and Ramdas Pophale) SiO2 
 PCOD9521869
Probable space group: I M M M
;
_chemical_formula_sum "Si O2"
_cell_formula_units_Z 64
_cell_length_a 8.722132
_cell_length_b 28.808944
_cell_length_c 14.480424
_cell_angle_alpha 90.000000
_cell_angle_beta 90.000000
_cell_angle_gamma 90.000000
_cell_volume 3638.574512
_symmetry_space_group_name_H-M "I M M M"
_symmetry_group_IT_number 71
_symmetry_cell_setting 'orthorhombic'
loop_
_space_group_symop_operation_xyz
x,y,z
-x,-y,z
x,-y,-z
-x,y,-z
-x,-y,-z
x,y,-z
-x,y,z
x,-y,z
1/2+x,1/2+y,1/2+z
1/2-x,1/2-y,1/2+z
1/2+x,1/2-y,1/2-z
1/2-x,1/2+y,1/2-z
1/2-x,1/2-y,1/2-z
1/2+x,1/2+y,1/2-z
1/2-x,1/2+y,1/2+z
1/2+x,1/2-y,1/2+z
loop_
_atom_site_type_symbol
_atom_site_label
_atom_site_fract_x
_atom_site_fract_y
_atom_site_fract_z
Si Si1 0.315554 0.247122 0.392906
Si Si2 0.817118 0.825699 0.253339
Si Si3 0.184106 0.000000 0.107873
Si Si4 0.684104 0.500000 0.107926
Si Si5 0.682757 0.071914 0.750108
O O1 0.273121 0.250643 0.500000
O O2 0.500000 0.241037 0.386745
O O3 0.235707 0.204279 0.341524
O O4 0.277341 0.293453 0.334959
O O5 0.735791 0.875094 0.250062
O O6 0.000000 0.832268 0.254936
O O7 0.250528 0.955539 0.161583
O O8 0.000000 0.000000 0.116761
O O9 0.223903 0.000000 0.000000
O O10 0.500000 0.500000 0.116890
O O11 0.750674 0.455529 0.161633
O O12 0.723882 0.500000 0.000000
O O13 0.500000 0.068320 0.749935
#
# Coordination Sequence:
#
# PCOD9521869 Si02
#       5
#    16  16   8   8  16
#     4   9  19  36  56  78 105 138 177 221 268 316
#     4  10  20  35  55  79 108 141 178 219 265 317
#     4  10  21  38  59  81 108 142 179 221 268 317
#     4  10  21  38  59  81 106 138 179 225 270 319
#     4  11  22  36  56  81 111 144 178 220 267 317
#
# _framework density 17.589306000000001
#
# number of rings (size 3 to 8) (size 9 to 14) (size 15 to 20)
#    0.000    2.000    0.000    5.250    0.000    5.500 
#    0.000    2.500    0.000    0.000    0.000    0.000 
#    0.000    0.000    0.000    0.000    0.000    0.000 
#
# Total GULP energy -178711.009379 kJ/mol
# GULP energy per Si atom -5584.719043 kJ/mol
# Density = 1.754927 g / cm^3
# Si number density = 17.589306 Si / 1000 Ang^3
#
#
#
# Elastic Constant Matrix: (Units=GPa)
#
#
# Indices 1 2 3 4 5 6 
#
# 1 89.4350 65.7760 70.2672 0.0000 -0.0001 0.0000
# 2 65.7760 157.0963 84.7524 0.0000 -0.0001 0.0000
# 3 70.2672 84.7524 181.0879 -0.0001 -0.0003 -0.0002
# 4 0.0000 0.0000 -0.0001 3.6446 -0.0002 -0.0001
# 5 -0.0001 -0.0001 -0.0003 -0.0002 -26.1491 0.0002
# 6 0.0000 0.0000 -0.0002 -0.0001 0.0002 59.8190
#
#
#
# Elastic Compliance Matrix: (Units=1/GPa)
#
#
# Indices 1 2 3 4 5 6 
#
# 1 0.018883 -0.005289 -0.004852 0.000000 0.000000 0.000000
# 2 -0.005289 0.009997 -0.002627 0.000000 0.000000 0.000000
# 3 -0.004852 -0.002627 0.008634 0.000000 0.000000 0.000000
# 4 0.000000 0.000000 0.000000 0.274376 -0.000002 0.000001
# 5 0.000000 0.000000 0.000000 -0.000002 -0.038242 0.000000
# 6 0.000000 0.000000 0.000000 0.000001 0.000000 0.016717
#
#
# Mechanical properties :
#
#
# Convention : Reuss Voigt Hill
#
# Bulk Modulus (GPa) = 83.47484 96.57892 90.02688
# Shear Modulus (GPa) = 15.63024 21.25116 18.44070
#
# Velocity S-wave (km/s) = 2.98421 3.47967 3.24142
# Velocity P-wave (km/s) = 7.70939 8.43629 8.08102
#
# Compressibility (1/GPa) = 0.01197966
#
# Stress axis : x y z
#
# Youngs Moduli (GPa) = 52.95776 100.03093 115.81924
#
# Poissons Ratio (x) = 0.52903 0.56195
# Poissons Ratio (y) = 0.28008 0.30421
# Poissons Ratio (z) = 0.25695 0.26274
#
# Static dielectric constant tensor:
#      x y z
#    x 1.589880 0.000000 0.000000 
#    y 0.000000 1.565800 0.000000 
#    z 0.000000 0.000000 1.583490 
# 
# From -- ./inp_files/31357.got.cif
#   From: 2010.05.17/outbox.cif.g08.bks.cpg/sg71_16_cif.got.tgz:31357.got - 2010.06.03 16:22:01.
