data_PCOD9521079
_publ_section_title
;
Structure prediction by ZEFSAII (Michael W. Deem and Ramdas Pophale) SiO2 
 PCOD9521079
Probable space group: I M M M
;
_chemical_formula_sum "Si O2"
_cell_formula_units_Z 88
_cell_length_a 9.332349
_cell_length_b 24.437524
_cell_length_c 18.884939
_cell_angle_alpha 90.000000
_cell_angle_beta 90.000000
_cell_angle_gamma 90.000000
_cell_volume 4306.889796
_symmetry_space_group_name_H-M "I M M M"
_symmetry_group_IT_number 71
_symmetry_cell_setting 'orthorhombic'
loop_
_space_group_symop_operation_xyz
x,y,z
-x,-y,z
x,-y,-z
-x,y,-z
-x,-y,-z
x,y,-z
-x,y,z
x,-y,z
1/2+x,1/2+y,1/2+z
1/2-x,1/2-y,1/2+z
1/2+x,1/2-y,1/2-z
1/2-x,1/2+y,1/2-z
1/2-x,1/2-y,1/2-z
1/2+x,1/2+y,1/2-z
1/2-x,1/2+y,1/2+z
1/2+x,1/2-y,1/2+z
loop_
_atom_site_type_symbol
_atom_site_label
_atom_site_fract_x
_atom_site_fract_y
_atom_site_fract_z
Si Si1 0.340229 0.437818 0.586505
Si Si2 0.345230 0.841430 0.917869
Si Si3 0.833537 0.241492 0.851070
Si Si4 0.330906 0.661615 0.785131
Si Si5 0.671973 0.065320 0.647211
Si Si6 0.834093 0.066130 0.500000
O O1 0.340698 0.437935 0.500000
O O2 0.500000 0.420086 0.608650
O O3 0.316521 0.500000 0.608917
O O4 0.223004 0.396137 0.613778
O O5 0.500000 0.827031 0.886126
O O6 0.233924 0.792470 0.914151
O O7 0.363526 0.854005 0.000000
O O8 0.741774 0.295609 0.839090
O O9 0.815600 0.196893 0.787271
O O10 0.000000 0.254525 0.857167
O O11 0.500000 0.653164 0.797166
O O12 0.246462 0.604786 0.794966
O O13 0.500000 0.074049 0.644189
O O14 0.747424 0.080198 0.571769
O O15 0.695734 0.000000 0.659570
O O16 0.000000 0.086303 0.500000
O O17 0.841174 0.000000 0.500000
#
# Coordination Sequence:
#
# PCOD9521079 Si02
#       6
#    16  16  16  16  16   8
#     4   8  14  26  45  68  95 130 170 209 254 311
#     4  10  20  33  51  77 108 139 174 222 275 324
#     4  10  21  38  59  80 105 142 185 227 276 332
#     4  10  21  38  60  83 107 140 183 229 275 328
#     4  10  20  35  57  86 119 152 187 228 276 333
#     4   9  17  31  53  81 115 153 187 223 272 327
#
# _framework density 20.432379000000001
#
# number of rings (size 3 to 8) (size 9 to 14) (size 15 to 20)
#    0.000    2.455    0.000    3.000    0.000    5.818 
#    1.636    2.727    0.000    1.091    0.000    0.000 
#    0.000    0.000    0.000    0.000    0.000    0.000 
#
# Total GULP energy -245207.319294 kJ/mol
# GULP energy per Si atom -5572.893620 kJ/mol
# Density = 2.038587 g / cm^3
# Si number density = 20.432379 Si / 1000 Ang^3
#
#
#
# Elastic Constant Matrix: (Units=GPa)
#
#
# Indices 1 2 3 4 5 6 
#
# 1 111.8397 62.9104 34.6766 0.0000 0.0000 0.0000
# 2 62.9104 87.0472 19.8882 0.0000 0.0000 0.0000
# 3 34.6766 19.8882 22.4440 0.0000 0.0000 0.0000
# 4 0.0000 0.0000 0.0000 20.8672 0.0000 0.0000
# 5 0.0000 0.0000 0.0000 0.0000 19.1606 0.0000
# 6 0.0000 0.0000 0.0000 0.0000 0.0000 37.9267
#
#
#
# Elastic Compliance Matrix: (Units=1/GPa)
#
#
# Indices 1 2 3 4 5 6 
#
# 1 0.023071 -0.010695 -0.026168 0.000000 0.000000 0.000000
# 2 -0.010695 0.019362 -0.000633 0.000000 0.000000 0.000000
# 3 -0.026168 -0.000633 0.085547 0.000000 0.000000 0.000000
# 4 0.000000 0.000000 0.000000 0.047922 0.000000 0.000000
# 5 0.000000 0.000000 0.000000 0.000000 0.052191 0.000000
# 6 0.000000 0.000000 0.000000 0.000000 0.000000 0.026367
#
#
# Mechanical properties :
#
#
# Convention : Reuss Voigt Hill
#
# Bulk Modulus (GPa) = 18.87242 50.69791 34.78516
# Shear Modulus (GPa) = 14.40446 22.51460 18.45953
#
# Velocity S-wave (km/s) = 2.65803 3.32310 3.00900
# Velocity P-wave (km/s) = 4.32166 6.29209 5.39755
#
# Compressibility (1/GPa) = 0.05298738
#
# Stress axis : x y z
#
# Youngs Moduli (GPa) = 43.34463 51.64728 11.68946
#
# Poissons Ratio (x) = 0.55236 0.30589
# Poissons Ratio (y) = 0.46357 0.00740
# Poissons Ratio (z) = 1.13425 0.03271
#
# Static dielectric constant tensor:
#      x y z
#    x 1.771750 0.000000 0.000000 
#    y 0.000000 1.715000 0.000000 
#    z 0.000000 0.000000 1.791430 
# 
# From -- ./inp_files/50498.got.cif
#   From: 2010.05.17/outbox.cif.g08.bks.cpg/sg71_26_cif.got.tgz:50498.got - 2010.06.03 16:22:01.
