data_PCOD9521424
_publ_section_title
;
Structure prediction by ZEFSAII (Michael W. Deem and Ramdas Pophale) SiO2 
 PCOD9521424
Probable space group: I M M M
;
_chemical_formula_sum "Si O2"
_cell_formula_units_Z 64
_cell_length_a 14.778786
_cell_length_b 8.013572
_cell_length_c 24.668118
_cell_angle_alpha 90.000000
_cell_angle_beta 90.000000
_cell_angle_gamma 90.000000
_cell_volume 2921.466570
_symmetry_space_group_name_H-M "I M M M"
_symmetry_group_IT_number 71
_symmetry_cell_setting 'orthorhombic'
loop_
_space_group_symop_operation_xyz
x,y,z
-x,-y,z
x,-y,-z
-x,y,-z
-x,-y,-z
x,y,-z
-x,y,z
x,-y,z
1/2+x,1/2+y,1/2+z
1/2-x,1/2-y,1/2+z
1/2+x,1/2-y,1/2-z
1/2-x,1/2+y,1/2-z
1/2-x,1/2-y,1/2-z
1/2+x,1/2+y,1/2-z
1/2-x,1/2+y,1/2+z
1/2+x,1/2-y,1/2+z
loop_
_atom_site_type_symbol
_atom_site_label
_atom_site_fract_x
_atom_site_fract_y
_atom_site_fract_z
Si Si1 0.638404 0.308186 0.000000
Si Si2 0.393183 0.808646 0.619701
Si Si3 0.354541 0.190862 0.500000
Si Si4 0.888800 0.000000 0.809170
Si Si5 0.605950 0.819162 0.880980
Si Si6 0.111238 0.000000 0.316307
O O1 0.746652 0.310913 0.000000
O O2 0.609713 0.219611 0.055140
O O3 0.606064 0.500000 0.000000
O O4 0.500000 0.823336 0.630437
O O5 0.383162 0.740501 0.558151
O O6 0.357597 0.668639 0.660603
O O7 0.355802 0.000000 0.622485
O O8 0.389716 0.000000 0.500000
O O9 0.862804 0.000000 0.746298
O O10 0.000000 0.000000 0.811298
O O11 0.500000 0.827767 0.866219
O O12 0.644293 0.663624 0.848051
O O13 0.647476 0.000000 0.869928
O O14 0.000000 0.000000 0.318908
#
# Coordination Sequence:
#
# PCOD9521424 Si02
#       6
#     8  16   8   8  16   8
#     4  11  20  33  53  77 105 139 166 211 261 308
#     4   9  17  32  53  76 106 138 168 209 256 301
#     4   9  19  33  51  79 105 138 171 209 256 311
#     4   9  18  31  51  81 105 130 173 212 250 303
#     4  10  20  34  53  77 104 134 170 210 255 309
#     4   9  18  33  53  77 105 134 167 212 258 297
#
# _framework density 21.906806
#
# number of rings (size 3 to 8) (size 9 to 14) (size 15 to 20)
#    0.000    2.500    1.250    1.125    0.000    4.500 
#    4.500    6.875    0.000    1.500    0.000    0.000 
#    0.000    0.000    0.000    0.000    0.000    0.000 
#
# Total GULP energy -178631.392259 kJ/mol
# GULP energy per Si atom -5582.231008 kJ/mol
# Density = 2.185694 g / cm^3
# Si number density = 21.906806 Si / 1000 Ang^3
#
#
#
# Elastic Constant Matrix: (Units=GPa)
#
#
# Indices 1 2 3 4 5 6 
#
# 1 43.2767 13.7018 -11.6294 0.0000 0.0000 0.0000
# 2 13.7018 198.1894 115.6719 0.0000 0.0000 0.0000
# 3 -11.6294 115.6719 177.9011 0.0000 0.0000 0.0000
# 4 0.0000 0.0000 0.0000 -25.6099 0.0000 0.0000
# 5 0.0000 0.0000 0.0000 0.0000 658.7323 0.0000
# 6 0.0000 0.0000 0.0000 0.0000 0.0000 12.1056
#
#
#
# Elastic Compliance Matrix: (Units=1/GPa)
#
#
# Indices 1 2 3 4 5 6 
#
# 1 0.025747 -0.004452 0.004578 0.000000 0.000000 0.000000
# 2 -0.004452 0.008901 -0.006079 0.000000 0.000000 0.000000
# 3 0.004578 -0.006079 0.009873 0.000000 0.000000 0.000000
# 4 0.000000 0.000000 0.000000 -0.039047 0.000000 0.000000
# 5 0.000000 0.000000 0.000000 0.000000 0.001518 0.000000
# 6 0.000000 0.000000 0.000000 0.000000 0.000000 0.082607
#
#
# Mechanical properties :
#
#
# Convention : Reuss Voigt Hill
#
# Bulk Modulus (GPa) = 30.66062 72.76174 51.71118
# Shear Modulus (GPa) = 44.49395 149.15378 96.82386
#
# Velocity S-wave (km/s) = 4.51161 8.26035 6.65538
# Velocity P-wave (km/s) = 6.41606 11.14738 9.09478
#
# Compressibility (1/GPa) = 0.03261512
#
# Stress axis : x y z
#
# Youngs Moduli (GPa) = 38.83998 112.34484 101.28993
#
# Poissons Ratio (x) = 0.50012 -0.46366
# Poissons Ratio (y) = 0.17290 0.61570
# Poissons Ratio (z) = -0.17779 0.68290
#
# Static dielectric constant tensor:
#      x y z
#    x 1.806460 0.000000 0.000000 
#    y 0.000000 1.827260 0.000000 
#    z 0.000000 0.000000 1.756120 
# 
# From -- ./inp_files/60352.got.cif
#   From: 2010.05.17/outbox.cif.g08.bks.cpg/sg71_31_cif.got.tgz:60352.got - 2010.06.03 16:22:01.
