data_PCOD9521717
_publ_section_title
;
Structure prediction by ZEFSAII (Michael W. Deem and Ramdas Pophale) SiO2 
 PCOD9521717
Probable space group: I M M M
;
_chemical_formula_sum "Si O2"
_cell_formula_units_Z 104
_cell_length_a 20.502255
_cell_length_b 14.832270
_cell_length_c 17.313759
_cell_angle_alpha 90.000000
_cell_angle_beta 90.000000
_cell_angle_gamma 90.000000
_cell_volume 5265.027227
_symmetry_space_group_name_H-M "I M M M"
_symmetry_group_IT_number 71
_symmetry_cell_setting 'orthorhombic'
loop_
_space_group_symop_operation_xyz
x,y,z
-x,-y,z
x,-y,-z
-x,y,-z
-x,-y,-z
x,y,-z
-x,y,z
x,-y,z
1/2+x,1/2+y,1/2+z
1/2-x,1/2-y,1/2+z
1/2+x,1/2-y,1/2-z
1/2-x,1/2+y,1/2-z
1/2-x,1/2-y,1/2-z
1/2+x,1/2+y,1/2-z
1/2-x,1/2+y,1/2+z
1/2+x,1/2-y,1/2+z
loop_
_atom_site_type_symbol
_atom_site_label
_atom_site_fract_x
_atom_site_fract_y
_atom_site_fract_z
Si Si1 0.361197 0.601417 0.356339
Si Si2 0.074650 0.715517 0.152321
Si Si3 0.719271 0.106664 0.912964
Si Si4 0.886246 0.713128 0.668238
Si Si5 0.000000 0.397664 0.591425
Si Si6 0.804063 0.392850 0.088050
Si Si7 0.671025 0.603118 0.174487
O O1 0.384920 0.500000 0.371281
O O2 0.413234 0.679624 0.367560
O O3 0.296644 0.619270 0.406169
O O4 0.335881 0.604559 0.267317
O O5 0.090787 0.706528 0.243424
O O6 0.130045 0.658707 0.109254
O O7 0.000000 0.688986 0.137137
O O8 0.682298 0.164794 0.849288
O O9 0.706241 0.000000 0.900912
O O10 0.697641 0.130482 0.000000
O O11 0.937685 0.657711 0.618838
O O12 0.877240 0.818099 0.646653
O O13 0.000000 0.500000 0.623242
O O14 0.000000 0.403716 0.500000
O O15 0.815997 0.500000 0.092924
O O16 0.743636 0.373312 0.145051
O O17 0.784288 0.371024 0.000000
O O18 0.657110 0.500000 0.148970
#
# Coordination Sequence:
#
# PCOD9521717 Si02
#       7
#    16  16  16  16   8  16  16
#     4   9  19  36  58  84 113 143 182 233 284 336
#     4  11  23  38  55  81 112 150 195 232 273 330
#     4  10  20  34  56  86 115 144 181 229 288 344
#     4  11  21  37  57  83 114 149 188 229 277 330
#     4  11  24  40  57  81 116 154 189 224 269 333
#     4  10  22  39  58  83 114 147 187 237 289 336
#     4   9  19  37  61  85 110 143 185 233 285 336
#
# _framework density 19.752984999999999
#
# number of rings (size 3 to 8) (size 9 to 14) (size 15 to 20)
#    0.000    1.923    0.769    2.769    0.000   10.154 
#    0.000    1.154    0.000    0.462    0.000    3.231 
#    0.000    0.000    0.000    0.000    0.000    0.000 
#
# Total GULP energy -290345.326068 kJ/mol
# GULP energy per Si atom -5583.563963 kJ/mol
# Density = 1.970803 g / cm^3
# Si number density = 19.752985 Si / 1000 Ang^3
#
#
#
# Elastic Constant Matrix: (Units=GPa)
#
#
# Indices 1 2 3 4 5 6 
#
# 1 49.6194 47.8476 9.2771 0.0000 0.0000 0.0000
# 2 47.8476 85.5715 22.2019 0.0000 0.0000 0.0000
# 3 9.2771 22.2019 15.0050 0.0000 0.0000 0.0000
# 4 0.0000 0.0000 0.0000 16.8505 0.0000 0.0000
# 5 0.0000 0.0000 0.0000 0.0000 18.1229 0.0000
# 6 0.0000 0.0000 0.0000 0.0000 0.0000 35.5286
#
#
#
# Elastic Compliance Matrix: (Units=1/GPa)
#
#
# Indices 1 2 3 4 5 6 
#
# 1 0.045870 -0.029687 0.015566 0.000000 0.000000 0.000000
# 2 -0.029687 0.038181 -0.038140 0.000000 0.000000 0.000000
# 3 0.015566 -0.038140 0.113453 0.000000 0.000000 0.000000
# 4 0.000000 0.000000 0.000000 0.059345 0.000000 0.000000
# 5 0.000000 0.000000 0.000000 0.000000 0.055179 0.000000
# 6 0.000000 0.000000 0.000000 0.000000 0.000000 0.028146
#
#
# Mechanical properties :
#
#
# Convention : Reuss Voigt Hill
#
# Bulk Modulus (GPa) = 10.75463 34.31657 22.53560
# Shear Modulus (GPa) = 10.51101 18.82504 14.66802
#
# Velocity S-wave (km/s) = 2.30928 3.09046 2.72797
# Velocity P-wave (km/s) = 3.54496 5.49046 4.62125
#
# Compressibility (1/GPa) = 0.09298324
#
# Stress axis : x y z
#
# Youngs Moduli (GPa) = 21.80060 26.19073 8.81419
#
# Poissons Ratio (x) = 0.77753 -0.13720
# Poissons Ratio (y) = 0.64720 0.33617
# Poissons Ratio (z) = -0.33935 0.99891
#
# Static dielectric constant tensor:
#      x y z
#    x 1.692520 0.000000 0.000000 
#    y 0.000000 1.717570 0.000000 
#    z 0.000000 0.000000 1.689110 
# 
# From -- ./inp_files/47335.got.cif
#   From: 2010.05.17/outbox.cif.g08.bks.cpg/sg71_24_cif.got.tgz:47335.got - 2010.06.03 16:22:01.
