data_PCOD9521702
_publ_section_title
;
Structure prediction by ZEFSAII (Michael W. Deem and Ramdas Pophale) SiO2 
 PCOD9521702
Probable space group: I M M M
;
_chemical_formula_sum "Si O2"
_cell_formula_units_Z 90
_cell_length_a 25.632491
_cell_length_b 21.662740
_cell_length_c 7.834072
_cell_angle_alpha 90.000000
_cell_angle_beta 90.000000
_cell_angle_gamma 90.000000
_cell_volume 4350.025066
_symmetry_space_group_name_H-M "I M M M"
_symmetry_group_IT_number 71
_symmetry_cell_setting 'orthorhombic'
loop_
_space_group_symop_operation_xyz
x,y,z
-x,-y,z
x,-y,-z
-x,y,-z
-x,-y,-z
x,y,-z
-x,y,z
x,-y,z
1/2+x,1/2+y,1/2+z
1/2-x,1/2-y,1/2+z
1/2+x,1/2-y,1/2-z
1/2-x,1/2+y,1/2-z
1/2-x,1/2-y,1/2-z
1/2+x,1/2+y,1/2-z
1/2-x,1/2+y,1/2+z
1/2+x,1/2-y,1/2+z
loop_
_atom_site_type_symbol
_atom_site_label
_atom_site_fract_x
_atom_site_fract_y
_atom_site_fract_z
Si Si1 0.500000 0.500000 0.500000
Si Si2 0.056745 0.333663 0.706013
Si Si3 0.293351 0.301362 0.202703
Si Si4 0.913344 0.199152 0.196790
Si Si5 0.500000 0.396288 0.192629
Si Si6 0.239980 0.932752 0.299594
Si Si7 0.640457 0.931608 0.794015
O O1 0.500000 0.445683 0.346555
O O2 0.061171 0.327985 0.500000
O O3 0.060453 0.265696 0.780833
O O4 0.102829 0.377764 0.766337
O O5 0.000000 0.360895 0.744157
O O6 0.250000 0.250000 0.250000
O O7 0.353703 0.289541 0.244889
O O8 0.281391 0.369453 0.277690
O O9 0.289096 0.305640 0.000000
O O10 0.948734 0.147990 0.289835
O O11 0.912407 0.180835 0.000000
O O12 0.500000 0.422514 0.000000
O O13 0.225684 0.934297 0.500000
O O14 0.302323 0.927885 0.284529
O O15 0.224686 0.000000 0.225533
O O16 0.619025 0.000000 0.757638
O O17 0.646209 0.926677 0.000000
#
# Coordination Sequence:
#
# PCOD9521702 Si02
#       7
#     2  16  16  16   8  16  16
#     4  12  26  52  76 114 140 176 240 280 352 440
#     4  10  20  34  56  84 115 159 209 256 317 379
#     4  11  23  39  61  92 126 167 214 272 341 404
#     4  12  24  42  65  95 131 169 222 280 334 411
#     4  12  25  49  77 104 142 182 225 287 354 417
#     4   9  19  37  57  79 110 149 197 245 303 380
#     4   9  18  32  52  80 117 158 204 256 312 377
#
# _framework density 20.689534999999999
#
# number of rings (size 3 to 8) (size 9 to 14) (size 15 to 20)
#    0.000    1.600    1.778    3.333    0.000    5.333 
#    1.600    1.778    0.000    0.000    0.000    3.733 
#    0.000    0.000    0.000    0.000    0.000    0.000 
#
# Total GULP energy -250837.071313 kJ/mol
# GULP energy per Si atom -5574.157140 kJ/mol
# Density = 2.064244 g / cm^3
# Si number density = 20.689535 Si / 1000 Ang^3
#
#
#
# Elastic Constant Matrix: (Units=GPa)
#
#
# Indices 1 2 3 4 5 6 
#
# 1 87.8017 35.9787 5.5751 0.0000 0.0000 0.0000
# 2 35.9787 96.7528 15.5954 0.0000 0.0000 0.0000
# 3 5.5751 15.5954 71.7745 0.0000 0.0000 0.0000
# 4 0.0000 0.0000 0.0000 25.7624 0.0000 0.0000
# 5 0.0000 0.0000 0.0000 0.0000 22.9451 0.0000
# 6 0.0000 0.0000 0.0000 0.0000 0.0000 -0.2048
#
#
#
# Elastic Compliance Matrix: (Units=1/GPa)
#
#
# Indices 1 2 3 4 5 6 
#
# 1 0.013437 -0.005004 0.000044 0.000000 0.000000 0.000000
# 2 -0.005004 0.012574 -0.002343 0.000000 0.000000 0.000000
# 3 0.000044 -0.002343 0.014438 0.000000 0.000000 0.000000
# 4 0.000000 0.000000 0.000000 0.038816 0.000000 0.000000
# 5 0.000000 0.000000 0.000000 0.000000 0.043582 0.000000
# 6 0.000000 0.000000 0.000000 0.000000 0.000000 -4.882621
#
#
# Mechanical properties :
#
#
# Convention : Reuss Voigt Hill
#
# Bulk Modulus (GPa) = 38.69670 41.18081 39.93876
# Shear Modulus (GPa) = -1.05562 22.97919 10.96178
#
# Velocity S-wave (km/s) = -0.71507 3.33628 2.30428
# Velocity P-wave (km/s) = 4.24998 5.89817 5.14056
#
# Compressibility (1/GPa) = 0.02584199
#
# Stress axis : x y z
#
# Youngs Moduli (GPa) = 74.42191 79.52895 69.26002
#
# Poissons Ratio (x) = 0.39794 -0.00301
# Poissons Ratio (y) = 0.37238 0.16231
# Poissons Ratio (z) = -0.00324 0.18637
#
# Static dielectric constant tensor:
#      x y z
#    x 1.768030 0.000000 0.000000 
#    y 0.000000 1.770330 0.000000 
#    z 0.000000 0.000000 1.767080 
# 
# From -- ./inp_files/12585.got.cif
#   From: 2010.05.17/outbox.cif.g08.bks.cpg/sg71_7_cif.got.tgz:12585.got - 2010.06.03 16:22:01.
