data_PCOD9521032
_publ_section_title
;
Structure prediction by ZEFSAII (Michael W. Deem and Ramdas Pophale) SiO2 
 PCOD9521032
Probable space group: I M M M
;
_chemical_formula_sum "Si O2"
_cell_formula_units_Z 80
_cell_length_a 30.465748
_cell_length_b 14.184951
_cell_length_c 9.093587
_cell_angle_alpha 90.000000
_cell_angle_beta 90.000000
_cell_angle_gamma 90.000000
_cell_volume 3929.840386
_symmetry_space_group_name_H-M "I M M M"
_symmetry_group_IT_number 71
_symmetry_cell_setting 'orthorhombic'
loop_
_space_group_symop_operation_xyz
x,y,z
-x,-y,z
x,-y,-z
-x,y,-z
-x,-y,-z
x,y,-z
-x,y,z
x,-y,z
1/2+x,1/2+y,1/2+z
1/2-x,1/2-y,1/2+z
1/2+x,1/2-y,1/2-z
1/2-x,1/2+y,1/2-z
1/2-x,1/2-y,1/2-z
1/2+x,1/2+y,1/2-z
1/2-x,1/2+y,1/2+z
1/2+x,1/2-y,1/2+z
loop_
_atom_site_type_symbol
_atom_site_label
_atom_site_fract_x
_atom_site_fract_y
_atom_site_fract_z
Si Si1 0.181432 0.607583 0.176223
Si Si2 0.728278 0.613257 0.669495
Si Si3 0.136876 0.202169 0.176516
Si Si4 0.549798 0.296704 0.826224
Si Si5 0.447586 0.104320 0.334043
O O1 0.172877 0.500000 0.227390
O O2 0.228621 0.638909 0.238885
O O3 0.145955 0.687362 0.214208
O O4 0.184044 0.605441 0.000000
O O5 0.733742 0.645206 0.500000
O O6 0.726128 0.500000 0.669964
O O7 0.681725 0.651359 0.724665
O O8 0.092524 0.161222 0.246777
O O9 0.133878 0.193091 0.000000
O O10 0.500000 0.323731 0.776878
O O11 0.555827 0.186653 0.783875
O O12 0.552016 0.311156 0.000000
O O13 0.431514 0.130270 0.500000
O O14 0.500000 0.094899 0.348248
O O15 0.430022 0.000000 0.298163
#
# Coordination Sequence:
#
# PCOD9521032 Si02
#       5
#    16  16  16  16  16
#     4   9  18  32  50  75 106 135 163 196 236 290
#     4   9  18  33  53  77 103 129 161 204 252 301
#     4  10  20  33  51  74 100 133 170 206 247 299
#     4  10  21  34  47  67  96 129 168 215 260 299
#     4   8  14  26  44  63  84 116 158 199 240 289
#
# _framework density 20.357063
#
# number of rings (size 3 to 8) (size 9 to 14) (size 15 to 20)
#    0.000    2.800    0.000    1.800    0.000    4.000 
#    0.000    4.000    0.000    0.600    0.000    4.200 
#    0.000    0.000    0.000    0.000    0.000    0.000 
#
# Total GULP energy -222886.703731 kJ/mol
# GULP energy per Si atom -5572.167593 kJ/mol
# Density = 2.031073 g / cm^3
# Si number density = 20.357063 Si / 1000 Ang^3
#
#
#
# Elastic Constant Matrix: (Units=GPa)
#
#
# Indices 1 2 3 4 5 6 
#
# 1 191.5131 15.0177 39.9215 0.0000 0.0000 0.0000
# 2 15.0177 5.1087 3.5723 0.0000 0.0000 0.0000
# 3 39.9215 3.5723 20.3965 0.0000 0.0000 0.0000
# 4 0.0000 0.0000 0.0000 21.2349 0.0000 0.0000
# 5 0.0000 0.0000 0.0000 0.0000 34.7099 0.0000
# 6 0.0000 0.0000 0.0000 0.0000 0.0000 11.0033
#
#
#
# Elastic Compliance Matrix: (Units=1/GPa)
#
#
# Indices 1 2 3 4 5 6 
#
# 1 0.010100 -0.018082 -0.016602 0.000000 0.000000 0.000000
# 2 -0.018082 0.255433 -0.009347 0.000000 0.000000 0.000000
# 3 -0.016602 -0.009347 0.083159 0.000000 0.000000 0.000000
# 4 0.000000 0.000000 0.000000 0.047092 0.000000 0.000000
# 5 0.000000 0.000000 0.000000 0.000000 0.028810 0.000000
# 6 0.000000 0.000000 0.000000 0.000000 0.000000 0.090882
#
#
# Mechanical properties :
#
#
# Convention : Reuss Voigt Hill
#
# Bulk Modulus (GPa) = 3.83683 37.11570 20.47626
# Shear Modulus (GPa) = 7.24202 23.95673 15.59938
#
# Velocity S-wave (km/s) = 1.88818 3.43421 2.77119
# Velocity P-wave (km/s) = 2.57730 5.83070 4.50774
#
# Compressibility (1/GPa) = 0.26063207
#
# Stress axis : x y z
#
# Youngs Moduli (GPa) = 99.00808 3.91492 12.02509
#
# Poissons Ratio (x) = 0.07079 0.19964
# Poissons Ratio (y) = 1.79023 0.11240
# Poissons Ratio (z) = 1.64372 0.03659
#
# Static dielectric constant tensor:
#      x y z
#    x 1.784330 0.000000 0.000000 
#    y 0.000000 1.776720 0.000000 
#    z 0.000000 0.000000 1.695380 
# 
# From -- ./inp_files/14543.got.cif
#   From: 2010.05.17/outbox.cif.g08.bks.cpg/sg71_8_cif.got.tgz:14543.got - 2010.06.03 16:22:01.
