data_PCOD9521756
_publ_section_title
;
Structure prediction by ZEFSAII (Michael W. Deem and Ramdas Pophale) SiO2 
 PCOD9521756
Probable space group: I M M M
;
_chemical_formula_sum "Si O2"
_cell_formula_units_Z 76
_cell_length_a 16.839840
_cell_length_b 7.590562
_cell_length_c 26.915771
_cell_angle_alpha 90.000000
_cell_angle_beta 90.000000
_cell_angle_gamma 90.000000
_cell_volume 3440.477464
_symmetry_space_group_name_H-M "I M M M"
_symmetry_group_IT_number 71
_symmetry_cell_setting 'orthorhombic'
loop_
_space_group_symop_operation_xyz
x,y,z
-x,-y,z
x,-y,-z
-x,y,-z
-x,-y,-z
x,y,-z
-x,y,z
x,-y,z
1/2+x,1/2+y,1/2+z
1/2-x,1/2-y,1/2+z
1/2+x,1/2-y,1/2-z
1/2-x,1/2+y,1/2-z
1/2-x,1/2-y,1/2-z
1/2+x,1/2+y,1/2-z
1/2-x,1/2+y,1/2+z
1/2+x,1/2-y,1/2+z
loop_
_atom_site_type_symbol
_atom_site_label
_atom_site_fract_x
_atom_site_fract_y
_atom_site_fract_z
Si Si1 0.331111 0.295640 0.577276
Si Si2 0.500000 0.784598 0.942530
Si Si3 0.840100 0.708196 0.392634
Si Si4 0.380554 0.000000 0.500000
Si Si5 0.408534 0.709494 0.789730
Si Si6 0.908591 0.291519 0.178747
O O1 0.333395 0.500000 0.559713
O O2 0.240251 0.226739 0.582065
O O3 0.377345 0.157087 0.543184
O O4 0.362410 0.294957 0.633718
O O5 0.579538 0.718522 0.916463
O O6 0.500000 0.000000 0.938730
O O7 0.500000 0.739196 0.000000
O O8 0.838530 0.500000 0.402200
O O9 0.850785 0.732199 0.333795
O O10 0.500000 0.779173 0.796777
O O11 0.413210 0.500000 0.792021
O O12 0.379822 0.759836 0.734832
O O13 0.907327 0.500000 0.169955
O O14 0.000000 0.229366 0.178124
#
# Coordination Sequence:
#
# PCOD9521756 Si02
#       6
#    16   8  16   4  16  16
#     4  11  25  44  68  98 128 170 218 269 328 391
#     4   9  18  34  57  85 121 167 218 270 317 374
#     4  10  21  37  60  90 127 168 221 267 320 383
#     4  12  26  48  69  93 134 174 216 274 334 375
#     4  10  20  34  58  92 131 173 213 267 327 385
#     4  10  21  41  68  96 128 167 214 263 331 400
#
# _framework density 22.089957999999999
#
# number of rings (size 3 to 8) (size 9 to 14) (size 15 to 20)
#    0.000    1.789    2.105    1.579    2.947    2.947 
#    0.000    1.053    0.000    2.526    0.000    0.000 
#    0.000    0.000    0.000    0.000    0.000    0.000 
#
# Total GULP energy -211774.276902 kJ/mol
# GULP energy per Si atom -5573.007287 kJ/mol
# Density = 2.203968 g / cm^3
# Si number density = 22.089958 Si / 1000 Ang^3
#
#
#
# Elastic Constant Matrix: (Units=GPa)
#
#
# Indices 1 2 3 4 5 6 
#
# 1 16.2789 0.1460 1.2626 0.0000 0.0000 0.0000
# 2 0.1460 87.3878 -4.1033 0.0000 0.0000 0.0000
# 3 1.2626 -4.1033 85.6954 0.0000 0.0000 0.0000
# 4 0.0000 0.0000 0.0000 78.7999 0.0000 0.0000
# 5 0.0000 0.0000 0.0000 0.0000 -76.6948 0.0000
# 6 0.0000 0.0000 0.0000 0.0000 0.0000 4.0865
#
#
#
# Elastic Compliance Matrix: (Units=1/GPa)
#
#
# Indices 1 2 3 4 5 6 
#
# 1 0.061501 -0.000146 -0.000913 0.000000 0.000000 0.000000
# 2 -0.000146 0.011469 0.000551 0.000000 0.000000 0.000000
# 3 -0.000913 0.000551 0.011709 0.000000 0.000000 0.000000
# 4 0.000000 0.000000 0.000000 0.012690 0.000000 0.000000
# 5 0.000000 0.000000 0.000000 0.000000 -0.013039 0.000000
# 6 0.000000 0.000000 0.000000 0.000000 0.000000 0.244707
#
#
# Mechanical properties :
#
#
# Convention : Reuss Voigt Hill
#
# Bulk Modulus (GPa) = 11.95242 20.44141 16.19691
# Shear Modulus (GPa) = 13.96873 14.04211 14.00542
#
# Velocity S-wave (km/s) = 2.51740 2.52400 2.52070
# Velocity P-wave (km/s) = 3.72455 4.21520 3.97745
#
# Compressibility (1/GPa) = 0.08366508
#
# Stress axis : x y z
#
# Youngs Moduli (GPa) = 16.25978 87.18872 85.40373
#
# Poissons Ratio (x) = 0.01270 0.07798
# Poissons Ratio (y) = 0.00237 -0.04709
# Poissons Ratio (z) = 0.01485 -0.04807
#
# Static dielectric constant tensor:
#      x y z
#    x 1.855810 0.000000 0.000000 
#    y 0.000000 1.814520 0.000000 
#    z 0.000000 0.000000 1.788950 
# 
# From -- ./inp_files/65812.got.cif
#   From: 2010.05.17/outbox.cif.g08.bks.cpg/sg71_33_cif.got.tgz:65812.got - 2010.06.03 16:22:01.
