data_PCOD9521902
_publ_section_title
;
Structure prediction by ZEFSAII (Michael W. Deem and Ramdas Pophale) SiO2 
 PCOD9521902
Probable space group: I M M M
;
_chemical_formula_sum "Si O2"
_cell_formula_units_Z 90
_cell_length_a 7.464170
_cell_length_b 23.201668
_cell_length_c 25.084141
_cell_angle_alpha 90.000000
_cell_angle_beta 90.000000
_cell_angle_gamma 90.000000
_cell_volume 4344.101495
_symmetry_space_group_name_H-M "I M M M"
_symmetry_group_IT_number 71
_symmetry_cell_setting 'orthorhombic'
loop_
_space_group_symop_operation_xyz
x,y,z
-x,-y,z
x,-y,-z
-x,y,-z
-x,-y,-z
x,y,-z
-x,y,z
x,-y,z
1/2+x,1/2+y,1/2+z
1/2-x,1/2-y,1/2+z
1/2+x,1/2-y,1/2-z
1/2-x,1/2+y,1/2-z
1/2-x,1/2-y,1/2-z
1/2+x,1/2+y,1/2-z
1/2-x,1/2+y,1/2+z
1/2+x,1/2-y,1/2+z
loop_
_atom_site_type_symbol
_atom_site_label
_atom_site_fract_x
_atom_site_fract_y
_atom_site_fract_z
Si Si1 0.782159 0.500000 0.598341
Si Si2 0.712054 0.274413 0.560499
Si Si3 0.000000 0.000000 0.000000
Si Si4 0.214903 0.624833 0.359402
Si Si5 0.283500 0.435093 0.939108
Si Si6 0.214193 0.318083 0.250489
Si Si7 0.208435 0.328290 0.133913
O O1 0.658475 0.500000 0.546399
O O2 0.738817 0.558499 0.630542
O O3 0.000000 0.500000 0.587538
O O4 0.784543 0.274472 0.500000
O O5 0.500000 0.263067 0.555693
O O6 0.731506 0.334896 0.590873
O O7 0.787594 0.224258 0.599062
O O8 0.285559 0.651892 0.304054
O O9 0.000000 0.627796 0.357603
O O10 0.500000 0.434204 0.938524
O O11 0.226548 0.500000 0.924925
O O12 0.218299 0.385928 0.900259
O O13 0.226715 0.423461 0.000000
O O14 0.250000 0.250000 0.250000
O O15 0.284810 0.338150 0.192882
O O16 0.000000 0.327637 0.251997
O O17 0.000000 0.312765 0.142441
#
# Coordination Sequence:
#
# PCOD9521902 Si02
#       7
#     8  16   2  16  16  16  16
#     4  10  25  45  65  96 131 169 215 270 318 393
#     4  10  21  34  54  83 117 149 185 239 296 356
#     4  12  26  44  76  98 124 172 226 256 340 394
#     4  10  22  40  60  83 118 157 201 250 310 365
#     4   9  19  36  56  78 110 150 189 232 285 347
#     4  10  20  37  60  85 112 153 195 241 298 356
#     4  10  20  35  55  84 115 148 192 240 292 349
#
# _framework density 20.717749000000001
#
# number of rings (size 3 to 8) (size 9 to 14) (size 15 to 20)
#    0.000    2.133    1.778    1.200    2.489    3.200 
#    1.600    0.889    0.000    0.000    0.000    0.000 
#    0.000    0.000    0.000    0.000    0.000    0.000 
#
# Total GULP energy -250904.867433 kJ/mol
# GULP energy per Si atom -5575.663721 kJ/mol
# Density = 2.067059 g / cm^3
# Si number density = 20.717749 Si / 1000 Ang^3
#
#
#
# Elastic Constant Matrix: (Units=GPa)
#
#
# Indices 1 2 3 4 5 6 
#
# 1 68.8103 3.1958 19.0262 0.0000 0.0000 0.0000
# 2 3.1958 97.1598 84.3245 0.0000 0.0000 0.0000
# 3 19.0262 84.3245 178.7460 0.0000 0.0000 0.0000
# 4 0.0000 0.0000 0.0000 14.1532 0.0000 0.0000
# 5 0.0000 0.0000 0.0000 0.0000 12.7081 0.0000
# 6 0.0000 0.0000 0.0000 0.0000 0.0000 18.2198
#
#
#
# Elastic Compliance Matrix: (Units=1/GPa)
#
#
# Indices 1 2 3 4 5 6 
#
# 1 0.015105 0.001522 -0.002326 0.000000 0.000000 0.000000
# 2 0.001522 0.017581 -0.008456 0.000000 0.000000 0.000000
# 3 -0.002326 -0.008456 0.009831 0.000000 0.000000 0.000000
# 4 0.000000 0.000000 0.000000 0.070655 0.000000 0.000000
# 5 0.000000 0.000000 0.000000 0.000000 0.078690 0.000000
# 6 0.000000 0.000000 0.000000 0.000000 0.000000 0.054885
#
#
# Mechanical properties :
#
#
# Convention : Reuss Voigt Hill
#
# Bulk Modulus (GPa) = 41.67121 61.97878 51.82499
# Shear Modulus (GPa) = 18.29712 24.89421 21.59566
#
# Velocity S-wave (km/s) = 2.97503 3.47015 3.23209
# Velocity P-wave (km/s) = 5.65318 6.78503 6.24481
#
# Compressibility (1/GPa) = 0.02399738
#
# Stress axis : x y z
#
# Youngs Moduli (GPa) = 66.20290 56.87903 101.71663
#
# Poissons Ratio (x) = -0.08654 0.23655
# Poissons Ratio (y) = -0.10073 0.86011
# Poissons Ratio (z) = 0.15396 0.48097
#
# Static dielectric constant tensor:
#      x y z
#    x 1.805350 0.000000 0.000000 
#    y 0.000000 1.704960 0.000000 
#    z 0.000000 0.000000 1.755090 
# 
# From -- ./inp_files/50615.got.cif
#   From: 2010.05.17/outbox.cif.g08.bks.cpg/sg71_26_cif.got.tgz:50615.got - 2010.06.03 16:22:01.
