data_PCOD9521564
_publ_section_title
;
Structure prediction by ZEFSAII (Michael W. Deem and Ramdas Pophale) SiO2 
 PCOD9521564
Probable space group: I M M M
;
_chemical_formula_sum "Si O2"
_cell_formula_units_Z 72
_cell_length_a 10.947256
_cell_length_b 14.219486
_cell_length_c 25.964243
_cell_angle_alpha 90.000000
_cell_angle_beta 90.000000
_cell_angle_gamma 90.000000
_cell_volume 4041.707099
_symmetry_space_group_name_H-M "I M M M"
_symmetry_group_IT_number 71
_symmetry_cell_setting 'orthorhombic'
loop_
_space_group_symop_operation_xyz
x,y,z
-x,-y,z
x,-y,-z
-x,y,-z
-x,-y,-z
x,y,-z
-x,y,z
x,-y,z
1/2+x,1/2+y,1/2+z
1/2-x,1/2-y,1/2+z
1/2+x,1/2-y,1/2-z
1/2-x,1/2+y,1/2-z
1/2-x,1/2-y,1/2-z
1/2+x,1/2+y,1/2-z
1/2-x,1/2+y,1/2+z
1/2+x,1/2-y,1/2+z
loop_
_atom_site_type_symbol
_atom_site_label
_atom_site_fract_x
_atom_site_fract_y
_atom_site_fract_z
Si Si1 0.302627 0.787813 0.126931
Si Si2 0.500000 0.107883 0.938890
Si Si3 0.145113 0.106492 0.941538
Si Si4 0.858111 0.888886 0.315777
Si Si5 0.640136 0.112418 0.764979
O O1 0.387414 0.836399 0.084597
O O2 0.174765 0.819461 0.103271
O O3 0.329638 0.678751 0.136172
O O4 0.333002 0.835683 0.181540
O O5 0.500000 0.000000 0.920651
O O6 0.500000 0.107863 0.000000
O O7 0.000000 0.099903 0.944320
O O8 0.191882 0.000000 0.929542
O O9 0.187438 0.130215 0.000000
O O10 0.751263 0.866523 0.274312
O O11 0.000000 0.870843 0.299019
O O12 0.849697 0.000000 0.326998
O O13 0.500000 0.136160 0.748030
O O14 0.642633 0.000000 0.773310
#
# Coordination Sequence:
#
# PCOD9521564 Si02
#       5
#    16   8  16  16  16
#     4  12  20  33  56  80 107 144 182 227 275 335
#     4  11  22  34  53  83 111 135 170 222 284 343
#     4   9  19  35  54  80 114 145 173 215 277 346
#     4  10  22  39  55  75 110 154 195 235 278 328
#     4  10  20  34  54  81 113 144 182 232 286 339
#
# _framework density 17.814253999999998
#
# number of rings (size 3 to 8) (size 9 to 14) (size 15 to 20)
#    0.000    1.667    2.222    4.000    0.000    3.556 
#    0.000    2.222    0.000    3.333    0.000    1.556 
#    0.000    0.000    0.000    0.000    0.000    0.000 
#
# Total GULP energy -200598.534284 kJ/mol
# GULP energy per Si atom -5572.181508 kJ/mol
# Density = 1.777371 g / cm^3
# Si number density = 17.814254 Si / 1000 Ang^3
#
#
#
# Elastic Constant Matrix: (Units=GPa)
#
#
# Indices 1 2 3 4 5 6 
#
# 1 103.7676 40.8414 44.3757 0.0000 0.0000 0.0000
# 2 40.8414 82.7106 52.1891 0.0000 0.0000 0.0000
# 3 44.3757 52.1891 66.3320 0.0000 0.0000 0.0000
# 4 0.0000 0.0000 0.0000 26.7757 0.0000 0.0000
# 5 0.0000 0.0000 0.0000 0.0000 27.2450 0.0000
# 6 0.0000 0.0000 0.0000 0.0000 0.0000 14.2966
#
#
#
# Elastic Compliance Matrix: (Units=1/GPa)
#
#
# Indices 1 2 3 4 5 6 
#
# 1 0.013654 -0.001943 -0.007606 0.000000 0.000000 0.000000
# 2 -0.001943 0.024287 -0.017808 0.000000 0.000000 0.000000
# 3 -0.007606 -0.017808 0.034175 0.000000 0.000000 0.000000
# 4 0.000000 0.000000 0.000000 0.037347 0.000000 0.000000
# 5 0.000000 0.000000 0.000000 0.000000 0.036704 0.000000
# 6 0.000000 0.000000 0.000000 0.000000 0.000000 0.069947
#
#
# Mechanical properties :
#
#
# Convention : Reuss Voigt Hill
#
# Bulk Modulus (GPa) = 57.46627 58.62473 58.04550
# Shear Modulus (GPa) = 18.07470 21.35708 19.71589
#
# Velocity S-wave (km/s) = 3.18877 3.46623 3.33039
# Velocity P-wave (km/s) = 6.77394 7.00000 6.88790
#
# Compressibility (1/GPa) = 0.01740151
#
# Stress axis : x y z
#
# Youngs Moduli (GPa) = 73.23703 41.17471 29.26084
#
# Poissons Ratio (x) = 0.08001 0.22255
# Poissons Ratio (y) = 0.14231 0.52109
# Poissons Ratio (z) = 0.55702 0.73326
#
# Static dielectric constant tensor:
#      x y z
#    x 2.293480 0.000000 0.000000 
#    y 0.000000 1.621840 0.000000 
#    z 0.000000 0.000000 1.576860 
# 
# From -- ./inp_files/58602.got.cif
#   From: 2010.05.17/outbox.cif.g08.bks.cpg/sg71_30_cif.got.tgz:58602.got - 2010.06.03 16:22:01.
