data_PCOD9521582
_publ_section_title
;
Structure prediction by ZEFSAII (Michael W. Deem and Ramdas Pophale) SiO2 
 PCOD9521582
Probable space group: I M M M
;
_chemical_formula_sum "Si O2"
_cell_formula_units_Z 80
_cell_length_a 11.641951
_cell_length_b 18.303732
_cell_length_c 17.668850
_cell_angle_alpha 90.000000
_cell_angle_beta 90.000000
_cell_angle_gamma 90.000000
_cell_volume 3765.075584
_symmetry_space_group_name_H-M "I M M M"
_symmetry_group_IT_number 71
_symmetry_cell_setting 'orthorhombic'
loop_
_space_group_symop_operation_xyz
x,y,z
-x,-y,z
x,-y,-z
-x,y,-z
-x,-y,-z
x,y,-z
-x,y,z
x,-y,z
1/2+x,1/2+y,1/2+z
1/2-x,1/2-y,1/2+z
1/2+x,1/2-y,1/2-z
1/2-x,1/2+y,1/2-z
1/2-x,1/2-y,1/2-z
1/2+x,1/2+y,1/2-z
1/2-x,1/2+y,1/2+z
1/2+x,1/2-y,1/2+z
loop_
_atom_site_type_symbol
_atom_site_label
_atom_site_fract_x
_atom_site_fract_y
_atom_site_fract_z
Si Si1 0.770863 0.582974 0.178927
Si Si2 0.371871 0.117023 0.845041
Si Si3 0.500000 0.127443 0.408786
Si Si4 0.342016 0.577257 0.586851
Si Si5 0.864457 0.224412 0.299016
Si Si6 0.000000 0.203362 0.092430
O O1 0.728761 0.500000 0.169680
O O2 0.814992 0.594297 0.265064
O O3 0.676985 0.647015 0.167265
O O4 0.883547 0.594680 0.126482
O O5 0.500000 0.090158 0.844860
O O6 0.292728 0.083649 0.908145
O O7 0.372234 0.204793 0.852571
O O8 0.500000 0.121099 0.500000
O O9 0.500000 0.213028 0.384252
O O10 0.377589 0.574879 0.500000
O O11 0.376556 0.500000 0.623114
O O12 0.394519 0.652186 0.618459
O O13 0.750000 0.250000 0.250000
O O14 0.000000 0.217843 0.270008
O O15 0.000000 0.208272 0.000000
#
# Coordination Sequence:
#
# PCOD9521582 Si02
#       6
#    16  16   8  16  16   8
#     4  11  22  37  59  86 121 156 196 259 322 374
#     4  10  20  37  57  78 115 160 198 235 291 355
#     4  11  23  39  63  91 116 157 217 269 321 393
#     4  10  20  34  54  82 116 155 197 240 290 352
#     4   9  20  38  61  89 121 164 206 248 304 369
#     4   9  19  37  57  79 115 156 195 250 306 354
#
# _framework density 21.247914000000002
#
# number of rings (size 3 to 8) (size 9 to 14) (size 15 to 20)
#    0.000    2.000    1.000    2.400    1.400    4.000 
#    7.200    1.000    0.000    1.800    0.000    1.400 
#    0.000    0.000    0.000    0.000    0.000    0.000 
#
# Total GULP energy -222740.108246 kJ/mol
# GULP energy per Si atom -5568.502706 kJ/mol
# Density = 2.119955 g / cm^3
# Si number density = 21.247914 Si / 1000 Ang^3
#
#
#
# Elastic Constant Matrix: (Units=GPa)
#
#
# Indices 1 2 3 4 5 6 
#
# 1 109.7234 32.7433 20.6279 0.0000 0.0000 0.0000
# 2 32.7433 179.5844 13.7382 0.0000 0.0000 0.0000
# 3 20.6279 13.7382 54.4761 0.0000 0.0000 0.0000
# 4 0.0000 0.0000 0.0000 16.1173 0.0000 0.0000
# 5 0.0000 0.0000 0.0000 0.0000 13.6552 0.0000
# 6 0.0000 0.0000 0.0000 0.0000 0.0000 -179.4677
#
#
#
# Elastic Compliance Matrix: (Units=1/GPa)
#
#
# Indices 1 2 3 4 5 6 
#
# 1 0.010245 -0.001602 -0.003475 0.000000 0.000000 0.000000
# 2 -0.001602 0.005928 -0.000888 0.000000 0.000000 0.000000
# 3 -0.003475 -0.000888 0.019897 0.000000 0.000000 0.000000
# 4 0.000000 0.000000 0.000000 0.062045 0.000000 0.000000
# 5 0.000000 0.000000 0.000000 0.000000 0.073232 0.000000
# 6 0.000000 0.000000 0.000000 0.000000 0.000000 -0.005572
#
#
# Mechanical properties :
#
#
# Convention : Reuss Voigt Hill
#
# Bulk Modulus (GPa) = 41.42758 53.11143 47.26950
# Shear Modulus (GPa) = 26.91734 -11.49407 7.71163
#
# Velocity S-wave (km/s) = 3.56311 -2.32836 1.90715
# Velocity P-wave (km/s) = 6.03881 4.22161 5.21005
#
# Compressibility (1/GPa) = 0.02413851
#
# Stress axis : x y z
#
# Youngs Moduli (GPa) = 97.60561 168.67692 50.25948
#
# Poissons Ratio (x) = 0.27024 0.17467
# Poissons Ratio (y) = 0.15638 0.04465
# Poissons Ratio (z) = 0.33922 0.14986
#
# Static dielectric constant tensor:
#      x y z
#    x 1.803440 0.000000 0.000000 
#    y 0.000000 1.823050 0.000000 
#    z 0.000000 0.000000 1.797890 
# 
# From -- ./inp_files/51738.got.cif
#   From: 2010.05.17/outbox.cif.g08.bks.cpg/sg71_26_cif.got.tgz:51738.got - 2010.06.03 16:22:01.
