data_PCOD9521975
_publ_section_title
;
Structure prediction by ZEFSAII (Michael W. Deem and Ramdas Pophale) SiO2 
 PCOD9521975
Probable space group: I M M M
;
_chemical_formula_sum "Si O2"
_cell_formula_units_Z 90
_cell_length_a 25.093605
_cell_length_b 22.781879
_cell_length_c 7.857429
_cell_angle_alpha 90.000000
_cell_angle_beta 90.000000
_cell_angle_gamma 90.000000
_cell_volume 4491.930868
_symmetry_space_group_name_H-M "I M M M"
_symmetry_group_IT_number 71
_symmetry_cell_setting 'orthorhombic'
loop_
_space_group_symop_operation_xyz
x,y,z
-x,-y,z
x,-y,-z
-x,y,-z
-x,-y,-z
x,y,-z
-x,y,z
x,-y,z
1/2+x,1/2+y,1/2+z
1/2-x,1/2-y,1/2+z
1/2+x,1/2-y,1/2-z
1/2-x,1/2+y,1/2-z
1/2-x,1/2-y,1/2-z
1/2+x,1/2+y,1/2-z
1/2-x,1/2+y,1/2+z
1/2+x,1/2-y,1/2+z
loop_
_atom_site_type_symbol
_atom_site_label
_atom_site_fract_x
_atom_site_fract_y
_atom_site_fract_z
Si Si1 0.909735 0.500000 0.196468
Si Si2 0.500000 0.650976 0.701710
Si Si3 0.672759 0.898918 0.791845
Si Si4 0.000000 0.714641 0.203562
Si Si5 0.209038 0.065412 0.795743
Si Si6 0.385074 0.347518 0.798533
Si Si7 0.884682 0.714437 0.702427
Si Si8 0.000000 0.500000 0.500000
O O1 0.871040 0.556074 0.223227
O O2 0.953476 0.500000 0.346742
O O3 0.929855 0.500000 0.000000
O O4 0.500000 0.654330 0.500000
O O5 0.500000 0.718037 0.771089
O O6 0.556993 0.625731 0.753818
O O7 0.732124 0.916139 0.736090
O O8 0.657453 0.833130 0.735627
O O9 0.670825 0.901527 0.000000
O O10 0.055886 0.689304 0.264796
O O11 0.000000 0.714662 0.000000
O O12 0.163559 0.112021 0.754641
O O13 0.196071 0.000000 0.731630
O O14 0.212225 0.062638 0.000000
O O15 0.381535 0.280735 0.725212
O O16 0.383685 0.342117 0.000000
O O17 0.877937 0.718854 0.500000
#
# Coordination Sequence:
#
# PCOD9521975 Si02
#       8
#     8   8  16   8  16  16  16   2
#     4  12  25  43  69  96 123 170 227 266 323 381
#     4   9  17  33  57  81 113 156 192 229 290 365
#     4  10  20  41  64  84 120 168 208 258 315 368
#     4   9  17  30  50  78 114 151 189 238 290 349
#     4  10  21  38  62  84 111 161 214 248 304 377
#     4  10  20  35  56  90 124 153 196 250 307 366
#     4   9  19  34  57  83 116 160 197 238 309 377
#     4  12  26  48  68  90 140 172 210 290 326 358
#
# _framework density 20.035927000000001
#
# number of rings (size 3 to 8) (size 9 to 14) (size 15 to 20)
#    0.000    2.133    1.778    1.200    0.000    6.044 
#    0.000    0.444    0.000    2.667    0.000    0.000 
#    0.000    0.000    0.000    0.000    0.000    0.000 
#
# Total GULP energy -250747.750475 kJ/mol
# GULP energy per Si atom -5572.172233 kJ/mol
# Density = 1.999032 g / cm^3
# Si number density = 20.035927 Si / 1000 Ang^3
#
#
#
# Elastic Constant Matrix: (Units=GPa)
#
#
# Indices 1 2 3 4 5 6 
#
# 1 152.0935 79.0927 34.4454 0.0000 0.0000 0.0000
# 2 79.0927 104.7813 18.5851 0.0000 0.0000 0.0000
# 3 34.4454 18.5851 62.3638 0.0000 0.0000 0.0000
# 4 0.0000 0.0000 0.0000 15.9500 0.0000 0.0000
# 5 0.0000 0.0000 0.0000 0.0000 22.8644 0.0000
# 6 0.0000 0.0000 0.0000 0.0000 0.0000 -5.7530
#
#
#
# Elastic Compliance Matrix: (Units=1/GPa)
#
#
# Indices 1 2 3 4 5 6 
#
# 1 0.011719 -0.008127 -0.004051 0.000000 0.000000 0.000000
# 2 -0.008127 0.015713 -0.000194 0.000000 0.000000 0.000000
# 3 -0.004051 -0.000194 0.018330 0.000000 0.000000 0.000000
# 4 0.000000 0.000000 0.000000 0.062696 0.000000 0.000000
# 5 0.000000 0.000000 0.000000 0.000000 0.043736 0.000000
# 6 0.000000 0.000000 0.000000 0.000000 0.000000 -0.173822
#
#
# Mechanical properties :
#
#
# Convention : Reuss Voigt Hill
#
# Bulk Modulus (GPa) = 47.57734 64.83169 56.20452
# Shear Modulus (GPa) = 494.05344 19.08664 256.57004
#
# Velocity S-wave (km/s) = 15.72002 3.08980 11.32841
# Velocity P-wave (km/s) = 18.79600 6.71991 14.11465
#
# Compressibility (1/GPa) = 0.02101841
#
# Stress axis : x y z
#
# Youngs Moduli (GPa) = 85.33437 63.64266 54.55568
#
# Poissons Ratio (x) = 0.51724 0.22098
# Poissons Ratio (y) = 0.69353 0.01057
# Poissons Ratio (z) = 0.34565 0.01233
#
# Static dielectric constant tensor:
#      x y z
#    x 1.683480 0.000000 0.000000 
#    y 0.000000 1.754880 0.000000 
#    z 0.000000 0.000000 1.719050 
# 
# From -- ./inp_files/10601.got.cif
#   From: 2010.05.17/outbox.cif.g08.bks.cpg/sg71_6_cif.got.tgz:10601.got - 2010.06.03 16:22:01.
