data_PCOD9521365
_publ_section_title
;
Structure prediction by ZEFSAII (Michael W. Deem and Ramdas Pophale) SiO2 
 PCOD9521365
Probable space group: I M M M
;
_chemical_formula_sum "Si O2"
_cell_formula_units_Z 116
_cell_length_a 25.239347
_cell_length_b 30.503576
_cell_length_c 7.950269
_cell_angle_alpha 90.000000
_cell_angle_beta 90.000000
_cell_angle_gamma 90.000000
_cell_volume 6120.835299
_symmetry_space_group_name_H-M "I M M M"
_symmetry_group_IT_number 71
_symmetry_cell_setting 'orthorhombic'
loop_
_space_group_symop_operation_xyz
x,y,z
-x,-y,z
x,-y,-z
-x,y,-z
-x,-y,-z
x,y,-z
-x,y,z
x,-y,z
1/2+x,1/2+y,1/2+z
1/2-x,1/2-y,1/2+z
1/2+x,1/2-y,1/2-z
1/2-x,1/2+y,1/2-z
1/2-x,1/2-y,1/2-z
1/2+x,1/2+y,1/2-z
1/2-x,1/2+y,1/2+z
1/2+x,1/2-y,1/2+z
loop_
_atom_site_type_symbol
_atom_site_label
_atom_site_fract_x
_atom_site_fract_y
_atom_site_fract_z
Si Si1 0.135151 0.066428 0.702083
Si Si2 0.756061 0.699983 0.304261
Si Si3 0.239805 0.450948 0.201105
Si Si4 0.895149 0.000000 0.000000
Si Si5 0.059717 0.238728 0.299559
Si Si6 0.642900 0.667471 0.201224
Si Si7 0.940627 0.663282 0.198808
Si Si8 0.165208 0.628477 0.301025
O O1 0.125575 0.055862 0.500000
O O2 0.198360 0.059632 0.732190
O O3 0.123727 0.117899 0.726512
O O4 0.107483 0.037760 0.846790
O O5 0.767759 0.702098 0.500000
O O6 0.750000 0.750000 0.250000
O O7 0.700659 0.675342 0.276750
O O8 0.802316 0.670059 0.225680
O O9 0.229253 0.500000 0.266808
O O10 0.200390 0.414293 0.268265
O O11 0.233710 0.451367 0.000000
O O12 0.057179 0.231593 0.500000
O O13 0.101972 0.203906 0.233112
O O14 0.075132 0.289207 0.271853
O O15 0.000000 0.233084 0.231008
O O16 0.649179 0.673479 0.000000
O O17 0.894468 0.628923 0.234865
O O18 0.000000 0.652505 0.262552
O O19 0.943910 0.668839 0.000000
O O20 0.160890 0.633771 0.500000
#
# Coordination Sequence:
#
# PCOD9521365 Si02
#       8
#    16  16  16   4  16  16  16  16
#     4  10  21  35  53  81 112 148 188 234 281 343
#     4  11  23  34  48  73 108 147 183 216 267 335
#     4  10  20  35  54  77 109 143 179 225 276 328
#     4  12  22  32  60  78 113 150 191 230 294 332
#     4   9  18  34  56  80 107 142 186 232 277 326
#     4  10  20  34  52  76 111 144 179 228 279 329
#     4  10  21  37  56  78 105 141 183 228 277 327
#     4  11  23  35  53  79 107 140 183 225 272 330
#
# _framework density 18.951661000000001
#
# number of rings (size 3 to 8) (size 9 to 14) (size 15 to 20)
#    0.000    1.793    2.069    2.276    1.931    6.621 
#    0.000    0.000    0.000    0.414    0.000    3.862 
#    0.000    3.310    0.000    0.000    0.000    0.000 
#
# Total GULP energy -323015.179736 kJ/mol
# GULP energy per Si atom -5569.227237 kJ/mol
# Density = 1.890853 g / cm^3
# Si number density = 18.951661 Si / 1000 Ang^3
#
#
#
# Elastic Constant Matrix: (Units=GPa)
#
#
# Indices 1 2 3 4 5 6 
#
# 1 37.3948 -2.7661 -5.8263 0.0000 0.0000 0.0000
# 2 -2.7661 40.3482 3.4366 0.0000 0.0000 0.0000
# 3 -5.8263 3.4366 43.2160 0.0000 0.0000 0.0000
# 4 0.0000 0.0000 0.0000 31.8506 0.0000 0.0000
# 5 0.0000 0.0000 0.0000 0.0000 13.8345 0.0000
# 6 0.0000 0.0000 0.0000 0.0000 0.0000 8.5118
#
#
#
# Elastic Compliance Matrix: (Units=1/GPa)
#
#
# Indices 1 2 3 4 5 6 
#
# 1 0.027415 0.001575 0.003571 0.000000 0.000000 0.000000
# 2 0.001575 0.025044 -0.001779 0.000000 0.000000 0.000000
# 3 0.003571 -0.001779 0.023762 0.000000 0.000000 0.000000
# 4 0.000000 0.000000 0.000000 0.031397 0.000000 0.000000
# 5 0.000000 0.000000 0.000000 0.000000 0.072283 0.000000
# 6 0.000000 0.000000 0.000000 0.000000 0.000000 0.117484
#
#
# Mechanical properties :
#
#
# Convention : Reuss Voigt Hill
#
# Bulk Modulus (GPa) = 12.05482 12.29418 12.17450
# Shear Modulus (GPa) = 15.70832 19.24703 17.47767
#
# Velocity S-wave (km/s) = 2.88212 3.19028 3.04011
# Velocity P-wave (km/s) = 4.17734 4.48015 4.33139
#
# Compressibility (1/GPa) = 0.08295434
#
# Stress axis : x y z
#
# Youngs Moduli (GPa) = 36.47703 39.93009 42.08319
#
# Poissons Ratio (x) = -0.06290 -0.15027
# Poissons Ratio (y) = -0.05746 0.07487
# Poissons Ratio (z) = -0.13025 0.07104
#
# Static dielectric constant tensor:
#      x y z
#    x 1.769360 0.000000 0.000000 
#    y 0.000000 1.672210 0.000000 
#    z 0.000000 0.000000 1.683330 
# 
# From -- ./inp_files/13711.got.cif
#   From: 2010.05.17/outbox.cif.g08.bks.cpg/sg71_7_cif.got.tgz:13711.got - 2010.06.03 16:22:01.
