data_PCOD9521190
_publ_section_title
;
Structure prediction by ZEFSAII (Michael W. Deem and Ramdas Pophale) SiO2 
 PCOD9521190
Probable space group: I M M M
;
_chemical_formula_sum "Si O2"
_cell_formula_units_Z 72
_cell_length_a 30.878796
_cell_length_b 12.819019
_cell_length_c 11.182588
_cell_angle_alpha 90.000000
_cell_angle_beta 90.000000
_cell_angle_gamma 90.000000
_cell_volume 4426.469479
_symmetry_space_group_name_H-M "I M M M"
_symmetry_group_IT_number 71
_symmetry_cell_setting 'orthorhombic'
loop_
_space_group_symop_operation_xyz
x,y,z
-x,-y,z
x,-y,-z
-x,y,-z
-x,-y,-z
x,y,-z
-x,y,z
x,-y,z
1/2+x,1/2+y,1/2+z
1/2-x,1/2-y,1/2+z
1/2+x,1/2-y,1/2-z
1/2-x,1/2+y,1/2-z
1/2-x,1/2-y,1/2-z
1/2+x,1/2+y,1/2-z
1/2-x,1/2+y,1/2+z
1/2+x,1/2-y,1/2+z
loop_
_atom_site_type_symbol
_atom_site_label
_atom_site_fract_x
_atom_site_fract_y
_atom_site_fract_z
Si Si1 0.322468 0.758389 0.702263
Si Si2 0.948428 0.728755 0.000000
Si Si3 0.868641 0.124397 0.000000
Si Si4 0.049867 0.626470 0.500000
Si Si5 0.762868 0.882955 0.361548
Si Si6 0.089250 0.374684 0.242896
O O1 0.343551 0.675970 0.611214
O O2 0.284324 0.830394 0.649659
O O3 0.298242 0.690963 0.801839
O O4 0.361842 0.832167 0.740433
O O5 0.934841 0.668238 0.123063
O O6 0.917716 0.831059 0.000000
O O7 0.000000 0.746439 0.000000
O O8 0.867279 0.000000 0.000000
O O9 0.052172 0.500000 0.500000
O O10 0.069921 0.659219 0.627954
O O11 0.000000 0.658204 0.500000
O O12 0.773246 0.890506 0.500000
O O13 0.762406 0.000000 0.308815
O O14 0.087967 0.500000 0.237183
#
# Coordination Sequence:
#
# PCOD9521190 Si02
#       6
#    16   8   8   8  16  16
#     4  10  20  34  52  76 103 135 173 213 256 311
#     4  10  21  35  54  82 105 135 176 217 262 315
#     4  10  20  36  54  75 104 135 169 215 265 313
#     4   9  18  32  49  72 103 138 168 201 251 307
#     4  10  20  34  53  74 102 136 172 215 258 303
#     4  10  20  33  53  78 108 140 172 213 259 311
#
# _framework density 16.265785000000001
#
# number of rings (size 3 to 8) (size 9 to 14) (size 15 to 20)
#    0.000    2.111    1.111    2.333    1.556    2.000 
#    0.000    0.000    0.000    0.000    0.000    0.000 
#    0.000    9.333    0.000    0.000    0.000    0.000 
#
# Total GULP energy -200505.706031 kJ/mol
# GULP energy per Si atom -5569.602945 kJ/mol
# Density = 1.622876 g / cm^3
# Si number density = 16.265785 Si / 1000 Ang^3
#
#
#
# Elastic Constant Matrix: (Units=GPa)
#
#
# Indices 1 2 3 4 5 6 
#
# 1 108.8858 -0.6767 44.5760 0.0000 0.0000 0.0000
# 2 -0.6767 41.1554 14.0738 0.0000 0.0000 0.0000
# 3 44.5760 14.0738 106.0827 0.0000 0.0000 0.0000
# 4 0.0000 0.0000 0.0000 10.9205 0.0000 0.0000
# 5 0.0000 0.0000 0.0000 0.0000 -2.7296 0.0000
# 6 0.0000 0.0000 0.0000 0.0000 0.0000 14.2591
#
#
#
# Elastic Compliance Matrix: (Units=1/GPa)
#
#
# Indices 1 2 3 4 5 6 
#
# 1 0.011230 0.001884 -0.004969 0.000000 0.000000 0.000000
# 2 0.001884 0.025769 -0.004210 0.000000 0.000000 0.000000
# 3 -0.004969 -0.004210 0.012073 0.000000 0.000000 0.000000
# 4 0.000000 0.000000 0.000000 0.091571 0.000000 0.000000
# 5 0.000000 0.000000 0.000000 0.000000 -0.366358 0.000000
# 6 0.000000 0.000000 0.000000 0.000000 0.000000 0.070131
#
#
# Mechanical properties :
#
#
# Convention : Reuss Voigt Hill
#
# Bulk Modulus (GPa) = 29.00122 41.34112 35.17117
# Shear Modulus (GPa) = -38.60979 17.70005 -10.45487
#
# Velocity S-wave (km/s) = -4.87733 3.30233 -2.53801
# Velocity P-wave (km/s) = 3.72149 6.32548 3.61678
#
# Compressibility (1/GPa) = 0.03448131
#
# Stress axis : x y z
#
# Youngs Moduli (GPa) = 89.04939 38.80648 82.82946
#
# Poissons Ratio (x) = -0.07310 0.41155
# Poissons Ratio (y) = -0.16775 0.34873
# Poissons Ratio (z) = 0.44246 0.16339
#
# Static dielectric constant tensor:
#      x y z
#    x 1.524160 0.000000 0.000000 
#    y 0.000000 1.533540 0.000000 
#    z 0.000000 0.000000 0.954770 
# 
# From -- ./inp_files/16410.got.cif
#   From: 2010.05.17/outbox.cif.g08.bks.cpg/sg71_9_cif.got.tgz:16410.got - 2010.06.03 16:22:01.
