data_PCOD9521657
_publ_section_title
;
Structure prediction by ZEFSAII (Michael W. Deem and Ramdas Pophale) SiO2 
 PCOD9521657
Probable space group: I M M M
;
_chemical_formula_sum "Si O2"
_cell_formula_units_Z 80
_cell_length_a 17.532333
_cell_length_b 7.966522
_cell_length_c 27.991898
_cell_angle_alpha 90.000000
_cell_angle_beta 90.000000
_cell_angle_gamma 90.000000
_cell_volume 3909.676443
_symmetry_space_group_name_H-M "I M M M"
_symmetry_group_IT_number 71
_symmetry_cell_setting 'orthorhombic'
loop_
_space_group_symop_operation_xyz
x,y,z
-x,-y,z
x,-y,-z
-x,y,-z
-x,-y,-z
x,y,-z
-x,y,z
x,-y,z
1/2+x,1/2+y,1/2+z
1/2-x,1/2-y,1/2+z
1/2+x,1/2-y,1/2-z
1/2-x,1/2+y,1/2-z
1/2-x,1/2-y,1/2-z
1/2+x,1/2+y,1/2-z
1/2-x,1/2+y,1/2+z
1/2+x,1/2-y,1/2+z
loop_
_atom_site_type_symbol
_atom_site_label
_atom_site_fract_x
_atom_site_fract_y
_atom_site_fract_z
Si Si1 0.412481 0.200462 0.683611
Si Si2 0.149938 0.700283 0.389121
Si Si3 0.412157 0.700357 0.210446
Si Si4 0.182488 0.200831 0.908382
Si Si5 0.000000 0.294289 0.555421
Si Si6 0.587842 0.294009 0.500000
O O1 0.500000 0.263637 0.678233
O O2 0.385869 0.250355 0.736617
O O3 0.360065 0.265833 0.641287
O O4 0.414016 0.000000 0.680928
O O5 0.151060 0.500000 0.396713
O O6 0.137208 0.731519 0.333057
O O7 0.231294 0.768572 0.406313
O O8 0.076014 0.765454 0.417448
O O9 0.500000 0.762870 0.205133
O O10 0.413243 0.500000 0.207188
O O11 0.132411 0.263507 0.952738
O O12 0.187738 0.000000 0.914278
O O13 0.000000 0.500000 0.557181
O O14 0.000000 0.246207 0.500000
O O15 0.587192 0.500000 0.500000
O O16 0.500000 0.239717 0.500000
#
# Coordination Sequence:
#
# PCOD9521657 Si02
#       6
#    16  16  16  16   8   8
#     4  10  21  37  58  82 110 145 186 230 280 334
#     4  10  20  34  55  83 115 148 185 229 276 327
#     4  10  20  35  57  82 110 147 188 229 276 332
#     4  10  21  35  55  84 114 145 185 230 276 327
#     4   9  18  32  55  83 113 151 189 228 275 324
#     4   9  18  34  57  82 112 147 182 227 277 325
#
# _framework density 20.462053000000001
#
# number of rings (size 3 to 8) (size 9 to 14) (size 15 to 20)
#    0.000    2.200    1.000    1.800    1.400    4.400 
#    0.000    0.500    0.000    3.000    0.000    0.000 
#    0.000    0.000    0.000    0.000    0.000    0.000 
#
# Total GULP energy -223417.366768 kJ/mol
# GULP energy per Si atom -5585.434169 kJ/mol
# Density = 2.041548 g / cm^3
# Si number density = 20.462053 Si / 1000 Ang^3
#
#
#
# Elastic Constant Matrix: (Units=GPa)
#
#
# Indices 1 2 3 4 5 6 
#
# 1 180.7400 9.8437 120.9971 0.0000 0.0000 0.0000
# 2 9.8437 15.3568 -6.1805 0.0000 0.0000 0.0000
# 3 120.9971 -6.1805 164.2029 0.0000 0.0000 0.0000
# 4 0.0000 0.0000 0.0000 17.4048 0.0000 0.0000
# 5 0.0000 0.0000 0.0000 0.0000 31.6216 0.0000
# 6 0.0000 0.0000 0.0000 0.0000 0.0000 11.3227
#
#
#
# Elastic Compliance Matrix: (Units=1/GPa)
#
#
# Indices 1 2 3 4 5 6 
#
# 1 0.012841 -0.012225 -0.009923 0.000000 0.000000 0.000000
# 2 -0.012225 0.077757 0.011935 0.000000 0.000000 0.000000
# 3 -0.009923 0.011935 0.013851 0.000000 0.000000 0.000000
# 4 0.000000 0.000000 0.000000 0.057455 0.000000 0.000000
# 5 0.000000 0.000000 0.000000 0.000000 0.031624 0.000000
# 6 0.000000 0.000000 0.000000 0.000000 0.000000 0.088318
#
#
# Mechanical properties :
#
#
# Convention : Reuss Voigt Hill
#
# Bulk Modulus (GPa) = 11.90136 67.73559 39.81848
# Shear Modulus (GPa) = 15.13870 27.77912 21.45891
#
# Velocity S-wave (km/s) = 2.72296 3.68855 3.24190
# Velocity P-wave (km/s) = 3.96420 7.16348 5.78923
#
# Compressibility (1/GPa) = 0.08402401
#
# Stress axis : x y z
#
# Youngs Moduli (GPa) = 77.87361 12.86063 72.19717
#
# Poissons Ratio (x) = 0.15722 0.71638
# Poissons Ratio (y) = 0.95198 -0.86166
# Poissons Ratio (z) = 0.77271 -0.15349
#
# Static dielectric constant tensor:
#      x y z
#    x 1.725430 0.000000 0.000000 
#    y 0.000000 1.738310 0.000000 
#    z 0.000000 0.000000 1.687320 
# 
# From -- ./inp_files/63057.got.cif
#   From: 2010.05.17/outbox.cif.g08.bks.cpg/sg71_32_cif.got.tgz:63057.got - 2010.06.03 16:22:01.
