data_PCOD9521609
_publ_section_title
;
Structure prediction by ZEFSAII (Michael W. Deem and Ramdas Pophale) SiO2 
 PCOD9521609
Probable space group: I M M M
;
_chemical_formula_sum "Si O2"
_cell_formula_units_Z 92
_cell_length_a 7.668381
_cell_length_b 29.409117
_cell_length_c 24.790746
_cell_angle_alpha 90.000000
_cell_angle_beta 90.000000
_cell_angle_gamma 90.000000
_cell_volume 5590.816823
_symmetry_space_group_name_H-M "I M M M"
_symmetry_group_IT_number 71
_symmetry_cell_setting 'orthorhombic'
loop_
_space_group_symop_operation_xyz
x,y,z
-x,-y,z
x,-y,-z
-x,y,-z
-x,-y,-z
x,y,-z
-x,y,z
x,-y,z
1/2+x,1/2+y,1/2+z
1/2-x,1/2-y,1/2+z
1/2+x,1/2-y,1/2-z
1/2-x,1/2+y,1/2-z
1/2-x,1/2-y,1/2-z
1/2+x,1/2+y,1/2-z
1/2-x,1/2+y,1/2+z
1/2+x,1/2-y,1/2+z
loop_
_atom_site_type_symbol
_atom_site_label
_atom_site_fract_x
_atom_site_fract_y
_atom_site_fract_z
Si Si1 0.500000 0.450685 0.146440
Si Si2 0.306557 0.731040 0.500000
Si Si3 0.792086 0.448513 0.762384
Si Si4 0.289376 0.790499 0.881260
Si Si5 0.000000 0.802722 0.500000
Si Si6 0.500000 0.643305 0.891375
Si Si7 0.705346 0.806687 0.326177
Si Si8 0.210296 0.648216 0.285651
O O1 0.500000 0.500000 0.121077
O O2 0.331200 0.446718 0.185359
O O3 0.500000 0.410253 0.105079
O O4 0.500000 0.750221 0.500000
O O5 0.279666 0.706207 0.442462
O O6 0.166475 0.770607 0.500000
O O7 0.766825 0.500000 0.739145
O O8 0.740305 0.403880 0.727746
O O9 0.000000 0.444301 0.774277
O O10 0.500000 0.790190 0.884762
O O11 0.237812 0.743488 0.850736
O O12 0.227891 0.830835 0.841934
O O13 0.000000 0.832553 0.552347
O O14 0.670088 0.660089 0.859327
O O15 0.500000 0.816834 0.331696
O O16 0.754621 0.817404 0.263756
O O17 0.000000 0.648299 0.288355
#
# Coordination Sequence:
#
# PCOD9521609 Si02
#       8
#     8   8  16  16   4   8  16  16
#     4  10  20  34  55  80 102 132 175 212 258 318
#     4  12  22  38  54  71  96 140 189 218 248 307
#     4   9  17  32  52  76 107 138 167 207 255 312
#     4  11  20  35  52  73 107 140 170 215 258 303
#     4  12  24  40  55  72 104 134 185 226 260 294
#     4  12  22  36  57  76 102 140 172 224 262 302
#     4  11  20  34  51  76 105 135 170 207 256 320
#     4   9  19  31  50  79 108 136 167 207 262 314
#
# _framework density 16.455556999999999
#
# number of rings (size 3 to 8) (size 9 to 14) (size 15 to 20)
#    0.000    1.565    5.217    1.043    0.000    0.000 
#    6.261    0.217    0.000    0.000    0.000    0.609 
#    0.000    9.739    0.000    0.000    0.000    0.000 
#
# Total GULP energy -256371.433573 kJ/mol
# GULP energy per Si atom -5573.292034 kJ/mol
# Density = 1.641810 g / cm^3
# Si number density = 16.455557 Si / 1000 Ang^3
#
#
#
# Elastic Constant Matrix: (Units=GPa)
#
#
# Indices 1 2 3 4 5 6 
#
# 1 81.9239 6.8500 20.6699 0.0000 0.0000 0.0000
# 2 6.8500 30.8518 17.1702 0.0000 0.0000 0.0000
# 3 20.6699 17.1702 107.6177 0.0000 0.0000 0.0000
# 4 0.0000 0.0000 0.0000 23.6343 0.0000 0.0000
# 5 0.0000 0.0000 0.0000 0.0000 12.6427 0.0000
# 6 0.0000 0.0000 0.0000 0.0000 0.0000 5.2777
#
#
#
# Elastic Compliance Matrix: (Units=1/GPa)
#
#
# Indices 1 2 3 4 5 6 
#
# 1 0.012902 -0.001630 -0.002218 0.000000 0.000000 0.000000
# 2 -0.001630 0.035778 -0.005395 0.000000 0.000000 0.000000
# 3 -0.002218 -0.005395 0.010579 0.000000 0.000000 0.000000
# 4 0.000000 0.000000 0.000000 0.042311 0.000000 0.000000
# 5 0.000000 0.000000 0.000000 0.000000 0.079097 0.000000
# 6 0.000000 0.000000 0.000000 0.000000 0.000000 0.189476
#
#
# Mechanical properties :
#
#
# Convention : Reuss Voigt Hill
#
# Bulk Modulus (GPa) = 24.52663 34.41928 29.47295
# Shear Modulus (GPa) = 12.43100 20.02452 16.22776
#
# Velocity S-wave (km/s) = 2.75149 3.49217 3.14372
# Velocity P-wave (km/s) = 5.00314 6.10101 5.57914
#
# Compressibility (1/GPa) = 0.04077201
#
# Stress axis : x y z
#
# Youngs Moduli (GPa) = 77.50503 27.95052 94.52745
#
# Poissons Ratio (x) = 0.04557 0.20966
# Poissons Ratio (y) = 0.12636 0.50999
# Poissons Ratio (z) = 0.17191 0.15080
#
# Static dielectric constant tensor:
#      x y z
#    x 1.557280 0.000000 0.000000 
#    y 0.000000 1.569080 0.000000 
#    z 0.000000 0.000000 1.537270 
# 
# From -- ./inp_files/57950.got.cif
#   From: 2010.05.17/outbox.cif.g08.bks.cpg/sg71_29_cif.got.tgz:57950.got - 2010.06.03 16:22:01.
