data_PCOD9521591
_publ_section_title
;
Structure prediction by ZEFSAII (Michael W. Deem and Ramdas Pophale) SiO2 
 PCOD9521591
Probable space group: I M M M
;
_chemical_formula_sum "Si O2"
_cell_formula_units_Z 104
_cell_length_a 13.763223
_cell_length_b 22.779528
_cell_length_c 17.293218
_cell_angle_alpha 90.000000
_cell_angle_beta 90.000000
_cell_angle_gamma 90.000000
_cell_volume 5421.764929
_symmetry_space_group_name_H-M "I M M M"
_symmetry_group_IT_number 71
_symmetry_cell_setting 'orthorhombic'
loop_
_space_group_symop_operation_xyz
x,y,z
-x,-y,z
x,-y,-z
-x,y,-z
-x,-y,-z
x,y,-z
-x,y,z
x,-y,z
1/2+x,1/2+y,1/2+z
1/2-x,1/2-y,1/2+z
1/2+x,1/2-y,1/2-z
1/2-x,1/2+y,1/2-z
1/2-x,1/2-y,1/2-z
1/2+x,1/2+y,1/2-z
1/2-x,1/2+y,1/2+z
1/2+x,1/2-y,1/2+z
loop_
_atom_site_type_symbol
_atom_site_label
_atom_site_fract_x
_atom_site_fract_y
_atom_site_fract_z
Si Si1 0.616547 0.570108 0.000000
Si Si2 0.823410 0.929386 0.915362
Si Si3 0.230181 0.139011 0.367986
Si Si4 0.112785 0.840015 0.787720
Si Si5 0.114329 0.737773 0.087756
Si Si6 0.105915 0.571270 0.616062
Si Si7 0.396290 0.069686 0.705490
O O1 0.657970 0.607079 0.072730
O O2 0.645249 0.500000 0.000000
O O3 0.500000 0.571220 0.000000
O O4 0.868034 0.896742 0.842001
O O5 0.709224 0.911687 0.918050
O O6 0.828327 0.000000 0.905509
O O7 0.866921 0.915374 0.000000
O O8 0.176213 0.160380 0.290022
O O9 0.301799 0.188921 0.402301
O O10 0.305865 0.089833 0.341806
O O11 0.131600 0.785822 0.845749
O O12 0.000000 0.838785 0.765386
O O13 0.000000 0.718473 0.095692
O O14 0.122416 0.761707 0.000000
O O15 0.103796 0.500000 0.611326
O O16 0.110663 0.589671 0.705740
O O17 0.000000 0.591285 0.586395
O O18 0.500000 0.090308 0.673545
O O19 0.398035 0.000000 0.708837
#
# Coordination Sequence:
#
# PCOD9521591 Si02
#       7
#     8  16  16  16  16  16  16
#     4  11  26  44  63  93 133 173 209 252 308 366
#     4  10  20  34  54  83 118 157 201 249 304 365
#     4  12  21  40  65  90 118 160 207 253 303 367
#     4  11  24  40  61  87 117 159 209 257 304 366
#     4  10  22  42  66  93 121 152 197 254 321 377
#     4   8  14  27  47  73 108 148 186 227 283 352
#     4   9  17  30  53  86 120 152 189 242 304 363
#
# _framework density 19.181946
#
# number of rings (size 3 to 8) (size 9 to 14) (size 15 to 20)
#    0.000    1.923    2.308    3.231    0.000    2.154 
#    0.000    2.308    0.000    2.769    0.000    0.000 
#    0.000    0.000    0.000    0.000    0.000    0.000 
#
# Total GULP energy -289735.885646 kJ/mol
# GULP energy per Si atom -5571.843955 kJ/mol
# Density = 1.913829 g / cm^3
# Si number density = 19.181946 Si / 1000 Ang^3
#
#
#
# Elastic Constant Matrix: (Units=GPa)
#
#
# Indices 1 2 3 4 5 6 
#
# 1 99.6393 33.7469 54.7558 0.0000 0.0000 0.0000
# 2 33.7469 64.7666 42.3088 0.0000 -0.0001 0.0000
# 3 54.7558 42.3088 124.4447 0.0000 -0.0002 0.0000
# 4 0.0000 0.0000 0.0000 25.8664 -0.0001 0.0000
# 5 0.0000 -0.0001 -0.0002 -0.0001 -144.0885 0.0000
# 6 0.0000 0.0000 0.0000 0.0000 0.0000 26.1616
#
#
#
# Elastic Compliance Matrix: (Units=1/GPa)
#
#
# Indices 1 2 3 4 5 6 
#
# 1 0.014084 -0.004230 -0.004759 0.000000 0.000000 0.000000
# 2 -0.004230 0.021118 -0.005319 0.000000 0.000000 0.000000
# 3 -0.004759 -0.005319 0.011938 0.000000 0.000000 0.000000
# 4 0.000000 0.000000 0.000000 0.038660 0.000000 0.000000
# 5 0.000000 0.000000 0.000000 0.000000 -0.006940 0.000000
# 6 0.000000 0.000000 0.000000 0.000000 0.000000 0.038224
#
#
# Mechanical properties :
#
#
# Convention : Reuss Voigt Hill
#
# Bulk Modulus (GPa) = 53.97979 61.16376 57.57177
# Shear Modulus (GPa) = 32.92191 -7.87617 12.52287
#
# Velocity S-wave (km/s) = 4.14732 -2.02853 2.55786
# Velocity P-wave (km/s) = 7.15092 5.14478 6.22914
#
# Compressibility (1/GPa) = 0.01852545
#
# Stress axis : x y z
#
# Youngs Moduli (GPa) = 71.00251 47.35186 83.76662
#
# Poissons Ratio (x) = 0.20029 0.39864
# Poissons Ratio (y) = 0.30032 0.44554
# Poissons Ratio (z) = 0.33790 0.25185
#
# Static dielectric constant tensor:
#      x y z
#    x 1.704950 0.000000 0.000000 
#    y 0.000000 1.668860 0.000000 
#    z 0.000000 0.000000 1.693840 
# 
# From -- ./inp_files/34901.got.cif
#   From: 2010.05.17/outbox.cif.g08.bks.cpg/sg71_18_cif.got.tgz:34901.got - 2010.06.03 16:22:01.
