data_PCOD9521819
_publ_section_title
;
Structure prediction by ZEFSAII (Michael W. Deem and Ramdas Pophale) SiO2 
 PCOD9521819
Probable space group: I M M M
;
_chemical_formula_sum "Si O2"
_cell_formula_units_Z 120
_cell_length_a 15.419945
_cell_length_b 14.926291
_cell_length_c 31.402440
_cell_angle_alpha 90.000000
_cell_angle_beta 90.000000
_cell_angle_gamma 90.000000
_cell_volume 7227.666806
_symmetry_space_group_name_H-M "I M M M"
_symmetry_group_IT_number 71
_symmetry_cell_setting 'orthorhombic'
loop_
_space_group_symop_operation_xyz
x,y,z
-x,-y,z
x,-y,-z
-x,y,-z
-x,-y,-z
x,y,-z
-x,y,z
x,-y,z
1/2+x,1/2+y,1/2+z
1/2-x,1/2-y,1/2+z
1/2+x,1/2-y,1/2-z
1/2-x,1/2+y,1/2-z
1/2-x,1/2-y,1/2-z
1/2+x,1/2+y,1/2-z
1/2-x,1/2+y,1/2+z
1/2+x,1/2-y,1/2+z
loop_
_atom_site_type_symbol
_atom_site_label
_atom_site_fract_x
_atom_site_fract_y
_atom_site_fract_z
Si Si1 0.347005 0.898079 0.209474
Si Si2 0.101319 0.391750 0.000000
Si Si3 0.735799 0.104697 0.331164
Si Si4 0.749208 0.894595 0.567174
Si Si5 0.103891 0.603306 0.616313
Si Si6 0.099962 0.243975 0.451272
Si Si7 0.656324 0.399833 0.751657
Si Si8 0.907141 0.281313 0.784492
O O1 0.350517 0.870567 0.160460
O O2 0.250232 0.898064 0.228451
O O3 0.400722 0.834956 0.240164
O O4 0.380347 0.000000 0.211236
O O5 0.161686 0.367655 0.041106
O O6 0.095543 0.500000 0.000000
O O7 0.000000 0.359564 0.000000
O O8 0.743284 0.114364 0.381663
O O9 0.821171 0.117816 0.301557
O O10 0.667248 0.175962 0.313447
O O11 0.709325 0.000000 0.322472
O O12 0.830940 0.835352 0.553311
O O13 0.763358 0.000000 0.557755
O O14 0.126838 0.500000 0.605761
O O15 0.123584 0.674478 0.579844
O O16 0.000000 0.605409 0.623532
O O17 0.101476 0.275491 0.500000
O O18 0.000000 0.216098 0.441712
O O19 0.620012 0.500000 0.747689
O O20 0.605079 0.321286 0.728930
O O21 0.000000 0.295767 0.805122
#
# Coordination Sequence:
#
# PCOD9521819 Si02
#       8
#    16   8  16  16  16  16  16  16
#     4   9  17  31  51  71  93 125 165 206 245 293
#     4   9  18  34  55  77 100 131 171 213 261 308
#     4   9  19  34  52  71  96 129 166 209 255 303
#     4  10  20  35  54  76 104 137 169 210 259 306
#     4   9  18  31  49  75 103 131 165 207 253 295
#     4  10  21  34  51  77 107 139 172 206 249 307
#     4   9  19  34  48  67  96 134 171 200 240 295
#     4  11  21  30  47  73 100 131 164 207 256 297
#
# _framework density 16.602868999999998
#
# number of rings (size 3 to 8) (size 9 to 14) (size 15 to 20)
#    0.000    2.467    0.667    3.200    3.733    2.933 
#    0.000    3.333    0.000    2.400    0.000    0.000 
#    0.000    1.067    0.000    0.000    0.000    0.133 
#
# Total GULP energy -334214.423268 kJ/mol
# GULP energy per Si atom -5570.240388 kJ/mol
# Density = 1.656508 g / cm^3
# Si number density = 16.602869 Si / 1000 Ang^3
#
#
#
# Elastic Constant Matrix: (Units=GPa)
#
#
# Indices 1 2 3 4 5 6 
#
# 1 50.2914 18.9326 21.4769 0.0000 0.0000 0.0000
# 2 18.9326 45.4852 30.1952 0.0000 0.0000 0.0000
# 3 21.4769 30.1952 101.5844 0.0000 0.0000 0.0000
# 4 0.0000 0.0000 0.0000 21.8039 0.0000 0.0000
# 5 0.0000 0.0000 0.0000 0.0000 5.6862 0.0000
# 6 0.0000 0.0000 0.0000 0.0000 0.0000 -0.3329
#
#
#
# Elastic Compliance Matrix: (Units=1/GPa)
#
#
# Indices 1 2 3 4 5 6 
#
# 1 0.024133 -0.008295 -0.002637 0.000000 0.000000 0.000000
# 2 -0.008295 0.030241 -0.007235 0.000000 0.000000 0.000000
# 3 -0.002637 -0.007235 0.012552 0.000000 0.000000 0.000000
# 4 0.000000 0.000000 0.000000 0.045863 0.000000 0.000000
# 5 0.000000 0.000000 0.000000 0.000000 0.175864 0.000000
# 6 0.000000 0.000000 0.000000 0.000000 0.000000 -3.003835
#
#
# Mechanical properties :
#
#
# Convention : Reuss Voigt Hill
#
# Bulk Modulus (GPa) = 32.68754 37.61891 35.15322
# Shear Modulus (GPa) = -1.87360 13.88188 6.00414
#
# Velocity S-wave (km/s) = -1.06345 2.89470 1.90373
# Velocity P-wave (km/s) = 4.26881 5.82062 5.10404
#
# Compressibility (1/GPa) = 0.03059270
#
# Stress axis : x y z
#
# Youngs Moduli (GPa) = 41.43767 33.06802 79.66825
#
# Poissons Ratio (x) = 0.27428 0.21005
# Poissons Ratio (y) = 0.34371 0.57641
# Poissons Ratio (z) = 0.10925 0.23925
#
# Static dielectric constant tensor:
#      x y z
#    x 1.561170 0.000000 0.000000 
#    y 0.000000 1.565250 0.000000 
#    z 0.000000 0.000000 1.561300 
# 
# From -- ./inp_files/41163.got.cif
#   From: 2010.05.17/outbox.cif.g08.bks.cpg/sg71_21_cif.got.tgz:41163.got - 2010.06.03 16:22:01.
