data_PCOD9521811
_publ_section_title
;
Structure prediction by ZEFSAII (Michael W. Deem and Ramdas Pophale) SiO2 
 PCOD9521811
Probable space group: I M M M
;
_chemical_formula_sum "Si O2"
_cell_formula_units_Z 96
_cell_length_a 7.792241
_cell_length_b 24.315072
_cell_length_c 22.656724
_cell_angle_alpha 90.000000
_cell_angle_beta 90.000000
_cell_angle_gamma 90.000000
_cell_volume 4292.744596
_symmetry_space_group_name_H-M "I M M M"
_symmetry_group_IT_number 71
_symmetry_cell_setting 'orthorhombic'
loop_
_space_group_symop_operation_xyz
x,y,z
-x,-y,z
x,-y,-z
-x,y,-z
-x,-y,-z
x,y,-z
-x,y,z
x,-y,z
1/2+x,1/2+y,1/2+z
1/2-x,1/2-y,1/2+z
1/2+x,1/2-y,1/2-z
1/2-x,1/2+y,1/2-z
1/2-x,1/2-y,1/2-z
1/2+x,1/2+y,1/2-z
1/2-x,1/2+y,1/2+z
1/2+x,1/2-y,1/2+z
loop_
_atom_site_type_symbol
_atom_site_label
_atom_site_fract_x
_atom_site_fract_y
_atom_site_fract_z
Si Si1 0.793333 0.561041 0.568188
Si Si2 0.295715 0.674659 0.630830
Si Si3 0.798926 0.595304 0.063271
Si Si4 0.198227 0.826069 0.739104
Si Si5 0.296389 0.290846 0.111831
Si Si6 0.791797 0.560881 0.808766
O O1 0.735553 0.567501 0.500000
O O2 0.734683 0.500000 0.588943
O O3 0.745587 0.614908 0.605026
O O4 0.000000 0.559442 0.567695
O O5 0.500000 0.677717 0.634795
O O6 0.220659 0.683030 0.696978
O O7 0.235805 0.727979 0.594384
O O8 0.782823 0.661034 0.072479
O O9 0.731457 0.568806 0.123476
O O10 0.000000 0.580753 0.061724
O O11 0.722370 0.579722 0.000000
O O12 0.273960 0.800696 0.678907
O O13 0.208526 0.891231 0.728725
O O14 0.000000 0.807976 0.741223
O O15 0.500000 0.301108 0.112674
O O16 0.751823 0.500000 0.787884
O O17 0.000000 0.567948 0.807516
#
# Coordination Sequence:
#
# PCOD9521811 Si02
#       6
#    16  16  16  16  16  16
#     4   9  20  40  61  79 103 135 170 209 252 299
#     4  11  22  35  55  82 107 133 169 210 254 308
#     4   9  18  33  52  74 103 138 174 215 261 304
#     4   9  20  36  52  74 105 139 172 210 257 304
#     4  10  20  35  54  75 103 138 174 213 256 303
#     4   9  18  32  51  76 104 136 175 216 257 302
#
# _framework density 22.363313999999999
#
# number of rings (size 3 to 8) (size 9 to 14) (size 15 to 20)
#    0.000    2.500    0.000    2.000    0.000    5.000 
#    0.000    5.833    0.000    0.000    0.000    4.667 
#    0.000    0.000    0.000    0.000    0.000    0.000 
#
# Total GULP energy -267844.383205 kJ/mol
# GULP energy per Si atom -5580.091317 kJ/mol
# Density = 2.231241 g / cm^3
# Si number density = 22.363314 Si / 1000 Ang^3
#
#
#
# Elastic Constant Matrix: (Units=GPa)
#
#
# Indices 1 2 3 4 5 6 
#
# 1 39.5999 -9.0910 -2.9956 0.0000 0.0000 0.0000
# 2 -9.0910 99.0700 -11.1605 0.0000 0.0000 0.0000
# 3 -2.9956 -11.1605 23.4543 0.0000 0.0000 0.0000
# 4 0.0000 0.0000 0.0000 -5.6103 0.0000 0.0000
# 5 0.0000 0.0000 0.0000 0.0000 14.5648 0.0000
# 6 0.0000 0.0000 0.0000 0.0000 0.0000 26.3536
#
#
#
# Elastic Compliance Matrix: (Units=1/GPa)
#
#
# Indices 1 2 3 4 5 6 
#
# 1 0.026290 0.002949 0.004761 0.000000 0.000000 0.000000
# 2 0.002949 0.010996 0.005609 0.000000 0.000000 0.000000
# 3 0.004761 0.005609 0.045913 0.000000 0.000000 0.000000
# 4 0.000000 0.000000 0.000000 -0.178243 0.000000 0.000000
# 5 0.000000 0.000000 0.000000 0.000000 0.068659 0.000000
# 6 0.000000 0.000000 0.000000 0.000000 0.000000 0.037945
#
#
# Mechanical properties :
#
#
# Convention : Reuss Voigt Hill
#
# Bulk Modulus (GPa) = 9.10441 12.84776 10.97609
# Shear Modulus (GPa) = 232.18183 19.41972 125.80078
#
# Velocity S-wave (km/s) = 10.20039 2.95002 7.50835
# Velocity P-wave (km/s) = 11.95034 4.16665 8.94907
#
# Compressibility (1/GPa) = 0.10983683
#
# Stress axis : x y z
#
# Youngs Moduli (GPa) = 38.03770 90.93930 21.78022
#
# Poissons Ratio (x) = -0.26816 -0.10369
# Poissons Ratio (y) = -0.11216 -0.12217
# Poissons Ratio (z) = -0.18109 -0.51009
#
# Static dielectric constant tensor:
#      x y z
#    x 1.825910 0.000000 0.000000 
#    y 0.000000 1.828120 0.000000 
#    z 0.000000 0.000000 1.857450 
# 
# From -- ./inp_files/12815.got.cif
#   From: 2010.05.17/outbox.cif.g08.bks.cpg/sg71_7_cif.got.tgz:12815.got - 2010.06.03 16:22:01.
