data_PCOD9521508
_publ_section_title
;
Structure prediction by ZEFSAII (Michael W. Deem and Ramdas Pophale) SiO2 
 PCOD9521508
Probable space group: I M M M
;
_chemical_formula_sum "Si O2"
_cell_formula_units_Z 104
_cell_length_a 23.905535
_cell_length_b 7.689809
_cell_length_c 27.111399
_cell_angle_alpha 90.000000
_cell_angle_beta 90.000000
_cell_angle_gamma 90.000000
_cell_volume 4983.861318
_symmetry_space_group_name_H-M "I M M M"
_symmetry_group_IT_number 71
_symmetry_cell_setting 'orthorhombic'
loop_
_space_group_symop_operation_xyz
x,y,z
-x,-y,z
x,-y,-z
-x,y,-z
-x,-y,-z
x,y,-z
-x,y,z
x,-y,z
1/2+x,1/2+y,1/2+z
1/2-x,1/2-y,1/2+z
1/2+x,1/2-y,1/2-z
1/2-x,1/2+y,1/2-z
1/2-x,1/2-y,1/2-z
1/2+x,1/2+y,1/2-z
1/2-x,1/2+y,1/2+z
1/2+x,1/2-y,1/2+z
loop_
_atom_site_type_symbol
_atom_site_label
_atom_site_fract_x
_atom_site_fract_y
_atom_site_fract_z
Si Si1 0.351984 0.804628 0.134480
Si Si2 0.734874 0.202999 0.056487
Si Si3 0.562563 0.208662 0.211424
Si Si4 0.857721 0.703928 0.912712
Si Si5 0.565896 0.707659 0.054459
Si Si6 0.062193 0.207700 0.826784
Si Si7 0.063063 0.712748 0.000000
O O1 0.303942 0.719668 0.100219
O O2 0.383591 0.721967 0.181482
O O3 0.402937 0.810387 0.096072
O O4 0.332830 0.000000 0.148546
O O5 0.798358 0.211657 0.075623
O O6 0.718333 0.000000 0.053183
O O7 0.730973 0.274113 0.000000
O O8 0.500000 0.273638 0.196200
O O9 0.568135 0.243573 0.269490
O O10 0.562257 0.000000 0.203845
O O11 0.848788 0.500000 0.921630
O O12 0.886910 0.726346 0.859934
O O13 0.903013 0.769469 0.952115
O O14 0.500000 0.739501 0.055667
O O15 0.574146 0.500000 0.061296
O O16 0.587330 0.753506 0.000000
O O17 0.000000 0.272037 0.843158
O O18 0.061860 0.000000 0.830560
O O19 0.061599 0.500000 0.000000
O O20 0.000000 0.775434 0.000000
#
# Coordination Sequence:
#
# PCOD9521508 Si02
#       7
#    16  16  16  16  16  16   8
#     4  10  20  34  54  79 105 141 189 234 278 328
#     4  10  21  37  55  77 112 152 187 229 279 328
#     4   9  18  34  56  82 111 142 181 231 281 329
#     4  11  21  36  58  83 112 146 185 225 269 324
#     4   9  18  31  46  69 103 139 175 223 283 339
#     4  10  21  37  58  85 115 145 177 217 274 338
#     4   9  18  32  53  83 113 137 168 215 266 319
#
# _framework density 20.867353999999999
#
# number of rings (size 3 to 8) (size 9 to 14) (size 15 to 20)
#    0.000    2.231    0.769    2.769    0.000    4.615 
#    0.000    3.077    0.000    1.846    0.000    0.000 
#    0.000    0.000    0.000    0.000    0.000    0.000 
#
# Total GULP energy -290033.551741 kJ/mol
# GULP energy per Si atom -5577.568303 kJ/mol
# Density = 2.081986 g / cm^3
# Si number density = 20.867354 Si / 1000 Ang^3
#
#
#
# Elastic Constant Matrix: (Units=GPa)
#
#
# Indices 1 2 3 4 5 6 
#
# 1 123.2449 -0.1862 61.2782 0.0000 0.0000 0.0000
# 2 -0.1862 37.1445 -6.8493 0.0000 0.0000 0.0000
# 3 61.2782 -6.8493 90.7959 0.0000 0.0000 0.0000
# 4 0.0000 0.0000 0.0000 6.3792 0.0000 0.0000
# 5 0.0000 0.0000 0.0000 0.0000 33.6098 0.0000
# 6 0.0000 0.0000 0.0000 0.0000 0.0000 12.1748
#
#
#
# Elastic Compliance Matrix: (Units=1/GPa)
#
#
# Indices 1 2 3 4 5 6 
#
# 1 0.012292 -0.001489 -0.008409 0.000000 0.000000 0.000000
# 2 -0.001489 0.027482 0.003078 0.000000 0.000000 0.000000
# 3 -0.008409 0.003078 0.016921 0.000000 0.000000 0.000000
# 4 0.000000 0.000000 0.000000 0.156759 0.000000 0.000000
# 5 0.000000 0.000000 0.000000 0.000000 0.029753 0.000000
# 6 0.000000 0.000000 0.000000 0.000000 0.000000 0.082137
#
#
# Mechanical properties :
#
#
# Convention : Reuss Voigt Hill
#
# Bulk Modulus (GPa) = 23.22532 39.96342 31.59437
# Shear Modulus (GPa) = 14.15087 23.56228 18.85657
#
# Velocity S-wave (km/s) = 2.60693 3.36392 3.00932
# Velocity P-wave (km/s) = 4.49617 5.85497 5.21997
#
# Compressibility (1/GPa) = 0.04305646
#
# Stress axis : x y z
#
# Youngs Moduli (GPa) = 81.35076 36.38748 59.09881
#
# Poissons Ratio (x) = 0.05418 0.49693
# Poissons Ratio (y) = 0.12112 -0.18191
# Poissons Ratio (z) = 0.68404 -0.11200
#
# Static dielectric constant tensor:
#      x y z
#    x 1.756760 0.000000 0.000000 
#    y 0.000000 1.785590 0.000000 
#    z 0.000000 0.000000 1.763560 
# 
# From -- ./inp_files/66792.got.cif
#   From: 2010.05.17/outbox.cif.g08.bks.cpg/sg71_34_cif.got.tgz:66792.got - 2010.06.03 16:22:01.
