data_PCOD9521367
_publ_section_title
;
Structure prediction by ZEFSAII (Michael W. Deem and Ramdas Pophale) SiO2 
 PCOD9521367
Probable space group: I M M M
;
_chemical_formula_sum "Si O2"
_cell_formula_units_Z 104
_cell_length_a 31.065898
_cell_length_b 7.564357
_cell_length_c 21.453056
_cell_angle_alpha 90.000000
_cell_angle_beta 90.000000
_cell_angle_gamma 90.000000
_cell_volume 5041.329638
_symmetry_space_group_name_H-M "I M M M"
_symmetry_group_IT_number 71
_symmetry_cell_setting 'orthorhombic'
loop_
_space_group_symop_operation_xyz
x,y,z
-x,-y,z
x,-y,-z
-x,y,-z
-x,-y,-z
x,y,-z
-x,y,z
x,-y,z
1/2+x,1/2+y,1/2+z
1/2-x,1/2-y,1/2+z
1/2+x,1/2-y,1/2-z
1/2-x,1/2+y,1/2-z
1/2-x,1/2-y,1/2-z
1/2+x,1/2+y,1/2-z
1/2-x,1/2+y,1/2+z
1/2+x,1/2-y,1/2+z
loop_
_atom_site_type_symbol
_atom_site_label
_atom_site_fract_x
_atom_site_fract_y
_atom_site_fract_z
Si Si1 0.372003 0.209194 0.278436
Si Si2 0.719852 0.216361 0.929192
Si Si3 0.867246 0.283405 0.637687
Si Si4 0.049637 0.709676 0.861770
Si Si5 0.453341 0.215391 0.072188
Si Si6 0.450913 0.711057 0.500000
Si Si7 0.223339 0.210193 0.813569
O O1 0.364654 0.279241 0.208676
O O2 0.413778 0.281337 0.314985
O O3 0.325965 0.229264 0.311312
O O4 0.380014 0.000000 0.271997
O O5 0.672589 0.270166 0.905225
O O6 0.752373 0.277341 0.875257
O O7 0.720716 0.000000 0.929772
O O8 0.728376 0.274183 0.000000
O O9 0.866346 0.500000 0.637993
O O10 0.912409 0.224032 0.609826
O O11 0.046203 0.500000 0.851015
O O12 0.066485 0.733264 0.932790
O O13 0.000000 0.780516 0.857106
O O14 0.500000 0.272038 0.096525
O O15 0.452881 0.000000 0.073295
O O16 0.449954 0.267170 0.000000
O O17 0.451642 0.500000 0.500000
O O18 0.500000 0.780663 0.500000
O O19 0.250000 0.250000 0.750000
O O20 0.222735 0.000000 0.817841
#
# Coordination Sequence:
#
# PCOD9521367 Si02
#       7
#    16  16  16  16  16   8  16
#     4  10  20  34  52  77 106 136 174 212 257 314
#     4   9  17  30  50  74  97 125 167 215 258 303
#     4   9  15  25  43  66  94 130 167 203 244 296
#     4   9  18  33  53  76 106 142 176 213 263 325
#     4   8  13  20  32  57  95 132 161 195 243 291
#     4   9  17  31  53  77 101 133 177 225 267 311
#     4  11  21  36  57  78 105 140 177 218 267 318
#
# _framework density 20.629477999999999
#
# number of rings (size 3 to 8) (size 9 to 14) (size 15 to 20)
#    0.000    2.692    1.538    1.615    0.000    4.000 
#    1.385    3.077    0.000    1.385    0.000    0.000 
#    0.000    0.000    0.000    1.692    0.000    1.538 
#
# Total GULP energy -289947.679570 kJ/mol
# GULP energy per Si atom -5575.916915 kJ/mol
# Density = 2.058252 g / cm^3
# Si number density = 20.629478 Si / 1000 Ang^3
#
#
#
# Elastic Constant Matrix: (Units=GPa)
#
#
# Indices 1 2 3 4 5 6 
#
# 1 146.0925 -5.3832 85.9321 0.0000 0.0000 0.0000
# 2 -5.3832 46.7798 -1.7237 0.0000 0.0000 0.0000
# 3 85.9321 -1.7237 155.3855 0.0000 0.0000 0.0000
# 4 0.0000 0.0000 0.0000 -4.2485 0.0000 0.0000
# 5 0.0000 0.0000 0.0000 0.0000 40.9228 0.0000
# 6 0.0000 0.0000 0.0000 0.0000 0.0000 11.3332
#
#
#
# Elastic Compliance Matrix: (Units=1/GPa)
#
#
# Indices 1 2 3 4 5 6 
#
# 1 0.010188 0.000965 -0.005624 0.000000 0.000000 0.000000
# 2 0.000965 0.021477 -0.000296 0.000000 0.000000 0.000000
# 3 -0.005624 -0.000296 0.009542 0.000000 0.000000 0.000000
# 4 0.000000 0.000000 0.000000 -0.235378 0.000000 0.000000
# 5 0.000000 0.000000 0.000000 0.000000 0.024436 0.000000
# 6 0.000000 0.000000 0.000000 0.000000 0.000000 0.088236
#
#
# Mechanical properties :
#
#
# Convention : Reuss Voigt Hill
#
# Bulk Modulus (GPa) = 31.94925 56.21199 44.08062
# Shear Modulus (GPa) = -81.75727 27.56369 -27.09679
#
# Velocity S-wave (km/s) = -6.30217 3.65928 -3.62815
# Velocity P-wave (km/s) = 6.11847 6.72022 1.96541
#
# Compressibility (1/GPa) = 0.03129964
#
# Stress axis : x y z
#
# Youngs Moduli (GPa) = 98.15023 46.56157 104.79526
#
# Poissons Ratio (x) = -0.04494 0.58934
# Poissons Ratio (y) = -0.09474 0.03097
# Poissons Ratio (z) = 0.55197 0.01376
#
# Static dielectric constant tensor:
#      x y z
#    x 1.688000 0.000000 0.000000 
#    y 0.000000 1.815720 0.000000 
#    z 0.000000 0.000000 1.734760 
# 
# From -- ./inp_files/56732.got.cif
#   From: 2010.05.17/outbox.cif.g08.bks.cpg/sg71_29_cif.got.tgz:56732.got - 2010.06.03 16:22:01.
