data_PCOD9521985
_publ_section_title
;
Structure prediction by ZEFSAII (Michael W. Deem and Ramdas Pophale) SiO2 
 PCOD9521985
Probable space group: I M M M
;
_chemical_formula_sum "Si O2"
_cell_formula_units_Z 60
_cell_length_a 16.105696
_cell_length_b 17.219424
_cell_length_c 12.607126
_cell_angle_alpha 90.000000
_cell_angle_beta 90.000000
_cell_angle_gamma 90.000000
_cell_volume 3496.344443
_symmetry_space_group_name_H-M "I M M M"
_symmetry_group_IT_number 71
_symmetry_cell_setting 'orthorhombic'
loop_
_space_group_symop_operation_xyz
x,y,z
-x,-y,z
x,-y,-z
-x,y,-z
-x,-y,-z
x,y,-z
-x,y,z
x,-y,z
1/2+x,1/2+y,1/2+z
1/2-x,1/2-y,1/2+z
1/2+x,1/2-y,1/2-z
1/2-x,1/2+y,1/2-z
1/2-x,1/2-y,1/2-z
1/2+x,1/2+y,1/2-z
1/2-x,1/2+y,1/2+z
1/2+x,1/2-y,1/2+z
loop_
_atom_site_type_symbol
_atom_site_label
_atom_site_fract_x
_atom_site_fract_y
_atom_site_fract_z
Si Si1 0.356144 0.000000 0.117298
Si Si2 0.816294 0.299178 0.877095
Si Si3 0.500000 0.830650 0.623536
Si Si4 0.901793 0.000000 0.872032
Si Si5 0.273062 0.372750 0.685471
Si Si6 0.500000 0.000000 0.709783
O O1 0.297222 0.925166 0.130632
O O2 0.421441 0.000000 0.212009
O O3 0.393894 0.000000 0.000000
O O4 0.758944 0.353221 0.803845
O O5 0.785754 0.210701 0.868070
O O6 0.911365 0.301513 0.833799
O O7 0.816428 0.324005 0.000000
O O8 0.500000 0.808561 0.500000
O O9 0.500000 0.922930 0.639864
O O10 0.855834 0.075486 0.824390
O O11 0.000000 0.000000 0.852796
O O12 0.888479 0.000000 0.000000
#
# Coordination Sequence:
#
# PCOD9521985 Si02
#       6
#     8  16   8   8  16   4
#     4  11  21  35  53  75 108 146 179 216 266 322
#     4  10  20  35  57  82 107 141 177 220 268 314
#     4  10  21  35  55  81 111 140 177 220 265 316
#     4  10  21  36  56  83 107 138 178 225 274 315
#     4  10  20  36  56  79 109 137 176 225 266 323
#     4  12  20  36  48  80 110 146 180 210 260 322
#
# _framework density 17.160779999999999
#
# number of rings (size 3 to 8) (size 9 to 14) (size 15 to 20)
#    0.000    1.733    2.667    3.600    1.867    0.000 
#    0.000    2.667    0.000    1.600    0.000    0.000 
#    0.000    0.000    0.000    0.000    0.000    0.000 
#
# Total GULP energy -167272.611378 kJ/mol
# GULP energy per Si atom -5575.753713 kJ/mol
# Density = 1.712172 g / cm^3
# Si number density = 17.160780 Si / 1000 Ang^3
#
#
#
# Elastic Constant Matrix: (Units=GPa)
#
#
# Indices 1 2 3 4 5 6 
#
# 1 115.4904 31.1196 32.6447 0.0000 0.0000 0.0000
# 2 31.1196 79.0015 15.1224 0.0000 0.0000 0.0000
# 3 32.6447 15.1224 69.6503 0.0000 0.0000 0.0000
# 4 0.0000 0.0000 0.0000 11.3828 0.0000 0.0000
# 5 0.0000 0.0000 0.0000 0.0000 17.4619 0.0000
# 6 0.0000 0.0000 0.0000 0.0000 0.0000 14.7076
#
#
#
# Elastic Compliance Matrix: (Units=1/GPa)
#
#
# Indices 1 2 3 4 5 6 
#
# 1 0.010803 -0.003429 -0.004319 0.000000 0.000000 0.000000
# 2 -0.003429 0.014295 -0.001497 0.000000 0.000000 0.000000
# 3 -0.004319 -0.001497 0.016707 0.000000 0.000000 0.000000
# 4 0.000000 0.000000 0.000000 0.087852 0.000000 0.000000
# 5 0.000000 0.000000 0.000000 0.000000 0.057268 0.000000
# 6 0.000000 0.000000 0.000000 0.000000 0.000000 0.067992
#
#
# Mechanical properties :
#
#
# Convention : Reuss Voigt Hill
#
# Bulk Modulus (GPa) = 42.88869 46.87953 44.88411
# Shear Modulus (GPa) = 17.78230 21.06080 19.42155
#
# Velocity S-wave (km/s) = 3.22253 3.50703 3.36778
# Velocity P-wave (km/s) = 6.23641 6.61636 6.42919
#
# Compressibility (1/GPa) = 0.02331617
#
# Stress axis : x y z
#
# Youngs Moduli (GPa) = 92.56260 69.95375 59.85613
#
# Poissons Ratio (x) = 0.23986 0.25852
# Poissons Ratio (y) = 0.31739 0.08958
# Poissons Ratio (z) = 0.39978 0.10470
#
# Static dielectric constant tensor:
#      x y z
#    x 1.599910 0.000000 0.000000 
#    y 0.000000 1.560470 0.000000 
#    z 0.000000 0.000000 1.580830 
# 
# From -- ./inp_files/23430.got.cif
#   From: 2010.05.17/outbox.cif.g08.bks.cpg/sg71_12_cif.got.tgz:23430.got - 2010.06.03 16:22:01.
