data_PCOD9521706
_publ_section_title
;
Structure prediction by ZEFSAII (Michael W. Deem and Ramdas Pophale) SiO2 
 PCOD9521706
Probable space group: I M M M
;
_chemical_formula_sum "Si O2"
_cell_formula_units_Z 88
_cell_length_a 7.531595
_cell_length_b 20.206037
_cell_length_c 27.274180
_cell_angle_alpha 90.000000
_cell_angle_beta 90.000000
_cell_angle_gamma 90.000000
_cell_volume 4150.685279
_symmetry_space_group_name_H-M "I M M M"
_symmetry_group_IT_number 71
_symmetry_cell_setting 'orthorhombic'
loop_
_space_group_symop_operation_xyz
x,y,z
-x,-y,z
x,-y,-z
-x,y,-z
-x,-y,-z
x,y,-z
-x,y,z
x,-y,z
1/2+x,1/2+y,1/2+z
1/2-x,1/2-y,1/2+z
1/2+x,1/2-y,1/2-z
1/2-x,1/2+y,1/2-z
1/2-x,1/2-y,1/2-z
1/2+x,1/2+y,1/2-z
1/2-x,1/2+y,1/2+z
1/2+x,1/2-y,1/2+z
loop_
_atom_site_type_symbol
_atom_site_label
_atom_site_fract_x
_atom_site_fract_y
_atom_site_fract_z
Si Si1 0.788635 0.681767 0.777868
Si Si2 0.282688 0.924000 0.802128
Si Si3 0.788200 0.075483 0.000000
Si Si4 0.204649 0.200876 0.389337
Si Si5 0.283833 0.572008 0.942526
Si Si6 0.211132 0.651717 0.600463
O O1 0.750000 0.750000 0.750000
O O2 0.726695 0.621490 0.743529
O O3 0.707119 0.687031 0.831518
O O4 0.000000 0.675344 0.784048
O O5 0.500000 0.923940 0.802377
O O6 0.221998 0.890350 0.853049
O O7 0.225544 0.000000 0.798722
O O8 0.736040 0.114287 0.049252
O O9 0.000000 0.071895 0.000000
O O10 0.718029 0.000000 0.000000
O O11 0.285123 0.136914 0.415531
O O12 0.284155 0.273374 0.399541
O O13 0.000000 0.204552 0.406625
O O14 0.500000 0.571669 0.938499
O O15 0.223071 0.500000 0.923730
O O16 0.241640 0.575906 0.000000
O O17 0.000000 0.657916 0.608836
#
# Coordination Sequence:
#
# PCOD9521706 Si02
#       6
#    16  16   8  16  16  16
#     4  11  21  36  56  79 110 144 179 222 271 322
#     4   9  18  34  56  80 105 139 184 225 261 314
#     4  11  25  41  55  79 116 147 176 224 281 331
#     4  10  20  34  56  85 112 140 183 230 269 320
#     4   8  15  29  51  79 111 146 181 221 269 317
#     4  10  20  36  59  83 107 142 188 228 265 319
#
# _framework density 21.201319000000002
#
# number of rings (size 3 to 8) (size 9 to 14) (size 15 to 20)
#    0.000    2.273    1.818    1.909    1.273    2.909 
#    0.000    0.000    0.000    2.727    0.000    1.273 
#    0.000    0.000    0.000    0.000    0.000    0.000 
#
# Total GULP energy -245696.086208 kJ/mol
# GULP energy per Si atom -5584.001959 kJ/mol
# Density = 2.115306 g / cm^3
# Si number density = 21.201319 Si / 1000 Ang^3
#
#
#
# Elastic Constant Matrix: (Units=GPa)
#
#
# Indices 1 2 3 4 5 6 
#
# 1 54.4746 2.0922 -16.7552 0.0000 0.0000 0.0000
# 2 2.0922 262.5060 102.4737 0.0000 0.0000 0.0000
# 3 -16.7552 102.4737 96.1646 0.0000 0.0000 0.0000
# 4 0.0000 0.0000 0.0000 50.5698 0.0000 0.0000
# 5 0.0000 0.0000 0.0000 0.0000 18.2957 0.0000
# 6 0.0000 0.0000 0.0000 0.0000 0.0000 0.2352
#
#
#
# Elastic Compliance Matrix: (Units=1/GPa)
#
#
# Indices 1 2 3 4 5 6 
#
# 1 0.020425 -0.002657 0.006390 0.000000 0.000000 0.000000
# 2 -0.002657 0.006869 -0.007782 0.000000 0.000000 0.000000
# 3 0.006390 -0.007782 0.019805 0.000000 0.000000 0.000000
# 4 0.000000 0.000000 0.000000 0.019775 0.000000 0.000000
# 5 0.000000 0.000000 0.000000 0.000000 0.054658 0.000000
# 6 0.000000 0.000000 0.000000 0.000000 0.000000 4.252476
#
#
# Mechanical properties :
#
#
# Convention : Reuss Voigt Hill
#
# Bulk Modulus (GPa) = 25.64096 65.41852 45.52974
# Shear Modulus (GPa) = 1.13763 35.50910 18.32336
#
# Velocity S-wave (km/s) = 0.73331 4.09694 2.94301
# Velocity P-wave (km/s) = 3.58292 7.30087 5.75065
#
# Compressibility (1/GPa) = 0.03900009
#
# Stress axis : x y z
#
# Youngs Moduli (GPa) = 48.96009 145.59197 50.49234
#
# Poissons Ratio (x) = 0.38690 -0.32267
# Poissons Ratio (y) = 0.13011 0.39294
# Poissons Ratio (z) = -0.31288 1.13302
#
# Static dielectric constant tensor:
#      x y z
#    x 1.814750 0.000000 0.000000 
#    y 0.000000 1.771290 0.000000 
#    z 0.000000 0.000000 1.711600 
# 
# From -- ./inp_files/68008.got.cif
#   From: 2010.05.17/outbox.cif.g08.bks.cpg/sg71_35_cif.got.tgz:68008.got - 2010.06.03 16:22:01.
