data_PCOD9521160
_publ_section_title
;
Structure prediction by ZEFSAII (Michael W. Deem and Ramdas Pophale) SiO2 
 PCOD9521160
Probable space group: I M M M
;
_chemical_formula_sum "Si O2"
_cell_formula_units_Z 104
_cell_length_a 29.457972
_cell_length_b 21.636086
_cell_length_c 8.723259
_cell_angle_alpha 90.000000
_cell_angle_beta 90.000000
_cell_angle_gamma 90.000000
_cell_volume 5559.814620
_symmetry_space_group_name_H-M "I M M M"
_symmetry_group_IT_number 71
_symmetry_cell_setting 'orthorhombic'
loop_
_space_group_symop_operation_xyz
x,y,z
-x,-y,z
x,-y,-z
-x,y,-z
-x,-y,-z
x,y,-z
-x,y,z
x,-y,z
1/2+x,1/2+y,1/2+z
1/2-x,1/2-y,1/2+z
1/2+x,1/2-y,1/2-z
1/2-x,1/2+y,1/2-z
1/2-x,1/2-y,1/2-z
1/2+x,1/2+y,1/2-z
1/2-x,1/2+y,1/2+z
1/2+x,1/2-y,1/2+z
loop_
_atom_site_type_symbol
_atom_site_label
_atom_site_fract_x
_atom_site_fract_y
_atom_site_fract_z
Si Si1 0.181882 0.570736 0.184925
Si Si2 0.919052 0.429065 0.322183
Si Si3 0.054667 0.000000 0.326126
Si Si4 0.947110 0.130994 0.816886
Si Si5 0.118743 0.233069 0.676599
Si Si6 0.709414 0.791401 0.683272
Si Si7 0.551013 0.815744 0.328805
O O1 0.199761 0.500000 0.217928
O O2 0.133574 0.575633 0.270086
O O3 0.208368 0.634742 0.226515
O O4 0.175038 0.573104 0.000000
O O5 0.924186 0.410652 0.500000
O O6 0.932412 0.500000 0.310604
O O7 0.947354 0.387669 0.206240
O O8 0.065978 0.062277 0.236704
O O9 0.072665 0.000000 0.500000
O O10 0.000000 0.000000 0.335779
O O11 0.909298 0.176524 0.749557
O O12 0.000000 0.142665 0.765607
O O13 0.947196 0.135715 0.000000
O O14 0.129119 0.220713 0.500000
O O15 0.163397 0.257809 0.760954
O O16 0.082407 0.287392 0.699641
O O17 0.711634 0.789688 0.500000
O O18 0.750000 0.750000 0.750000
O O19 0.568872 0.802203 0.500000
O O20 0.500000 0.791659 0.321181
#
# Coordination Sequence:
#
# PCOD9521160 Si02
#       7
#    16  16   8  16  16  16  16
#     4   9  18  35  61  88 114 149 191 235 285 344
#     4  10  20  33  52  79 110 146 190 239 287 334
#     4   9  17  31  53  83 117 153 197 243 287 343
#     4  10  20  35  57  85 118 157 199 242 291 348
#     4  12  24  38  58  84 116 151 192 241 294 346
#     4  11  23  40  64  91 120 151 191 239 293 357
#     4  11  23  37  53  76 110 153 197 238 285 342
#
# _framework density 18.705660000000002
#
# number of rings (size 3 to 8) (size 9 to 14) (size 15 to 20)
#    0.000    1.615    1.538    3.923    0.000    6.769 
#    0.000    1.538    1.692    0.000    0.000    0.000 
#    0.000    0.000    0.000    0.000    0.000    0.000 
#
# Total GULP energy -289925.866102 kJ/mol
# GULP energy per Si atom -5575.497425 kJ/mol
# Density = 1.866309 g / cm^3
# Si number density = 18.705660 Si / 1000 Ang^3
#
#
#
# Elastic Constant Matrix: (Units=GPa)
#
#
# Indices 1 2 3 4 5 6 
#
# 1 71.2820 51.7965 19.6968 0.0000 0.0000 0.0000
# 2 51.7965 149.0520 37.3442 0.0000 0.0000 0.0000
# 3 19.6968 37.3442 57.6791 0.0000 0.0000 0.0000
# 4 0.0000 0.0000 0.0000 31.0626 0.0000 0.0000
# 5 0.0000 0.0000 0.0000 0.0000 23.5159 0.0000
# 6 0.0000 0.0000 0.0000 0.0000 0.0000 29.0657
#
#
#
# Elastic Compliance Matrix: (Units=1/GPa)
#
#
# Indices 1 2 3 4 5 6 
#
# 1 0.019103 -0.005973 -0.002656 0.000000 0.000000 0.000000
# 2 -0.005973 0.009876 -0.004354 0.000000 0.000000 0.000000
# 3 -0.002656 -0.004354 0.021064 0.000000 0.000000 0.000000
# 4 0.000000 0.000000 0.000000 0.032193 0.000000 0.000000
# 5 0.000000 0.000000 0.000000 0.000000 0.042524 0.000000
# 6 0.000000 0.000000 0.000000 0.000000 0.000000 0.034405
#
#
# Mechanical properties :
#
#
# Convention : Reuss Voigt Hill
#
# Bulk Modulus (GPa) = 41.53655 55.07648 48.30651
# Shear Modulus (GPa) = 25.88574 28.00720 26.94647
#
# Velocity S-wave (km/s) = 3.72404 3.87364 3.79958
# Velocity P-wave (km/s) = 6.38317 7.03665 6.71786
#
# Compressibility (1/GPa) = 0.02407518
#
# Stress axis : x y z
#
# Youngs Moduli (GPa) = 52.34802 101.25945 47.47526
#
# Poissons Ratio (x) = 0.60481 0.12611
# Poissons Ratio (y) = 0.31267 0.20672
# Poissons Ratio (z) = 0.13905 0.44091
#
# Static dielectric constant tensor:
#      x y z
#    x 1.626300 0.000000 0.000000 
#    y 0.000000 1.732820 0.000000 
#    z 0.000000 0.000000 1.633500 
# 
# From -- ./inp_files/11095.got.cif
#   From: 2010.05.17/outbox.cif.g08.bks.cpg/sg71_6_cif.got.tgz:11095.got - 2010.06.03 16:22:01.
