data_PCOD9521108
_publ_section_title
;
Structure prediction by ZEFSAII (Michael W. Deem and Ramdas Pophale) SiO2 
 PCOD9521108
Probable space group: I M M M
;
_chemical_formula_sum "Si O2"
_cell_formula_units_Z 72
_cell_length_a 29.573111
_cell_length_b 14.005786
_cell_length_c 9.126650
_cell_angle_alpha 90.000000
_cell_angle_beta 90.000000
_cell_angle_gamma 90.000000
_cell_volume 3780.209730
_symmetry_space_group_name_H-M "I M M M"
_symmetry_group_IT_number 71
_symmetry_cell_setting 'orthorhombic'
loop_
_space_group_symop_operation_xyz
x,y,z
-x,-y,z
x,-y,-z
-x,y,-z
-x,-y,-z
x,y,-z
-x,y,z
x,-y,z
1/2+x,1/2+y,1/2+z
1/2-x,1/2-y,1/2+z
1/2+x,1/2-y,1/2-z
1/2-x,1/2+y,1/2-z
1/2-x,1/2-y,1/2-z
1/2+x,1/2+y,1/2-z
1/2-x,1/2+y,1/2+z
1/2+x,1/2-y,1/2+z
loop_
_atom_site_type_symbol
_atom_site_label
_atom_site_fract_x
_atom_site_fract_y
_atom_site_fract_z
Si Si1 0.631669 0.889007 0.323686
Si Si2 0.765804 0.616468 0.832102
Si Si3 0.324106 0.615455 0.667894
Si Si4 0.500000 0.609474 0.821718
Si Si5 0.907751 0.786501 0.675637
O O1 0.628083 0.881770 0.500000
O O2 0.683282 0.858928 0.284918
O O3 0.597881 0.818294 0.243647
O O4 0.625544 0.000000 0.284403
O O5 0.765456 0.500000 0.834227
O O6 0.724577 0.646985 0.730146
O O7 0.758441 0.647667 0.000000
O O8 0.329695 0.646995 0.500000
O O9 0.324744 0.500000 0.671112
O O10 0.365190 0.653801 0.764308
O O11 0.500000 0.500000 0.770613
O O12 0.454381 0.663504 0.777226
O O13 0.500000 0.607569 0.000000
O O14 0.906360 0.782925 0.500000
#
# Coordination Sequence:
#
# PCOD9521108 Si02
#       5
#    16  16  16   8  16
#     4   9  19  37  58  80 111 148 183 223 269 317
#     4   8  15  30  52  76 105 145 187 222 261 312
#     4  10  20  33  51  79 114 147 181 225 274 325
#     4   9  20  40  62  83 108 138 175 221 272 325
#     4  11  22  36  58  83 106 139 183 229 276 326
#
# _framework density 19.046562000000002
#
# number of rings (size 3 to 8) (size 9 to 14) (size 15 to 20)
#    0.000    2.556    0.000    3.333    0.000    4.444 
#    0.000    5.000    0.000    7.333    0.000    0.000 
#    0.000    0.000    0.000    0.000    0.000    0.000 
#
# Total GULP energy -201082.045222 kJ/mol
# GULP energy per Si atom -5585.612367 kJ/mol
# Density = 1.900321 g / cm^3
# Si number density = 19.046562 Si / 1000 Ang^3
#
#
#
# Elastic Constant Matrix: (Units=GPa)
#
#
# Indices 1 2 3 4 5 6 
#
# 1 145.9434 76.7070 54.2171 0.0000 0.0000 0.0000
# 2 76.7070 115.9572 42.7882 0.0000 0.0000 0.0000
# 3 54.2171 42.7882 52.0185 0.0000 0.0000 0.0000
# 4 0.0000 0.0000 0.0000 30.7975 0.0000 0.0000
# 5 0.0000 0.0000 0.0000 0.0000 22.5853 0.0000
# 6 0.0000 0.0000 0.0000 0.0000 0.0000 36.5814
#
#
#
# Elastic Compliance Matrix: (Units=1/GPa)
#
#
# Indices 1 2 3 4 5 6 
#
# 1 0.013043 -0.005186 -0.009329 0.000000 0.000000 0.000000
# 2 -0.005186 0.014444 -0.006476 0.000000 0.000000 0.000000
# 3 -0.009329 -0.006476 0.034274 0.000000 0.000000 0.000000
# 4 0.000000 0.000000 0.000000 0.032470 0.000000 0.000000
# 5 0.000000 0.000000 0.000000 0.000000 0.044277 0.000000
# 6 0.000000 0.000000 0.000000 0.000000 0.000000 0.027336
#
#
# Mechanical properties :
#
#
# Convention : Reuss Voigt Hill
#
# Bulk Modulus (GPa) = 50.55664 73.48264 62.01964
# Shear Modulus (GPa) = 23.31885 27.33996 25.32941
#
# Velocity S-wave (km/s) = 3.50281 3.79281 3.65069
# Velocity P-wave (km/s) = 6.55445 7.60558 7.09950
#
# Compressibility (1/GPa) = 0.01977979
#
# Stress axis : x y z
#
# Youngs Moduli (GPa) = 76.66784 69.23274 29.17677
#
# Poissons Ratio (x) = 0.35904 0.27219
# Poissons Ratio (y) = 0.39759 0.18895
# Poissons Ratio (z) = 0.71522 0.44834
#
# Static dielectric constant tensor:
#      x y z
#    x 1.628450 0.000000 0.000000 
#    y 0.000000 1.713880 0.000000 
#    z 0.000000 0.000000 1.634100 
# 
# From -- ./inp_files/6053.got.cif
#   From: 2010.05.17/outbox.cif.g08.bks.cpg/sg71_4_cif.got.tgz:6053.got - 2010.06.03 16:22:01.
