data_PCOD9521277
_publ_section_title
;
Structure prediction by ZEFSAII (Michael W. Deem and Ramdas Pophale) SiO2 
 PCOD9521277
Probable space group: I M M M
;
_chemical_formula_sum "Si O2"
_cell_formula_units_Z 76
_cell_length_a 31.132209
_cell_length_b 7.643244
_cell_length_c 16.829461
_cell_angle_alpha 90.000000
_cell_angle_beta 90.000000
_cell_angle_gamma 90.000000
_cell_volume 4004.588247
_symmetry_space_group_name_H-M "I M M M"
_symmetry_group_IT_number 71
_symmetry_cell_setting 'orthorhombic'
loop_
_space_group_symop_operation_xyz
x,y,z
-x,-y,z
x,-y,-z
-x,y,-z
-x,-y,-z
x,y,-z
-x,y,z
x,-y,z
1/2+x,1/2+y,1/2+z
1/2-x,1/2-y,1/2+z
1/2+x,1/2-y,1/2-z
1/2-x,1/2+y,1/2-z
1/2-x,1/2-y,1/2-z
1/2+x,1/2+y,1/2-z
1/2-x,1/2+y,1/2+z
1/2+x,1/2-y,1/2+z
loop_
_atom_site_type_symbol
_atom_site_label
_atom_site_fract_x
_atom_site_fract_y
_atom_site_fract_z
Si Si1 0.331296 0.700609 0.707995
Si Si2 0.500000 0.709194 0.408880
Si Si3 0.261716 0.287804 0.587513
Si Si4 0.661719 0.201417 0.884851
Si Si5 0.405856 0.205911 0.591627
Si Si6 0.868944 0.000000 0.500000
O O1 0.321128 0.500000 0.728757
O O2 0.290783 0.777677 0.659698
O O3 0.342859 0.791744 0.789954
O O4 0.370690 0.705927 0.646658
O O5 0.500000 0.500000 0.409805
O O6 0.500000 0.776706 0.500000
O O7 0.454245 0.768475 0.375768
O O8 0.276281 0.226664 0.500000
O O9 0.265651 0.500000 0.587933
O O10 0.211553 0.248867 0.597191
O O11 0.655103 0.000000 0.910127
O O12 0.634068 0.344438 0.930965
O O13 0.404600 0.271623 0.500000
O O14 0.396594 0.000000 0.590171
#
# Coordination Sequence:
#
# PCOD9521277 Si02
#       6
#    16   8  16  16  16   4
#     4  11  21  34  52  78 109 140 182 227 270 320
#     4   9  17  31  53  75  99 139 184 219 258 313
#     4   9  18  33  52  73 102 143 183 224 269 315
#     4  11  22  39  56  77 105 137 182 234 275 323
#     4  10  20  34  50  76 110 148 182 219 264 316
#     4  12  22  40  60  78  94 141 186 221 284 334
#
# _framework density 18.97823
#
# number of rings (size 3 to 8) (size 9 to 14) (size 15 to 20)
#    0.000    1.789    2.105    3.158    0.000    3.368 
#    3.789    0.000    0.000    0.000    0.000    0.000 
#    0.000    1.684    0.000    4.316    0.000    0.105 
#
# Total GULP energy -211617.354247 kJ/mol
# GULP energy per Si atom -5568.877743 kJ/mol
# Density = 1.893503 g / cm^3
# Si number density = 18.978230 Si / 1000 Ang^3
#
#
#
# Elastic Constant Matrix: (Units=GPa)
#
#
# Indices 1 2 3 4 5 6 
#
# 1 22.2446 -4.4587 1.9971 0.0000 0.0000 0.0000
# 2 -4.4587 85.8297 14.9163 0.0000 0.0000 0.0000
# 3 1.9971 14.9163 105.7442 0.0000 0.0000 0.0000
# 4 0.0000 0.0000 0.0000 -72.9790 0.0000 0.0000
# 5 0.0000 0.0000 0.0000 0.0000 5.8782 0.0000
# 6 0.0000 0.0000 0.0000 0.0000 0.0000 4.8036
#
#
#
# Elastic Compliance Matrix: (Units=1/GPa)
#
#
# Indices 1 2 3 4 5 6 
#
# 1 0.045582 0.002581 -0.001225 0.000000 0.000000 0.000000
# 2 0.002581 0.012090 -0.001754 0.000000 0.000000 0.000000
# 3 -0.001225 -0.001754 0.009727 0.000000 0.000000 0.000000
# 4 0.000000 0.000000 0.000000 -0.013703 0.000000 0.000000
# 5 0.000000 0.000000 0.000000 0.000000 0.170119 0.000000
# 6 0.000000 0.000000 0.000000 0.000000 0.000000 0.208178
#
#
# Mechanical properties :
#
#
# Convention : Reuss Voigt Hill
#
# Bulk Modulus (GPa) = 15.01440 26.52533 20.76986
# Shear Modulus (GPa) = 10.98924 0.96482 5.97703
#
# Velocity S-wave (km/s) = 2.40894 0.71378 1.77658
# Velocity P-wave (km/s) = 3.95802 3.83228 3.89566
#
# Compressibility (1/GPa) = 0.06660272
#
# Stress axis : x y z
#
# Youngs Moduli (GPa) = 21.93847 82.71369 102.80279
#
# Poissons Ratio (x) = -0.21347 0.12593
# Poissons Ratio (y) = -0.05662 0.18033
# Poissons Ratio (z) = 0.02687 0.14509
#
# Static dielectric constant tensor:
#      x y z
#    x 1.652800 0.000000 0.000000 
#    y 0.000000 1.700600 0.000000 
#    z 0.000000 0.000000 1.680450 
# 
# From -- ./inp_files/48625.got.cif
#   From: 2010.05.17/outbox.cif.g08.bks.cpg/sg71_25_cif.got.tgz:48625.got - 2010.06.03 16:22:01.
