data_PCOD9521389
_publ_section_title
;
Structure prediction by ZEFSAII (Michael W. Deem and Ramdas Pophale) SiO2 
 PCOD9521389
Probable space group: I M M M
;
_chemical_formula_sum "Si O2"
_cell_formula_units_Z 120
_cell_length_a 24.510849
_cell_length_b 29.288558
_cell_length_c 8.790981
_cell_angle_alpha 90.000000
_cell_angle_beta 90.000000
_cell_angle_gamma 90.000000
_cell_volume 6310.934692
_symmetry_space_group_name_H-M "I M M M"
_symmetry_group_IT_number 71
_symmetry_cell_setting 'orthorhombic'
loop_
_space_group_symop_operation_xyz
x,y,z
-x,-y,z
x,-y,-z
-x,y,-z
-x,-y,-z
x,y,-z
-x,y,z
x,-y,z
1/2+x,1/2+y,1/2+z
1/2-x,1/2-y,1/2+z
1/2+x,1/2-y,1/2-z
1/2-x,1/2+y,1/2-z
1/2-x,1/2-y,1/2-z
1/2+x,1/2+y,1/2-z
1/2-x,1/2+y,1/2+z
1/2+x,1/2-y,1/2+z
loop_
_atom_site_type_symbol
_atom_site_label
_atom_site_fract_x
_atom_site_fract_y
_atom_site_fract_z
Si Si1 0.934604 0.281355 0.675030
Si Si2 0.262666 0.701568 0.825741
Si Si3 0.374894 0.588071 0.184147
Si Si4 0.893047 0.812739 0.674812
Si Si5 0.147166 0.552230 0.316630
Si Si6 0.755845 0.105839 0.817999
Si Si7 0.935473 0.000000 0.817500
Si Si8 0.936363 0.376240 0.181271
O O1 0.914108 0.283578 0.500000
O O2 0.917328 0.233008 0.746383
O O3 0.916516 0.326699 0.761252
O O4 0.000000 0.281956 0.671227
O O5 0.250000 0.750000 0.750000
O O6 0.328076 0.694834 0.828100
O O7 0.241731 0.657258 0.735797
O O8 0.243071 0.700899 0.000000
O O9 0.401606 0.636394 0.237153
O O10 0.312327 0.590072 0.240945
O O11 0.406478 0.544742 0.248931
O O12 0.375092 0.587658 0.000000
O O13 0.913737 0.813566 0.500000
O O14 0.143667 0.553328 0.500000
O O15 0.141896 0.500000 0.265837
O O16 0.206112 0.572866 0.275466
O O17 0.100461 0.584283 0.250245
O O18 0.762923 0.105453 0.000000
O O19 0.000000 0.000000 0.781570
O O20 0.929193 0.000000 0.000000
O O21 0.000000 0.381429 0.227638
O O22 0.933920 0.377478 0.000000
#
# Coordination Sequence:
#
# PCOD9521389 Si02
#       8
#    16  16  16  16  16  16   8  16
#     4   9  17  32  56  82 108 146 190 228 276 340
#     4  10  20  34  52  79 116 154 195 238 285 342
#     4  10  21  39  62  89 120 156 197 247 301 356
#     4   8  17  33  53  79 112 145 184 233 284 341
#     4  10  23  41  61  86 112 147 197 245 292 353
#     4  10  21  38  60  86 119 157 194 239 298 356
#     4  11  25  43  63  89 121 161 206 249 298 355
#     4  10  22  39  57  82 117 152 187 236 297 352
#
# _framework density 19.014616
#
# number of rings (size 3 to 8) (size 9 to 14) (size 15 to 20)
#    0.000    2.333    0.000    2.600    2.800    3.467 
#    0.000    6.000    0.000    1.600    0.000    0.000 
#    0.000    0.000    0.000    0.000    0.000    0.000 
#
# Total GULP energy -334787.469633 kJ/mol
# GULP energy per Si atom -5579.791161 kJ/mol
# Density = 1.897134 g / cm^3
# Si number density = 19.014616 Si / 1000 Ang^3
#
#
#
# Elastic Constant Matrix: (Units=GPa)
#
#
# Indices 1 2 3 4 5 6 
#
# 1 67.9314 84.4628 36.0894 0.0000 0.0000 0.0000
# 2 84.4628 227.0018 52.8247 0.0000 0.0000 0.0000
# 3 36.0894 52.8247 49.8716 0.0000 0.0000 0.0000
# 4 0.0000 0.0000 0.0000 24.3831 0.0000 0.0000
# 5 0.0000 0.0000 0.0000 0.0000 22.7064 0.0000
# 6 0.0000 0.0000 0.0000 0.0000 0.0000 36.9410
#
#
#
# Elastic Compliance Matrix: (Units=1/GPa)
#
#
# Indices 1 2 3 4 5 6 
#
# 1 0.034110 -0.009220 -0.014917 0.000000 0.000000 0.000000
# 2 -0.009220 0.008339 -0.002160 0.000000 0.000000 0.000000
# 3 -0.014917 -0.002160 0.033134 0.000000 0.000000 0.000000
# 4 0.000000 0.000000 0.000000 0.041012 0.000000 0.000000
# 5 0.000000 0.000000 0.000000 0.000000 0.044041 0.000000
# 6 0.000000 0.000000 0.000000 0.000000 0.000000 0.027070
#
#
# Mechanical properties :
#
#
# Convention : Reuss Voigt Hill
#
# Bulk Modulus (GPa) = 43.50193 76.83983 60.17088
# Shear Modulus (GPa) = 20.16430 28.23462 24.19946
#
# Velocity S-wave (km/s) = 3.26001 3.85761 3.57133
# Velocity P-wave (km/s) = 6.09081 7.76789 6.97991
#
# Compressibility (1/GPa) = 0.02298748
#
# Stress axis : x y z
#
# Youngs Moduli (GPa) = 29.31724 119.92449 30.18013
#
# Poissons Ratio (x) = 1.10573 0.45020
# Poissons Ratio (y) = 0.27031 0.06519
# Poissons Ratio (z) = 0.43733 0.25906
#
# Static dielectric constant tensor:
#      x y z
#    x 1.651460 0.000000 0.000000 
#    y 0.000000 1.663760 0.000000 
#    z 0.000000 0.000000 1.652650 
# 
# From -- ./inp_files/15623.got.cif
#   From: 2010.05.17/outbox.cif.g08.bks.cpg/sg71_8_cif.got.tgz:15623.got - 2010.06.03 16:22:01.
