data_PCOD9521542
_publ_section_title
;
Structure prediction by ZEFSAII (Michael W. Deem and Ramdas Pophale) SiO2 
 PCOD9521542
Probable space group: I M M M
;
_chemical_formula_sum "Si O2"
_cell_formula_units_Z 88
_cell_length_a 17.004776
_cell_length_b 8.030983
_cell_length_c 30.097938
_cell_angle_alpha 90.000000
_cell_angle_beta 90.000000
_cell_angle_gamma 90.000000
_cell_volume 4110.326919
_symmetry_space_group_name_H-M "I M M M"
_symmetry_group_IT_number 71
_symmetry_cell_setting 'orthorhombic'
loop_
_space_group_symop_operation_xyz
x,y,z
-x,-y,z
x,-y,-z
-x,y,-z
-x,-y,-z
x,y,-z
-x,y,z
x,-y,z
1/2+x,1/2+y,1/2+z
1/2-x,1/2-y,1/2+z
1/2+x,1/2-y,1/2-z
1/2-x,1/2+y,1/2-z
1/2-x,1/2-y,1/2-z
1/2+x,1/2+y,1/2-z
1/2-x,1/2+y,1/2+z
1/2+x,1/2-y,1/2+z
loop_
_atom_site_type_symbol
_atom_site_label
_atom_site_fract_x
_atom_site_fract_y
_atom_site_fract_z
Si Si1 0.500000 0.703751 0.946531
Si Si2 0.253574 0.191288 0.048112
Si Si3 0.750774 0.199756 0.301405
Si Si4 0.585774 0.191886 0.561056
Si Si5 0.858798 0.811062 0.380258
Si Si6 0.585005 0.304116 0.340803
O O1 0.500000 0.500000 0.948638
O O2 0.574213 0.756812 0.914746
O O3 0.500000 0.756425 0.000000
O O4 0.160103 0.204209 0.046367
O O5 0.283368 0.305093 0.087594
O O6 0.276008 0.000000 0.056748
O O7 0.286015 0.243203 0.000000
O O8 0.750000 0.250000 0.250000
O O9 0.822877 0.261656 0.333854
O O10 0.665980 0.262757 0.317361
O O11 0.753395 0.000000 0.305053
O O12 0.500000 0.252271 0.546964
O O13 0.585141 0.201507 0.614112
O O14 0.595447 0.000000 0.547789
O O15 0.884256 0.000000 0.370302
O O16 0.500000 0.273018 0.317615
O O17 0.586508 0.500000 0.352204
#
# Coordination Sequence:
#
# PCOD9521542 Si02
#       6
#     8  16  16  16  16  16
#     4   9  18  36  65  97 125 155 199 259 322 387
#     4  11  23  36  54  82 116 155 197 243 298 361
#     4  11  23  39  61  90 124 162 206 256 312 375
#     4  10  20  34  54  80 112 151 194 239 287 344
#     4  10  21  39  63  89 117 155 201 252 309 374
#     4  10  20  36  60  88 118 155 198 247 302 362
#
# _framework density 21.409489000000001
#
# number of rings (size 3 to 8) (size 9 to 14) (size 15 to 20)
#    0.000    1.727    1.818    2.727    0.000    5.455 
#    1.636    2.273    0.000    1.636    0.000    0.000 
#    0.000    0.000    0.000    0.000    0.000    0.000 
#
# Total GULP energy -245060.928787 kJ/mol
# GULP energy per Si atom -5569.566563 kJ/mol
# Density = 2.136076 g / cm^3
# Si number density = 21.409489 Si / 1000 Ang^3
#
#
#
# Elastic Constant Matrix: (Units=GPa)
#
#
# Indices 1 2 3 4 5 6 
#
# 1 126.8184 7.9794 66.8802 0.0000 0.0000 0.0000
# 2 7.9794 45.1773 12.4279 0.0000 0.0000 0.0000
# 3 66.8802 12.4279 156.5627 0.0000 0.0000 0.0000
# 4 0.0000 0.0000 0.0000 68.3203 0.0000 0.0000
# 5 0.0000 0.0000 0.0000 0.0000 30.3985 0.0000
# 6 0.0000 0.0000 0.0000 0.0000 0.0000 18.6053
#
#
#
# Elastic Compliance Matrix: (Units=1/GPa)
#
#
# Indices 1 2 3 4 5 6 
#
# 1 0.010195 -0.000616 -0.004306 0.000000 0.000000 0.000000
# 2 -0.000616 0.022666 -0.001536 0.000000 0.000000 0.000000
# 3 -0.004306 -0.001536 0.008349 0.000000 0.000000 0.000000
# 4 0.000000 0.000000 0.000000 0.014637 0.000000 0.000000
# 5 0.000000 0.000000 0.000000 0.000000 0.032896 0.000000
# 6 0.000000 0.000000 0.000000 0.000000 0.000000 0.053748
#
#
# Mechanical properties :
#
#
# Convention : Reuss Voigt Hill
#
# Bulk Modulus (GPa) = 35.34396 55.90371 45.62384
# Shear Modulus (GPa) = 30.33254 39.54952 34.94103
#
# Velocity S-wave (km/s) = 3.76810 4.30267 4.04423
# Velocity P-wave (km/s) = 5.95616 7.13108 6.56994
#
# Compressibility (1/GPa) = 0.02829337
#
# Stress axis : x y z
#
# Youngs Moduli (GPa) = 98.08723 44.11816 119.77974
#
# Poissons Ratio (x) = 0.02718 0.51579
# Poissons Ratio (y) = 0.06043 0.18399
# Poissons Ratio (z) = 0.42238 0.06777
#
# Static dielectric constant tensor:
#      x y z
#    x 1.834370 0.000000 0.000000 
#    y 0.000000 1.770270 0.000000 
#    z 0.000000 0.000000 1.795530 
# 
# From -- ./inp_files/8750.got.cif
#   From: 2010.05.17/outbox.cif.g08.bks.cpg/sg71_5_cif.got.tgz:8750.got - 2010.06.03 16:22:01.
