data_PCOD9521203
_publ_section_title
;
Structure prediction by ZEFSAII (Michael W. Deem and Ramdas Pophale) SiO2 
 PCOD9521203
Probable space group: I M M M
;
_chemical_formula_sum "Si O2"
_cell_formula_units_Z 116
_cell_length_a 27.805142
_cell_length_b 8.046113
_cell_length_c 29.207816
_cell_angle_alpha 90.000000
_cell_angle_beta 90.000000
_cell_angle_gamma 90.000000
_cell_volume 6534.469405
_symmetry_space_group_name_H-M "I M M M"
_symmetry_group_IT_number 71
_symmetry_cell_setting 'orthorhombic'
loop_
_space_group_symop_operation_xyz
x,y,z
-x,-y,z
x,-y,-z
-x,y,-z
-x,-y,-z
x,y,-z
-x,y,z
x,-y,z
1/2+x,1/2+y,1/2+z
1/2-x,1/2-y,1/2+z
1/2+x,1/2-y,1/2-z
1/2-x,1/2+y,1/2-z
1/2-x,1/2-y,1/2-z
1/2+x,1/2+y,1/2-z
1/2-x,1/2+y,1/2+z
1/2+x,1/2-y,1/2+z
loop_
_atom_site_type_symbol
_atom_site_label
_atom_site_fract_x
_atom_site_fract_y
_atom_site_fract_z
Si Si1 0.671545 0.689791 0.138468
Si Si2 0.285949 0.808877 0.050685
Si Si3 0.646952 0.196833 0.647981
Si Si4 0.054638 0.801788 0.201721
Si Si5 0.426547 0.700657 0.190544
Si Si6 0.241368 0.194007 0.801772
Si Si7 0.320420 0.194403 0.550901
Si Si8 0.000000 0.500000 0.667299
O O1 0.666358 0.500000 0.124322
O O2 0.676565 0.788534 0.091359
O O3 0.627021 0.727933 0.171384
O O4 0.720939 0.712929 0.165935
O O5 0.237014 0.707455 0.058846
O O6 0.270130 0.000000 0.050246
O O7 0.304683 0.766165 0.000000
O O8 0.594424 0.226541 0.668522
O O9 0.687369 0.274778 0.680893
O O10 0.654110 0.264202 0.596234
O O11 0.656680 0.000000 0.646980
O O12 0.069149 0.775202 0.254715
O O13 0.000000 0.738909 0.195426
O O14 0.054344 0.000000 0.194454
O O15 0.438686 0.500000 0.182393
O O16 0.458926 0.847939 0.169497
O O17 0.250000 0.250000 0.750000
O O18 0.252136 0.000000 0.805771
O O19 0.329946 0.266976 0.500000
O O20 0.333321 0.000000 0.548562
#
# Coordination Sequence:
#
# PCOD9521203 Si02
#       8
#    16  16  16  16  16  16  16   4
#     4  11  22  37  57  82 117 151 189 233 285 341
#     4  10  20  33  53  82 115 149 189 234 278 336
#     4  11  22  34  55  83 110 145 189 229 283 345
#     4  10  21  39  58  77 110 145 187 243 288 331
#     4  10  23  39  58  88 117 151 194 245 290 340
#     4  12  24  37  53  75 113 153 188 225 271 345
#     4   9  18  34  54  77 109 148 187 229 279 337
#     4  12  22  36  68  82 117 154 199 240 290 340
#
# _framework density 17.752016000000001
#
# number of rings (size 3 to 8) (size 9 to 14) (size 15 to 20)
#    0.000    1.517    2.069    3.517    2.897    2.759 
#    0.000    0.000    0.000    0.414    0.000    3.862 
#    0.000    2.207    0.000    0.000    0.000    0.000 
#
# Total GULP energy -322922.365814 kJ/mol
# GULP energy per Si atom -5567.626997 kJ/mol
# Density = 1.771161 g / cm^3
# Si number density = 17.752016 Si / 1000 Ang^3
#
#
#
# Elastic Constant Matrix: (Units=GPa)
#
#
# Indices 1 2 3 4 5 6 
#
# 1 93.4003 11.4783 53.2402 0.0000 0.0000 0.0000
# 2 11.4783 37.4616 8.4568 0.0000 0.0000 0.0000
# 3 53.2402 8.4568 108.9571 0.0000 0.0000 0.0000
# 4 0.0000 0.0000 0.0000 19.6050 0.0000 0.0000
# 5 0.0000 0.0000 0.0000 0.0000 -10.1133 0.0000
# 6 0.0000 0.0000 0.0000 0.0000 0.0000 27.0932
#
#
#
# Elastic Compliance Matrix: (Units=1/GPa)
#
#
# Indices 1 2 3 4 5 6 
#
# 1 0.015170 -0.003028 -0.007178 0.000000 0.000000 0.000000
# 2 -0.003028 0.027774 -0.000676 0.000000 0.000000 0.000000
# 3 -0.007178 -0.000676 0.012738 0.000000 0.000000 0.000000
# 4 0.000000 0.000000 0.000000 0.051007 0.000000 0.000000
# 5 0.000000 0.000000 0.000000 0.000000 -0.098879 0.000000
# 6 0.000000 0.000000 0.000000 0.000000 0.000000 0.036910
#
#
# Mechanical properties :
#
#
# Convention : Reuss Voigt Hill
#
# Bulk Modulus (GPa) = 29.48217 42.90772 36.19495
# Shear Modulus (GPa) = 64.27591 18.42655 41.35123
#
# Velocity S-wave (km/s) = 6.02381 3.22529 4.83160
# Velocity P-wave (km/s) = 8.06384 6.17196 7.18048
#
# Compressibility (1/GPa) = 0.03391880
#
# Stress axis : x y z
#
# Youngs Moduli (GPa) = 65.91908 36.00437 78.50741
#
# Poissons Ratio (x) = 0.10901 0.56350
# Poissons Ratio (y) = 0.19959 0.05309
# Poissons Ratio (z) = 0.47314 0.02435
#
# Static dielectric constant tensor:
#      x y z
#    x 1.588780 0.000000 0.000000 
#    y 0.000000 1.654890 0.000000 
#    z 0.000000 0.000000 1.628440 
# 
# From -- ./inp_files/67128.got.cif
#   From: 2010.05.17/outbox.cif.g08.bks.cpg/sg71_34_cif.got.tgz:67128.got - 2010.06.03 16:22:01.
