data_PCOD9521918
_publ_section_title
;
Structure prediction by ZEFSAII (Michael W. Deem and Ramdas Pophale) SiO2 
 PCOD9521918
Probable space group: I M M M
;
_chemical_formula_sum "Si O2"
_cell_formula_units_Z 104
_cell_length_a 21.523558
_cell_length_b 8.588435
_cell_length_c 25.507933
_cell_angle_alpha 90.000000
_cell_angle_beta 90.000000
_cell_angle_gamma 90.000000
_cell_volume 4715.235255
_symmetry_space_group_name_H-M "I M M M"
_symmetry_group_IT_number 71
_symmetry_cell_setting 'orthorhombic'
loop_
_space_group_symop_operation_xyz
x,y,z
-x,-y,z
x,-y,-z
-x,y,-z
-x,-y,-z
x,y,-z
-x,y,z
x,-y,z
1/2+x,1/2+y,1/2+z
1/2-x,1/2-y,1/2+z
1/2+x,1/2-y,1/2-z
1/2-x,1/2+y,1/2-z
1/2-x,1/2-y,1/2-z
1/2+x,1/2+y,1/2-z
1/2-x,1/2+y,1/2+z
1/2+x,1/2-y,1/2+z
loop_
_atom_site_type_symbol
_atom_site_label
_atom_site_fract_x
_atom_site_fract_y
_atom_site_fract_z
Si Si1 0.573226 0.323188 0.335269
Si Si2 0.624288 0.311971 0.444074
Si Si3 0.607040 0.169162 0.061261
Si Si4 0.927294 0.000000 0.440912
Si Si5 0.928539 0.683968 0.277937
Si Si6 0.793916 0.817974 0.296283
Si Si7 0.745038 0.176599 0.097752
O O1 0.500000 0.337611 0.342300
O O2 0.598599 0.500000 0.327120
O O3 0.598216 0.253113 0.389154
O O4 0.582292 0.223568 0.283399
O O5 0.600399 0.252719 0.500000
O O6 0.613179 0.500000 0.443596
O O7 0.697683 0.285549 0.439241
O O8 0.586937 0.334086 0.085181
O O9 0.681063 0.173921 0.066135
O O10 0.585997 0.000000 0.083095
O O11 0.587499 0.170885 0.000000
O O12 0.897496 0.000000 0.500000
O O13 0.000000 0.000000 0.447502
O O14 0.929744 0.500000 0.286471
O O15 0.863847 0.747532 0.301772
O O16 0.000000 0.742721 0.290892
O O17 0.750000 0.750000 0.250000
O O18 0.760884 0.784528 0.351747
O O19 0.800741 0.000000 0.286751
O O20 0.755112 0.000000 0.117902
#
# Coordination Sequence:
#
# PCOD9521918 Si02
#       7
#    16  16  16   8  16  16  16
#     4   9  17  30  52  83 117 153 192 233 280 337
#     4   9  17  30  51  80 114 152 193 237 283 335
#     4   9  18  33  55  81 110 146 186 231 284 341
#     4   9  18  32  52  78 108 142 183 229 273 329
#     4  10  21  39  63  88 117 154 198 248 302 362
#     4  12  25  40  61  87 118 153 195 246 301 362
#     4  10  20  35  56  80 109 145 190 239 292 348
#
# _framework density 22.056165
#
# number of rings (size 3 to 8) (size 9 to 14) (size 15 to 20)
#    0.000    2.231    0.000    3.231    1.077    4.615 
#    0.000    3.846    0.000    2.308    0.000    2.154 
#    0.000    0.000    0.000    0.000    0.000    0.000 
#
# Total GULP energy -289916.641614 kJ/mol
# GULP energy per Si atom -5575.320031 kJ/mol
# Density = 2.200596 g / cm^3
# Si number density = 22.056165 Si / 1000 Ang^3
#
#
#
# Elastic Constant Matrix: (Units=GPa)
#
#
# Indices 1 2 3 4 5 6 
#
# 1 30.3921 20.3386 12.7009 0.0000 0.0000 0.0000
# 2 20.3386 114.1969 4.6653 0.0000 0.0000 0.0000
# 3 12.7009 4.6653 74.4171 0.0000 0.0000 0.0000
# 4 0.0000 0.0000 0.0000 -43.4246 0.0000 0.0000
# 5 0.0000 0.0000 0.0000 0.0000 10.0251 0.0000
# 6 0.0000 0.0000 0.0000 0.0000 0.0000 21.4755
#
#
#
# Elastic Compliance Matrix: (Units=1/GPa)
#
#
# Indices 1 2 3 4 5 6 
#
# 1 0.040207 -0.006898 -0.006430 0.000000 0.000000 0.000000
# 2 -0.006898 0.009963 0.000553 0.000000 0.000000 0.000000
# 3 -0.006430 0.000553 0.014500 0.000000 0.000000 0.000000
# 4 0.000000 0.000000 0.000000 -0.023028 0.000000 0.000000
# 5 0.000000 0.000000 0.000000 0.000000 0.099750 0.000000
# 6 0.000000 0.000000 0.000000 0.000000 0.000000 0.046565
#
#
# Mechanical properties :
#
#
# Convention : Reuss Voigt Hill
#
# Bulk Modulus (GPa) = 25.56258 32.71285 29.13771
# Shear Modulus (GPa) = 22.07057 9.70196 15.88626
#
# Velocity S-wave (km/s) = 3.16674 2.09960 2.68669
# Velocity P-wave (km/s) = 4.99859 4.55429 4.78160
#
# Compressibility (1/GPa) = 0.03911969
#
# Stress axis : x y z
#
# Youngs Moduli (GPa) = 24.87154 100.37348 68.96327
#
# Poissons Ratio (x) = 0.69239 0.44341
# Poissons Ratio (y) = 0.17157 -0.03812
# Poissons Ratio (z) = 0.15992 -0.05548
#
# Static dielectric constant tensor:
#      x y z
#    x 1.821880 0.000000 0.000000 
#    y 0.000000 1.817420 0.000000 
#    z 0.000000 0.000000 1.908230 
# 
# From -- ./inp_files/63549.got.cif
#   From: 2010.05.17/outbox.cif.g08.bks.cpg/sg71_32_cif.got.tgz:63549.got - 2010.06.03 16:22:01.
