data_PCOD9521451
_publ_section_title
;
Structure prediction by ZEFSAII (Michael W. Deem and Ramdas Pophale) SiO2 
 PCOD9521451
Probable space group: I M M M
;
_chemical_formula_sum "Si O2"
_cell_formula_units_Z 56
_cell_length_a 9.273899
_cell_length_b 7.653057
_cell_length_c 37.155507
_cell_angle_alpha 90.000000
_cell_angle_beta 90.000000
_cell_angle_gamma 90.000000
_cell_volume 2637.062977
_symmetry_space_group_name_H-M "I M M M"
_symmetry_group_IT_number 71
_symmetry_cell_setting 'orthorhombic'
loop_
_space_group_symop_operation_xyz
x,y,z
-x,-y,z
x,-y,-z
-x,y,-z
-x,-y,-z
x,y,-z
-x,y,z
x,-y,z
1/2+x,1/2+y,1/2+z
1/2-x,1/2-y,1/2+z
1/2+x,1/2-y,1/2-z
1/2-x,1/2+y,1/2-z
1/2-x,1/2-y,1/2-z
1/2+x,1/2+y,1/2-z
1/2-x,1/2+y,1/2+z
1/2+x,1/2-y,1/2+z
loop_
_atom_site_type_symbol
_atom_site_label
_atom_site_fract_x
_atom_site_fract_y
_atom_site_fract_z
Si Si1 0.663492 0.791840 0.500000
Si Si2 0.664077 0.209945 0.786298
Si Si3 0.663488 0.208912 0.927742
Si Si4 0.666373 0.285813 0.642781
O O1 0.500000 0.720428 0.500000
O O2 0.749942 0.740200 0.535666
O O3 0.654332 0.000000 0.500000
O O4 0.500000 0.276777 0.784978
O O5 0.750000 0.250000 0.750000
O O6 0.750088 0.272511 0.821437
O O7 0.656561 0.000000 0.789332
O O8 0.500000 0.278003 0.929576
O O9 0.750931 0.274082 0.893045
O O10 0.653290 0.000000 0.923387
O O11 0.500000 0.230468 0.642910
O O12 0.666256 0.500000 0.642718
#
# Coordination Sequence:
#
# PCOD9521451 Si02
#       4
#     8  16  16  16
#     4  11  24  39  54  76 108 143 176 213 260 312
#     4  10  20  34  53  78 108 141 177 218 263 311
#     4  10  20  35  57  83 107 134 173 218 261 309
#     4   9  17  31  53  79 106 137 173 215 262 309
#
# _framework density 21.235745000000001
#
# number of rings (size 3 to 8) (size 9 to 14) (size 15 to 20)
#    0.000    2.143    0.000    3.429    0.000    9.714 
#    0.000    1.429    0.000    8.571    0.000    0.000 
#    0.000    0.000    0.000    0.000    0.000    0.000 
#
# Total GULP energy -156508.109587 kJ/mol
# GULP energy per Si atom -5589.575342 kJ/mol
# Density = 2.118741 g / cm^3
# Si number density = 21.235745 Si / 1000 Ang^3
#
#
#
# Elastic Constant Matrix: (Units=GPa)
#
#
# Indices 1 2 3 4 5 6 
#
# 1 276.3482 8.3048 164.9833 0.0000 0.0000 0.0000
# 2 8.3048 39.4189 -2.1096 0.0000 0.0000 0.0000
# 3 164.9833 -2.1096 255.4384 0.0000 0.0000 0.0000
# 4 0.0000 0.0000 0.0000 17.5589 0.0000 0.0000
# 5 0.0000 0.0000 0.0000 0.0000 48.3358 0.0000
# 6 0.0000 0.0000 0.0000 0.0000 0.0000 10.9195
#
#
#
# Elastic Compliance Matrix: (Units=1/GPa)
#
#
# Indices 1 2 3 4 5 6 
#
# 1 0.005973 -0.001466 -0.003870 0.000000 0.000000 0.000000
# 2 -0.001466 0.025739 0.001159 0.000000 0.000000 0.000000
# 3 -0.003870 0.001159 0.006424 0.000000 0.000000 0.000000
# 4 0.000000 0.000000 0.000000 0.056951 0.000000 0.000000
# 5 0.000000 0.000000 0.000000 0.000000 0.020689 0.000000
# 6 0.000000 0.000000 0.000000 0.000000 0.000000 0.091579
#
#
# Mechanical properties :
#
#
# Convention : Reuss Voigt Hill
#
# Bulk Modulus (GPa) = 33.57557 101.50695 67.54126
# Shear Modulus (GPa) = 22.15959 42.03132 32.09545
#
# Velocity S-wave (km/s) = 3.23384 4.45373 3.89188
# Velocity P-wave (km/s) = 5.45791 8.62273 7.21596
#
# Compressibility (1/GPa) = 0.02978356
#
# Stress axis : x y z
#
# Youngs Moduli (GPa) = 167.41641 38.85107 155.66607
#
# Poissons Ratio (x) = 0.05694 0.60243
# Poissons Ratio (y) = 0.24535 -0.18044
# Poissons Ratio (z) = 0.64791 -0.04503
#
# Static dielectric constant tensor:
#      x y z
#    x 1.749140 0.000000 0.000000 
#    y 0.000000 1.820960 0.000000 
#    z 0.000000 0.000000 1.712280 
# 
# From -- ./inp_files/67634.got.cif
#   From: 2010.05.17/outbox.cif.g08.bks.cpg/sg71_34_cif.got.tgz:67634.got - 2010.06.03 16:22:01.
