data_PCOD9521212
_publ_section_title
;
Structure prediction by ZEFSAII (Michael W. Deem and Ramdas Pophale) SiO2 
 PCOD9521212
Probable space group: I M M M
;
_chemical_formula_sum "Si O2"
_cell_formula_units_Z 58
_cell_length_a 12.675122
_cell_length_b 7.438108
_cell_length_c 27.465923
_cell_angle_alpha 90.000000
_cell_angle_beta 90.000000
_cell_angle_gamma 90.000000
_cell_volume 2589.457732
_symmetry_space_group_name_H-M "I M M M"
_symmetry_group_IT_number 71
_symmetry_cell_setting 'orthorhombic'
loop_
_space_group_symop_operation_xyz
x,y,z
-x,-y,z
x,-y,-z
-x,y,-z
-x,-y,-z
x,y,-z
-x,y,z
x,-y,z
1/2+x,1/2+y,1/2+z
1/2-x,1/2-y,1/2+z
1/2+x,1/2-y,1/2-z
1/2-x,1/2+y,1/2-z
1/2-x,1/2-y,1/2-z
1/2+x,1/2+y,1/2-z
1/2-x,1/2+y,1/2+z
1/2+x,1/2-y,1/2+z
loop_
_atom_site_type_symbol
_atom_site_label
_atom_site_fract_x
_atom_site_fract_y
_atom_site_fract_z
Si Si1 0.500000 0.000000 0.000000
Si Si2 0.885362 0.782227 0.287197
Si Si3 0.799539 0.778439 0.500000
Si Si4 0.838600 0.204972 0.821293
Si Si5 0.114480 0.706565 0.070654
O O1 0.594653 0.840196 0.000000
O O2 0.874876 0.719684 0.230973
O O3 0.787862 0.711548 0.317530
O O4 0.000000 0.732350 0.306210
O O5 0.877151 0.000000 0.286482
O O6 0.721763 0.727937 0.454580
O O7 0.819056 0.000000 0.500000
O O8 0.874847 0.290585 0.871060
O O9 0.875084 0.000000 0.822912
O O10 0.109270 0.500000 0.055236
O O11 0.000000 0.789481 0.058181
#
# Coordination Sequence:
#
# PCOD9521212 Si02
#       5
#     2  16   8  16  16
#     4  12  26  48  74  98 128 180 210 262 312 394
#     4   9  18  34  52  74 111 160 206 252 306 371
#     4  10  24  47  71  99 133 168 213 262 320 382
#     4  10  20  33  53  84 119 152 199 256 313 370
#     4  10  21  40  66  94 124 161 204 260 323 385
#
# _framework density 22.398513000000001
#
# number of rings (size 3 to 8) (size 9 to 14) (size 15 to 20)
#    0.000    2.207    0.000    2.276    1.931    4.966 
#    2.483    0.690    0.000    0.000    0.000    0.000 
#    0.000    0.000    0.000    0.000    0.000    0.000 
#
# Total GULP energy -161548.955925 kJ/mol
# GULP energy per Si atom -5570.653653 kJ/mol
# Density = 2.234753 g / cm^3
# Si number density = 22.398513 Si / 1000 Ang^3
#
#
#
# Elastic Constant Matrix: (Units=GPa)
#
#
# Indices 1 2 3 4 5 6 
#
# 1 235.9579 38.4284 38.4354 0.0000 0.0000 0.0000
# 2 38.4284 102.3200 15.4811 0.0000 0.0000 0.0000
# 3 38.4354 15.4811 92.0095 0.0000 0.0000 0.0000
# 4 0.0000 0.0000 0.0000 4.5040 0.0000 0.0000
# 5 0.0000 0.0000 0.0000 0.0000 -21.4899 0.0000
# 6 0.0000 0.0000 0.0000 0.0000 0.0000 -7.6652
#
#
#
# Elastic Compliance Matrix: (Units=1/GPa)
#
#
# Indices 1 2 3 4 5 6 
#
# 1 0.004770 -0.001529 -0.001735 0.000000 0.000000 0.000000
# 2 -0.001529 0.010519 -0.001131 0.000000 0.000000 0.000000
# 3 -0.001735 -0.001131 0.011784 0.000000 0.000000 0.000000
# 4 0.000000 0.000000 0.000000 0.222027 0.000000 0.000000
# 5 0.000000 0.000000 0.000000 0.000000 -0.046533 0.000000
# 6 0.000000 0.000000 0.000000 0.000000 0.000000 -0.130460
#
#
# Mechanical properties :
#
#
# Convention : Reuss Voigt Hill
#
# Bulk Modulus (GPa) = 54.70020 68.33081 61.51551
# Shear Modulus (GPa) = 57.47782 17.59927 37.53854
#
# Velocity S-wave (km/s) = 5.07121 2.80614 4.09826
# Velocity P-wave (km/s) = 7.66576 6.40877 7.06527
#
# Compressibility (1/GPa) = 0.01828147
#
# Stress axis : x y z
#
# Youngs Moduli (GPa) = 209.65771 95.06985 84.86354
#
# Poissons Ratio (x) = 0.14534 0.14726
# Poissons Ratio (y) = 0.32053 0.09600
# Poissons Ratio (z) = 0.36380 0.10754
#
# Static dielectric constant tensor:
#      x y z
#    x 1.839810 0.000000 0.000000 
#    y 0.000000 1.870700 0.000000 
#    z 0.000000 0.000000 1.808970 
# 
# From -- ./inp_files/18279.got.cif
#   From: 2010.05.17/outbox.cif.g08.bks.cpg/sg71_10_cif.got.tgz:18279.got - 2010.06.03 16:22:01.
