data_PCOD9521191
_publ_section_title
;
Structure prediction by ZEFSAII (Michael W. Deem and Ramdas Pophale) SiO2 
 PCOD9521191
Probable space group: I M M M
;
_chemical_formula_sum "Si O2"
_cell_formula_units_Z 72
_cell_length_a 33.141317
_cell_length_b 7.540289
_cell_length_c 13.330177
_cell_angle_alpha 90.000000
_cell_angle_beta 90.000000
_cell_angle_gamma 90.000000
_cell_volume 3331.146021
_symmetry_space_group_name_H-M "I M M M"
_symmetry_group_IT_number 71
_symmetry_cell_setting 'orthorhombic'
loop_
_space_group_symop_operation_xyz
x,y,z
-x,-y,z
x,-y,-z
-x,y,-z
-x,-y,-z
x,y,-z
-x,y,z
x,-y,z
1/2+x,1/2+y,1/2+z
1/2-x,1/2-y,1/2+z
1/2+x,1/2-y,1/2-z
1/2-x,1/2+y,1/2-z
1/2-x,1/2-y,1/2-z
1/2+x,1/2+y,1/2-z
1/2-x,1/2+y,1/2+z
1/2+x,1/2-y,1/2+z
loop_
_atom_site_type_symbol
_atom_site_label
_atom_site_fract_x
_atom_site_fract_y
_atom_site_fract_z
Si Si1 0.813070 0.704151 0.315082
Si Si2 0.453921 0.782822 0.000000
Si Si3 0.227675 0.784483 0.888901
Si Si4 0.597122 0.787698 0.809532
Si Si5 0.045954 0.786902 0.113230
O O1 0.815756 0.500000 0.349417
O O2 0.800006 0.710700 0.198810
O O3 0.773774 0.779067 0.371225
O O4 0.857471 0.784170 0.322859
O O5 0.431189 0.723544 0.100436
O O6 0.500000 0.724842 0.000000
O O7 0.453852 0.000000 0.000000
O O8 0.227587 0.000000 0.879487
O O9 0.214093 0.737830 0.000000
O O10 0.576921 0.757083 0.701432
O O11 0.599997 0.000000 0.819471
O O12 0.000000 0.724754 0.136155
O O13 0.044458 0.000000 0.109258
O O14 0.056503 0.725131 0.000000
#
# Coordination Sequence:
#
# PCOD9521191 Si02
#       5
#    16   8  16  16  16
#     4   9  19  33  49  74 102 129 165 208 253 299
#     4   9  18  32  51  77 107 137 169 209 259 309
#     4   9  18  33  53  72  96 133 171 206 248 302
#     4  10  20  33  53  79 106 135 170 214 259 308
#     4   9  19  36  55  74 100 136 173 210 256 307
#
# _framework density 21.614182
#
# number of rings (size 3 to 8) (size 9 to 14) (size 15 to 20)
#    0.000    2.778    0.000    1.333    1.556    4.000 
#    0.000    6.111    0.000    2.000    0.000    0.000 
#    0.000    0.000    0.000    0.000    0.000    0.000 
#
# Total GULP energy -200890.576971 kJ/mol
# GULP energy per Si atom -5580.293805 kJ/mol
# Density = 2.156499 g / cm^3
# Si number density = 21.614182 Si / 1000 Ang^3
#
#
#
# Elastic Constant Matrix: (Units=GPa)
#
#
# Indices 1 2 3 4 5 6 
#
# 1 139.8042 2.0752 30.8493 0.0000 0.0000 0.0000
# 2 2.0752 54.1363 -7.4500 0.0000 0.0000 0.0000
# 3 30.8493 -7.4500 74.9434 0.0000 0.0000 0.0000
# 4 0.0000 0.0000 0.0000 26.9497 0.0000 0.0000
# 5 0.0000 0.0000 0.0000 0.0000 -5.7996 0.0000
# 6 0.0000 0.0000 0.0000 0.0000 0.0000 16.3032
#
#
#
# Elastic Compliance Matrix: (Units=1/GPa)
#
#
# Indices 1 2 3 4 5 6 
#
# 1 0.007898 -0.000761 -0.003327 0.000000 0.000000 0.000000
# 2 -0.000761 0.018801 0.002182 0.000000 0.000000 0.000000
# 3 -0.003327 0.002182 0.014930 0.000000 0.000000 0.000000
# 4 0.000000 0.000000 0.000000 0.037106 0.000000 0.000000
# 5 0.000000 0.000000 0.000000 0.000000 -0.172425 0.000000
# 6 0.000000 0.000000 0.000000 0.000000 0.000000 0.061338
#
#
# Mechanical properties :
#
#
# Convention : Reuss Voigt Hill
#
# Bulk Modulus (GPa) = 26.44188 35.53698 30.98943
# Shear Modulus (GPa) = -313.77589 23.71794 -145.02897
#
# Velocity S-wave (km/s) = -12.06178 3.31619 -8.20028
# Velocity P-wave (km/s) = 13.48042 5.58033 8.67703
#
# Compressibility (1/GPa) = 0.03781879
#
# Stress axis : x y z
#
# Youngs Moduli (GPa) = 126.61038 53.18766 66.98037
#
# Poissons Ratio (x) = 0.04045 0.22283
# Poissons Ratio (y) = 0.09630 -0.14616
# Poissons Ratio (z) = 0.42121 -0.11606
#
# Static dielectric constant tensor:
#      x y z
#    x 1.777600 0.000000 0.000000 
#    y 0.000000 1.854990 0.000000 
#    z 0.000000 0.000000 1.753220 
# 
# From -- ./inp_files/19855.got.cif
#   From: 2010.05.17/outbox.cif.g08.bks.cpg/sg71_10_cif.got.tgz:19855.got - 2010.06.03 16:22:01.
