data_PCOD9521917
_publ_section_title
;
Structure prediction by ZEFSAII (Michael W. Deem and Ramdas Pophale) SiO2 
 PCOD9521917
Probable space group: I M M M
;
_chemical_formula_sum "Si O2"
_cell_formula_units_Z 64
_cell_length_a 8.718796
_cell_length_b 28.948457
_cell_length_c 14.483394
_cell_angle_alpha 90.000000
_cell_angle_beta 90.000000
_cell_angle_gamma 90.000000
_cell_volume 3655.546238
_symmetry_space_group_name_H-M "I M M M"
_symmetry_group_IT_number 71
_symmetry_cell_setting 'orthorhombic'
loop_
_space_group_symop_operation_xyz
x,y,z
-x,-y,z
x,-y,-z
-x,y,-z
-x,-y,-z
x,y,-z
-x,y,z
x,-y,z
1/2+x,1/2+y,1/2+z
1/2-x,1/2-y,1/2+z
1/2+x,1/2-y,1/2-z
1/2-x,1/2+y,1/2-z
1/2-x,1/2-y,1/2-z
1/2+x,1/2+y,1/2-z
1/2-x,1/2+y,1/2+z
1/2+x,1/2-y,1/2+z
loop_
_atom_site_type_symbol
_atom_site_label
_atom_site_fract_x
_atom_site_fract_y
_atom_site_fract_z
Si Si1 0.684152 0.053820 0.000000
Si Si2 0.816250 0.876600 0.147431
Si Si3 0.186215 0.447677 0.000000
Si Si4 0.683500 0.701354 0.500000
Si Si5 0.817574 0.802909 0.500000
Si Si6 0.184466 0.372036 0.852103
O O1 0.748778 0.080791 0.088954
O O2 0.500000 0.056963 0.000000
O O3 0.727801 0.000000 0.000000
O O4 0.748903 0.873848 0.249427
O O5 0.000000 0.880680 0.150162
O O6 0.779053 0.830490 0.088519
O O7 0.230372 0.417677 0.910557
O O8 0.243928 0.500000 0.000000
O O9 0.000000 0.449384 0.000000
O O10 0.500000 0.709551 0.500000
O O11 0.769237 0.749666 0.500000
O O12 0.748501 0.829113 0.410952
O O13 0.000000 0.807733 0.500000
O O14 0.000000 0.369598 0.850680
#
# Coordination Sequence:
#
# PCOD9521917 Si02
#       6
#     8  16   8   8   8  16
#     4  10  21  37  57  81 110 146 186 224 266 321
#     4  10  21  37  57  81 110 142 178 225 275 322
#     4   8  16  32  53  77 104 136 176 218 258 305
#     4   9  20  38  56  76 105 140 178 220 271 328
#     4  11  22  36  56  80 107 140 180 226 271 317
#     4  10  20  35  56  80 109 144 179 220 270 324
#
# _framework density 17.507645
#
# number of rings (size 3 to 8) (size 9 to 14) (size 15 to 20)
#    0.000    2.250    0.000    4.500    0.000    6.000 
#    0.000    2.500    0.000   12.750    0.000    0.000 
#    0.000    0.000    0.000    0.000    0.000    0.000 
#
# Total GULP energy -178629.242569 kJ/mol
# GULP energy per Si atom -5582.163830 kJ/mol
# Density = 1.746780 g / cm^3
# Si number density = 17.507645 Si / 1000 Ang^3
#
#
#
# Elastic Constant Matrix: (Units=GPa)
#
#
# Indices 1 2 3 4 5 6 
#
# 1 78.1792 71.0556 67.6627 0.0000 0.0000 0.0000
# 2 71.0556 173.7208 98.8573 0.0000 0.0000 0.0000
# 3 67.6627 98.8573 198.2982 0.0001 -0.0001 0.0000
# 4 0.0000 0.0000 0.0001 4.3958 0.0000 0.0000
# 5 0.0000 0.0000 -0.0001 0.0000 44.1814 0.0000
# 6 0.0000 0.0000 0.0000 0.0000 0.0000 24.6635
#
#
#
# Elastic Compliance Matrix: (Units=1/GPa)
#
#
# Indices 1 2 3 4 5 6 
#
# 1 0.022781 -0.006833 -0.004367 0.000000 0.000000 0.000000
# 2 -0.006833 0.010086 -0.002696 0.000000 0.000000 0.000000
# 3 -0.004367 -0.002696 0.007877 0.000000 0.000000 0.000000
# 4 0.000000 0.000000 0.000000 0.227490 0.000000 0.000000
# 5 0.000000 0.000000 0.000000 0.000000 0.022634 0.000000
# 6 0.000000 0.000000 0.000000 0.000000 0.000000 0.040546
#
#
# Mechanical properties :
#
#
# Convention : Reuss Voigt Hill
#
# Bulk Modulus (GPa) = 77.21233 102.81660 90.01447
# Shear Modulus (GPa) = 13.75430 28.82299 21.28864
#
# Velocity S-wave (km/s) = 2.80593 4.06187 3.49085
# Velocity P-wave (km/s) = 7.39564 8.99181 8.23250
#
# Compressibility (1/GPa) = 0.01295130
#
# Stress axis : x y z
#
# Youngs Moduli (GPa) = 43.89665 99.15127 126.94847
#
# Poissons Ratio (x) = 0.67749 0.55436
# Poissons Ratio (y) = 0.29994 0.34231
# Poissons Ratio (z) = 0.19169 0.26736
#
# Static dielectric constant tensor:
#      x y z
#    x 1.585300 0.000000 0.000000 
#    y 0.000000 1.580170 0.000000 
#    z 0.000000 0.000000 1.565930 
# 
# From -- ./inp_files/18512.got.cif
#   From: 2010.05.17/outbox.cif.g08.bks.cpg/sg71_10_cif.got.tgz:18512.got - 2010.06.03 16:22:01.
