data_PCOD9521316
_publ_section_title
;
Structure prediction by ZEFSAII (Michael W. Deem and Ramdas Pophale) SiO2 
 PCOD9521316
Probable space group: I M M M
;
_chemical_formula_sum "Si O2"
_cell_formula_units_Z 104
_cell_length_a 32.899013
_cell_length_b 20.586936
_cell_length_c 8.896336
_cell_angle_alpha 90.000000
_cell_angle_beta 90.000000
_cell_angle_gamma 90.000000
_cell_volume 6025.398298
_symmetry_space_group_name_H-M "I M M M"
_symmetry_group_IT_number 71
_symmetry_cell_setting 'orthorhombic'
loop_
_space_group_symop_operation_xyz
x,y,z
-x,-y,z
x,-y,-z
-x,y,-z
-x,-y,-z
x,y,-z
-x,y,z
x,-y,z
1/2+x,1/2+y,1/2+z
1/2-x,1/2-y,1/2+z
1/2+x,1/2-y,1/2-z
1/2-x,1/2+y,1/2-z
1/2-x,1/2-y,1/2-z
1/2+x,1/2+y,1/2-z
1/2-x,1/2+y,1/2+z
1/2+x,1/2-y,1/2+z
loop_
_atom_site_type_symbol
_atom_site_label
_atom_site_fract_x
_atom_site_fract_y
_atom_site_fract_z
Si Si1 0.548176 0.000000 0.670073
Si Si2 0.681468 0.425224 0.179091
Si Si3 0.454265 0.732026 0.820904
Si Si4 0.580988 0.872181 0.822590
Si Si5 0.335665 0.171605 0.679355
Si Si6 0.729191 0.074598 0.819719
Si Si7 0.130199 0.810910 0.819778
O O1 0.561337 0.936734 0.760047
O O2 0.500000 0.000000 0.659350
O O3 0.565226 0.000000 0.500000
O O4 0.669006 0.500000 0.207138
O O5 0.725800 0.416612 0.252940
O O6 0.650446 0.374142 0.248967
O O7 0.684573 0.415889 0.000000
O O8 0.500000 0.713987 0.771091
O O9 0.447502 0.809334 0.800135
O O10 0.415712 0.699772 0.739610
O O11 0.451279 0.719223 0.000000
O O12 0.622290 0.860326 0.732291
O O13 0.589807 0.877033 0.000000
O O14 0.331007 0.168387 0.500000
O O15 0.300013 0.130366 0.755734
O O16 0.342378 0.247464 0.722123
O O17 0.715940 0.000000 0.780553
O O18 0.730413 0.078789 0.000000
O O19 0.129595 0.814645 0.000000
#
# Coordination Sequence:
#
# PCOD9521316 Si02
#       7
#     8  16  16  16  16  16  16
#     4  11  23  35  47  67  97 135 179 227 279 329
#     4  10  21  38  60  84 109 140 177 217 268 325
#     4   9  18  34  56  80 106 138 176 219 267 319
#     4  10  20  34  52  73 100 136 180 227 273 320
#     4  10  21  36  53  77 109 144 183 224 270 320
#     4  10  21  36  55  79 108 144 187 229 271 319
#     4  10  21  36  56  83 112 143 179 219 267 321
#
# _framework density 17.260269999999998
#
# number of rings (size 3 to 8) (size 9 to 14) (size 15 to 20)
#    0.000    2.077    0.000    3.000    1.077    6.462 
#    0.000    0.000    0.000    0.462    0.000    3.231 
#    0.000    0.000    0.000    0.000    0.000    0.000 
#
# Total GULP energy -290176.939025 kJ/mol
# GULP energy per Si atom -5580.325750 kJ/mol
# Density = 1.722098 g / cm^3
# Si number density = 17.260270 Si / 1000 Ang^3
#
#
#
# Elastic Constant Matrix: (Units=GPa)
#
#
# Indices 1 2 3 4 5 6 
#
# 1 104.8366 86.4066 51.3108 0.0000 0.0000 0.0000
# 2 86.4066 118.8408 61.3880 0.0000 0.0000 0.0000
# 3 51.3108 61.3880 64.3323 0.0000 0.0000 0.0000
# 4 0.0000 0.0000 0.0000 27.8467 0.0000 0.0000
# 5 0.0000 0.0000 0.0000 0.0000 31.3928 0.0000
# 6 0.0000 0.0000 0.0000 0.0000 0.0000 15.5104
#
#
#
# Elastic Compliance Matrix: (Units=1/GPa)
#
#
# Indices 1 2 3 4 5 6 
#
# 1 0.024603 -0.015287 -0.005036 0.000000 0.000000 0.000000
# 2 -0.015287 0.026093 -0.012706 0.000000 0.000000 0.000000
# 3 -0.005036 -0.012706 0.031685 0.000000 0.000000 0.000000
# 4 0.000000 0.000000 0.000000 0.035911 0.000000 0.000000
# 5 0.000000 0.000000 0.000000 0.000000 0.031854 0.000000
# 6 0.000000 0.000000 0.000000 0.000000 0.000000 0.064473
#
#
# Mechanical properties :
#
#
# Convention : Reuss Voigt Hill
#
# Bulk Modulus (GPa) = 61.26068 76.24672 68.75370
# Shear Modulus (GPa) = 17.47541 20.87696 19.17619
#
# Velocity S-wave (km/s) = 3.18538 3.48162 3.33679
# Velocity P-wave (km/s) = 7.00701 7.77385 7.40037
#
# Compressibility (1/GPa) = 0.01632368
#
# Stress axis : x y z
#
# Youngs Moduli (GPa) = 40.64571 38.32486 31.56084
#
# Poissons Ratio (x) = 0.58587 0.15893
# Poissons Ratio (y) = 0.62135 0.40100
# Poissons Ratio (z) = 0.20467 0.48695
#
# Static dielectric constant tensor:
#      x y z
#    x 1.563180 0.000000 0.000000 
#    y 0.000000 1.582060 0.000000 
#    z 0.000000 0.000000 1.582020 
# 
# From -- ./inp_files/11469.got.cif
#   From: 2010.05.17/outbox.cif.g08.bks.cpg/sg71_6_cif.got.tgz:11469.got - 2010.06.03 16:22:01.
