data_PCOD9521663
_publ_section_title
;
Structure prediction by ZEFSAII (Michael W. Deem and Ramdas Pophale) SiO2 
 PCOD9521663
Probable space group: I M M M
;
_chemical_formula_sum "Si O2"
_cell_formula_units_Z 64
_cell_length_a 15.245692
_cell_length_b 7.458522
_cell_length_c 28.940028
_cell_angle_alpha 90.000000
_cell_angle_beta 90.000000
_cell_angle_gamma 90.000000
_cell_volume 3290.780111
_symmetry_space_group_name_H-M "I M M M"
_symmetry_group_IT_number 71
_symmetry_cell_setting 'orthorhombic'
loop_
_space_group_symop_operation_xyz
x,y,z
-x,-y,z
x,-y,-z
-x,y,-z
-x,-y,-z
x,y,-z
-x,y,z
x,-y,z
1/2+x,1/2+y,1/2+z
1/2-x,1/2-y,1/2+z
1/2+x,1/2-y,1/2-z
1/2-x,1/2+y,1/2-z
1/2-x,1/2-y,1/2-z
1/2+x,1/2+y,1/2-z
1/2-x,1/2+y,1/2+z
1/2+x,1/2-y,1/2+z
loop_
_atom_site_type_symbol
_atom_site_label
_atom_site_fract_x
_atom_site_fract_y
_atom_site_fract_z
Si Si1 0.158888 0.716891 0.124979
Si Si2 0.000000 0.713857 0.296783
Si Si3 0.000000 0.779936 0.553733
Si Si4 0.500000 0.217678 0.691948
Si Si5 0.104844 0.000000 0.051602
Si Si6 0.142213 0.210506 0.627225
O O1 0.154212 0.500000 0.120045
O O2 0.133243 0.823021 0.079056
O O3 0.258969 0.774543 0.134891
O O4 0.087402 0.769337 0.163777
O O5 0.083866 0.767721 0.327091
O O6 0.000000 0.500000 0.294511
O O7 0.000000 0.783315 0.244574
O O8 0.084678 0.718985 0.583875
O O9 0.000000 0.725385 0.500000
O O10 0.000000 0.000000 0.554182
O O11 0.500000 0.000000 0.693273
O O12 0.000000 0.000000 0.050138
O O13 0.140868 0.000000 0.000000
O O14 0.150838 0.000000 0.617938
#
# Coordination Sequence:
#
# PCOD9521663 Si02
#       6
#    16   8   8   8   8  16
#     4  10  21  40  62  83 118 159 195 246 295 345
#     4  10  20  34  55  83 117 153 190 245 302 349
#     4   8  14  28  51  77 105 137 180 231 279 342
#     4   9  19  37  57  81 113 152 201 241 292 359
#     4  11  24  40  60  91 121 153 203 244 290 357
#     4   9  19  35  55  81 113 150 194 238 291 352
#
# _framework density 19.448274999999999
#
# number of rings (size 3 to 8) (size 9 to 14) (size 15 to 20)
#    0.000    2.500    1.250    1.125    1.750    2.500 
#    4.500    3.750    0.000    1.500    0.000    0.000 
#    0.000    0.000    0.000    0.000    0.000    0.000 
#
# Total GULP energy -178431.164374 kJ/mol
# GULP energy per Si atom -5575.973887 kJ/mol
# Density = 1.940401 g / cm^3
# Si number density = 19.448275 Si / 1000 Ang^3
#
#
#
# Elastic Constant Matrix: (Units=GPa)
#
#
# Indices 1 2 3 4 5 6 
#
# 1 191.9054 16.0897 102.2330 0.0000 0.0000 0.0000
# 2 16.0897 53.8523 14.4598 0.0000 0.0000 0.0000
# 3 102.2330 14.4598 197.0012 0.0000 0.0000 0.0000
# 4 0.0000 0.0000 0.0000 28.0844 0.0000 0.0000
# 5 0.0000 0.0000 0.0000 0.0000 2.9638 0.0000
# 6 0.0000 0.0000 0.0000 0.0000 0.0000 2.5543
#
#
#
# Elastic Compliance Matrix: (Units=1/GPa)
#
#
# Indices 1 2 3 4 5 6 
#
# 1 0.007275 -0.001183 -0.003689 0.000000 0.000000 0.000000
# 2 -0.001183 0.019135 -0.000790 0.000000 0.000000 0.000000
# 3 -0.003689 -0.000790 0.007048 0.000000 0.000000 0.000000
# 4 0.000000 0.000000 0.000000 0.035607 0.000000 0.000000
# 5 0.000000 0.000000 0.000000 0.000000 0.337406 0.000000
# 6 0.000000 0.000000 0.000000 0.000000 0.000000 0.391497
#
#
# Mechanical properties :
#
#
# Convention : Reuss Voigt Hill
#
# Bulk Modulus (GPa) = 45.17939 78.70266 61.94103
# Shear Modulus (GPa) = 6.12242 27.38559 16.75400
#
# Velocity S-wave (km/s) = 1.77620 3.75657 2.93826
# Velocity P-wave (km/s) = 5.24285 7.70528 6.59010
#
# Compressibility (1/GPa) = 0.02213399
#
# Stress axis : x y z
#
# Youngs Moduli (GPa) = 137.45558 52.26007 141.87863
#
# Poissons Ratio (x) = 0.06183 0.52332
# Poissons Ratio (y) = 0.16264 0.11215
# Poissons Ratio (z) = 0.50701 0.04131
#
# Static dielectric constant tensor:
#      x y z
#    x 1.687290 0.000000 0.000000 
#    y 0.000000 1.733320 0.000000 
#    z 0.000000 0.000000 1.653860 
# 
# From -- ./inp_files/65125.got.cif
#   From: 2010.05.17/outbox.cif.g08.bks.cpg/sg71_33_cif.got.tgz:65125.got - 2010.06.03 16:22:01.
