data_PCOD9521150
_publ_section_title
;
Structure prediction by ZEFSAII (Michael W. Deem and Ramdas Pophale) SiO2 
 PCOD9521150
Probable space group: I M M M
;
_chemical_formula_sum "Si O2"
_cell_formula_units_Z 82
_cell_length_a 21.974333
_cell_length_b 23.354218
_cell_length_c 7.640742
_cell_angle_alpha 90.000000
_cell_angle_beta 90.000000
_cell_angle_gamma 90.000000
_cell_volume 3921.178085
_symmetry_space_group_name_H-M "I M M M"
_symmetry_group_IT_number 71
_symmetry_cell_setting 'orthorhombic'
loop_
_space_group_symop_operation_xyz
x,y,z
-x,-y,z
x,-y,-z
-x,y,-z
-x,-y,-z
x,y,-z
-x,y,z
x,-y,z
1/2+x,1/2+y,1/2+z
1/2-x,1/2-y,1/2+z
1/2+x,1/2-y,1/2-z
1/2-x,1/2+y,1/2-z
1/2-x,1/2-y,1/2-z
1/2+x,1/2+y,1/2-z
1/2-x,1/2+y,1/2+z
1/2+x,1/2-y,1/2+z
loop_
_atom_site_type_symbol
_atom_site_label
_atom_site_fract_x
_atom_site_fract_y
_atom_site_fract_z
Si Si1 0.000000 0.591428 0.308242
Si Si2 0.356237 0.389331 0.713899
Si Si3 0.776835 0.432891 0.285754
Si Si4 0.429665 0.279035 0.293839
Si Si5 0.375025 0.159532 0.200662
Si Si6 0.431339 0.500000 0.286422
Si Si7 0.000000 0.500000 0.000000
O O1 0.059587 0.629806 0.297610
O O2 0.000000 0.563814 0.500000
O O3 0.000000 0.548576 0.151579
O O4 0.354584 0.387017 0.500000
O O5 0.287536 0.404997 0.766761
O O6 0.389823 0.331986 0.777527
O O7 0.396670 0.443235 0.767544
O O8 0.779220 0.435080 0.500000
O O9 0.783125 0.500000 0.229555
O O10 0.828658 0.388152 0.225207
O O11 0.436769 0.290002 0.500000
O O12 0.500000 0.273662 0.224329
O O13 0.389210 0.221757 0.277358
O O14 0.355334 0.169369 0.000000
O O15 0.500000 0.500000 0.225320
O O16 0.431546 0.500000 0.500000
#
# Coordination Sequence:
#
# PCOD9521150 Si02
#       7
#     8  16  16  16  16   8   2
#     4  10  23  41  59  88 123 154 205 260 296 356
#     4   9  16  28  47  75 106 141 178 223 279 349
#     4   9  17  31  51  74 103 141 182 229 287 345
#     4  10  20  33  52  78 112 144 180 229 288 346
#     4  10  21  36  55  77 107 147 193 238 282 336
#     4   9  14  22  41  70 106 137 170 214 273 337
#     4  12  26  36  64  90 120 160 198 246 326 362
#
# _framework density 20.912082000000002
#
# number of rings (size 3 to 8) (size 9 to 14) (size 15 to 20)
#    0.000    2.439    1.951    0.732    2.732    3.122 
#    0.000    0.000    0.000    0.000    0.000    0.683 
#    0.000    2.341    0.000    0.000    0.000    0.000 
#
# Total GULP energy -228316.680720 kJ/mol
# GULP energy per Si atom -5568.699530 kJ/mol
# Density = 2.086449 g / cm^3
# Si number density = 20.912082 Si / 1000 Ang^3
#
#
#
# Elastic Constant Matrix: (Units=GPa)
#
#
# Indices 1 2 3 4 5 6 
#
# 1 189.4343 107.9357 -0.7431 0.0000 0.0000 0.0000
# 2 107.9357 209.7706 20.3899 0.0000 0.0000 0.0000
# 3 -0.7431 20.3899 55.3104 0.0000 0.0000 0.0000
# 4 0.0000 0.0000 0.0000 13.3129 0.0000 0.0000
# 5 0.0000 0.0000 0.0000 0.0000 4.2302 0.0000
# 6 0.0000 0.0000 0.0000 0.0000 0.0000 55.3944
#
#
#
# Elastic Compliance Matrix: (Units=1/GPa)
#
#
# Indices 1 2 3 4 5 6 
#
# 1 0.007603 -0.004068 0.001602 0.000000 0.000000 0.000000
# 2 -0.004068 0.007121 -0.002680 0.000000 0.000000 0.000000
# 3 0.001602 -0.002680 0.019089 0.000000 0.000000 0.000000
# 4 0.000000 0.000000 0.000000 0.075115 0.000000 0.000000
# 5 0.000000 0.000000 0.000000 0.000000 0.236394 0.000000
# 6 0.000000 0.000000 0.000000 0.000000 0.000000 0.018052
#
#
# Mechanical properties :
#
#
# Convention : Reuss Voigt Hill
#
# Bulk Modulus (GPa) = 42.51463 78.85336 60.68399
# Shear Modulus (GPa) = 13.10597 36.38303 24.74450
#
# Velocity S-wave (km/s) = 2.50615 4.17563 3.44359
# Velocity P-wave (km/s) = 5.36178 7.81260 6.70020
#
# Compressibility (1/GPa) = 0.02352132
#
# Stress axis : x y z
#
# Youngs Moduli (GPa) = 131.53009 140.43861 52.38585
#
# Poissons Ratio (x) = 0.57126 -0.08390
# Poissons Ratio (y) = 0.53502 0.14037
# Poissons Ratio (z) = -0.21067 0.37632
#
# Static dielectric constant tensor:
#      x y z
#    x 1.737690 0.000000 0.000000 
#    y 0.000000 1.732550 0.000000 
#    z 0.000000 0.000000 1.816460 
# 
# From -- ./inp_files/10330.got.cif
#   From: 2010.05.17/outbox.cif.g08.bks.cpg/sg71_6_cif.got.tgz:10330.got - 2010.06.03 16:22:01.
