data_PCOD9521238
_publ_section_title
;
Structure prediction by ZEFSAII (Michael W. Deem and Ramdas Pophale) SiO2 
 PCOD9521238
Probable space group: I M M M
;
_chemical_formula_sum "Si O2"
_cell_formula_units_Z 96
_cell_length_a 26.263136
_cell_length_b 22.386624
_cell_length_c 7.780763
_cell_angle_alpha 90.000000
_cell_angle_beta 90.000000
_cell_angle_gamma 90.000000
_cell_volume 4574.644757
_symmetry_space_group_name_H-M "I M M M"
_symmetry_group_IT_number 71
_symmetry_cell_setting 'orthorhombic'
loop_
_space_group_symop_operation_xyz
x,y,z
-x,-y,z
x,-y,-z
-x,y,-z
-x,-y,-z
x,y,-z
-x,y,z
x,-y,z
1/2+x,1/2+y,1/2+z
1/2-x,1/2-y,1/2+z
1/2+x,1/2-y,1/2-z
1/2-x,1/2+y,1/2-z
1/2-x,1/2-y,1/2-z
1/2+x,1/2+y,1/2-z
1/2-x,1/2+y,1/2+z
1/2+x,1/2-y,1/2+z
loop_
_atom_site_type_symbol
_atom_site_label
_atom_site_fract_x
_atom_site_fract_y
_atom_site_fract_z
Si Si1 0.804943 0.500000 0.789196
Si Si2 0.055183 0.367339 0.799087
Si Si3 0.846371 0.296286 0.698987
Si Si4 0.558355 0.568264 0.209709
Si Si5 0.143807 0.838123 0.288843
Si Si6 0.577284 0.000000 0.800244
Si Si7 0.245674 0.378256 0.798348
O O1 0.861994 0.500000 0.721163
O O2 0.776716 0.559798 0.729235
O O3 0.808022 0.500000 0.000000
O O4 0.104386 0.338408 0.713574
O O5 0.058119 0.438751 0.781366
O O6 0.000000 0.347364 0.730355
O O7 0.057907 0.352107 0.000000
O O8 0.832474 0.289326 0.500000
O O9 0.860775 0.230760 0.766537
O O10 0.797472 0.327684 0.781874
O O11 0.500000 0.580947 0.262486
O O12 0.571060 0.500000 0.261661
O O13 0.599115 0.617292 0.268140
O O14 0.558810 0.568713 0.000000
O O15 0.142498 0.838630 0.500000
O O16 0.199396 0.859957 0.229117
O O17 0.563364 0.000000 0.000000
O O18 0.253871 0.388849 0.000000
#
# Coordination Sequence:
#
# PCOD9521238 Si02
#       7
#     8  16  16  16  16   8  16
#     4  10  20  33  55  82 111 149 190 233 279 330
#     4  11  24  41  60  81 109 148 194 237 277 332
#     4  11  22  36  54  79 113 150 185 230 284 332
#     4   8  14  26  46  73 106 140 173 217 274 332
#     4   9  19  32  50  78 110 146 187 227 275 335
#     4  12  23  37  60  87 116 145 181 234 289 338
#     4  10  20  35  55  79 110 148 187 229 279 335
#
# _framework density 20.985236
#
# number of rings (size 3 to 8) (size 9 to 14) (size 15 to 20)
#    0.000    2.000    1.667    3.000    1.167    3.000 
#    0.000    2.500    0.000    0.000    0.000    0.000 
#    0.000    0.000    0.000   11.333    0.000   11.000 
#
# Total GULP energy -268075.579753 kJ/mol
# GULP energy per Si atom -5584.907912 kJ/mol
# Density = 2.093747 g / cm^3
# Si number density = 20.985236 Si / 1000 Ang^3
#
#
#
# Elastic Constant Matrix: (Units=GPa)
#
#
# Indices 1 2 3 4 5 6 
#
# 1 150.4905 87.4765 -12.1800 0.0000 0.0000 0.0000
# 2 87.4765 148.3594 -9.7197 0.0000 0.0000 0.0000
# 3 -12.1800 -9.7197 26.7163 0.0000 0.0000 0.0000
# 4 0.0000 0.0000 0.0000 0.5213 0.0000 0.0000
# 5 0.0000 0.0000 0.0000 0.0000 -28.6373 0.0000
# 6 0.0000 0.0000 0.0000 0.0000 0.0000 9.7375
#
#
#
# Elastic Compliance Matrix: (Units=1/GPa)
#
#
# Indices 1 2 3 4 5 6 
#
# 1 0.010276 -0.005892 0.002541 0.000000 0.000000 0.000000
# 2 -0.005892 0.010284 0.001055 0.000000 0.000000 0.000000
# 3 0.002541 0.001055 0.038973 0.000000 0.000000 0.000000
# 4 0.000000 0.000000 0.000000 1.918163 0.000000 0.000000
# 5 0.000000 0.000000 0.000000 0.000000 -0.034920 0.000000
# 6 0.000000 0.000000 0.000000 0.000000 0.000000 0.102696
#
#
# Mechanical properties :
#
#
# Convention : Reuss Voigt Hill
#
# Bulk Modulus (GPa) = 18.20185 50.74666 34.47426
# Shear Modulus (GPa) = 2.41735 13.65692 8.03714
#
# Velocity S-wave (km/s) = 1.07444 2.55382 1.95914
# Velocity P-wave (km/s) = 3.19871 5.73852 4.64555
#
# Compressibility (1/GPa) = 0.05493946
#
# Stress axis : x y z
#
# Youngs Moduli (GPa) = 97.31734 97.24058 25.65904
#
# Poissons Ratio (x) = 0.57297 -0.06520
# Poissons Ratio (y) = 0.57343 -0.02707
# Poissons Ratio (z) = -0.24728 -0.10259
#
# Static dielectric constant tensor:
#      x y z
#    x 1.733260 0.000000 0.000000 
#    y 0.000000 1.742530 0.000000 
#    z 0.000000 0.000000 1.763590 
# 
# From -- ./inp_files/12941.got.cif
#   From: 2010.05.17/outbox.cif.g08.bks.cpg/sg71_7_cif.got.tgz:12941.got - 2010.06.03 16:22:01.
