data_PCOD9521998
_publ_section_title
;
Structure prediction by ZEFSAII (Michael W. Deem and Ramdas Pophale) SiO2 
 PCOD9521998
Probable space group: I M M M
;
_chemical_formula_sum "Si O2"
_cell_formula_units_Z 116
_cell_length_a 9.952026
_cell_length_b 24.946498
_cell_length_c 26.189380
_cell_angle_alpha 90.000000
_cell_angle_beta 90.000000
_cell_angle_gamma 90.000000
_cell_volume 6501.990145
_symmetry_space_group_name_H-M "I M M M"
_symmetry_group_IT_number 71
_symmetry_cell_setting 'orthorhombic'
loop_
_space_group_symop_operation_xyz
x,y,z
-x,-y,z
x,-y,-z
-x,y,-z
-x,-y,-z
x,y,-z
-x,y,z
x,-y,z
1/2+x,1/2+y,1/2+z
1/2-x,1/2-y,1/2+z
1/2+x,1/2-y,1/2-z
1/2-x,1/2+y,1/2-z
1/2-x,1/2-y,1/2-z
1/2+x,1/2+y,1/2-z
1/2-x,1/2+y,1/2+z
1/2+x,1/2-y,1/2+z
loop_
_atom_site_type_symbol
_atom_site_label
_atom_site_fract_x
_atom_site_fract_y
_atom_site_fract_z
Si Si1 0.343944 0.154973 0.374043
Si Si2 0.155424 0.061110 0.117365
Si Si3 0.154623 0.300610 0.241619
Si Si4 0.655076 0.731128 0.061401
Si Si5 0.845033 0.644545 0.438677
Si Si6 0.000000 0.500000 0.731706
Si Si7 0.847564 0.936932 0.659050
Si Si8 0.748109 0.084554 0.771208
O O1 0.500000 0.147804 0.388387
O O2 0.341471 0.181936 0.317845
O O3 0.261164 0.192811 0.411868
O O4 0.263808 0.099244 0.368351
O O5 0.247395 0.103640 0.088757
O O6 0.172701 0.069910 0.177797
O O7 0.000000 0.067577 0.103113
O O8 0.197389 0.000000 0.105552
O O9 0.250000 0.250000 0.250000
O O10 0.204820 0.353162 0.271764
O O11 0.000000 0.288360 0.255261
O O12 0.500000 0.718993 0.076271
O O13 0.681787 0.793386 0.074802
O O14 0.662683 0.726724 0.000000
O O15 0.833004 0.640029 0.500000
O O16 0.000000 0.632820 0.425009
O O17 0.117506 0.453157 0.731763
O O18 0.830722 0.926038 0.719510
O O19 0.000000 0.922696 0.643657
O O20 0.826545 0.000000 0.650086
#
# Coordination Sequence:
#
# PCOD9521998 Si02
#       8
#    16  16  16  16  16   4  16  16
#     4  10  22  36  55  85 116 147 189 231 279 335
#     4  11  24  38  55  81 113 146 188 237 288 339
#     4  10  23  38  52  78 116 153 189 226 280 339
#     4   9  19  39  63  85 110 143 185 232 283 344
#     4   9  21  40  61  83 106 138 183 233 288 348
#     4  12  20  36  62  84 113 146 207 254 284 330
#     4  10  20  35  57  82 115 153 192 230 274 329
#     4  11  22  36  58  82 111 151 197 239 284 331
#
# _framework density 17.840692000000001
#
# number of rings (size 3 to 8) (size 9 to 14) (size 15 to 20)
#    0.000    1.931    2.069    1.655    3.862    6.345 
#    0.000    2.759    0.000    0.414    0.000    2.897 
#    0.000    0.000    0.000    0.000    0.000    0.000 
#
# Total GULP energy -323299.702362 kJ/mol
# GULP energy per Si atom -5574.132799 kJ/mol
# Density = 1.780009 g / cm^3
# Si number density = 17.840692 Si / 1000 Ang^3
#
#
#
# Elastic Constant Matrix: (Units=GPa)
#
#
# Indices 1 2 3 4 5 6 
#
# 1 143.1173 99.8812 36.1818 0.0000 0.0000 0.0000
# 2 99.8812 144.8407 30.0773 0.0000 0.0000 0.0000
# 3 36.1818 30.0773 26.3334 0.0000 0.0000 0.0000
# 4 0.0000 0.0000 0.0000 19.4688 0.0000 0.0000
# 5 0.0000 0.0000 0.0000 0.0000 17.5403 0.0000
# 6 0.0000 0.0000 0.0000 0.0000 0.0000 36.1148
#
#
#
# Elastic Compliance Matrix: (Units=1/GPa)
#
#
# Indices 1 2 3 4 5 6 
#
# 1 0.016033 -0.008497 -0.012324 0.000000 0.000000 0.000000
# 2 -0.008497 0.013554 -0.003806 0.000000 0.000000 0.000000
# 3 -0.012324 -0.003806 0.059255 0.000000 0.000000 0.000000
# 4 0.000000 0.000000 0.000000 0.051364 0.000000 0.000000
# 5 0.000000 0.000000 0.000000 0.000000 0.057012 0.000000
# 6 0.000000 0.000000 0.000000 0.000000 0.000000 0.027689
#
#
# Mechanical properties :
#
#
# Convention : Reuss Voigt Hill
#
# Bulk Modulus (GPa) = 25.26051 71.84134 48.55092
# Shear Modulus (GPa) = 17.39990 24.50152 20.95071
#
# Velocity S-wave (km/s) = 3.12636 3.70989 3.43056
# Velocity P-wave (km/s) = 5.21745 7.66203 6.55471
#
# Compressibility (1/GPa) = 0.03958748
#
# Stress axis : x y z
#
# Youngs Moduli (GPa) = 62.37118 73.77866 16.87619
#
# Poissons Ratio (x) = 0.62690 0.20798
# Poissons Ratio (y) = 0.52997 0.06423
# Poissons Ratio (z) = 0.76867 0.28082
#
# Static dielectric constant tensor:
#      x y z
#    x 1.598690 0.000000 0.000000 
#    y 0.000000 1.594060 0.000000 
#    z 0.000000 0.000000 1.601670 
# 
# From -- ./inp_files/13438.got.cif
#   From: 2010.05.17/outbox.cif.g08.bks.cpg/sg71_7_cif.got.tgz:13438.got - 2010.06.03 16:22:01.
