data_PCOD9521425
_publ_section_title
;
Structure prediction by ZEFSAII (Michael W. Deem and Ramdas Pophale) SiO2 
 PCOD9521425
Probable space group: I M M M
;
_chemical_formula_sum "Si O2"
_cell_formula_units_Z 112
_cell_length_a 14.631115
_cell_length_b 28.818086
_cell_length_c 14.733338
_cell_angle_alpha 90.000000
_cell_angle_beta 90.000000
_cell_angle_gamma 90.000000
_cell_volume 6212.175395
_symmetry_space_group_name_H-M "I M M M"
_symmetry_group_IT_number 71
_symmetry_cell_setting 'orthorhombic'
loop_
_space_group_symop_operation_xyz
x,y,z
-x,-y,z
x,-y,-z
-x,y,-z
-x,-y,-z
x,y,-z
-x,y,z
x,-y,z
1/2+x,1/2+y,1/2+z
1/2-x,1/2-y,1/2+z
1/2+x,1/2-y,1/2-z
1/2-x,1/2+y,1/2-z
1/2-x,1/2-y,1/2-z
1/2+x,1/2+y,1/2-z
1/2-x,1/2+y,1/2+z
1/2+x,1/2-y,1/2+z
loop_
_atom_site_type_symbol
_atom_site_label
_atom_site_fract_x
_atom_site_fract_y
_atom_site_fract_z
Si Si1 0.106713 0.610469 0.217070
Si Si2 0.608764 0.553500 0.737726
Si Si3 0.607585 0.157253 0.896473
Si Si4 0.745727 0.444321 0.895460
Si Si5 0.103122 0.299792 0.901444
Si Si6 0.890544 0.862110 0.892506
Si Si7 0.732869 0.277884 0.657609
O O1 0.131363 0.617829 0.322542
O O2 0.168661 0.576783 0.158294
O O3 0.118579 0.661839 0.174534
O O4 0.000000 0.597989 0.209770
O O5 0.500000 0.555009 0.751967
O O6 0.633867 0.500000 0.716055
O O7 0.659858 0.567143 0.830658
O O8 0.629986 0.589125 0.656732
O O9 0.500000 0.168523 0.882307
O O10 0.672436 0.201475 0.879794
O O11 0.619510 0.141756 0.000000
O O12 0.752935 0.500000 0.898400
O O13 0.738823 0.427842 0.000000
O O14 0.177264 0.259709 0.900111
O O15 0.000000 0.280501 0.889402
O O16 0.105217 0.323448 0.000000
O O17 0.834095 0.822376 0.840650
O O18 0.000000 0.854154 0.886158
O O19 0.866606 0.861607 0.000000
O O20 0.750000 0.250000 0.750000
#
# Coordination Sequence:
#
# PCOD9521425 Si02
#       7
#    16  16  16  16  16  16  16
#     4  10  20  36  56  79 106 138 179 228 278 327
#     4   9  19  36  59  87 117 151 189 229 279 340
#     4  10  21  37  56  77 104 142 185 222 264 325
#     4  10  21  36  56  82 111 144 182 225 275 333
#     4  10  20  34  53  77 104 136 178 226 274 326
#     4  10  21  37  59  87 117 148 187 238 291 342
#     4  12  22  33  53  78 108 149 185 228 279 327
#
# _framework density 18.029112000000001
#
# number of rings (size 3 to 8) (size 9 to 14) (size 15 to 20)
#    0.000    1.857    1.429    3.000    0.000    3.429 
#    0.000    3.571    0.000    1.286    0.000    2.000 
#    0.000    0.000    0.000    0.000    0.000    0.000 
#
# Total GULP energy -312204.020741 kJ/mol
# GULP energy per Si atom -5575.071799 kJ/mol
# Density = 1.798808 g / cm^3
# Si number density = 18.029112 Si / 1000 Ang^3
#
#
#
# Elastic Constant Matrix: (Units=GPa)
#
#
# Indices 1 2 3 4 5 6 
#
# 1 65.6995 29.5416 41.4446 0.0000 0.0000 0.0000
# 2 29.5416 48.2345 50.9433 0.0000 0.0000 0.0000
# 3 41.4446 50.9433 137.9360 -0.0001 0.0000 0.0000
# 4 0.0000 0.0000 -0.0001 30.0530 0.0000 0.0000
# 5 0.0000 0.0000 0.0000 0.0000 17.7818 0.0000
# 6 0.0000 0.0000 0.0000 0.0000 0.0000 34.3713
#
#
#
# Elastic Compliance Matrix: (Units=1/GPa)
#
#
# Indices 1 2 3 4 5 6 
#
# 1 0.021571 -0.010437 -0.002626 0.000000 0.000000 0.000000
# 2 -0.010437 0.039041 -0.011283 0.000000 0.000000 0.000000
# 3 -0.002626 -0.011283 0.012206 0.000000 0.000000 0.000000
# 4 0.000000 0.000000 0.000000 0.033275 0.000000 0.000000
# 5 0.000000 0.000000 0.000000 0.000000 0.056237 0.000000
# 6 0.000000 0.000000 0.000000 0.000000 0.000000 0.029094
#
#
# Mechanical properties :
#
#
# Convention : Reuss Voigt Hill
#
# Bulk Modulus (GPa) = 41.45157 55.08100 48.26629
# Shear Modulus (GPa) = 20.14849 25.10392 22.62621
#
# Velocity S-wave (km/s) = 3.34661 3.73555 3.54642
# Velocity P-wave (km/s) = 6.16234 7.01593 6.60294
#
# Compressibility (1/GPa) = 0.02412454
#
# Stress axis : x y z
#
# Youngs Moduli (GPa) = 46.35916 25.61424 81.92754
#
# Poissons Ratio (x) = 0.26734 0.21518
# Poissons Ratio (y) = 0.48386 0.92437
# Poissons Ratio (z) = 0.12176 0.28900
#
# Static dielectric constant tensor:
#      x y z
#    x 1.639680 0.000000 0.000000 
#    y 0.000000 1.596480 0.000000 
#    z 0.000000 0.000000 1.649340 
# 
# From -- ./inp_files/35085.got.cif
#   From: 2010.05.17/outbox.cif.g08.bks.cpg/sg71_18_cif.got.tgz:35085.got - 2010.06.03 16:22:01.
