data_PCOD9521606
_publ_section_title
;
Structure prediction by ZEFSAII (Michael W. Deem and Ramdas Pophale) SiO2 
 PCOD9521606
Probable space group: I M M M
;
_chemical_formula_sum "Si O2"
_cell_formula_units_Z 120
_cell_length_a 14.831580
_cell_length_b 21.871088
_cell_length_c 20.208005
_cell_angle_alpha 90.000000
_cell_angle_beta 90.000000
_cell_angle_gamma 90.000000
_cell_volume 6555.129070
_symmetry_space_group_name_H-M "I M M M"
_symmetry_group_IT_number 71
_symmetry_cell_setting 'orthorhombic'
loop_
_space_group_symop_operation_xyz
x,y,z
-x,-y,z
x,-y,-z
-x,y,-z
-x,-y,-z
x,y,-z
-x,y,z
x,-y,z
1/2+x,1/2+y,1/2+z
1/2-x,1/2-y,1/2+z
1/2+x,1/2-y,1/2-z
1/2-x,1/2+y,1/2-z
1/2-x,1/2-y,1/2-z
1/2+x,1/2+y,1/2-z
1/2-x,1/2+y,1/2+z
1/2+x,1/2-y,1/2+z
loop_
_atom_site_type_symbol
_atom_site_label
_atom_site_fract_x
_atom_site_fract_y
_atom_site_fract_z
Si Si1 0.777395 0.321957 0.424130
Si Si2 0.651168 0.842373 0.627810
Si Si3 0.101819 0.795470 0.159193
Si Si4 0.500000 0.932016 0.577943
Si Si5 0.659841 0.311842 0.924467
Si Si6 0.398772 0.629442 0.787476
Si Si7 0.606922 0.930722 0.126411
Si Si8 0.718049 0.932006 0.263189
O O1 0.747441 0.315757 0.500000
O O2 0.687623 0.324302 0.378986
O O3 0.834861 0.260579 0.408773
O O4 0.842465 0.379720 0.415964
O O5 0.609788 0.776778 0.645338
O O6 0.584029 0.891045 0.597720
O O7 0.735652 0.831845 0.579943
O O8 0.684946 0.875082 0.693952
O O9 0.110969 0.813699 0.236301
O O10 0.000000 0.815140 0.138617
O O11 0.500000 0.938555 0.500000
O O12 0.500000 0.000000 0.608490
O O13 0.615134 0.347775 0.863151
O O14 0.625910 0.321086 0.000000
O O15 0.500000 0.605633 0.781035
O O16 0.325033 0.580670 0.762758
O O17 0.500000 0.917981 0.135919
O O18 0.662583 0.930198 0.195258
O O19 0.613791 0.000000 0.099435
O O20 0.702525 0.000000 0.292203
#
# Coordination Sequence:
#
# PCOD9521606 Si02
#       8
#    16  16  16   8  16  16  16  16
#     4  10  21  37  58  83 115 154 192 235 287 345
#     4  10  20  34  55  79 112 149 193 237 284 342
#     4  10  20  36  57  88 116 149 189 240 293 342
#     4  11  22  34  50  78 116 154 192 234 288 353
#     4   9  20  36  55  82 115 150 187 232 286 342
#     4  10  21  36  60  86 113 147 191 236 288 342
#     4  10  22  38  57  83 115 151 192 238 289 347
#     4  10  21  37  58  83 114 149 188 238 289 340
#
# _framework density 18.306276
#
# number of rings (size 3 to 8) (size 9 to 14) (size 15 to 20)
#    0.000    2.067    2.000    0.800    2.800    4.000 
#    0.000    2.000    0.000    4.000    0.000    4.667 
#    0.000    0.000    0.000    0.000    0.000    0.000 
#
# Total GULP energy -334217.949203 kJ/mol
# GULP energy per Si atom -5570.299153 kJ/mol
# Density = 1.826461 g / cm^3
# Si number density = 18.306276 Si / 1000 Ang^3
#
#
#
# Elastic Constant Matrix: (Units=GPa)
#
#
# Indices 1 2 3 4 5 6 
#
# 1 99.6149 33.8309 14.0616 0.0000 0.0000 0.0000
# 2 33.8309 81.4948 5.7457 0.0000 0.0000 0.0000
# 3 14.0616 5.7457 50.6058 0.0000 0.0000 0.0000
# 4 0.0000 0.0000 0.0000 22.4493 0.0000 0.0000
# 5 0.0000 0.0000 0.0000 0.0000 8.7832 0.0000
# 6 0.0000 0.0000 0.0000 0.0000 0.0000 31.6431
#
#
#
# Elastic Compliance Matrix: (Units=1/GPa)
#
#
# Indices 1 2 3 4 5 6 
#
# 1 0.012069 -0.004812 -0.002807 0.000000 0.000000 0.000000
# 2 -0.004812 0.014289 -0.000285 0.000000 0.000000 0.000000
# 3 -0.002807 -0.000285 0.020573 0.000000 0.000000 0.000000
# 4 0.000000 0.000000 0.000000 0.044545 0.000000 0.000000
# 5 0.000000 0.000000 0.000000 0.000000 0.113853 0.000000
# 6 0.000000 0.000000 0.000000 0.000000 0.000000 0.031602
#
#
# Mechanical properties :
#
#
# Convention : Reuss Voigt Hill
#
# Bulk Modulus (GPa) = 32.13224 37.66575 34.89900
# Shear Modulus (GPa) = 19.00311 24.44694 21.72502
#
# Velocity S-wave (km/s) = 3.22540 3.65833 3.44866
# Velocity P-wave (km/s) = 5.60906 6.20198 5.91296
#
# Compressibility (1/GPa) = 0.03112139
#
# Stress axis : x y z
#
# Youngs Moduli (GPa) = 82.85488 69.98587 48.60745
#
# Poissons Ratio (x) = 0.33680 0.13645
# Poissons Ratio (y) = 0.39873 0.01386
# Poissons Ratio (z) = 0.23259 0.01995
#
# Static dielectric constant tensor:
#      x y z
#    x 1.665960 0.000000 0.000000 
#    y 0.000000 1.633040 0.000000 
#    z 0.000000 0.000000 1.633930 
# 
# From -- ./inp_files/53455.got.cif
#   From: 2010.05.17/outbox.cif.g08.bks.cpg/sg71_27_cif.got.tgz:53455.got - 2010.06.03 16:22:01.
