data_PCOD9521452
_publ_section_title
;
Structure prediction by ZEFSAII (Michael W. Deem and Ramdas Pophale) SiO2 
 PCOD9521452
Probable space group: I M M M
;
_chemical_formula_sum "Si O2"
_cell_formula_units_Z 80
_cell_length_a 8.369900
_cell_length_b 27.952994
_cell_length_c 14.970829
_cell_angle_alpha 90.000000
_cell_angle_beta 90.000000
_cell_angle_gamma 90.000000
_cell_volume 3502.631510
_symmetry_space_group_name_H-M "I M M M"
_symmetry_group_IT_number 71
_symmetry_cell_setting 'orthorhombic'
loop_
_space_group_symop_operation_xyz
x,y,z
-x,-y,z
x,-y,-z
-x,y,-z
-x,-y,-z
x,y,-z
-x,y,z
x,-y,z
1/2+x,1/2+y,1/2+z
1/2-x,1/2-y,1/2+z
1/2+x,1/2-y,1/2-z
1/2-x,1/2+y,1/2-z
1/2-x,1/2-y,1/2-z
1/2+x,1/2+y,1/2-z
1/2-x,1/2+y,1/2+z
1/2+x,1/2-y,1/2+z
loop_
_atom_site_type_symbol
_atom_site_label
_atom_site_fract_x
_atom_site_fract_y
_atom_site_fract_z
Si Si1 0.315641 0.000000 0.890861
Si Si2 0.317181 0.702251 0.867776
Si Si3 0.500000 0.443691 0.108981
Si Si4 0.179613 0.100996 0.107511
Si Si5 0.814168 0.697083 0.674414
Si Si6 0.174267 0.602918 0.102579
O O1 0.234629 0.048989 0.860118
O O2 0.500000 0.000000 0.865021
O O3 0.308572 0.000000 0.000000
O O4 0.500000 0.692258 0.894435
O O5 0.297799 0.700221 0.760694
O O6 0.277287 0.757452 0.888901
O O7 0.204886 0.659832 0.900208
O O8 0.500000 0.500000 0.127115
O O9 0.664654 0.419774 0.142896
O O10 0.500000 0.437076 0.000000
O O11 0.290243 0.145026 0.133971
O O12 0.000000 0.111034 0.138658
O O13 0.178298 0.098706 0.000000
O O14 0.000000 0.703079 0.700906
O O15 0.000000 0.593159 0.144558
O O16 0.166795 0.585565 0.000000
#
# Coordination Sequence:
#
# PCOD9521452 Si02
#       6
#     8  16   8  16  16  16
#     4   9  17  31  53  77 103 137 176 219 268 319
#     4  10  20  36  56  77 108 146 181 223 274 328
#     4   9  18  34  56  82 112 144 181 224 272 326
#     4  10  20  34  53  78 108 141 179 222 268 320
#     4  10  21  35  54  79 106 142 183 222 270 326
#     4  10  20  34  56  84 112 145 183 225 274 324
#
# _framework density 22.839969
#
# number of rings (size 3 to 8) (size 9 to 14) (size 15 to 20)
#    0.000    2.200    1.000    2.100    0.000    6.000 
#    0.000    6.000    2.200    0.000    0.000    0.000 
#    0.000    0.000    0.000    0.000    0.000    0.000 
#
# Total GULP energy -223373.078270 kJ/mol
# GULP energy per Si atom -5584.326957 kJ/mol
# Density = 2.278798 g / cm^3
# Si number density = 22.839969 Si / 1000 Ang^3
#
#
#
# Elastic Constant Matrix: (Units=GPa)
#
#
# Indices 1 2 3 4 5 6 
#
# 1 155.8823 63.9117 14.7269 -0.0001 0.0000 0.0000
# 2 63.9117 149.3398 7.2231 0.0000 0.0000 0.0000
# 3 14.7269 7.2231 35.9231 0.0000 0.0000 0.0001
# 4 -0.0001 0.0000 0.0000 21.8444 0.0000 0.0000
# 5 0.0000 0.0000 0.0000 0.0000 12.6997 0.0000
# 6 0.0000 0.0000 0.0001 0.0000 0.0000 31.3144
#
#
#
# Elastic Compliance Matrix: (Units=1/GPa)
#
#
# Indices 1 2 3 4 5 6 
#
# 1 0.008018 -0.003304 -0.002622 0.000000 0.000000 0.000000
# 2 -0.003304 0.008124 -0.000279 0.000000 0.000000 0.000000
# 3 -0.002622 -0.000279 0.028968 0.000000 0.000000 0.000000
# 4 0.000000 0.000000 0.000000 0.045778 0.000000 0.000000
# 5 0.000000 0.000000 0.000000 0.000000 0.078742 0.000000
# 6 0.000000 0.000000 0.000000 0.000000 0.000000 0.031934
#
#
# Mechanical properties :
#
#
# Convention : Reuss Voigt Hill
#
# Bulk Modulus (GPa) = 30.58247 56.98538 43.78393
# Shear Modulus (GPa) = 22.23458 30.19061 26.21260
#
# Velocity S-wave (km/s) = 3.12347 3.63965 3.39139
# Velocity P-wave (km/s) = 5.14073 6.53198 5.87766
#
# Compressibility (1/GPa) = 0.03269847
#
# Stress axis : x y z
#
# Youngs Moduli (GPa) = 124.72466 123.09534 34.52043
#
# Poissons Ratio (x) = 0.40676 0.09053
# Poissons Ratio (y) = 0.41214 0.00962
# Poissons Ratio (z) = 0.32709 0.03432
#
# Static dielectric constant tensor:
#      x y z
#    x 1.849130 0.000000 0.000000 
#    y 0.000000 1.861000 0.000000 
#    z 0.000000 0.000000 1.887920 
# 
# From -- ./inp_files/50381.got.cif
#   From: 2010.05.17/outbox.cif.g08.bks.cpg/sg71_26_cif.got.tgz:50381.got - 2010.06.03 16:22:01.
