data_PCOD9521889
_publ_section_title
;
Structure prediction by ZEFSAII (Michael W. Deem and Ramdas Pophale) SiO2 
 PCOD9521889
Probable space group: I M M M
;
_chemical_formula_sum "Si O2"
_cell_formula_units_Z 72
_cell_length_a 30.229492
_cell_length_b 14.827803
_cell_length_c 8.802375
_cell_angle_alpha 90.000000
_cell_angle_beta 90.000000
_cell_angle_gamma 90.000000
_cell_volume 3945.549742
_symmetry_space_group_name_H-M "I M M M"
_symmetry_group_IT_number 71
_symmetry_cell_setting 'orthorhombic'
loop_
_space_group_symop_operation_xyz
x,y,z
-x,-y,z
x,-y,-z
-x,y,-z
-x,-y,-z
x,y,-z
-x,y,z
x,-y,z
1/2+x,1/2+y,1/2+z
1/2-x,1/2-y,1/2+z
1/2+x,1/2-y,1/2-z
1/2-x,1/2+y,1/2-z
1/2-x,1/2-y,1/2-z
1/2+x,1/2+y,1/2-z
1/2-x,1/2+y,1/2+z
1/2+x,1/2-y,1/2+z
loop_
_atom_site_type_symbol
_atom_site_label
_atom_site_fract_x
_atom_site_fract_y
_atom_site_fract_z
Si Si1 0.840672 0.500000 0.182721
Si Si2 0.052371 0.189959 0.180769
Si Si3 0.053841 0.000000 0.674583
Si Si4 0.124539 0.314223 0.682162
Si Si5 0.208908 0.804838 0.683373
Si Si6 0.736931 0.500000 0.815464
O O1 0.863819 0.410536 0.246346
O O2 0.788709 0.500000 0.229676
O O3 0.842167 0.500000 0.000000
O O4 0.067551 0.092597 0.244856
O O5 0.079757 0.269637 0.257571
O O6 0.000000 0.198401 0.213292
O O7 0.058328 0.191650 0.000000
O O8 0.068789 0.000000 0.500000
O O9 0.000000 0.000000 0.676453
O O10 0.123562 0.321740 0.500000
O O11 0.163891 0.245196 0.726416
O O12 0.211816 0.803494 0.500000
O O13 0.250000 0.750000 0.750000
O O14 0.213404 0.908256 0.735015
O O15 0.736446 0.500000 0.000000
#
# Coordination Sequence:
#
# PCOD9521889 Si02
#       6
#     8  16   8  16  16   8
#     4  11  21  37  61  81 109 155 197 236 288 354
#     4  10  21  38  60  86 118 156 198 241 286 344
#     4   9  17  32  57  86 116 151 187 229 288 345
#     4  11  23  37  58  87 118 150 192 245 295 347
#     4  10  20  35  55  81 112 147 188 232 281 337
#     4   9  18  34  56  80 110 151 190 228 279 336
#
# _framework density 18.248408000000001
#
# number of rings (size 3 to 8) (size 9 to 14) (size 15 to 20)
#    0.000    1.889    2.222    2.000    0.000    4.444 
#    0.000    3.333    0.000    3.333    0.000    0.000 
#    0.000    0.000    0.000    0.000    0.000    0.000 
#
# Total GULP energy -201040.554449 kJ/mol
# GULP energy per Si atom -5584.459846 kJ/mol
# Density = 1.820687 g / cm^3
# Si number density = 18.248408 Si / 1000 Ang^3
#
#
#
# Elastic Constant Matrix: (Units=GPa)
#
#
# Indices 1 2 3 4 5 6 
#
# 1 67.4122 66.4218 49.2853 0.0000 0.0000 0.0000
# 2 66.4218 194.8202 57.2968 0.0000 0.0000 0.0000
# 3 49.2853 57.2968 56.1751 0.0000 0.0000 0.0000
# 4 0.0000 0.0000 0.0000 29.7440 0.0000 0.0000
# 5 0.0000 0.0000 0.0000 0.0000 24.3243 0.0000
# 6 0.0000 0.0000 0.0000 0.0000 0.0000 27.7509
#
#
#
# Elastic Compliance Matrix: (Units=1/GPa)
#
#
# Indices 1 2 3 4 5 6 
#
# 1 0.044926 -0.005321 -0.033989 0.000000 0.000000 0.000000
# 2 -0.005321 0.007963 -0.003453 0.000000 0.000000 0.000000
# 3 -0.033989 -0.003453 0.051144 0.000000 0.000000 0.000000
# 4 0.000000 0.000000 0.000000 0.033620 0.000000 0.000000
# 5 0.000000 0.000000 0.000000 0.000000 0.041111 0.000000
# 6 0.000000 0.000000 0.000000 0.000000 0.000000 0.036035
#
#
# Mechanical properties :
#
#
# Convention : Reuss Voigt Hill
#
# Bulk Modulus (GPa) = 54.03500 73.82394 63.92947
# Shear Modulus (GPa) = 16.31347 26.05742 21.18544
#
# Velocity S-wave (km/s) = 2.99317 3.78289 3.41096
# Velocity P-wave (km/s) = 6.45140 7.72161 7.11490
#
# Compressibility (1/GPa) = 0.01850653
#
# Stress axis : x y z
#
# Youngs Moduli (GPa) = 22.25860 125.58576 19.55256
#
# Poissons Ratio (x) = 0.66824 0.66457
# Poissons Ratio (y) = 0.11844 0.06752
# Poissons Ratio (z) = 0.75655 0.43369
#
# Static dielectric constant tensor:
#      x y z
#    x 1.617820 0.000000 0.000000 
#    y 0.000000 1.609390 0.000000 
#    z 0.000000 0.000000 1.608610 
# 
# From -- ./inp_files/6223.got.cif
#   From: 2010.05.17/outbox.cif.g08.bks.cpg/sg71_4_cif.got.tgz:6223.got - 2010.06.03 16:22:01.
