data_PCOD9521148
_publ_section_title
;
Structure prediction by ZEFSAII (Michael W. Deem and Ramdas Pophale) SiO2 
 PCOD9521148
Probable space group: I M M M
;
_chemical_formula_sum "Si O2"
_cell_formula_units_Z 116
_cell_length_a 23.515498
_cell_length_b 7.742240
_cell_length_c 32.288182
_cell_angle_alpha 90.000000
_cell_angle_beta 90.000000
_cell_angle_gamma 90.000000
_cell_volume 5878.471308
_symmetry_space_group_name_H-M "I M M M"
_symmetry_group_IT_number 71
_symmetry_cell_setting 'orthorhombic'
loop_
_space_group_symop_operation_xyz
x,y,z
-x,-y,z
x,-y,-z
-x,y,-z
-x,-y,-z
x,y,-z
-x,y,z
x,-y,z
1/2+x,1/2+y,1/2+z
1/2-x,1/2-y,1/2+z
1/2+x,1/2-y,1/2-z
1/2-x,1/2+y,1/2-z
1/2-x,1/2-y,1/2-z
1/2+x,1/2+y,1/2-z
1/2-x,1/2+y,1/2+z
1/2+x,1/2-y,1/2+z
loop_
_atom_site_type_symbol
_atom_site_label
_atom_site_fract_x
_atom_site_fract_y
_atom_site_fract_z
Si Si1 0.500000 0.000000 0.064690
Si Si2 0.171900 0.199913 0.246330
Si Si3 0.902376 0.793725 0.450060
Si Si4 0.739834 0.198127 0.178869
Si Si5 0.434990 0.291298 0.607074
Si Si6 0.219516 0.198390 0.413672
Si Si7 0.935884 0.294862 0.201320
Si Si8 0.662660 0.703711 0.453730
O O1 0.549631 0.155069 0.062541
O O2 0.208664 0.269493 0.207287
O O3 0.187980 0.293243 0.288642
O O4 0.107320 0.212790 0.233193
O O5 0.188630 0.000000 0.251617
O O6 0.897360 0.785530 0.500000
O O7 0.842113 0.740890 0.429313
O O8 0.913873 0.000000 0.439904
O O9 0.725916 0.287652 0.135903
O O10 0.753913 0.000000 0.168458
O O11 0.500000 0.230893 0.599071
O O12 0.436033 0.500000 0.605310
O O13 0.419185 0.242719 0.653957
O O14 0.387087 0.224557 0.575755
O O15 0.275034 0.282042 0.433902
O O16 0.222225 0.000000 0.426559
O O17 0.935055 0.500000 0.207362
O O18 0.000000 0.230317 0.206372
O O19 0.661983 0.777806 0.500000
O O20 0.650510 0.500000 0.456920
#
# Coordination Sequence:
#
# PCOD9521148 Si02
#       8
#     4  16  16  16  16  16  16  16
#     4  12  23  38  68  94 114 156 196 236 296 342
#     4  10  20  35  56  82 110 140 180 224 274 327
#     4  10  22  39  60  90 122 151 194 244 286 345
#     4  10  21  36  57  83 110 142 179 225 272 329
#     4   9  18  33  52  76 108 148 194 241 288 335
#     4  11  23  38  57  82 116 151 184 230 288 340
#     4  10  20  33  52  78 108 142 182 228 273 322
#     4  10  21  35  53  79 111 148 192 239 286 342
#
# _framework density 19.733021999999998
#
# number of rings (size 3 to 8) (size 9 to 14) (size 15 to 20)
#    0.000    1.931    0.000    3.724    1.931    8.000 
#    0.000    1.379    1.517    0.000    0.000    2.897 
#    0.000    0.000    0.000    0.000    0.000    0.000 
#
# Total GULP energy -323091.733337 kJ/mol
# GULP energy per Si atom -5570.547126 kJ/mol
# Density = 1.968811 g / cm^3
# Si number density = 19.733022 Si / 1000 Ang^3
#
#
#
# Elastic Constant Matrix: (Units=GPa)
#
#
# Indices 1 2 3 4 5 6 
#
# 1 63.8919 5.2657 24.5847 0.0000 0.0000 0.0000
# 2 5.2657 54.0596 -7.1554 0.0000 0.0000 0.0000
# 3 24.5847 -7.1554 34.6532 0.0000 0.0000 0.0000
# 4 0.0000 0.0000 0.0000 15.8008 0.0000 0.0000
# 5 0.0000 0.0000 0.0000 0.0000 7.3381 0.0000
# 6 0.0000 0.0000 0.0000 0.0000 0.0000 15.2831
#
#
#
# Elastic Compliance Matrix: (Units=1/GPa)
#
#
# Indices 1 2 3 4 5 6 
#
# 1 0.022514 -0.004428 -0.016887 0.000000 0.000000 0.000000
# 2 -0.004428 0.019889 0.007248 0.000000 0.000000 0.000000
# 3 -0.016887 0.007248 0.042335 0.000000 0.000000 0.000000
# 4 0.000000 0.000000 0.000000 0.063288 0.000000 0.000000
# 5 0.000000 0.000000 0.000000 0.000000 0.136274 0.000000
# 6 0.000000 0.000000 0.000000 0.000000 0.000000 0.065432
#
#
# Mechanical properties :
#
#
# Convention : Reuss Voigt Hill
#
# Bulk Modulus (GPa) = 17.66665 21.99941 19.83303
# Shear Modulus (GPa) = 12.60291 16.34506 14.47399
#
# Velocity S-wave (km/s) = 2.52994 2.88116 2.71124
# Velocity P-wave (km/s) = 4.18406 4.71602 4.45798
#
# Compressibility (1/GPa) = 0.05660382
#
# Stress axis : x y z
#
# Youngs Moduli (GPa) = 44.41620 50.27946 23.62133
#
# Poissons Ratio (x) = 0.22265 0.39890
# Poissons Ratio (y) = 0.19668 -0.17122
# Poissons Ratio (z) = 0.75006 -0.36444
#
# Static dielectric constant tensor:
#      x y z
#    x 1.708940 0.000000 0.000000 
#    y 0.000000 1.731170 0.000000 
#    z 0.000000 0.000000 1.670520 
# 
# From -- ./inp_files/66934.got.cif
#   From: 2010.05.17/outbox.cif.g08.bks.cpg/sg71_34_cif.got.tgz:66934.got - 2010.06.03 16:22:01.
