data_PCOD9521785
_publ_section_title
;
Structure prediction by ZEFSAII (Michael W. Deem and Ramdas Pophale) SiO2 
 PCOD9521785
Probable space group: I M M M
;
_chemical_formula_sum "Si O2"
_cell_formula_units_Z 120
_cell_length_a 25.922594
_cell_length_b 9.683862
_cell_length_c 27.740009
_cell_angle_alpha 90.000000
_cell_angle_beta 90.000000
_cell_angle_gamma 90.000000
_cell_volume 6963.597289
_symmetry_space_group_name_H-M "I M M M"
_symmetry_group_IT_number 71
_symmetry_cell_setting 'orthorhombic'
loop_
_space_group_symop_operation_xyz
x,y,z
-x,-y,z
x,-y,-z
-x,y,-z
-x,-y,-z
x,y,-z
-x,y,z
x,-y,z
1/2+x,1/2+y,1/2+z
1/2-x,1/2-y,1/2+z
1/2+x,1/2-y,1/2-z
1/2-x,1/2+y,1/2-z
1/2-x,1/2-y,1/2-z
1/2+x,1/2+y,1/2-z
1/2-x,1/2+y,1/2+z
1/2+x,1/2-y,1/2+z
loop_
_atom_site_type_symbol
_atom_site_label
_atom_site_fract_x
_atom_site_fract_y
_atom_site_fract_z
Si Si1 0.757691 0.162207 0.644239
Si Si2 0.707179 0.838426 0.945895
Si Si3 0.559698 0.831459 0.394077
Si Si4 0.143307 0.663672 0.185681
Si Si5 0.062735 0.658857 0.000000
Si Si6 0.582604 0.161156 0.054019
Si Si7 0.556792 0.337224 0.854239
Si Si8 0.849175 0.834273 0.283535
O O1 0.769649 0.248729 0.596688
O O2 0.698935 0.179089 0.660574
O O3 0.796976 0.202024 0.687303
O O4 0.767297 0.000000 0.634487
O O5 0.644910 0.828910 0.943805
O O6 0.720335 0.000000 0.940007
O O7 0.722989 0.794986 0.000000
O O8 0.500000 0.790546 0.385633
O O9 0.598456 0.792132 0.351539
O O10 0.576772 0.781079 0.447609
O O11 0.560052 0.000000 0.396389
O O12 0.136192 0.500000 0.196279
O O13 0.144575 0.751721 0.234265
O O14 0.081281 0.500000 0.000000
O O15 0.000000 0.655042 0.000000
O O16 0.560910 0.252738 0.096598
O O17 0.569012 0.000000 0.060360
O O18 0.566621 0.203106 0.000000
O O19 0.500000 0.314609 0.832469
O O20 0.562137 0.500000 0.864898
O O21 0.602868 0.299892 0.818410
O O22 0.848981 0.000000 0.275036
#
# Coordination Sequence:
#
# PCOD9521785 Si02
#       8
#    16  16  16  16   8  16  16  16
#     4  10  20  35  53  76 104 134 171 214 257 306
#     4   9  18  33  54  79 106 138 174 208 252 313
#     4   8  14  27  47  72 104 135 160 195 246 300
#     4  10  21  34  51  80 106 126 169 220 256 297
#     4   7  10  20  42  68  95 131 161 179 224 296
#     4   9  18  33  53  77 104 134 170 214 262 311
#     4  10  21  36  53  74 101 135 177 220 258 306
#     4  10  21  37  53  69  97 138 176 210 258 311
#
# _framework density 17.232472999999999
#
# number of rings (size 3 to 8) (size 9 to 14) (size 15 to 20)
#    0.000    2.733    1.333    2.000    0.000    3.200 
#    1.200    2.667    0.000    0.000    0.000    0.000 
#    0.000    1.600    0.000    0.000    0.000    0.000 
#
# Total GULP energy -334393.603234 kJ/mol
# GULP energy per Si atom -5573.226721 kJ/mol
# Density = 1.719325 g / cm^3
# Si number density = 17.232473 Si / 1000 Ang^3
#
#
#
# Elastic Constant Matrix: (Units=GPa)
#
#
# Indices 1 2 3 4 5 6 
#
# 1 84.5335 32.7391 67.2294 0.0000 0.0000 0.0000
# 2 32.7391 29.6902 59.6885 0.0000 0.0000 0.0000
# 3 67.2294 59.6885 160.6091 0.0000 0.0000 0.0000
# 4 0.0000 0.0000 0.0000 29.8134 0.0000 0.0000
# 5 0.0000 0.0000 0.0000 0.0000 -2.3271 0.0000
# 6 0.0000 0.0000 0.0000 0.0000 0.0000 11.1511
#
#
#
# Elastic Compliance Matrix: (Units=1/GPa)
#
#
# Indices 1 2 3 4 5 6 
#
# 1 0.020668 -0.021347 -0.000718 0.000000 0.000000 0.000000
# 2 -0.021347 0.155244 -0.048759 0.000000 0.000000 0.000000
# 3 -0.000718 -0.048759 0.024648 0.000000 0.000000 0.000000
# 4 0.000000 0.000000 0.000000 0.033542 0.000000 0.000000
# 5 0.000000 0.000000 0.000000 0.000000 -0.429713 0.000000
# 6 0.000000 0.000000 0.000000 0.000000 0.000000 0.089677
#
#
# Mechanical properties :
#
#
# Convention : Reuss Voigt Hill
#
# Bulk Modulus (GPa) = 16.97445 66.01630 41.49538
# Shear Modulus (GPa) = 90.32967 15.40585 52.86776
#
# Velocity S-wave (km/s) = 7.24790 2.99323 5.54489
# Velocity P-wave (km/s) = 8.93949 7.09495 8.07009
#
# Compressibility (1/GPa) = 0.05891206
#
# Stress axis : x y z
#
# Youngs Moduli (GPa) = 48.38340 6.44146 40.57156
#
# Poissons Ratio (x) = 0.13750 0.02914
# Poissons Ratio (y) = 1.03282 1.97824
# Poissons Ratio (z) = 0.03476 0.31408
#
# Static dielectric constant tensor:
#      x y z
#    x 1.596390 0.000000 0.000000 
#    y 0.000000 1.566210 0.000000 
#    z 0.000000 0.000000 1.571940 
# 
# From -- ./inp_files/67179.got.cif
#   From: 2010.05.17/outbox.cif.g08.bks.cpg/sg71_34_cif.got.tgz:67179.got - 2010.06.03 16:22:01.
