data_PCOD9521905
_publ_section_title
;
Structure prediction by ZEFSAII (Michael W. Deem and Ramdas Pophale) SiO2 
 PCOD9521905
Probable space group: I M M M
;
_chemical_formula_sum "Si O2"
_cell_formula_units_Z 72
_cell_length_a 26.563324
_cell_length_b 7.969556
_cell_length_c 17.600823
_cell_angle_alpha 90.000000
_cell_angle_beta 90.000000
_cell_angle_gamma 90.000000
_cell_volume 3726.057235
_symmetry_space_group_name_H-M "I M M M"
_symmetry_group_IT_number 71
_symmetry_cell_setting 'orthorhombic'
loop_
_space_group_symop_operation_xyz
x,y,z
-x,-y,z
x,-y,-z
-x,y,-z
-x,-y,-z
x,y,-z
-x,y,z
x,-y,z
1/2+x,1/2+y,1/2+z
1/2-x,1/2-y,1/2+z
1/2+x,1/2-y,1/2-z
1/2-x,1/2+y,1/2-z
1/2-x,1/2-y,1/2-z
1/2+x,1/2+y,1/2-z
1/2-x,1/2+y,1/2+z
1/2+x,1/2-y,1/2+z
loop_
_atom_site_type_symbol
_atom_site_label
_atom_site_fract_x
_atom_site_fract_y
_atom_site_fract_z
Si Si1 0.661471 0.305223 0.417699
Si Si2 0.192956 0.691105 0.244777
Si Si3 0.412697 0.796123 0.201744
Si Si4 0.944433 0.702169 0.126544
Si Si5 0.500000 0.205622 0.911822
O O1 0.679723 0.244997 0.500000
O O2 0.675941 0.500000 0.408584
O O3 0.679107 0.206014 0.344050
O O4 0.601235 0.289759 0.415267
O O5 0.193750 0.500000 0.269597
O O6 0.250000 0.750000 0.250000
O O7 0.145082 0.769219 0.290406
O O8 0.437908 0.761081 0.283561
O O9 0.449973 0.739454 0.134728
O O10 0.410342 0.000000 0.196194
O O11 0.939257 0.500000 0.117459
O O12 0.000000 0.750791 0.101478
O O13 0.500000 0.000000 0.910585
O O14 0.500000 0.257400 0.000000
#
# Coordination Sequence:
#
# PCOD9521905 Si02
#       5
#    16  16  16  16   8
#     4  10  21  35  50  72 103 133 165 213 266 310
#     4  10  20  35  56  77 100 135 178 219 260 316
#     4   8  14  26  44  68  99 132 167 207 251 302
#     4   9  16  28  48  70  97 136 174 206 245 304
#     4   9  14  22  42  72 104 133 162 204 259 311
#
# _framework density 19.323376
#
# number of rings (size 3 to 8) (size 9 to 14) (size 15 to 20)
#    0.000    2.778    1.111    2.667    0.000    2.667 
#    0.000    3.333    0.000    4.000    0.000    0.000 
#    0.000   30.222    0.000    0.000    0.000    0.000 
#
# Total GULP energy -200496.581549 kJ/mol
# GULP energy per Si atom -5569.349487 kJ/mol
# Density = 1.927940 g / cm^3
# Si number density = 19.323376 Si / 1000 Ang^3
#
#
#
# Elastic Constant Matrix: (Units=GPa)
#
#
# Indices 1 2 3 4 5 6 
#
# 1 151.2140 6.9345 44.5641 0.0000 0.0000 0.0000
# 2 6.9345 9.0534 -3.1975 0.0000 0.0000 0.0000
# 3 44.5641 -3.1975 97.1691 0.0000 0.0000 0.0000
# 4 0.0000 0.0000 0.0000 10.2319 0.0000 0.0000
# 5 0.0000 0.0000 0.0000 0.0000 7.5540 0.0000
# 6 0.0000 0.0000 0.0000 0.0000 0.0000 25.3169
#
#
#
# Elastic Compliance Matrix: (Units=1/GPa)
#
#
# Indices 1 2 3 4 5 6 
#
# 1 0.008137 -0.007640 -0.003983 0.000000 0.000000 0.000000
# 2 -0.007640 0.118927 0.007417 0.000000 0.000000 0.000000
# 3 -0.003983 0.007417 0.012362 0.000000 0.000000 0.000000
# 4 0.000000 0.000000 0.000000 0.097734 0.000000 0.000000
# 5 0.000000 0.000000 0.000000 0.000000 0.132380 0.000000
# 6 0.000000 0.000000 0.000000 0.000000 0.000000 0.039499
#
#
# Mechanical properties :
#
#
# Convention : Reuss Voigt Hill
#
# Bulk Modulus (GPa) = 7.63271 39.33764 23.48517
# Shear Modulus (GPa) = 10.84308 22.56292 16.70300
#
# Velocity S-wave (km/s) = 2.37141 3.42079 2.94325
# Velocity P-wave (km/s) = 3.38477 6.00035 4.87139
#
# Compressibility (1/GPa) = 0.13101505
#
# Stress axis : x y z
#
# Youngs Moduli (GPa) = 122.88862 8.40850 80.89107
#
# Poissons Ratio (x) = 0.06424 0.32222
# Poissons Ratio (y) = 0.93884 -0.59999
# Poissons Ratio (z) = 0.48952 -0.06237
#
# Static dielectric constant tensor:
#      x y z
#    x 1.713250 0.000000 0.000000 
#    y 0.000000 1.717200 0.000000 
#    z 0.000000 0.000000 1.673550 
# 
# From -- ./inp_files/8143.got.cif
#   From: 2010.05.17/outbox.cif.g08.bks.cpg/sg71_5_cif.got.tgz:8143.got - 2010.06.03 16:22:01.
