data_PCOD9521893
_publ_section_title
;
Structure prediction by ZEFSAII (Michael W. Deem and Ramdas Pophale) SiO2 
 PCOD9521893
Probable space group: I M M M
;
_chemical_formula_sum "Si O2"
_cell_formula_units_Z 120
_cell_length_a 21.158091
_cell_length_b 24.095266
_cell_length_c 13.591803
_cell_angle_alpha 90.000000
_cell_angle_beta 90.000000
_cell_angle_gamma 90.000000
_cell_volume 6929.234786
_symmetry_space_group_name_H-M "I M M M"
_symmetry_group_IT_number 71
_symmetry_cell_setting 'orthorhombic'
loop_
_space_group_symop_operation_xyz
x,y,z
-x,-y,z
x,-y,-z
-x,y,-z
-x,-y,-z
x,y,-z
-x,y,z
x,-y,z
1/2+x,1/2+y,1/2+z
1/2-x,1/2-y,1/2+z
1/2+x,1/2-y,1/2-z
1/2-x,1/2+y,1/2-z
1/2-x,1/2-y,1/2-z
1/2+x,1/2+y,1/2-z
1/2-x,1/2+y,1/2+z
1/2+x,1/2-y,1/2+z
loop_
_atom_site_type_symbol
_atom_site_label
_atom_site_fract_x
_atom_site_fract_y
_atom_site_fract_z
Si Si1 0.387578 0.250940 0.881941
Si Si2 0.757004 0.124963 0.116341
Si Si3 0.114951 0.632981 0.303672
Si Si4 0.428728 0.374574 0.881500
Si Si5 0.304787 0.434181 0.198710
Si Si6 0.313651 0.133604 0.615920
Si Si7 0.500000 0.062987 0.882534
Si Si8 0.260773 0.251404 0.382519
O O1 0.407383 0.196206 0.823200
O O2 0.420572 0.309048 0.858435
O O3 0.312926 0.257952 0.860878
O O4 0.394878 0.240682 0.000000
O O5 0.681691 0.125864 0.138305
O O6 0.789535 0.080980 0.187807
O O7 0.780020 0.186834 0.148498
O O8 0.767429 0.117071 0.000000
O O9 0.131142 0.617938 0.191013
O O10 0.062125 0.593419 0.345317
O O11 0.500000 0.392353 0.854939
O O12 0.372187 0.408914 0.832641
O O13 0.421867 0.379458 0.000000
O O14 0.302684 0.500000 0.182160
O O15 0.248887 0.402760 0.138545
O O16 0.327574 0.131355 0.500000
O O17 0.298417 0.197166 0.648093
O O18 0.500000 0.000000 0.848184
O O19 0.500000 0.064245 0.000000
O O20 0.265351 0.252508 0.500000
#
# Coordination Sequence:
#
# PCOD9521893 Si02
#       8
#    16  16  16  16  16  16   8  16
#     4   9  16  29  51  80 112 137 172 221 272 326
#     4   9  19  35  57  85 112 135 172 227 281 328
#     4  10  21  33  56  84 109 143 180 217 271 326
#     4  10  21  35  52  77 108 145 181 222 270 317
#     4  11  23  35  53  79 109 148 187 220 265 323
#     4  10  20  35  55  82 114 144 180 223 267 318
#     4  11  24  42  59  77 109 147 183 225 273 328
#     4   8  14  28  52  80 109 139 167 210 274 329
#
# _framework density 17.31793
#
# number of rings (size 3 to 8) (size 9 to 14) (size 15 to 20)
#    0.000    2.333    1.333    2.400    2.800    5.333 
#    0.000    1.000    0.000    0.800    0.000    0.933 
#    0.000    0.000    0.000    0.000    0.000    0.000 
#
# Total GULP energy -334645.316954 kJ/mol
# GULP energy per Si atom -5577.421949 kJ/mol
# Density = 1.727851 g / cm^3
# Si number density = 17.317930 Si / 1000 Ang^3
#
#
#
# Elastic Constant Matrix: (Units=GPa)
#
#
# Indices 1 2 3 4 5 6 
#
# 1 63.2426 48.0538 20.1322 0.0000 0.0000 0.0000
# 2 48.0538 106.4097 25.7854 0.0000 0.0000 0.0000
# 3 20.1322 25.7854 91.5769 0.0000 0.0000 0.0000
# 4 0.0000 0.0000 0.0000 21.8257 0.0000 0.0000
# 5 0.0000 0.0000 0.0000 0.0000 22.9607 0.0000
# 6 0.0000 0.0000 0.0000 0.0000 0.0000 11.0821
#
#
#
# Elastic Compliance Matrix: (Units=1/GPa)
#
#
# Indices 1 2 3 4 5 6 
#
# 1 0.024572 -0.010504 -0.002444 0.000000 0.000000 0.000000
# 2 -0.010504 0.014576 -0.001795 0.000000 0.000000 0.000000
# 3 -0.002444 -0.001795 0.011963 0.000000 0.000000 0.000000
# 4 0.000000 0.000000 0.000000 0.045818 0.000000 0.000000
# 5 0.000000 0.000000 0.000000 0.000000 0.043553 0.000000
# 6 0.000000 0.000000 0.000000 0.000000 0.000000 0.090236
#
#
# Mechanical properties :
#
#
# Convention : Reuss Voigt Hill
#
# Bulk Modulus (GPa) = 46.24541 49.90800 48.07671
# Shear Modulus (GPa) = 18.69783 22.32421 20.51102
#
# Velocity S-wave (km/s) = 3.28941 3.59427 3.44522
# Velocity P-wave (km/s) = 6.41785 6.79016 6.60663
#
# Compressibility (1/GPa) = 0.02162377
#
# Stress axis : x y z
#
# Youngs Moduli (GPa) = 40.69752 68.60516 83.59436
#
# Poissons Ratio (x) = 0.72063 0.20432
# Poissons Ratio (y) = 0.42749 0.15005
# Poissons Ratio (z) = 0.09947 0.12315
#
# Static dielectric constant tensor:
#      x y z
#    x 1.569580 0.000000 0.000000 
#    y 0.000000 1.603440 0.000000 
#    z 0.000000 0.000000 1.605620 
# 
# From -- ./inp_files/38418.got.cif
#   From: 2010.05.17/outbox.cif.g08.bks.cpg/sg71_20_cif.got.tgz:38418.got - 2010.06.03 16:22:01.
