data_PCOD9521345
_publ_section_title
;
Structure prediction by ZEFSAII (Michael W. Deem and Ramdas Pophale) SiO2 
 PCOD9521345
Probable space group: I M M M
;
_chemical_formula_sum "Si O2"
_cell_formula_units_Z 88
_cell_length_a 26.768110
_cell_length_b 21.288456
_cell_length_c 7.530260
_cell_angle_alpha 90.000000
_cell_angle_beta 90.000000
_cell_angle_gamma 90.000000
_cell_volume 4291.131703
_symmetry_space_group_name_H-M "I M M M"
_symmetry_group_IT_number 71
_symmetry_cell_setting 'orthorhombic'
loop_
_space_group_symop_operation_xyz
x,y,z
-x,-y,z
x,-y,-z
-x,y,-z
-x,-y,-z
x,y,-z
-x,y,z
x,-y,z
1/2+x,1/2+y,1/2+z
1/2-x,1/2-y,1/2+z
1/2+x,1/2-y,1/2-z
1/2-x,1/2+y,1/2-z
1/2-x,1/2-y,1/2-z
1/2+x,1/2+y,1/2-z
1/2-x,1/2+y,1/2+z
1/2+x,1/2-y,1/2+z
loop_
_atom_site_type_symbol
_atom_site_label
_atom_site_fract_x
_atom_site_fract_y
_atom_site_fract_z
Si Si1 0.195244 0.808521 0.284099
Si Si2 0.000000 0.222233 0.283220
Si Si3 0.303154 0.161972 0.294458
Si Si4 0.442479 0.500000 0.216500
Si Si5 0.091703 0.134959 0.282870
Si Si6 0.000000 0.367536 0.282096
Si Si7 0.604394 0.071086 0.210468
O O1 0.197746 0.806823 0.500000
O O2 0.246634 0.840337 0.217787
O O3 0.187469 0.736519 0.225439
O O4 0.146386 0.844921 0.227560
O O5 0.951049 0.183723 0.226299
O O6 0.000000 0.222490 0.500000
O O7 0.000000 0.294539 0.227069
O O8 0.299037 0.145514 0.500000
O O9 0.348674 0.118606 0.230259
O O10 0.500000 0.500000 0.266469
O O11 0.419183 0.564790 0.277526
O O12 0.440196 0.500000 0.000000
O O13 0.090388 0.135360 0.500000
O O14 0.051600 0.400608 0.221977
O O15 0.000000 0.368286 0.500000
O O16 0.613771 0.000000 0.279339
O O17 0.597315 0.065563 0.000000
#
# Coordination Sequence:
#
# PCOD9521345 Si02
#       7
#    16   8  16   8  16   8  16
#     4   9  18  33  52  74  99 133 175 214 252 297
#     4   9  14  20  38  67  98 124 151 198 254 295
#     4  10  20  34  52  75 102 134 169 211 260 304
#     4   9  14  22  36  62 103 133 151 190 251 304
#     4   9  15  24  40  66  98 130 160 195 244 297
#     4   9  17  30  51  78  99 124 167 214 254 300
#     4  10  20  35  55  77 103 135 169 208 255 309
#
# _framework density 20.507411000000001
#
# number of rings (size 3 to 8) (size 9 to 14) (size 15 to 20)
#    0.000    2.636    0.909    1.909    0.000    5.091 
#    1.636    0.455    0.000    1.091    0.000    0.000 
#    0.000    0.727    0.000    0.000    0.000    0.000 
#
# Total GULP energy -245359.365596 kJ/mol
# GULP energy per Si atom -5576.349218 kJ/mol
# Density = 2.046073 g / cm^3
# Si number density = 20.507411 Si / 1000 Ang^3
#
#
#
# Elastic Constant Matrix: (Units=GPa)
#
#
# Indices 1 2 3 4 5 6 
#
# 1 223.7239 137.0053 3.9239 0.0000 0.0000 0.0000
# 2 137.0053 162.4885 2.1974 0.0000 0.0000 0.0000
# 3 3.9239 2.1974 46.5207 0.0000 0.0000 0.0000
# 4 0.0000 0.0000 0.0000 -0.8734 0.0000 0.0000
# 5 0.0000 0.0000 0.0000 0.0000 5.9187 0.0000
# 6 0.0000 0.0000 0.0000 0.0000 0.0000 5.3492
#
#
#
# Elastic Compliance Matrix: (Units=1/GPa)
#
#
# Indices 1 2 3 4 5 6 
#
# 1 0.009250 -0.007793 -0.000412 0.000000 0.000000 0.000000
# 2 -0.007793 0.012725 0.000056 0.000000 0.000000 0.000000
# 3 -0.000412 0.000056 0.021528 0.000000 0.000000 0.000000
# 4 0.000000 0.000000 0.000000 -1.144958 0.000000 0.000000
# 5 0.000000 0.000000 0.000000 0.000000 0.168955 0.000000
# 6 0.000000 0.000000 0.000000 0.000000 0.000000 0.186942
#
#
# Mechanical properties :
#
#
# Convention : Reuss Voigt Hill
#
# Bulk Modulus (GPa) = 36.75946 79.88735 58.32341
# Shear Modulus (GPa) = -6.94259 21.38602 7.22171
#
# Velocity S-wave (km/s) = -1.84194 3.23281 1.87861
# Velocity P-wave (km/s) = 3.66609 7.27837 5.76259
#
# Compressibility (1/GPa) = 0.02720388
#
# Stress axis : x y z
#
# Youngs Moduli (GPa) = 108.11295 78.58751 46.45132
#
# Poissons Ratio (x) = 0.61246 0.01914
# Poissons Ratio (y) = 0.84257 -0.00262
# Poissons Ratio (z) = 0.04455 -0.00442
#
# Static dielectric constant tensor:
#      x y z
#    x 1.725280 0.000000 0.000000 
#    y 0.000000 1.674600 0.000000 
#    z 0.000000 0.000000 1.775750 
# 
# From -- ./inp_files/12639.got.cif
#   From: 2010.05.17/outbox.cif.g08.bks.cpg/sg71_7_cif.got.tgz:12639.got - 2010.06.03 16:22:01.
