data_PCOD9521357
_publ_section_title
;
Structure prediction by ZEFSAII (Michael W. Deem and Ramdas Pophale) SiO2 
 PCOD9521357
Probable space group: I M M M
;
_chemical_formula_sum "Si O2"
_cell_formula_units_Z 72
_cell_length_a 14.833196
_cell_length_b 30.648021
_cell_length_c 7.857380
_cell_angle_alpha 90.000000
_cell_angle_beta 90.000000
_cell_angle_gamma 90.000000
_cell_volume 3572.028612
_symmetry_space_group_name_H-M "I M M M"
_symmetry_group_IT_number 71
_symmetry_cell_setting 'orthorhombic'
loop_
_space_group_symop_operation_xyz
x,y,z
-x,-y,z
x,-y,-z
-x,y,-z
-x,-y,-z
x,y,-z
-x,y,z
x,-y,z
1/2+x,1/2+y,1/2+z
1/2-x,1/2-y,1/2+z
1/2+x,1/2-y,1/2-z
1/2-x,1/2+y,1/2-z
1/2-x,1/2-y,1/2-z
1/2+x,1/2+y,1/2-z
1/2-x,1/2+y,1/2+z
1/2+x,1/2-y,1/2+z
loop_
_atom_site_type_symbol
_atom_site_label
_atom_site_fract_x
_atom_site_fract_y
_atom_site_fract_z
Si Si1 0.317966 0.126666 0.696879
Si Si2 0.196589 0.050362 0.709640
Si Si3 0.500000 0.170732 0.708553
Si Si4 0.500000 0.446852 0.195923
Si Si5 0.500000 0.272341 0.800580
Si Si6 0.200056 0.205221 0.802481
O O1 0.338055 0.116517 0.500000
O O2 0.272742 0.083390 0.771129
O O3 0.410450 0.145890 0.768776
O O4 0.244384 0.165119 0.703969
O O5 0.193757 0.051424 0.500000
O O6 0.096927 0.065243 0.770500
O O7 0.211119 0.000000 0.757407
O O8 0.500000 0.173093 0.500000
O O9 0.500000 0.220297 0.771052
O O10 0.500000 0.500000 0.192023
O O11 0.500000 0.431421 0.000000
O O12 0.593324 0.290290 0.725532
O O13 0.500000 0.281750 0.000000
O O14 0.250000 0.250000 0.750000
O O15 0.218668 0.197801 0.000000
#
# Coordination Sequence:
#
# PCOD9521357 Si02
#       6
#    16  16   8   8   8  16
#     4  10  20  34  54  80 111 149 193 239 288 342
#     4   8  14  26  46  74 108 145 187 236 286 336
#     4  10  20  34  52  75 110 151 192 237 285 336
#     4   7  10  19  38  65  98 134 170 215 272 327
#     4  12  24  39  61  85 111 149 190 231 286 349
#     4  12  24  39  58  83 114 147 187 236 284 339
#
# _framework density 20.156614000000001
#
# number of rings (size 3 to 8) (size 9 to 14) (size 15 to 20)
#    0.000    2.111    2.222    4.333    0.000    0.889 
#    0.000    2.778    0.000    4.000    0.000    0.000 
#    0.000    7.111    0.000    0.000    0.000    0.000 
#
# Total GULP energy -200907.381067 kJ/mol
# GULP energy per Si atom -5580.760585 kJ/mol
# Density = 2.011074 g / cm^3
# Si number density = 20.156614 Si / 1000 Ang^3
#
#
#
# Elastic Constant Matrix: (Units=GPa)
#
#
# Indices 1 2 3 4 5 6 
#
# 1 151.8667 51.5539 -17.8378 -0.0024 0.0001 0.0013
# 2 51.5539 79.2830 -21.3936 -0.0010 0.0000 0.0005
# 3 -17.8378 -21.3936 36.4228 0.0109 0.0057 -0.0056
# 4 -0.0024 -0.0010 0.0109 7.5020 0.0000 -0.0013
# 5 0.0001 0.0000 0.0057 0.0000 13.3108 -0.0003
# 6 0.0013 0.0005 -0.0056 -0.0013 -0.0003 21.5001
#
#
#
# Elastic Compliance Matrix: (Units=1/GPa)
#
#
# Indices 1 2 3 4 5 6 
#
# 1 0.008486 -0.005225 0.001087 0.000000 -0.000001 0.000000
# 2 -0.005225 0.018205 0.008135 -0.000011 -0.000003 0.000002
# 3 0.001087 0.008135 0.032766 -0.000046 -0.000014 0.000008
# 4 0.000000 -0.000011 -0.000046 0.133297 0.000000 0.000008
# 5 -0.000001 -0.000003 -0.000014 0.000000 0.075127 0.000001
# 6 0.000000 0.000002 0.000008 0.000008 0.000001 0.046511
#
#
# Mechanical properties :
#
#
# Convention : Reuss Voigt Hill
#
# Bulk Modulus (GPa) = 14.82556 32.46861 23.64709
# Shear Modulus (GPa) = 15.20298 25.47924 20.34111
#
# Velocity S-wave (km/s) = 2.74933 3.55922 3.18016
# Velocity P-wave (km/s) = 4.17727 5.74751 5.02412
#
# Compressibility (1/GPa) = 0.06745106
#
# Stress axis : x y z
#
# Youngs Moduli (GPa) = 117.84061 54.92868 30.51973
#
# Poissons Ratio (x) = 0.28699 -0.03318
# Poissons Ratio (y) = 0.61568 -0.24826
# Poissons Ratio (z) = -0.12811 -0.44682
#
# Static dielectric constant tensor:
#      x y z
#    x 1.701940 0.000020 0.000000 
#    y 0.000020 1.713610 0.000000 
#    z 0.000000 0.000000 1.773200 
# 
# From -- ./inp_files/6556.got.cif
#   From: 2010.05.17/outbox.cif.g08.bks.cpg/sg71_4_cif.got.tgz:6556.got - 2010.06.03 16:22:01.
