data_PCOD9521278
_publ_section_title
;
Structure prediction by ZEFSAII (Michael W. Deem and Ramdas Pophale) SiO2 
 PCOD9521278
Probable space group: I M M M
;
_chemical_formula_sum "Si O2"
_cell_formula_units_Z 72
_cell_length_a 8.797469
_cell_length_b 14.435757
_cell_length_c 34.998956
_cell_angle_alpha 90.000000
_cell_angle_beta 90.000000
_cell_angle_gamma 90.000000
_cell_volume 4444.801778
_symmetry_space_group_name_H-M "I M M M"
_symmetry_group_IT_number 71
_symmetry_cell_setting 'orthorhombic'
loop_
_space_group_symop_operation_xyz
x,y,z
-x,-y,z
x,-y,-z
-x,y,-z
-x,-y,-z
x,y,-z
-x,y,z
x,-y,z
1/2+x,1/2+y,1/2+z
1/2-x,1/2-y,1/2+z
1/2+x,1/2-y,1/2-z
1/2-x,1/2+y,1/2-z
1/2-x,1/2-y,1/2-z
1/2+x,1/2+y,1/2-z
1/2-x,1/2+y,1/2+z
1/2+x,1/2-y,1/2+z
loop_
_atom_site_type_symbol
_atom_site_label
_atom_site_fract_x
_atom_site_fract_y
_atom_site_fract_z
Si Si1 0.678038 0.889007 0.226333
Si Si2 0.675972 0.887621 0.000000
Si Si3 0.818449 0.891940 0.690917
Si Si4 0.815443 0.608898 0.416066
Si Si5 0.818977 0.781051 0.154903
O O1 0.500000 0.863500 0.227448
O O2 0.754846 0.867861 0.266964
O O3 0.758789 0.838165 0.191524
O O4 0.688330 0.000000 0.220707
O O5 0.739994 0.861628 0.958554
O O6 0.500000 0.857075 0.000000
O O7 0.674160 0.000000 0.000000
O O8 0.743587 0.822445 0.661011
O O9 0.000000 0.881249 0.690811
O O10 0.782034 0.000000 0.683917
O O11 0.777574 0.500000 0.410297
O O12 0.746747 0.670425 0.382750
O O13 0.000000 0.614712 0.415438
O O14 0.000000 0.781617 0.154306
#
# Coordination Sequence:
#
# PCOD9521278 Si02
#       5
#    16   8  16  16  16
#     4  10  20  34  51  70  95 127 161 198 239 282
#     4   7  12  26  49  73  96 125 158 191 229 274
#     4  10  21  37  54  69  88 119 161 206 247 286
#     4   9  17  31  51  74 100 129 161 195 231 275
#     4  12  23  32  46  70 100 130 160 196 236 281
#
# _framework density 16.198696999999999
#
# number of rings (size 3 to 8) (size 9 to 14) (size 15 to 20)
#    0.000    2.111    0.000    6.000    0.000    5.778 
#    0.000    0.556    0.000    2.000    0.000    0.778 
#    0.000    6.222    0.000    0.000    0.000    0.000 
#
# Total GULP energy -200925.190597 kJ/mol
# GULP energy per Si atom -5581.255294 kJ/mol
# Density = 1.616183 g / cm^3
# Si number density = 16.198697 Si / 1000 Ang^3
#
#
#
# Elastic Constant Matrix: (Units=GPa)
#
#
# Indices 1 2 3 4 5 6 
#
# 1 77.2409 45.5659 57.8761 0.0000 0.0000 0.0000
# 2 45.5659 76.7091 82.0652 0.0000 0.0000 0.0000
# 3 57.8761 82.0652 144.4999 0.0000 0.0000 0.0000
# 4 0.0000 0.0000 0.0000 22.1881 0.0000 0.0000
# 5 0.0000 0.0000 0.0000 0.0000 20.9765 0.0000
# 6 0.0000 0.0000 0.0000 0.0000 0.0000 20.6168
#
#
#
# Elastic Compliance Matrix: (Units=1/GPa)
#
#
# Indices 1 2 3 4 5 6 
#
# 1 0.020532 -0.008660 -0.003305 0.000000 0.000000 0.000000
# 2 -0.008660 0.036873 -0.017473 0.000000 0.000000 0.000000
# 3 -0.003305 -0.017473 0.018167 0.000000 0.000000 0.000000
# 4 0.000000 0.000000 0.000000 0.045069 0.000000 0.000000
# 5 0.000000 0.000000 0.000000 0.000000 0.047672 0.000000
# 6 0.000000 0.000000 0.000000 0.000000 0.000000 0.048504
#
#
# Mechanical properties :
#
#
# Convention : Reuss Voigt Hill
#
# Bulk Modulus (GPa) = 59.89288 74.38493 67.13890
# Shear Modulus (GPa) = 17.77720 20.28580 19.03150
#
# Velocity S-wave (km/s) = 3.31637 3.54264 3.43137
# Velocity P-wave (km/s) = 7.19156 7.92172 7.56546
#
# Compressibility (1/GPa) = 0.01669648
#
# Stress axis : x y z
#
# Youngs Moduli (GPa) = 48.70476 27.12015 55.04370
#
# Poissons Ratio (x) = 0.23486 0.18194
# Poissons Ratio (y) = 0.42178 0.96175
# Poissons Ratio (z) = 0.16098 0.47386
#
# Static dielectric constant tensor:
#      x y z
#    x 1.541370 0.000000 0.000000 
#    y 0.000000 1.548000 0.000000 
#    z 0.000000 0.000000 1.538770 
# 
# From -- ./inp_files/6458.got.cif
#   From: 2010.05.17/outbox.cif.g08.bks.cpg/sg71_4_cif.got.tgz:6458.got - 2010.06.03 16:22:01.
