data_PCOD9521922
_publ_section_title
;
Structure prediction by ZEFSAII (Michael W. Deem and Ramdas Pophale) SiO2 
 PCOD9521922
Probable space group: I M M M
;
_chemical_formula_sum "Si O2"
_cell_formula_units_Z 72
_cell_length_a 30.639975
_cell_length_b 9.197323
_cell_length_c 13.435347
_cell_angle_alpha 90.000000
_cell_angle_beta 90.000000
_cell_angle_gamma 90.000000
_cell_volume 3786.157995
_symmetry_space_group_name_H-M "I M M M"
_symmetry_group_IT_number 71
_symmetry_cell_setting 'orthorhombic'
loop_
_space_group_symop_operation_xyz
x,y,z
-x,-y,z
x,-y,-z
-x,y,-z
-x,-y,-z
x,y,-z
-x,y,z
x,-y,z
1/2+x,1/2+y,1/2+z
1/2-x,1/2-y,1/2+z
1/2+x,1/2-y,1/2-z
1/2-x,1/2+y,1/2-z
1/2-x,1/2-y,1/2-z
1/2+x,1/2+y,1/2-z
1/2-x,1/2+y,1/2+z
1/2+x,1/2-y,1/2+z
loop_
_atom_site_type_symbol
_atom_site_label
_atom_site_fract_x
_atom_site_fract_y
_atom_site_fract_z
Si Si1 0.052694 0.170147 0.715821
Si Si2 0.896704 0.672975 0.111638
Si Si3 0.286275 0.827596 0.114445
Si Si4 0.312639 0.671384 0.310953
Si Si5 0.449136 0.323132 0.000000
O O1 0.072019 0.262368 0.804612
O O2 0.069481 0.221377 0.606810
O O3 0.000000 0.177693 0.714474
O O4 0.064418 0.000000 0.728200
O O5 0.893364 0.500000 0.121457
O O6 0.849675 0.744830 0.129330
O O7 0.912199 0.707361 0.000000
O O8 0.310363 0.735787 0.199264
O O9 0.234676 0.808267 0.138075
O O10 0.295686 0.000000 0.126461
O O11 0.295412 0.786690 0.000000
O O12 0.321835 0.500000 0.308257
O O13 0.449079 0.500000 0.000000
O O14 0.500000 0.278091 0.000000
#
# Coordination Sequence:
#
# PCOD9521922 Si02
#       5
#    16  16  16  16   8
#     4   9  18  35  60  86 110 140 180 226 276 330
#     4  11  24  39  54  76 110 150 189 229 276 329
#     4   9  18  34  56  81 110 142 177 223 277 329
#     4  10  20  35  56  81 108 141 184 228 271 324
#     4   7  12  28  55  83 107 131 165 213 267 321
#
# _framework density 19.016639999999999
#
# number of rings (size 3 to 8) (size 9 to 14) (size 15 to 20)
#    0.000    2.556    0.000    3.333    0.000    4.889 
#    2.000    2.778    0.000    2.000    0.000    0.000 
#    0.000    0.000    0.000    0.000    0.000    0.000 
#
# Total GULP energy -200871.855822 kJ/mol
# GULP energy per Si atom -5579.773773 kJ/mol
# Density = 1.897336 g / cm^3
# Si number density = 19.016640 Si / 1000 Ang^3
#
#
#
# Elastic Constant Matrix: (Units=GPa)
#
#
# Indices 1 2 3 4 5 6 
#
# 1 18.4997 17.6332 24.2672 0.0000 0.0000 0.0000
# 2 17.6332 58.8312 68.9485 0.0000 0.0000 0.0000
# 3 24.2672 68.9485 180.9293 0.0000 0.0000 0.0000
# 4 0.0000 0.0000 0.0000 32.0864 0.0000 0.0000
# 5 0.0000 0.0000 0.0000 0.0000 19.7373 0.0000
# 6 0.0000 0.0000 0.0000 0.0000 0.0000 24.4138
#
#
#
# Elastic Compliance Matrix: (Units=1/GPa)
#
#
# Indices 1 2 3 4 5 6 
#
# 1 0.076423 -0.019684 -0.002749 0.000000 0.000000 0.000000
# 2 -0.019684 0.035786 -0.010997 0.000000 0.000000 0.000000
# 3 -0.002749 -0.010997 0.010087 0.000000 0.000000 0.000000
# 4 0.000000 0.000000 0.000000 0.031166 0.000000 0.000000
# 5 0.000000 0.000000 0.000000 0.000000 0.050665 0.000000
# 6 0.000000 0.000000 0.000000 0.000000 0.000000 0.040960
#
#
# Mechanical properties :
#
#
# Convention : Reuss Voigt Hill
#
# Bulk Modulus (GPa) = 18.03915 53.32866 35.68390
# Shear Modulus (GPa) = 15.13195 25.07492 20.10344
#
# Velocity S-wave (km/s) = 2.82391 3.63516 3.25491
# Velocity P-wave (km/s) = 4.48768 6.76190 5.73857
#
# Compressibility (1/GPa) = 0.05543499
#
# Stress axis : x y z
#
# Youngs Moduli (GPa) = 13.08502 27.94391 99.14213
#
# Poissons Ratio (x) = 0.55005 0.27255
# Poissons Ratio (y) = 0.25757 1.09028
# Poissons Ratio (z) = 0.03597 0.30730
#
# Static dielectric constant tensor:
#      x y z
#    x 1.663790 0.000000 0.000000 
#    y 0.000000 1.625050 0.000000 
#    z 0.000000 0.000000 1.676290 
# 
# From -- ./inp_files/29600.got.cif
#   From: 2010.05.17/outbox.cif.g08.bks.cpg/sg71_15_cif.got.tgz:29600.got - 2010.06.03 16:22:01.
