data_PCOD9521687
_publ_section_title
;
Structure prediction by ZEFSAII (Michael W. Deem and Ramdas Pophale) SiO2 
 PCOD9521687
Probable space group: I M M M
;
_chemical_formula_sum "Si O2"
_cell_formula_units_Z 88
_cell_length_a 22.555825
_cell_length_b 14.668712
_cell_length_c 13.651735
_cell_angle_alpha 90.000000
_cell_angle_beta 90.000000
_cell_angle_gamma 90.000000
_cell_volume 4516.879947
_symmetry_space_group_name_H-M "I M M M"
_symmetry_group_IT_number 71
_symmetry_cell_setting 'orthorhombic'
loop_
_space_group_symop_operation_xyz
x,y,z
-x,-y,z
x,-y,-z
-x,y,-z
-x,-y,-z
x,y,-z
-x,y,z
x,-y,z
1/2+x,1/2+y,1/2+z
1/2-x,1/2-y,1/2+z
1/2+x,1/2-y,1/2-z
1/2-x,1/2+y,1/2-z
1/2-x,1/2-y,1/2-z
1/2+x,1/2+y,1/2-z
1/2-x,1/2+y,1/2+z
1/2+x,1/2-y,1/2+z
loop_
_atom_site_type_symbol
_atom_site_label
_atom_site_fract_x
_atom_site_fract_y
_atom_site_fract_z
Si Si1 0.236440 0.902036 0.117768
Si Si2 0.820099 0.233249 0.617487
Si Si3 0.603832 0.784394 0.292525
Si Si4 0.785667 0.392802 0.882626
Si Si5 0.597650 0.599190 0.382533
Si Si6 0.000000 0.391944 0.115063
O O1 0.276102 0.816874 0.143325
O O2 0.167636 0.896610 0.143974
O O3 0.260511 0.000000 0.151337
O O4 0.236410 0.903122 0.000000
O O5 0.831358 0.232966 0.500000
O O6 0.877523 0.253789 0.683083
O O7 0.780501 0.144013 0.642768
O O8 0.664578 0.824881 0.339770
O O9 0.575724 0.693350 0.340033
O O10 0.556384 0.860195 0.321746
O O11 0.794091 0.500000 0.859676
O O12 0.790364 0.383760 0.000000
O O13 0.592197 0.601186 0.500000
O O14 0.574775 0.500000 0.349529
O O15 0.000000 0.500000 0.107723
O O16 0.000000 0.357867 0.000000
#
# Coordination Sequence:
#
# PCOD9521687 Si02
#       6
#    16  16  16  16  16   8
#     4   8  14  26  45  72 108 143 173 214 275 340
#     4  10  21  36  53  82 119 152 190 239 295 348
#     4  12  22  37  59  85 112 160 206 242 285 349
#     4  10  20  34  55  86 123 157 192 239 293 352
#     4   9  17  30  52  82 114 146 182 232 293 350
#     4  11  26  46  66  88 116 151 194 244 290 338
#
# _framework density 19.482475000000001
#
# number of rings (size 3 to 8) (size 9 to 14) (size 15 to 20)
#    0.000    2.091    1.818    3.818    0.000    3.636 
#    0.000    0.909    0.000    2.182    0.000    0.000 
#    0.000    4.364    0.000    0.000    0.000    0.000 
#
# Total GULP energy -245227.304819 kJ/mol
# GULP energy per Si atom -5573.347837 kJ/mol
# Density = 1.943813 g / cm^3
# Si number density = 19.482475 Si / 1000 Ang^3
#
#
#
# Elastic Constant Matrix: (Units=GPa)
#
#
# Indices 1 2 3 4 5 6 
#
# 1 65.2527 14.5735 38.5990 0.0000 0.0000 0.0000
# 2 14.5735 121.3122 13.1916 0.0000 0.0000 0.0000
# 3 38.5990 13.1916 87.9926 0.0000 0.0000 0.0000
# 4 0.0000 0.0000 0.0000 -7.2630 0.0000 0.0000
# 5 0.0000 0.0000 0.0000 0.0000 9.2379 0.0000
# 6 0.0000 0.0000 0.0000 0.0000 0.0000 148.4061
#
#
#
# Elastic Compliance Matrix: (Units=1/GPa)
#
#
# Indices 1 2 3 4 5 6 
#
# 1 0.020976 -0.001544 -0.008970 0.000000 0.000000 0.000000
# 2 -0.001544 0.008494 -0.000596 0.000000 0.000000 0.000000
# 3 -0.008970 -0.000596 0.015389 0.000000 0.000000 0.000000
# 4 0.000000 0.000000 0.000000 -0.137685 0.000000 0.000000
# 5 0.000000 0.000000 0.000000 0.000000 0.108249 0.000000
# 6 0.000000 0.000000 0.000000 0.000000 0.000000 0.006738
#
#
# Mechanical properties :
#
#
# Convention : Reuss Voigt Hill
#
# Bulk Modulus (GPa) = 44.17380 45.25398 44.71389
# Shear Modulus (GPa) = 96.28959 43.95577 70.12268
#
# Velocity S-wave (km/s) = 7.03783 4.75507 6.00590
# Velocity P-wave (km/s) = 9.42147 7.30931 8.43179
#
# Compressibility (1/GPa) = 0.02263785
#
# Stress axis : x y z
#
# Youngs Moduli (GPa) = 47.67376 117.73673 64.98306
#
# Poissons Ratio (x) = 0.18184 0.58288
# Poissons Ratio (y) = 0.07363 0.03872
# Poissons Ratio (z) = 0.42762 0.07015
#
# Static dielectric constant tensor:
#      x y z
#    x 1.689520 0.000000 0.000000 
#    y 0.000000 1.746760 0.000000 
#    z 0.000000 0.000000 1.723100 
# 
# From -- ./inp_files/39149.got.cif
#   From: 2010.05.17/outbox.cif.g08.bks.cpg/sg71_20_cif.got.tgz:39149.got - 2010.06.03 16:22:01.
