data_PCOD9521319
_publ_section_title
;
Structure prediction by ZEFSAII (Michael W. Deem and Ramdas Pophale) SiO2 
 PCOD9521319
Probable space group: I M M M
;
_chemical_formula_sum "Si O2"
_cell_formula_units_Z 112
_cell_length_a 14.344600
_cell_length_b 31.706467
_cell_length_c 13.528819
_cell_angle_alpha 90.000000
_cell_angle_beta 90.000000
_cell_angle_gamma 90.000000
_cell_volume 6153.131277
_symmetry_space_group_name_H-M "I M M M"
_symmetry_group_IT_number 71
_symmetry_cell_setting 'orthorhombic'
loop_
_space_group_symop_operation_xyz
x,y,z
-x,-y,z
x,-y,-z
-x,y,-z
-x,-y,-z
x,y,-z
-x,y,z
x,-y,z
1/2+x,1/2+y,1/2+z
1/2-x,1/2-y,1/2+z
1/2+x,1/2-y,1/2-z
1/2-x,1/2+y,1/2-z
1/2-x,1/2-y,1/2-z
1/2+x,1/2+y,1/2-z
1/2-x,1/2+y,1/2+z
1/2+x,1/2-y,1/2+z
loop_
_atom_site_type_symbol
_atom_site_label
_atom_site_fract_x
_atom_site_fract_y
_atom_site_fract_z
Si Si1 0.828026 0.720808 0.298100
Si Si2 0.283321 0.548226 0.882583
Si Si3 0.609573 0.173504 0.606708
Si Si4 0.112318 0.412056 0.210125
Si Si5 0.721781 0.869569 0.883691
Si Si6 0.387378 0.380954 0.757341
Si Si7 0.108634 0.196230 0.608159
O O1 0.750000 0.750000 0.250000
O O2 0.876393 0.703177 0.200053
O O3 0.796693 0.680022 0.360023
O O4 0.882634 0.754949 0.362920
O O5 0.316161 0.500000 0.871457
O O6 0.181305 0.552254 0.830819
O O7 0.351761 0.581108 0.827469
O O8 0.277187 0.557366 0.000000
O O9 0.646633 0.187660 0.500000
O O10 0.500000 0.169706 0.596981
O O11 0.640362 0.126982 0.638185
O O12 0.147435 0.396141 0.317788
O O13 0.000000 0.419111 0.207527
O O14 0.824087 0.881579 0.841156
O O15 0.713611 0.877159 0.000000
O O16 0.500000 0.381816 0.742751
O O17 0.356276 0.337106 0.811262
O O18 0.149761 0.188812 0.500000
O O19 0.000000 0.186205 0.602795
#
# Coordination Sequence:
#
# PCOD9521319 Si02
#       7
#    16  16  16  16  16  16  16
#     4  11  20  33  47  73 108 142 179 228 279 325
#     4  10  21  36  58  91 123 148 177 219 275 339
#     4   9  18  32  50  71  99 139 181 216 256 313
#     4   9  19  36  57  83 116 151 185 222 269 333
#     4  10  21  37  56  82 112 147 193 242 286 329
#     4  10  21  39  58  79 110 148 190 235 282 334
#     4  10  20  34  52  73 101 141 186 227 271 328
#
# _framework density 18.202114999999999
#
# number of rings (size 3 to 8) (size 9 to 14) (size 15 to 20)
#    0.000    2.143    1.429    1.714    0.000    4.571 
#    0.000    1.429    0.000    6.857    0.000    8.000 
#    0.000    0.000    0.000    0.000    0.000    0.000 
#
# Total GULP energy -311840.196500 kJ/mol
# GULP energy per Si atom -5568.574937 kJ/mol
# Density = 1.816069 g / cm^3
# Si number density = 18.202115 Si / 1000 Ang^3
#
#
#
# Elastic Constant Matrix: (Units=GPa)
#
#
# Indices 1 2 3 4 5 6 
#
# 1 74.1976 7.3985 16.5706 0.0000 0.0000 0.0000
# 2 7.3985 70.0018 16.3014 -0.0001 -0.0001 0.0000
# 3 16.5706 16.3014 101.8405 -0.0002 -0.0002 -0.0001
# 4 0.0000 -0.0001 -0.0002 19.3988 0.0000 0.0000
# 5 0.0000 -0.0001 -0.0002 0.0000 14.7161 0.0000
# 6 0.0000 0.0000 -0.0001 0.0000 0.0000 21.7428
#
#
#
# Elastic Compliance Matrix: (Units=1/GPa)
#
#
# Indices 1 2 3 4 5 6 
#
# 1 0.014051 -0.000990 -0.002128 0.000000 0.000000 0.000000
# 2 -0.000990 0.014908 -0.002225 0.000000 0.000000 0.000000
# 3 -0.002128 -0.002225 0.010522 0.000000 0.000000 0.000000
# 4 0.000000 0.000000 0.000000 0.051549 0.000000 0.000000
# 5 0.000000 0.000000 0.000000 0.000000 0.067953 0.000000
# 6 0.000000 0.000000 0.000000 0.000000 0.000000 0.045992
#
#
# Mechanical properties :
#
#
# Convention : Reuss Voigt Hill
#
# Bulk Modulus (GPa) = 34.72743 36.28678 35.50711
# Shear Modulus (GPa) = 22.19656 24.88949 23.54303
#
# Velocity S-wave (km/s) = 3.49585 3.70184 3.60032
# Velocity P-wave (km/s) = 5.95104 6.18468 6.06898
#
# Compressibility (1/GPa) = 0.02879568
#
# Stress axis : x y z
#
# Youngs Moduli (GPa) = 71.16716 67.07741 95.04154
#
# Poissons Ratio (x) = 0.06638 0.20224
# Poissons Ratio (y) = 0.07043 0.21150
# Poissons Ratio (z) = 0.15144 0.14927
#
# Static dielectric constant tensor:
#      x y z
#    x 1.668560 0.000000 0.000000 
#    y 0.000000 1.346300 0.000000 
#    z 0.000000 0.000000 1.647500 
# 
# From -- ./inp_files/22666.got.cif
#   From: 2010.05.17/outbox.cif.g08.bks.cpg/sg71_12_cif.got.tgz:22666.got - 2010.06.03 16:22:01.
