data_PCOD9521465
_publ_section_title
;
Structure prediction by ZEFSAII (Michael W. Deem and Ramdas Pophale) SiO2 
 PCOD9521465
Probable space group: I M M M
;
_chemical_formula_sum "Si O2"
_cell_formula_units_Z 104
_cell_length_a 27.581565
_cell_length_b 24.118174
_cell_length_c 8.081383
_cell_angle_alpha 90.000000
_cell_angle_beta 90.000000
_cell_angle_gamma 90.000000
_cell_volume 5375.873225
_symmetry_space_group_name_H-M "I M M M"
_symmetry_group_IT_number 71
_symmetry_cell_setting 'orthorhombic'
loop_
_space_group_symop_operation_xyz
x,y,z
-x,-y,z
x,-y,-z
-x,y,-z
-x,-y,-z
x,y,-z
-x,y,z
x,-y,z
1/2+x,1/2+y,1/2+z
1/2-x,1/2-y,1/2+z
1/2+x,1/2-y,1/2-z
1/2-x,1/2+y,1/2-z
1/2-x,1/2-y,1/2-z
1/2+x,1/2+y,1/2-z
1/2-x,1/2+y,1/2+z
1/2+x,1/2-y,1/2+z
loop_
_atom_site_type_symbol
_atom_site_label
_atom_site_fract_x
_atom_site_fract_y
_atom_site_fract_z
Si Si1 0.388464 0.705112 0.689872
Si Si2 0.822962 0.500000 0.194029
Si Si3 0.285015 0.500000 0.689543
Si Si4 0.352066 0.120241 0.701175
Si Si5 0.699486 0.224323 0.804991
Si Si6 0.445538 0.500000 0.201755
Si Si7 0.445418 0.808303 0.297826
Si Si8 0.635167 0.415921 0.194355
O O1 0.399656 0.691272 0.500000
O O2 0.341703 0.744434 0.701502
O O3 0.430377 0.745966 0.756872
O O4 0.373711 0.648647 0.778116
O O5 0.764679 0.500000 0.209267
O O6 0.844299 0.557626 0.261611
O O7 0.835460 0.500000 0.000000
O O8 0.270190 0.500000 0.500000
O O9 0.318931 0.446287 0.723533
O O10 0.350413 0.121008 0.500000
O O11 0.308959 0.159713 0.766105
O O12 0.403069 0.148835 0.752977
O O13 0.750000 0.250000 0.750000
O O14 0.691993 0.233807 0.000000
O O15 0.500000 0.500000 0.265183
O O16 0.413375 0.552509 0.252234
O O17 0.447978 0.500000 0.000000
O O18 0.444482 0.807384 0.500000
O O19 0.500000 0.822414 0.245719
O O20 0.641075 0.426772 0.000000
#
# Coordination Sequence:
#
# PCOD9521465 Si02
#       8
#    16   8   8  16  16   8  16  16
#     4  10  20  34  53  79 110 142 181 223 268 326
#     4  10  21  37  57  80 112 148 186 228 277 329
#     4  11  23  37  54  75 104 145 190 234 278 329
#     4   9  19  36  56  81 112 146 184 227 273 327
#     4  11  22  36  55  78 108 143 180 224 275 326
#     4   8  16  32  52  73 101 140 183 226 273 323
#     4   8  15  31  55  81 111 145 180 223 275 326
#     4  10  20  35  54  77 108 143 182 228 277 327
#
# _framework density 19.345694999999999
#
# number of rings (size 3 to 8) (size 9 to 14) (size 15 to 20)
#    0.000    2.385    0.000    4.385    2.154    1.231 
#    0.000    0.385    0.000   21.231    0.000    0.000 
#    0.000    5.538    0.000    0.000    0.000    0.000 
#
# Total GULP energy -289950.204891 kJ/mol
# GULP energy per Si atom -5575.965479 kJ/mol
# Density = 1.930166 g / cm^3
# Si number density = 19.345695 Si / 1000 Ang^3
#
#
#
# Elastic Constant Matrix: (Units=GPa)
#
#
# Indices 1 2 3 4 5 6 
#
# 1 95.9287 43.6018 -9.3744 0.0000 0.0000 0.0000
# 2 43.6018 148.0286 0.1101 0.0000 0.0000 0.0000
# 3 -9.3744 0.1101 28.7521 0.0000 0.0000 0.0000
# 4 0.0000 0.0000 0.0000 20.3913 0.0000 0.0000
# 5 0.0000 0.0000 0.0000 0.0000 10.8564 0.0000
# 6 0.0000 0.0000 0.0000 0.0000 0.0000 12.8258
#
#
#
# Elastic Compliance Matrix: (Units=1/GPa)
#
#
# Indices 1 2 3 4 5 6 
#
# 1 0.012499 -0.003685 0.004089 0.000000 0.000000 0.000000
# 2 -0.003685 0.007842 -0.001231 0.000000 0.000000 0.000000
# 3 0.004089 -0.001231 0.036118 0.000000 0.000000 0.000000
# 4 0.000000 0.000000 0.000000 0.049040 0.000000 0.000000
# 5 0.000000 0.000000 0.000000 0.000000 0.092111 0.000000
# 6 0.000000 0.000000 0.000000 0.000000 0.000000 0.077968
#
#
# Mechanical properties :
#
#
# Convention : Reuss Voigt Hill
#
# Bulk Modulus (GPa) = 18.24648 37.93159 28.08903
# Shear Modulus (GPa) = 16.92051 24.70618 20.81334
#
# Velocity S-wave (km/s) = 2.96064 3.57752 3.28360
# Velocity P-wave (km/s) = 4.59777 6.05926 5.37839
#
# Compressibility (1/GPa) = 0.05480510
#
# Stress axis : x y z
#
# Youngs Moduli (GPa) = 80.00808 127.52417 27.68701
#
# Poissons Ratio (x) = 0.46987 -0.11322
# Poissons Ratio (y) = 0.29479 0.03409
# Poissons Ratio (z) = -0.32717 0.15703
#
# Static dielectric constant tensor:
#      x y z
#    x 1.665180 0.000000 0.000000 
#    y 0.000000 1.689730 0.000000 
#    z 0.000000 0.000000 1.685920 
# 
# From -- ./inp_files/15351.got.cif
#   From: 2010.05.17/outbox.cif.g08.bks.cpg/sg71_8_cif.got.tgz:15351.got - 2010.06.03 16:22:01.
