data_PCOD9521630
_publ_section_title
;
Structure prediction by ZEFSAII (Michael W. Deem and Ramdas Pophale) SiO2 
 PCOD9521630
Probable space group: I M M M
;
_chemical_formula_sum "Si O2"
_cell_formula_units_Z 84
_cell_length_a 22.271819
_cell_length_b 13.581019
_cell_length_c 14.712434
_cell_angle_alpha 90.000000
_cell_angle_beta 90.000000
_cell_angle_gamma 90.000000
_cell_volume 4450.128718
_symmetry_space_group_name_H-M "I M M M"
_symmetry_group_IT_number 71
_symmetry_cell_setting 'orthorhombic'
loop_
_space_group_symop_operation_xyz
x,y,z
-x,-y,z
x,-y,-z
-x,y,-z
-x,-y,-z
x,y,-z
-x,y,z
x,-y,z
1/2+x,1/2+y,1/2+z
1/2-x,1/2-y,1/2+z
1/2+x,1/2-y,1/2-z
1/2-x,1/2+y,1/2-z
1/2-x,1/2-y,1/2-z
1/2+x,1/2+y,1/2-z
1/2-x,1/2+y,1/2+z
1/2+x,1/2-y,1/2+z
loop_
_atom_site_type_symbol
_atom_site_label
_atom_site_fract_x
_atom_site_fract_y
_atom_site_fract_z
Si Si1 0.500000 0.782302 0.604338
Si Si2 0.206337 0.500000 0.400880
Si Si3 0.871906 0.500000 0.775634
Si Si4 0.000000 0.500000 0.170447
Si Si5 0.637892 0.295514 0.106996
Si Si6 0.377966 0.784774 0.705163
Si Si7 0.268312 0.288454 0.398159
Si Si8 0.930040 0.000000 0.390707
O O1 0.500000 0.750703 0.500000
O O2 0.439078 0.752585 0.656098
O O3 0.500000 0.901656 0.611075
O O4 0.176312 0.500000 0.500000
O O5 0.161794 0.500000 0.318117
O O6 0.244261 0.399991 0.394965
O O7 0.860324 0.603779 0.823743
O O8 0.942933 0.500000 0.765597
O O9 0.614111 0.222942 0.185977
O O10 0.710300 0.282569 0.113998
O O11 0.608394 0.401480 0.130810
O O12 0.623733 0.273868 0.000000
O O13 0.320602 0.723254 0.674315
O O14 0.292483 0.269936 0.500000
O O15 0.934624 0.000000 0.500000
O O16 0.000000 0.000000 0.356436
#
# Coordination Sequence:
#
# PCOD9521630 Si02
#       8
#     8   8   8   4  16  16  16   8
#     4  10  21  38  59  82 113 151 193 240 289 349
#     4  10  20  35  57  83 118 157 191 239 300 350
#     4  10  20  34  55  81 116 147 197 239 287 353
#     4   8  19  36  53  80 108 148 185 232 296 344
#     4  10  21  36  57  86 117 151 193 240 290 350
#     4  11  22  37  59  87 117 155 199 243 296 351
#     4  10  21  38  59  86 118 155 199 246 297 349
#     4   9  20  38  58  82 120 159 190 234 292 349
#
# _framework density 18.875858000000001
#
# number of rings (size 3 to 8) (size 9 to 14) (size 15 to 20)
#    0.000    2.000    1.905    1.286    1.333    1.524 
#    0.000    2.619    0.000    3.429    0.000    3.333 
#    0.000    0.000    0.000    0.000    0.000    0.000 
#
# Total GULP energy -233858.322544 kJ/mol
# GULP energy per Si atom -5568.055299 kJ/mol
# Density = 1.883290 g / cm^3
# Si number density = 18.875858 Si / 1000 Ang^3
#
#
#
# Elastic Constant Matrix: (Units=GPa)
#
#
# Indices 1 2 3 4 5 6 
#
# 1 84.4478 24.8515 44.9740 0.0000 0.0000 0.0000
# 2 24.8515 70.6820 -0.2204 0.0000 0.0000 0.0000
# 3 44.9740 -0.2204 95.7016 0.0000 0.0000 0.0000
# 4 0.0000 0.0000 0.0000 12.1835 0.0000 0.0000
# 5 0.0000 0.0000 0.0000 0.0000 24.7953 0.0000
# 6 0.0000 0.0000 0.0000 0.0000 0.0000 12.2595
#
#
#
# Elastic Compliance Matrix: (Units=1/GPa)
#
#
# Indices 1 2 3 4 5 6 
#
# 1 0.018348 -0.006478 -0.008637 0.000000 0.000000 0.000000
# 2 -0.006478 0.016435 0.003082 0.000000 0.000000 0.000000
# 3 -0.008637 0.003082 0.014515 0.000000 0.000000 0.000000
# 4 0.000000 0.000000 0.000000 0.082078 0.000000 0.000000
# 5 0.000000 0.000000 0.000000 0.000000 0.040330 0.000000
# 6 0.000000 0.000000 0.000000 0.000000 0.000000 0.081569
#
#
# Mechanical properties :
#
#
# Convention : Reuss Voigt Hill
#
# Bulk Modulus (GPa) = 39.63237 43.33795 41.48516
# Shear Modulus (GPa) = 17.49760 21.92942 19.71351
#
# Velocity S-wave (km/s) = 3.04794 3.41217 3.23519
# Velocity P-wave (km/s) = 5.78174 6.20751 5.99841
#
# Compressibility (1/GPa) = 0.02523190
#
# Stress axis : x y z
#
# Youngs Moduli (GPa) = 54.50191 60.84527 68.89288
#
# Poissons Ratio (x) = 0.39416 0.59505
# Poissons Ratio (y) = 0.35306 -0.21234
# Poissons Ratio (z) = 0.47075 -0.18753
#
# Static dielectric constant tensor:
#      x y z
#    x 1.644310 0.000000 0.000000 
#    y 0.000000 1.710740 0.000000 
#    z 0.000000 0.000000 1.696730 
# 
# From -- ./inp_files/37808.got.cif
#   From: 2010.05.17/outbox.cif.g08.bks.cpg/sg71_19_cif.got.tgz:37808.got - 2010.06.03 16:22:01.
