data_PCOD9521994
_publ_section_title
;
Structure prediction by ZEFSAII (Michael W. Deem and Ramdas Pophale) SiO2 
 PCOD9521994
Probable space group: I M M M
;
_chemical_formula_sum "Si O2"
_cell_formula_units_Z 96
_cell_length_a 22.761038
_cell_length_b 18.404721
_cell_length_c 12.942241
_cell_angle_alpha 90.000000
_cell_angle_beta 90.000000
_cell_angle_gamma 90.000000
_cell_volume 5421.641348
_symmetry_space_group_name_H-M "I M M M"
_symmetry_group_IT_number 71
_symmetry_cell_setting 'orthorhombic'
loop_
_space_group_symop_operation_xyz
x,y,z
-x,-y,z
x,-y,-z
-x,y,-z
-x,-y,-z
x,y,-z
-x,y,z
x,-y,z
1/2+x,1/2+y,1/2+z
1/2-x,1/2-y,1/2+z
1/2+x,1/2-y,1/2-z
1/2-x,1/2+y,1/2-z
1/2-x,1/2-y,1/2-z
1/2+x,1/2+y,1/2-z
1/2-x,1/2+y,1/2+z
1/2+x,1/2-y,1/2+z
loop_
_atom_site_type_symbol
_atom_site_label
_atom_site_fract_x
_atom_site_fract_y
_atom_site_fract_z
Si Si1 0.240353 0.913335 0.500000
Si Si2 0.096654 0.916645 0.500000
Si Si3 0.312819 0.913367 0.119428
Si Si4 0.934119 0.665670 0.624100
Si Si5 0.430006 0.579570 0.615157
Si Si6 0.098261 0.175389 0.695973
Si Si7 0.737979 0.332232 0.211473
O O1 0.168540 0.915128 0.500000
O O2 0.259850 0.867933 0.602477
O O3 0.257974 0.000000 0.500000
O O4 0.076104 0.874529 0.398120
O O5 0.078084 0.000000 0.500000
O O6 0.378254 0.884979 0.148106
O O7 0.265028 0.881194 0.197447
O O8 0.311870 0.000000 0.123135
O O9 0.301629 0.890323 0.000000
O O10 0.932874 0.676827 0.500000
O O11 0.922859 0.743143 0.676982
O O12 0.000000 0.638569 0.650126
O O13 0.406090 0.592695 0.500000
O O14 0.500000 0.573902 0.606836
O O15 0.407661 0.500000 0.651338
O O16 0.419168 0.642413 0.695194
O O17 0.168334 0.168950 0.696541
O O18 0.750000 0.250000 0.250000
#
# Coordination Sequence:
#
# PCOD9521994 Si02
#       7
#     8   8  16  16  16  16  16
#     4   9  20  36  54  77 111 154 190 218 265 347
#     4   9  18  30  49  78 107 139 176 217 270 323
#     4  10  22  39  59  85 118 148 186 239 288 337
#     4  10  20  35  57  82 111 148 188 231 287 340
#     4   9  19  35  51  69 101 144 184 221 261 312
#     4  11  19  33  54  79 110 143 178 227 276 334
#     4  11  22  35  58  83 115 151 183 227 285 344
#
# _framework density 17.706814000000001
#
# number of rings (size 3 to 8) (size 9 to 14) (size 15 to 20)
#    0.000    2.000    2.500    2.000    1.167    3.000 
#    0.000    3.333    0.000    2.000    0.000    0.000 
#    0.000    2.000    0.000    0.000    0.000    0.000 
#
# Total GULP energy -267402.726354 kJ/mol
# GULP energy per Si atom -5570.890132 kJ/mol
# Density = 1.766651 g / cm^3
# Si number density = 17.706814 Si / 1000 Ang^3
#
#
#
# Elastic Constant Matrix: (Units=GPa)
#
#
# Indices 1 2 3 4 5 6 
#
# 1 30.9431 0.1832 4.4904 0.0000 0.0000 0.0000
# 2 0.1832 82.2200 38.7688 0.0000 0.0000 0.0000
# 3 4.4904 38.7688 73.2851 0.0000 0.0000 0.0000
# 4 0.0000 0.0000 0.0000 30.1301 0.0000 0.0000
# 5 0.0000 0.0000 0.0000 0.0000 22.0795 0.0000
# 6 0.0000 0.0000 0.0000 0.0000 0.0000 43.3306
#
#
#
# Elastic Compliance Matrix: (Units=1/GPa)
#
#
# Indices 1 2 3 4 5 6 
#
# 1 0.032690 0.001161 -0.002617 0.000000 0.000000 0.000000
# 2 0.001161 0.016246 -0.008665 0.000000 0.000000 0.000000
# 3 -0.002617 -0.008665 0.018390 0.000000 0.000000 0.000000
# 4 0.000000 0.000000 0.000000 0.033189 0.000000 0.000000
# 5 0.000000 0.000000 0.000000 0.000000 0.045291 0.000000
# 6 0.000000 0.000000 0.000000 0.000000 0.000000 0.023078
#
#
# Mechanical properties :
#
#
# Convention : Reuss Voigt Hill
#
# Bulk Modulus (GPa) = 21.23907 30.37034 25.80470
# Shear Modulus (GPa) = 24.41144 28.64176 26.52660
#
# Velocity S-wave (km/s) = 3.71704 4.02625 3.87473
# Velocity P-wave (km/s) = 5.51750 6.22923 5.88413
#
# Compressibility (1/GPa) = 0.04708303
#
# Stress axis : x y z
#
# Youngs Moduli (GPa) = 30.59009 61.55407 54.37778
#
# Poissons Ratio (x) = -0.07148 0.14233
# Poissons Ratio (y) = -0.03553 0.47121
# Poissons Ratio (z) = 0.08007 0.53339
#
# Static dielectric constant tensor:
#      x y z
#    x 1.616140 0.000000 0.000000 
#    y 0.000000 1.819350 0.000000 
#    z 0.000000 0.000000 1.601800 
# 
# From -- ./inp_files/26001.got.cif
#   From: 2010.05.17/outbox.cif.g08.bks.cpg/sg71_14_cif.got.tgz:26001.got - 2010.06.03 16:22:01.
