data_PCOD9521676
_publ_section_title
;
Structure prediction by ZEFSAII (Michael W. Deem and Ramdas Pophale) SiO2 
 PCOD9521676
Probable space group: I M M M
;
_chemical_formula_sum "Si O2"
_cell_formula_units_Z 88
_cell_length_a 26.072019
_cell_length_b 22.084986
_cell_length_c 8.159233
_cell_angle_alpha 90.000000
_cell_angle_beta 90.000000
_cell_angle_gamma 90.000000
_cell_volume 4698.087786
_symmetry_space_group_name_H-M "I M M M"
_symmetry_group_IT_number 71
_symmetry_cell_setting 'orthorhombic'
loop_
_space_group_symop_operation_xyz
x,y,z
-x,-y,z
x,-y,-z
-x,y,-z
-x,-y,-z
x,y,-z
-x,y,z
x,-y,z
1/2+x,1/2+y,1/2+z
1/2-x,1/2-y,1/2+z
1/2+x,1/2-y,1/2-z
1/2-x,1/2+y,1/2-z
1/2-x,1/2-y,1/2-z
1/2+x,1/2+y,1/2-z
1/2-x,1/2+y,1/2+z
1/2+x,1/2-y,1/2+z
loop_
_atom_site_type_symbol
_atom_site_label
_atom_site_fract_x
_atom_site_fract_y
_atom_site_fract_z
Si Si1 0.558209 0.071408 0.500000
Si Si2 0.000000 0.260625 0.696780
Si Si3 0.000000 0.877569 0.298641
Si Si4 0.609979 0.431208 0.196818
Si Si5 0.804819 0.296762 0.689467
Si Si6 0.913470 0.642954 0.687689
Si Si7 0.695941 0.663954 0.308668
O O1 0.500000 0.094238 0.500000
O O2 0.581174 0.094493 0.669928
O O3 0.558747 0.000000 0.500000
O O4 0.000000 0.192246 0.760169
O O5 0.949999 0.300448 0.735607
O O6 0.000000 0.254414 0.500000
O O7 0.946607 0.909024 0.246273
O O8 0.000000 0.878343 0.500000
O O9 0.620549 0.500000 0.256388
O O10 0.654681 0.382572 0.235628
O O11 0.607064 0.433789 0.000000
O O12 0.792772 0.279436 0.500000
O O13 0.855040 0.336593 0.686634
O O14 0.755112 0.333041 0.754590
O O15 0.818078 0.234517 0.781494
O O16 0.927909 0.624768 0.500000
O O17 0.697722 0.649336 0.500000
#
# Coordination Sequence:
#
# PCOD9521676 Si02
#       7
#     8   8   8  16  16  16  16
#     4  11  24  40  58  84 116 152 192 235 287 351
#     4   9  16  28  53  85 111 140 181 230 290 342
#     4   9  17  32  55  81 108 142 190 237 273 324
#     4  10  20  35  55  78 108 150 195 232 270 325
#     4   9  19  36  58  82 112 143 183 235 287 341
#     4  10  20  37  59  85 116 153 189 236 292 346
#     4  10  20  34  55  85 112 146 183 228 291 343
#
# _framework density 18.731026
#
# number of rings (size 3 to 8) (size 9 to 14) (size 15 to 20)
#    0.000    2.273    0.909    1.909    1.273    5.455 
#    0.000    2.273    0.000    4.364    0.000    0.000 
#    0.000    0.000    0.000    0.000    0.000    0.000 
#
# Total GULP energy -245084.126650 kJ/mol
# GULP energy per Si atom -5570.093788 kJ/mol
# Density = 1.868839 g / cm^3
# Si number density = 18.731026 Si / 1000 Ang^3
#
#
#
# Elastic Constant Matrix: (Units=GPa)
#
#
# Indices 1 2 3 4 5 6 
#
# 1 122.6216 64.4762 30.0867 0.0000 0.0000 0.0000
# 2 64.4762 97.9965 36.2194 0.0000 0.0000 0.0000
# 3 30.0867 36.2194 46.2193 0.0000 0.0000 0.0000
# 4 0.0000 0.0000 0.0000 25.4609 0.0000 0.0000
# 5 0.0000 0.0000 0.0000 0.0000 20.2089 0.0000
# 6 0.0000 0.0000 0.0000 0.0000 0.0000 6.3521
#
#
#
# Elastic Compliance Matrix: (Units=1/GPa)
#
#
# Indices 1 2 3 4 5 6 
#
# 1 0.012657 -0.007436 -0.002412 0.000000 0.000000 0.000000
# 2 -0.007436 0.018734 -0.009840 0.000000 0.000000 0.000000
# 3 -0.002412 -0.009840 0.030917 0.000000 0.000000 0.000000
# 4 0.000000 0.000000 0.000000 0.039276 0.000000 0.000000
# 5 0.000000 0.000000 0.000000 0.000000 0.049483 0.000000
# 6 0.000000 0.000000 0.000000 0.000000 0.000000 0.157428
#
#
# Mechanical properties :
#
#
# Convention : Reuss Voigt Hill
#
# Bulk Modulus (GPa) = 43.60752 58.71131 51.15942
# Shear Modulus (GPa) = 14.06409 19.47473 16.76941
#
# Velocity S-wave (km/s) = 2.74313 3.22794 2.99536
# Velocity P-wave (km/s) = 5.77620 6.73092 6.27175
#
# Compressibility (1/GPa) = 0.02293182
#
# Stress axis : x y z
#
# Youngs Moduli (GPa) = 79.00775 53.37912 32.34462
#
# Poissons Ratio (x) = 0.39694 0.07801
# Poissons Ratio (y) = 0.58752 0.31827
# Poissons Ratio (z) = 0.19055 0.52525
#
# Static dielectric constant tensor:
#      x y z
#    x 1.666680 0.000000 0.000000 
#    y 0.000000 1.628360 0.000000 
#    z 0.000000 0.000000 1.724610 
# 
# From -- ./inp_files/12622.got.cif
#   From: 2010.05.17/outbox.cif.g08.bks.cpg/sg71_7_cif.got.tgz:12622.got - 2010.06.03 16:22:01.
