data_PCOD9521962
_publ_section_title
;
Structure prediction by ZEFSAII (Michael W. Deem and Ramdas Pophale) SiO2 
 PCOD9521962
Probable space group: I M M M
;
_chemical_formula_sum "Si O2"
_cell_formula_units_Z 88
_cell_length_a 24.092944
_cell_length_b 22.057246
_cell_length_c 8.765078
_cell_angle_alpha 90.000000
_cell_angle_beta 90.000000
_cell_angle_gamma 90.000000
_cell_volume 4657.972747
_symmetry_space_group_name_H-M "I M M M"
_symmetry_group_IT_number 71
_symmetry_cell_setting 'orthorhombic'
loop_
_space_group_symop_operation_xyz
x,y,z
-x,-y,z
x,-y,-z
-x,y,-z
-x,-y,-z
x,y,-z
-x,y,z
x,-y,z
1/2+x,1/2+y,1/2+z
1/2-x,1/2-y,1/2+z
1/2+x,1/2-y,1/2-z
1/2-x,1/2+y,1/2-z
1/2-x,1/2-y,1/2-z
1/2+x,1/2+y,1/2-z
1/2-x,1/2+y,1/2+z
1/2+x,1/2-y,1/2+z
loop_
_atom_site_type_symbol
_atom_site_label
_atom_site_fract_x
_atom_site_fract_y
_atom_site_fract_z
Si Si1 0.565706 0.500000 0.183456
Si Si2 0.690772 0.272612 0.179165
Si Si3 0.434210 0.929855 0.177296
Si Si4 0.855167 0.102582 0.821007
Si Si5 0.649497 0.158188 0.675202
Si Si6 0.230260 0.567767 0.676594
O O1 0.500000 0.500000 0.225776
O O2 0.597928 0.439964 0.245330
O O3 0.569279 0.500000 0.000000
O O4 0.750000 0.250000 0.250000
O O5 0.661708 0.332267 0.249656
O O6 0.651118 0.216081 0.216282
O O7 0.698995 0.281650 0.000000
O O8 0.500000 0.921010 0.186436
O O9 0.401816 0.884579 0.284785
O O10 0.422876 0.000000 0.215183
O O11 0.417516 0.920613 0.000000
O O12 0.796310 0.068061 0.809260
O O13 0.868380 0.110416 0.000000
O O14 0.650380 0.177293 0.500000
O O15 0.702730 0.116614 0.714464
O O16 0.217520 0.583769 0.500000
O O17 0.209241 0.500000 0.706239
#
# Coordination Sequence:
#
# PCOD9521962 Si02
#       6
#     8  16  16  16  16  16
#     4  11  25  45  69  97 131 171 214 263 318 377
#     4  12  24  40  61  88 124 165 205 249 307 376
#     4   9  19  38  62  85 114 156 202 248 299 352
#     4  11  22  40  65  93 123 158 204 258 314 371
#     4  12  24  36  55  87 124 162 202 247 300 360
#     4  10  20  35  56  84 120 159 198 246 304 363
#
# _framework density 18.892339
#
# number of rings (size 3 to 8) (size 9 to 14) (size 15 to 20)
#    0.000    1.182    2.727    5.182    0.000    4.727 
#    0.000    1.818    0.000    5.455    0.000    0.000 
#    0.000    0.000    0.000    0.000    0.000    0.000 
#
# Total GULP energy -245715.010277 kJ/mol
# GULP energy per Si atom -5584.432052 kJ/mol
# Density = 1.884934 g / cm^3
# Si number density = 18.892339 Si / 1000 Ang^3
#
#
#
# Elastic Constant Matrix: (Units=GPa)
#
#
# Indices 1 2 3 4 5 6 
#
# 1 112.9169 45.3687 40.6134 0.0000 0.0000 0.0000
# 2 45.3687 113.0710 52.9392 0.0000 0.0000 0.0000
# 3 40.6134 52.9392 98.3607 0.0000 0.0000 0.0000
# 4 0.0000 0.0000 0.0000 31.9907 0.0000 0.0000
# 5 0.0000 0.0000 0.0000 0.0000 30.0399 0.0000
# 6 0.0000 0.0000 0.0000 0.0000 0.0000 67.8462
#
#
#
# Elastic Compliance Matrix: (Units=1/GPa)
#
#
# Indices 1 2 3 4 5 6 
#
# 1 0.011159 -0.003102 -0.002938 0.000000 0.000000 0.000000
# 2 -0.003102 0.012686 -0.005547 0.000000 0.000000 0.000000
# 3 -0.002938 -0.005547 0.014365 0.000000 0.000000 0.000000
# 4 0.000000 0.000000 0.000000 0.031259 0.000000 0.000000
# 5 0.000000 0.000000 0.000000 0.000000 0.033289 0.000000
# 6 0.000000 0.000000 0.000000 0.000000 0.000000 0.014739
#
#
# Mechanical properties :
#
#
# Convention : Reuss Voigt Hill
#
# Bulk Modulus (GPa) = 66.50590 66.91015 66.70803
# Shear Modulus (GPa) = 34.32109 38.33719 36.32914
#
# Velocity S-wave (km/s) = 4.26686 4.50960 4.38991
# Velocity P-wave (km/s) = 7.71711 7.91257 7.81545
#
# Compressibility (1/GPa) = 0.01503626
#
# Stress axis : x y z
#
# Youngs Moduli (GPa) = 89.61256 78.82968 69.61258
#
# Poissons Ratio (x) = 0.24452 0.20453
# Poissons Ratio (y) = 0.27797 0.38613
# Poissons Ratio (z) = 0.26330 0.43725
#
# Static dielectric constant tensor:
#      x y z
#    x 1.667710 0.000000 0.000000 
#    y 0.000000 1.675740 0.000000 
#    z 0.000000 0.000000 1.648770 
# 
# From -- ./inp_files/12536.got.cif
#   From: 2010.05.17/outbox.cif.g08.bks.cpg/sg71_7_cif.got.tgz:12536.got - 2010.06.03 16:22:01.
