data_PCOD9521575
_publ_section_title
;
Structure prediction by ZEFSAII (Michael W. Deem and Ramdas Pophale) SiO2 
 PCOD9521575
Probable space group: I M M M
;
_chemical_formula_sum "Si O2"
_cell_formula_units_Z 66
_cell_length_a 7.727126
_cell_length_b 26.394425
_cell_length_c 18.516726
_cell_angle_alpha 90.000000
_cell_angle_beta 90.000000
_cell_angle_gamma 90.000000
_cell_volume 3776.542701
_symmetry_space_group_name_H-M "I M M M"
_symmetry_group_IT_number 71
_symmetry_cell_setting 'orthorhombic'
loop_
_space_group_symop_operation_xyz
x,y,z
-x,-y,z
x,-y,-z
-x,y,-z
-x,-y,-z
x,y,-z
-x,y,z
x,-y,z
1/2+x,1/2+y,1/2+z
1/2-x,1/2-y,1/2+z
1/2+x,1/2-y,1/2-z
1/2-x,1/2+y,1/2-z
1/2-x,1/2-y,1/2-z
1/2+x,1/2+y,1/2-z
1/2-x,1/2+y,1/2+z
1/2+x,1/2-y,1/2+z
loop_
_atom_site_type_symbol
_atom_site_label
_atom_site_fract_x
_atom_site_fract_y
_atom_site_fract_z
Si Si1 0.000000 0.500000 0.500000
Si Si2 0.296141 0.636537 0.186296
Si Si3 0.500000 0.059322 0.287429
Si Si4 0.209294 0.228885 0.583282
Si Si5 0.304682 0.336876 0.646656
Si Si6 0.000000 0.410777 0.618786
O O1 0.000000 0.544312 0.562620
O O2 0.500000 0.624114 0.176167
O O3 0.169675 0.588569 0.183656
O O4 0.243242 0.679343 0.129013
O O5 0.278224 0.660006 0.266848
O O6 0.500000 0.067564 0.200571
O O7 0.500000 0.000000 0.303908
O O8 0.263803 0.225385 0.500000
O O9 0.279433 0.280007 0.619050
O O10 0.000000 0.232230 0.585349
O O11 0.500000 0.353713 0.631217
O O12 0.166393 0.374432 0.611525
#
# Coordination Sequence:
#
# PCOD9521575 Si02
#       6
#     2  16   8  16  16   8
#     4  12  24  40  66  72 124 166 186 236 280 308
#     4   9  20  36  55  81 111 143 186 229 277 330
#     4  10  20  38  61  82 104 144 194 237 269 321
#     4  10  20  34  54  82 115 149 177 225 283 343
#     4  10  20  35  57  81 112 147 188 229 274 330
#     4  10  22  40  56  83 110 150 195 230 271 324
#
# _framework density 17.476300999999999
#
# number of rings (size 3 to 8) (size 9 to 14) (size 15 to 20)
#    0.000    2.182    1.818    0.727    3.394    0.970 
#    0.000    1.212    0.000    1.455    0.000    3.394 
#    0.000    0.000    0.000    0.000    0.000    0.000 
#
# Total GULP energy -183948.565830 kJ/mol
# GULP energy per Si atom -5574.198965 kJ/mol
# Density = 1.743652 g / cm^3
# Si number density = 17.476301 Si / 1000 Ang^3
#
#
#
# Elastic Constant Matrix: (Units=GPa)
#
#
# Indices 1 2 3 4 5 6 
#
# 1 97.7710 84.0940 53.8285 0.0000 0.0000 0.0000
# 2 84.0940 177.3694 72.0317 0.0000 0.0000 0.0000
# 3 53.8285 72.0317 59.2920 0.0000 0.0000 0.0000
# 4 0.0000 0.0000 0.0000 32.2246 0.0000 0.0000
# 5 0.0000 0.0000 0.0000 0.0000 7.2196 0.0000
# 6 0.0000 0.0000 0.0000 0.0000 0.0000 9.0874
#
#
#
# Elastic Compliance Matrix: (Units=1/GPa)
#
#
# Indices 1 2 3 4 5 6 
#
# 1 0.022217 -0.004623 -0.014553 0.000000 0.000000 0.000000
# 2 -0.004623 0.012090 -0.010491 0.000000 0.000000 0.000000
# 3 -0.014553 -0.010491 0.042823 0.000000 0.000000 0.000000
# 4 0.000000 0.000000 0.000000 0.031032 0.000000 0.000000
# 5 0.000000 0.000000 0.000000 0.000000 0.138512 0.000000
# 6 0.000000 0.000000 0.000000 0.000000 0.000000 0.110042
#
#
# Mechanical properties :
#
#
# Convention : Reuss Voigt Hill
#
# Bulk Modulus (GPa) = 56.19381 83.81565 70.00473
# Shear Modulus (GPa) = 11.84883 18.00486 14.92685
#
# Velocity S-wave (km/s) = 2.60666 3.21322 2.92570
# Velocity P-wave (km/s) = 6.42524 7.86321 7.18031
#
# Compressibility (1/GPa) = 0.01779555
#
# Stress axis : x y z
#
# Youngs Moduli (GPa) = 45.01124 82.71017 23.35210
#
# Poissons Ratio (x) = 0.38239 0.33984
# Poissons Ratio (y) = 0.20810 0.24499
# Poissons Ratio (z) = 0.65504 0.86771
#
# Static dielectric constant tensor:
#      x y z
#    x 1.616540 0.000000 0.000000 
#    y 0.000000 1.540550 0.000000 
#    z 0.000000 0.000000 1.584660 
# 
# From -- ./inp_files/7684.got.cif
#   From: 2010.05.17/outbox.cif.g08.bks.cpg/sg71_4_cif.got.tgz:7684.got - 2010.06.03 16:22:01.
