data_PCOD9521792
_publ_section_title
;
Structure prediction by ZEFSAII (Michael W. Deem and Ramdas Pophale) SiO2 
 PCOD9521792
Probable space group: I M M M
;
_chemical_formula_sum "Si O2"
_cell_formula_units_Z 116
_cell_length_a 7.654554
_cell_length_b 29.775256
_cell_length_c 26.216893
_cell_angle_alpha 90.000000
_cell_angle_beta 90.000000
_cell_angle_gamma 90.000000
_cell_volume 5975.257379
_symmetry_space_group_name_H-M "I M M M"
_symmetry_group_IT_number 71
_symmetry_cell_setting 'orthorhombic'
loop_
_space_group_symop_operation_xyz
x,y,z
-x,-y,z
x,-y,-z
-x,y,-z
-x,-y,-z
x,y,-z
-x,y,z
x,-y,z
1/2+x,1/2+y,1/2+z
1/2-x,1/2-y,1/2+z
1/2+x,1/2-y,1/2-z
1/2-x,1/2+y,1/2-z
1/2-x,1/2-y,1/2-z
1/2+x,1/2+y,1/2-z
1/2-x,1/2+y,1/2+z
1/2+x,1/2-y,1/2+z
loop_
_atom_site_type_symbol
_atom_site_label
_atom_site_fract_x
_atom_site_fract_y
_atom_site_fract_z
Si Si1 0.798774 0.132410 0.820982
Si Si2 0.212087 0.710026 0.882576
Si Si3 0.193137 0.690156 0.416123
Si Si4 0.286309 0.122286 0.557855
Si Si5 0.790201 0.551217 0.858228
Si Si6 0.208313 0.300561 0.232938
Si Si7 0.000000 0.179297 0.000000
Si Si8 0.710355 0.448894 0.742898
O O1 0.500000 0.185769 0.938406
O O2 0.707793 0.156852 0.867841
O O3 0.793867 0.165593 0.772477
O O4 0.723790 0.085710 0.799449
O O5 0.283648 0.758889 0.895671
O O6 0.264144 0.671687 0.922550
O O7 0.263862 0.694823 0.825777
O O8 0.000000 0.713529 0.883150
O O9 0.500000 0.625338 0.336150
O O10 0.346772 0.680952 0.455622
O O11 0.229561 0.113842 0.500000
O O12 0.500000 0.121448 0.558150
O O13 0.225829 0.085134 0.598517
O O14 0.723645 0.500000 0.863768
O O15 0.751939 0.566473 0.800525
O O16 0.000000 0.549594 0.863009
O O17 0.250000 0.250000 0.250000
O O18 0.000000 0.307735 0.235434
O O19 0.500000 0.449642 0.738909
O O20 0.775248 0.500000 0.737476
#
# Coordination Sequence:
#
# PCOD9521792 Si02
#       8
#    16  16  16  16  16  16   4  16
#     4  11  21  37  58  86 124 158 194 248 303 358
#     4  10  20  35  53  77 114 155 203 256 308 357
#     4  12  25  41  65  90 117 160 205 250 300 355
#     4   9  18  30  49  73 102 150 201 250 307 355
#     4   9  17  31  51  78 110 144 190 247 304 361
#     4  11  21  32  51  80 116 156 199 242 297 369
#     4  12  26  48  64  86 125 158 207 252 298 346
#     4   9  19  35  58  86 117 155 191 228 291 366
#
# _framework density 19.413391000000001
#
# number of rings (size 3 to 8) (size 9 to 14) (size 15 to 20)
#    0.000    1.793    2.759    1.862    0.966    3.034 
#    0.000    2.069    0.000    1.241    0.000    2.897 
#    0.000    1.103    0.000    0.000    0.000    0.000 
#
# Total GULP energy -323501.297854 kJ/mol
# GULP energy per Si atom -5577.608584 kJ/mol
# Density = 1.936920 g / cm^3
# Si number density = 19.413391 Si / 1000 Ang^3
#
#
#
# Elastic Constant Matrix: (Units=GPa)
#
#
# Indices 1 2 3 4 5 6 
#
# 1 85.2542 14.8459 36.9209 0.0000 0.0000 0.0000
# 2 14.8459 85.5657 67.9149 0.0000 0.0000 0.0000
# 3 36.9209 67.9149 139.4566 0.0000 0.0000 0.0000
# 4 0.0000 0.0000 0.0000 -10.4058 0.0000 0.0000
# 5 0.0000 0.0000 0.0000 0.0000 24.0710 0.0000
# 6 0.0000 0.0000 0.0000 0.0000 0.0000 0.6640
#
#
#
# Elastic Compliance Matrix: (Units=1/GPa)
#
#
# Indices 1 2 3 4 5 6 
#
# 1 0.013282 0.000793 -0.003903 0.000000 0.000000 0.000000
# 2 0.000793 0.019098 -0.009511 0.000000 0.000000 0.000000
# 3 -0.003903 -0.009511 0.012836 0.000000 0.000000 0.000000
# 4 0.000000 0.000000 0.000000 -0.096100 0.000000 0.000000
# 5 0.000000 0.000000 0.000000 0.000000 0.041544 0.000000
# 6 0.000000 0.000000 0.000000 0.000000 0.000000 1.505935
#
#
# Mechanical properties :
#
#
# Convention : Reuss Voigt Hill
#
# Bulk Modulus (GPa) = 50.06249 61.07108 55.56679
# Shear Modulus (GPa) = 3.27120 15.57217 9.42168
#
# Velocity S-wave (km/s) = 1.29949 2.83527 2.20538
# Velocity P-wave (km/s) = 5.30049 6.49961 5.93043
#
# Compressibility (1/GPa) = 0.01997503
#
# Stress axis : x y z
#
# Youngs Moduli (GPa) = 75.29233 52.36121 77.90871
#
# Poissons Ratio (x) = -0.04153 0.30404
# Poissons Ratio (y) = -0.05971 0.74096
# Poissons Ratio (z) = 0.29383 0.49799
#
# Static dielectric constant tensor:
#      x y z
#    x 1.729170 0.000000 0.000000 
#    y 0.000000 1.677140 0.000000 
#    z 0.000000 0.000000 1.647380 
# 
# From -- ./inp_files/64002.got.cif
#   From: 2010.05.17/outbox.cif.g08.bks.cpg/sg71_33_cif.got.tgz:64002.got - 2010.06.03 16:22:01.
