data_PCOD9521711
_publ_section_title
;
Structure prediction by ZEFSAII (Michael W. Deem and Ramdas Pophale) SiO2 
 PCOD9521711
Probable space group: I M M M
;
_chemical_formula_sum "Si O2"
_cell_formula_units_Z 120
_cell_length_a 29.083556
_cell_length_b 26.006099
_cell_length_c 8.076707
_cell_angle_alpha 90.000000
_cell_angle_beta 90.000000
_cell_angle_gamma 90.000000
_cell_volume 6108.816020
_symmetry_space_group_name_H-M "I M M M"
_symmetry_group_IT_number 71
_symmetry_cell_setting 'orthorhombic'
loop_
_space_group_symop_operation_xyz
x,y,z
-x,-y,z
x,-y,-z
-x,y,-z
-x,-y,-z
x,y,-z
-x,y,z
x,-y,z
1/2+x,1/2+y,1/2+z
1/2-x,1/2-y,1/2+z
1/2+x,1/2-y,1/2-z
1/2-x,1/2+y,1/2-z
1/2-x,1/2-y,1/2-z
1/2+x,1/2+y,1/2-z
1/2-x,1/2+y,1/2+z
1/2+x,1/2-y,1/2+z
loop_
_atom_site_type_symbol
_atom_site_label
_atom_site_fract_x
_atom_site_fract_y
_atom_site_fract_z
Si Si1 0.351627 0.443793 0.193677
Si Si2 0.948533 0.088444 0.805387
Si Si3 0.692089 0.144035 0.697321
Si Si4 0.617969 0.061437 0.304365
Si Si5 0.051338 0.205551 0.697039
Si Si6 0.854467 0.748594 0.799093
Si Si7 0.703604 0.654075 0.306704
Si Si8 0.552392 0.937601 0.000000
O O1 0.337664 0.500000 0.257740
O O2 0.406318 0.437785 0.214513
O O3 0.327172 0.396294 0.280484
O O4 0.340019 0.440884 0.000000
O O5 0.943038 0.149948 0.782646
O O6 0.000000 0.075099 0.746375
O O7 0.945555 0.076172 0.000000
O O8 0.689214 0.146809 0.500000
O O9 0.663595 0.093224 0.743319
O O10 0.666679 0.195119 0.762579
O O11 0.745551 0.145034 0.739598
O O12 0.606594 0.072169 0.500000
O O13 0.579399 0.076479 0.168972
O O14 0.625162 0.000000 0.292216
O O15 0.053208 0.196682 0.500000
O O16 0.093197 0.241719 0.746755
O O17 0.000000 0.224884 0.738620
O O18 0.823383 0.796383 0.736587
O O19 0.853600 0.748981 0.000000
O O20 0.708809 0.663884 0.500000
O O21 0.500000 0.918423 0.000000
O O22 0.550840 0.000000 0.000000
#
# Coordination Sequence:
#
# PCOD9521711 Si02
#       8
#    16  16  16  16  16  16  16   8
#     4  11  24  40  58  82 114 151 192 242 296 350
#     4  10  20  35  57  83 112 149 192 239 293 352
#     4  10  22  39  60  86 118 155 196 241 295 349
#     4   9  19  37  61  89 122 159 199 243 291 349
#     4  10  20  34  56  85 115 152 195 236 287 347
#     4  10  21  38  59  85 117 153 194 240 292 348
#     4  11  23  38  59  86 113 150 197 243 296 351
#     4   9  18  34  60  92 124 160 198 238 288 350
#
# _framework density 19.643740000000001
#
# number of rings (size 3 to 8) (size 9 to 14) (size 15 to 20)
#    0.000    1.933    1.333    2.000    0.933    4.800 
#    0.000    4.667    0.000    2.400    0.000    0.000 
#    0.000    0.000    0.000    0.000    0.000    0.000 
#
# Total GULP energy -334907.696727 kJ/mol
# GULP energy per Si atom -5581.794945 kJ/mol
# Density = 1.959903 g / cm^3
# Si number density = 19.643740 Si / 1000 Ang^3
#
#
#
# Elastic Constant Matrix: (Units=GPa)
#
#
# Indices 1 2 3 4 5 6 
#
# 1 140.8450 50.9238 26.0096 0.0000 0.0000 0.0000
# 2 50.9238 71.2333 16.4620 0.0000 0.0000 0.0000
# 3 26.0096 16.4620 37.9719 0.0000 0.0000 0.0000
# 4 0.0000 0.0000 0.0000 10.8242 0.0000 0.0000
# 5 0.0000 0.0000 0.0000 0.0000 32.8447 0.0000
# 6 0.0000 0.0000 0.0000 0.0000 0.0000 -1.8601
#
#
#
# Elastic Compliance Matrix: (Units=1/GPa)
#
#
# Indices 1 2 3 4 5 6 
#
# 1 0.010152 -0.006280 -0.004231 0.000000 0.000000 0.000000
# 2 -0.006280 0.019486 -0.004146 0.000000 0.000000 0.000000
# 3 -0.004231 -0.004146 0.031031 0.000000 0.000000 0.000000
# 4 0.000000 0.000000 0.000000 0.092386 0.000000 0.000000
# 5 0.000000 0.000000 0.000000 0.000000 0.030446 0.000000
# 6 0.000000 0.000000 0.000000 0.000000 0.000000 -0.537592
#
#
# Mechanical properties :
#
#
# Convention : Reuss Voigt Hill
#
# Bulk Modulus (GPa) = 31.89359 48.53787 40.21573
# Shear Modulus (GPa) = -15.90708 18.80541 1.44917
#
# Velocity S-wave (km/s) = -2.84875 3.09742 0.85984
# Velocity P-wave (km/s) = 2.33469 6.12819 4.63711
#
# Compressibility (1/GPa) = 0.03135427
#
# Stress axis : x y z
#
# Youngs Moduli (GPa) = 98.50447 51.31948 32.22571
#
# Poissons Ratio (x) = 0.32226 0.13636
# Poissons Ratio (y) = 0.61856 0.13362
# Poissons Ratio (z) = 0.41680 0.21279
#
# Static dielectric constant tensor:
#      x y z
#    x 1.672780 0.000000 0.000000 
#    y 0.000000 1.689910 0.000000 
#    z 0.000000 0.000000 1.694010 
# 
# From -- ./inp_files/15594.got.cif
#   From: 2010.05.17/outbox.cif.g08.bks.cpg/sg71_8_cif.got.tgz:15594.got - 2010.06.03 16:22:01.
