data_PCOD9521456
_publ_section_title
;
Structure prediction by ZEFSAII (Michael W. Deem and Ramdas Pophale) SiO2 
 PCOD9521456
Probable space group: I M M M
;
_chemical_formula_sum "Si O2"
_cell_formula_units_Z 104
_cell_length_a 21.579785
_cell_length_b 8.676183
_cell_length_c 29.644478
_cell_angle_alpha 90.000000
_cell_angle_beta 90.000000
_cell_angle_gamma 90.000000
_cell_volume 5550.340471
_symmetry_space_group_name_H-M "I M M M"
_symmetry_group_IT_number 71
_symmetry_cell_setting 'orthorhombic'
loop_
_space_group_symop_operation_xyz
x,y,z
-x,-y,z
x,-y,-z
-x,y,-z
-x,-y,-z
x,y,-z
-x,y,z
x,-y,z
1/2+x,1/2+y,1/2+z
1/2-x,1/2-y,1/2+z
1/2+x,1/2-y,1/2-z
1/2-x,1/2+y,1/2-z
1/2-x,1/2-y,1/2-z
1/2+x,1/2+y,1/2-z
1/2-x,1/2+y,1/2+z
1/2+x,1/2-y,1/2+z
loop_
_atom_site_type_symbol
_atom_site_label
_atom_site_fract_x
_atom_site_fract_y
_atom_site_fract_z
Si Si1 0.000000 0.326192 0.054348
Si Si2 0.267640 0.823017 0.617545
Si Si3 0.928505 0.820980 0.585679
Si Si4 0.368724 0.316749 0.552044
Si Si5 0.817236 0.327469 0.449041
Si Si6 0.795774 0.186855 0.711452
Si Si7 0.071829 0.685792 0.686757
O O1 0.062864 0.238663 0.065547
O O2 0.000000 0.500000 0.072467
O O3 0.000000 0.335038 0.000000
O O4 0.322583 0.738167 0.591078
O O5 0.212777 0.800864 0.581890
O O6 0.238579 0.766559 0.664564
O O7 0.285566 0.000000 0.623745
O O8 0.889139 0.709216 0.554383
O O9 0.922362 0.760981 0.637105
O O10 0.000000 0.813777 0.573486
O O11 0.909338 0.000000 0.582971
O O12 0.355905 0.259255 0.500000
O O13 0.366308 0.500000 0.549691
O O14 0.794584 0.318730 0.500000
O O15 0.803414 0.500000 0.431962
O O16 0.750000 0.250000 0.750000
O O17 0.866548 0.252570 0.712667
O O18 0.799336 0.000000 0.712785
O O19 0.075921 0.500000 0.683973
O O20 0.000000 0.721646 0.702476
#
# Coordination Sequence:
#
# PCOD9521456 Si02
#       7
#     8  16  16  16  16  16  16
#     4   9  17  31  53  81 113 151 195 239 283 337
#     4  11  23  38  57  83 114 150 191 236 288 343
#     4  10  20  34  53  78 109 148 194 240 286 336
#     4  10  20  34  55  84 117 154 195 238 286 342
#     4  11  23  36  52  77 111 152 195 238 286 338
#     4  11  24  41  64  92 120 153 194 242 297 355
#     4  10  20  36  62  92 120 153 193 240 293 349
#
# _framework density 18.737590000000001
#
# number of rings (size 3 to 8) (size 9 to 14) (size 15 to 20)
#    0.000    1.615    1.538    3.462    0.000    8.923 
#    0.000    1.538    1.692    0.000    0.000    0.000 
#    0.000    0.000    0.000    0.000    0.000    0.000 
#
# Total GULP energy -289859.457140 kJ/mol
# GULP energy per Si atom -5574.220330 kJ/mol
# Density = 1.869494 g / cm^3
# Si number density = 18.737590 Si / 1000 Ang^3
#
#
#
# Elastic Constant Matrix: (Units=GPa)
#
#
# Indices 1 2 3 4 5 6 
#
# 1 144.1625 37.6493 47.4507 0.0000 0.0000 0.0000
# 2 37.6493 50.3082 18.8551 0.0000 0.0000 0.0000
# 3 47.4507 18.8551 64.9731 0.0000 0.0000 0.0000
# 4 0.0000 0.0000 0.0000 19.7422 0.0000 0.0000
# 5 0.0000 0.0000 0.0000 0.0000 31.9722 0.0000
# 6 0.0000 0.0000 0.0000 0.0000 0.0000 28.6247
#
#
#
# Elastic Compliance Matrix: (Units=1/GPa)
#
#
# Indices 1 2 3 4 5 6 
#
# 1 0.010332 -0.005502 -0.005948 0.000000 0.000000 0.000000
# 2 -0.005502 0.025234 -0.003304 0.000000 0.000000 0.000000
# 3 -0.005948 -0.003304 0.020694 0.000000 0.000000 0.000000
# 4 0.000000 0.000000 0.000000 0.050653 0.000000 0.000000
# 5 0.000000 0.000000 0.000000 0.000000 0.031277 0.000000
# 6 0.000000 0.000000 0.000000 0.000000 0.000000 0.034935
#
#
# Mechanical properties :
#
#
# Convention : Reuss Voigt Hill
#
# Bulk Modulus (GPa) = 37.38452 51.92824 44.65638
# Shear Modulus (GPa) = 23.63496 26.43374 25.03435
#
# Velocity S-wave (km/s) = 3.55542 3.76005 3.65917
# Velocity P-wave (km/s) = 6.07039 6.82819 6.46041
#
# Compressibility (1/GPa) = 0.02674904
#
# Stress axis : x y z
#
# Youngs Moduli (GPa) = 96.79098 39.62945 48.32290
#
# Poissons Ratio (x) = 0.21806 0.28745
# Poissons Ratio (y) = 0.53258 0.15967
# Poissons Ratio (z) = 0.57576 0.13095
#
# Static dielectric constant tensor:
#      x y z
#    x 1.727960 0.000000 0.000000 
#    y 0.000000 1.655590 0.000000 
#    z 0.000000 0.000000 1.637380 
# 
# From -- ./inp_files/11096.got.cif
#   From: 2010.05.17/outbox.cif.g08.bks.cpg/sg71_6_cif.got.tgz:11096.got - 2010.06.03 16:22:01.
