data_PCOD9521210
_publ_section_title
;
Structure prediction by ZEFSAII (Michael W. Deem and Ramdas Pophale) SiO2 
 PCOD9521210
Probable space group: I M M M
;
_chemical_formula_sum "Si O2"
_cell_formula_units_Z 120
_cell_length_a 26.188662
_cell_length_b 7.504536
_cell_length_c 27.443278
_cell_angle_alpha 90.000000
_cell_angle_beta 90.000000
_cell_angle_gamma 90.000000
_cell_volume 5393.530523
_symmetry_space_group_name_H-M "I M M M"
_symmetry_group_IT_number 71
_symmetry_cell_setting 'orthorhombic'
loop_
_space_group_symop_operation_xyz
x,y,z
-x,-y,z
x,-y,-z
-x,y,-z
-x,-y,-z
x,y,-z
-x,y,z
x,-y,z
1/2+x,1/2+y,1/2+z
1/2-x,1/2-y,1/2+z
1/2+x,1/2-y,1/2-z
1/2-x,1/2+y,1/2-z
1/2-x,1/2-y,1/2-z
1/2+x,1/2+y,1/2-z
1/2-x,1/2+y,1/2+z
1/2+x,1/2-y,1/2+z
loop_
_atom_site_type_symbol
_atom_site_label
_atom_site_fract_x
_atom_site_fract_y
_atom_site_fract_z
Si Si1 0.705554 0.787609 0.787879
Si Si2 0.441946 0.787307 0.000000
Si Si3 0.150170 0.289464 0.879831
Si Si4 0.127059 0.788642 0.406921
Si Si5 0.890288 0.800906 0.226449
Si Si6 0.236639 0.202921 0.604460
Si Si7 0.556428 0.782555 0.556589
Si Si8 0.442780 0.718464 0.181916
O O1 0.750000 0.750000 0.750000
O O2 0.656216 0.700021 0.764539
O O3 0.721587 0.704376 0.838703
O O4 0.698286 0.000000 0.793259
O O5 0.410579 0.733456 0.952175
O O6 0.500000 0.717117 0.000000
O O7 0.444614 0.000000 0.000000
O O8 0.154022 0.500000 0.889400
O O9 0.133080 0.275192 0.823325
O O10 0.206175 0.215663 0.894393
O O11 0.103633 0.216881 0.911807
O O12 0.184309 0.715867 0.417507
O O13 0.098657 0.719251 0.358143
O O14 0.134211 0.000000 0.399056
O O15 0.932697 0.718659 0.262405
O O16 0.906900 0.000000 0.213539
O O17 0.241304 0.000000 0.585535
O O18 0.561821 0.733264 0.500000
O O19 0.500000 0.725992 0.573716
O O20 0.556726 0.000000 0.558544
O O21 0.500000 0.767206 0.166247
O O22 0.440402 0.500000 0.183075
#
# Coordination Sequence:
#
# PCOD9521210 Si02
#       8
#    16   8  16  16  16  16  16  16
#     4  12  22  33  53  78 108 149 191 228 268 322
#     4  11  25  43  61  85 115 145 186 241 294 342
#     4  10  20  33  53  84 116 146 183 228 281 334
#     4  10  20  38  62  84 108 144 191 236 280 339
#     4  11  21  34  52  78 113 149 187 228 276 329
#     4  10  20  35  54  82 114 144 183 232 281 336
#     4   8  15  31  55  81 109 144 188 234 277 326
#     4   9  18  33  54  79 107 142 188 237 278 324
#
# _framework density 22.248877
#
# number of rings (size 3 to 8) (size 9 to 14) (size 15 to 20)
#    0.000    1.933    2.667    2.600    0.000    2.133 
#    1.200    0.000    0.000    2.400    0.000    0.933 
#    0.000    0.000    0.000    0.000    0.000    0.000 
#
# Total GULP energy -334623.980244 kJ/mol
# GULP energy per Si atom -5577.066337 kJ/mol
# Density = 2.219824 g / cm^3
# Si number density = 22.248877 Si / 1000 Ang^3
#
#
#
# Elastic Constant Matrix: (Units=GPa)
#
#
# Indices 1 2 3 4 5 6 
#
# 1 209.7766 5.1513 85.4715 0.0000 0.0000 0.0000
# 2 5.1513 77.1768 -5.5210 0.0000 0.0000 0.0000
# 3 85.4715 -5.5210 69.7776 0.0000 0.0000 0.0000
# 4 0.0000 0.0000 0.0000 7.2463 0.0000 0.0000
# 5 0.0000 0.0000 0.0000 0.0000 41.7763 0.0000
# 6 0.0000 0.0000 0.0000 0.0000 0.0000 1.3386
#
#
#
# Elastic Compliance Matrix: (Units=1/GPa)
#
#
# Indices 1 2 3 4 5 6 
#
# 1 0.009687 -0.001504 -0.011985 0.000000 0.000000 0.000000
# 2 -0.001504 0.013265 0.002892 0.000000 0.000000 0.000000
# 3 -0.011985 0.002892 0.029240 0.000000 0.000000 0.000000
# 4 0.000000 0.000000 0.000000 0.138001 0.000000 0.000000
# 5 0.000000 0.000000 0.000000 0.000000 0.023937 0.000000
# 6 0.000000 0.000000 0.000000 0.000000 0.000000 0.747022
#
#
# Mechanical properties :
#
#
# Convention : Reuss Voigt Hill
#
# Bulk Modulus (GPa) = 32.26023 58.54828 45.40425
# Shear Modulus (GPa) = 5.03688 28.18087 16.60887
#
# Velocity S-wave (km/s) = 1.50625 3.56282 2.73519
# Velocity P-wave (km/s) = 4.19002 6.58006 5.51604
#
# Compressibility (1/GPa) = 0.03099792
#
# Stress axis : x y z
#
# Youngs Moduli (GPa) = 103.23172 75.38912 34.19948
#
# Poissons Ratio (x) = 0.11338 0.40987
# Poissons Ratio (y) = 0.15525 -0.09889
# Poissons Ratio (z) = 1.23720 -0.21800
#
# Static dielectric constant tensor:
#      x y z
#    x 1.869250 0.000000 0.000000 
#    y 0.000000 1.888350 0.000000 
#    z 0.000000 0.000000 1.790120 
# 
# From -- ./inp_files/67151.got.cif
#   From: 2010.05.17/outbox.cif.g08.bks.cpg/sg71_34_cif.got.tgz:67151.got - 2010.06.03 16:22:01.
