data_PCOD9521763
_publ_section_title
;
Structure prediction by ZEFSAII (Michael W. Deem and Ramdas Pophale) SiO2 
 PCOD9521763
Probable space group: I M M M
;
_chemical_formula_sum "Si O2"
_cell_formula_units_Z 96
_cell_length_a 7.344772
_cell_length_b 25.804773
_cell_length_c 23.084180
_cell_angle_alpha 90.000000
_cell_angle_beta 90.000000
_cell_angle_gamma 90.000000
_cell_volume 4375.148657
_symmetry_space_group_name_H-M "I M M M"
_symmetry_group_IT_number 71
_symmetry_cell_setting 'orthorhombic'
loop_
_space_group_symop_operation_xyz
x,y,z
-x,-y,z
x,-y,-z
-x,y,-z
-x,-y,-z
x,y,-z
-x,y,z
x,-y,z
1/2+x,1/2+y,1/2+z
1/2-x,1/2-y,1/2+z
1/2+x,1/2-y,1/2-z
1/2-x,1/2+y,1/2-z
1/2-x,1/2-y,1/2-z
1/2+x,1/2+y,1/2-z
1/2-x,1/2+y,1/2+z
1/2+x,1/2-y,1/2+z
loop_
_atom_site_type_symbol
_atom_site_label
_atom_site_fract_x
_atom_site_fract_y
_atom_site_fract_z
Si Si1 0.277869 0.442635 0.901546
Si Si2 0.778739 0.086444 0.726165
Si Si3 0.778421 0.056834 0.142899
Si Si4 0.281881 0.740586 0.500000
Si Si5 0.277658 0.333806 0.602580
Si Si6 0.717087 0.364165 0.000000
Si Si7 0.715767 0.692744 0.269953
O O1 0.500000 0.441014 0.900893
O O2 0.226548 0.500000 0.923142
O O3 0.217739 0.437035 0.834628
O O4 0.216963 0.395889 0.943298
O O5 0.723248 0.064602 0.789324
O O6 0.721223 0.146692 0.728540
O O7 0.000000 0.081821 0.725636
O O8 0.722704 0.105584 0.103296
O O9 0.000000 0.057724 0.143600
O O10 0.719991 0.000000 0.123382
O O11 0.500000 0.736964 0.500000
O O12 0.215625 0.707153 0.445067
O O13 0.246507 0.802211 0.500000
O O14 0.500000 0.333570 0.600216
O O15 0.215328 0.314940 0.665417
O O16 0.500000 0.370158 0.000000
O O17 0.500000 0.685015 0.273563
O O18 0.750000 0.750000 0.250000
#
# Coordination Sequence:
#
# PCOD9521763 Si02
#       7
#    16  16  16   8  16   8  16
#     4   9  16  27  43  64  91 118 143 180 233 279
#     4   8  14  23  38  62  89 116 143 174 222 277
#     4   8  12  21  39  63  90 116 143 180 225 270
#     4  10  20  35  50  61  88 132 163 182 218 272
#     4   8  16  29  43  62  88 121 155 185 219 265
#     4  10  21  32  46  69  91 113 151 200 232 258
#     4   9  17  28  43  64  91 118 147 184 222 264
#
# _framework density 21.942112000000002
#
# number of rings (size 3 to 8) (size 9 to 14) (size 15 to 20)
#    0.000    3.333    0.000    2.750    2.333    3.000 
#    0.000    0.417    0.000    3.500    0.000    0.000 
#    0.000   22.667    0.000    0.000    0.000    0.000 
#
# Total GULP energy -267550.416284 kJ/mol
# GULP energy per Si atom -5573.967006 kJ/mol
# Density = 2.189217 g / cm^3
# Si number density = 21.942112 Si / 1000 Ang^3
#
#
#
# Elastic Constant Matrix: (Units=GPa)
#
#
# Indices 1 2 3 4 5 6 
#
# 1 78.9411 -2.3717 4.4691 0.0000 0.0000 0.0000
# 2 -2.3717 228.5663 84.2401 0.0000 0.0000 0.0000
# 3 4.4691 84.2401 95.0977 0.0000 0.0000 0.0000
# 4 0.0000 0.0000 0.0000 25.7437 0.0000 0.0000
# 5 0.0000 0.0000 0.0000 0.0000 -13.1937 0.0000
# 6 0.0000 0.0000 0.0000 0.0000 0.0000 9.9378
#
#
#
# Elastic Compliance Matrix: (Units=1/GPa)
#
#
# Indices 1 2 3 4 5 6 
#
# 1 0.012744 0.000524 -0.001063 0.000000 0.000000 0.000000
# 2 0.000524 0.006517 -0.005798 0.000000 0.000000 0.000000
# 3 -0.001063 -0.005798 0.015701 0.000000 0.000000 0.000000
# 4 0.000000 0.000000 0.000000 0.038844 0.000000 0.000000
# 5 0.000000 0.000000 0.000000 0.000000 -0.075794 0.000000
# 6 0.000000 0.000000 0.000000 0.000000 0.000000 0.100626
#
#
# Mechanical properties :
#
#
# Convention : Reuss Voigt Hill
#
# Bulk Modulus (GPa) = 44.86624 63.92002 54.39313
# Shear Modulus (GPa) = 42.10788 25.58206 33.84497
#
# Velocity S-wave (km/s) = 4.38544 3.41822 3.93169
# Velocity P-wave (km/s) = 6.79226 6.69129 6.74196
#
# Compressibility (1/GPa) = 0.02228847
#
# Stress axis : x y z
#
# Youngs Moduli (GPa) = 78.47078 153.43504 63.68844
#
# Poissons Ratio (x) = -0.08041 0.06771
# Poissons Ratio (y) = -0.04112 0.36926
# Poissons Ratio (z) = 0.08342 0.88961
#
# Static dielectric constant tensor:
#      x y z
#    x 1.902230 0.000000 0.000000 
#    y 0.000000 1.718420 0.000000 
#    z 0.000000 0.000000 1.777390 
# 
# From -- ./inp_files/59109.got.cif
#   From: 2010.05.17/outbox.cif.g08.bks.cpg/sg71_30_cif.got.tgz:59109.got - 2010.06.03 16:22:01.
