data_PCOD9521940
_publ_section_title
;
Structure prediction by ZEFSAII (Michael W. Deem and Ramdas Pophale) SiO2 
 PCOD9521940
Probable space group: I M M M
;
_chemical_formula_sum "Si O2"
_cell_formula_units_Z 116
_cell_length_a 27.745971
_cell_length_b 28.972642
_cell_length_c 8.001755
_cell_angle_alpha 90.000000
_cell_angle_beta 90.000000
_cell_angle_gamma 90.000000
_cell_volume 6432.403477
_symmetry_space_group_name_H-M "I M M M"
_symmetry_group_IT_number 71
_symmetry_cell_setting 'orthorhombic'
loop_
_space_group_symop_operation_xyz
x,y,z
-x,-y,z
x,-y,-z
-x,y,-z
-x,-y,-z
x,y,-z
-x,y,z
x,-y,z
1/2+x,1/2+y,1/2+z
1/2-x,1/2-y,1/2+z
1/2+x,1/2-y,1/2-z
1/2-x,1/2+y,1/2-z
1/2-x,1/2-y,1/2-z
1/2+x,1/2+y,1/2-z
1/2-x,1/2+y,1/2+z
1/2+x,1/2-y,1/2+z
loop_
_atom_site_type_symbol
_atom_site_label
_atom_site_fract_x
_atom_site_fract_y
_atom_site_fract_z
Si Si1 0.854596 0.851619 0.695632
Si Si2 0.257008 0.697266 0.304188
Si Si3 0.335767 0.854423 0.694616
Si Si4 0.797029 0.448572 0.202464
Si Si5 0.185599 0.051892 0.800983
Si Si6 0.000000 0.325967 0.000000
Si Si7 0.071457 0.694694 0.311383
Si Si8 0.445160 0.703143 0.697118
O O1 0.855858 0.842053 0.500000
O O2 0.810397 0.822045 0.770704
O O3 0.843127 0.905436 0.724733
O O4 0.905126 0.835294 0.771683
O O5 0.247063 0.693037 0.500000
O O6 0.250000 0.750000 0.250000
O O7 0.217411 0.667042 0.209104
O O8 0.349367 0.855379 0.500000
O O9 0.330712 0.906825 0.759132
O O10 0.374347 0.823748 0.790193
O O11 0.812329 0.500000 0.253951
O O12 0.742379 0.441482 0.263889
O O13 0.795558 0.447049 0.000000
O O14 0.172997 0.000000 0.740799
O O15 0.178889 0.053237 0.000000
O O16 0.958764 0.323866 0.847815
O O17 0.055068 0.682464 0.500000
O O18 0.068596 0.750102 0.292814
O O19 0.445527 0.715009 0.500000
O O20 0.500000 0.689787 0.742427
#
# Coordination Sequence:
#
# PCOD9521940 Si02
#       8
#    16  16  16  16  16   4  16  16
#     4  12  24  37  56  84 114 155 196 236 295 353
#     4  12  24  38  53  76 114 157 196 234 283 353
#     4  11  21  36  56  85 122 154 193 241 296 352
#     4   9  18  33  56  83 115 154 191 234 288 349
#     4  10  20  35  56  82 112 149 193 241 291 347
#     4  12  22  44  60  90 121 154 207 252 298 340
#     4  12  23  39  63  89 119 159 200 249 302 351
#     4  11  22  41  62  85 116 150 196 251 300 348
#
# _framework density 18.033693
#
# number of rings (size 3 to 8) (size 9 to 14) (size 15 to 20)
#    0.000    0.966    3.448    4.759    0.000    2.207 
#    0.000    0.000    0.000    0.414    0.000    3.862 
#    0.000    1.103    0.000    0.000    0.000    0.000 
#
# Total GULP energy -323409.004192 kJ/mol
# GULP energy per Si atom -5576.017314 kJ/mol
# Density = 1.799265 g / cm^3
# Si number density = 18.033693 Si / 1000 Ang^3
#
#
#
# Elastic Constant Matrix: (Units=GPa)
#
#
# Indices 1 2 3 4 5 6 
#
# 1 104.6846 52.3260 15.0127 0.0000 0.0000 0.0000
# 2 52.3260 90.2595 12.5656 0.0000 0.0000 0.0000
# 3 15.0127 12.5656 83.4182 0.0000 0.0000 0.0000
# 4 0.0000 0.0000 0.0000 17.6254 0.0000 0.0000
# 5 0.0000 0.0000 0.0000 0.0000 23.9900 0.0000
# 6 0.0000 0.0000 0.0000 0.0000 0.0000 30.4174
#
#
#
# Elastic Compliance Matrix: (Units=1/GPa)
#
#
# Indices 1 2 3 4 5 6 
#
# 1 0.013584 -0.007696 -0.001285 0.000000 0.000000 0.000000
# 2 -0.007696 0.015677 -0.000976 0.000000 0.000000 0.000000
# 3 -0.001285 -0.000976 0.012366 0.000000 0.000000 0.000000
# 4 0.000000 0.000000 0.000000 0.056736 0.000000 0.000000
# 5 0.000000 0.000000 0.000000 0.000000 0.041684 0.000000
# 6 0.000000 0.000000 0.000000 0.000000 0.000000 0.032876
#
#
# Mechanical properties :
#
#
# Convention : Reuss Voigt Hill
#
# Bulk Modulus (GPa) = 46.05935 48.68566 47.37250
# Shear Modulus (GPa) = 24.99066 27.63711 26.31388
#
# Velocity S-wave (km/s) = 3.72664 3.91900 3.82403
# Velocity P-wave (km/s) = 6.64178 6.89447 6.76931
#
# Compressibility (1/GPa) = 0.02171112
#
# Stress axis : x y z
#
# Youngs Moduli (GPa) = 73.61850 63.78944 80.86562
#
# Poissons Ratio (x) = 0.49091 0.10394
# Poissons Ratio (y) = 0.56655 0.07896
# Poissons Ratio (z) = 0.09463 0.06228
#
# Static dielectric constant tensor:
#      x y z
#    x 1.613590 0.000000 0.000000 
#    y 0.000000 1.634380 0.000000 
#    z 0.000000 0.000000 1.642390 
# 
# From -- ./inp_files/15657.got.cif
#   From: 2010.05.17/outbox.cif.g08.bks.cpg/sg71_8_cif.got.tgz:15657.got - 2010.06.03 16:22:01.
