data_PCOD9521264
_publ_section_title
;
Structure prediction by ZEFSAII (Michael W. Deem and Ramdas Pophale) SiO2 
 PCOD9521264
Probable space group: I M M M
;
_chemical_formula_sum "Si O2"
_cell_formula_units_Z 112
_cell_length_a 13.548186
_cell_length_b 31.599401
_cell_length_c 14.831154
_cell_angle_alpha 90.000000
_cell_angle_beta 90.000000
_cell_angle_gamma 90.000000
_cell_volume 6349.433002
_symmetry_space_group_name_H-M "I M M M"
_symmetry_group_IT_number 71
_symmetry_cell_setting 'orthorhombic'
loop_
_space_group_symop_operation_xyz
x,y,z
-x,-y,z
x,-y,-z
-x,y,-z
-x,-y,-z
x,y,-z
-x,y,z
x,-y,z
1/2+x,1/2+y,1/2+z
1/2-x,1/2-y,1/2+z
1/2+x,1/2-y,1/2-z
1/2-x,1/2+y,1/2-z
1/2-x,1/2-y,1/2-z
1/2+x,1/2+y,1/2-z
1/2-x,1/2+y,1/2+z
1/2+x,1/2-y,1/2+z
loop_
_atom_site_type_symbol
_atom_site_label
_atom_site_fract_x
_atom_site_fract_y
_atom_site_fract_z
Si Si1 0.115439 0.797134 0.894902
Si Si2 0.181230 0.452178 0.107233
Si Si3 0.108925 0.913429 0.605879
Si Si4 0.803669 0.751410 0.604409
Si Si5 0.382991 0.157466 0.098580
Si Si6 0.680022 0.332998 0.788047
Si Si7 0.112823 0.628147 0.213660
O O1 0.186327 0.756394 0.884817
O O2 0.153534 0.829346 0.817793
O O3 0.000000 0.788716 0.880505
O O4 0.127707 0.810982 0.000000
O O5 0.154588 0.500000 0.132453
O O6 0.298230 0.443918 0.122642
O O7 0.125727 0.415804 0.161867
O O8 0.163212 0.447075 0.000000
O O9 0.114997 0.901387 0.500000
O O10 0.123090 0.871555 0.665609
O O11 0.000000 0.931900 0.621417
O O12 0.824794 0.761755 0.500000
O O13 0.846852 0.704707 0.622803
O O14 0.843872 0.787647 0.668454
O O15 0.500000 0.160832 0.091067
O O16 0.366755 0.124803 0.179084
O O17 0.342124 0.146331 0.000000
O O18 0.795254 0.341947 0.812579
O O19 0.000000 0.643759 0.201145
#
# Coordination Sequence:
#
# PCOD9521264 Si02
#       7
#    16  16  16  16  16  16  16
#     4  10  21  34  47  66  94 131 175 217 256 301
#     4   9  19  36  56  78 105 135 166 200 242 301
#     4   9  18  32  51  78 107 132 164 209 259 304
#     4  10  20  34  49  69  96 132 176 217 254 296
#     4   9  18  33  52  73  96 126 167 212 254 294
#     4  11  20  33  50  72 100 138 172 215 258 298
#     4  10  21  34  52  76 101 130 168 208 253 303
#
# _framework density 17.63937
#
# number of rings (size 3 to 8) (size 9 to 14) (size 15 to 20)
#    0.000    2.286    1.429    1.286    0.000    3.143 
#    0.000    3.571    0.000    0.429    0.000    2.000 
#    0.000    0.000    0.000   15.143    0.000    0.286 
#
# Total GULP energy -311845.243882 kJ/mol
# GULP energy per Si atom -5568.665069 kJ/mol
# Density = 1.759922 g / cm^3
# Si number density = 17.639370 Si / 1000 Ang^3
#
#
#
# Elastic Constant Matrix: (Units=GPa)
#
#
# Indices 1 2 3 4 5 6 
#
# 1 37.2286 -12.3089 4.0999 0.0000 0.0000 0.0000
# 2 -12.3089 49.5675 44.4820 0.0001 0.0000 0.0000
# 3 4.0999 44.4820 59.7080 0.0007 -0.0002 0.0000
# 4 0.0000 0.0001 0.0007 17.8524 -0.0001 0.0000
# 5 0.0000 0.0000 -0.0002 -0.0001 22.6564 0.0000
# 6 0.0000 0.0000 0.0000 0.0000 0.0000 4.2320
#
#
#
# Elastic Compliance Matrix: (Units=1/GPa)
#
#
# Indices 1 2 3 4 5 6 
#
# 1 0.044286 0.041414 -0.033894 0.000001 0.000000 0.000000
# 2 0.041414 0.099596 -0.077042 0.000003 -0.000001 -0.000001
# 3 -0.033894 -0.077042 0.076471 -0.000003 0.000001 0.000001
# 4 0.000001 0.000003 -0.000003 0.056015 0.000000 0.000000
# 5 0.000000 -0.000001 0.000001 0.000000 0.044138 0.000000
# 6 0.000000 -0.000001 0.000001 0.000000 0.000000 0.236297
#
#
# Mechanical properties :
#
#
# Convention : Reuss Voigt Hill
#
# Bulk Modulus (GPa) = 12.29868 24.33890 18.31879
# Shear Modulus (GPa) = 6.91610 16.29689 11.60650
#
# Velocity S-wave (km/s) = 1.98226 3.04286 2.56791
# Velocity P-wave (km/s) = 3.49665 5.11599 4.38177
#
# Compressibility (1/GPa) = 0.08130955
#
# Stress axis : x y z
#
# Youngs Moduli (GPa) = 22.58035 10.04052 13.07681
#
# Poissons Ratio (x) = -0.41582 0.44322
# Poissons Ratio (y) = -0.93514 1.00747
# Poissons Ratio (z) = 0.76534 0.77354
#
# Static dielectric constant tensor:
#      x y z
#    x 1.661680 0.000000 0.000000 
#    y 0.000000 1.551370 0.000000 
#    z 0.000000 0.000000 1.646160 
# 
# From -- ./inp_files/35358.got.cif
#   From: 2010.05.17/outbox.cif.g08.bks.cpg/sg71_18_cif.got.tgz:35358.got - 2010.06.03 16:22:01.
