data_PCOD9521363
_publ_section_title
;
Structure prediction by ZEFSAII (Michael W. Deem and Ramdas Pophale) SiO2 
 PCOD9521363
Probable space group: I M M M
;
_chemical_formula_sum "Si O2"
_cell_formula_units_Z 80
_cell_length_a 7.450746
_cell_length_b 27.245524
_cell_length_c 17.809500
_cell_angle_alpha 90.000000
_cell_angle_beta 90.000000
_cell_angle_gamma 90.000000
_cell_volume 3615.319221
_symmetry_space_group_name_H-M "I M M M"
_symmetry_group_IT_number 71
_symmetry_cell_setting 'orthorhombic'
loop_
_space_group_symop_operation_xyz
x,y,z
-x,-y,z
x,-y,-z
-x,y,-z
-x,-y,-z
x,y,-z
-x,y,z
x,-y,z
1/2+x,1/2+y,1/2+z
1/2-x,1/2-y,1/2+z
1/2+x,1/2-y,1/2-z
1/2-x,1/2+y,1/2-z
1/2-x,1/2-y,1/2-z
1/2+x,1/2+y,1/2-z
1/2-x,1/2+y,1/2+z
1/2+x,1/2-y,1/2+z
loop_
_atom_site_type_symbol
_atom_site_label
_atom_site_fract_x
_atom_site_fract_y
_atom_site_fract_z
Si Si1 0.710746 0.821935 0.417437
Si Si2 0.280945 0.000000 0.586276
Si Si3 0.719334 0.943016 0.000000
Si Si4 0.212618 0.273504 0.331611
Si Si5 0.280880 0.908134 0.313526
Si Si6 0.280319 0.114644 0.149297
O O1 0.788872 0.830427 0.500000
O O2 0.500000 0.833689 0.422209
O O3 0.725325 0.765848 0.392567
O O4 0.780946 0.857585 0.352422
O O5 0.224880 0.952302 0.632824
O O6 0.500000 0.000000 0.584561
O O7 0.220993 0.000000 0.500000
O O8 0.776933 0.913947 0.074811
O O9 0.500000 0.943047 0.000000
O O10 0.775284 0.000000 0.000000
O O11 0.250000 0.250000 0.250000
O O12 0.280938 0.328630 0.344619
O O13 0.000000 0.276893 0.337651
O O14 0.500000 0.908345 0.311471
O O15 0.224269 0.910924 0.227182
O O16 0.500000 0.115077 0.147972
#
# Coordination Sequence:
#
# PCOD9521363 Si02
#       6
#    16   8   8  16  16  16
#     4  10  20  34  52  76 109 144 178 216 264 319
#     4   9  16  24  40  67  96 126 164 208 259 315
#     4   9  18  30  46  70 103 139 175 218 273 330
#     4  11  21  35  54  76 107 143 183 224 270 323
#     4   9  16  28  45  67  98 135 170 210 262 314
#     4   9  18  30  45  67  98 135 171 212 264 318
#
# _framework density 22.128060000000001
#
# number of rings (size 3 to 8) (size 9 to 14) (size 15 to 20)
#    0.000    2.400    2.000    1.200    2.800    2.800 
#    0.000    0.000    0.000    0.000    0.000    0.700 
#    0.000    8.000    0.000    0.000    0.000    0.000 
#
# Total GULP energy -223411.557405 kJ/mol
# GULP energy per Si atom -5585.288935 kJ/mol
# Density = 2.207770 g / cm^3
# Si number density = 22.128060 Si / 1000 Ang^3
#
#
#
# Elastic Constant Matrix: (Units=GPa)
#
#
# Indices 1 2 3 4 5 6 
#
# 1 62.6317 -5.3926 4.4605 0.0000 0.0000 0.0000
# 2 -5.3926 166.8326 113.7077 0.0000 0.0000 0.0000
# 3 4.4605 113.7077 240.7589 0.0001 0.0000 0.0000
# 4 0.0000 0.0000 0.0001 33.2244 0.0000 0.0000
# 5 0.0000 0.0000 0.0000 0.0000 -2.2525 0.0000
# 6 0.0000 0.0000 0.0000 0.0000 0.0000 11.1720
#
#
#
# Elastic Compliance Matrix: (Units=1/GPa)
#
#
# Indices 1 2 3 4 5 6 
#
# 1 0.016116 0.001068 -0.000803 0.000000 0.000000 0.000000
# 2 0.001068 0.008910 -0.004228 0.000000 0.000000 0.000000
# 3 -0.000803 -0.004228 0.006165 0.000000 0.000000 0.000000
# 4 0.000000 0.000000 0.000000 0.030098 0.000000 0.000000
# 5 0.000000 0.000000 0.000000 0.000000 -0.443952 0.000000
# 6 0.000000 0.000000 0.000000 0.000000 0.000000 0.089509
#
#
# Mechanical properties :
#
#
# Convention : Reuss Voigt Hill
#
# Bulk Modulus (GPa) = 42.98239 77.30830 60.14534
# Shear Modulus (GPa) = -18.01978 32.25863 7.11942
#
# Velocity S-wave (km/s) = -2.85676 3.82228 1.79565
# Velocity P-wave (km/s) = 2.93003 7.38189 5.61594
#
# Compressibility (1/GPa) = 0.02326534
#
# Stress axis : x y z
#
# Youngs Moduli (GPa) = 62.05199 112.23066 162.19962
#
# Poissons Ratio (x) = -0.11989 0.13026
# Poissons Ratio (y) = -0.06629 0.68578
# Poissons Ratio (z) = 0.04983 0.47451
#
# Static dielectric constant tensor:
#      x y z
#    x 1.831590 0.000000 0.000000 
#    y 0.000000 1.786440 0.000000 
#    z 0.000000 0.000000 1.779160 
# 
# From -- ./inp_files/42252.got.cif
#   From: 2010.05.17/outbox.cif.g08.bks.cpg/sg71_22_cif.got.tgz:42252.got - 2010.06.03 16:22:01.
