data_PCOD9521230
_publ_section_title
;
Structure prediction by ZEFSAII (Michael W. Deem and Ramdas Pophale) SiO2 
 PCOD9521230
Probable space group: I M M M
;
_chemical_formula_sum "Si O2"
_cell_formula_units_Z 112
_cell_length_a 16.443403
_cell_length_b 24.600548
_cell_length_c 14.200325
_cell_angle_alpha 90.000000
_cell_angle_beta 90.000000
_cell_angle_gamma 90.000000
_cell_volume 5744.268960
_symmetry_space_group_name_H-M "I M M M"
_symmetry_group_IT_number 71
_symmetry_cell_setting 'orthorhombic'
loop_
_space_group_symop_operation_xyz
x,y,z
-x,-y,z
x,-y,-z
-x,y,-z
-x,-y,-z
x,y,-z
-x,y,z
x,-y,z
1/2+x,1/2+y,1/2+z
1/2-x,1/2-y,1/2+z
1/2+x,1/2-y,1/2-z
1/2-x,1/2+y,1/2-z
1/2-x,1/2-y,1/2-z
1/2+x,1/2+y,1/2-z
1/2-x,1/2+y,1/2+z
1/2+x,1/2-y,1/2+z
loop_
_atom_site_type_symbol
_atom_site_label
_atom_site_fract_x
_atom_site_fract_y
_atom_site_fract_z
Si Si1 0.824920 0.732363 0.390454
Si Si2 0.803029 0.562014 0.893660
Si Si3 0.588350 0.380047 0.387991
Si Si4 0.654107 0.721913 0.298370
Si Si5 0.908148 0.619270 0.389299
Si Si6 0.247443 0.063318 0.806188
Si Si7 0.095046 0.670119 0.890814
O O1 0.815489 0.748235 0.500000
O O2 0.740213 0.709237 0.348348
O O3 0.844032 0.779286 0.314846
O O4 0.890335 0.683907 0.385289
O O5 0.836379 0.500000 0.885712
O O6 0.742058 0.568842 0.807004
O O7 0.867910 0.610167 0.881487
O O8 0.769736 0.567211 0.000000
O O9 0.594522 0.374186 0.500000
O O10 0.500000 0.405370 0.366265
O O11 0.592433 0.320571 0.341577
O O12 0.667482 0.411517 0.352225
O O13 0.635463 0.783956 0.327100
O O14 0.904486 0.604152 0.500000
O O15 0.832667 0.590461 0.338078
O O16 0.000000 0.607480 0.354658
O O17 0.252163 0.000000 0.830547
O O18 0.000000 0.668583 0.870461
O O19 0.106764 0.686815 0.000000
#
# Coordination Sequence:
#
# PCOD9521230 Si02
#       7
#    16  16  16  16  16  16  16
#     4  10  21  36  56  83 118 160 198 235 287 350
#     4   9  20  38  58  82 116 158 198 237 289 351
#     4  11  24  42  64  89 118 152 193 245 305 360
#     4  11  21  35  58  86 117 155 198 244 295 350
#     4  10  21  38  60  87 122 160 195 236 292 355
#     4  11  23  40  63  89 117 153 198 247 299 354
#     4  10  20  33  54  86 119 153 199 249 293 344
#
# _framework density 19.497693999999999
#
# number of rings (size 3 to 8) (size 9 to 14) (size 15 to 20)
#    0.000    1.714    1.429    3.000    2.000    6.000 
#    0.000    4.286    0.000    1.286    0.000    2.000 
#    0.000    0.000    0.000    0.000    0.000    0.000 
#
# Total GULP energy -312462.256149 kJ/mol
# GULP energy per Si atom -5579.683146 kJ/mol
# Density = 1.945332 g / cm^3
# Si number density = 19.497694 Si / 1000 Ang^3
#
#
#
# Elastic Constant Matrix: (Units=GPa)
#
#
# Indices 1 2 3 4 5 6 
#
# 1 123.8646 35.4162 66.3487 0.0000 0.0000 0.0000
# 2 35.4162 51.5268 47.0782 0.0000 0.0000 0.0000
# 3 66.3487 47.0782 128.0303 0.0000 0.0000 0.0000
# 4 0.0000 0.0000 0.0000 27.6388 0.0000 0.0000
# 5 0.0000 0.0000 0.0000 0.0000 13.8855 0.0000
# 6 0.0000 0.0000 0.0000 0.0000 0.0000 6.7172
#
#
#
# Elastic Compliance Matrix: (Units=1/GPa)
#
#
# Indices 1 2 3 4 5 6 
#
# 1 0.011637 -0.003748 -0.004653 0.000000 0.000000 0.000000
# 2 -0.003748 0.030433 -0.009249 0.000000 0.000000 0.000000
# 3 -0.004653 -0.009249 0.013623 0.000000 0.000000 0.000000
# 4 0.000000 0.000000 0.000000 0.036181 0.000000 0.000000
# 5 0.000000 0.000000 0.000000 0.000000 0.072018 0.000000
# 6 0.000000 0.000000 0.000000 0.000000 0.000000 0.148871
#
#
# Mechanical properties :
#
#
# Convention : Reuss Voigt Hill
#
# Bulk Modulus (GPa) = 49.03071 66.78976 57.91023
# Shear Modulus (GPa) = 14.09013 19.95354 17.02184
#
# Velocity S-wave (km/s) = 2.69114 3.20250 2.95789
# Velocity P-wave (km/s) = 5.90405 6.92851 6.43670
#
# Compressibility (1/GPa) = 0.02039538
#
# Stress axis : x y z
#
# Youngs Moduli (GPa) = 85.93226 32.85865 73.40771
#
# Poissons Ratio (x) = 0.12314 0.34154
# Poissons Ratio (y) = 0.32205 0.67892
# Poissons Ratio (z) = 0.39981 0.30390
#
# Static dielectric constant tensor:
#      x y z
#    x 1.681180 0.000000 0.000000 
#    y 0.000000 1.696200 0.000000 
#    z 0.000000 0.000000 1.727340 
# 
# From -- ./inp_files/34897.got.cif
#   From: 2010.05.17/outbox.cif.g08.bks.cpg/sg71_18_cif.got.tgz:34897.got - 2010.06.03 16:22:01.
