data_PCOD9521006
_publ_section_title
;
Structure prediction by ZEFSAII (Michael W. Deem and Ramdas Pophale) SiO2 
 PCOD9521006
Probable space group: I M M M
;
_chemical_formula_sum "Si O2"
_cell_formula_units_Z 104
_cell_length_a 28.576898
_cell_length_b 9.554110
_cell_length_c 22.925051
_cell_angle_alpha 90.000000
_cell_angle_beta 90.000000
_cell_angle_gamma 90.000000
_cell_volume 6259.153932
_symmetry_space_group_name_H-M "I M M M"
_symmetry_group_IT_number 71
_symmetry_cell_setting 'orthorhombic'
loop_
_space_group_symop_operation_xyz
x,y,z
-x,-y,z
x,-y,-z
-x,y,-z
-x,-y,-z
x,y,-z
-x,y,z
x,-y,z
1/2+x,1/2+y,1/2+z
1/2-x,1/2-y,1/2+z
1/2+x,1/2-y,1/2-z
1/2-x,1/2+y,1/2-z
1/2-x,1/2-y,1/2-z
1/2+x,1/2+y,1/2-z
1/2-x,1/2+y,1/2+z
1/2+x,1/2-y,1/2+z
loop_
_atom_site_type_symbol
_atom_site_label
_atom_site_fract_x
_atom_site_fract_y
_atom_site_fract_z
Si Si1 0.803477 0.832884 0.679296
Si Si2 0.699603 0.836714 0.700816
Si Si3 0.444682 0.662044 0.770136
Si Si4 0.606123 0.333698 0.893403
Si Si5 0.598480 0.837197 0.666459
Si Si6 0.556224 0.657380 0.566261
Si Si7 0.556810 0.830229 0.000000
O O1 0.748349 0.805547 0.668121
O O2 0.809090 0.755478 0.741379
O O3 0.841639 0.792577 0.630109
O O4 0.810218 0.000000 0.687436
O O5 0.654192 0.819986 0.661550
O O6 0.702258 0.000000 0.719393
O O7 0.500000 0.687587 0.768462
O O8 0.436300 0.500000 0.753487
O O9 0.425362 0.680016 0.835266
O O10 0.419028 0.760673 0.724605
O O11 0.606906 0.500000 0.909951
O O12 0.582729 0.240832 0.944145
O O13 0.574335 0.767943 0.611599
O O14 0.587409 0.000000 0.670949
O O15 0.571306 0.684808 0.500000
O O16 0.500000 0.657997 0.566975
O O17 0.571347 0.500000 0.582750
O O18 0.500000 0.801477 0.000000
O O19 0.562116 0.000000 0.000000
#
# Coordination Sequence:
#
# PCOD9521006 Si02
#       7
#    16  16  16  16  16  16   8
#     4   9  17  32  55  79 102 133 173 212 253 304
#     4   9  18  31  49  78 112 138 164 204 257 311
#     4  10  20  33  50  75 106 137 172 215 258 302
#     4  10  20  36  59  81 102 136 184 228 264 311
#     4  11  21  31  48  77 110 139 166 204 257 312
#     4   9  19  36  55  72  94 131 177 218 253 295
#     4  11  25  41  57  79 109 145 181 223 280 339
#
# _framework density 16.615663999999999
#
# number of rings (size 3 to 8) (size 9 to 14) (size 15 to 20)
#    0.000    2.231    1.538    2.077    0.000    5.846 
#    0.000    0.769    1.692    0.000    0.000    0.000 
#    0.000    0.000    0.000    0.000    0.000    0.000 
#
# Total GULP energy -289742.172177 kJ/mol
# GULP energy per Si atom -5571.964850 kJ/mol
# Density = 1.657785 g / cm^3
# Si number density = 16.615664 Si / 1000 Ang^3
#
#
#
# Elastic Constant Matrix: (Units=GPa)
#
#
# Indices 1 2 3 4 5 6 
#
# 1 101.2273 68.9587 68.6358 0.0000 0.0000 0.0000
# 2 68.9587 63.3136 49.8323 0.0000 0.0000 0.0000
# 3 68.6358 49.8323 63.8295 0.0000 0.0000 0.0000
# 4 0.0000 0.0000 0.0000 40.5100 0.0000 0.0000
# 5 0.0000 0.0000 0.0000 0.0000 34.5104 0.0000
# 6 0.0000 0.0000 0.0000 0.0000 0.0000 21.3325
#
#
#
# Elastic Compliance Matrix: (Units=1/GPa)
#
#
# Indices 1 2 3 4 5 6 
#
# 1 0.056370 -0.035505 -0.032896 0.000000 0.000000 0.000000
# 2 -0.035505 0.063331 -0.011265 0.000000 0.000000 0.000000
# 3 -0.032896 -0.011265 0.059834 0.000000 0.000000 0.000000
# 4 0.000000 0.000000 0.000000 0.024685 0.000000 0.000000
# 5 0.000000 0.000000 0.000000 0.000000 0.028977 0.000000
# 6 0.000000 0.000000 0.000000 0.000000 0.000000 0.046877
#
#
# Mechanical properties :
#
#
# Convention : Reuss Voigt Hill
#
# Bulk Modulus (GPa) = 49.49422 67.02489 58.25956
# Shear Modulus (GPa) = 11.20724 22.00015 16.60370
#
# Velocity S-wave (km/s) = 2.59993 3.64271 3.16457
# Velocity P-wave (km/s) = 6.23420 7.62354 6.96361
#
# Compressibility (1/GPa) = 0.02020438
#
# Stress axis : x y z
#
# Youngs Moduli (GPa) = 17.73994 15.79003 16.71282
#
# Poissons Ratio (x) = 0.56062 0.54978
# Poissons Ratio (y) = 0.62985 0.18827
# Poissons Ratio (z) = 0.58357 0.17788
#
# Static dielectric constant tensor:
#      x y z
#    x 1.594920 0.000000 0.000000 
#    y 0.000000 1.562040 0.000000 
#    z 0.000000 0.000000 1.524790 
# 
# From -- ./inp_files/56698.got.cif
#   From: 2010.05.17/outbox.cif.g08.bks.cpg/sg71_29_cif.got.tgz:56698.got - 2010.06.03 16:22:01.
