data_PCOD9521483
_publ_section_title
;
Structure prediction by ZEFSAII (Michael W. Deem and Ramdas Pophale) SiO2 
 PCOD9521483
Probable space group: I M M M
;
_chemical_formula_sum "Si O2"
_cell_formula_units_Z 88
_cell_length_a 8.122161
_cell_length_b 22.985997
_cell_length_c 23.499707
_cell_angle_alpha 90.000000
_cell_angle_beta 90.000000
_cell_angle_gamma 90.000000
_cell_volume 4387.300555
_symmetry_space_group_name_H-M "I M M M"
_symmetry_group_IT_number 71
_symmetry_cell_setting 'orthorhombic'
loop_
_space_group_symop_operation_xyz
x,y,z
-x,-y,z
x,-y,-z
-x,y,-z
-x,-y,-z
x,y,-z
-x,y,z
x,-y,z
1/2+x,1/2+y,1/2+z
1/2-x,1/2-y,1/2+z
1/2+x,1/2-y,1/2-z
1/2-x,1/2+y,1/2-z
1/2-x,1/2-y,1/2-z
1/2+x,1/2+y,1/2-z
1/2-x,1/2+y,1/2+z
1/2+x,1/2-y,1/2+z
loop_
_atom_site_type_symbol
_atom_site_label
_atom_site_fract_x
_atom_site_fract_y
_atom_site_fract_z
Si Si1 0.699392 0.563890 0.787052
Si Si2 0.192616 0.291672 0.625325
Si Si3 0.196358 0.658757 0.877059
Si Si4 0.692790 0.589165 0.338705
Si Si5 0.187403 0.645067 0.000000
Si Si6 0.701685 0.500000 0.566027
Si Si7 0.694129 0.772502 0.000000
O O1 0.500000 0.567334 0.786177
O O2 0.745888 0.500000 0.809371
O O3 0.762156 0.615534 0.826399
O O4 0.761276 0.569080 0.722073
O O5 0.238264 0.224110 0.633494
O O6 0.286645 0.341503 0.658520
O O7 0.223560 0.304842 0.558541
O O8 0.000000 0.298262 0.637235
O O9 0.262801 0.633215 0.937708
O O10 0.000000 0.663697 0.883354
O O11 0.500000 0.574853 0.337341
O O12 0.755694 0.555228 0.394782
O O13 0.193555 0.715490 0.000000
O O14 0.000000 0.622672 0.000000
O O15 0.500000 0.500000 0.562827
O O16 0.758817 0.500000 0.500000
O O17 0.500000 0.754148 0.000000
#
# Coordination Sequence:
#
# PCOD9521483 Si02
#       7
#    16  16  16  16   8   8   8
#     4  10  21  39  59  78 107 147 186 224 274 329
#     4  10  20  34  53  81 114 147 181 224 278 330
#     4  10  20  36  59  85 111 141 181 226 273 326
#     4  10  20  36  57  81 110 146 188 232 273 320
#     4   8  16  32  53  79 109 136 168 217 269 315
#     4   9  18  34  57  85 113 146 191 236 274 317
#     4   8  16  30  48  72 108 146 177 210 262 327
#
# _framework density 20.057891999999999
#
# number of rings (size 3 to 8) (size 9 to 14) (size 15 to 20)
#    0.000    2.455    0.909    1.091    1.273    3.273 
#    0.000    0.909    0.000    3.273    0.000    0.000 
#    0.000    0.000    0.000    0.000    0.000    0.000 
#
# Total GULP energy -245121.620467 kJ/mol
# GULP energy per Si atom -5570.945920 kJ/mol
# Density = 2.001224 g / cm^3
# Si number density = 20.057892 Si / 1000 Ang^3
#
#
#
# Elastic Constant Matrix: (Units=GPa)
#
#
# Indices 1 2 3 4 5 6 
#
# 1 8.7596 -3.5122 5.8109 0.0000 0.0000 0.0000
# 2 -3.5122 103.1014 60.9178 0.0000 0.0000 0.0000
# 3 5.8109 60.9178 118.4781 0.0000 0.0000 0.0000
# 4 0.0000 0.0000 0.0000 26.3184 0.0000 0.0000
# 5 0.0000 0.0000 0.0000 0.0000 17.7515 0.0000
# 6 0.0000 0.0000 0.0000 0.0000 0.0000 17.0077
#
#
#
# Elastic Compliance Matrix: (Units=1/GPa)
#
#
# Indices 1 2 3 4 5 6 
#
# 1 0.126807 0.011483 -0.012124 0.000000 0.000000 0.000000
# 2 0.011483 0.014971 -0.008261 0.000000 0.000000 0.000000
# 3 -0.012124 -0.008261 0.013283 0.000000 0.000000 0.000000
# 4 0.000000 0.000000 0.000000 0.037996 0.000000 0.000000
# 5 0.000000 0.000000 0.000000 0.000000 0.056333 0.000000
# 6 0.000000 0.000000 0.000000 0.000000 0.000000 0.058797
#
#
# Mechanical properties :
#
#
# Convention : Reuss Voigt Hill
#
# Bulk Modulus (GPa) = 7.28555 39.64133 23.46344
# Shear Modulus (GPa) = 13.45013 23.35702 18.40358
#
# Velocity S-wave (km/s) = 2.59234 3.41615 3.03235
# Velocity P-wave (km/s) = 3.54971 5.94697 4.89729
#
# Compressibility (1/GPa) = 0.13725798
#
# Stress axis : x y z
#
# Youngs Moduli (GPa) = 7.88599 66.79387 75.28662
#
# Poissons Ratio (x) = -0.76700 0.91275
# Poissons Ratio (y) = -0.09056 0.62195
# Poissons Ratio (z) = 0.09561 0.55179
#
# Static dielectric constant tensor:
#      x y z
#    x 1.724170 0.000000 0.000000 
#    y 0.000000 1.665190 0.000000 
#    z 0.000000 0.000000 1.762960 
# 
# From -- ./inp_files/10523.got.cif
#   From: 2010.05.17/outbox.cif.g08.bks.cpg/sg71_6_cif.got.tgz:10523.got - 2010.06.03 16:22:01.
