data_PCOD9521815
_publ_section_title
;
Structure prediction by ZEFSAII (Michael W. Deem and Ramdas Pophale) SiO2 
 PCOD9521815
Probable space group: I M M M
;
_chemical_formula_sum "Si O2"
_cell_formula_units_Z 88
_cell_length_a 8.722541
_cell_length_b 25.036841
_cell_length_c 23.381452
_cell_angle_alpha 90.000000
_cell_angle_beta 90.000000
_cell_angle_gamma 90.000000
_cell_volume 5106.155405
_symmetry_space_group_name_H-M "I M M M"
_symmetry_group_IT_number 71
_symmetry_cell_setting 'orthorhombic'
loop_
_space_group_symop_operation_xyz
x,y,z
-x,-y,z
x,-y,-z
-x,y,-z
-x,-y,-z
x,y,-z
-x,y,z
x,-y,z
1/2+x,1/2+y,1/2+z
1/2-x,1/2-y,1/2+z
1/2+x,1/2-y,1/2-z
1/2-x,1/2+y,1/2-z
1/2-x,1/2-y,1/2-z
1/2+x,1/2+y,1/2-z
1/2-x,1/2+y,1/2+z
1/2+x,1/2-y,1/2+z
loop_
_atom_site_type_symbol
_atom_site_label
_atom_site_fract_x
_atom_site_fract_y
_atom_site_fract_z
Si Si1 0.186463 0.938952 0.281657
Si Si2 0.815674 0.873347 0.391598
Si Si3 0.682922 0.764254 0.432456
Si Si4 0.315089 0.437803 0.651573
Si Si5 0.816147 0.437012 0.000000
Si Si6 0.683311 0.149300 0.066419
O O1 0.236027 0.899673 0.331853
O O2 0.233058 0.925002 0.216953
O O3 0.000000 0.939115 0.281601
O O4 0.235142 0.000000 0.293736
O O5 0.757577 0.813127 0.398950
O O6 0.750692 0.908164 0.444054
O O7 0.000000 0.874423 0.394128
O O8 0.719833 0.771739 0.500000
O O9 0.500000 0.765611 0.426388
O O10 0.745806 0.706222 0.415787
O O11 0.500000 0.433479 0.648639
O O12 0.275961 0.500000 0.640796
O O13 0.241909 0.397875 0.606543
O O14 0.778400 0.500000 0.000000
O O15 0.000000 0.431083 0.000000
O O16 0.500000 0.152815 0.068854
O O17 0.728342 0.139995 0.000000
#
# Coordination Sequence:
#
# PCOD9521815 Si02
#       6
#    16  16  16  16   8  16
#     4   8  16  32  53  77 105 138 176 218 263 313
#     4  11  20  32  54  79 104 137 180 224 269 317
#     4  10  20  35  54  75 105 141 177 218 267 319
#     4   9  18  35  58  81 107 139 174 212 259 318
#     4  11  23  35  47  71 109 145 180 225 270 311
#     4  10  21  36  55  80 109 137 172 217 263 312
#
# _framework density 17.234100999999999
#
# number of rings (size 3 to 8) (size 9 to 14) (size 15 to 20)
#    0.000    2.273    0.909    3.545    0.000    4.000 
#    0.000    4.545    0.000    2.182    0.000    0.000 
#    0.000    0.000    0.000    0.000    0.000    0.000 
#
# Total GULP energy -245545.193881 kJ/mol
# GULP energy per Si atom -5580.572588 kJ/mol
# Density = 1.719488 g / cm^3
# Si number density = 17.234101 Si / 1000 Ang^3
#
#
#
# Elastic Constant Matrix: (Units=GPa)
#
#
# Indices 1 2 3 4 5 6 
#
# 1 33.9775 46.7695 34.7449 0.0000 0.0000 0.0000
# 2 46.7695 150.3766 105.9924 0.0000 0.0000 0.0000
# 3 34.7449 105.9924 117.4324 0.0000 0.0000 0.0000
# 4 0.0000 0.0000 0.0000 23.5634 0.0000 0.0000
# 5 0.0000 0.0000 0.0000 0.0000 15.4270 0.0000
# 6 0.0000 0.0000 0.0000 0.0000 0.0000 33.1533
#
#
#
# Elastic Compliance Matrix: (Units=1/GPa)
#
#
# Indices 1 2 3 4 5 6 
#
# 1 0.051660 -0.014550 -0.002152 0.000000 0.000000 0.000000
# 2 -0.014550 0.022376 -0.015892 0.000000 0.000000 0.000000
# 3 -0.002152 -0.015892 0.023496 0.000000 0.000000 0.000000
# 4 0.000000 0.000000 0.000000 0.042439 0.000000 0.000000
# 5 0.000000 0.000000 0.000000 0.000000 0.064821 0.000000
# 6 0.000000 0.000000 0.000000 0.000000 0.000000 0.030163
#
#
# Mechanical properties :
#
#
# Convention : Reuss Voigt Hill
#
# Bulk Modulus (GPa) = 30.91705 75.20000 53.05852
# Shear Modulus (GPa) = 16.08109 22.04739 19.06424
#
# Velocity S-wave (km/s) = 3.05798 3.58059 3.32956
# Velocity P-wave (km/s) = 5.51785 7.79893 6.75537
#
# Compressibility (1/GPa) = 0.03234461
#
# Stress axis : x y z
#
# Youngs Moduli (GPa) = 19.35735 44.68975 42.56101
#
# Poissons Ratio (x) = 0.65025 0.09158
# Poissons Ratio (y) = 0.28166 0.67636
# Poissons Ratio (z) = 0.04165 0.71019
#
# Static dielectric constant tensor:
#      x y z
#    x 1.582010 0.000000 0.000000 
#    y 0.000000 1.562040 0.000000 
#    z 0.000000 0.000000 1.572960 
# 
# From -- ./inp_files/10484.got.cif
#   From: 2010.05.17/outbox.cif.g08.bks.cpg/sg71_6_cif.got.tgz:10484.got - 2010.06.03 16:22:01.
