data_PCOD9521209
_publ_section_title
;
Structure prediction by ZEFSAII (Michael W. Deem and Ramdas Pophale) SiO2 
 PCOD9521209
Probable space group: I M M M
;
_chemical_formula_sum "Si O2"
_cell_formula_units_Z 112
_cell_length_a 13.378958
_cell_length_b 33.836071
_cell_length_c 12.961383
_cell_angle_alpha 90.000000
_cell_angle_beta 90.000000
_cell_angle_gamma 90.000000
_cell_volume 5867.506264
_symmetry_space_group_name_H-M "I M M M"
_symmetry_group_IT_number 71
_symmetry_cell_setting 'orthorhombic'
loop_
_space_group_symop_operation_xyz
x,y,z
-x,-y,z
x,-y,-z
-x,y,-z
-x,-y,-z
x,y,-z
-x,y,z
x,-y,z
1/2+x,1/2+y,1/2+z
1/2-x,1/2-y,1/2+z
1/2+x,1/2-y,1/2-z
1/2-x,1/2+y,1/2-z
1/2-x,1/2-y,1/2-z
1/2+x,1/2+y,1/2-z
1/2-x,1/2+y,1/2+z
1/2+x,1/2-y,1/2+z
loop_
_atom_site_type_symbol
_atom_site_label
_atom_site_fract_x
_atom_site_fract_y
_atom_site_fract_z
Si Si1 0.183112 0.166199 0.382314
Si Si2 0.884624 0.456024 0.770480
Si Si3 0.389086 0.625936 0.683189
Si Si4 0.385942 0.247723 0.124577
Si Si5 0.197243 0.955462 0.122240
Si Si6 0.317349 0.838957 0.881990
Si Si7 0.387687 0.871263 0.672205
O O1 0.147657 0.162558 0.500000
O O2 0.126282 0.138037 0.302379
O O3 0.165756 0.211261 0.345992
O O4 0.299341 0.154123 0.376610
O O5 0.872332 0.500000 0.817168
O O6 0.804108 0.453020 0.679172
O O7 0.869327 0.418053 0.843151
O O8 0.000000 0.453257 0.734469
O O9 0.500000 0.636926 0.648594
O O10 0.370426 0.579532 0.666045
O O11 0.297972 0.647998 0.626225
O O12 0.500000 0.246725 0.163850
O O13 0.331679 0.206791 0.149344
O O14 0.390148 0.248415 0.000000
O O15 0.158084 0.000000 0.139072
O O16 0.208992 0.949509 0.000000
O O17 0.376028 0.863827 0.795703
O O18 0.352174 0.844276 0.000000
O O19 0.500000 0.861172 0.639860
#
# Coordination Sequence:
#
# PCOD9521209 Si02
#       7
#    16  16  16  16  16  16  16
#     4  10  21  39  59  79 103 137 182 233 283 329
#     4   9  17  31  52  79 113 148 178 210 254 312
#     4  11  23  37  55  81 109 142 187 235 276 320
#     4   9  18  34  57  81 106 140 181 223 272 334
#     4  10  20  35  55  81 115 152 185 216 260 324
#     4  10  20  35  53  79 112 145 178 218 268 327
#     4  10  20  33  53  84 113 144 180 219 268 320
#
# _framework density 19.088177000000002
#
# number of rings (size 3 to 8) (size 9 to 14) (size 15 to 20)
#    0.000    2.143    2.857    1.286    0.000    6.000 
#    0.000    5.714    0.000    4.286    0.000    3.000 
#    0.000    0.000    0.000    0.000    0.000    0.000 
#
# Total GULP energy -312225.669872 kJ/mol
# GULP energy per Si atom -5575.458391 kJ/mol
# Density = 1.904473 g / cm^3
# Si number density = 19.088177 Si / 1000 Ang^3
#
#
#
# Elastic Constant Matrix: (Units=GPa)
#
#
# Indices 1 2 3 4 5 6 
#
# 1 94.7959 52.3112 -9.8690 0.0000 -0.0002 0.0000
# 2 52.3112 143.9900 8.7532 0.0000 -0.0003 0.0000
# 3 -9.8690 8.7532 29.3360 -0.0007 -0.0014 0.0000
# 4 0.0000 0.0000 -0.0007 23.3818 -0.0002 0.0001
# 5 -0.0002 -0.0003 -0.0014 -0.0002 6.4444 0.0000
# 6 0.0000 0.0000 0.0000 0.0001 0.0000 21.2381
#
#
#
# Elastic Compliance Matrix: (Units=1/GPa)
#
#
# Indices 1 2 3 4 5 6 
#
# 1 0.014310 -0.005593 0.006483 0.000000 0.000002 0.000000
# 2 -0.005593 0.009259 -0.004644 0.000000 -0.000001 0.000000
# 3 0.006483 -0.004644 0.037655 0.000001 0.000008 0.000000
# 4 0.000000 0.000000 0.000001 0.042768 0.000001 0.000000
# 5 0.000002 -0.000001 0.000008 0.000001 0.155175 0.000000
# 6 0.000000 0.000000 0.000000 0.000000 0.000000 0.047085
#
#
# Mechanical properties :
#
#
# Convention : Reuss Voigt Hill
#
# Bulk Modulus (GPa) = 18.61660 41.16806 29.89233
# Shear Modulus (GPa) = 15.07541 24.67460 19.87501
#
# Velocity S-wave (km/s) = 2.81335 3.59926 3.23030
# Velocity P-wave (km/s) = 4.50859 6.23595 5.44125
#
# Compressibility (1/GPa) = 0.05371550
#
# Stress axis : x y z
#
# Youngs Moduli (GPa) = 69.87970 108.00088 26.55719
#
# Poissons Ratio (x) = 0.60405 -0.17217
# Poissons Ratio (y) = 0.39084 0.12334
# Poissons Ratio (z) = -0.45303 0.50159
#
# Static dielectric constant tensor:
#      x y z
#    x 1.660690 0.000000 0.000000 
#    y 0.000000 1.695070 0.000000 
#    z 0.000000 0.000000 1.668040 
# 
# From -- ./inp_files/35347.got.cif
#   From: 2010.05.17/outbox.cif.g08.bks.cpg/sg71_18_cif.got.tgz:35347.got - 2010.06.03 16:22:01.
