data_PCOD9521646
_publ_section_title
;
Structure prediction by ZEFSAII (Michael W. Deem and Ramdas Pophale) SiO2 
 PCOD9521646
Probable space group: I M M M
;
_chemical_formula_sum "Si O2"
_cell_formula_units_Z 104
_cell_length_a 28.747873
_cell_length_b 21.781442
_cell_length_c 7.674492
_cell_angle_alpha 90.000000
_cell_angle_beta 90.000000
_cell_angle_gamma 90.000000
_cell_volume 4805.537641
_symmetry_space_group_name_H-M "I M M M"
_symmetry_group_IT_number 71
_symmetry_cell_setting 'orthorhombic'
loop_
_space_group_symop_operation_xyz
x,y,z
-x,-y,z
x,-y,-z
-x,y,-z
-x,-y,-z
x,y,-z
-x,y,z
x,-y,z
1/2+x,1/2+y,1/2+z
1/2-x,1/2-y,1/2+z
1/2+x,1/2-y,1/2-z
1/2-x,1/2+y,1/2-z
1/2-x,1/2-y,1/2-z
1/2+x,1/2+y,1/2-z
1/2-x,1/2+y,1/2+z
1/2+x,1/2-y,1/2+z
loop_
_atom_site_type_symbol
_atom_site_label
_atom_site_fract_x
_atom_site_fract_y
_atom_site_fract_z
Si Si1 0.705334 0.165309 0.299652
Si Si2 0.270884 0.433927 0.204836
Si Si3 0.374539 0.070504 0.211672
Si Si4 0.872489 0.899582 0.792697
Si Si5 0.447862 0.833163 0.209534
Si Si6 0.447575 0.500000 0.792708
Si Si7 0.633872 0.261140 0.708861
O O1 0.717013 0.180984 0.500000
O O2 0.748665 0.128452 0.218579
O O3 0.665548 0.112716 0.292228
O O4 0.679465 0.224776 0.221060
O O5 0.254974 0.500000 0.279586
O O6 0.326153 0.430297 0.218621
O O7 0.258399 0.434222 0.000000
O O8 0.423046 0.103081 0.260312
O O9 0.371586 0.000000 0.264607
O O10 0.369846 0.073615 0.000000
O O11 0.873675 0.829821 0.725196
O O12 0.917702 0.940233 0.757271
O O13 0.866539 0.897924 0.000000
O O14 0.500000 0.825497 0.278509
O O15 0.411658 0.779881 0.257887
O O16 0.450407 0.833187 0.000000
O O17 0.500000 0.500000 0.720562
O O18 0.450579 0.500000 0.000000
O O19 0.639518 0.263770 0.500000
#
# Coordination Sequence:
#
# PCOD9521646 Si02
#       7
#    16  16  16  16  16   8  16
#     4   9  18  34  54  77 108 149 188 222 264 318
#     4  10  20  34  55  82 113 149 187 225 266 317
#     4   9  17  29  46  71 104 140 180 228 274 317
#     4  11  23  39  60  86 114 144 177 221 277 330
#     4   9  18  32  50  73 101 136 180 226 274 327
#     4  11  25  45  67  89 113 143 183 231 282 341
#     4   9  20  37  55  78 110 144 182 225 271 328
#
# _framework density 21.641698999999999
#
# number of rings (size 3 to 8) (size 9 to 14) (size 15 to 20)
#    0.000    2.385    0.769    1.154    0.000    5.231 
#    0.000    4.615    0.000    0.000    0.000    4.308 
#    0.000    0.000    0.000    0.000    0.000    0.000 
#
# Total GULP energy -290187.528024 kJ/mol
# GULP energy per Si atom -5580.529385 kJ/mol
# Density = 2.159244 g / cm^3
# Si number density = 21.641699 Si / 1000 Ang^3
#
#
#
# Elastic Constant Matrix: (Units=GPa)
#
#
# Indices 1 2 3 4 5 6 
#
# 1 110.6346 40.5045 -4.7973 0.0000 0.0000 0.0000
# 2 40.5045 145.5415 -1.5980 0.0000 0.0000 0.0000
# 3 -4.7973 -1.5980 45.7959 0.0000 0.0000 0.0000
# 4 0.0000 0.0000 0.0000 -65.6526 0.0000 0.0000
# 5 0.0000 0.0000 0.0000 0.0000 21.0554 0.0000
# 6 0.0000 0.0000 0.0000 0.0000 0.0000 115.3437
#
#
#
# Elastic Compliance Matrix: (Units=1/GPa)
#
#
# Indices 1 2 3 4 5 6 
#
# 1 0.010106 -0.002802 0.000961 0.000000 0.000000 0.000000
# 2 -0.002802 0.007650 -0.000027 0.000000 0.000000 0.000000
# 3 0.000961 -0.000027 0.021936 0.000000 0.000000 0.000000
# 4 0.000000 0.000000 0.000000 -0.015232 0.000000 0.000000
# 5 0.000000 0.000000 0.000000 0.000000 0.047494 0.000000
# 6 0.000000 0.000000 0.000000 0.000000 0.000000 0.008670
#
#
# Mechanical properties :
#
#
# Convention : Reuss Voigt Hill
#
# Bulk Modulus (GPa) = 27.81101 41.13229 34.47165
# Shear Modulus (GPa) = 51.89655 32.00680 41.95167
#
# Velocity S-wave (km/s) = 4.90224 3.84987 4.40758
# Velocity P-wave (km/s) = 6.70232 6.22971 6.47034
#
# Compressibility (1/GPa) = 0.03595699
#
# Stress axis : x y z
#
# Youngs Moduli (GPa) = 98.94822 130.71182 45.58768
#
# Poissons Ratio (x) = 0.36626 -0.04380
# Poissons Ratio (y) = 0.27726 0.00121
# Poissons Ratio (z) = -0.09508 0.00347
#
# Static dielectric constant tensor:
#      x y z
#    x 1.789390 0.000000 0.000000 
#    y 0.000000 1.813770 0.000000 
#    z 0.000000 0.000000 1.811540 
# 
# From -- ./inp_files/11070.got.cif
#   From: 2010.05.17/outbox.cif.g08.bks.cpg/sg71_6_cif.got.tgz:11070.got - 2010.06.03 16:22:01.
