data_PCOD9521715
_publ_section_title
;
Structure prediction by ZEFSAII (Michael W. Deem and Ramdas Pophale) SiO2 
 PCOD9521715
Probable space group: I M M M
;
_chemical_formula_sum "Si O2"
_cell_formula_units_Z 72
_cell_length_a 25.858990
_cell_length_b 9.118142
_cell_length_c 15.811674
_cell_angle_alpha 90.000000
_cell_angle_beta 90.000000
_cell_angle_gamma 90.000000
_cell_volume 3728.170461
_symmetry_space_group_name_H-M "I M M M"
_symmetry_group_IT_number 71
_symmetry_cell_setting 'orthorhombic'
loop_
_space_group_symop_operation_xyz
x,y,z
-x,-y,z
x,-y,-z
-x,y,-z
-x,-y,-z
x,y,-z
-x,y,z
x,-y,z
1/2+x,1/2+y,1/2+z
1/2-x,1/2-y,1/2+z
1/2+x,1/2-y,1/2-z
1/2-x,1/2+y,1/2-z
1/2-x,1/2-y,1/2-z
1/2+x,1/2+y,1/2-z
1/2-x,1/2+y,1/2+z
1/2+x,1/2-y,1/2+z
loop_
_atom_site_type_symbol
_atom_site_label
_atom_site_fract_x
_atom_site_fract_y
_atom_site_fract_z
Si Si1 0.638864 0.174895 0.370154
Si Si2 0.561566 0.323490 0.500000
Si Si3 0.851364 0.330372 0.669648
Si Si4 0.558278 0.661075 0.101052
Si Si5 0.751613 0.175544 0.656954
O O1 0.594477 0.260051 0.420486
O O2 0.639253 0.202244 0.269261
O O3 0.698801 0.213375 0.392669
O O4 0.631977 0.000000 0.384437
O O5 0.563824 0.500000 0.500000
O O6 0.500000 0.282245 0.500000
O O7 0.836894 0.500000 0.663526
O O8 0.904937 0.290703 0.627210
O O9 0.806431 0.234911 0.625791
O O10 0.500000 0.678957 0.133275
O O11 0.577750 0.500000 0.130378
O O12 0.556117 0.656315 0.000000
O O13 0.750000 0.250000 0.750000
O O14 0.752204 0.000000 0.665512
#
# Coordination Sequence:
#
# PCOD9521715 Si02
#       5
#    16   8  16  16  16
#     4   9  20  38  58  80 108 145 184 224 276 334
#     4  11  25  41  57  81 111 145 190 241 286 329
#     4  10  20  34  56  86 114 144 185 228 277 336
#     4   9  19  36  55  76 107 147 186 225 273 325
#     4   9  17  32  55  82 110 140 175 220 273 329
#
# _framework density 19.312422999999999
#
# number of rings (size 3 to 8) (size 9 to 14) (size 15 to 20)
#    0.000    2.556    0.000    3.667    0.000    8.000 
#    2.000    5.556    0.000    0.000    0.000    0.000 
#    0.000    0.000    0.000    0.000    0.000    0.000 
#
# Total GULP energy -200512.986727 kJ/mol
# GULP energy per Si atom -5569.805187 kJ/mol
# Density = 1.926847 g / cm^3
# Si number density = 19.312423 Si / 1000 Ang^3
#
#
#
# Elastic Constant Matrix: (Units=GPa)
#
#
# Indices 1 2 3 4 5 6 
#
# 1 146.9469 65.0250 41.2433 0.0000 0.0000 0.0000
# 2 65.0250 70.8662 27.3533 0.0000 0.0000 0.0000
# 3 41.2433 27.3533 33.4551 0.0000 0.0000 0.0000
# 4 0.0000 0.0000 0.0000 23.7632 0.0000 0.0000
# 5 0.0000 0.0000 0.0000 0.0000 30.0687 0.0000
# 6 0.0000 0.0000 0.0000 0.0000 0.0000 34.0367
#
#
#
# Elastic Compliance Matrix: (Units=1/GPa)
#
#
# Indices 1 2 3 4 5 6 
#
# 1 0.013176 -0.008504 -0.009290 0.000000 0.000000 0.000000
# 2 -0.008504 0.026106 -0.010861 0.000000 0.000000 0.000000
# 3 -0.009290 -0.010861 0.050224 0.000000 0.000000 0.000000
# 4 0.000000 0.000000 0.000000 0.042082 0.000000 0.000000
# 5 0.000000 0.000000 0.000000 0.000000 0.033257 0.000000
# 6 0.000000 0.000000 0.000000 0.000000 0.000000 0.029380
#
#
# Mechanical properties :
#
#
# Convention : Reuss Voigt Hill
#
# Bulk Modulus (GPa) = 31.06029 57.61237 44.33633
# Shear Modulus (GPa) = 19.06456 25.41685 22.24070
#
# Velocity S-wave (km/s) = 3.14533 3.63173 3.39724
# Velocity P-wave (km/s) = 5.41376 6.89075 6.19642
#
# Compressibility (1/GPa) = 0.03219545
#
# Stress axis : x y z
#
# Youngs Moduli (GPa) = 75.89816 38.30504 19.91082
#
# Poissons Ratio (x) = 0.32574 0.18497
# Poissons Ratio (y) = 0.64542 0.21626
# Poissons Ratio (z) = 0.70509 0.41605
#
# Static dielectric constant tensor:
#      x y z
#    x 1.752660 0.000000 0.000000 
#    y 0.000000 1.674010 0.000000 
#    z 0.000000 0.000000 1.708540 
# 
# From -- ./inp_files/7963.got.cif
#   From: 2010.05.17/outbox.cif.g08.bks.cpg/sg71_4_cif.got.tgz:7963.got - 2010.06.03 16:22:01.
