data_PCOD9521097
_publ_section_title
;
Structure prediction by ZEFSAII (Michael W. Deem and Ramdas Pophale) SiO2 
 PCOD9521097
Probable space group: I M M M
;
_chemical_formula_sum "Si O2"
_cell_formula_units_Z 80
_cell_length_a 13.224992
_cell_length_b 12.031676
_cell_length_c 26.552892
_cell_angle_alpha 90.000000
_cell_angle_beta 90.000000
_cell_angle_gamma 90.000000
_cell_volume 4225.064812
_symmetry_space_group_name_H-M "I M M M"
_symmetry_group_IT_number 71
_symmetry_cell_setting 'orthorhombic'
loop_
_space_group_symop_operation_xyz
x,y,z
-x,-y,z
x,-y,-z
-x,y,-z
-x,-y,-z
x,y,-z
-x,y,z
x,-y,z
1/2+x,1/2+y,1/2+z
1/2-x,1/2-y,1/2+z
1/2+x,1/2-y,1/2-z
1/2-x,1/2+y,1/2-z
1/2-x,1/2-y,1/2-z
1/2+x,1/2+y,1/2-z
1/2-x,1/2+y,1/2+z
1/2+x,1/2-y,1/2+z
loop_
_atom_site_type_symbol
_atom_site_label
_atom_site_fract_x
_atom_site_fract_y
_atom_site_fract_z
Si Si1 0.261569 0.873400 0.300694
Si Si2 0.807573 0.231381 0.401882
Si Si3 0.000000 0.632939 0.560312
Si Si4 0.615280 0.373299 0.405296
Si Si5 0.111852 0.825196 0.212560
Si Si6 0.114019 0.000000 0.559394
O O1 0.205365 0.798649 0.342830
O O2 0.195658 0.871770 0.250047
O O3 0.364831 0.806525 0.291256
O O4 0.274868 0.000000 0.317713
O O5 0.704322 0.289872 0.420559
O O6 0.901110 0.311161 0.415045
O O7 0.829427 0.112087 0.425873
O O8 0.000000 0.500000 0.567035
O O9 0.000000 0.656586 0.500000
O O10 0.500000 0.342274 0.419851
O O11 0.634319 0.500000 0.422219
O O12 0.617933 0.371510 0.344070
O O13 0.000000 0.847896 0.232288
O O14 0.103729 0.000000 0.500000
O O15 0.000000 0.000000 0.582111
#
# Coordination Sequence:
#
# PCOD9521097 Si02
#       6
#    16  16   8  16  16   8
#     4  10  20  33  51  78 111 146 188 231 279 330
#     4  11  21  36  58  87 113 147 190 237 286 347
#     4  11  24  41  61  85 115 150 187 237 297 351
#     4   9  18  35  58  83 112 150 193 235 282 334
#     4   9  19  33  51  74 109 151 191 234 271 322
#     4  11  22  38  59  83 115 151 184 229 291 355
#
# _framework density 18.934619999999999
#
# number of rings (size 3 to 8) (size 9 to 14) (size 15 to 20)
#    0.000    2.000    2.000    1.800    1.400    1.600 
#    0.000    1.500    0.000    3.000    0.000    7.000 
#    0.000    0.000    0.000    0.000    0.000    0.000 
#
# Total GULP energy -223061.974409 kJ/mol
# GULP energy per Si atom -5576.549360 kJ/mol
# Density = 1.889152 g / cm^3
# Si number density = 18.934620 Si / 1000 Ang^3
#
#
#
# Elastic Constant Matrix: (Units=GPa)
#
#
# Indices 1 2 3 4 5 6 
#
# 1 122.0038 72.6454 5.2335 0.0000 0.0000 0.0000
# 2 72.6454 142.8302 9.3349 0.0000 0.0000 0.0000
# 3 5.2335 9.3349 18.4540 0.0000 0.0000 0.0000
# 4 0.0000 0.0000 0.0000 20.4882 0.0000 0.0000
# 5 0.0000 0.0000 0.0000 0.0000 14.2598 0.0000
# 6 0.0000 0.0000 0.0000 0.0000 0.0000 80.2311
#
#
#
# Elastic Compliance Matrix: (Units=1/GPa)
#
#
# Indices 1 2 3 4 5 6 
#
# 1 0.011759 -0.005960 -0.000320 0.000000 0.000000 0.000000
# 2 -0.005960 0.010261 -0.003500 0.000000 0.000000 0.000000
# 3 -0.000320 -0.003500 0.056050 0.000000 0.000000 0.000000
# 4 0.000000 0.000000 0.000000 0.048809 0.000000 0.000000
# 5 0.000000 0.000000 0.000000 0.000000 0.070127 0.000000
# 6 0.000000 0.000000 0.000000 0.000000 0.000000 0.012464
#
#
# Mechanical properties :
#
#
# Convention : Reuss Voigt Hill
#
# Bulk Modulus (GPa) = 17.09117 50.85728 33.97423
# Shear Modulus (GPa) = 20.11796 36.06744 28.09270
#
# Velocity S-wave (km/s) = 3.26313 4.36918 3.85602
# Velocity P-wave (km/s) = 4.82114 7.23676 6.14874
#
# Compressibility (1/GPa) = 0.05850975
#
# Stress axis : x y z
#
# Youngs Moduli (GPa) = 85.04221 97.45320 17.84117
#
# Poissons Ratio (x) = 0.58080 0.00571
# Poissons Ratio (y) = 0.50683 0.06245
# Poissons Ratio (z) = 0.02721 0.34113
#
# Static dielectric constant tensor:
#      x y z
#    x 1.656800 0.000000 0.000000 
#    y 0.000000 1.614350 0.000000 
#    z 0.000000 0.000000 1.666090 
# 
# From -- ./inp_files/20172.got.cif
#   From: 2010.05.17/outbox.cif.g08.bks.cpg/sg71_11_cif.got.tgz:20172.got - 2010.06.03 16:22:01.
