data_PCOD9521515
_publ_section_title
;
Structure prediction by ZEFSAII (Michael W. Deem and Ramdas Pophale) SiO2 
 PCOD9521515
Probable space group: I M M M
;
_chemical_formula_sum "Si O2"
_cell_formula_units_Z 80
_cell_length_a 12.508581
_cell_length_b 27.568475
_cell_length_c 12.818791
_cell_angle_alpha 90.000000
_cell_angle_beta 90.000000
_cell_angle_gamma 90.000000
_cell_volume 4420.463969
_symmetry_space_group_name_H-M "I M M M"
_symmetry_group_IT_number 71
_symmetry_cell_setting 'orthorhombic'
loop_
_space_group_symop_operation_xyz
x,y,z
-x,-y,z
x,-y,-z
-x,y,-z
-x,-y,-z
x,y,-z
-x,y,z
x,-y,z
1/2+x,1/2+y,1/2+z
1/2-x,1/2-y,1/2+z
1/2+x,1/2-y,1/2-z
1/2-x,1/2+y,1/2-z
1/2-x,1/2-y,1/2-z
1/2+x,1/2+y,1/2-z
1/2-x,1/2+y,1/2+z
1/2+x,1/2-y,1/2+z
loop_
_atom_site_type_symbol
_atom_site_label
_atom_site_fract_x
_atom_site_fract_y
_atom_site_fract_z
Si Si1 0.231687 0.101398 0.623040
Si Si2 0.225442 0.214611 0.883366
Si Si3 0.629530 0.054768 0.000000
Si Si4 0.379600 0.299574 0.829165
Si Si5 0.378372 0.500000 0.873646
Si Si6 0.627214 0.126207 0.186307
O O1 0.258247 0.100483 0.500000
O O2 0.147523 0.144923 0.643100
O O3 0.330119 0.113083 0.699175
O O4 0.182163 0.049507 0.654255
O O5 0.287607 0.265726 0.877774
O O6 0.136163 0.209867 0.794491
O O7 0.314149 0.174695 0.852171
O O8 0.186086 0.206207 0.000000
O O9 0.658851 0.084578 0.896571
O O10 0.500000 0.052723 0.000000
O O11 0.670804 0.000000 0.000000
O O12 0.500000 0.287245 0.861727
O O13 0.500000 0.500000 0.834111
O O14 0.383397 0.500000 0.000000
O O15 0.500000 0.132131 0.184608
#
# Coordination Sequence:
#
# PCOD9521515 Si02
#       6
#    16  16   8  16   8  16
#     4  10  21  35  52  79 108 138 177 217 261 314
#     4  10  20  35  54  78 106 137 173 215 263 315
#     4   9  18  32  52  76 100 136 180 215 253 301
#     4  10  21  35  54  79 105 136 175 217 262 312
#     4   9  18  34  55  74  99 136 177 220 263 306
#     4  10  20  34  54  79 108 141 176 215 261 310
#
# _framework density 18.097648
#
# number of rings (size 3 to 8) (size 9 to 14) (size 15 to 20)
#    0.000    2.200    1.000    1.800    1.400    4.000 
#    0.000    0.000    0.000    9.000    0.000    0.700 
#    0.000    0.000    0.000    0.000    0.000    0.000 
#
# Total GULP energy -223122.367951 kJ/mol
# GULP energy per Si atom -5578.059199 kJ/mol
# Density = 1.805646 g / cm^3
# Si number density = 18.097648 Si / 1000 Ang^3
#
#
#
# Elastic Constant Matrix: (Units=GPa)
#
#
# Indices 1 2 3 4 5 6 
#
# 1 23.9158 -2.5484 -2.4838 0.0000 0.0000 0.0000
# 2 -2.5484 106.0792 0.4414 -0.0001 0.0000 0.0000
# 3 -2.4838 0.4414 103.2525 0.0000 -0.0002 0.0000
# 4 0.0000 -0.0001 0.0000 22.3298 0.0000 0.0000
# 5 0.0000 0.0000 -0.0002 0.0000 6.3247 0.0000
# 6 0.0000 0.0000 0.0000 0.0000 0.0000 13.7788
#
#
#
# Elastic Compliance Matrix: (Units=1/GPa)
#
#
# Indices 1 2 3 4 5 6 
#
# 1 0.042025 0.001005 0.001007 0.000000 0.000000 0.000000
# 2 0.001005 0.009451 -0.000016 0.000000 0.000000 0.000000
# 3 0.001007 -0.000016 0.009709 0.000000 0.000000 0.000000
# 4 0.000000 0.000000 0.000000 0.044783 0.000000 0.000000
# 5 0.000000 0.000000 0.000000 0.000000 0.158111 0.000000
# 6 0.000000 0.000000 0.000000 0.000000 0.000000 0.072575
#
#
# Mechanical properties :
#
#
# Convention : Reuss Voigt Hill
#
# Bulk Modulus (GPa) = 15.34280 24.89623 20.11951
# Shear Modulus (GPa) = 14.10878 24.34254 19.22566
#
# Velocity S-wave (km/s) = 2.79515 3.67149 3.26288
# Velocity P-wave (km/s) = 4.34894 5.63557 5.03353
#
# Compressibility (1/GPa) = 0.06517715
#
# Stress axis : x y z
#
# Youngs Moduli (GPa) = 23.79530 105.80740 102.99424
#
# Poissons Ratio (x) = -0.10638 -0.10368
# Poissons Ratio (y) = -0.02392 0.00167
# Poissons Ratio (z) = -0.02395 0.00172
#
# Static dielectric constant tensor:
#      x y z
#    x 1.587150 0.000000 0.000000 
#    y 0.000000 1.635130 0.000000 
#    z 0.000000 0.000000 1.639660 
# 
# From -- ./inp_files/22213.got.cif
#   From: 2010.05.17/outbox.cif.g08.bks.cpg/sg71_12_cif.got.tgz:22213.got - 2010.06.03 16:22:01.
