data_PCOD9521475
_publ_section_title
;
Structure prediction by ZEFSAII (Michael W. Deem and Ramdas Pophale) SiO2 
 PCOD9521475
Probable space group: I M M M
;
_chemical_formula_sum "Si O2"
_cell_formula_units_Z 112
_cell_length_a 25.509426
_cell_length_b 14.811633
_cell_length_c 13.991309
_cell_angle_alpha 90.000000
_cell_angle_beta 90.000000
_cell_angle_gamma 90.000000
_cell_volume 5286.423808
_symmetry_space_group_name_H-M "I M M M"
_symmetry_group_IT_number 71
_symmetry_cell_setting 'orthorhombic'
loop_
_space_group_symop_operation_xyz
x,y,z
-x,-y,z
x,-y,-z
-x,y,-z
-x,-y,-z
x,y,-z
-x,y,z
x,-y,z
1/2+x,1/2+y,1/2+z
1/2-x,1/2-y,1/2+z
1/2+x,1/2-y,1/2-z
1/2-x,1/2+y,1/2-z
1/2-x,1/2-y,1/2-z
1/2+x,1/2+y,1/2-z
1/2-x,1/2+y,1/2+z
1/2+x,1/2-y,1/2+z
loop_
_atom_site_type_symbol
_atom_site_label
_atom_site_fract_x
_atom_site_fract_y
_atom_site_fract_z
Si Si1 0.255943 0.282931 0.616355
Si Si2 0.354835 0.602604 0.609728
Si Si3 0.909763 0.899643 0.299124
Si Si4 0.156440 0.601218 0.385788
Si Si5 0.559547 0.200804 0.799825
Si Si6 0.792440 0.900948 0.615570
Si Si7 0.063456 0.604235 0.893139
O O1 0.256603 0.284532 0.500000
O O2 0.310530 0.328088 0.643613
O O3 0.206325 0.341978 0.648076
O O4 0.244353 0.180931 0.646384
O O5 0.369736 0.620810 0.500000
O O6 0.332302 0.500000 0.612401
O O7 0.401669 0.602825 0.684654
O O8 0.938989 0.807349 0.321985
O O9 0.851405 0.892264 0.344327
O O10 0.930196 0.000000 0.325552
O O11 0.161458 0.596094 0.500000
O O12 0.156351 0.500000 0.346469
O O13 0.102511 0.651049 0.362833
O O14 0.500000 0.167619 0.813427
O O15 0.576225 0.173955 0.691001
O O16 0.796122 0.897631 0.500000
O O17 0.772709 0.000000 0.643852
O O18 0.079380 0.500000 0.871688
O O19 0.000000 0.603331 0.898006
O O20 0.083121 0.627615 0.000000
#
# Coordination Sequence:
#
# PCOD9521475 Si02
#       7
#    16  16  16  16  16  16  16
#     4   9  16  30  54  80 105 137 173 208 254 313
#     4   9  18  33  54  80 108 136 167 210 265 323
#     4  10  21  36  53  75 101 136 181 224 267 312
#     4  10  20  34  53  80 112 141 170 209 261 321
#     4  11  22  35  52  75 103 138 180 224 268 312
#     4   9  17  31  51  73 101 138 179 217 251 297
#     4   8  15  30  52  74  94 121 162 210 258 311
#
# _framework density 21.186344999999999
#
# number of rings (size 3 to 8) (size 9 to 14) (size 15 to 20)
#    0.000    2.571    1.429    1.286    0.000    4.286 
#    0.000    0.714    0.000    0.857    0.000    9.000 
#    0.000    0.000    0.000    0.000    0.000    0.000 
#
# Total GULP energy -312470.874687 kJ/mol
# GULP energy per Si atom -5579.837048 kJ/mol
# Density = 2.113812 g / cm^3
# Si number density = 21.186345 Si / 1000 Ang^3
#
#
#
# Elastic Constant Matrix: (Units=GPa)
#
#
# Indices 1 2 3 4 5 6 
#
# 1 20.0594 10.6872 -1.2546 0.0000 0.0000 0.0000
# 2 10.6872 120.2751 7.7323 0.0000 0.0000 0.0000
# 3 -1.2546 7.7323 36.3465 0.0000 0.0000 0.0000
# 4 0.0000 0.0000 0.0000 23.5146 0.0000 0.0000
# 5 0.0000 0.0000 0.0000 0.0000 13.9903 0.0000
# 6 0.0000 0.0000 0.0000 0.0000 0.0000 17.9781
#
#
#
# Elastic Compliance Matrix: (Units=1/GPa)
#
#
# Indices 1 2 3 4 5 6 
#
# 1 0.052619 -0.004859 0.002850 0.000000 0.000000 0.000000
# 2 -0.004859 0.008878 -0.002056 0.000000 0.000000 0.000000
# 3 0.002850 -0.002056 0.028049 0.000000 0.000000 0.000000
# 4 0.000000 0.000000 0.000000 0.042527 0.000000 0.000000
# 5 0.000000 0.000000 0.000000 0.000000 0.071478 0.000000
# 6 0.000000 0.000000 0.000000 0.000000 0.000000 0.055623
#
#
# Mechanical properties :
#
#
# Convention : Reuss Voigt Hill
#
# Bulk Modulus (GPa) = 12.28269 23.44563 17.86416
# Shear Modulus (GPa) = 16.98123 21.73101 19.35612
#
# Velocity S-wave (km/s) = 2.83418 3.20614 3.02588
# Velocity P-wave (km/s) = 4.06450 4.97958 4.54513
#
# Compressibility (1/GPa) = 0.08141541
#
# Stress axis : x y z
#
# Youngs Moduli (GPa) = 19.00460 112.63535 35.65214
#
# Poissons Ratio (x) = 0.54726 -0.10161
# Poissons Ratio (y) = 0.09234 0.07332
# Poissons Ratio (z) = -0.05416 0.23163
#
# Static dielectric constant tensor:
#      x y z
#    x 1.716740 0.000000 0.000000 
#    y 0.000000 1.797690 0.000000 
#    z 0.000000 0.000000 1.807170 
# 
# From -- ./inp_files/35118.got.cif
#   From: 2010.05.17/outbox.cif.g08.bks.cpg/sg71_18_cif.got.tgz:35118.got - 2010.06.03 16:22:01.
