data_PCOD9521531
_publ_section_title
;
Structure prediction by ZEFSAII (Michael W. Deem and Ramdas Pophale) SiO2 
 PCOD9521531
Probable space group: I M M M
;
_chemical_formula_sum "Si O2"
_cell_formula_units_Z 88
_cell_length_a 31.804794
_cell_length_b 18.303712
_cell_length_c 8.402917
_cell_angle_alpha 90.000000
_cell_angle_beta 90.000000
_cell_angle_gamma 90.000000
_cell_volume 4891.722752
_symmetry_space_group_name_H-M "I M M M"
_symmetry_group_IT_number 71
_symmetry_cell_setting 'orthorhombic'
loop_
_space_group_symop_operation_xyz
x,y,z
-x,-y,z
x,-y,-z
-x,y,-z
-x,-y,-z
x,y,-z
-x,y,z
x,-y,z
1/2+x,1/2+y,1/2+z
1/2-x,1/2-y,1/2+z
1/2+x,1/2-y,1/2-z
1/2-x,1/2+y,1/2-z
1/2-x,1/2-y,1/2-z
1/2+x,1/2+y,1/2-z
1/2-x,1/2+y,1/2+z
1/2+x,1/2-y,1/2+z
loop_
_atom_site_type_symbol
_atom_site_label
_atom_site_fract_x
_atom_site_fract_y
_atom_site_fract_z
Si Si1 0.203147 0.236766 0.688637
Si Si2 0.119236 0.695938 0.809163
Si Si3 0.586590 0.646863 0.693220
Si Si4 0.452270 0.914461 0.191991
Si Si5 0.172388 0.919919 0.807753
Si Si6 0.000000 0.915993 0.195056
O O1 0.201929 0.242316 0.500000
O O2 0.250000 0.250000 0.750000
O O3 0.167805 0.293507 0.754668
O O4 0.192433 0.153651 0.740059
O O5 0.099034 0.772596 0.752648
O O6 0.087465 0.632651 0.751790
O O7 0.119730 0.693678 0.000000
O O8 0.585178 0.649430 0.500000
O O9 0.623163 0.589881 0.732588
O O10 0.541735 0.622821 0.752927
O O11 0.500000 0.890701 0.244019
O O12 0.447775 0.000000 0.237604
O O13 0.452074 0.911080 0.000000
O O14 0.187628 0.000000 0.754663
O O15 0.176425 0.917028 0.000000
O O16 0.000000 0.000000 0.240255
O O17 0.000000 0.913584 0.000000
#
# Coordination Sequence:
#
# PCOD9521531 Si02
#       6
#    16  16  16  16  16   8
#     4  11  22  38  59  81 109 141 180 227 280 337
#     4  10  20  34  54  80 109 140 181 228 276 328
#     4   8  15  25  40  67 102 137 172 210 251 295
#     4   9  19  36  56  79 111 151 191 231 281 342
#     4   9  17  32  53  77 107 141 177 218 265 315
#     4   9  14  20  34  60  96 135 170 202 239 281
#
# _framework density 17.989573
#
# number of rings (size 3 to 8) (size 9 to 14) (size 15 to 20)
#    0.000    2.636    0.000    4.364    1.273    3.273 
#    0.000    1.818    0.000    5.455    0.000    0.000 
#    0.000    7.636    0.000    0.000    0.000    0.000 
#
# Total GULP energy -245028.747987 kJ/mol
# GULP energy per Si atom -5568.835182 kJ/mol
# Density = 1.794863 g / cm^3
# Si number density = 17.989573 Si / 1000 Ang^3
#
#
#
# Elastic Constant Matrix: (Units=GPa)
#
#
# Indices 1 2 3 4 5 6 
#
# 1 165.9601 70.4745 35.6029 0.0000 0.0000 0.0000
# 2 70.4745 91.8184 28.3536 0.0000 0.0000 0.0000
# 3 35.6029 28.3536 47.1947 0.0000 0.0000 0.0000
# 4 0.0000 0.0000 0.0000 21.2006 0.0000 0.0000
# 5 0.0000 0.0000 0.0000 0.0000 21.7150 0.0000
# 6 0.0000 0.0000 0.0000 0.0000 0.0000 19.6804
#
#
#
# Elastic Compliance Matrix: (Units=1/GPa)
#
#
# Indices 1 2 3 4 5 6 
#
# 1 0.009356 -0.006141 -0.003369 0.000000 0.000000 0.000000
# 2 -0.006141 0.017402 -0.005822 0.000000 0.000000 0.000000
# 3 -0.003369 -0.005822 0.027228 0.000000 0.000000 0.000000
# 4 0.000000 0.000000 0.000000 0.047168 0.000000 0.000000
# 5 0.000000 0.000000 0.000000 0.000000 0.046051 0.000000
# 6 0.000000 0.000000 0.000000 0.000000 0.000000 0.050812
#
#
# Mechanical properties :
#
#
# Convention : Reuss Voigt Hill
#
# Bulk Modulus (GPa) = 42.87708 63.75948 53.31828
# Shear Modulus (GPa) = 21.14561 23.88870 22.51715
#
# Velocity S-wave (km/s) = 3.43218 3.64802 3.54174
# Velocity P-wave (km/s) = 6.29227 7.29818 6.81381
#
# Compressibility (1/GPa) = 0.02332248
#
# Stress axis : x y z
#
# Youngs Moduli (GPa) = 106.88464 57.46348 36.72679
#
# Poissons Ratio (x) = 0.35287 0.12372
# Poissons Ratio (y) = 0.65636 0.21384
# Poissons Ratio (z) = 0.36006 0.33458
#
# Static dielectric constant tensor:
#      x y z
#    x 1.629600 0.000000 0.000000 
#    y 0.000000 1.610100 0.000000 
#    z 0.000000 0.000000 1.628480 
# 
# From -- ./inp_files/16658.got.cif
#   From: 2010.05.17/outbox.cif.g08.bks.cpg/sg71_9_cif.got.tgz:16658.got - 2010.06.03 16:22:01.
