data_PCOD9521973
_publ_section_title
;
Structure prediction by ZEFSAII (Michael W. Deem and Ramdas Pophale) SiO2 
 PCOD9521973
Probable space group: I M M M
;
_chemical_formula_sum "Si O2"
_cell_formula_units_Z 116
_cell_length_a 27.809861
_cell_length_b 24.729047
_cell_length_c 7.537977
_cell_angle_alpha 90.000000
_cell_angle_beta 90.000000
_cell_angle_gamma 90.000000
_cell_volume 5183.952412
_symmetry_space_group_name_H-M "I M M M"
_symmetry_group_IT_number 71
_symmetry_cell_setting 'orthorhombic'
loop_
_space_group_symop_operation_xyz
x,y,z
-x,-y,z
x,-y,-z
-x,y,-z
-x,-y,-z
x,y,-z
-x,y,z
x,-y,z
1/2+x,1/2+y,1/2+z
1/2-x,1/2-y,1/2+z
1/2+x,1/2-y,1/2-z
1/2-x,1/2+y,1/2-z
1/2-x,1/2-y,1/2-z
1/2+x,1/2+y,1/2-z
1/2-x,1/2+y,1/2+z
1/2+x,1/2-y,1/2+z
loop_
_atom_site_type_symbol
_atom_site_label
_atom_site_fract_x
_atom_site_fract_y
_atom_site_fract_z
Si Si1 0.897346 0.223726 0.204006
Si Si2 0.197982 0.273299 0.786982
Si Si3 0.077843 0.892187 0.783971
Si Si4 0.181958 0.939008 0.788708
Si Si5 0.116316 0.441706 0.213943
Si Si6 0.554192 0.835635 0.209300
Si Si7 0.500000 0.573830 0.000000
Si Si8 0.286624 0.893481 0.287277
O O1 0.845242 0.236755 0.286029
O O2 0.926176 0.171620 0.269553
O O3 0.924644 0.280760 0.209333
O O4 0.888118 0.208333 0.000000
O O5 0.250000 0.250000 0.750000
O O6 0.198289 0.334470 0.718464
O O7 0.191256 0.276076 0.000000
O O8 0.132816 0.908833 0.739682
O O9 0.041695 0.924082 0.658009
O O10 0.069583 0.899310 0.000000
O O11 0.232007 0.908905 0.752089
O O12 0.183710 0.000000 0.714502
O O13 0.179276 0.943178 0.000000
O O14 0.097622 0.500000 0.277247
O O15 0.086071 0.388834 0.262329
O O16 0.171601 0.433922 0.273637
O O17 0.116131 0.442921 0.000000
O O18 0.500000 0.845256 0.273901
O O19 0.552909 0.825231 0.000000
O O20 0.289720 0.891681 0.500000
#
# Coordination Sequence:
#
# PCOD9521973 Si02
#       8
#    16  16  16  16  16  16   4  16
#     4  10  21  40  63  87 124 166 207 259 318 382
#     4  10  20  35  56  86 124 164 202 249 309 373
#     4  10  24  44  67  99 134 172 221 276 332 393
#     4  10  22  42  66  93 130 171 213 264 323 392
#     4  10  21  40  63  87 119 161 211 263 316 381
#     4  11  25  40  59  88 121 160 209 265 319 379
#     4  12  26  44  73 100 132 176 221 278 334 406
#     4  10  20  36  60  91 125 162 209 259 313 379
#
# _framework density 22.376749
#
# number of rings (size 3 to 8) (size 9 to 14) (size 15 to 20)
#    0.000    1.793    1.379    1.862    2.897    5.241 
#    0.000    2.069    0.000    1.655    0.000    0.000 
#    0.000    0.000    0.000    0.000    0.000    0.000 
#
# Total GULP energy -323342.245153 kJ/mol
# GULP energy per Si atom -5574.866296 kJ/mol
# Density = 2.232582 g / cm^3
# Si number density = 22.376749 Si / 1000 Ang^3
#
#
#
# Elastic Constant Matrix: (Units=GPa)
#
#
# Indices 1 2 3 4 5 6 
#
# 1 111.6759 -13.7423 10.8251 0.0000 0.0000 0.0000
# 2 -13.7423 39.0095 1.3433 0.0000 0.0000 0.0000
# 3 10.8251 1.3433 76.4934 0.0000 0.0000 0.0000
# 4 0.0000 0.0000 0.0000 15.1710 0.0000 0.0000
# 5 0.0000 0.0000 0.0000 0.0000 38.7607 0.0000
# 6 0.0000 0.0000 0.0000 0.0000 0.0000 -7.1145
#
#
#
# Elastic Compliance Matrix: (Units=1/GPa)
#
#
# Indices 1 2 3 4 5 6 
#
# 1 0.009509 0.003398 -0.001405 0.000000 0.000000 0.000000
# 2 0.003398 0.026865 -0.000953 0.000000 0.000000 0.000000
# 3 -0.001405 -0.000953 0.013289 0.000000 0.000000 0.000000
# 4 0.000000 0.000000 0.000000 0.065915 0.000000 0.000000
# 5 0.000000 0.000000 0.000000 0.000000 0.025799 0.000000
# 6 0.000000 0.000000 0.000000 0.000000 0.000000 -0.140558
#
#
# Mechanical properties :
#
#
# Convention : Reuss Voigt Hill
#
# Bulk Modulus (GPa) = 19.32644 24.89234 22.10939
# Shear Modulus (GPa) = 312.77987 24.61363 168.69675
#
# Velocity S-wave (km/s) = 11.83564 3.32017 8.69212
# Velocity P-wave (km/s) = 13.97970 5.08393 10.51852
#
# Compressibility (1/GPa) = 0.05174259
#
# Stress axis : x y z
#
# Youngs Moduli (GPa) = 105.16493 37.22353 75.25231
#
# Poissons Ratio (x) = -0.12649 0.10576
# Poissons Ratio (y) = -0.35737 0.07169
# Poissons Ratio (z) = 0.14779 0.03546
#
# Static dielectric constant tensor:
#      x y z
#    x 1.807100 0.000000 0.000000 
#    y 0.000000 1.874570 0.000000 
#    z 0.000000 0.000000 1.852010 
# 
# From -- ./inp_files/13428.got.cif
#   From: 2010.05.17/outbox.cif.g08.bks.cpg/sg71_7_cif.got.tgz:13428.got - 2010.06.03 16:22:01.
