data_PCOD9521072
_publ_section_title
;
Structure prediction by ZEFSAII (Michael W. Deem and Ramdas Pophale) SiO2 
 PCOD9521072
Probable space group: I M M M
;
_chemical_formula_sum "Si O2"
_cell_formula_units_Z 96
_cell_length_a 24.573365
_cell_length_b 13.142128
_cell_length_c 16.905200
_cell_angle_alpha 90.000000
_cell_angle_beta 90.000000
_cell_angle_gamma 90.000000
_cell_volume 5459.471930
_symmetry_space_group_name_H-M "I M M M"
_symmetry_group_IT_number 71
_symmetry_cell_setting 'orthorhombic'
loop_
_space_group_symop_operation_xyz
x,y,z
-x,-y,z
x,-y,-z
-x,y,-z
-x,-y,-z
x,y,-z
-x,y,z
x,-y,z
1/2+x,1/2+y,1/2+z
1/2-x,1/2-y,1/2+z
1/2+x,1/2-y,1/2-z
1/2-x,1/2+y,1/2-z
1/2-x,1/2-y,1/2-z
1/2+x,1/2+y,1/2-z
1/2-x,1/2+y,1/2+z
1/2+x,1/2-y,1/2+z
loop_
_atom_site_type_symbol
_atom_site_label
_atom_site_fract_x
_atom_site_fract_y
_atom_site_fract_z
Si Si1 0.561742 0.617770 0.878657
Si Si2 0.937511 0.198824 0.796189
Si Si3 0.862876 0.616487 0.256075
Si Si4 0.769773 0.710470 0.165247
Si Si5 0.836251 0.743489 0.411331
Si Si6 0.655005 0.384247 0.593939
O O1 0.500000 0.647313 0.902241
O O2 0.569896 0.500000 0.899534
O O3 0.564422 0.631680 0.783639
O O4 0.609175 0.689139 0.910738
O O5 0.909815 0.306250 0.772649
O O6 0.900442 0.146334 0.861989
O O7 0.000000 0.210926 0.820006
O O8 0.879832 0.500000 0.262711
O O9 0.814530 0.627756 0.190937
O O10 0.843277 0.659528 0.341837
O O11 0.750000 0.750000 0.250000
O O12 0.715757 0.688283 0.115006
O O13 0.800535 0.803078 0.122269
O O14 0.827418 0.702805 0.500000
O O15 0.648686 0.378515 0.500000
O O16 0.670364 0.500000 0.615471
#
# Coordination Sequence:
#
# PCOD9521072 Si02
#       6
#    16  16  16  16  16  16
#     4   9  18  33  52  73 100 135 171 207 249 299
#     4   9  18  33  53  76 102 134 173 212 246 292
#     4   9  19  35  53  73  98 132 173 214 253 292
#     4   9  19  34  50  71 100 134 171 207 243 294
#     4  10  20  33  51  77 105 131 164 208 258 309
#     4  10  20  33  52  80 111 136 158 199 262 315
#
# _framework density 17.584116999999999
#
# number of rings (size 3 to 8) (size 9 to 14) (size 15 to 20)
#    0.000    2.667    0.000    2.000    0.000    6.000 
#    0.000    1.667    0.000   12.000    0.000    9.333 
#    0.000    0.000    0.000    0.000    0.000    0.000 
#
# Total GULP energy -267440.409156 kJ/mol
# GULP energy per Si atom -5571.675191 kJ/mol
# Density = 1.754410 g / cm^3
# Si number density = 17.584117 Si / 1000 Ang^3
#
#
#
# Elastic Constant Matrix: (Units=GPa)
#
#
# Indices 1 2 3 4 5 6 
#
# 1 89.0636 15.4833 31.5984 0.0000 0.0000 0.0000
# 2 15.4833 76.3833 28.1315 0.0000 0.0000 0.0000
# 3 31.5984 28.1315 84.4799 0.0000 0.0000 0.0000
# 4 0.0000 0.0000 0.0000 5.4227 0.0000 0.0000
# 5 0.0000 0.0000 0.0000 0.0000 10.6702 0.0000
# 6 0.0000 0.0000 0.0000 0.0000 0.0000 6.3343
#
#
#
# Elastic Compliance Matrix: (Units=1/GPa)
#
#
# Indices 1 2 3 4 5 6 
#
# 1 0.013008 -0.000963 -0.004545 0.000000 0.000000 0.000000
# 2 -0.000963 0.014993 -0.004632 0.000000 0.000000 0.000000
# 3 -0.004545 -0.004632 0.015080 0.000000 0.000000 0.000000
# 4 0.000000 0.000000 0.000000 0.184411 0.000000 0.000000
# 5 0.000000 0.000000 0.000000 0.000000 0.093719 0.000000
# 6 0.000000 0.000000 0.000000 0.000000 0.000000 0.157872
#
#
# Mechanical properties :
#
#
# Convention : Reuss Voigt Hill
#
# Bulk Modulus (GPa) = 43.85915 44.48367 44.17141
# Shear Modulus (GPa) = 9.86268 16.13301 12.99785
#
# Velocity S-wave (km/s) = 2.37087 3.03227 2.72174
# Velocity P-wave (km/s) = 5.70012 6.13287 5.92045
#
# Compressibility (1/GPa) = 0.02280026
#
# Stress axis : x y z
#
# Youngs Moduli (GPa) = 76.87743 66.69698 66.31477
#
# Poissons Ratio (x) = 0.06423 0.30138
# Poissons Ratio (y) = 0.07403 0.30720
# Poissons Ratio (z) = 0.34938 0.30897
#
# Static dielectric constant tensor:
#      x y z
#    x 1.620120 0.000000 0.000000 
#    y 0.000000 1.563080 0.000000 
#    z 0.000000 0.000000 1.622050 
# 
# From -- ./inp_files/24458.got.cif
#   From: 2010.05.17/outbox.cif.g08.bks.cpg/sg71_13_cif.got.tgz:24458.got - 2010.06.03 16:22:01.
