data_PCOD9521729
_publ_section_title
;
Structure prediction by ZEFSAII (Michael W. Deem and Ramdas Pophale) SiO2 
 PCOD9521729
Probable space group: I M M M
;
_chemical_formula_sum "Si O2"
_cell_formula_units_Z 116
_cell_length_a 18.518591
_cell_length_b 20.547980
_cell_length_c 14.729088
_cell_angle_alpha 90.000000
_cell_angle_beta 90.000000
_cell_angle_gamma 90.000000
_cell_volume 5604.707226
_symmetry_space_group_name_H-M "I M M M"
_symmetry_group_IT_number 71
_symmetry_cell_setting 'orthorhombic'
loop_
_space_group_symop_operation_xyz
x,y,z
-x,-y,z
x,-y,-z
-x,y,-z
-x,-y,-z
x,y,-z
-x,y,z
x,-y,z
1/2+x,1/2+y,1/2+z
1/2-x,1/2-y,1/2+z
1/2+x,1/2-y,1/2-z
1/2-x,1/2+y,1/2-z
1/2-x,1/2-y,1/2-z
1/2+x,1/2+y,1/2-z
1/2-x,1/2+y,1/2+z
1/2+x,1/2-y,1/2+z
loop_
_atom_site_type_symbol
_atom_site_label
_atom_site_fract_x
_atom_site_fract_y
_atom_site_fract_z
Si Si1 0.222274 0.500000 0.500000
Si Si2 0.733514 0.605089 0.354711
Si Si3 0.421496 0.382302 0.300021
Si Si4 0.579565 0.873240 0.601627
Si Si5 0.610884 0.425027 0.097784
Si Si6 0.711114 0.246704 0.895082
Si Si7 0.919597 0.738866 0.748074
Si Si8 0.731451 0.889373 0.646106
O O1 0.226862 0.443033 0.421649
O O2 0.648183 0.588458 0.348557
O O3 0.744412 0.680204 0.382943
O O4 0.763097 0.598742 0.253044
O O5 0.500000 0.405535 0.330892
O O6 0.415479 0.393422 0.191056
O O7 0.416391 0.304540 0.307243
O O8 0.581024 0.843431 0.500000
O O9 0.500000 0.905201 0.610125
O O10 0.585200 0.821159 0.682822
O O11 0.654207 0.912073 0.610198
O O12 0.588537 0.500000 0.100408
O O13 0.697768 0.420988 0.102574
O O14 0.588062 0.396847 0.000000
O O15 0.643543 0.241740 0.826185
O O16 0.756281 0.311660 0.871109
O O17 0.688227 0.252358 0.000000
O O18 0.000000 0.737037 0.705441
#
# Coordination Sequence:
#
# PCOD9521729 Si02
#       8
#     4  16  16  16  16  16  16  16
#     4  12  28  48  65 100 123 172 230 266 318 386
#     4  11  23  42  64  85 125 161 213 267 318 379
#     4  10  22  38  58  82 120 166 208 257 310 368
#     4  10  20  34  56  89 129 166 201 250 321 394
#     4  10  21  36  55  84 117 155 203 251 305 371
#     4  12  21  37  64  95 122 165 214 275 331 384
#     4  10  20  36  56  90 132 166 207 262 331 388
#     4  11  21  36  63  90 120 159 208 266 322 378
#
# _framework density 20.696888000000001
#
# number of rings (size 3 to 8) (size 9 to 14) (size 15 to 20)
#    0.000    1.379    4.828    2.483    3.862    0.828 
#    1.241    2.759    0.000    0.414    0.000    5.310 
#    0.000    0.000    0.000    0.000    0.000    0.000 
#
# Total GULP energy -323253.577610 kJ/mol
# GULP energy per Si atom -5573.337545 kJ/mol
# Density = 2.064978 g / cm^3
# Si number density = 20.696888 Si / 1000 Ang^3
#
#
#
# Elastic Constant Matrix: (Units=GPa)
#
#
# Indices 1 2 3 4 5 6 
#
# 1 141.5415 -1.7968 6.8904 0.0000 0.0000 0.0000
# 2 -1.7968 51.7392 2.8282 0.0000 0.0000 0.0000
# 3 6.8904 2.8282 87.6405 0.0000 0.0000 0.0000
# 4 0.0000 0.0000 0.0000 35.6370 0.0000 0.0000
# 5 0.0000 0.0000 0.0000 0.0000 2.9814 0.0000
# 6 0.0000 0.0000 0.0000 0.0000 0.0000 -15.1510
#
#
#
# Elastic Compliance Matrix: (Units=1/GPa)
#
#
# Indices 1 2 3 4 5 6 
#
# 1 0.007096 0.000277 -0.000567 0.000000 0.000000 0.000000
# 2 0.000277 0.019373 -0.000647 0.000000 0.000000 0.000000
# 3 -0.000567 -0.000647 0.011476 0.000000 0.000000 0.000000
# 4 0.000000 0.000000 0.000000 0.028061 0.000000 0.000000
# 5 0.000000 0.000000 0.000000 0.000000 0.335418 0.000000
# 6 0.000000 0.000000 0.000000 0.000000 0.000000 -0.066002
#
#
# Mechanical properties :
#
#
# Convention : Reuss Voigt Hill
#
# Bulk Modulus (GPa) = 27.72253 32.97387 30.34820
# Shear Modulus (GPa) = 14.31360 22.89342 18.60351
#
# Velocity S-wave (km/s) = 2.63265 3.32946 3.00134
# Velocity P-wave (km/s) = 4.76075 5.54498 5.16776
#
# Compressibility (1/GPa) = 0.03607174
#
# Stress axis : x y z
#
# Youngs Moduli (GPa) = 140.92082 51.61904 87.14066
#
# Poissons Ratio (x) = -0.01432 0.04940
# Poissons Ratio (y) = -0.03909 0.05638
# Poissons Ratio (z) = 0.07988 0.03340
#
# Static dielectric constant tensor:
#      x y z
#    x 1.805730 0.000000 0.000000 
#    y 0.000000 1.738500 0.000000 
#    z 0.000000 0.000000 1.731340 
# 
# From -- ./inp_files/37006.got.cif
#   From: 2010.05.17/outbox.cif.g08.bks.cpg/sg71_19_cif.got.tgz:37006.got - 2010.06.03 16:22:01.
