data_PCOD9521457
_publ_section_title
;
Structure prediction by ZEFSAII (Michael W. Deem and Ramdas Pophale) SiO2 
 PCOD9521457
Probable space group: I M M M
;
_chemical_formula_sum "Si O2"
_cell_formula_units_Z 80
_cell_length_a 15.453478
_cell_length_b 29.319997
_cell_length_c 8.902159
_cell_angle_alpha 90.000000
_cell_angle_beta 90.000000
_cell_angle_gamma 90.000000
_cell_volume 4033.531999
_symmetry_space_group_name_H-M "I M M M"
_symmetry_group_IT_number 71
_symmetry_cell_setting 'orthorhombic'
loop_
_space_group_symop_operation_xyz
x,y,z
-x,-y,z
x,-y,-z
-x,y,-z
-x,-y,-z
x,y,-z
-x,y,z
x,-y,z
1/2+x,1/2+y,1/2+z
1/2-x,1/2-y,1/2+z
1/2+x,1/2-y,1/2-z
1/2-x,1/2+y,1/2-z
1/2-x,1/2-y,1/2-z
1/2+x,1/2+y,1/2-z
1/2-x,1/2+y,1/2+z
1/2+x,1/2-y,1/2+z
loop_
_atom_site_type_symbol
_atom_site_label
_atom_site_fract_x
_atom_site_fract_y
_atom_site_fract_z
Si Si1 0.231547 0.948934 0.180425
Si Si2 0.900613 0.682265 0.665930
Si Si3 0.899801 0.130540 0.182922
Si Si4 0.398367 0.090042 0.320799
Si Si5 0.339030 0.731845 0.680120
O O1 0.164393 0.909890 0.232524
O O2 0.326826 0.942724 0.249861
O O3 0.199168 0.000000 0.213322
O O4 0.239740 0.944335 0.000000
O O5 0.858222 0.684878 0.500000
O O6 0.867536 0.640131 0.763490
O O7 0.900673 0.729907 0.751221
O O8 0.000000 0.670331 0.644774
O O9 0.863892 0.180569 0.226004
O O10 0.000000 0.125261 0.231574
O O11 0.900505 0.129752 0.000000
O O12 0.394574 0.088595 0.500000
O O13 0.500000 0.081354 0.279572
O O14 0.338659 0.733986 0.500000
O O15 0.250000 0.750000 0.750000
#
# Coordination Sequence:
#
# PCOD9521457 Si02
#       5
#    16  16  16  16  16
#     4  10  21  37  59  86 113 144 187 242 301 353
#     4  10  20  34  53  78 110 145 180 222 274 334
#     4   9  19  36  57  82 113 150 194 242 288 337
#     4  10  21  37  58  84 115 153 194 234 282 347
#     4  11  21  33  53  80 112 151 193 236 283 337
#
# _framework density 19.833735000000001
#
# number of rings (size 3 to 8) (size 9 to 14) (size 15 to 20)
#    0.000    2.000    0.000    3.600    0.000    6.000 
#    0.000    5.000    0.000    3.000    0.000    1.400 
#    0.000    0.000    0.000    0.000    0.000    0.000 
#
# Total GULP energy -222984.115794 kJ/mol
# GULP energy per Si atom -5574.602895 kJ/mol
# Density = 1.978859 g / cm^3
# Si number density = 19.833735 Si / 1000 Ang^3
#
#
#
# Elastic Constant Matrix: (Units=GPa)
#
#
# Indices 1 2 3 4 5 6 
#
# 1 115.2880 57.0038 25.5481 0.0005 -0.0003 -0.0001
# 2 57.0038 132.1041 31.1624 0.0003 -0.0005 0.0000
# 3 25.5481 31.1624 38.7512 -0.0086 0.0015 -0.0005
# 4 0.0005 0.0003 -0.0086 22.0717 0.0001 -0.0001
# 5 -0.0003 -0.0005 0.0015 0.0001 24.1406 0.0000
# 6 -0.0001 0.0000 -0.0005 -0.0001 0.0000 26.3278
#
#
#
# Elastic Compliance Matrix: (Units=1/GPa)
#
#
# Indices 1 2 3 4 5 6 
#
# 1 0.011624 -0.003959 -0.004480 -0.000002 0.000000 0.000000
# 2 -0.003959 0.010690 -0.005987 -0.000002 0.000001 0.000000
# 3 -0.004480 -0.005987 0.033573 0.000013 -0.000002 0.000001
# 4 -0.000002 -0.000002 0.000013 0.045307 0.000000 0.000000
# 5 0.000000 0.000001 -0.000002 0.000000 0.041424 0.000000
# 6 0.000000 0.000000 0.000001 0.000000 0.000000 0.037983
#
#
# Mechanical properties :
#
#
# Convention : Reuss Voigt Hill
#
# Bulk Modulus (GPa) = 36.98673 57.06356 47.02514
# Shear Modulus (GPa) = 22.88692 26.00328 24.44510
#
# Velocity S-wave (km/s) = 3.40065 3.62479 3.51451
# Velocity P-wave (km/s) = 5.84022 6.80825 6.34273
#
# Compressibility (1/GPa) = 0.02703672
#
# Stress axis : x y z
#
# Youngs Moduli (GPa) = 86.02665 93.54175 29.78544
#
# Poissons Ratio (x) = 0.37035 0.13344
# Poissons Ratio (y) = 0.34060 0.17831
# Poissons Ratio (z) = 0.38539 0.56000
#
# Static dielectric constant tensor:
#      x y z
#    x 1.507770 0.000000 0.000000 
#    y 0.000000 1.721380 0.000000 
#    z 0.000000 0.000000 1.703420 
# 
# From -- ./inp_files/8364.got.cif
#   From: 2010.05.17/outbox.cif.g08.bks.cpg/sg71_5_cif.got.tgz:8364.got - 2010.06.03 16:22:01.
