data_PCOD9521907
_publ_section_title
;
Structure prediction by ZEFSAII (Michael W. Deem and Ramdas Pophale) SiO2 
 PCOD9521907
Probable space group: I M M M
;
_chemical_formula_sum "Si O2"
_cell_formula_units_Z 88
_cell_length_a 9.553909
_cell_length_b 20.919807
_cell_length_c 25.068645
_cell_angle_alpha 90.000000
_cell_angle_beta 90.000000
_cell_angle_gamma 90.000000
_cell_volume 5010.368106
_symmetry_space_group_name_H-M "I M M M"
_symmetry_group_IT_number 71
_symmetry_cell_setting 'orthorhombic'
loop_
_space_group_symop_operation_xyz
x,y,z
-x,-y,z
x,-y,-z
-x,y,-z
-x,-y,-z
x,y,-z
-x,y,z
x,-y,z
1/2+x,1/2+y,1/2+z
1/2-x,1/2-y,1/2+z
1/2+x,1/2-y,1/2-z
1/2-x,1/2+y,1/2-z
1/2-x,1/2-y,1/2-z
1/2+x,1/2+y,1/2-z
1/2-x,1/2+y,1/2+z
1/2+x,1/2-y,1/2+z
loop_
_atom_site_type_symbol
_atom_site_label
_atom_site_fract_x
_atom_site_fract_y
_atom_site_fract_z
Si Si1 0.332639 0.792798 0.792602
Si Si2 0.156487 0.382989 0.936008
Si Si3 0.166722 0.428767 0.334094
Si Si4 0.835794 0.895591 0.940452
Si Si5 0.337836 0.741529 0.604537
Si Si6 0.158656 0.000000 0.565314
O O1 0.500000 0.785460 0.786738
O O2 0.250000 0.750000 0.750000
O O3 0.299050 0.869181 0.795146
O O4 0.274575 0.769393 0.849468
O O5 0.187095 0.310334 0.920901
O O6 0.262938 0.436254 0.916390
O O7 0.000000 0.398529 0.916774
O O8 0.155191 0.386689 0.000000
O O9 0.195767 0.500000 0.312718
O O10 0.248407 0.421009 0.390196
O O11 0.000000 0.423986 0.344634
O O12 0.827737 0.818369 0.935332
O O13 0.000000 0.913043 0.934571
O O14 0.789829 0.915211 0.000000
O O15 0.500000 0.740491 0.624978
O O16 0.160476 0.000000 0.500000
O O17 0.000000 0.000000 0.582833
#
# Coordination Sequence:
#
# PCOD9521907 Si02
#       6
#    16  16  16  16  16   8
#     4  10  20  35  56  77  97 123 160 206 255 302
#     4   9  16  27  45  67  92 125 164 200 235 285
#     4   9  19  35  53  74 101 134 170 205 244 294
#     4   9  17  29  46  72 106 139 170 204 241 282
#     4   9  17  30  49  72  97 126 162 202 246 292
#     4   9  17  27  39  59  89 125 161 197 239 283
#
# _framework density 17.563580000000002
#
# number of rings (size 3 to 8) (size 9 to 14) (size 15 to 20)
#    0.000    2.818    0.000    1.364    0.000    5.818 
#    0.000    1.818    2.000    3.273    0.000    0.000 
#    0.000    0.000    0.000    0.000    0.000    0.000 
#
# Total GULP energy -245012.686246 kJ/mol
# GULP energy per Si atom -5568.470142 kJ/mol
# Density = 1.752360 g / cm^3
# Si number density = 17.563580 Si / 1000 Ang^3
#
#
#
# Elastic Constant Matrix: (Units=GPa)
#
#
# Indices 1 2 3 4 5 6 
#
# 1 62.4740 61.0854 22.9878 0.0000 0.0000 0.0000
# 2 61.0854 132.2158 20.2300 0.0000 0.0000 0.0000
# 3 22.9878 20.2300 45.6789 0.0000 0.0000 0.0000
# 4 0.0000 0.0000 0.0000 11.4288 0.0000 0.0000
# 5 0.0000 0.0000 0.0000 0.0000 23.0103 0.0000
# 6 0.0000 0.0000 0.0000 0.0000 0.0000 22.5151
#
#
#
# Elastic Compliance Matrix: (Units=1/GPa)
#
#
# Indices 1 2 3 4 5 6 
#
# 1 0.033465 -0.013821 -0.010720 0.000000 0.000000 0.000000
# 2 -0.013821 0.013821 0.000834 0.000000 0.000000 0.000000
# 3 -0.010720 0.000834 0.026917 0.000000 0.000000 0.000000
# 4 0.000000 0.000000 0.000000 0.087498 0.000000 0.000000
# 5 0.000000 0.000000 0.000000 0.000000 0.043459 0.000000
# 6 0.000000 0.000000 0.000000 0.000000 0.000000 0.044415
#
#
# Mechanical properties :
#
#
# Convention : Reuss Voigt Hill
#
# Bulk Modulus (GPa) = 37.32763 49.88612 43.60687
# Shear Modulus (GPa) = 16.34422 20.46189 18.40306
#
# Velocity S-wave (km/s) = 3.05384 3.41694 3.24048
# Velocity P-wave (km/s) = 5.80806 6.63567 6.23561
#
# Compressibility (1/GPa) = 0.02678981
#
# Stress axis : x y z
#
# Youngs Moduli (GPa) = 29.88197 72.35258 37.15075
#
# Poissons Ratio (x) = 0.99998 0.39826
# Poissons Ratio (y) = 0.41300 -0.03100
# Poissons Ratio (z) = 0.32034 -0.06036
#
# Static dielectric constant tensor:
#      x y z
#    x 1.593870 0.000000 0.000000 
#    y 0.000000 1.628440 0.000000 
#    z 0.000000 0.000000 1.580080 
# 
# From -- ./inp_files/10440.got.cif
#   From: 2010.05.17/outbox.cif.g08.bks.cpg/sg71_6_cif.got.tgz:10440.got - 2010.06.03 16:22:01.
