data_PCOD9521877
_publ_section_title
;
Structure prediction by ZEFSAII (Michael W. Deem and Ramdas Pophale) SiO2 
 PCOD9521877
Probable space group: I M M M
;
_chemical_formula_sum "Si O2"
_cell_formula_units_Z 88
_cell_length_a 15.284893
_cell_length_b 13.745937
_cell_length_c 19.679649
_cell_angle_alpha 90.000000
_cell_angle_beta 90.000000
_cell_angle_gamma 90.000000
_cell_volume 4134.796121
_symmetry_space_group_name_H-M "I M M M"
_symmetry_group_IT_number 71
_symmetry_cell_setting 'orthorhombic'
loop_
_space_group_symop_operation_xyz
x,y,z
-x,-y,z
x,-y,-z
-x,y,-z
-x,-y,-z
x,y,-z
-x,y,z
x,-y,z
1/2+x,1/2+y,1/2+z
1/2-x,1/2-y,1/2+z
1/2+x,1/2-y,1/2-z
1/2-x,1/2+y,1/2-z
1/2-x,1/2-y,1/2-z
1/2+x,1/2+y,1/2-z
1/2-x,1/2+y,1/2+z
1/2+x,1/2-y,1/2+z
loop_
_atom_site_type_symbol
_atom_site_label
_atom_site_fract_x
_atom_site_fract_y
_atom_site_fract_z
Si Si1 0.000000 0.110819 0.082862
Si Si2 0.892890 0.386774 0.811557
Si Si3 0.338740 0.743800 0.420325
Si Si4 0.606433 0.613297 0.924170
Si Si5 0.401760 0.237982 0.185916
Si Si6 0.166915 0.388072 0.577637
O O1 0.084274 0.171687 0.103986
O O2 0.000000 0.000000 0.107369
O O3 0.000000 0.106941 0.000000
O O4 0.870890 0.500000 0.799224
O O5 0.849767 0.342858 0.879031
O O6 0.861914 0.313073 0.751902
O O7 0.000000 0.382084 0.815777
O O8 0.351453 0.763425 0.500000
O O9 0.251073 0.680750 0.413365
O O10 0.500000 0.621553 0.925158
O O11 0.628281 0.500000 0.918501
O O12 0.636703 0.673057 0.858263
O O13 0.636455 0.647231 0.000000
O O14 0.500000 0.267670 0.205140
O O15 0.402623 0.151538 0.130507
O O16 0.136081 0.380316 0.500000
O O17 0.190434 0.500000 0.589940
#
# Coordination Sequence:
#
# PCOD9521877 Si02
#       6
#     8  16  16  16  16  16
#     4   9  16  30  55  81 103 131 169 218 278 341
#     4  10  21  37  57  81 112 148 189 237 285 333
#     4  10  20  36  57  81 108 141 184 233 290 347
#     4   8  14  27  49  75 103 139 183 229 272 312
#     4  10  20  35  55  79 114 155 194 227 271 329
#     4  10  21  36  55  82 114 145 182 232 282 330
#
# _framework density 21.282789999999999
#
# number of rings (size 3 to 8) (size 9 to 14) (size 15 to 20)
#    0.000    2.455    0.909    2.182    0.000    5.455 
#    0.000    4.545    0.000    1.091    0.000    0.000 
#    0.000    0.000    0.000    0.000    0.000    0.000 
#
# Total GULP energy -245376.333914 kJ/mol
# GULP energy per Si atom -5576.734862 kJ/mol
# Density = 2.123435 g / cm^3
# Si number density = 21.282790 Si / 1000 Ang^3
#
#
#
# Elastic Constant Matrix: (Units=GPa)
#
#
# Indices 1 2 3 4 5 6 
#
# 1 27.6191 1.7150 13.6118 0.0000 0.0000 0.0000
# 2 1.7150 133.7298 60.6305 0.0000 0.0000 0.0000
# 3 13.6118 60.6305 81.4447 0.0000 0.0000 0.0000
# 4 0.0000 0.0000 0.0000 38.0601 0.0000 0.0000
# 5 0.0000 0.0000 0.0000 0.0000 6.4398 0.0000
# 6 0.0000 0.0000 0.0000 0.0000 0.0000 21.0471
#
#
#
# Elastic Compliance Matrix: (Units=1/GPa)
#
#
# Indices 1 2 3 4 5 6 
#
# 1 0.040743 0.003871 -0.009691 0.000000 0.000000 0.000000
# 2 0.003871 0.011655 -0.009324 0.000000 0.000000 0.000000
# 3 -0.009691 -0.009324 0.020839 0.000000 0.000000 0.000000
# 4 0.000000 0.000000 0.000000 0.026274 0.000000 0.000000
# 5 0.000000 0.000000 0.000000 0.000000 0.155284 0.000000
# 6 0.000000 0.000000 0.000000 0.000000 0.000000 0.047513
#
#
# Mechanical properties :
#
#
# Convention : Reuss Voigt Hill
#
# Bulk Modulus (GPa) = 23.28309 43.85647 33.56978
# Shear Modulus (GPa) = 14.41292 24.23181 19.32237
#
# Velocity S-wave (km/s) = 2.60515 3.37792 3.01639
# Velocity P-wave (km/s) = 4.47355 5.98875 5.28572
#
# Compressibility (1/GPa) = 0.04294962
#
# Stress axis : x y z
#
# Youngs Moduli (GPa) = 24.54431 85.79811 47.98740
#
# Poissons Ratio (x) = -0.33215 0.46506
# Poissons Ratio (y) = -0.09502 0.44742
# Poissons Ratio (z) = 0.23787 0.79995
#
# Static dielectric constant tensor:
#      x y z
#    x 1.786820 0.000000 0.000000 
#    y 0.000000 1.760570 0.000000 
#    z 0.000000 0.000000 1.771640 
# 
# From -- ./inp_files/45859.got.cif
#   From: 2010.05.17/outbox.cif.g08.bks.cpg/sg71_23_cif.got.tgz:45859.got - 2010.06.03 16:22:01.
