data_PCOD9521455
_publ_section_title
;
Structure prediction by ZEFSAII (Michael W. Deem and Ramdas Pophale) SiO2 
 PCOD9521455
Probable space group: I M M M
;
_chemical_formula_sum "Si O2"
_cell_formula_units_Z 104
_cell_length_a 26.697821
_cell_length_b 20.027550
_cell_length_c 8.502110
_cell_angle_alpha 90.000000
_cell_angle_beta 90.000000
_cell_angle_gamma 90.000000
_cell_volume 4546.009732
_symmetry_space_group_name_H-M "I M M M"
_symmetry_group_IT_number 71
_symmetry_cell_setting 'orthorhombic'
loop_
_space_group_symop_operation_xyz
x,y,z
-x,-y,z
x,-y,-z
-x,y,-z
-x,-y,-z
x,y,-z
-x,y,z
x,-y,z
1/2+x,1/2+y,1/2+z
1/2-x,1/2-y,1/2+z
1/2+x,1/2-y,1/2-z
1/2-x,1/2+y,1/2-z
1/2-x,1/2-y,1/2-z
1/2+x,1/2+y,1/2-z
1/2-x,1/2+y,1/2+z
1/2+x,1/2-y,1/2+z
loop_
_atom_site_type_symbol
_atom_site_label
_atom_site_fract_x
_atom_site_fract_y
_atom_site_fract_z
Si Si1 0.405296 0.576916 0.170655
Si Si2 0.693588 0.892863 0.184821
Si Si3 0.917694 0.428261 0.691473
Si Si4 0.445248 0.220218 0.809606
Si Si5 0.662509 0.246742 0.683512
Si Si6 0.440775 0.576651 0.500000
Si Si7 0.294815 0.378176 0.177933
O O1 0.423211 0.500000 0.167331
O O2 0.424215 0.607115 0.334106
O O3 0.345178 0.578473 0.178804
O O4 0.419659 0.607565 0.000000
O O5 0.640907 0.923971 0.237505
O O6 0.686665 0.814123 0.220249
O O7 0.744565 0.914070 0.267784
O O8 0.698227 0.904846 0.000000
O O9 0.919756 0.427927 0.500000
O O10 0.938264 0.500000 0.744209
O O11 0.942133 0.358334 0.739383
O O12 0.500000 0.246922 0.762199
O O13 0.394810 0.252500 0.742950
O O14 0.442298 0.222429 0.000000
O O15 0.662897 0.230100 0.500000
O O16 0.692260 0.314571 0.715029
O O17 0.420221 0.500000 0.500000
O O18 0.500000 0.573630 0.500000
O O19 0.287521 0.353502 0.000000
#
# Coordination Sequence:
#
# PCOD9521455 Si02
#       7
#    16  16  16  16  16   8  16
#     4   9  20  37  56  82 115 146 179 224 278 336
#     4  10  20  34  53  78 109 144 183 225 274 328
#     4   8  15  29  50  80 114 144 181 226 268 318
#     4   9  18  34  56  80 109 145 183 228 282 332
#     4  11  22  36  55  77 105 139 184 233 275 328
#     4   9  18  34  58  82 106 140 180 222 264 318
#     4  11  22  36  56  79 108 143 180 223 276 333
#
# _framework density 22.877205
#
# number of rings (size 3 to 8) (size 9 to 14) (size 15 to 20)
#    0.000    2.385    0.000    3.692    2.154    1.538 
#    0.000    3.846    0.000   12.000    0.000    4.308 
#    0.000    0.000    0.000    0.000    0.000    0.000 
#
# Total GULP energy -290373.141062 kJ/mol
# GULP energy per Si atom -5584.098867 kJ/mol
# Density = 2.282514 g / cm^3
# Si number density = 22.877205 Si / 1000 Ang^3
#
#
#
# Elastic Constant Matrix: (Units=GPa)
#
#
# Indices 1 2 3 4 5 6 
#
# 1 114.2372 -7.7664 39.1213 0.0000 0.0000 0.0000
# 2 -7.7664 66.8999 -8.5875 0.0000 0.0000 0.0000
# 3 39.1213 -8.5875 94.8249 0.0000 0.0000 0.0000
# 4 0.0000 0.0000 0.0000 -85.8007 0.0000 0.0000
# 5 0.0000 0.0000 0.0000 0.0000 38.3313 0.0000
# 6 0.0000 0.0000 0.0000 0.0000 0.0000 -3.9455
#
#
#
# Elastic Compliance Matrix: (Units=1/GPa)
#
#
# Indices 1 2 3 4 5 6 
#
# 1 0.010222 0.000653 -0.004158 0.000000 0.000000 0.000000
# 2 0.000653 0.015165 0.001104 0.000000 0.000000 0.000000
# 3 -0.004158 0.001104 0.012361 0.000000 0.000000 0.000000
# 4 0.000000 0.000000 0.000000 -0.011655 0.000000 0.000000
# 5 0.000000 0.000000 0.000000 0.000000 0.026088 0.000000
# 6 0.000000 0.000000 0.000000 0.000000 0.000000 -0.253451
#
#
# Mechanical properties :
#
#
# Convention : Reuss Voigt Hill
#
# Bulk Modulus (GPa) = 30.35256 35.72186 33.03721
# Shear Modulus (GPa) = -26.95635 6.59665 -10.17985
#
# Velocity S-wave (km/s) = -3.43637 1.69993 -2.11174
# Velocity P-wave (km/s) = 1.56475 4.41605 2.92002
#
# Compressibility (1/GPa) = 0.03294615
#
# Stress axis : x y z
#
# Youngs Moduli (GPa) = 97.82741 65.94041 80.89810
#
# Poissons Ratio (x) = -0.04305 0.33638
# Poissons Ratio (y) = -0.06387 -0.08931
# Poissons Ratio (z) = 0.40678 -0.07280
#
# Static dielectric constant tensor:
#      x y z
#    x 1.835250 0.000000 0.000000 
#    y 0.000000 1.868220 0.000000 
#    z 0.000000 0.000000 1.866760 
# 
# From -- ./inp_files/14994.got.cif
#   From: 2010.05.17/outbox.cif.g08.bks.cpg/sg71_8_cif.got.tgz:14994.got - 2010.06.03 16:22:01.
