data_PCOD9521308
_publ_section_title
;
Structure prediction by ZEFSAII (Michael W. Deem and Ramdas Pophale) SiO2 
 PCOD9521308
Probable space group: I M M M
;
_chemical_formula_sum "Si O2"
_cell_formula_units_Z 104
_cell_length_a 19.235150
_cell_length_b 15.361286
_cell_length_c 19.387201
_cell_angle_alpha 90.000000
_cell_angle_beta 90.000000
_cell_angle_gamma 90.000000
_cell_volume 5728.465018
_symmetry_space_group_name_H-M "I M M M"
_symmetry_group_IT_number 71
_symmetry_cell_setting 'orthorhombic'
loop_
_space_group_symop_operation_xyz
x,y,z
-x,-y,z
x,-y,-z
-x,y,-z
-x,-y,-z
x,y,-z
-x,y,z
x,-y,z
1/2+x,1/2+y,1/2+z
1/2-x,1/2-y,1/2+z
1/2+x,1/2-y,1/2-z
1/2-x,1/2+y,1/2-z
1/2-x,1/2-y,1/2-z
1/2+x,1/2+y,1/2-z
1/2-x,1/2+y,1/2+z
1/2+x,1/2-y,1/2+z
loop_
_atom_site_type_symbol
_atom_site_label
_atom_site_fract_x
_atom_site_fract_y
_atom_site_fract_z
Si Si1 0.581954 0.824515 0.272112
Si Si2 0.632943 0.636122 0.688737
Si Si3 0.420362 0.600224 0.157331
Si Si4 0.203982 0.824272 0.581722
Si Si5 0.775935 0.500000 0.079640
Si Si6 0.577030 0.000000 0.636938
Si Si7 0.220903 0.315348 0.691535
Si Si8 0.417325 0.500000 0.578497
O O1 0.500000 0.811650 0.251582
O O2 0.608670 0.738032 0.313015
O O3 0.583405 0.912619 0.317018
O O4 0.641648 0.836358 0.212977
O O5 0.604282 0.607432 0.763532
O O6 0.715868 0.617413 0.689684
O O7 0.603304 0.583148 0.624679
O O8 0.500000 0.626338 0.154379
O O9 0.413749 0.500000 0.135532
O O10 0.373712 0.657070 0.107243
O O11 0.211152 0.817733 0.500000
O O12 0.225293 0.737185 0.620395
O O13 0.246124 0.909509 0.608974
O O14 0.858326 0.500000 0.085995
O O15 0.753539 0.500000 0.000000
O O16 0.500000 0.000000 0.605309
O O17 0.250000 0.250000 0.750000
O O18 0.500000 0.500000 0.573664
O O19 0.389014 0.500000 0.500000
#
# Coordination Sequence:
#
# PCOD9521308 Si02
#       8
#    16  16  16  16   8   8  16   8
#     4  10  20  35  57  84 115 146 189 245 292 334
#     4  11  21  36  60  87 116 155 196 241 284 348
#     4  11  21  33  56  86 117 155 195 236 286 353
#     4  11  22  35  53  83 118 152 191 238 288 346
#     4  10  20  34  52  72 108 151 181 221 283 344
#     4  10  22  36  55  83 110 139 187 250 288 325
#     4  10  20  34  56  83 107 150 199 237 283 346
#     4  11  24  40  60  90 124 156 192 237 296 357
#
# _framework density 18.154951000000001
#
# number of rings (size 3 to 8) (size 9 to 14) (size 15 to 20)
#    0.000    1.462    4.615    3.231    0.000    1.692 
#    0.000    1.538    0.000    0.923    0.000    0.000 
#    0.000    2.462    0.000    0.000    0.000    0.000 
#
# Total GULP energy -289682.556115 kJ/mol
# GULP energy per Si atom -5570.818387 kJ/mol
# Density = 1.811363 g / cm^3
# Si number density = 18.154951 Si / 1000 Ang^3
#
#
#
# Elastic Constant Matrix: (Units=GPa)
#
#
# Indices 1 2 3 4 5 6 
#
# 1 121.9726 -3.0876 3.7244 0.0000 0.0000 0.0000
# 2 -3.0876 41.7528 -8.0548 0.0000 0.0000 0.0000
# 3 3.7244 -8.0548 51.7382 0.0000 0.0000 0.0000
# 4 0.0000 0.0000 0.0000 12.1658 0.0000 0.0000
# 5 0.0000 0.0000 0.0000 0.0000 16.2273 0.0000
# 6 0.0000 0.0000 0.0000 0.0000 0.0000 22.1311
#
#
#
# Elastic Compliance Matrix: (Units=1/GPa)
#
#
# Indices 1 2 3 4 5 6 
#
# 1 0.008227 0.000509 -0.000513 0.000000 0.000000 0.000000
# 2 0.000509 0.024724 0.003812 0.000000 0.000000 0.000000
# 3 -0.000513 0.003812 0.019959 0.000000 0.000000 0.000000
# 4 0.000000 0.000000 0.000000 0.082198 0.000000 0.000000
# 5 0.000000 0.000000 0.000000 0.000000 0.061625 0.000000
# 6 0.000000 0.000000 0.000000 0.000000 0.000000 0.045185
#
#
# Mechanical properties :
#
#
# Convention : Reuss Voigt Hill
#
# Bulk Modulus (GPa) = 16.52153 22.29195 19.40674
# Shear Modulus (GPa) = 19.64832 24.96361 22.30596
#
# Velocity S-wave (km/s) = 3.29334 3.71216 3.50900
# Velocity P-wave (km/s) = 4.85607 5.53885 5.20866
#
# Compressibility (1/GPa) = 0.06052707
#
# Stress axis : x y z
#
# Youngs Moduli (GPa) = 121.54917 40.44717 50.10389
#
# Poissons Ratio (x) = -0.02061 0.02570
# Poissons Ratio (y) = -0.06192 -0.19101
# Poissons Ratio (z) = 0.06234 -0.15420
#
# Static dielectric constant tensor:
#      x y z
#    x 1.745740 0.000000 0.000000 
#    y 0.000000 1.674530 0.000000 
#    z 0.000000 0.000000 1.612210 
# 
# From -- ./inp_files/46171.got.cif
#   From: 2010.05.17/outbox.cif.g08.bks.cpg/sg71_24_cif.got.tgz:46171.got - 2010.06.03 16:22:01.
