data_PCOD9521829
_publ_section_title
;
Structure prediction by ZEFSAII (Michael W. Deem and Ramdas Pophale) SiO2 
 PCOD9521829
Probable space group: I M M M
;
_chemical_formula_sum "Si O2"
_cell_formula_units_Z 64
_cell_length_a 9.527568
_cell_length_b 27.826918
_cell_length_c 14.075397
_cell_angle_alpha 90.000000
_cell_angle_beta 90.000000
_cell_angle_gamma 90.000000
_cell_volume 3731.709416
_symmetry_space_group_name_H-M "I M M M"
_symmetry_group_IT_number 71
_symmetry_cell_setting 'orthorhombic'
loop_
_space_group_symop_operation_xyz
x,y,z
-x,-y,z
x,-y,-z
-x,y,-z
-x,-y,-z
x,y,-z
-x,y,z
x,-y,z
1/2+x,1/2+y,1/2+z
1/2-x,1/2-y,1/2+z
1/2+x,1/2-y,1/2-z
1/2-x,1/2+y,1/2-z
1/2-x,1/2-y,1/2-z
1/2+x,1/2+y,1/2-z
1/2-x,1/2+y,1/2+z
1/2+x,1/2-y,1/2+z
loop_
_atom_site_type_symbol
_atom_site_label
_atom_site_fract_x
_atom_site_fract_y
_atom_site_fract_z
Si Si1 0.500000 0.188708 0.886021
Si Si2 0.340283 0.942470 0.000000
Si Si3 0.500000 0.195270 0.388445
Si Si4 0.167821 0.944079 0.809775
Si Si5 0.000000 0.219442 0.741022
Si Si6 0.729014 0.847911 0.259414
O O1 0.500000 0.243802 0.847997
O O2 0.633729 0.164277 0.833586
O O3 0.500000 0.186330 0.000000
O O4 0.248670 0.932017 0.092616
O O5 0.500000 0.922600 0.000000
O O6 0.354963 0.000000 0.000000
O O7 0.500000 0.201165 0.500000
O O8 0.500000 0.245879 0.332743
O O9 0.366027 0.166578 0.348655
O O10 0.223602 0.903209 0.739457
O O11 0.000000 0.939713 0.821921
O O12 0.197611 0.000000 0.785125
O O13 0.863667 0.186275 0.742235
#
# Coordination Sequence:
#
# PCOD9521829 Si02
#       6
#     8   8   8  16   8  16
#     4  10  22  36  54  81 112 142 177 225 274 322
#     4   9  19  31  49  77 111 149 185 215 257 325
#     4  10  22  40  58  79 111 144 180 230 278 319
#     4  10  20  35  54  78 113 150 182 221 270 324
#     4  10  20  38  57  82 112 140 183 227 266 323
#     4  10  21  36  57  83 110 142 184 222 265 327
#
# _framework density 17.150316
#
# number of rings (size 3 to 8) (size 9 to 14) (size 15 to 20)
#    0.000    2.375    1.250    3.375    5.250    5.500 
#    0.000    0.000    0.000    1.500    0.000    1.750 
#    0.000    0.000    0.000    0.000    0.000    0.000 
#
# Total GULP energy -178416.450359 kJ/mol
# GULP energy per Si atom -5575.514074 kJ/mol
# Density = 1.711128 g / cm^3
# Si number density = 17.150316 Si / 1000 Ang^3
#
#
#
# Elastic Constant Matrix: (Units=GPa)
#
#
# Indices 1 2 3 4 5 6 
#
# 1 128.9785 59.6621 32.7305 0.0000 0.0000 0.0000
# 2 59.6621 136.1519 35.5233 0.0000 0.0000 0.0000
# 3 32.7305 35.5233 100.3389 0.0003 0.0000 0.0001
# 4 0.0000 0.0000 0.0003 5.5186 0.0000 0.0000
# 5 0.0000 0.0000 0.0000 0.0000 14.3976 0.0000
# 6 0.0000 0.0000 0.0001 0.0000 0.0000 45.7810
#
#
#
# Elastic Compliance Matrix: (Units=1/GPa)
#
#
# Indices 1 2 3 4 5 6 
#
# 1 0.010040 -0.003906 -0.001892 0.000000 0.000000 0.000000
# 2 -0.003906 0.009612 -0.002129 0.000000 0.000000 0.000000
# 3 -0.001892 -0.002129 0.011337 -0.000001 0.000000 0.000000
# 4 0.000000 0.000000 -0.000001 0.181205 0.000000 0.000000
# 5 0.000000 0.000000 0.000000 0.000000 0.069456 0.000000
# 6 0.000000 0.000000 0.000000 0.000000 0.000000 0.021843
#
#
# Mechanical properties :
#
#
# Convention : Reuss Voigt Hill
#
# Bulk Modulus (GPa) = 66.07143 69.03348 67.55246
# Shear Modulus (GPa) = 15.41344 28.97633 22.19489
#
# Velocity S-wave (km/s) = 3.00113 4.11487 3.60132
# Velocity P-wave (km/s) = 7.11460 7.93194 7.53436
#
# Compressibility (1/GPa) = 0.01513513
#
# Stress axis : x y z
#
# Youngs Moduli (GPa) = 99.59947 104.03945 88.20564
#
# Poissons Ratio (x) = 0.40637 0.16691
# Poissons Ratio (y) = 0.38903 0.18777
# Poissons Ratio (z) = 0.18847 0.22147
#
# Static dielectric constant tensor:
#      x y z
#    x 1.592260 0.000000 0.000000 
#    y 0.000000 1.599710 0.000000 
#    z 0.000000 0.000000 1.556810 
# 
# From -- ./inp_files/31380.got.cif
#   From: 2010.05.17/outbox.cif.g08.bks.cpg/sg71_16_cif.got.tgz:31380.got - 2010.06.03 16:22:01.
