data_PCOD9521968
_publ_section_title
;
Structure prediction by ZEFSAII (Michael W. Deem and Ramdas Pophale) SiO2 
 PCOD9521968
Probable space group: I M M M
;
_chemical_formula_sum "Si O2"
_cell_formula_units_Z 80
_cell_length_a 19.338327
_cell_length_b 20.356918
_cell_length_c 10.531325
_cell_angle_alpha 90.000000
_cell_angle_beta 90.000000
_cell_angle_gamma 90.000000
_cell_volume 4145.853412
_symmetry_space_group_name_H-M "I M M M"
_symmetry_group_IT_number 71
_symmetry_cell_setting 'orthorhombic'
loop_
_space_group_symop_operation_xyz
x,y,z
-x,-y,z
x,-y,-z
-x,y,-z
-x,-y,-z
x,y,-z
-x,y,z
x,-y,z
1/2+x,1/2+y,1/2+z
1/2-x,1/2-y,1/2+z
1/2+x,1/2-y,1/2-z
1/2-x,1/2+y,1/2-z
1/2-x,1/2-y,1/2-z
1/2+x,1/2+y,1/2-z
1/2-x,1/2+y,1/2+z
1/2+x,1/2-y,1/2+z
loop_
_atom_site_type_symbol
_atom_site_label
_atom_site_fract_x
_atom_site_fract_y
_atom_site_fract_z
Si Si1 0.277227 0.296533 0.861803
Si Si2 0.920081 0.190688 0.000000
Si Si3 0.078083 0.607989 0.649950
Si Si4 0.807730 0.924470 0.000000
Si Si5 0.779193 0.427458 0.759324
Si Si6 0.078135 0.238545 0.719410
O O1 0.250000 0.250000 0.750000
O O2 0.243097 0.367375 0.846574
O O3 0.359827 0.300865 0.844667
O O4 0.261396 0.267569 0.000000
O O5 0.911322 0.232453 0.128760
O O6 0.867461 0.129910 0.000000
O O7 0.000000 0.167320 0.000000
O O8 0.087250 0.594830 0.500000
O O9 0.139677 0.576212 0.727988
O O10 0.083513 0.686380 0.673419
O O11 0.000000 0.587987 0.685100
O O12 0.760746 0.916941 0.125357
O O13 0.834127 0.000000 0.000000
O O14 0.761388 0.500000 0.807511
O O15 0.000000 0.215795 0.690493
#
# Coordination Sequence:
#
# PCOD9521968 Si02
#       6
#    16   8  16   8  16  16
#     4  12  26  40  66  94 123 162 207 261 309 365
#     4  10  20  35  58  89 122 156 196 251 307 369
#     4  10  20  35  56  85 121 159 201 249 304 364
#     4  10  20  35  57  84 116 160 206 253 295 357
#     4  11  23  39  60  87 125 164 206 252 306 365
#     4  10  21  36  59  90 125 158 198 250 309 365
#
# _framework density 19.296389000000001
#
# number of rings (size 3 to 8) (size 9 to 14) (size 15 to 20)
#    0.000    1.400    5.000    0.600    2.800    2.200 
#    0.000    1.000    0.000    0.600    0.000    2.800 
#    0.000    0.000    0.000    0.000    0.000    0.000 
#
# Total GULP energy -223504.102172 kJ/mol
# GULP energy per Si atom -5587.602554 kJ/mol
# Density = 1.925247 g / cm^3
# Si number density = 19.296389 Si / 1000 Ang^3
#
#
#
# Elastic Constant Matrix: (Units=GPa)
#
#
# Indices 1 2 3 4 5 6 
#
# 1 106.2282 33.0276 23.8468 0.0000 0.0000 0.0000
# 2 33.0276 68.5439 20.2480 0.0000 0.0000 0.0000
# 3 23.8468 20.2480 88.2251 0.0000 0.0000 0.0000
# 4 0.0000 0.0000 0.0000 18.3251 0.0000 0.0000
# 5 0.0000 0.0000 0.0000 0.0000 18.8324 0.0000
# 6 0.0000 0.0000 0.0000 0.0000 0.0000 23.3785
#
#
#
# Elastic Compliance Matrix: (Units=1/GPa)
#
#
# Indices 1 2 3 4 5 6 
#
# 1 0.011377 -0.004906 -0.001949 0.000000 0.000000 0.000000
# 2 -0.004906 0.017766 -0.002751 0.000000 0.000000 0.000000
# 3 -0.001949 -0.002751 0.012493 0.000000 0.000000 0.000000
# 4 0.000000 0.000000 0.000000 0.054570 0.000000 0.000000
# 5 0.000000 0.000000 0.000000 0.000000 0.053100 0.000000
# 6 0.000000 0.000000 0.000000 0.000000 0.000000 0.042774
#
#
# Mechanical properties :
#
#
# Convention : Reuss Voigt Hill
#
# Bulk Modulus (GPa) = 44.59781 46.36023 45.47902
# Shear Modulus (GPa) = 22.85544 24.49888 23.67716
#
# Velocity S-wave (km/s) = 3.44531 3.56702 3.50669
# Velocity P-wave (km/s) = 6.24412 6.40643 6.32580
#
# Compressibility (1/GPa) = 0.02242262
#
# Stress axis : x y z
#
# Youngs Moduli (GPa) = 87.90005 56.28781 80.04546
#
# Poissons Ratio (x) = 0.27615 0.15602
# Poissons Ratio (y) = 0.43124 0.22023
# Poissons Ratio (z) = 0.17132 0.15486
#
# Static dielectric constant tensor:
#      x y z
#    x 1.695470 0.000000 0.000000 
#    y 0.000000 1.657050 0.000000 
#    z 0.000000 0.000000 1.677770 
# 
# From -- ./inp_files/23827.got.cif
#   From: 2010.05.17/outbox.cif.g08.bks.cpg/sg71_12_cif.got.tgz:23827.got - 2010.06.03 16:22:01.
