data_PCOD9521750
_publ_section_title
;
Structure prediction by ZEFSAII (Michael W. Deem and Ramdas Pophale) SiO2 
 PCOD9521750
Probable space group: I M M M
;
_chemical_formula_sum "Si O2"
_cell_formula_units_Z 82
_cell_length_a 9.035351
_cell_length_b 20.873330
_cell_length_c 25.158556
_cell_angle_alpha 90.000000
_cell_angle_beta 90.000000
_cell_angle_gamma 90.000000
_cell_volume 4744.849900
_symmetry_space_group_name_H-M "I M M M"
_symmetry_group_IT_number 71
_symmetry_cell_setting 'orthorhombic'
loop_
_space_group_symop_operation_xyz
x,y,z
-x,-y,z
x,-y,-z
-x,y,-z
-x,-y,-z
x,y,-z
-x,y,z
x,-y,z
1/2+x,1/2+y,1/2+z
1/2-x,1/2-y,1/2+z
1/2+x,1/2-y,1/2-z
1/2-x,1/2+y,1/2-z
1/2-x,1/2-y,1/2-z
1/2+x,1/2+y,1/2-z
1/2-x,1/2+y,1/2+z
1/2+x,1/2-y,1/2+z
loop_
_atom_site_type_symbol
_atom_site_label
_atom_site_fract_x
_atom_site_fract_y
_atom_site_fract_z
Si Si1 0.824742 0.572282 0.281231
Si Si2 0.500000 0.000000 0.000000
Si Si3 0.168661 0.878738 0.882047
Si Si4 0.823782 0.240825 0.605956
Si Si5 0.736672 0.603347 0.500000
Si Si6 0.324185 0.310791 0.221283
Si Si7 0.821281 0.747921 0.000000
O O1 0.802908 0.500000 0.261389
O O2 0.754114 0.578099 0.339857
O O3 0.747662 0.625391 0.244936
O O4 0.000000 0.585132 0.284816
O O5 0.374038 0.056606 0.000000
O O6 0.254792 0.810987 0.882465
O O7 0.000000 0.868240 0.864696
O O8 0.165017 0.906271 0.941924
O O9 0.800997 0.198343 0.658294
O O10 0.737930 0.216387 0.553837
O O11 0.000000 0.246545 0.596234
O O12 0.753492 0.680998 0.500000
O O13 0.500000 0.310087 0.231198
O O14 0.250000 0.250000 0.250000
O O15 0.000000 0.755775 0.000000
#
# Coordination Sequence:
#
# PCOD9521750 Si02
#       7
#    16   2  16  16   8  16   8
#     4  11  25  40  57  79 111 151 194 235 283 339
#     4  12  28  36  50  72  92 156 190 240 278 334
#     4  11  22  37  56  77 105 141 185 240 289 334
#     4  10  20  34  58  85 111 144 179 226 281 339
#     4  10  24  36  50  69 100 137 190 230 279 324
#     4  11  22  37  59  86 115 147 188 234 285 337
#     4  10  21  37  57  82 110 140 175 229 286 327
#
# _framework density 17.281894999999999
#
# number of rings (size 3 to 8) (size 9 to 14) (size 15 to 20)
#    0.000    1.366    1.951    4.683    8.195    3.902 
#    0.000    1.707    0.000    0.000    0.000    0.683 
#    0.000    5.463    0.000    0.000    0.000    0.000 
#
# Total GULP energy -228508.075029 kJ/mol
# GULP energy per Si atom -5573.367684 kJ/mol
# Density = 1.724256 g / cm^3
# Si number density = 17.281895 Si / 1000 Ang^3
#
#
#
# Elastic Constant Matrix: (Units=GPa)
#
#
# Indices 1 2 3 4 5 6 
#
# 1 115.7363 65.0735 74.1686 0.0000 0.0000 0.0000
# 2 65.0735 79.4994 58.5309 0.0000 0.0000 0.0000
# 3 74.1686 58.5309 126.2747 0.0000 0.0000 0.0000
# 4 0.0000 0.0000 0.0000 14.2200 0.0000 0.0000
# 5 0.0000 0.0000 0.0000 0.0000 268.5777 0.0000
# 6 0.0000 0.0000 0.0000 0.0000 0.0000 23.3406
#
#
#
# Elastic Compliance Matrix: (Units=1/GPa)
#
#
# Indices 1 2 3 4 5 6 
#
# 1 0.018456 -0.010818 -0.005826 0.000000 0.000000 0.000000
# 2 -0.010818 0.025436 -0.005436 0.000000 0.000000 0.000000
# 3 -0.005826 -0.005436 0.013861 0.000000 0.000000 0.000000
# 4 0.000000 0.000000 0.000000 0.070323 0.000000 0.000000
# 5 0.000000 0.000000 0.000000 0.000000 0.003723 0.000000
# 6 0.000000 0.000000 0.000000 0.000000 0.000000 0.042844
#
#
# Mechanical properties :
#
#
# Convention : Reuss Voigt Hill
#
# Bulk Modulus (GPa) = 73.56721 79.67294 76.62008
# Shear Modulus (GPa) = 22.38790 69.47683 45.93236
#
# Velocity S-wave (km/s) = 3.60315 6.34739 5.16101
# Velocity P-wave (km/s) = 7.74413 9.99606 8.94127
#
# Compressibility (1/GPa) = 0.01359301
#
# Stress axis : x y z
#
# Youngs Moduli (GPa) = 54.18174 39.31476 72.14430
#
# Poissons Ratio (x) = 0.42530 0.42033
# Poissons Ratio (y) = 0.58612 0.39218
# Poissons Ratio (z) = 0.31568 0.21372
#
# Static dielectric constant tensor:
#      x y z
#    x 1.593220 0.000000 0.000000 
#    y 0.000000 1.560520 0.000000 
#    z 0.000000 0.000000 1.636210 
# 
# From -- ./inp_files/57483.got.cif
#   From: 2010.05.17/outbox.cif.g08.bks.cpg/sg71_29_cif.got.tgz:57483.got - 2010.06.03 16:22:01.
