data_PCOD9521122
_publ_section_title
;
Structure prediction by ZEFSAII (Michael W. Deem and Ramdas Pophale) SiO2 
 PCOD9521122
Probable space group: I M M M
;
_chemical_formula_sum "Si O2"
_cell_formula_units_Z 96
_cell_length_a 18.047330
_cell_length_b 24.837747
_cell_length_c 12.368785
_cell_angle_alpha 90.000000
_cell_angle_beta 90.000000
_cell_angle_gamma 90.000000
_cell_volume 5544.369925
_symmetry_space_group_name_H-M "I M M M"
_symmetry_group_IT_number 71
_symmetry_cell_setting 'orthorhombic'
loop_
_space_group_symop_operation_xyz
x,y,z
-x,-y,z
x,-y,-z
-x,y,-z
-x,-y,-z
x,y,-z
-x,y,z
x,-y,z
1/2+x,1/2+y,1/2+z
1/2-x,1/2-y,1/2+z
1/2+x,1/2-y,1/2-z
1/2-x,1/2+y,1/2-z
1/2-x,1/2-y,1/2-z
1/2+x,1/2+y,1/2-z
1/2-x,1/2+y,1/2+z
1/2+x,1/2-y,1/2+z
loop_
_atom_site_type_symbol
_atom_site_label
_atom_site_fract_x
_atom_site_fract_y
_atom_site_fract_z
Si Si1 0.320311 0.938834 0.500000
Si Si2 0.730618 0.059759 0.741614
Si Si3 0.872330 0.291392 0.622974
Si Si4 0.916026 0.584791 0.626506
Si Si5 0.912045 0.330506 0.000000
Si Si6 0.414621 0.261897 0.334509
Si Si7 0.284048 0.657783 0.375977
O O1 0.275804 0.934054 0.612457
O O2 0.375732 0.888627 0.500000
O O3 0.352579 0.000000 0.500000
O O4 0.648074 0.063695 0.794939
O O5 0.776446 0.107421 0.796673
O O6 0.759644 0.000000 0.765647
O O7 0.880147 0.272863 0.500000
O O8 0.909980 0.350232 0.631971
O O9 0.905986 0.251239 0.708856
O O10 0.785500 0.302603 0.646331
O O11 0.902467 0.570086 0.500000
O O12 0.000000 0.568555 0.654731
O O13 0.892202 0.292988 0.897585
O O14 0.000000 0.337553 0.000000
O O15 0.500000 0.273151 0.362481
O O16 0.359402 0.309271 0.366047
O O17 0.273321 0.639187 0.500000
#
# Coordination Sequence:
#
# PCOD9521122 Si02
#       7
#     8  16  16  16   8  16  16
#     4  10  22  37  52  76 111 143 183 229 258 309
#     4  10  21  37  55  75 102 141 183 227 278 327
#     4   9  18  31  49  74 104 142 179 214 259 313
#     4   9  17  30  49  75 108 140 176 224 268 311
#     4  10  20  33  52  76 105 149 185 208 262 323
#     4  11  21  34  53  78 111 144 178 225 273 325
#     4  10  20  36  55  78 107 137 178 229 279 322
#
# _framework density 17.314862999999999
#
# number of rings (size 3 to 8) (size 9 to 14) (size 15 to 20)
#    0.000    2.167    0.833    4.500    0.000    4.833 
#    1.500    2.500    0.000    0.500    0.000    1.167 
#    0.000    2.000    0.000    0.000    0.000    0.000 
#
# Total GULP energy -267847.213251 kJ/mol
# GULP energy per Si atom -5580.150276 kJ/mol
# Density = 1.727545 g / cm^3
# Si number density = 17.314863 Si / 1000 Ang^3
#
#
#
# Elastic Constant Matrix: (Units=GPa)
#
#
# Indices 1 2 3 4 5 6 
#
# 1 71.8292 46.4986 23.7789 0.0000 0.0000 0.0000
# 2 46.4986 90.7657 37.4323 0.0000 0.0000 0.0000
# 3 23.7789 37.4323 87.6349 0.0000 0.0000 0.0000
# 4 0.0000 0.0000 0.0000 55.8539 0.0000 0.0000
# 5 0.0000 0.0000 0.0000 0.0000 12.6878 0.0000
# 6 0.0000 0.0000 0.0000 0.0000 0.0000 3.8813
#
#
#
# Elastic Compliance Matrix: (Units=1/GPa)
#
#
# Indices 1 2 3 4 5 6 
#
# 1 0.020958 -0.010186 -0.001336 0.000000 0.000000 0.000000
# 2 -0.010186 0.018323 -0.005063 0.000000 0.000000 0.000000
# 3 -0.001336 -0.005063 0.013936 0.000000 0.000000 0.000000
# 4 0.000000 0.000000 0.000000 0.017904 0.000000 0.000000
# 5 0.000000 0.000000 0.000000 0.000000 0.078816 0.000000
# 6 0.000000 0.000000 0.000000 0.000000 0.000000 0.257647
#
#
# Mechanical properties :
#
#
# Convention : Reuss Voigt Hill
#
# Bulk Modulus (GPa) = 49.87963 51.73883 50.80923
# Shear Modulus (GPa) = 11.17480 23.98592 17.58036
#
# Velocity S-wave (km/s) = 2.54320 3.72597 3.18989
# Velocity P-wave (km/s) = 6.12322 6.96107 6.55554
#
# Compressibility (1/GPa) = 0.02004826
#
# Stress axis : x y z
#
# Youngs Moduli (GPa) = 47.71483 54.57524 71.75628
#
# Poissons Ratio (x) = 0.55588 0.09587
# Poissons Ratio (y) = 0.48600 0.36329
# Poissons Ratio (z) = 0.06375 0.27631
#
# Static dielectric constant tensor:
#      x y z
#    x 1.588450 0.000000 0.000000 
#    y 0.000000 1.579030 0.000000 
#    z 0.000000 0.000000 1.625880 
# 
# From -- ./inp_files/24271.got.cif
#   From: 2010.05.17/outbox.cif.g08.bks.cpg/sg71_13_cif.got.tgz:24271.got - 2010.06.03 16:22:01.
