data_PCOD9521888
_publ_section_title
;
Structure prediction by ZEFSAII (Michael W. Deem and Ramdas Pophale) SiO2 
 PCOD9521888
Probable space group: I M M M
;
_chemical_formula_sum "Si O2"
_cell_formula_units_Z 64
_cell_length_a 23.956740
_cell_length_b 7.587092
_cell_length_c 16.096442
_cell_angle_alpha 90.000000
_cell_angle_beta 90.000000
_cell_angle_gamma 90.000000
_cell_volume 2925.721336
_symmetry_space_group_name_H-M "I M M M"
_symmetry_group_IT_number 71
_symmetry_cell_setting 'orthorhombic'
loop_
_space_group_symop_operation_xyz
x,y,z
-x,-y,z
x,-y,-z
-x,y,-z
-x,-y,-z
x,y,-z
-x,y,z
x,-y,z
1/2+x,1/2+y,1/2+z
1/2-x,1/2-y,1/2+z
1/2+x,1/2-y,1/2-z
1/2-x,1/2+y,1/2-z
1/2-x,1/2-y,1/2-z
1/2+x,1/2+y,1/2-z
1/2-x,1/2+y,1/2+z
1/2+x,1/2-y,1/2+z
loop_
_atom_site_type_symbol
_atom_site_label
_atom_site_fract_x
_atom_site_fract_y
_atom_site_fract_z
Si Si1 0.881911 0.703749 0.837374
Si Si2 0.000000 0.286585 0.901910
Si Si3 0.358129 0.707308 0.849650
Si Si4 0.261165 0.210910 0.347486
Si Si5 0.062790 0.288990 0.500000
O O1 0.883040 0.500000 0.865716
O O2 0.941546 0.781196 0.863743
O O3 0.875409 0.706606 0.737469
O O4 0.822669 0.781914 0.869559
O O5 0.000000 0.500000 0.888368
O O6 0.000000 0.253809 0.000000
O O7 0.351597 0.500000 0.831010
O O8 0.297908 0.772241 0.884374
O O9 0.404373 0.730655 0.918685
O O10 0.250000 0.250000 0.250000
O O11 0.264886 0.000000 0.359701
O O12 0.061448 0.500000 0.500000
O O13 0.000000 0.221115 0.500000
#
# Coordination Sequence:
#
# PCOD9521888 Si02
#       5
#    16   8  16  16   8
#     4   9  17  32  55  80 108 144 183 220 261 314
#     4   9  18  32  51  80 109 136 179 225 258 299
#     4  10  20  35  55  81 109 139 177 221 271 321
#     4   8  15  29  50  77 104 135 172 215 260 309
#     4  11  25  41  55  75 107 144 181 222 266 321
#
# _framework density 21.874946999999999
#
# number of rings (size 3 to 8) (size 9 to 14) (size 15 to 20)
#    0.000    2.750    0.000    1.125    1.750    2.000 
#    2.250    0.000    0.000    1.500    0.000    0.000 
#    0.000    0.000    0.000    0.000    0.000    0.000 
#
# Total GULP energy -178327.269717 kJ/mol
# GULP energy per Si atom -5572.727179 kJ/mol
# Density = 2.182516 g / cm^3
# Si number density = 21.874947 Si / 1000 Ang^3
#
#
#
# Elastic Constant Matrix: (Units=GPa)
#
#
# Indices 1 2 3 4 5 6 
#
# 1 293.4554 5.1600 61.7605 0.0000 0.0000 0.0000
# 2 5.1600 55.9883 -9.7334 0.0000 0.0000 0.0000
# 3 61.7605 -9.7334 30.6128 0.0000 0.0000 0.0000
# 4 0.0000 0.0000 0.0000 -50.7825 0.0000 0.0000
# 5 0.0000 0.0000 0.0000 0.0000 15.7228 0.0000
# 6 0.0000 0.0000 0.0000 0.0000 0.0000 -1.0337
#
#
#
# Elastic Compliance Matrix: (Units=1/GPa)
#
#
# Indices 1 2 3 4 5 6 
#
# 1 0.006360 -0.002982 -0.013779 0.000000 0.000000 0.000000
# 2 -0.002982 0.020304 0.012471 0.000000 0.000000 0.000000
# 3 -0.013779 0.012471 0.064431 0.000000 0.000000 0.000000
# 4 0.000000 0.000000 0.000000 -0.019692 0.000000 0.000000
# 5 0.000000 0.000000 0.000000 0.000000 0.063602 0.000000
# 6 0.000000 0.000000 0.000000 0.000000 0.000000 -0.967445
#
#
# Mechanical properties :
#
#
# Convention : Reuss Voigt Hill
#
# Bulk Modulus (GPa) = 12.11903 54.93675 33.52789
# Shear Modulus (GPa) = -6.27861 14.30593 4.01366
#
# Velocity S-wave (km/s) = -1.69601 2.56009 1.35603
# Velocity P-wave (km/s) = 1.31030 5.82300 4.22044
#
# Compressibility (1/GPa) = 0.08251487
#
# Stress axis : x y z
#
# Youngs Moduli (GPa) = 157.22986 49.25203 15.52048
#
# Poissons Ratio (x) = 0.14685 0.21386
# Poissons Ratio (y) = 0.46881 -0.19356
# Poissons Ratio (z) = 2.16654 -0.61423
#
# Static dielectric constant tensor:
#      x y z
#    x 1.875710 0.000000 0.000000 
#    y 0.000000 1.859010 0.000000 
#    z 0.000000 0.000000 1.739800 
# 
# From -- ./inp_files/5500.got.cif
#   From: 2010.05.17/outbox.cif.g08.bks.cpg/sg71_3_cif.got.tgz:5500.got - 2010.06.03 16:22:01.
