data_PCOD9521896
_publ_section_title
;
Structure prediction by ZEFSAII (Michael W. Deem and Ramdas Pophale) SiO2 
 PCOD9521896
Probable space group: I M M M
;
_chemical_formula_sum "Si O2"
_cell_formula_units_Z 104
_cell_length_a 27.778646
_cell_length_b 22.804120
_cell_length_c 8.782335
_cell_angle_alpha 90.000000
_cell_angle_beta 90.000000
_cell_angle_gamma 90.000000
_cell_volume 5563.324471
_symmetry_space_group_name_H-M "I M M M"
_symmetry_group_IT_number 71
_symmetry_cell_setting 'orthorhombic'
loop_
_space_group_symop_operation_xyz
x,y,z
-x,-y,z
x,-y,-z
-x,y,-z
-x,-y,-z
x,y,-z
-x,y,z
x,-y,z
1/2+x,1/2+y,1/2+z
1/2-x,1/2-y,1/2+z
1/2+x,1/2-y,1/2-z
1/2-x,1/2+y,1/2-z
1/2-x,1/2-y,1/2-z
1/2+x,1/2+y,1/2-z
1/2-x,1/2+y,1/2+z
1/2+x,1/2-y,1/2+z
loop_
_atom_site_type_symbol
_atom_site_label
_atom_site_fract_x
_atom_site_fract_y
_atom_site_fract_z
Si Si1 0.297466 0.567302 0.814782
Si Si2 0.628607 0.667709 0.180138
Si Si3 0.943307 0.749194 0.181748
Si Si4 0.198899 0.742690 0.173523
Si Si5 0.500000 0.069700 0.673680
Si Si6 0.690240 0.896789 0.326708
Si Si7 0.907200 0.627283 0.319443
O O1 0.307481 0.500000 0.774371
O O2 0.339995 0.611520 0.765026
O O3 0.242700 0.583536 0.765350
O O4 0.296056 0.572247 0.000000
O O5 0.579609 0.689817 0.258710
O O6 0.663288 0.721997 0.219193
O O7 0.620837 0.661646 0.000000
O O8 0.915901 0.692562 0.250341
O O9 0.000000 0.744812 0.219291
O O10 0.937461 0.746845 0.000000
O O11 0.250000 0.750000 0.250000
O O12 0.191046 0.673618 0.165745
O O13 0.196295 0.765748 0.000000
O O14 0.500000 0.093474 0.500000
O O15 0.452903 0.091724 0.759367
O O16 0.500000 0.000000 0.667360
O O17 0.685385 0.919982 0.500000
O O18 0.641385 0.906073 0.233707
O O19 0.906728 0.632751 0.500000
#
# Coordination Sequence:
#
# PCOD9521896 Si02
#       7
#    16  16  16  16   8  16  16
#     4   9  19  37  59  83 114 154 197 240 286 345
#     4  11  21  35  58  88 116 147 192 241 298 357
#     4  11  23  39  60  86 119 154 191 238 298 365
#     4  11  20  31  51  80 115 149 185 230 281 338
#     4  11  25  45  65  81 107 157 210 247 290 351
#     4  10  20  35  55  82 117 156 196 233 282 347
#     4  12  24  37  59  89 121 153 193 249 301 344
#
# _framework density 18.693859
#
# number of rings (size 3 to 8) (size 9 to 14) (size 15 to 20)
#    0.000    1.308    3.846    3.000    0.000    2.769 
#    0.000    1.538    0.000    4.154    0.000    3.231 
#    0.000    0.000    0.000    0.000    0.000    0.000 
#
# Total GULP energy -290064.480133 kJ/mol
# GULP energy per Si atom -5578.163079 kJ/mol
# Density = 1.865131 g / cm^3
# Si number density = 18.693859 Si / 1000 Ang^3
#
#
#
# Elastic Constant Matrix: (Units=GPa)
#
#
# Indices 1 2 3 4 5 6 
#
# 1 92.4678 33.7952 30.7902 0.0000 0.0000 0.0000
# 2 33.7952 87.1097 10.4063 0.0000 0.0000 0.0000
# 3 30.7902 10.4063 49.4131 0.0000 0.0000 0.0000
# 4 0.0000 0.0000 0.0000 17.4006 0.0000 0.0000
# 5 0.0000 0.0000 0.0000 0.0000 20.7905 0.0000
# 6 0.0000 0.0000 0.0000 0.0000 0.0000 -0.8599
#
#
#
# Elastic Compliance Matrix: (Units=1/GPa)
#
#
# Indices 1 2 3 4 5 6 
#
# 1 0.015504 -0.004986 -0.008611 0.000000 0.000000 0.000000
# 2 -0.004986 0.013380 0.000289 0.000000 0.000000 0.000000
# 3 -0.008611 0.000289 0.025542 0.000000 0.000000 0.000000
# 4 0.000000 0.000000 0.000000 0.057469 0.000000 0.000000
# 5 0.000000 0.000000 0.000000 0.000000 0.048099 0.000000
# 6 0.000000 0.000000 0.000000 0.000000 0.000000 -1.162882
#
#
# Mechanical properties :
#
#
# Convention : Reuss Voigt Hill
#
# Bulk Modulus (GPa) = 35.95773 42.10822 39.03297
# Shear Modulus (GPa) = -5.17063 17.73282 6.28110
#
# Velocity S-wave (km/s) = -1.66492 3.08326 1.83501
# Velocity P-wave (km/s) = 3.94726 5.93712 5.04134
#
# Compressibility (1/GPa) = 0.02781043
#
# Stress axis : x y z
#
# Youngs Moduli (GPa) = 64.49826 74.73989 39.15087
#
# Poissons Ratio (x) = 0.37268 0.33712
# Poissons Ratio (y) = 0.32161 -0.01133
# Poissons Ratio (z) = 0.55539 -0.02163
#
# Static dielectric constant tensor:
#      x y z
#    x 1.657000 0.000000 0.000000 
#    y 0.000000 1.647770 0.000000 
#    z 0.000000 0.000000 1.658480 
# 
# From -- ./inp_files/15018.got.cif
#   From: 2010.05.17/outbox.cif.g08.bks.cpg/sg71_8_cif.got.tgz:15018.got - 2010.06.03 16:22:01.
