data_PCOD9521250
_publ_section_title
;
Structure prediction by ZEFSAII (Michael W. Deem and Ramdas Pophale) SiO2 
 PCOD9521250
Probable space group: I M M M
;
_chemical_formula_sum "Si O2"
_cell_formula_units_Z 108
_cell_length_a 16.385825
_cell_length_b 22.996026
_cell_length_c 14.580151
_cell_angle_alpha 90.000000
_cell_angle_beta 90.000000
_cell_angle_gamma 90.000000
_cell_volume 5493.930044
_symmetry_space_group_name_H-M "I M M M"
_symmetry_group_IT_number 71
_symmetry_cell_setting 'orthorhombic'
loop_
_space_group_symop_operation_xyz
x,y,z
-x,-y,z
x,-y,-z
-x,y,-z
-x,-y,-z
x,y,-z
-x,y,z
x,-y,z
1/2+x,1/2+y,1/2+z
1/2-x,1/2-y,1/2+z
1/2+x,1/2-y,1/2-z
1/2-x,1/2+y,1/2-z
1/2-x,1/2-y,1/2-z
1/2+x,1/2+y,1/2-z
1/2-x,1/2+y,1/2+z
1/2+x,1/2-y,1/2+z
loop_
_atom_site_type_symbol
_atom_site_label
_atom_site_fract_x
_atom_site_fract_y
_atom_site_fract_z
Si Si1 0.907273 0.295339 0.890067
Si Si2 0.677529 0.840413 0.895762
Si Si3 0.595045 0.719716 0.892027
Si Si4 0.127582 0.898836 0.285008
Si Si5 0.597416 0.000000 0.393979
Si Si6 0.626034 0.661445 0.603862
Si Si7 0.320197 0.104764 0.287957
Si Si8 0.000000 0.000000 0.671197
O O1 0.900560 0.226690 0.869653
O O2 0.841201 0.334271 0.838194
O O3 0.000000 0.314593 0.867486
O O4 0.895996 0.301328 0.000000
O O5 0.646099 0.776723 0.867622
O O6 0.775580 0.838292 0.896859
O O7 0.653554 0.886091 0.817721
O O8 0.649008 0.852247 0.000000
O O9 0.500000 0.733612 0.878282
O O10 0.615735 0.662073 0.837114
O O11 0.608782 0.708456 0.000000
O O12 0.101833 0.885373 0.179801
O O13 0.224369 0.910754 0.289166
O O14 0.071444 0.948924 0.325589
O O15 0.630714 0.943836 0.341883
O O16 0.500000 0.000000 0.393441
O O17 0.624985 0.000000 0.500000
O O18 0.597828 0.649740 0.500000
#
# Coordination Sequence:
#
# PCOD9521250 Si02
#       8
#    16  16  16  16   8  16  16   4
#     4  10  20  33  56  93 128 154 189 241 303 369
#     4   9  19  36  59  88 120 153 194 242 295 363
#     4  10  20  35  56  84 119 158 194 238 300 359
#     4  11  23  40  59  81 113 155 205 254 296 347
#     4  11  25  44  64  87 118 153 191 239 294 355
#     4   9  19  36  58  86 119 153 189 241 307 365
#     4  11  22  38  62  87 115 156 201 243 299 355
#     4  12  26  44  60  78 114 158 210 262 292 336
#
# _framework density 19.658059000000002
#
# number of rings (size 3 to 8) (size 9 to 14) (size 15 to 20)
#    0.000    1.852    0.741    3.111    1.037    8.296 
#    0.000    1.852    0.000    4.000    0.000    0.000 
#    0.000    0.000    0.000    0.000    0.000    0.000 
#
# Total GULP energy -301140.328898 kJ/mol
# GULP energy per Si atom -5576.672757 kJ/mol
# Density = 1.961332 g / cm^3
# Si number density = 19.658059 Si / 1000 Ang^3
#
#
#
# Elastic Constant Matrix: (Units=GPa)
#
#
# Indices 1 2 3 4 5 6 
#
# 1 55.1637 30.0903 41.1759 0.0000 0.0000 0.0000
# 2 30.0903 54.2640 44.6261 0.0000 0.0000 0.0000
# 3 41.1759 44.6261 75.3227 0.0000 0.0000 0.0000
# 4 0.0000 0.0000 0.0000 3.9607 0.0000 0.0000
# 5 0.0000 0.0000 0.0000 0.0000 11.0625 0.0000
# 6 0.0000 0.0000 0.0000 0.0000 0.0000 41.3649
#
#
#
# Elastic Compliance Matrix: (Units=1/GPa)
#
#
# Indices 1 2 3 4 5 6 
#
# 1 0.031757 -0.006500 -0.013509 0.000000 0.000000 0.000000
# 2 -0.006500 0.037270 -0.018528 0.000000 0.000000 0.000000
# 3 -0.013509 -0.018528 0.031638 0.000000 0.000000 0.000000
# 4 0.000000 0.000000 0.000000 0.252478 0.000000 0.000000
# 5 0.000000 0.000000 0.000000 0.000000 0.090395 0.000000
# 6 0.000000 0.000000 0.000000 0.000000 0.000000 0.024175
#
#
# Mechanical properties :
#
#
# Convention : Reuss Voigt Hill
#
# Bulk Modulus (GPa) = 42.38893 46.28167 44.33530
# Shear Modulus (GPa) = 9.04729 15.86818 12.45773
#
# Velocity S-wave (km/s) = 2.14763 2.84423 2.52011
# Velocity P-wave (km/s) = 5.26875 5.86350 5.57406
#
# Compressibility (1/GPa) = 0.02359106
#
# Stress axis : x y z
#
# Youngs Moduli (GPa) = 31.48886 26.83148 31.60721
#
# Poissons Ratio (x) = 0.17440 0.42700
# Poissons Ratio (y) = 0.20467 0.58561
# Poissons Ratio (z) = 0.42540 0.49713
#
# Static dielectric constant tensor:
#      x y z
#    x 1.694820 0.000000 0.000000 
#    y 0.000000 1.656580 0.000000 
#    z 0.000000 0.000000 1.733810 
# 
# From -- ./inp_files/34941.got.cif
#   From: 2010.05.17/outbox.cif.g08.bks.cpg/sg71_18_cif.got.tgz:34941.got - 2010.06.03 16:22:01.
