data_PCOD9521929
_publ_section_title
;
Structure prediction by ZEFSAII (Michael W. Deem and Ramdas Pophale) SiO2 
 PCOD9521929
Probable space group: I M M M
;
_chemical_formula_sum "Si O2"
_cell_formula_units_Z 72
_cell_length_a 7.992238
_cell_length_b 15.306882
_cell_length_c 30.604258
_cell_angle_alpha 90.000000
_cell_angle_beta 90.000000
_cell_angle_gamma 90.000000
_cell_volume 3744.009974
_symmetry_space_group_name_H-M "I M M M"
_symmetry_group_IT_number 71
_symmetry_cell_setting 'orthorhombic'
loop_
_space_group_symop_operation_xyz
x,y,z
-x,-y,z
x,-y,-z
-x,y,-z
-x,-y,-z
x,y,-z
-x,y,z
x,-y,z
1/2+x,1/2+y,1/2+z
1/2-x,1/2-y,1/2+z
1/2+x,1/2-y,1/2-z
1/2-x,1/2+y,1/2-z
1/2-x,1/2-y,1/2-z
1/2+x,1/2+y,1/2-z
1/2-x,1/2+y,1/2+z
1/2+x,1/2-y,1/2+z
loop_
_atom_site_type_symbol
_atom_site_label
_atom_site_fract_x
_atom_site_fract_y
_atom_site_fract_z
Si Si1 0.795930 0.500000 0.228021
Si Si2 0.798044 0.305676 0.793052
Si Si3 0.801088 0.818246 0.871627
Si Si4 0.187994 0.216619 0.551243
Si Si5 0.200701 0.500000 0.329681
Si Si6 0.000000 0.597691 0.946991
O O1 0.739151 0.593483 0.208814
O O2 0.747197 0.500000 0.279004
O O3 0.000000 0.500000 0.225703
O O4 0.750000 0.250000 0.750000
O O5 0.741100 0.252437 0.835642
O O6 0.000000 0.307700 0.794104
O O7 0.712054 0.798766 0.917296
O O8 0.000000 0.808143 0.877481
O O9 0.765044 0.913299 0.852875
O O10 0.213619 0.237268 0.500000
O O11 0.332289 0.149072 0.565206
O O12 0.000000 0.181253 0.555810
O O13 0.000000 0.500000 0.330538
O O14 0.000000 0.500000 0.929183
O O15 0.000000 0.593278 0.000000
#
# Coordination Sequence:
#
# PCOD9521929 Si02
#       6
#     8  16  16  16   8   8
#     4   9  18  35  55  80 113 156 197 240 297 355
#     4  10  20  35  56  81 113 151 194 240 293 355
#     4  11  22  37  58  89 120 157 201 252 307 365
#     4  10  21  39  63  89 122 163 206 253 307 365
#     4  11  21  35  60  84 113 154 202 251 300 367
#     4   9  18  36  62  89 119 157 201 250 304 359
#
# _framework density 19.230718
#
# number of rings (size 3 to 8) (size 9 to 14) (size 15 to 20)
#    0.000    1.889    3.333    1.000    0.000    1.333 
#    2.000    3.333    0.000    3.333    0.000    0.000 
#    0.000    0.000    0.000    0.000    0.000    0.000 
#
# Total GULP energy -200958.291858 kJ/mol
# GULP energy per Si atom -5582.174774 kJ/mol
# Density = 1.918695 g / cm^3
# Si number density = 19.230718 Si / 1000 Ang^3
#
#
#
# Elastic Constant Matrix: (Units=GPa)
#
#
# Indices 1 2 3 4 5 6 
#
# 1 70.7693 31.3010 35.4661 0.0000 0.0000 0.0000
# 2 31.3010 166.0613 58.4800 0.0000 0.0000 0.0000
# 3 35.4661 58.4800 76.9712 0.0000 0.0000 0.0000
# 4 0.0000 0.0000 0.0000 14.7477 0.0000 0.0000
# 5 0.0000 0.0000 0.0000 0.0000 19.8297 0.0000
# 6 0.0000 0.0000 0.0000 0.0000 0.0000 14.6735
#
#
#
# Elastic Compliance Matrix: (Units=1/GPa)
#
#
# Indices 1 2 3 4 5 6 
#
# 1 0.018426 -0.000660 -0.007989 0.000000 0.000000 0.000000
# 2 -0.000660 0.008245 -0.005960 0.000000 0.000000 0.000000
# 3 -0.007989 -0.005960 0.021201 0.000000 0.000000 0.000000
# 4 0.000000 0.000000 0.000000 0.067807 0.000000 0.000000
# 5 0.000000 0.000000 0.000000 0.000000 0.050429 0.000000
# 6 0.000000 0.000000 0.000000 0.000000 0.000000 0.068150
#
#
# Mechanical properties :
#
#
# Convention : Reuss Voigt Hill
#
# Bulk Modulus (GPa) = 53.60655 62.69956 58.15306
# Shear Modulus (GPa) = 18.53941 22.42048 20.47994
#
# Velocity S-wave (km/s) = 3.10829 3.41819 3.26691
# Velocity P-wave (km/s) = 6.38889 6.94646 6.67350
#
# Compressibility (1/GPa) = 0.01865444
#
# Stress axis : x y z
#
# Youngs Moduli (GPa) = 54.27159 121.28173 47.16654
#
# Poissons Ratio (x) = 0.08002 0.37681
# Poissons Ratio (y) = 0.03581 0.28113
# Poissons Ratio (z) = 0.43357 0.72290
#
# Static dielectric constant tensor:
#      x y z
#    x 1.682260 0.000000 0.000000 
#    y 0.000000 1.680360 0.000000 
#    z 0.000000 0.000000 1.663090 
# 
# From -- ./inp_files/67881.got.cif
#   From: 2010.05.17/outbox.cif.g08.bks.cpg/sg71_34_cif.got.tgz:67881.got - 2010.06.03 16:22:01.
