data_PCOD9521551
_publ_section_title
;
Structure prediction by ZEFSAII (Michael W. Deem and Ramdas Pophale) SiO2 
 PCOD9521551
Probable space group: I M M M
;
_chemical_formula_sum "Si O2"
_cell_formula_units_Z 80
_cell_length_a 30.951096
_cell_length_b 9.154237
_cell_length_c 14.784557
_cell_angle_alpha 90.000000
_cell_angle_beta 90.000000
_cell_angle_gamma 90.000000
_cell_volume 4188.962767
_symmetry_space_group_name_H-M "I M M M"
_symmetry_group_IT_number 71
_symmetry_cell_setting 'orthorhombic'
loop_
_space_group_symop_operation_xyz
x,y,z
-x,-y,z
x,-y,-z
-x,y,-z
-x,-y,-z
x,y,-z
-x,y,z
x,-y,z
1/2+x,1/2+y,1/2+z
1/2-x,1/2-y,1/2+z
1/2+x,1/2-y,1/2-z
1/2-x,1/2+y,1/2-z
1/2-x,1/2-y,1/2-z
1/2+x,1/2+y,1/2-z
1/2-x,1/2+y,1/2+z
1/2+x,1/2-y,1/2+z
loop_
_atom_site_type_symbol
_atom_site_label
_atom_site_fract_x
_atom_site_fract_y
_atom_site_fract_z
Si Si1 0.451872 0.330396 0.140143
Si Si2 0.452697 0.669638 0.360019
Si Si3 0.365521 0.825769 0.354926
Si Si4 0.364523 0.173704 0.858810
Si Si5 0.796455 0.322450 0.000000
Si Si6 0.303142 0.323944 0.000000
O O1 0.500000 0.285945 0.109823
O O2 0.445012 0.500000 0.114222
O O3 0.452660 0.326189 0.250022
O O4 0.411756 0.231911 0.111822
O O5 0.500000 0.725753 0.389089
O O6 0.449625 0.500000 0.386375
O O7 0.410113 0.754783 0.388427
O O8 0.360067 0.795475 0.248372
O O9 0.324479 0.776129 0.413101
O O10 0.369485 0.000000 0.364922
O O11 0.328334 0.258849 0.914229
O O12 0.361390 0.000000 0.873133
O O13 0.795438 0.500000 0.000000
O O14 0.746870 0.275898 0.000000
O O15 0.305359 0.500000 0.000000
#
# Coordination Sequence:
#
# PCOD9521551 Si02
#       6
#    16  16  16  16   8   8
#     4   8  14  27  49  76 106 141 177 208 244 300
#     4   8  14  26  46  74 108 142 174 209 249 297
#     4   9  18  34  56  79 105 138 174 214 259 307
#     4  10  20  34  54  81 110 136 168 216 266 307
#     4   9  20  39  58  77 102 134 176 220 262 313
#     4  11  23  39  58  75  98 137 178 217 264 319
#
# _framework density 19.097805999999999
#
# number of rings (size 3 to 8) (size 9 to 14) (size 15 to 20)
#    0.000    3.000    0.000    2.100    0.000    2.400 
#    0.000    7.500    0.000    6.000    0.000    0.000 
#    0.000    0.000    0.000    0.000    0.000    0.000 
#
# Total GULP energy -223109.574516 kJ/mol
# GULP energy per Si atom -5577.739363 kJ/mol
# Density = 1.905434 g / cm^3
# Si number density = 19.097806 Si / 1000 Ang^3
#
#
#
# Elastic Constant Matrix: (Units=GPa)
#
#
# Indices 1 2 3 4 5 6 
#
# 1 222.6753 74.4892 70.2552 0.0000 0.0000 0.0000
# 2 74.4892 51.9702 40.6311 0.0000 0.0000 0.0000
# 3 70.2552 40.6311 84.8226 0.0000 0.0000 0.0000
# 4 0.0000 0.0000 0.0000 8.3996 0.0000 0.0000
# 5 0.0000 0.0000 0.0000 0.0000 35.2764 0.0000
# 6 0.0000 0.0000 0.0000 0.0000 0.0000 30.5075
#
#
#
# Elastic Compliance Matrix: (Units=1/GPa)
#
#
# Indices 1 2 3 4 5 6 
#
# 1 0.008835 -0.011099 -0.002001 0.000000 0.000000 0.000000
# 2 -0.011099 0.044704 -0.012221 0.000000 0.000000 0.000000
# 3 -0.002001 -0.012221 0.019301 0.000000 0.000000 0.000000
# 4 0.000000 0.000000 0.000000 0.119054 0.000000 0.000000
# 5 0.000000 0.000000 0.000000 0.000000 0.028348 0.000000
# 6 0.000000 0.000000 0.000000 0.000000 0.000000 0.032779
#
#
# Mechanical properties :
#
#
# Convention : Reuss Voigt Hill
#
# Bulk Modulus (GPa) = 45.04950 81.13547 63.09249
# Shear Modulus (GPa) = 16.07396 26.44288 21.25842
#
# Velocity S-wave (km/s) = 2.90429 3.72506 3.33999
# Velocity P-wave (km/s) = 5.90649 7.81523 6.92692
#
# Compressibility (1/GPa) = 0.02219780
#
# Stress axis : x y z
#
# Youngs Moduli (GPa) = 113.18709 22.36923 51.81046
#
# Poissons Ratio (x) = 0.24827 0.10369
# Poissons Ratio (y) = 1.25621 0.63320
# Poissons Ratio (z) = 0.22652 0.27338
#
# Static dielectric constant tensor:
#      x y z
#    x 1.650210 0.000000 0.000000 
#    y 0.000000 1.630520 0.000000 
#    z 0.000000 0.000000 1.724850 
# 
# From -- ./inp_files/48621.got.cif
#   From: 2010.05.17/outbox.cif.g08.bks.cpg/sg71_25_cif.got.tgz:48621.got - 2010.06.03 16:22:01.
