data_PCOD9521671
_publ_section_title
;
Structure prediction by ZEFSAII (Michael W. Deem and Ramdas Pophale) SiO2 
 PCOD9521671
Probable space group: I M M M
;
_chemical_formula_sum "Si O2"
_cell_formula_units_Z 88
_cell_length_a 24.134798
_cell_length_b 7.815575
_cell_length_c 22.420559
_cell_angle_alpha 90.000000
_cell_angle_beta 90.000000
_cell_angle_gamma 90.000000
_cell_volume 4229.130044
_symmetry_space_group_name_H-M "I M M M"
_symmetry_group_IT_number 71
_symmetry_cell_setting 'orthorhombic'
loop_
_space_group_symop_operation_xyz
x,y,z
-x,-y,z
x,-y,-z
-x,y,-z
-x,-y,-z
x,y,-z
-x,y,z
x,-y,z
1/2+x,1/2+y,1/2+z
1/2-x,1/2-y,1/2+z
1/2+x,1/2-y,1/2-z
1/2-x,1/2+y,1/2-z
1/2-x,1/2-y,1/2-z
1/2+x,1/2+y,1/2-z
1/2-x,1/2+y,1/2+z
1/2+x,1/2-y,1/2+z
loop_
_atom_site_type_symbol
_atom_site_label
_atom_site_fract_x
_atom_site_fract_y
_atom_site_fract_z
Si Si1 0.435852 0.796406 0.500000
Si Si2 0.939255 0.793969 0.430348
Si Si3 0.851782 0.301207 0.336741
Si Si4 0.765651 0.205709 0.181372
Si Si5 0.560671 0.796361 0.255836
Si Si6 0.117716 0.204527 0.126566
O O1 0.500000 0.728299 0.500000
O O2 0.402043 0.747783 0.440133
O O3 0.440106 0.000000 0.500000
O O4 0.935441 0.753533 0.500000
O O5 0.890913 0.712094 0.393190
O O6 0.000000 0.738008 0.408622
O O7 0.936351 0.000000 0.424462
O O8 0.842833 0.500000 0.320825
O O9 0.790880 0.231134 0.349894
O O10 0.888202 0.222726 0.282809
O O11 0.750000 0.250000 0.250000
O O12 0.822271 0.271598 0.150968
O O13 0.770712 0.000000 0.177898
O O14 0.500000 0.725067 0.240485
O O15 0.573649 0.770303 0.325049
O O16 0.559068 0.000000 0.243931
O O17 0.118839 0.000000 0.130467
#
# Coordination Sequence:
#
# PCOD9521671 Si02
#       6
#     8  16  16  16  16  16
#     4  11  25  45  67  89 117 159 206 249 300 363
#     4   9  19  36  55  77 110 148 185 230 282 334
#     4  10  20  35  56  82 112 148 189 233 279 336
#     4  10  21  38  60  85 115 150 188 231 282 341
#     4  10  20  34  55  84 117 151 188 233 286 347
#     4  11  23  39  61  89 119 153 194 244 299 351
#
# _framework density 20.808062
#
# number of rings (size 3 to 8) (size 9 to 14) (size 15 to 20)
#    0.000    1.909    1.818    2.455    0.000    6.909 
#    1.636    0.909    0.000    0.000    0.000    0.000 
#    0.000    0.000    0.000    0.000    0.000    0.000 
#
# Total GULP energy -245419.821308 kJ/mol
# GULP energy per Si atom -5577.723212 kJ/mol
# Density = 2.076070 g / cm^3
# Si number density = 20.808062 Si / 1000 Ang^3
#
#
#
# Elastic Constant Matrix: (Units=GPa)
#
#
# Indices 1 2 3 4 5 6 
#
# 1 163.4148 8.4704 56.0347 0.0000 0.0000 0.0000
# 2 8.4704 25.9805 -6.7228 0.0000 0.0000 0.0000
# 3 56.0347 -6.7228 82.5918 0.0000 0.0000 0.0000
# 4 0.0000 0.0000 0.0000 -0.7554 0.0000 0.0000
# 5 0.0000 0.0000 0.0000 0.0000 23.7882 0.0000
# 6 0.0000 0.0000 0.0000 0.0000 0.0000 16.0472
#
#
#
# Elastic Compliance Matrix: (Units=1/GPa)
#
#
# Indices 1 2 3 4 5 6 
#
# 1 0.008423 -0.004316 -0.006066 0.000000 0.000000 0.000000
# 2 -0.004316 0.041530 0.006309 0.000000 0.000000 0.000000
# 3 -0.006066 0.006309 0.016737 0.000000 0.000000 0.000000
# 4 0.000000 0.000000 0.000000 -1.323827 0.000000 0.000000
# 5 0.000000 0.000000 0.000000 0.000000 0.042038 0.000000
# 6 0.000000 0.000000 0.000000 0.000000 0.000000 0.062316
#
#
# Mechanical properties :
#
#
# Convention : Reuss Voigt Hill
#
# Bulk Modulus (GPa) = 17.08143 43.06131 30.07137
# Shear Modulus (GPa) = -4.44396 22.09632 8.82618
#
# Velocity S-wave (km/s) = -1.46299 3.26223 2.06178
# Velocity P-wave (km/s) = 2.31799 5.91008 4.48899
#
# Compressibility (1/GPa) = 0.05854310
#
# Stress axis : x y z
#
# Youngs Moduli (GPa) = 118.72084 24.07906 59.74880
#
# Poissons Ratio (x) = 0.10392 0.36244
# Poissons Ratio (y) = 0.51238 -0.37693
# Poissons Ratio (z) = 0.72016 -0.15190
#
# Static dielectric constant tensor:
#      x y z
#    x 1.833340 0.000000 0.000000 
#    y 0.000000 1.779300 0.000000 
#    z 0.000000 0.000000 1.744670 
# 
# From -- ./inp_files/10460.got.cif
#   From: 2010.05.17/outbox.cif.g08.bks.cpg/sg71_6_cif.got.tgz:10460.got - 2010.06.03 16:22:01.
