data_PCOD9521245
_publ_section_title
;
Structure prediction by ZEFSAII (Michael W. Deem and Ramdas Pophale) SiO2 
 PCOD9521245
Probable space group: I M M M
;
_chemical_formula_sum "Si O2"
_cell_formula_units_Z 64
_cell_length_a 11.466902
_cell_length_b 10.052900
_cell_length_c 31.641123
_cell_angle_alpha 90.000000
_cell_angle_beta 90.000000
_cell_angle_gamma 90.000000
_cell_volume 3647.450043
_symmetry_space_group_name_H-M "I M M M"
_symmetry_group_IT_number 71
_symmetry_cell_setting 'orthorhombic'
loop_
_space_group_symop_operation_xyz
x,y,z
-x,-y,z
x,-y,-z
-x,y,-z
-x,-y,-z
x,y,-z
-x,y,z
x,-y,z
1/2+x,1/2+y,1/2+z
1/2-x,1/2-y,1/2+z
1/2+x,1/2-y,1/2-z
1/2-x,1/2+y,1/2-z
1/2-x,1/2-y,1/2-z
1/2+x,1/2+y,1/2-z
1/2-x,1/2+y,1/2+z
1/2+x,1/2-y,1/2+z
loop_
_atom_site_type_symbol
_atom_site_label
_atom_site_fract_x
_atom_site_fract_y
_atom_site_fract_z
Si Si1 0.135174 0.500000 0.701193
Si Si2 0.500000 0.151051 0.050699
Si Si3 0.294974 0.345798 0.923971
Si Si4 0.873394 0.340249 0.000000
Si Si5 0.865962 0.210172 0.663938
Si Si6 0.361780 0.500000 0.237526
O O1 0.142179 0.634293 0.673849
O O2 0.250860 0.500000 0.730945
O O3 0.000000 0.500000 0.719832
O O4 0.608914 0.236645 0.065438
O O5 0.500000 0.000000 0.067047
O O6 0.500000 0.146325 0.000000
O O7 0.329750 0.500000 0.932920
O O8 0.280215 0.333785 0.873558
O O9 0.192523 0.310968 0.956416
O O10 0.882464 0.500000 0.000000
O O11 0.000000 0.277889 0.000000
O O12 0.848522 0.127506 0.706803
O O13 0.000000 0.178827 0.650439
O O14 0.500000 0.500000 0.252937
#
# Coordination Sequence:
#
# PCOD9521245 Si02
#       6
#     8   8  16   8  16   8
#     4  10  22  38  56  81 114 149 185 224 297 350
#     4  11  23  33  51  89 121 141 175 231 287 333
#     4  11  20  34  58  83 110 147 188 229 281 334
#     4   9  20  37  55  78 112 151 190 231 270 323
#     4  10  20  33  56  86 111 140 181 238 278 332
#     4  10  20  38  58  81 112 145 187 236 283 334
#
# _framework density 17.546506000000001
#
# number of rings (size 3 to 8) (size 9 to 14) (size 15 to 20)
#    0.000    1.750    3.750    1.125    1.750    0.500 
#    0.000    2.500    0.000    1.500    0.000    0.000 
#    0.000    0.000    0.000    0.000    0.000    0.000 
#
# Total GULP energy -178150.042016 kJ/mol
# GULP energy per Si atom -5567.188813 kJ/mol
# Density = 1.750657 g / cm^3
# Si number density = 17.546506 Si / 1000 Ang^3
#
#
#
# Elastic Constant Matrix: (Units=GPa)
#
#
# Indices 1 2 3 4 5 6 
#
# 1 114.1621 28.2272 55.1208 0.0000 0.0000 0.0000
# 2 28.2272 114.4591 11.8135 0.0000 0.0000 0.0000
# 3 55.1208 11.8135 74.5685 0.0000 0.0000 0.0000
# 4 0.0000 0.0000 0.0000 17.4794 0.0000 0.0000
# 5 0.0000 0.0000 0.0000 0.0000 3.9484 0.0000
# 6 0.0000 0.0000 0.0000 0.0000 0.0000 14.9669
#
#
#
# Elastic Compliance Matrix: (Units=1/GPa)
#
#
# Indices 1 2 3 4 5 6 
#
# 1 0.014277 -0.002472 -0.010162 0.000000 0.000000 0.000000
# 2 -0.002472 0.009310 0.000352 0.000000 0.000000 0.000000
# 3 -0.010162 0.000352 0.020866 0.000000 0.000000 0.000000
# 4 0.000000 0.000000 0.000000 0.057210 0.000000 0.000000
# 5 0.000000 0.000000 0.000000 0.000000 0.253264 0.000000
# 6 0.000000 0.000000 0.000000 0.000000 0.000000 0.066814
#
#
# Mechanical properties :
#
#
# Convention : Reuss Voigt Hill
#
# Bulk Modulus (GPa) = 50.27595 54.83475 52.55535
# Shear Modulus (GPa) = 11.03909 21.14750 16.09329
#
# Velocity S-wave (km/s) = 2.51097 3.47540 3.03178
# Velocity P-wave (km/s) = 6.09277 6.88647 6.50174
#
# Compressibility (1/GPa) = 0.01989023
#
# Stress axis : x y z
#
# Youngs Moduli (GPa) = 70.04151 107.41105 47.92390
#
# Poissons Ratio (x) = 0.26553 0.48700
# Poissons Ratio (y) = 0.17315 -0.01689
# Poissons Ratio (z) = 0.71177 -0.03786
#
# Static dielectric constant tensor:
#      x y z
#    x 1.629190 0.000000 0.000000 
#    y 0.000000 1.596060 0.000000 
#    z 0.000000 0.000000 1.666260 
# 
# From -- ./inp_files/18515.got.cif
#   From: 2010.05.17/outbox.cif.g08.bks.cpg/sg71_10_cif.got.tgz:18515.got - 2010.06.03 16:22:01.
