data_PCOD9521776
_publ_section_title
;
Structure prediction by ZEFSAII (Michael W. Deem and Ramdas Pophale) SiO2 
 PCOD9521776
Probable space group: I M M M
;
_chemical_formula_sum "Si O2"
_cell_formula_units_Z 112
_cell_length_a 16.136779
_cell_length_b 26.105013
_cell_length_c 14.498325
_cell_angle_alpha 90.000000
_cell_angle_beta 90.000000
_cell_angle_gamma 90.000000
_cell_volume 6107.431376
_symmetry_space_group_name_H-M "I M M M"
_symmetry_group_IT_number 71
_symmetry_cell_setting 'orthorhombic'
loop_
_space_group_symop_operation_xyz
x,y,z
-x,-y,z
x,-y,-z
-x,y,-z
-x,-y,-z
x,y,-z
-x,y,z
x,-y,z
1/2+x,1/2+y,1/2+z
1/2-x,1/2-y,1/2+z
1/2+x,1/2-y,1/2-z
1/2-x,1/2+y,1/2-z
1/2-x,1/2-y,1/2-z
1/2+x,1/2+y,1/2-z
1/2-x,1/2+y,1/2+z
1/2+x,1/2-y,1/2+z
loop_
_atom_site_type_symbol
_atom_site_label
_atom_site_fract_x
_atom_site_fract_y
_atom_site_fract_z
Si Si1 0.500000 0.279316 0.612618
Si Si2 0.000000 0.340305 0.110089
Si Si3 0.209026 0.057356 0.769998
Si Si4 0.697530 0.312262 0.892933
Si Si5 0.656198 0.864172 0.721134
Si Si6 0.903645 0.085664 0.606416
Si Si7 0.848883 0.849947 0.106205
Si Si8 0.164486 0.696471 0.604999
O O1 0.500000 0.278393 0.500000
O O2 0.500000 0.219899 0.640421
O O3 0.419368 0.311526 0.642326
O O4 0.081412 0.366873 0.150456
O O5 0.000000 0.341350 0.000000
O O6 0.297342 0.083173 0.746119
O O7 0.155117 0.056729 0.676938
O O8 0.163662 0.098252 0.836522
O O9 0.216079 0.000000 0.807537
O O10 0.772017 0.329015 0.826097
O O11 0.626951 0.355404 0.887192
O O12 0.662618 0.256386 0.872020
O O13 0.727601 0.310971 0.000000
O O14 0.625103 0.837423 0.814976
O O15 0.892373 0.069692 0.500000
O O16 0.000000 0.080457 0.629984
O O17 0.761225 0.820519 0.106567
O O18 0.869143 0.862483 0.000000
O O19 0.134026 0.688642 0.500000
#
# Coordination Sequence:
#
# PCOD9521776 Si02
#       8
#     8   8  16  16  16  16  16  16
#     4   9  18  32  51  82 120 153 173 206 263 324
#     4  11  22  36  58  86 114 141 172 214 274 342
#     4  10  22  38  56  75 100 139 186 232 275 308
#     4   9  16  29  51  75 105 140 174 213 262 318
#     4  10  20  35  52  77 105 136 178 224 273 323
#     4   9  19  34  49  71 103 136 174 217 259 310
#     4   9  18  33  53  78 111 143 179 219 261 316
#     4   9  17  31  50  74 105 144 180 214 259 319
#
# _framework density 18.338314
#
# number of rings (size 3 to 8) (size 9 to 14) (size 15 to 20)
#    0.000    2.571    0.000    1.714    1.000    6.000 
#    1.286    1.429    0.000    1.714    0.000    0.000 
#    0.000    4.571    0.000    0.000    0.000    0.000 
#
# Total GULP energy -312429.937830 kJ/mol
# GULP energy per Si atom -5579.106033 kJ/mol
# Density = 1.829658 g / cm^3
# Si number density = 18.338314 Si / 1000 Ang^3
#
#
#
# Elastic Constant Matrix: (Units=GPa)
#
#
# Indices 1 2 3 4 5 6 
#
# 1 33.7285 -4.8596 14.3145 0.0000 0.0000 0.0000
# 2 -4.8596 62.6550 9.8734 0.0000 0.0000 0.0000
# 3 14.3145 9.8734 51.5333 0.0001 0.0000 0.0000
# 4 0.0000 0.0000 0.0001 12.2056 0.0000 0.0000
# 5 0.0000 0.0000 0.0000 0.0000 22.8561 0.0000
# 6 0.0000 0.0000 0.0000 0.0000 0.0000 1.3014
#
#
#
# Elastic Compliance Matrix: (Units=1/GPa)
#
#
# Indices 1 2 3 4 5 6 
#
# 1 0.034721 0.004344 -0.010477 0.000000 0.000000 0.000000
# 2 0.004344 0.017001 -0.004464 0.000000 0.000000 0.000000
# 3 -0.010477 -0.004464 0.023170 0.000000 0.000000 -0.000001
# 4 0.000000 0.000000 0.000000 0.081930 0.000000 0.000001
# 5 0.000000 0.000000 0.000000 0.000000 0.043752 -0.000001
# 6 0.000000 0.000000 -0.000001 0.000001 -0.000001 0.768408
#
#
# Mechanical properties :
#
#
# Convention : Reuss Voigt Hill
#
# Bulk Modulus (GPa) = 18.62247 20.73037 19.67642
# Shear Modulus (GPa) = 4.95995 15.84520 10.40257
#
# Velocity S-wave (km/s) = 1.64638 2.94266 2.38430
# Velocity P-wave (km/s) = 3.71363 4.78274 4.28169
#
# Compressibility (1/GPa) = 0.05369857
#
# Stress axis : x y z
#
# Youngs Moduli (GPa) = 28.80127 58.82093 43.15874
#
# Poissons Ratio (x) = -0.25551 0.45216
# Poissons Ratio (y) = -0.12511 0.19265
# Poissons Ratio (z) = 0.30174 0.26257
#
# Static dielectric constant tensor:
#      x y z
#    x 1.627900 0.000000 0.000000 
#    y 0.000000 1.615690 0.000000 
#    z 0.000000 0.000000 1.678090 
# 
# From -- ./inp_files/35176.got.cif
#   From: 2010.05.17/outbox.cif.g08.bks.cpg/sg71_18_cif.got.tgz:35176.got - 2010.06.03 16:22:01.
