data_PCOD9521856
_publ_section_title
;
Structure prediction by ZEFSAII (Michael W. Deem and Ramdas Pophale) SiO2 
 PCOD9521856
Probable space group: I M M M
;
_chemical_formula_sum "Si O2"
_cell_formula_units_Z 88
_cell_length_a 29.728517
_cell_length_b 14.995044
_cell_length_c 9.126703
_cell_angle_alpha 90.000000
_cell_angle_beta 90.000000
_cell_angle_gamma 90.000000
_cell_volume 4068.505501
_symmetry_space_group_name_H-M "I M M M"
_symmetry_group_IT_number 71
_symmetry_cell_setting 'orthorhombic'
loop_
_space_group_symop_operation_xyz
x,y,z
-x,-y,z
x,-y,-z
-x,y,-z
-x,-y,-z
x,y,-z
-x,y,z
x,-y,z
1/2+x,1/2+y,1/2+z
1/2-x,1/2-y,1/2+z
1/2+x,1/2-y,1/2-z
1/2-x,1/2+y,1/2-z
1/2-x,1/2-y,1/2-z
1/2+x,1/2+y,1/2-z
1/2-x,1/2+y,1/2+z
1/2+x,1/2-y,1/2+z
loop_
_atom_site_type_symbol
_atom_site_label
_atom_site_fract_x
_atom_site_fract_y
_atom_site_fract_z
Si Si1 0.409085 0.109623 0.332568
Si Si2 0.048221 0.106034 0.177612
Si Si3 0.353999 0.608026 0.330777
Si Si4 0.737272 0.657532 0.174535
Si Si5 0.500000 0.890939 0.831608
Si Si6 0.822561 0.397640 0.663102
O O1 0.409571 0.140178 0.500000
O O2 0.454590 0.136790 0.250703
O O3 0.364206 0.143312 0.251463
O O4 0.408717 0.000000 0.335865
O O5 0.097075 0.141196 0.224024
O O6 0.000000 0.143994 0.228824
O O7 0.047477 0.000000 0.212534
O O8 0.048816 0.111934 0.000000
O O9 0.346349 0.637638 0.500000
O O10 0.356442 0.500000 0.335232
O O11 0.312059 0.632438 0.230577
O O12 0.750000 0.750000 0.250000
O O13 0.777188 0.599426 0.243608
O O14 0.739634 0.657913 0.000000
O O15 0.500000 0.000000 0.830970
O O16 0.500000 0.862267 0.000000
O O17 0.815634 0.358350 0.500000
O O18 0.836147 0.500000 0.643036
#
# Coordination Sequence:
#
# PCOD9521856 Si02
#       6
#    16  16  16  16   8  16
#     4   9  16  26  42  67  98 130 164 203 248 298
#     4   7  10  19  40  73 109 140 170 205 245 293
#     4   9  17  31  53  81 112 143 176 216 261 310
#     4  12  25  39  54  73 100 136 178 221 267 316
#     4   9  15  23  37  61  95 131 165 203 250 299
#     4  10  20  35  55  78 104 133 167 209 259 315
#
# _framework density 21.629563000000001
#
# number of rings (size 3 to 8) (size 9 to 14) (size 15 to 20)
#    0.000    2.636    0.000    5.182    0.000    6.909 
#    0.000    0.000    0.000    0.545    2.364    2.545 
#    0.000    0.000    0.000    0.000    0.000    0.000 
#
# Total GULP energy -245439.936934 kJ/mol
# GULP energy per Si atom -5578.180385 kJ/mol
# Density = 2.158033 g / cm^3
# Si number density = 21.629563 Si / 1000 Ang^3
#
#
#
# Elastic Constant Matrix: (Units=GPa)
#
#
# Indices 1 2 3 4 5 6 
#
# 1 246.9486 11.5394 118.7935 0.0000 0.0000 0.0000
# 2 11.5394 25.9871 9.1048 0.0000 0.0000 0.0000
# 3 118.7935 9.1048 181.1811 0.0000 0.0000 0.0000
# 4 0.0000 0.0000 0.0000 10.8214 0.0000 0.0000
# 5 0.0000 0.0000 0.0000 0.0000 23.0572 0.0000
# 6 0.0000 0.0000 0.0000 0.0000 0.0000 2.0545
#
#
#
# Elastic Compliance Matrix: (Units=1/GPa)
#
#
# Indices 1 2 3 4 5 6 
#
# 1 0.005958 -0.001300 -0.003841 0.000000 0.000000 0.000000
# 2 -0.001300 0.039454 -0.001130 0.000000 0.000000 0.000000
# 3 -0.003841 -0.001130 0.008095 0.000000 0.000000 0.000000
# 4 0.000000 0.000000 0.000000 0.092410 0.000000 0.000000
# 5 0.000000 0.000000 0.000000 0.000000 0.043370 0.000000
# 6 0.000000 0.000000 0.000000 0.000000 0.000000 0.486746
#
#
# Mechanical properties :
#
#
# Convention : Reuss Voigt Hill
#
# Bulk Modulus (GPa) = 24.41183 81.44357 52.92770
# Shear Modulus (GPa) = 7.12018 28.16521 17.64270
#
# Velocity S-wave (km/s) = 1.81632 3.61246 2.85910
# Velocity P-wave (km/s) = 3.96352 7.42532 5.95168
#
# Compressibility (1/GPa) = 0.04096375
#
# Stress axis : x y z
#
# Youngs Moduli (GPa) = 167.84517 25.34608 123.53980
#
# Poissons Ratio (x) = 0.03294 0.47452
# Poissons Ratio (y) = 0.21817 0.13965
# Poissons Ratio (z) = 0.64470 0.02865
#
# Static dielectric constant tensor:
#      x y z
#    x 1.850680 0.000000 0.000000 
#    y 0.000000 2.154980 0.000000 
#    z 0.000000 0.000000 1.750990 
# 
# From -- ./inp_files/16701.got.cif
#   From: 2010.05.17/outbox.cif.g08.bks.cpg/sg71_9_cif.got.tgz:16701.got - 2010.06.03 16:22:01.
