data_PCOD9521988
_publ_section_title
;
Structure prediction by ZEFSAII (Michael W. Deem and Ramdas Pophale) SiO2 
 PCOD9521988
Probable space group: I M M M
;
_chemical_formula_sum "Si O2"
_cell_formula_units_Z 104
_cell_length_a 8.485725
_cell_length_b 22.669370
_cell_length_c 28.340419
_cell_angle_alpha 90.000000
_cell_angle_beta 90.000000
_cell_angle_gamma 90.000000
_cell_volume 5451.734168
_symmetry_space_group_name_H-M "I M M M"
_symmetry_group_IT_number 71
_symmetry_cell_setting 'orthorhombic'
loop_
_space_group_symop_operation_xyz
x,y,z
-x,-y,z
x,-y,-z
-x,y,-z
-x,-y,-z
x,y,-z
-x,y,z
x,-y,z
1/2+x,1/2+y,1/2+z
1/2-x,1/2-y,1/2+z
1/2+x,1/2-y,1/2-z
1/2-x,1/2+y,1/2-z
1/2-x,1/2-y,1/2-z
1/2+x,1/2+y,1/2-z
1/2-x,1/2+y,1/2+z
1/2+x,1/2-y,1/2+z
loop_
_atom_site_type_symbol
_atom_site_label
_atom_site_fract_x
_atom_site_fract_y
_atom_site_fract_z
Si Si1 0.312760 0.864848 0.553324
Si Si2 0.188076 0.837710 0.724050
Si Si3 0.691005 0.930646 0.648899
Si Si4 0.178023 0.741560 0.417513
Si Si5 0.682810 0.718379 0.681770
Si Si6 0.806414 0.000000 0.053839
Si Si7 0.823879 0.124040 0.055074
O O1 0.250232 0.877028 0.500000
O O2 0.500000 0.875259 0.551317
O O3 0.254514 0.902540 0.598569
O O4 0.283463 0.796325 0.566046
O O5 0.238493 0.893445 0.692628
O O6 0.286630 0.781721 0.705770
O O7 0.215577 0.833568 0.780527
O O8 0.000000 0.827554 0.717464
O O9 0.500000 0.925029 0.650819
O O10 0.730234 0.000000 0.651103
O O11 0.209961 0.722698 0.363842
O O12 0.217841 0.681126 0.443144
O O13 0.000000 0.760791 0.424709
O O14 0.500000 0.714718 0.668097
O O15 0.762395 0.937381 0.076752
O O16 0.000000 0.000000 0.052690
O O17 0.743694 0.000000 0.000000
O O18 0.000000 0.137531 0.073888
O O19 0.842516 0.110399 0.000000
#
# Coordination Sequence:
#
# PCOD9521988 Si02
#       7
#    16  16  16  16  16   8  16
#     4  10  21  37  56  79 112 154 197 240 285 334
#     4  10  20  35  58  87 111 136 173 223 279 330
#     4  10  21  37  59  85 114 153 196 236 283 341
#     4  12  23  33  50  80 114 147 184 227 281 335
#     4  10  20  35  57  82 109 139 175 218 270 335
#     4   7  12  26  49  73  93 123 173 221 255 305
#     4   9  17  31  52  75 101 137 180 222 268 324
#
# _framework density 19.076498999999998
#
# number of rings (size 3 to 8) (size 9 to 14) (size 15 to 20)
#    0.000    2.077    1.538    3.692    0.000    4.923 
#    0.000    1.923    1.692    1.385    0.000    2.154 
#    0.000    0.000    0.000    0.000    0.000    0.000 
#
# Total GULP energy -289522.390248 kJ/mol
# GULP energy per Si atom -5567.738274 kJ/mol
# Density = 1.903308 g / cm^3
# Si number density = 19.076499 Si / 1000 Ang^3
#
#
#
# Elastic Constant Matrix: (Units=GPa)
#
#
# Indices 1 2 3 4 5 6 
#
# 1 12.7170 -5.0485 -2.7207 0.0000 0.0000 0.0000
# 2 -5.0485 97.5165 28.0491 0.0000 0.0000 0.0000
# 3 -2.7207 28.0491 39.6087 0.0000 0.0000 0.0000
# 4 0.0000 0.0000 0.0000 20.7440 0.0000 0.0000
# 5 0.0000 0.0000 0.0000 0.0000 21.9376 0.0000
# 6 0.0000 0.0000 0.0000 0.0000 0.0000 11.4489
#
#
#
# Elastic Compliance Matrix: (Units=1/GPa)
#
#
# Indices 1 2 3 4 5 6 
#
# 1 0.080615 0.003241 0.003243 0.000000 0.000000 0.000000
# 2 0.003241 0.013008 -0.008989 0.000000 0.000000 0.000000
# 3 0.003243 -0.008989 0.031835 0.000000 0.000000 0.000000
# 4 0.000000 0.000000 0.000000 0.048207 0.000000 0.000000
# 5 0.000000 0.000000 0.000000 0.000000 0.045584 0.000000
# 6 0.000000 0.000000 0.000000 0.000000 0.000000 0.087345
#
#
# Mechanical properties :
#
#
# Convention : Reuss Voigt Hill
#
# Bulk Modulus (GPa) = 8.30241 21.15579 14.72910
# Shear Modulus (GPa) = 14.21446 19.46358 16.83902
#
# Velocity S-wave (km/s) = 2.73267 3.19766 2.97427
# Velocity P-wave (km/s) = 3.78394 4.97468 4.41960
#
# Compressibility (1/GPa) = 0.12044696
#
# Stress axis : x y z
#
# Youngs Moduli (GPa) = 12.40462 76.87561 31.41156
#
# Poissons Ratio (x) = -0.24914 -0.10185
# Poissons Ratio (y) = -0.04020 0.28236
# Poissons Ratio (z) = -0.04022 0.69104
#
# Static dielectric constant tensor:
#      x y z
#    x 1.677630 0.000000 0.000000 
#    y 0.000000 1.683100 0.000000 
#    z 0.000000 0.000000 1.848420 
# 
# From -- ./inp_files/68298.got.cif
#   From: 2010.05.17/outbox.cif.g08.bks.cpg/sg71_35_cif.got.tgz:68298.got - 2010.06.03 16:22:01.
