data_PCOD9521987
_publ_section_title
;
Structure prediction by ZEFSAII (Michael W. Deem and Ramdas Pophale) SiO2 
 PCOD9521987
Probable space group: I M M M
;
_chemical_formula_sum "Si O2"
_cell_formula_units_Z 120
_cell_length_a 19.497806
_cell_length_b 28.081299
_cell_length_c 12.475764
_cell_angle_alpha 90.000000
_cell_angle_beta 90.000000
_cell_angle_gamma 90.000000
_cell_volume 6830.776717
_symmetry_space_group_name_H-M "I M M M"
_symmetry_group_IT_number 71
_symmetry_cell_setting 'orthorhombic'
loop_
_space_group_symop_operation_xyz
x,y,z
-x,-y,z
x,-y,-z
-x,y,-z
-x,-y,-z
x,y,-z
-x,y,z
x,-y,z
1/2+x,1/2+y,1/2+z
1/2-x,1/2-y,1/2+z
1/2+x,1/2-y,1/2-z
1/2-x,1/2+y,1/2-z
1/2-x,1/2-y,1/2-z
1/2+x,1/2+y,1/2-z
1/2-x,1/2+y,1/2+z
1/2+x,1/2-y,1/2+z
loop_
_atom_site_type_symbol
_atom_site_label
_atom_site_fract_x
_atom_site_fract_y
_atom_site_fract_z
Si Si1 0.920272 0.446761 0.768732
Si Si2 0.344874 0.556308 0.282435
Si Si3 0.298637 0.916321 0.875830
Si Si4 0.688210 0.812831 0.786613
Si Si5 0.420272 0.628248 0.872522
Si Si6 0.918706 0.651274 0.879268
Si Si7 0.311419 0.291794 0.124724
Si Si8 0.921846 0.057709 0.000000
O O1 0.910327 0.500000 0.812131
O O2 0.868446 0.438222 0.671068
O O3 0.907101 0.404641 0.853253
O O4 0.000000 0.442391 0.735362
O O5 0.356336 0.500000 0.265215
O O6 0.264731 0.565539 0.304030
O O7 0.377831 0.587701 0.189112
O O8 0.382543 0.571726 0.392563
O O9 0.303708 0.859418 0.859806
O O10 0.287681 0.928760 0.000000
O O11 0.622985 0.820400 0.709738
O O12 0.681121 0.764217 0.852115
O O13 0.753340 0.809620 0.706867
O O14 0.500000 0.629404 0.838292
O O15 0.380432 0.678008 0.854573
O O16 0.418953 0.619145 0.000000
O O17 0.000000 0.659951 0.871345
O O18 0.896228 0.662420 0.000000
O O19 0.292350 0.299420 0.000000
O O20 0.000000 0.074786 0.000000
O O21 0.922930 0.000000 0.000000
#
# Coordination Sequence:
#
# PCOD9521987 Si02
#       8
#    16  16  16  16  16  16  16   8
#     4   9  19  34  51  76 110 148 191 233 273 321
#     4  11  21  35  55  82 113 146 189 235 278 333
#     4  11  21  35  55  81 113 148 187 230 279 334
#     4  10  20  35  57  82 108 142 176 224 271 329
#     4  10  22  40  60  82 111 148 188 232 284 340
#     4   9  18  33  54  79 107 140 177 220 271 323
#     4  10  20  36  58  82 106 139 180 222 271 325
#     4   9  18  32  52  76 103 141 183 227 280 330
#
# _framework density 17.567549
#
# number of rings (size 3 to 8) (size 9 to 14) (size 15 to 20)
#    0.000    2.067    2.000    1.600    0.000    2.933 
#    0.000    2.667    1.467    4.000    0.000    0.000 
#    0.000    0.000    0.000    0.000    0.000    0.000 
#
# Total GULP energy -334668.575714 kJ/mol
# GULP energy per Si atom -5577.809595 kJ/mol
# Density = 1.752756 g / cm^3
# Si number density = 17.567549 Si / 1000 Ang^3
#
#
#
# Elastic Constant Matrix: (Units=GPa)
#
#
# Indices 1 2 3 4 5 6 
#
# 1 64.6208 5.6516 20.7473 0.0000 0.0000 0.0000
# 2 5.6516 41.6208 1.0399 0.0000 0.0000 0.0000
# 3 20.7473 1.0399 46.0971 0.0000 0.0000 0.0000
# 4 0.0000 0.0000 0.0000 14.2180 0.0000 0.0000
# 5 0.0000 0.0000 0.0000 0.0000 28.2343 0.0000
# 6 0.0000 0.0000 0.0000 0.0000 0.0000 21.1064
#
#
#
# Elastic Compliance Matrix: (Units=1/GPa)
#
#
# Indices 1 2 3 4 5 6 
#
# 1 0.018303 -0.002281 -0.008186 0.000000 0.000000 0.000000
# 2 -0.002281 0.024324 0.000478 0.000000 0.000000 0.000000
# 3 -0.008186 0.000478 0.025367 0.000000 0.000000 0.000000
# 4 0.000000 0.000000 0.000000 0.070333 0.000000 0.000000
# 5 0.000000 0.000000 0.000000 0.000000 0.035418 0.000000
# 6 0.000000 0.000000 0.000000 0.000000 0.000000 0.047379
#
#
# Mechanical properties :
#
#
# Convention : Reuss Voigt Hill
#
# Bulk Modulus (GPa) = 20.82657 23.02402 21.92530
# Shear Modulus (GPa) = 19.44713 21.03841 20.24277
#
# Velocity S-wave (km/s) = 3.33076 3.46435 3.39821
# Velocity P-wave (km/s) = 5.16457 5.39785 5.28250
#
# Compressibility (1/GPa) = 0.04801558
#
# Stress axis : x y z
#
# Youngs Moduli (GPa) = 54.63698 41.11130 39.42134
#
# Poissons Ratio (x) = 0.09376 0.32271
# Poissons Ratio (y) = 0.12461 -0.01883
# Poissons Ratio (z) = 0.44727 -0.01964
#
# Static dielectric constant tensor:
#      x y z
#    x 1.597860 0.000000 0.000000 
#    y 0.000000 1.585580 0.000000 
#    z 0.000000 0.000000 1.572340 
# 
# From -- ./inp_files/26517.got.cif
#   From: 2010.05.17/outbox.cif.g08.bks.cpg/sg71_14_cif.got.tgz:26517.got - 2010.06.03 16:22:01.
