data_PCOD9521396
_publ_section_title
;
Structure prediction by ZEFSAII (Michael W. Deem and Ramdas Pophale) SiO2 
 PCOD9521396
Probable space group: I M M M
;
_chemical_formula_sum "Si O2"
_cell_formula_units_Z 80
_cell_length_a 7.749866
_cell_length_b 16.694446
_cell_length_c 29.313005
_cell_angle_alpha 90.000000
_cell_angle_beta 90.000000
_cell_angle_gamma 90.000000
_cell_volume 3792.508363
_symmetry_space_group_name_H-M "I M M M"
_symmetry_group_IT_number 71
_symmetry_cell_setting 'orthorhombic'
loop_
_space_group_symop_operation_xyz
x,y,z
-x,-y,z
x,-y,-z
-x,y,-z
-x,-y,-z
x,y,-z
-x,y,z
x,-y,z
1/2+x,1/2+y,1/2+z
1/2-x,1/2-y,1/2+z
1/2+x,1/2-y,1/2-z
1/2-x,1/2+y,1/2-z
1/2-x,1/2-y,1/2-z
1/2+x,1/2+y,1/2-z
1/2-x,1/2+y,1/2+z
1/2+x,1/2-y,1/2+z
loop_
_atom_site_type_symbol
_atom_site_label
_atom_site_fract_x
_atom_site_fract_y
_atom_site_fract_z
Si Si1 0.793873 0.000000 0.449193
Si Si2 0.801819 0.151407 0.806439
Si Si3 0.210779 0.092785 0.000000
Si Si4 0.203123 0.834178 0.710153
Si Si5 0.788041 0.174859 0.094671
Si Si6 0.203015 0.645043 0.114225
O O1 0.736625 0.921370 0.422871
O O2 0.723434 0.000000 0.500000
O O3 0.000000 0.000000 0.450601
O O4 0.729126 0.126005 0.756950
O O5 0.792716 0.248534 0.800212
O O6 0.728985 0.135477 0.857028
O O7 0.000000 0.123801 0.808165
O O8 0.267028 0.134866 0.047242
O O9 0.000000 0.095654 0.000000
O O10 0.262112 0.000000 0.000000
O O11 0.221271 0.880584 0.663019
O O12 0.000000 0.817577 0.717154
O O13 0.732091 0.267686 0.098145
O O14 0.000000 0.172827 0.095197
O O15 0.000000 0.653572 0.121299
#
# Coordination Sequence:
#
# PCOD9521396 Si02
#       6
#     8  16   8  16  16  16
#     4  11  25  41  55  75 107 137 169 218 267 312
#     4   8  14  25  42  68 101 134 170 214 260 312
#     4   9  16  26  44  71 103 134 162 209 263 299
#     4   9  15  25  45  70 100 133 169 215 264 308
#     4   8  15  27  45  71 102 134 174 216 254 304
#     4  10  20  34  53  75 102 138 178 215 257 314
#
# _framework density 21.09422
#
# number of rings (size 3 to 8) (size 9 to 14) (size 15 to 20)
#    0.000    3.000    0.000    2.700    1.400    1.600 
#    0.000    0.000    2.200    0.000    0.000    0.000 
#    0.000   35.000    0.000    0.000    0.000    0.000 
#
# Total GULP energy -222782.653429 kJ/mol
# GULP energy per Si atom -5569.566336 kJ/mol
# Density = 2.104621 g / cm^3
# Si number density = 21.094220 Si / 1000 Ang^3
#
#
#
# Elastic Constant Matrix: (Units=GPa)
#
#
# Indices 1 2 3 4 5 6 
#
# 1 42.8893 1.2573 5.0840 0.0000 0.0000 0.0000
# 2 1.2573 56.7506 77.9013 0.0000 0.0000 0.0000
# 3 5.0840 77.9013 277.0392 0.0000 0.0000 0.0000
# 4 0.0000 0.0000 0.0000 13.1750 0.0000 0.0000
# 5 0.0000 0.0000 0.0000 0.0000 17.8766 0.0000
# 6 0.0000 0.0000 0.0000 0.0000 0.0000 0.3645
#
#
#
# Elastic Compliance Matrix: (Units=1/GPa)
#
#
# Indices 1 2 3 4 5 6 
#
# 1 0.023367 0.000116 -0.000461 0.000000 0.000000 0.000000
# 2 0.000116 0.028699 -0.008072 0.000000 0.000000 0.000000
# 3 -0.000461 -0.008072 0.005888 0.000000 0.000000 0.000000
# 4 0.000000 0.000000 0.000000 0.075901 0.000000 0.000000
# 5 0.000000 0.000000 0.000000 0.000000 0.055939 0.000000
# 6 0.000000 0.000000 0.000000 0.000000 0.000000 2.743828
#
#
# Mechanical properties :
#
#
# Convention : Reuss Voigt Hill
#
# Bulk Modulus (GPa) = 24.32011 60.57384 42.44697
# Shear Modulus (GPa) = 1.68682 25.77897 13.73289
#
# Velocity S-wave (km/s) = 0.89521 3.49963 2.55429
# Velocity P-wave (km/s) = 3.55286 6.71625 5.37266
#
# Compressibility (1/GPa) = 0.04111824
#
# Stress axis : x y z
#
# Youngs Moduli (GPa) = 42.79511 34.84468 169.84131
#
# Poissons Ratio (x) = -0.00403 0.07835
# Poissons Ratio (y) = -0.00494 1.37096
# Poissons Ratio (z) = 0.01974 0.28127
#
# Static dielectric constant tensor:
#      x y z
#    x 1.792880 0.000000 0.000000 
#    y 0.000000 1.751440 0.000000 
#    z 0.000000 0.000000 1.837140 
# 
# From -- ./inp_files/63064.got.cif
#   From: 2010.05.17/outbox.cif.g08.bks.cpg/sg71_32_cif.got.tgz:63064.got - 2010.06.03 16:22:01.
