data_PCOD9521847
_publ_section_title
;
Structure prediction by ZEFSAII (Michael W. Deem and Ramdas Pophale) SiO2 
 PCOD9521847
Probable space group: I M M M
;
_chemical_formula_sum "Si O2"
_cell_formula_units_Z 80
_cell_length_a 28.628996
_cell_length_b 8.456256
_cell_length_c 18.417444
_cell_angle_alpha 90.000000
_cell_angle_beta 90.000000
_cell_angle_gamma 90.000000
_cell_volume 4458.754883
_symmetry_space_group_name_H-M "I M M M"
_symmetry_group_IT_number 71
_symmetry_cell_setting 'orthorhombic'
loop_
_space_group_symop_operation_xyz
x,y,z
-x,-y,z
x,-y,-z
-x,y,-z
-x,-y,-z
x,y,-z
-x,y,z
x,-y,z
1/2+x,1/2+y,1/2+z
1/2-x,1/2-y,1/2+z
1/2+x,1/2-y,1/2-z
1/2-x,1/2+y,1/2-z
1/2-x,1/2-y,1/2-z
1/2+x,1/2+y,1/2-z
1/2-x,1/2+y,1/2+z
1/2+x,1/2-y,1/2+z
loop_
_atom_site_type_symbol
_atom_site_label
_atom_site_fract_x
_atom_site_fract_y
_atom_site_fract_z
Si Si1 0.353351 0.188192 0.802702
Si Si2 0.100696 0.308761 0.081302
Si Si3 0.948069 0.692631 0.228647
Si Si4 0.215540 0.811893 0.583827
Si Si5 0.691451 0.313571 0.342174
O O1 0.405323 0.243454 0.779926
O O2 0.331116 0.268739 0.872566
O O3 0.320886 0.226428 0.733011
O O4 0.354241 0.000000 0.813134
O O5 0.104808 0.500000 0.083630
O O6 0.065894 0.262318 0.146222
O O7 0.150954 0.237689 0.101715
O O8 0.086339 0.263485 0.000000
O O9 0.948271 0.500000 0.230523
O O10 0.000000 0.747872 0.247442
O O11 0.214014 0.760294 0.500000
O O12 0.258809 0.732738 0.625366
O O13 0.222626 0.000000 0.585558
O O14 0.689258 0.500000 0.329091
#
# Coordination Sequence:
#
# PCOD9521847 Si02
#       5
#    16  16  16  16  16
#     4  10  20  35  55  77 102 131 166 207 247 292
#     4   9  17  29  46  71 104 138 171 208 247 287
#     4   8  15  29  50  75  99 126 164 209 254 295
#     4  11  23  37  53  74 102 133 165 204 249 296
#     4  11  21  33  51  74 103 138 173 204 239 289
#
# _framework density 17.942229999999999
#
# number of rings (size 3 to 8) (size 9 to 14) (size 15 to 20)
#    0.000    2.200    0.000    5.400    0.000    4.800 
#    0.000    2.000    0.000   15.600    0.000    9.800 
#    0.000    0.000    0.000    0.000    0.000    0.000 
#
# Total GULP energy -223264.277535 kJ/mol
# GULP energy per Si atom -5581.606938 kJ/mol
# Density = 1.790139 g / cm^3
# Si number density = 17.942230 Si / 1000 Ang^3
#
#
#
# Elastic Constant Matrix: (Units=GPa)
#
#
# Indices 1 2 3 4 5 6 
#
# 1 110.3983 -5.1781 36.0811 0.0000 0.0000 0.0000
# 2 -5.1781 14.5122 -10.6649 0.0000 0.0000 0.0000
# 3 36.0811 -10.6649 40.2019 0.0000 0.0000 0.0000
# 4 0.0000 0.0000 0.0000 23.1610 0.0000 0.0000
# 5 0.0000 0.0000 0.0000 0.0000 4.8425 0.0000
# 6 0.0000 0.0000 0.0000 0.0000 0.0000 16.5515
#
#
#
# Elastic Compliance Matrix: (Units=1/GPa)
#
#
# Indices 1 2 3 4 5 6 
#
# 1 0.013095 -0.004925 -0.013060 0.000000 0.000000 0.000000
# 2 -0.004925 0.087446 0.027618 0.000000 0.000000 0.000000
# 3 -0.013060 0.027618 0.043922 0.000000 0.000000 0.000000
# 4 0.000000 0.000000 0.000000 0.043176 0.000000 0.000000
# 5 0.000000 0.000000 0.000000 0.000000 0.206504 0.000000
# 6 0.000000 0.000000 0.000000 0.000000 0.000000 0.060417
#
#
# Mechanical properties :
#
#
# Convention : Reuss Voigt Hill
#
# Bulk Modulus (GPa) = 6.10756 22.84318 14.47537
# Shear Modulus (GPa) = 10.20678 18.56930 14.38804
#
# Velocity S-wave (km/s) = 2.38769 3.22055 2.83487
# Velocity P-wave (km/s) = 3.31855 5.15640 4.33597
#
# Compressibility (1/GPa) = 0.16373152
#
# Stress axis : x y z
#
# Youngs Moduli (GPa) = 76.36317 11.43557 22.76763
#
# Poissons Ratio (x) = 0.05632 0.29733
# Poissons Ratio (y) = 0.37607 -0.62880
# Poissons Ratio (z) = 0.99726 -0.31583
#
# Static dielectric constant tensor:
#      x y z
#    x 1.613390 0.000000 0.000000 
#    y 0.000000 1.609250 0.000000 
#    z 0.000000 0.000000 1.610050 
# 
# From -- ./inp_files/8283.got.cif
#   From: 2010.05.17/outbox.cif.g08.bks.cpg/sg71_5_cif.got.tgz:8283.got - 2010.06.03 16:22:01.
