data_PCOD9521050
_publ_section_title
;
Structure prediction by ZEFSAII (Michael W. Deem and Ramdas Pophale) SiO2 
 PCOD9521050
Probable space group: I M M M
;
_chemical_formula_sum "Si O2"
_cell_formula_units_Z 120
_cell_length_a 26.255968
_cell_length_b 9.471846
_cell_length_c 27.925413
_cell_angle_alpha 90.000000
_cell_angle_beta 90.000000
_cell_angle_gamma 90.000000
_cell_volume 6944.840367
_symmetry_space_group_name_H-M "I M M M"
_symmetry_group_IT_number 71
_symmetry_cell_setting 'orthorhombic'
loop_
_space_group_symop_operation_xyz
x,y,z
-x,-y,z
x,-y,-z
-x,y,-z
-x,-y,-z
x,y,-z
-x,y,z
x,-y,z
1/2+x,1/2+y,1/2+z
1/2-x,1/2-y,1/2+z
1/2+x,1/2-y,1/2-z
1/2-x,1/2+y,1/2-z
1/2-x,1/2-y,1/2-z
1/2+x,1/2+y,1/2-z
1/2-x,1/2+y,1/2+z
1/2+x,1/2-y,1/2+z
loop_
_atom_site_type_symbol
_atom_site_label
_atom_site_fract_x
_atom_site_fract_y
_atom_site_fract_z
Si Si1 0.058206 0.171688 0.500000
Si Si2 0.937928 0.335266 0.052812
Si Si3 0.059624 0.832667 0.854584
Si Si4 0.274017 0.334790 0.646233
Si Si5 0.749845 0.332449 0.945981
Si Si6 0.867458 0.831944 0.414796
Si Si7 0.156634 0.333832 0.321850
Si Si8 0.858854 0.169289 0.776169
O O1 0.090216 0.212512 0.453155
O O2 0.000000 0.221032 0.500000
O O3 0.057675 0.000000 0.500000
O O4 0.924409 0.500000 0.057532
O O5 0.920262 0.248223 0.098609
O O6 0.000000 0.327355 0.052669
O O7 0.920853 0.285755 0.000000
O O8 0.090622 0.799915 0.806805
O O9 0.000000 0.799298 0.848625
O O10 0.064502 0.000000 0.863246
O O11 0.283036 0.500000 0.635806
O O12 0.277318 0.247584 0.597224
O O13 0.216943 0.319609 0.666790
O O14 0.313011 0.292247 0.687712
O O15 0.759508 0.500000 0.942584
O O16 0.688977 0.311958 0.937464
O O17 0.762784 0.286067 0.000000
O O18 0.870369 0.743514 0.366253
O O19 0.872532 0.000000 0.405189
O O20 0.144705 0.500000 0.319678
O O21 0.144472 0.255399 0.272547
O O22 0.856106 0.000000 0.766834
#
# Coordination Sequence:
#
# PCOD9521050 Si02
#       8
#     8  16  16  16  16  16  16  16
#     4   9  16  28  51  81 107 133 171 213 246 285
#     4   8  14  26  45  68  92 118 150 188 230 275
#     4   9  18  32  50  71  92 118 157 199 236 280
#     4   9  19  33  49  72  99 126 159 200 247 295
#     4   9  16  28  48  73 100 131 165 199 238 291
#     4   9  16  30  51  74 100 130 164 201 242 287
#     4  10  20  33  51  75  98 123 162 204 242 292
#     4  10  20  35  52  70  96 128 160 200 249 293
#
# _framework density 17.279015000000001
#
# number of rings (size 3 to 8) (size 9 to 14) (size 15 to 20)
#    0.000    2.867    0.667    1.200    0.000    2.133 
#    0.000    3.000    0.000    8.800    0.000    0.000 
#    0.000    0.000    0.000    0.000    0.000    0.000 
#
# Total GULP energy -334486.832956 kJ/mol
# GULP energy per Si atom -5574.780549 kJ/mol
# Density = 1.723969 g / cm^3
# Si number density = 17.279015 Si / 1000 Ang^3
#
#
#
# Elastic Constant Matrix: (Units=GPa)
#
#
# Indices 1 2 3 4 5 6 
#
# 1 48.8652 31.5562 53.7038 0.0000 0.0000 0.0000
# 2 31.5562 54.4991 86.8109 0.0000 0.0000 0.0000
# 3 53.7038 86.8109 201.1789 0.0000 0.0000 0.0000
# 4 0.0000 0.0000 0.0000 34.5786 0.0000 0.0000
# 5 0.0000 0.0000 0.0000 0.0000 9.8717 0.0000
# 6 0.0000 0.0000 0.0000 0.0000 0.0000 12.7284
#
#
#
# Elastic Compliance Matrix: (Units=1/GPa)
#
#
# Indices 1 2 3 4 5 6 
#
# 1 0.032889 -0.016180 -0.001798 0.000000 0.000000 0.000000
# 2 -0.016180 0.066648 -0.024440 0.000000 0.000000 0.000000
# 3 -0.001798 -0.024440 0.015997 0.000000 0.000000 0.000000
# 4 0.000000 0.000000 0.000000 0.028920 0.000000 0.000000
# 5 0.000000 0.000000 0.000000 0.000000 0.101299 0.000000
# 6 0.000000 0.000000 0.000000 0.000000 0.000000 0.078564
#
#
# Mechanical properties :
#
#
# Convention : Reuss Voigt Hill
#
# Bulk Modulus (GPa) = 32.57528 72.07609 52.32568
# Shear Modulus (GPa) = 11.92225 20.26724 16.09474
#
# Velocity S-wave (km/s) = 2.62960 3.42854 3.05530
# Velocity P-wave (km/s) = 5.30219 7.58134 6.54179
#
# Compressibility (1/GPa) = 0.03069813
#
# Stress axis : x y z
#
# Youngs Moduli (GPa) = 30.40552 15.00431 62.51249
#
# Poissons Ratio (x) = 0.24276 0.11239
# Poissons Ratio (y) = 0.49195 1.52781
# Poissons Ratio (z) = 0.05466 0.36671
#
# Static dielectric constant tensor:
#      x y z
#    x 1.602220 0.000000 0.000000 
#    y 0.000000 1.571200 0.000000 
#    z 0.000000 0.000000 1.564720 
# 
# From -- ./inp_files/67191.got.cif
#   From: 2010.05.17/outbox.cif.g08.bks.cpg/sg71_34_cif.got.tgz:67191.got - 2010.06.03 16:22:01.
