data_PCOD9521767
_publ_section_title
;
Structure prediction by ZEFSAII (Michael W. Deem and Ramdas Pophale) SiO2 
 PCOD9521767
Probable space group: I M M M
;
_chemical_formula_sum "Si O2"
_cell_formula_units_Z 104
_cell_length_a 15.526530
_cell_length_b 27.255302
_cell_length_c 14.232482
_cell_angle_alpha 90.000000
_cell_angle_beta 90.000000
_cell_angle_gamma 90.000000
_cell_volume 6022.905492
_symmetry_space_group_name_H-M "I M M M"
_symmetry_group_IT_number 71
_symmetry_cell_setting 'orthorhombic'
loop_
_space_group_symop_operation_xyz
x,y,z
-x,-y,z
x,-y,-z
-x,y,-z
-x,-y,-z
x,y,-z
-x,y,z
x,-y,z
1/2+x,1/2+y,1/2+z
1/2-x,1/2-y,1/2+z
1/2+x,1/2-y,1/2-z
1/2-x,1/2+y,1/2-z
1/2-x,1/2-y,1/2-z
1/2+x,1/2+y,1/2-z
1/2-x,1/2+y,1/2+z
1/2+x,1/2-y,1/2+z
loop_
_atom_site_type_symbol
_atom_site_label
_atom_site_fract_x
_atom_site_fract_y
_atom_site_fract_z
Si Si1 0.090708 0.343778 0.888310
Si Si2 0.262165 0.942835 0.108493
Si Si3 0.101861 0.640520 0.611689
Si Si4 0.773813 0.306358 0.756978
Si Si5 0.000000 0.059631 0.613653
Si Si6 0.337686 0.945158 0.386596
Si Si7 0.328639 0.403477 0.782783
O O1 0.170136 0.314315 0.849928
O O2 0.100522 0.400592 0.858153
O O3 0.000000 0.323598 0.854032
O O4 0.091392 0.343391 0.000000
O O5 0.348230 0.911076 0.127331
O O6 0.187499 0.926902 0.180189
O O7 0.280167 0.000000 0.120863
O O8 0.237691 0.933941 0.000000
O O9 0.107601 0.651510 0.500000
O O10 0.160911 0.677023 0.673480
O O11 0.000000 0.639763 0.635763
O O12 0.750000 0.250000 0.750000
O O13 0.696408 0.346076 0.767444
O O14 0.917080 0.083277 0.665581
O O15 0.000000 0.068749 0.500000
O O16 0.000000 0.000000 0.625587
O O17 0.334336 0.945754 0.500000
O O18 0.245833 0.928831 0.346027
O O19 0.360828 0.000000 0.355259
#
# Coordination Sequence:
#
# PCOD9521767 Si02
#       7
#    16  16  16  16   8  16  16
#     4   9  18  32  50  75 104 131 164 205 247 302
#     4   9  17  30  51  78 108 142 174 205 249 309
#     4   9  18  33  53  79 108 134 167 211 257 308
#     4  10  21  37  55  73  96 138 176 220 268 315
#     4  11  22  36  57  83 113 145 176 222 282 333
#     4   9  16  27  47  74 105 139 168 196 243 309
#     4  10  20  35  51  73 104 137 180 224 264 313
#
# _framework density 17.267413999999999
#
# number of rings (size 3 to 8) (size 9 to 14) (size 15 to 20)
#    0.000    2.538    0.000    2.308    0.000    3.077 
#    2.769    3.462    0.000    6.923    0.000    0.000 
#    0.000    0.000    0.000    0.000    0.000    0.000 
#
# Total GULP energy -289588.680436 kJ/mol
# GULP energy per Si atom -5569.013085 kJ/mol
# Density = 1.722811 g / cm^3
# Si number density = 17.267414 Si / 1000 Ang^3
#
#
#
# Elastic Constant Matrix: (Units=GPa)
#
#
# Indices 1 2 3 4 5 6 
#
# 1 117.5703 57.3186 58.0006 0.0000 0.0000 0.0000
# 2 57.3186 139.6867 43.0412 -0.0001 0.0000 0.0000
# 3 58.0006 43.0412 87.3520 -0.0001 0.0000 0.0000
# 4 0.0000 -0.0001 -0.0001 20.2911 0.0000 0.0000
# 5 0.0000 0.0000 0.0000 0.0000 24.9944 0.0000
# 6 0.0000 0.0000 0.0000 0.0000 0.0000 6.6085
#
#
#
# Elastic Compliance Matrix: (Units=1/GPa)
#
#
# Indices 1 2 3 4 5 6 
#
# 1 0.013872 -0.003365 -0.007553 0.000000 0.000000 0.000000
# 2 -0.003365 0.009257 -0.002327 0.000000 0.000000 0.000000
# 3 -0.007553 -0.002327 0.017609 0.000000 0.000000 0.000000
# 4 0.000000 0.000000 0.000000 0.049283 0.000000 0.000000
# 5 0.000000 0.000000 0.000000 0.000000 0.040009 0.000000
# 6 0.000000 0.000000 0.000000 0.000000 0.000000 0.151319
#
#
# Mechanical properties :
#
#
# Convention : Reuss Voigt Hill
#
# Bulk Modulus (GPa) = 70.18063 73.48109 71.83086
# Shear Modulus (GPa) = 15.99549 22.79536 19.39543
#
# Velocity S-wave (km/s) = 3.04689 3.63731 3.35511
# Velocity P-wave (km/s) = 7.28764 7.76448 7.52984
#
# Compressibility (1/GPa) = 0.01424895
#
# Stress axis : x y z
#
# Youngs Moduli (GPa) = 72.08708 108.03126 56.78791
#
# Poissons Ratio (x) = 0.36353 0.42891
# Poissons Ratio (y) = 0.24257 0.13213
# Poissons Ratio (z) = 0.54446 0.25136
#
# Static dielectric constant tensor:
#      x y z
#    x 1.585660 0.000000 0.000000 
#    y 0.000000 1.579100 0.000000 
#    z 0.000000 0.000000 1.630400 
# 
# From -- ./inp_files/34926.got.cif
#   From: 2010.05.17/outbox.cif.g08.bks.cpg/sg71_18_cif.got.tgz:34926.got - 2010.06.03 16:22:01.
