data_PCOD9521786
_publ_section_title
;
Structure prediction by ZEFSAII (Michael W. Deem and Ramdas Pophale) SiO2 
 PCOD9521786
Probable space group: I M M M
;
_chemical_formula_sum "Si O2"
_cell_formula_units_Z 120
_cell_length_a 25.397225
_cell_length_b 7.997543
_cell_length_c 30.086253
_cell_angle_alpha 90.000000
_cell_angle_beta 90.000000
_cell_angle_gamma 90.000000
_cell_volume 6110.981283
_symmetry_space_group_name_H-M "I M M M"
_symmetry_group_IT_number 71
_symmetry_cell_setting 'orthorhombic'
loop_
_space_group_symop_operation_xyz
x,y,z
-x,-y,z
x,-y,-z
-x,y,-z
-x,-y,-z
x,y,-z
-x,y,z
x,-y,z
1/2+x,1/2+y,1/2+z
1/2-x,1/2-y,1/2+z
1/2+x,1/2-y,1/2-z
1/2-x,1/2+y,1/2-z
1/2-x,1/2-y,1/2-z
1/2+x,1/2+y,1/2-z
1/2-x,1/2+y,1/2+z
1/2+x,1/2-y,1/2+z
loop_
_atom_site_type_symbol
_atom_site_label
_atom_site_fract_x
_atom_site_fract_y
_atom_site_fract_z
Si Si1 0.942843 0.299552 0.343209
Si Si2 0.583740 0.693320 0.255062
Si Si3 0.172036 0.295619 0.124258
Si Si4 0.133418 0.698556 0.582553
Si Si5 0.557068 0.197423 0.647317
Si Si6 0.301834 0.200023 0.276288
Si Si7 0.252284 0.300443 0.050280
Si Si8 0.938931 0.201530 0.500000
O O1 0.942992 0.500000 0.348612
O O2 0.936974 0.261422 0.291388
O O3 0.894525 0.234948 0.372740
O O4 0.000000 0.235614 0.358897
O O5 0.569463 0.500000 0.259085
O O6 0.563497 0.783461 0.299452
O O7 0.646664 0.715920 0.255508
O O8 0.170614 0.500000 0.122831
O O9 0.111369 0.235236 0.126319
O O10 0.198528 0.251918 0.171595
O O11 0.207210 0.234949 0.083373
O O12 0.141058 0.500000 0.586470
O O13 0.189982 0.772721 0.570699
O O14 0.092524 0.734273 0.542892
O O15 0.500000 0.269283 0.634289
O O16 0.556056 0.000000 0.637323
O O17 0.250000 0.250000 0.250000
O O18 0.309040 0.000000 0.273956
O O19 0.244605 0.500000 0.047446
O O20 0.250454 0.232126 0.000000
O O21 0.000000 0.254751 0.500000
O O22 0.937125 0.000000 0.500000
#
# Coordination Sequence:
#
# PCOD9521786 Si02
#       8
#    16  16  16  16  16  16  16   8
#     4  10  22  39  55  74 104 143 184 227 278 327
#     4  11  22  34  51  78 110 145 183 224 271 322
#     4   8  17  33  53  79 108 141 181 223 270 327
#     4  11  23  38  57  80 105 137 180 230 278 327
#     4   9  17  33  57  80 107 146 187 227 272 325
#     4  10  20  35  53  76 108 145 186 227 271 324
#     4  10  20  36  58  81 109 143 179 223 277 337
#     4  11  23  39  59  81 105 135 174 223 280 339
#
# _framework density 19.636780999999999
#
# number of rings (size 3 to 8) (size 9 to 14) (size 15 to 20)
#    0.000    2.067    0.667    3.800    1.867    4.267 
#    0.000    2.667    0.000    0.400    0.000    2.800 
#    0.000    0.000    0.000    6.000    0.000    6.667 
#
# Total GULP energy -334950.660808 kJ/mol
# GULP energy per Si atom -5582.511013 kJ/mol
# Density = 1.959209 g / cm^3
# Si number density = 19.636781 Si / 1000 Ang^3
#
#
#
# Elastic Constant Matrix: (Units=GPa)
#
#
# Indices 1 2 3 4 5 6 
#
# 1 174.3356 -2.5261 79.3156 0.0000 0.0000 0.0000
# 2 -2.5261 16.8910 0.9861 0.0000 0.0000 0.0000
# 3 79.3156 0.9861 101.0073 0.0000 0.0000 0.0000
# 4 0.0000 0.0000 0.0000 8.4522 0.0000 0.0000
# 5 0.0000 0.0000 0.0000 0.0000 102.7828 0.0000
# 6 0.0000 0.0000 0.0000 0.0000 0.0000 14.7715
#
#
#
# Elastic Compliance Matrix: (Units=1/GPa)
#
#
# Indices 1 2 3 4 5 6 
#
# 1 0.008976 0.001755 -0.007066 0.000000 0.000000 0.000000
# 2 0.001755 0.059580 -0.001960 0.000000 0.000000 0.000000
# 3 -0.007066 -0.001960 0.015468 0.000000 0.000000 0.000000
# 4 0.000000 0.000000 0.000000 0.118313 0.000000 0.000000
# 5 0.000000 0.000000 0.000000 0.000000 0.009729 0.000000
# 6 0.000000 0.000000 0.000000 0.000000 0.000000 0.067698
#
#
# Mechanical properties :
#
#
# Convention : Reuss Voigt Hill
#
# Bulk Modulus (GPa) = 14.39200 49.75391 32.07295
# Shear Modulus (GPa) = 15.74977 39.49853 27.62415
#
# Velocity S-wave (km/s) = 2.83513 4.48979 3.75474
# Velocity P-wave (km/s) = 4.24998 7.22978 5.93009
#
# Compressibility (1/GPa) = 0.06948304
#
# Stress axis : x y z
#
# Youngs Moduli (GPa) = 111.40804 16.78413 64.65137
#
# Poissons Ratio (x) = -0.02945 0.45680
# Poissons Ratio (y) = -0.19551 0.12670
# Poissons Ratio (z) = 0.78716 0.03289
#
# Static dielectric constant tensor:
#      x y z
#    x 1.719260 0.000000 0.000000 
#    y 0.000000 1.716340 0.000000 
#    z 0.000000 0.000000 1.672060 
# 
# From -- ./inp_files/67145.got.cif
#   From: 2010.05.17/outbox.cif.g08.bks.cpg/sg71_34_cif.got.tgz:67145.got - 2010.06.03 16:22:01.
