data_PCOD9521622
_publ_section_title
;
Structure prediction by ZEFSAII (Michael W. Deem and Ramdas Pophale) SiO2 
 PCOD9521622
Probable space group: I M M M
;
_chemical_formula_sum "Si O2"
_cell_formula_units_Z 120
_cell_length_a 19.550875
_cell_length_b 21.843464
_cell_length_c 17.016537
_cell_angle_alpha 90.000000
_cell_angle_beta 90.000000
_cell_angle_gamma 90.000000
_cell_volume 7267.062454
_symmetry_space_group_name_H-M "I M M M"
_symmetry_group_IT_number 71
_symmetry_cell_setting 'orthorhombic'
loop_
_space_group_symop_operation_xyz
x,y,z
-x,-y,z
x,-y,-z
-x,y,-z
-x,-y,-z
x,y,-z
-x,y,z
x,-y,z
1/2+x,1/2+y,1/2+z
1/2-x,1/2-y,1/2+z
1/2+x,1/2-y,1/2-z
1/2-x,1/2+y,1/2-z
1/2-x,1/2-y,1/2-z
1/2+x,1/2+y,1/2-z
1/2-x,1/2+y,1/2+z
1/2+x,1/2-y,1/2+z
loop_
_atom_site_type_symbol
_atom_site_label
_atom_site_fract_x
_atom_site_fract_y
_atom_site_fract_z
Si Si1 0.573823 0.751470 0.406411
Si Si2 0.711873 0.207570 0.352718
Si Si3 0.922261 0.109987 0.905839
Si Si4 0.194515 0.930011 0.202345
Si Si5 0.080944 0.736823 0.594736
Si Si6 0.653829 0.639695 0.860715
Si Si7 0.204953 0.325213 0.668962
Si Si8 0.578439 0.427157 0.000000
O O1 0.569579 0.747586 0.500000
O O2 0.500000 0.772014 0.375183
O O3 0.636817 0.794165 0.387075
O O4 0.585278 0.681264 0.379895
O O5 0.769539 0.161415 0.383599
O O6 0.743241 0.275081 0.368140
O O7 0.702052 0.195963 0.259903
O O8 0.864538 0.072236 0.862745
O O9 0.000000 0.091002 0.886637
O O10 0.914945 0.107147 0.000000
O O11 0.163826 0.893745 0.277628
O O12 0.259199 0.891126 0.170597
O O13 0.211572 0.000000 0.222427
O O14 0.090169 0.744657 0.500000
O O15 0.108578 0.798134 0.638426
O O16 0.132046 0.684181 0.626898
O O17 0.000000 0.727431 0.609000
O O18 0.618135 0.596718 0.923903
O O19 0.576265 0.500000 0.000000
O O20 0.500000 0.403356 0.000000
#
# Coordination Sequence:
#
# PCOD9521622 Si02
#       8
#    16  16  16  16  16  16  16   8
#     4   9  17  28  46  73 102 129 156 196 255 311
#     4   9  17  31  50  72 102 130 168 217 265 313
#     4   9  19  34  49  69 100 134 169 210 255 308
#     4  11  22  37  54  73 104 143 185 225 257 307
#     4  10  20  34  55  81 109 138 173 225 283 334
#     4  10  21  35  52  77 107 142 180 217 262 318
#     4   9  19  33  48  75 100 131 173 221 267 315
#     4  11  22  36  52  74 111 151 188 222 250 305
#
# _framework density 16.512861999999998
#
# number of rings (size 3 to 8) (size 9 to 14) (size 15 to 20)
#    0.000    2.333    2.000    2.400    0.933    3.200 
#    0.000    0.667    0.000    0.400    0.000    0.933 
#    0.000    2.133    0.000    0.000    0.000    0.000 
#
# Total GULP energy -334310.876446 kJ/mol
# GULP energy per Si atom -5571.847941 kJ/mol
# Density = 1.647528 g / cm^3
# Si number density = 16.512862 Si / 1000 Ang^3
#
#
#
# Elastic Constant Matrix: (Units=GPa)
#
#
# Indices 1 2 3 4 5 6 
#
# 1 141.3776 55.1199 39.5066 0.0000 0.0000 0.0000
# 2 55.1199 73.3589 34.3461 0.0000 0.0000 0.0000
# 3 39.5066 34.3461 32.0895 0.0000 0.0000 0.0000
# 4 0.0000 0.0000 0.0000 11.3132 0.0000 0.0000
# 5 0.0000 0.0000 0.0000 0.0000 32.4490 0.0000
# 6 0.0000 0.0000 0.0000 0.0000 0.0000 19.6958
#
#
#
# Elastic Compliance Matrix: (Units=1/GPa)
#
#
# Indices 1 2 3 4 5 6 
#
# 1 0.011333 -0.003975 -0.009698 0.000000 0.000000 0.000000
# 2 -0.003975 0.028718 -0.025844 0.000000 0.000000 0.000000
# 3 -0.009698 -0.025844 0.070765 0.000000 0.000000 0.000000
# 4 0.000000 0.000000 0.000000 0.088393 0.000000 0.000000
# 5 0.000000 0.000000 0.000000 0.000000 0.030818 0.000000
# 6 0.000000 0.000000 0.000000 0.000000 0.000000 0.050772
#
#
# Mechanical properties :
#
#
# Convention : Reuss Voigt Hill
#
# Bulk Modulus (GPa) = 31.46526 56.08567 43.77546
# Shear Modulus (GPa) = 13.49796 20.54849 17.02322
#
# Velocity S-wave (km/s) = 2.86216 3.53142 3.21426
# Velocity P-wave (km/s) = 5.47896 7.11804 6.35159
#
# Compressibility (1/GPa) = 0.03178108
#
# Stress axis : x y z
#
# Youngs Moduli (GPa) = 88.23816 34.82116 14.13137
#
# Poissons Ratio (x) = 0.13840 0.13705
# Poissons Ratio (y) = 0.35071 0.36522
# Poissons Ratio (z) = 0.85576 0.89993
#
# Static dielectric constant tensor:
#      x y z
#    x 1.575890 0.000000 0.000000 
#    y 0.000000 1.561150 0.000000 
#    z 0.000000 0.000000 1.566980 
# 
# From -- ./inp_files/46478.got.cif
#   From: 2010.05.17/outbox.cif.g08.bks.cpg/sg71_24_cif.got.tgz:46478.got - 2010.06.03 16:22:01.
