data_PCOD9521865
_publ_section_title
;
Structure prediction by ZEFSAII (Michael W. Deem and Ramdas Pophale) SiO2 
 PCOD9521865
Probable space group: I M M M
;
_chemical_formula_sum "Si O2"
_cell_formula_units_Z 68
_cell_length_a 10.540160
_cell_length_b 18.543535
_cell_length_c 19.181819
_cell_angle_alpha 90.000000
_cell_angle_beta 90.000000
_cell_angle_gamma 90.000000
_cell_volume 3749.121547
_symmetry_space_group_name_H-M "I M M M"
_symmetry_group_IT_number 71
_symmetry_cell_setting 'orthorhombic'
loop_
_space_group_symop_operation_xyz
x,y,z
-x,-y,z
x,-y,-z
-x,y,-z
-x,-y,-z
x,y,-z
-x,y,z
x,-y,z
1/2+x,1/2+y,1/2+z
1/2-x,1/2-y,1/2+z
1/2+x,1/2-y,1/2-z
1/2-x,1/2+y,1/2-z
1/2-x,1/2-y,1/2-z
1/2+x,1/2+y,1/2-z
1/2-x,1/2+y,1/2+z
1/2+x,1/2-y,1/2+z
loop_
_atom_site_type_symbol
_atom_site_label
_atom_site_fract_x
_atom_site_fract_y
_atom_site_fract_z
Si Si1 0.000000 0.500000 0.814333
Si Si2 0.211935 0.500000 0.581941
Si Si3 0.000000 0.378791 0.580767
Si Si4 0.000000 0.240473 0.321292
Si Si5 0.651323 0.500000 0.273355
Si Si6 0.261811 0.000000 0.420531
Si Si7 0.780710 0.124913 0.334175
Si Si8 0.000000 0.345419 0.804368
O O1 0.118485 0.500000 0.867418
O O2 0.000000 0.573356 0.770758
O O3 0.255387 0.500000 0.500000
O O4 0.121900 0.430151 0.591672
O O5 0.310813 0.500000 0.645482
O O6 0.000000 0.357683 0.500000
O O7 0.000000 0.307449 0.626237
O O8 0.122506 0.190070 0.328787
O O9 0.000000 0.279019 0.246789
O O10 0.500000 0.500000 0.264988
O O11 0.703809 0.571296 0.232949
O O12 0.188612 0.072099 0.398731
O O13 0.300841 0.000000 0.500000
O O14 0.636146 0.153313 0.342325
#
# Coordination Sequence:
#
# PCOD9521865 Si02
#       8
#     4   8   8   8   8   8  16   8
#     4   8  17  34  54  82 103 130 186 234 265 314
#     4   9  19  37  60  84 105 139 189 234 275 326
#     4   9  20  37  58  82 109 141 187 233 271 325
#     4  12  21  34  54  80 116 149 178 218 282 327
#     4  11  20  36  57  79 115 145 178 236 283 324
#     4   9  18  34  57  78 107 144 181 224 270 318
#     4  10  22  36  54  83 114 144 188 225 271 330
#     4  10  20  35  55  79 105 143 185 231 266 319
#
# _framework density 18.137581999999998
#
# number of rings (size 3 to 8) (size 9 to 14) (size 15 to 20)
#    0.000    2.118    1.176    3.706    0.000    3.059 
#    0.000    0.588    0.000    0.000    0.000    1.647 
#    0.000    0.000    0.000    0.000    0.000    0.000 
#
# Total GULP energy -189396.619126 kJ/mol
# GULP energy per Si atom -5570.488798 kJ/mol
# Density = 1.809630 g / cm^3
# Si number density = 18.137582 Si / 1000 Ang^3
#
#
#
# Elastic Constant Matrix: (Units=GPa)
#
#
# Indices 1 2 3 4 5 6 
#
# 1 91.8529 37.8098 34.0986 0.0000 0.0000 0.0000
# 2 37.8098 129.0285 35.3132 0.0000 0.0000 0.0000
# 3 34.0986 35.3132 80.9568 0.0000 0.0000 0.0000
# 4 0.0000 0.0000 0.0000 12.2897 0.0000 0.0000
# 5 0.0000 0.0000 0.0000 0.0000 33.6796 0.0000
# 6 0.0000 0.0000 0.0000 0.0000 0.0000 20.0020
#
#
#
# Elastic Compliance Matrix: (Units=1/GPa)
#
#
# Indices 1 2 3 4 5 6 
#
# 1 0.013725 -0.002770 -0.004572 0.000000 0.000000 0.000000
# 2 -0.002770 0.009360 -0.002916 0.000000 0.000000 0.000000
# 3 -0.004572 -0.002916 0.015550 0.000000 0.000000 0.000000
# 4 0.000000 0.000000 0.000000 0.081369 0.000000 0.000000
# 5 0.000000 0.000000 0.000000 0.000000 0.029692 0.000000
# 6 0.000000 0.000000 0.000000 0.000000 0.000000 0.049995
#
#
# Mechanical properties :
#
#
# Convention : Reuss Voigt Hill
#
# Bulk Modulus (GPa) = 55.19546 57.36460 56.28003
# Shear Modulus (GPa) = 22.09969 26.16867 24.13418
#
# Velocity S-wave (km/s) = 3.49441 3.80252 3.65172
# Velocity P-wave (km/s) = 6.83951 7.13968 6.99121
#
# Compressibility (1/GPa) = 0.01811743
#
# Stress axis : x y z
#
# Youngs Moduli (GPa) = 72.86089 106.83619 64.30846
#
# Poissons Ratio (x) = 0.29598 0.29404
# Poissons Ratio (y) = 0.20186 0.18752
# Poissons Ratio (z) = 0.33315 0.31153
#
# Static dielectric constant tensor:
#      x y z
#    x 1.662310 0.000000 0.000000 
#    y 0.000000 1.631290 0.000000 
#    z 0.000000 0.000000 1.620440 
# 
# From -- ./inp_files/23581.got.cif
#   From: 2010.05.17/outbox.cif.g08.bks.cpg/sg71_12_cif.got.tgz:23581.got - 2010.06.03 16:22:01.
