data_PCOD9521992
_publ_section_title
;
Structure prediction by ZEFSAII (Michael W. Deem and Ramdas Pophale) SiO2 
 PCOD9521992
Probable space group: I M M M
;
_chemical_formula_sum "Si O2"
_cell_formula_units_Z 96
_cell_length_a 12.898032
_cell_length_b 27.764536
_cell_length_c 14.732610
_cell_angle_alpha 90.000000
_cell_angle_beta 90.000000
_cell_angle_gamma 90.000000
_cell_volume 5275.863643
_symmetry_space_group_name_H-M "I M M M"
_symmetry_group_IT_number 71
_symmetry_cell_setting 'orthorhombic'
loop_
_space_group_symop_operation_xyz
x,y,z
-x,-y,z
x,-y,-z
-x,y,-z
-x,-y,-z
x,y,-z
-x,y,z
x,-y,z
1/2+x,1/2+y,1/2+z
1/2-x,1/2-y,1/2+z
1/2+x,1/2-y,1/2-z
1/2-x,1/2+y,1/2-z
1/2-x,1/2-y,1/2-z
1/2+x,1/2+y,1/2-z
1/2-x,1/2+y,1/2+z
1/2+x,1/2-y,1/2+z
loop_
_atom_site_type_symbol
_atom_site_label
_atom_site_fract_x
_atom_site_fract_y
_atom_site_fract_z
Si Si1 0.383548 0.445208 0.807401
Si Si2 0.124678 0.181852 0.000000
Si Si3 0.614335 0.054329 0.890927
Si Si4 0.125066 0.707004 0.000000
Si Si5 0.717315 0.629128 0.324636
Si Si6 0.165133 0.445687 0.894551
Si Si7 0.881088 0.345589 0.813697
O O1 0.500000 0.440545 0.844559
O O2 0.376545 0.500000 0.767324
O O3 0.361979 0.402132 0.736513
O O4 0.289362 0.442682 0.878706
O O5 0.166034 0.156427 0.908672
O O6 0.158851 0.237651 0.000000
O O7 0.000000 0.179992 0.000000
O O8 0.500000 0.071059 0.861633
O O9 0.704110 0.089162 0.862254
O O10 0.630515 0.000000 0.857139
O O11 0.613029 0.052386 0.000000
O O12 0.153805 0.679827 0.907382
O O13 0.000000 0.706540 0.000000
O O14 0.792719 0.661920 0.261948
O O15 0.132933 0.500000 0.869435
O O16 0.119011 0.402805 0.835564
O O17 0.139485 0.438288 0.000000
O O18 0.000000 0.330883 0.791323
#
# Coordination Sequence:
#
# PCOD9521992 Si02
#       7
#    16   8  16   8  16  16  16
#     4   9  18  31  46  69 105 143 177 217 259 301
#     4  11  24  40  58  77 101 135 178 231 277 311
#     4   9  17  30  49  75 110 146 173 204 254 316
#     4   9  20  40  59  78 105 136 173 216 270 329
#     4  11  20  34  54  81 104 136 182 221 260 312
#     4   9  17  29  49  79 110 141 178 214 250 304
#     4  10  20  35  57  82 110 142 171 209 263 322
#
# _framework density 18.196072999999998
#
# number of rings (size 3 to 8) (size 9 to 14) (size 15 to 20)
#    0.000    2.333    1.667    2.000    0.000    2.000 
#    0.000    2.500    0.000    2.000    0.000   11.667 
#    0.000    0.000    0.000    0.000    0.000    0.000 
#
# Total GULP energy -267608.818392 kJ/mol
# GULP energy per Si atom -5575.183717 kJ/mol
# Density = 1.815466 g / cm^3
# Si number density = 18.196073 Si / 1000 Ang^3
#
#
#
# Elastic Constant Matrix: (Units=GPa)
#
#
# Indices 1 2 3 4 5 6 
#
# 1 87.1122 14.5294 17.9059 0.0000 0.0000 0.0000
# 2 14.5294 54.5479 20.5071 0.0000 0.0000 0.0000
# 3 17.9059 20.5071 84.4632 -0.0008 0.0000 -0.0001
# 4 0.0000 0.0000 -0.0008 -18.2026 0.0000 -0.0001
# 5 0.0000 0.0000 0.0000 0.0000 16.3840 0.0000
# 6 0.0000 0.0000 -0.0001 -0.0001 0.0000 17.7755
#
#
#
# Elastic Compliance Matrix: (Units=1/GPa)
#
#
# Indices 1 2 3 4 5 6 
#
# 1 0.012312 -0.002529 -0.001996 0.000000 0.000000 0.000000
# 2 -0.002529 0.020693 -0.004488 0.000000 0.000000 0.000000
# 3 -0.001996 -0.004488 0.013352 -0.000001 0.000000 0.000000
# 4 0.000000 0.000000 -0.000001 -0.054937 0.000000 0.000000
# 5 0.000000 0.000000 0.000000 0.000000 0.061035 0.000000
# 6 0.000000 0.000000 0.000000 0.000000 0.000000 0.056257
#
#
# Mechanical properties :
#
#
# Convention : Reuss Voigt Hill
#
# Bulk Modulus (GPa) = 35.29677 36.88979 36.09328
# Shear Modulus (GPa) = 36.71551 14.73676 25.72613
#
# Velocity S-wave (km/s) = 4.49683 2.84894 3.76417
# Velocity P-wave (km/s) = 6.81191 5.58027 6.22662
#
# Compressibility (1/GPa) = 0.02833120
#
# Stress axis : x y z
#
# Youngs Moduli (GPa) = 81.22471 48.32461 74.89339
#
# Poissons Ratio (x) = 0.12221 0.14949
# Poissons Ratio (y) = 0.20541 0.33613
# Poissons Ratio (z) = 0.16212 0.21689
#
# Static dielectric constant tensor:
#      x y z
#    x 1.626350 0.000000 0.000000 
#    y 0.000000 1.622520 0.000000 
#    z 0.000000 0.000000 1.653620 
# 
# From -- ./inp_files/33217.got.cif
#   From: 2010.05.17/outbox.cif.g08.bks.cpg/sg71_17_cif.got.tgz:33217.got - 2010.06.03 16:22:01.
