data_PCOD9521632
_publ_section_title
;
Structure prediction by ZEFSAII (Michael W. Deem and Ramdas Pophale) SiO2 
 PCOD9521632
Probable space group: I M M M
;
_chemical_formula_sum "Si O2"
_cell_formula_units_Z 104
_cell_length_a 23.705449
_cell_length_b 8.019723
_cell_length_c 27.242376
_cell_angle_alpha 90.000000
_cell_angle_beta 90.000000
_cell_angle_gamma 90.000000
_cell_volume 5179.079010
_symmetry_space_group_name_H-M "I M M M"
_symmetry_group_IT_number 71
_symmetry_cell_setting 'orthorhombic'
loop_
_space_group_symop_operation_xyz
x,y,z
-x,-y,z
x,-y,-z
-x,y,-z
-x,-y,-z
x,y,-z
-x,y,z
x,-y,z
1/2+x,1/2+y,1/2+z
1/2-x,1/2-y,1/2+z
1/2+x,1/2-y,1/2-z
1/2-x,1/2+y,1/2-z
1/2-x,1/2-y,1/2-z
1/2+x,1/2+y,1/2-z
1/2-x,1/2+y,1/2+z
1/2+x,1/2-y,1/2+z
loop_
_atom_site_type_symbol
_atom_site_label
_atom_site_fract_x
_atom_site_fract_y
_atom_site_fract_z
Si Si1 0.352593 0.811386 0.132584
Si Si2 0.736582 0.196059 0.056070
Si Si3 0.563420 0.201368 0.211896
Si Si4 0.857372 0.693199 0.911220
Si Si5 0.567063 0.695308 0.055088
Si Si6 0.063345 0.199831 0.825277
Si Si7 0.064663 0.799278 0.000000
O O1 0.303079 0.731195 0.099439
O O2 0.383742 0.733572 0.179908
O O3 0.403707 0.811436 0.093946
O O4 0.334579 0.000000 0.145953
O O5 0.800764 0.210166 0.074212
O O6 0.721517 0.000000 0.052985
O O7 0.731332 0.264186 0.000000
O O8 0.500000 0.260084 0.196509
O O9 0.570077 0.246181 0.268892
O O10 0.563404 0.000000 0.206894
O O11 0.842323 0.500000 0.912904
O O12 0.887171 0.734399 0.859834
O O13 0.903425 0.734202 0.952397
O O14 0.500000 0.713090 0.056143
O O15 0.579675 0.500000 0.065347
O O16 0.587013 0.732766 0.000000
O O17 0.000000 0.256204 0.841170
O O18 0.063968 0.000000 0.827999
O O19 0.000000 0.746553 0.000000
O O20 0.066972 0.000000 0.000000
#
# Coordination Sequence:
#
# PCOD9521632 Si02
#       7
#    16  16  16  16  16  16   8
#     4  10  20  34  55  82 108 144 193 239 287 339
#     4  10  21  38  58  79 112 156 197 239 287 339
#     4   9  18  34  56  84 118 149 183 236 293 341
#     4  12  24  38  59  87 117 150 190 233 281 336
#     4   9  18  31  46  69 104 143 181 229 290 347
#     4  10  21  38  61  87 115 149 187 227 281 347
#     4  11  23  39  61  89 121 153 184 223 276 339
#
# _framework density 20.08079
#
# number of rings (size 3 to 8) (size 9 to 14) (size 15 to 20)
#    0.000    1.923    0.769    3.923    0.000    6.462 
#    0.000    3.077    0.000    0.000    0.000    0.000 
#    0.000    0.000    0.000    0.000    0.000    0.000 
#
# Total GULP energy -290092.816643 kJ/mol
# GULP energy per Si atom -5578.708012 kJ/mol
# Density = 2.003509 g / cm^3
# Si number density = 20.080790 Si / 1000 Ang^3
#
#
#
# Elastic Constant Matrix: (Units=GPa)
#
#
# Indices 1 2 3 4 5 6 
#
# 1 98.9720 -7.2616 56.3615 0.0000 0.0000 0.0000
# 2 -7.2616 21.3955 -3.8136 0.0000 0.0000 0.0000
# 3 56.3615 -3.8136 90.4759 0.0000 0.0000 0.0000
# 4 0.0000 0.0000 0.0000 14.7950 0.0000 0.0000
# 5 0.0000 0.0000 0.0000 0.0000 21.9691 0.0000
# 6 0.0000 0.0000 0.0000 0.0000 0.0000 -10.6305
#
#
#
# Elastic Compliance Matrix: (Units=1/GPa)
#
#
# Indices 1 2 3 4 5 6 
#
# 1 0.015939 0.003668 -0.009775 0.000000 0.000000 0.000000
# 2 0.003668 0.047936 -0.000264 0.000000 0.000000 0.000000
# 3 -0.009775 -0.000264 0.017131 0.000000 0.000000 0.000000
# 4 0.000000 0.000000 0.000000 0.067591 0.000000 0.000000
# 5 0.000000 0.000000 0.000000 0.000000 0.045518 0.000000
# 6 0.000000 0.000000 0.000000 0.000000 0.000000 -0.094069
#
#
# Mechanical properties :
#
#
# Convention : Reuss Voigt Hill
#
# Bulk Modulus (GPa) = 14.64905 33.49067 24.06986
# Shear Modulus (GPa) = 36.88840 16.26386 26.57613
#
# Velocity S-wave (km/s) = 4.29067 2.84900 3.64189
# Velocity P-wave (km/s) = 5.64424 5.24753 5.44949
#
# Compressibility (1/GPa) = 0.06826380
#
# Stress axis : x y z
#
# Youngs Moduli (GPa) = 62.73768 20.86094 58.37483
#
# Poissons Ratio (x) = -0.07651 0.57060
# Poissons Ratio (y) = -0.23009 0.01542
# Poissons Ratio (z) = 0.61325 0.00551
#
# Static dielectric constant tensor:
#      x y z
#    x 1.720510 0.000000 0.000000 
#    y 0.000000 1.730400 0.000000 
#    z 0.000000 0.000000 1.712300 
# 
# From -- ./inp_files/66816.got.cif
#   From: 2010.05.17/outbox.cif.g08.bks.cpg/sg71_34_cif.got.tgz:66816.got - 2010.06.03 16:22:01.
