data_PCOD9521463
_publ_section_title
;
Structure prediction by ZEFSAII (Michael W. Deem and Ramdas Pophale) SiO2 
 PCOD9521463
Probable space group: I M M M
;
_chemical_formula_sum "Si O2"
_cell_formula_units_Z 112
_cell_length_a 13.437181
_cell_length_b 17.902124
_cell_length_c 26.012185
_cell_angle_alpha 90.000000
_cell_angle_beta 90.000000
_cell_angle_gamma 90.000000
_cell_volume 6257.337244
_symmetry_space_group_name_H-M "I M M M"
_symmetry_group_IT_number 71
_symmetry_cell_setting 'orthorhombic'
loop_
_space_group_symop_operation_xyz
x,y,z
-x,-y,z
x,-y,-z
-x,y,-z
-x,-y,-z
x,y,-z
-x,y,z
x,-y,z
1/2+x,1/2+y,1/2+z
1/2-x,1/2-y,1/2+z
1/2+x,1/2-y,1/2-z
1/2-x,1/2+y,1/2-z
1/2-x,1/2-y,1/2-z
1/2+x,1/2+y,1/2-z
1/2-x,1/2+y,1/2+z
1/2+x,1/2-y,1/2+z
loop_
_atom_site_type_symbol
_atom_site_label
_atom_site_fract_x
_atom_site_fract_y
_atom_site_fract_z
Si Si1 0.381878 0.087404 0.779491
Si Si2 0.614295 0.199831 0.685130
Si Si3 0.247109 0.828580 0.859956
Si Si4 0.108835 0.415199 0.091201
Si Si5 0.381405 0.411464 0.556936
Si Si6 0.614470 0.741568 0.060692
Si Si7 0.329892 0.419398 0.058787
O O1 0.500000 0.093383 0.792109
O O2 0.363083 0.144411 0.732390
O O3 0.312312 0.115553 0.825546
O O4 0.363050 0.000000 0.766766
O O5 0.500000 0.227334 0.691411
O O6 0.690731 0.266951 0.675050
O O7 0.615700 0.146715 0.635018
O O8 0.167491 0.870854 0.895300
O O9 0.318249 0.788851 0.901442
O O10 0.109238 0.500000 0.113006
O O11 0.209943 0.410095 0.059128
O O12 0.000000 0.406523 0.065275
O O13 0.346755 0.385149 0.500000
O O14 0.500000 0.401198 0.558461
O O15 0.361284 0.500000 0.559668
O O16 0.500000 0.765383 0.063008
O O17 0.623581 0.655793 0.079886
O O18 0.645094 0.744023 0.000000
O O19 0.352554 0.500000 0.083418
O O20 0.364231 0.423062 0.000000
#
# Coordination Sequence:
#
# PCOD9521463 Si02
#       7
#    16  16  16  16  16  16  16
#     4  10  22  39  57  77 103 138 179 219 262 315
#     4  10  20  34  53  79 108 137 169 212 268 321
#     4  12  20  34  56  84 106 135 175 224 264 311
#     4   9  16  28  47  71 100 135 171 207 251 308
#     4   9  19  36  57  82 113 146 176 208 253 313
#     4  10  21  35  50  72 105 142 177 219 269 312
#     4   9  17  30  47  68  96 135 179 215 251 305
#
# _framework density 17.898987999999999
#
# number of rings (size 3 to 8) (size 9 to 14) (size 15 to 20)
#    0.000    2.143    1.429    3.000    0.000    2.286 
#    0.000    2.857    0.000    0.000    0.000    6.000 
#    0.000    0.000    0.000    0.000    0.000    0.000 
#
# Total GULP energy -311996.022200 kJ/mol
# GULP energy per Si atom -5571.357539 kJ/mol
# Density = 1.785825 g / cm^3
# Si number density = 17.898988 Si / 1000 Ang^3
#
#
#
# Elastic Constant Matrix: (Units=GPa)
#
#
# Indices 1 2 3 4 5 6 
#
# 1 57.9756 47.3869 28.9961 0.0000 0.0000 0.0000
# 2 47.3869 79.0448 44.2577 0.0000 0.0000 0.0000
# 3 28.9961 44.2577 69.7043 0.0000 0.0000 0.0000
# 4 0.0000 0.0000 0.0000 25.4261 0.0000 0.0000
# 5 0.0000 0.0000 0.0000 0.0000 29.1397 0.0000
# 6 0.0000 0.0000 0.0000 0.0000 0.0000 21.8128
#
#
#
# Elastic Compliance Matrix: (Units=1/GPa)
#
#
# Indices 1 2 3 4 5 6 
#
# 1 0.033976 -0.019325 -0.001863 0.000000 0.000000 0.000000
# 2 -0.019325 0.030621 -0.011404 0.000000 0.000000 0.000000
# 3 -0.001863 -0.011404 0.022362 0.000000 0.000000 0.000000
# 4 0.000000 0.000000 0.000000 0.039330 0.000000 0.000000
# 5 0.000000 0.000000 0.000000 0.000000 0.034317 0.000000
# 6 0.000000 0.000000 0.000000 0.000000 0.000000 0.045845
#
#
# Mechanical properties :
#
#
# Convention : Reuss Voigt Hill
#
# Bulk Modulus (GPa) = 45.92371 49.77845 47.85108
# Shear Modulus (GPa) = 17.92794 21.01466 19.47130
#
# Velocity S-wave (km/s) = 3.16827 3.43019 3.30183
# Velocity P-wave (km/s) = 6.25274 6.59995 6.42869
#
# Compressibility (1/GPa) = 0.02177524
#
# Stress axis : x y z
#
# Youngs Moduli (GPa) = 29.43222 32.65690 44.71880
#
# Poissons Ratio (x) = 0.63111 0.08333
# Poissons Ratio (y) = 0.56879 0.50995
# Poissons Ratio (z) = 0.05484 0.37240
#
# Static dielectric constant tensor:
#      x y z
#    x 1.627710 0.000000 0.000000 
#    y 0.000000 1.622510 0.000000 
#    z 0.000000 0.000000 1.700530 
# 
# From -- ./inp_files/34917.got.cif
#   From: 2010.05.17/outbox.cif.g08.bks.cpg/sg71_18_cif.got.tgz:34917.got - 2010.06.03 16:22:01.
