data_PCOD9521795
_publ_section_title
;
Structure prediction by ZEFSAII (Michael W. Deem and Ramdas Pophale) SiO2 
 PCOD9521795
Probable space group: I M M M
;
_chemical_formula_sum "Si O2"
_cell_formula_units_Z 72
_cell_length_a 16.302769
_cell_length_b 14.206305
_cell_length_c 16.033069
_cell_angle_alpha 90.000000
_cell_angle_beta 90.000000
_cell_angle_gamma 90.000000
_cell_volume 3713.292590
_symmetry_space_group_name_H-M "I M M M"
_symmetry_group_IT_number 71
_symmetry_cell_setting 'orthorhombic'
loop_
_space_group_symop_operation_xyz
x,y,z
-x,-y,z
x,-y,-z
-x,y,-z
-x,-y,-z
x,y,-z
-x,y,z
x,-y,z
1/2+x,1/2+y,1/2+z
1/2-x,1/2-y,1/2+z
1/2+x,1/2-y,1/2-z
1/2-x,1/2+y,1/2-z
1/2-x,1/2-y,1/2-z
1/2+x,1/2+y,1/2-z
1/2-x,1/2+y,1/2+z
1/2+x,1/2-y,1/2+z
loop_
_atom_site_type_symbol
_atom_site_label
_atom_site_fract_x
_atom_site_fract_y
_atom_site_fract_z
Si Si1 0.500000 0.724358 0.500000
Si Si2 0.668100 0.172987 0.324813
Si Si3 0.375359 0.896449 0.500000
Si Si4 0.000000 0.000000 0.210602
Si Si5 0.000000 0.795643 0.184932
Si Si6 0.655772 0.500000 0.593741
Si Si7 0.596237 0.886533 0.000000
Si Si8 0.784803 0.345787 0.353582
O O1 0.425833 0.798804 0.500000
O O2 0.500000 0.670542 0.587179
O O3 0.665303 0.111687 0.408771
O O4 0.582309 0.231299 0.309469
O O5 0.742001 0.245624 0.341071
O O6 0.686593 0.121208 0.237900
O O7 0.414733 0.000000 0.500000
O O8 0.000000 0.889473 0.242755
O O9 0.915648 0.000000 0.160046
O O10 0.623752 0.500000 0.500000
O O11 0.714489 0.588713 0.608162
O O12 0.640877 0.846612 0.081695
O O13 0.500000 0.867168 0.000000
O O14 0.608223 0.000000 0.000000
#
# Coordination Sequence:
#
# PCOD9521795 Si02
#       8
#     4  16   8   4   8   8   8  16
#     4   8  19  33  50  70 118 144 180 231 277 358
#     4  10  23  36  60  84 119 157 196 244 297 360
#     4  10  20  35  53  79 110 151 197 234 282 341
#     4  12  23  32  62  92 124 153 184 239 318 382
#     4  10  20  36  52  90 117 150 190 234 301 366
#     4  12  23  36  60  91 123 151 194 246 314 376
#     4  11  23  38  59  87 117 154 203 249 295 355
#     4  11  21  40  58  84 119 157 194 246 301 350
#
# _framework density 19.389797999999999
#
# number of rings (size 3 to 8) (size 9 to 14) (size 15 to 20)
#    0.000    1.444    4.444    1.000    4.667    0.000 
#    0.000    0.000    0.000    0.000    0.000    0.000 
#    0.000    3.556    0.000    0.000    0.000    0.000 
#
# Total GULP energy -200565.040462 kJ/mol
# GULP energy per Si atom -5571.251124 kJ/mol
# Density = 1.934567 g / cm^3
# Si number density = 19.389798 Si / 1000 Ang^3
#
#
#
# Elastic Constant Matrix: (Units=GPa)
#
#
# Indices 1 2 3 4 5 6 
#
# 1 102.4531 11.2031 27.2997 0.0000 0.0000 0.0000
# 2 11.2031 62.8579 13.1046 0.0000 0.0000 0.0000
# 3 27.2997 13.1046 111.3611 0.0000 0.0000 0.0000
# 4 0.0000 0.0000 0.0000 29.7784 0.0000 0.0000
# 5 0.0000 0.0000 0.0000 0.0000 0.6940 0.0000
# 6 0.0000 0.0000 0.0000 0.0000 0.0000 14.7080
#
#
#
# Elastic Compliance Matrix: (Units=1/GPa)
#
#
# Indices 1 2 3 4 5 6 
#
# 1 0.010558 -0.001376 -0.002426 0.000000 0.000000 0.000000
# 2 -0.001376 0.016488 -0.001603 0.000000 0.000000 0.000000
# 3 -0.002426 -0.001603 0.009763 0.000000 0.000000 0.000000
# 4 0.000000 0.000000 0.000000 0.033581 0.000000 0.000000
# 5 0.000000 0.000000 0.000000 0.000000 1.440902 0.000000
# 6 0.000000 0.000000 0.000000 0.000000 0.000000 0.067990
#
#
# Mechanical properties :
#
#
# Convention : Reuss Voigt Hill
#
# Bulk Modulus (GPa) = 38.46320 42.20966 40.33643
# Shear Modulus (GPa) = 3.12743 24.04038 13.58390
#
# Velocity S-wave (km/s) = 1.27139 3.52497 2.64970
# Velocity P-wave (km/s) = 4.69416 6.19544 5.49630
#
# Compressibility (1/GPa) = 0.02599888
#
# Stress axis : x y z
#
# Youngs Moduli (GPa) = 94.71934 60.64907 102.42528
#
# Poissons Ratio (x) = 0.08344 0.24851
# Poissons Ratio (y) = 0.13032 0.16419
# Poissons Ratio (z) = 0.22981 0.09722
#
# Static dielectric constant tensor:
#      x y z
#    x 1.705780 0.000000 0.000000 
#    y 0.000000 1.721100 0.000000 
#    z 0.000000 0.000000 1.711380 
# 
# From -- ./inp_files/36142.got.cif
#   From: 2010.05.17/outbox.cif.g08.bks.cpg/sg71_19_cif.got.tgz:36142.got - 2010.06.03 16:22:01.
