data_PCOD9521348
_publ_section_title
;
Structure prediction by ZEFSAII (Michael W. Deem and Ramdas Pophale) SiO2 
 PCOD9521348
Probable space group: I M M M
;
_chemical_formula_sum "Si O2"
_cell_formula_units_Z 96
_cell_length_a 8.644194
_cell_length_b 20.339741
_cell_length_c 31.044994
_cell_angle_alpha 90.000000
_cell_angle_beta 90.000000
_cell_angle_gamma 90.000000
_cell_volume 5458.351556
_symmetry_space_group_name_H-M "I M M M"
_symmetry_group_IT_number 71
_symmetry_cell_setting 'orthorhombic'
loop_
_space_group_symop_operation_xyz
x,y,z
-x,-y,z
x,-y,-z
-x,y,-z
-x,-y,-z
x,y,-z
-x,y,z
x,-y,z
1/2+x,1/2+y,1/2+z
1/2-x,1/2-y,1/2+z
1/2+x,1/2-y,1/2-z
1/2-x,1/2+y,1/2-z
1/2-x,1/2-y,1/2-z
1/2+x,1/2+y,1/2-z
1/2-x,1/2+y,1/2+z
1/2+x,1/2-y,1/2+z
loop_
_atom_site_type_symbol
_atom_site_label
_atom_site_fract_x
_atom_site_fract_y
_atom_site_fract_z
Si Si1 0.314348 0.426491 0.670431
Si Si2 0.312837 0.292857 0.371788
Si Si3 0.815197 0.574312 0.766650
Si Si4 0.184266 0.788594 0.708314
Si Si5 0.317742 0.571431 0.052187
Si Si6 0.685837 0.209466 0.549072
O O1 0.500000 0.421851 0.677923
O O2 0.281248 0.500000 0.654167
O O3 0.268870 0.367707 0.638921
O O4 0.232020 0.418646 0.716447
O O5 0.500000 0.289143 0.370554
O O6 0.247455 0.247608 0.333830
O O7 0.260307 0.264659 0.417640
O O8 0.767557 0.500000 0.779967
O O9 0.737900 0.635603 0.790406
O O10 0.000000 0.579057 0.770664
O O11 0.250000 0.750000 0.750000
O O12 0.000000 0.785355 0.709856
O O13 0.500000 0.576027 0.062047
O O14 0.260053 0.500000 0.067852
O O15 0.233785 0.637496 0.066281
O O16 0.303445 0.570391 0.000000
O O17 0.744548 0.217316 0.500000
O O18 0.500000 0.211499 0.547237
#
# Coordination Sequence:
#
# PCOD9521348 Si02
#       6
#    16  16  16  16  16  16
#     4   9  17  30  50  74  99 132 174 215 254 302
#     4  10  20  34  52  75 104 137 173 216 262 308
#     4  10  20  34  53  77 106 139 174 213 256 304
#     4  12  23  35  53  77 106 138 172 212 258 310
#     4   8  14  26  45  68  93 122 159 205 254 301
#     4   9  18  32  50  73 101 134 172 213 259 308
#
# _framework density 17.587729
#
# number of rings (size 3 to 8) (size 9 to 14) (size 15 to 20)
#    0.000    2.333    1.667    2.500    0.000    2.000 
#    0.000    2.500    0.000    1.500    0.000    3.500 
#    0.000    0.000    0.000    9.833    0.000   10.333 
#
# Total GULP energy -267640.518741 kJ/mol
# GULP energy per Si atom -5575.844140 kJ/mol
# Density = 1.754770 g / cm^3
# Si number density = 17.587729 Si / 1000 Ang^3
#
#
#
# Elastic Constant Matrix: (Units=GPa)
#
#
# Indices 1 2 3 4 5 6 
#
# 1 19.1047 28.6330 14.1914 0.0000 0.0000 0.0000
# 2 28.6330 156.7126 58.7354 0.0000 0.0000 0.0000
# 3 14.1914 58.7354 63.5734 0.0000 0.0000 0.0000
# 4 0.0000 0.0000 0.0000 25.4179 0.0000 0.0000
# 5 0.0000 0.0000 0.0000 0.0000 15.1899 0.0000
# 6 0.0000 0.0000 0.0000 0.0000 0.0000 20.0071
#
#
#
# Elastic Compliance Matrix: (Units=1/GPa)
#
#
# Indices 1 2 3 4 5 6 
#
# 1 0.073610 -0.011153 -0.006128 0.000000 0.000000 0.000000
# 2 -0.011153 0.011451 -0.008090 0.000000 0.000000 0.000000
# 3 -0.006128 -0.008090 0.024572 0.000000 0.000000 0.000000
# 4 0.000000 0.000000 0.000000 0.039342 0.000000 0.000000
# 5 0.000000 0.000000 0.000000 0.000000 0.065833 0.000000
# 6 0.000000 0.000000 0.000000 0.000000 0.000000 0.049982
#
#
# Mechanical properties :
#
#
# Convention : Reuss Voigt Hill
#
# Bulk Modulus (GPa) = 16.98022 49.16783 33.07402
# Shear Modulus (GPa) = 14.91813 21.31169 18.11491
#
# Velocity S-wave (km/s) = 2.91557 3.48478 3.21280
# Velocity P-wave (km/s) = 4.58362 6.64891 5.71041
#
# Compressibility (1/GPa) = 0.05889207
#
# Stress axis : x y z
#
# Youngs Moduli (GPa) = 13.58508 87.32974 40.69671
#
# Poissons Ratio (x) = 0.97395 0.24939
# Poissons Ratio (y) = 0.15151 0.32923
# Poissons Ratio (z) = 0.08325 0.70649
#
# Static dielectric constant tensor:
#      x y z
#    x 1.601570 0.000000 0.000000 
#    y 0.000000 1.630540 0.000000 
#    z 0.000000 0.000000 1.591700 
# 
# From -- ./inp_files/63218.got.cif
#   From: 2010.05.17/outbox.cif.g08.bks.cpg/sg71_32_cif.got.tgz:63218.got - 2010.06.03 16:22:01.
