data_PCOD9521438
_publ_section_title
;
Structure prediction by ZEFSAII (Michael W. Deem and Ramdas Pophale) SiO2 
 PCOD9521438
Probable space group: I M M M
;
_chemical_formula_sum "Si O2"
_cell_formula_units_Z 96
_cell_length_a 25.508617
_cell_length_b 24.972594
_cell_length_c 8.841155
_cell_angle_alpha 90.000000
_cell_angle_beta 90.000000
_cell_angle_gamma 90.000000
_cell_volume 5631.960163
_symmetry_space_group_name_H-M "I M M M"
_symmetry_group_IT_number 71
_symmetry_cell_setting 'orthorhombic'
loop_
_space_group_symop_operation_xyz
x,y,z
-x,-y,z
x,-y,-z
-x,y,-z
-x,-y,-z
x,y,-z
-x,y,z
x,-y,z
1/2+x,1/2+y,1/2+z
1/2-x,1/2-y,1/2+z
1/2+x,1/2-y,1/2-z
1/2-x,1/2+y,1/2-z
1/2-x,1/2-y,1/2-z
1/2+x,1/2+y,1/2-z
1/2-x,1/2+y,1/2+z
1/2+x,1/2-y,1/2+z
loop_
_atom_site_type_symbol
_atom_site_label
_atom_site_fract_x
_atom_site_fract_y
_atom_site_fract_z
Si Si1 0.727162 0.500000 0.169139
Si Si2 0.639596 0.409236 0.823670
Si Si3 0.832915 0.500000 0.323348
Si Si4 0.314353 0.806509 0.180865
Si Si5 0.560390 0.500000 0.815239
Si Si6 0.193960 0.810288 0.180249
Si Si7 0.613133 0.103501 0.318388
Si Si8 0.500000 0.937471 0.683794
O O1 0.689590 0.551195 0.180541
O O2 0.770980 0.500000 0.295196
O O3 0.751451 0.500000 0.000000
O O4 0.591726 0.446536 0.767693
O O5 0.654802 0.356691 0.732312
O O6 0.630172 0.395317 0.000000
O O7 0.845585 0.500000 0.500000
O O8 0.856067 0.552162 0.243617
O O9 0.254619 0.824589 0.220741
O O10 0.318709 0.745837 0.239698
O O11 0.357790 0.844598 0.253758
O O12 0.319054 0.808184 0.000000
O O13 0.500000 0.500000 0.769752
O O14 0.563173 0.500000 0.000000
O O15 0.192044 0.803117 0.000000
O O16 0.615144 0.104738 0.500000
O O17 0.552790 0.093432 0.270907
O O18 0.500000 0.939672 0.500000
O O19 0.500000 0.000000 0.735106
#
# Coordination Sequence:
#
# PCOD9521438 Si02
#       8
#     8  16   8  16   8  16  16   8
#     4   9  18  31  47  72 105 140 173 206 257 316
#     4   9  17  30  51  77 104 135 172 214 255 306
#     4  12  23  32  46  74 108 137 171 214 258 307
#     4  10  21  36  54  79 108 136 172 217 259 307
#     4   8  15  30  53  79 104 133 170 212 262 309
#     4  10  20  34  53  77 107 143 175 207 256 313
#     4  11  21  36  57  77 101 136 176 216 262 313
#     4   9  18  36  58  78 100 134 178 215 256 309
#
# _framework density 17.045574999999999
#
# number of rings (size 3 to 8) (size 9 to 14) (size 15 to 20)
#    0.000    2.167    0.833    4.250    0.000    5.333 
#    0.000    3.333    1.833    1.000    0.000    0.000 
#    0.000    0.000    0.000    0.000    0.000    0.000 
#
# Total GULP energy -267798.906484 kJ/mol
# GULP energy per Si atom -5579.143885 kJ/mol
# Density = 1.700678 g / cm^3
# Si number density = 17.045575 Si / 1000 Ang^3
#
#
#
# Elastic Constant Matrix: (Units=GPa)
#
#
# Indices 1 2 3 4 5 6 
#
# 1 126.0259 70.8943 39.7873 0.0000 0.0000 0.0000
# 2 70.8943 104.8096 39.3644 0.0000 0.0000 0.0000
# 3 39.7873 39.3644 55.2883 0.0000 0.0000 0.0000
# 4 0.0000 0.0000 0.0000 26.9095 0.0000 0.0000
# 5 0.0000 0.0000 0.0000 0.0000 13.3591 0.0000
# 6 0.0000 0.0000 0.0000 0.0000 0.0000 25.9833
#
#
#
# Elastic Compliance Matrix: (Units=1/GPa)
#
#
# Indices 1 2 3 4 5 6 
#
# 1 0.013551 -0.007512 -0.004403 0.000000 0.000000 0.000000
# 2 -0.007512 0.017188 -0.006832 0.000000 0.000000 0.000000
# 3 -0.004403 -0.006832 0.026120 0.000000 0.000000 0.000000
# 4 0.000000 0.000000 0.000000 0.037162 0.000000 0.000000
# 5 0.000000 0.000000 0.000000 0.000000 0.074855 0.000000
# 6 0.000000 0.000000 0.000000 0.000000 0.000000 0.038486
#
#
# Mechanical properties :
#
#
# Convention : Reuss Voigt Hill
#
# Bulk Modulus (GPa) = 51.64013 65.13508 58.38760
# Shear Modulus (GPa) = 19.89567 22.32225 21.10896
#
# Velocity S-wave (km/s) = 3.42014 3.62271 3.52288
# Velocity P-wave (km/s) = 6.77920 7.46954 7.13273
#
# Compressibility (1/GPa) = 0.01936479
#
# Stress axis : x y z
#
# Youngs Moduli (GPa) = 73.79603 58.17887 38.28523
#
# Poissons Ratio (x) = 0.43705 0.16857
# Poissons Ratio (y) = 0.55437 0.26156
# Poissons Ratio (z) = 0.32493 0.39747
#
# Static dielectric constant tensor:
#      x y z
#    x 1.581770 0.000000 0.000000 
#    y 0.000000 1.554600 0.000000 
#    z 0.000000 0.000000 1.579720 
# 
# From -- ./inp_files/12989.got.cif
#   From: 2010.05.17/outbox.cif.g08.bks.cpg/sg71_7_cif.got.tgz:12989.got - 2010.06.03 16:22:01.
