data_PCOD9521154
_publ_section_title
;
Structure prediction by ZEFSAII (Michael W. Deem and Ramdas Pophale) SiO2 
 PCOD9521154
Probable space group: I M M M
;
_chemical_formula_sum "Si O2"
_cell_formula_units_Z 88
_cell_length_a 19.215654
_cell_length_b 7.603139
_cell_length_c 27.952499
_cell_angle_alpha 90.000000
_cell_angle_beta 90.000000
_cell_angle_gamma 90.000000
_cell_volume 4083.840211
_symmetry_space_group_name_H-M "I M M M"
_symmetry_group_IT_number 71
_symmetry_cell_setting 'orthorhombic'
loop_
_space_group_symop_operation_xyz
x,y,z
-x,-y,z
x,-y,-z
-x,y,-z
-x,-y,-z
x,y,-z
-x,y,z
x,-y,z
1/2+x,1/2+y,1/2+z
1/2-x,1/2-y,1/2+z
1/2+x,1/2-y,1/2-z
1/2-x,1/2+y,1/2-z
1/2-x,1/2-y,1/2-z
1/2+x,1/2+y,1/2-z
1/2-x,1/2+y,1/2+z
1/2+x,1/2-y,1/2+z
loop_
_atom_site_type_symbol
_atom_site_label
_atom_site_fract_x
_atom_site_fract_y
_atom_site_fract_z
Si Si1 0.819086 0.213495 0.081932
Si Si2 0.358058 0.290832 0.840242
Si Si3 0.575996 0.206297 0.254281
Si Si4 0.204718 0.701719 0.813032
Si Si5 0.336249 0.789067 0.947418
Si Si6 0.421913 0.714891 0.500000
O O1 0.827251 0.292541 0.134094
O O2 0.744227 0.265894 0.060293
O O3 0.879319 0.268560 0.046445
O O4 0.818696 0.000000 0.085851
O O5 0.355637 0.500000 0.835497
O O6 0.413306 0.220244 0.802602
O O7 0.281848 0.219805 0.822565
O O8 0.370829 0.255868 0.896421
O O9 0.500000 0.280474 0.267641
O O10 0.646200 0.283127 0.278501
O O11 0.575246 0.000000 0.267581
O O12 0.215897 0.500000 0.797044
O O13 0.337369 0.000000 0.949750
O O14 0.360739 0.724413 0.000000
O O15 0.422212 0.500000 0.500000
O O16 0.500000 0.777815 0.500000
#
# Coordination Sequence:
#
# PCOD9521154 Si02
#       6
#    16  16  16  16  16   8
#     4   9  16  28  46  69  96 128 169 211 248 290
#     4  10  20  33  52  79 107 133 165 211 261 304
#     4  10  21  37  55  73  99 137 175 210 252 306
#     4   9  19  34  51  74 102 132 168 211 257 300
#     4   9  16  29  51  75 100 131 168 207 247 297
#     4   9  16  26  41  63  95 133 170 209 250 291
#
# _framework density 21.548347
#
# number of rings (size 3 to 8) (size 9 to 14) (size 15 to 20)
#    0.000    2.636    0.909    1.091    0.000    2.909 
#    0.000    0.455    0.000    1.091    0.000    3.818 
#    0.000    0.000    0.000    0.000    0.000    0.000 
#
# Total GULP energy -245293.855644 kJ/mol
# GULP energy per Si atom -5574.860356 kJ/mol
# Density = 2.149930 g / cm^3
# Si number density = 21.548347 Si / 1000 Ang^3
#
#
#
# Elastic Constant Matrix: (Units=GPa)
#
#
# Indices 1 2 3 4 5 6 
#
# 1 31.1044 -0.7260 21.8586 0.0000 0.0000 0.0000
# 2 -0.7260 48.8511 -2.0392 0.0000 0.0000 0.0000
# 3 21.8586 -2.0392 109.1739 0.0000 0.0000 0.0000
# 4 0.0000 0.0000 0.0000 18.3972 0.0000 0.0000
# 5 0.0000 0.0000 0.0000 0.0000 10.2391 0.0000
# 6 0.0000 0.0000 0.0000 0.0000 0.0000 1.2187
#
#
#
# Elastic Compliance Matrix: (Units=1/GPa)
#
#
# Indices 1 2 3 4 5 6 
#
# 1 0.037417 0.000244 -0.007487 0.000000 0.000000 0.000000
# 2 0.000244 0.020488 0.000334 0.000000 0.000000 0.000000
# 3 -0.007487 0.000334 0.010665 0.000000 0.000000 0.000000
# 4 0.000000 0.000000 0.000000 0.054356 0.000000 0.000000
# 5 0.000000 0.000000 0.000000 0.000000 0.097665 0.000000
# 6 0.000000 0.000000 0.000000 0.000000 0.000000 0.820528
#
#
# Mechanical properties :
#
#
# Convention : Reuss Voigt Hill
#
# Bulk Modulus (GPa) = 18.26459 25.25738 21.76098
# Shear Modulus (GPa) = 4.65901 17.30672 10.98287
#
# Velocity S-wave (km/s) = 1.47201 2.83708 2.26007
# Velocity P-wave (km/s) = 3.37396 4.74117 4.11475
#
# Compressibility (1/GPa) = 0.05475076
#
# Stress axis : x y z
#
# Youngs Moduli (GPa) = 26.72579 48.80926 93.76486
#
# Poissons Ratio (x) = -0.01189 0.70202
# Poissons Ratio (y) = -0.00651 -0.03131
# Poissons Ratio (z) = 0.20010 -0.01630
#
# Static dielectric constant tensor:
#      x y z
#    x 1.788520 0.000000 0.000000 
#    y 0.000000 1.808100 0.000000 
#    z 0.000000 0.000000 1.792340 
# 
# From -- ./inp_files/57560.got.cif
#   From: 2010.05.17/outbox.cif.g08.bks.cpg/sg71_29_cif.got.tgz:57560.got - 2010.06.03 16:22:01.
