data_PCOD9521990
_publ_section_title
;
Structure prediction by ZEFSAII (Michael W. Deem and Ramdas Pophale) SiO2 
 PCOD9521990
Probable space group: I M M M
;
_chemical_formula_sum "Si O2"
_cell_formula_units_Z 116
_cell_length_a 17.924370
_cell_length_b 12.728928
_cell_length_c 26.745462
_cell_angle_alpha 90.000000
_cell_angle_beta 90.000000
_cell_angle_gamma 90.000000
_cell_volume 6102.191525
_symmetry_space_group_name_H-M "I M M M"
_symmetry_group_IT_number 71
_symmetry_cell_setting 'orthorhombic'
loop_
_space_group_symop_operation_xyz
x,y,z
-x,-y,z
x,-y,-z
-x,y,-z
-x,-y,-z
x,y,-z
-x,y,z
x,-y,z
1/2+x,1/2+y,1/2+z
1/2-x,1/2-y,1/2+z
1/2+x,1/2-y,1/2-z
1/2-x,1/2+y,1/2-z
1/2-x,1/2-y,1/2-z
1/2+x,1/2+y,1/2-z
1/2-x,1/2+y,1/2+z
1/2+x,1/2-y,1/2+z
loop_
_atom_site_type_symbol
_atom_site_label
_atom_site_fract_x
_atom_site_fract_y
_atom_site_fract_z
Si Si1 0.834529 0.380467 0.228953
Si Si2 0.587704 0.616587 0.107463
Si Si3 0.126243 0.825168 0.059707
Si Si4 0.413677 0.832788 0.057800
Si Si5 0.000000 0.000000 0.917252
Si Si6 0.314272 0.712881 0.806034
Si Si7 0.270126 0.885431 0.118207
Si Si8 0.589209 0.881531 0.620833
O O1 0.848717 0.500000 0.246312
O O2 0.746028 0.360758 0.220762
O O3 0.857251 0.288501 0.267249
O O4 0.873980 0.367663 0.175361
O O5 0.500000 0.615695 0.119529
O O6 0.609713 0.500000 0.090652
O O7 0.597524 0.707683 0.066531
O O8 0.633209 0.649309 0.156613
O O9 0.207934 0.862840 0.076708
O O10 0.113585 0.710749 0.083857
O O11 0.065250 0.907715 0.079733
O O12 0.119264 0.822314 0.000000
O O13 0.500000 0.857252 0.070977
O O14 0.351757 0.882839 0.093082
O O15 0.402546 0.860458 0.000000
O O16 0.268540 0.794841 0.840615
O O17 0.256334 0.000000 0.140561
O O18 0.500000 0.877054 0.626001
O O19 0.609451 0.000000 0.603478
#
# Coordination Sequence:
#
# PCOD9521990 Si02
#       8
#    16  16  16  16   4  16  16  16
#     4  10  20  36  58  82 107 142 183 227 281 340
#     4   9  18  33  54  78 107 143 181 226 277 329
#     4  12  23  38  59  86 119 155 200 244 294 352
#     4   9  19  35  53  78 112 149 190 235 284 336
#     4  12  25  40  62  86 118 166 200 242 302 348
#     4  10  20  35  57  82 109 145 180 229 278 340
#     4  11  22  36  56  84 115 150 193 238 285 344
#     4  10  22  40  61  84 114 152 194 242 296 351
#
# _framework density 19.009564000000001
#
# number of rings (size 3 to 8) (size 9 to 14) (size 15 to 20)
#    0.000    1.793    2.759    1.862    0.000    2.207 
#    0.000    2.759    1.517    4.138    0.000    0.000 
#    0.000    0.000    0.000    0.000    0.000    0.000 
#
# Total GULP energy -323082.705976 kJ/mol
# GULP energy per Si atom -5570.391482 kJ/mol
# Density = 1.896630 g / cm^3
# Si number density = 19.009564 Si / 1000 Ang^3
#
#
#
# Elastic Constant Matrix: (Units=GPa)
#
#
# Indices 1 2 3 4 5 6 
#
# 1 47.1483 15.8964 4.0964 0.0000 0.0000 0.0000
# 2 15.8964 102.2109 2.9549 0.0000 0.0000 0.0000
# 3 4.0964 2.9549 21.5561 0.0000 0.0000 0.0000
# 4 0.0000 0.0000 0.0000 -0.6578 0.0000 0.0000
# 5 0.0000 0.0000 0.0000 0.0000 11.3233 0.0000
# 6 0.0000 0.0000 0.0000 0.0000 0.0000 7.5559
#
#
#
# Elastic Compliance Matrix: (Units=1/GPa)
#
#
# Indices 1 2 3 4 5 6 
#
# 1 0.022696 -0.003419 -0.003844 0.000000 0.000000 0.000000
# 2 -0.003419 0.010338 -0.000767 0.000000 0.000000 0.000000
# 3 -0.003844 -0.000767 0.047226 0.000000 0.000000 0.000000
# 4 0.000000 0.000000 0.000000 -1.520288 0.000000 0.000000
# 5 0.000000 0.000000 0.000000 0.000000 0.088314 0.000000
# 6 0.000000 0.000000 0.000000 0.000000 0.000000 0.132346
#
#
# Mechanical properties :
#
#
# Convention : Reuss Voigt Hill
#
# Bulk Modulus (GPa) = 15.57653 24.09009 19.83331
# Shear Modulus (GPa) = -4.23045 13.50879 4.63917
#
# Velocity S-wave (km/s) = -1.49341 2.66866 1.56389
# Velocity P-wave (km/s) = 2.28870 4.71124 3.70364
#
# Compressibility (1/GPa) = 0.06419914
#
# Stress axis : x y z
#
# Youngs Moduli (GPa) = 44.05999 96.73453 21.17459
#
# Poissons Ratio (x) = 0.33071 0.08141
# Poissons Ratio (y) = 0.15063 0.01625
# Poissons Ratio (z) = 0.16939 0.07423
#
# Static dielectric constant tensor:
#      x y z
#    x 1.643490 0.000000 0.000000 
#    y 0.000000 1.692720 0.000000 
#    z 0.000000 0.000000 1.637580 
# 
# From -- ./inp_files/48924.got.cif
#   From: 2010.05.17/outbox.cif.g08.bks.cpg/sg71_25_cif.got.tgz:48924.got - 2010.06.03 16:22:01.
