data_PCOD9521327
_publ_section_title
;
Structure prediction by ZEFSAII (Michael W. Deem and Ramdas Pophale) SiO2 
 PCOD9521327
Probable space group: I M M M
;
_chemical_formula_sum "Si O2"
_cell_formula_units_Z 104
_cell_length_a 8.983315
_cell_length_b 32.486847
_cell_length_c 21.040245
_cell_angle_alpha 90.000000
_cell_angle_beta 90.000000
_cell_angle_gamma 90.000000
_cell_volume 6140.376263
_symmetry_space_group_name_H-M "I M M M"
_symmetry_group_IT_number 71
_symmetry_cell_setting 'orthorhombic'
loop_
_space_group_symop_operation_xyz
x,y,z
-x,-y,z
x,-y,-z
-x,y,-z
-x,-y,-z
x,y,-z
-x,y,z
x,-y,z
1/2+x,1/2+y,1/2+z
1/2-x,1/2-y,1/2+z
1/2+x,1/2-y,1/2-z
1/2-x,1/2+y,1/2-z
1/2-x,1/2-y,1/2-z
1/2+x,1/2+y,1/2-z
1/2-x,1/2+y,1/2+z
1/2+x,1/2-y,1/2+z
loop_
_atom_site_type_symbol
_atom_site_label
_atom_site_fract_x
_atom_site_fract_y
_atom_site_fract_z
Si Si1 0.328075 0.333947 0.826260
Si Si2 0.320707 0.775088 0.427975
Si Si3 0.319085 0.370542 0.694011
Si Si4 0.330543 0.049271 0.500000
Si Si5 0.672210 0.571705 0.869943
Si Si6 0.178146 0.453910 0.258891
Si Si7 0.181006 0.179654 0.070973
O O1 0.500000 0.320420 0.823084
O O2 0.241145 0.303286 0.872012
O O3 0.273836 0.341801 0.754055
O O4 0.323710 0.379545 0.856361
O O5 0.273626 0.787654 0.500000
O O6 0.500000 0.776673 0.426807
O O7 0.275839 0.727327 0.419009
O O8 0.500000 0.373499 0.696619
O O9 0.252765 0.415940 0.704089
O O10 0.271651 0.349562 0.628307
O O11 0.500000 0.065166 0.500000
O O12 0.245235 0.063039 0.437224
O O13 0.335466 0.000000 0.500000
O O14 0.500000 0.558386 0.868273
O O15 0.762611 0.550389 0.813206
O O16 0.215659 0.500000 0.282283
O O17 0.000000 0.449405 0.259623
O O18 0.000000 0.179133 0.071113
O O19 0.229638 0.167132 0.000000
#
# Coordination Sequence:
#
# PCOD9521327 Si02
#       7
#    16  16  16   8  16  16  16
#     4   9  19  32  45  68 100 129 162 206 252 293
#     4   9  18  31  48  71  97 131 173 209 245 294
#     4   9  18  33  53  76 100 129 165 204 249 300
#     4  11  23  35  47  67  95 127 167 215 263 307
#     4  10  21  35  50  69  95 130 170 212 255 299
#     4  10  20  34  52  74 100 128 160 202 250 299
#     4   8  15  31  54  77 101 128 162 205 249 295
#
# _framework density 16.937073000000002
#
# number of rings (size 3 to 8) (size 9 to 14) (size 15 to 20)
#    0.000    2.692    0.000    3.462    1.077    7.692 
#    0.000    0.769    0.000    1.846    0.000    3.231 
#    0.000    0.000    0.000    0.000    0.000    0.000 
#
# Total GULP energy -289863.972374 kJ/mol
# GULP energy per Si atom -5574.307161 kJ/mol
# Density = 1.689852 g / cm^3
# Si number density = 16.937073 Si / 1000 Ang^3
#
#
#
# Elastic Constant Matrix: (Units=GPa)
#
#
# Indices 1 2 3 4 5 6 
#
# 1 37.3144 31.3934 37.1306 0.0000 0.0000 0.0000
# 2 31.3934 88.6291 83.9099 0.0000 0.0000 0.0000
# 3 37.1306 83.9099 142.4340 0.0000 -0.0001 0.0000
# 4 0.0000 0.0000 0.0000 10.3482 0.0000 0.0000
# 5 0.0000 0.0000 -0.0001 0.0000 26.6552 0.0000
# 6 0.0000 0.0000 0.0000 0.0000 0.0000 20.8911
#
#
#
# Elastic Compliance Matrix: (Units=1/GPa)
#
#
# Indices 1 2 3 4 5 6 
#
# 1 0.039490 -0.009590 -0.004645 0.000000 0.000000 0.000000
# 2 -0.009590 0.027842 -0.013902 0.000000 0.000000 0.000000
# 3 -0.004645 -0.013902 0.016421 0.000000 0.000000 0.000000
# 4 0.000000 0.000000 0.000000 0.096635 0.000000 0.000000
# 5 0.000000 0.000000 0.000000 0.000000 0.037516 0.000000
# 6 0.000000 0.000000 0.000000 0.000000 0.000000 0.047867
#
#
# Mechanical properties :
#
#
# Convention : Reuss Voigt Hill
#
# Bulk Modulus (GPa) = 36.39143 63.69392 50.04268
# Shear Modulus (GPa) = 15.09643 19.30847 17.20245
#
# Velocity S-wave (km/s) = 2.98874 3.38007 3.19041
# Velocity P-wave (km/s) = 5.78299 7.27468 6.57130
#
# Compressibility (1/GPa) = 0.02747899
#
# Stress axis : x y z
#
# Youngs Moduli (GPa) = 25.32310 35.91758 60.89658
#
# Poissons Ratio (x) = 0.34446 0.28284
# Poissons Ratio (y) = 0.24286 0.84657
# Poissons Ratio (z) = 0.11761 0.49932
#
# Static dielectric constant tensor:
#      x y z
#    x 1.575630 0.000000 0.000000 
#    y 0.000000 1.563750 0.000000 
#    z 0.000000 0.000000 1.613440 
# 
# From -- ./inp_files/11467.got.cif
#   From: 2010.05.17/outbox.cif.g08.bks.cpg/sg71_6_cif.got.tgz:11467.got - 2010.06.03 16:22:01.
