data_PCOD9521845
_publ_section_title
;
Structure prediction by ZEFSAII (Michael W. Deem and Ramdas Pophale) SiO2 
 PCOD9521845
Probable space group: I M M M
;
_chemical_formula_sum "Si O2"
_cell_formula_units_Z 120
_cell_length_a 8.744272
_cell_length_b 26.219994
_cell_length_c 28.456245
_cell_angle_alpha 90.000000
_cell_angle_beta 90.000000
_cell_angle_gamma 90.000000
_cell_volume 6524.298725
_symmetry_space_group_name_H-M "I M M M"
_symmetry_group_IT_number 71
_symmetry_cell_setting 'orthorhombic'
loop_
_space_group_symop_operation_xyz
x,y,z
-x,-y,z
x,-y,-z
-x,y,-z
-x,-y,-z
x,y,-z
-x,y,z
x,-y,z
1/2+x,1/2+y,1/2+z
1/2-x,1/2-y,1/2+z
1/2+x,1/2-y,1/2-z
1/2-x,1/2+y,1/2-z
1/2-x,1/2-y,1/2-z
1/2+x,1/2+y,1/2-z
1/2-x,1/2+y,1/2+z
1/2+x,1/2-y,1/2+z
loop_
_atom_site_type_symbol
_atom_site_label
_atom_site_fract_x
_atom_site_fract_y
_atom_site_fract_z
Si Si1 0.184087 0.249120 0.947635
Si Si2 0.819645 0.938834 0.152637
Si Si3 0.182596 0.161347 0.677690
Si Si4 0.184614 0.938798 0.949605
Si Si5 0.315840 0.864976 0.581190
Si Si6 0.681896 0.136979 0.221751
Si Si7 0.686762 0.941504 0.500000
Si Si8 0.315949 0.776001 0.850810
O O1 0.224934 0.308950 0.939438
O O2 0.250561 0.219038 0.903295
O O3 0.000000 0.245503 0.946183
O O4 0.234480 0.233556 0.000000
O O5 0.760765 0.920084 0.101253
O O6 0.729259 0.914242 0.195129
O O7 0.000000 0.925918 0.156568
O O8 0.808605 0.000000 0.153015
O O9 0.246803 0.131006 0.632960
O O10 0.244735 0.142784 0.727344
O O11 0.229954 0.220267 0.668622
O O12 0.000000 0.159285 0.677595
O O13 0.000000 0.932439 0.949144
O O14 0.211375 0.000000 0.950171
O O15 0.241296 0.918166 0.000000
O O16 0.500000 0.866121 0.584247
O O17 0.265846 0.909164 0.545662
O O18 0.500000 0.140782 0.226489
O O19 0.735737 0.181682 0.186244
O O20 0.500000 0.941736 0.500000
O O21 0.738180 0.000000 0.500000
O O22 0.500000 0.777544 0.853522
#
# Coordination Sequence:
#
# PCOD9521845 Si02
#       8
#    16  16  16  16  16  16   8  16
#     4   9  16  28  49  76 104 136 173 213 256 308
#     4   9  18  33  53  76 101 131 168 208 250 297
#     4  10  20  35  55  77 100 130 173 219 264 314
#     4   7  10  20  42  70  94 116 149 194 238 278
#     4   9  16  30  51  76 105 135 171 213 256 305
#     4  11  22  36  53  74 102 135 171 214 264 315
#     4   9  16  28  51  81 111 143 177 213 254 305
#     4   9  20  35  51  75 104 134 170 214 265 317
#
# _framework density 18.392782
#
# number of rings (size 3 to 8) (size 9 to 14) (size 15 to 20)
#    0.000    2.867    0.667    2.400    0.000    2.133 
#    0.000    1.667    0.000    6.000    0.000    1.867 
#    0.000    0.000    0.000    0.000    0.000    0.000 
#
# Total GULP energy -334446.749378 kJ/mol
# GULP energy per Si atom -5574.112490 kJ/mol
# Density = 1.835092 g / cm^3
# Si number density = 18.392782 Si / 1000 Ang^3
#
#
#
# Elastic Constant Matrix: (Units=GPa)
#
#
# Indices 1 2 3 4 5 6 
#
# 1 12.4756 14.6667 33.9061 0.0000 0.0000 0.0000
# 2 14.6667 37.3520 35.7365 0.0000 0.0000 0.0000
# 3 33.9061 35.7365 181.9069 0.0000 0.0000 0.0000
# 4 0.0000 0.0000 0.0000 14.2742 0.0000 0.0000
# 5 0.0000 0.0000 0.0000 0.0000 23.7903 0.0000
# 6 0.0000 0.0000 0.0000 0.0000 0.0000 15.5946
#
#
#
# Elastic Compliance Matrix: (Units=1/GPa)
#
#
# Indices 1 2 3 4 5 6 
#
# 1 0.247359 -0.065288 -0.033280 0.000000 0.000000 0.000000
# 2 -0.065288 0.050201 0.002307 0.000000 0.000000 0.000000
# 3 -0.033280 0.002307 0.011247 0.000000 0.000000 0.000000
# 4 0.000000 0.000000 0.000000 0.070057 0.000000 0.000000
# 5 0.000000 0.000000 0.000000 0.000000 0.042034 0.000000
# 6 0.000000 0.000000 0.000000 0.000000 0.000000 0.064125
#
#
# Mechanical properties :
#
#
# Convention : Reuss Voigt Hill
#
# Bulk Modulus (GPa) = 8.59948 44.48365 26.54157
# Shear Modulus (GPa) = 6.98026 20.56018 13.77022
#
# Velocity S-wave (km/s) = 1.95022 3.34704 2.73916
# Velocity P-wave (km/s) = 3.12358 6.25898 4.94629
#
# Compressibility (1/GPa) = 0.11628605
#
# Stress axis : x y z
#
# Youngs Moduli (GPa) = 4.04271 19.91988 88.91095
#
# Poissons Ratio (x) = 1.30052 2.95893
# Poissons Ratio (y) = 0.26394 -0.20511
# Poissons Ratio (z) = 0.13454 -0.04595
#
# Static dielectric constant tensor:
#      x y z
#    x 1.617060 0.000000 0.000000 
#    y 0.000000 1.646070 0.000000 
#    z 0.000000 0.000000 1.639980 
# 
# From -- ./inp_files/63804.got.cif
#   From: 2010.05.17/outbox.cif.g08.bks.cpg/sg71_32_cif.got.tgz:63804.got - 2010.06.03 16:22:01.
