data_PCOD9521698
_publ_section_title
;
Structure prediction by ZEFSAII (Michael W. Deem and Ramdas Pophale) SiO2 
 PCOD9521698
Probable space group: I M M M
;
_chemical_formula_sum "Si O2"
_cell_formula_units_Z 116
_cell_length_a 27.322613
_cell_length_b 26.515844
_cell_length_c 7.925131
_cell_angle_alpha 90.000000
_cell_angle_beta 90.000000
_cell_angle_gamma 90.000000
_cell_volume 5741.615898
_symmetry_space_group_name_H-M "I M M M"
_symmetry_group_IT_number 71
_symmetry_cell_setting 'orthorhombic'
loop_
_space_group_symop_operation_xyz
x,y,z
-x,-y,z
x,-y,-z
-x,y,-z
-x,-y,-z
x,y,-z
-x,y,z
x,-y,z
1/2+x,1/2+y,1/2+z
1/2-x,1/2-y,1/2+z
1/2+x,1/2-y,1/2-z
1/2-x,1/2+y,1/2-z
1/2-x,1/2-y,1/2-z
1/2+x,1/2+y,1/2-z
1/2-x,1/2+y,1/2+z
1/2+x,1/2-y,1/2+z
loop_
_atom_site_type_symbol
_atom_site_label
_atom_site_fract_x
_atom_site_fract_y
_atom_site_fract_z
Si Si1 0.066601 0.000000 0.500000
Si Si2 0.345810 0.243146 0.797151
Si Si3 0.445936 0.922819 0.803292
Si Si4 0.781565 0.350105 0.696447
Si Si5 0.826828 0.855846 0.697097
Si Si6 0.945977 0.307652 0.201109
Si Si7 0.105497 0.945802 0.187766
Si Si8 0.659781 0.945346 0.696030
O O1 0.070279 0.043626 0.652107
O O2 0.308054 0.200256 0.734012
O O3 0.336303 0.299498 0.733999
O O4 0.400526 0.225819 0.755186
O O5 0.340418 0.243821 0.000000
O O6 0.500000 0.937362 0.739806
O O7 0.442783 0.862185 0.787742
O O8 0.398868 0.943574 0.710037
O O9 0.442695 0.936837 0.000000
O O10 0.770351 0.341638 0.500000
O O11 0.731108 0.363804 0.785803
O O12 0.818408 0.397000 0.711954
O O13 0.840262 0.856826 0.500000
O O14 0.858612 0.899223 0.783844
O O15 0.000000 0.286248 0.239556
O O16 0.943100 0.316114 0.000000
O O17 0.134094 0.000000 0.189507
O O18 0.082861 0.941571 0.000000
O O19 0.673628 0.941361 0.500000
O O20 0.676553 0.000000 0.761660
#
# Coordination Sequence:
#
# PCOD9521698 Si02
#       8
#     4  16  16  16  16  16  16  16
#     4   8  14  32  52  74 108 140 175 230 263 314
#     4  10  22  37  56  81 110 143 180 225 275 332
#     4  10  20  35  57  80 104 135 175 226 284 343
#     4  11  23  38  54  76 104 140 187 230 278 338
#     4  11  21  36  55  79 111 147 185 228 279 331
#     4  10  20  34  56  83 110 143 180 221 275 336
#     4   9  17  31  52  77 105 141 181 222 268 315
#     4  11  24  40  56  77 104 139 183 232 287 341
#
# _framework density 20.203372000000002
#
# number of rings (size 3 to 8) (size 9 to 14) (size 15 to 20)
#    0.414    1.379    2.069    2.483    0.000    5.241 
#    0.000    1.379    0.000    0.000    0.000    0.000 
#    0.000    0.552    0.000    7.241    0.000    6.897 
#
# Total GULP energy -322954.102226 kJ/mol
# GULP energy per Si atom -5568.174176 kJ/mol
# Density = 2.015739 g / cm^3
# Si number density = 20.203372 Si / 1000 Ang^3
#
#
#
# Elastic Constant Matrix: (Units=GPa)
#
#
# Indices 1 2 3 4 5 6 
#
# 1 28.4861 3.1948 -5.9460 0.0000 0.0000 0.0000
# 2 3.1948 90.5566 9.4464 0.0000 0.0000 0.0000
# 3 -5.9460 9.4464 73.9581 0.0000 0.0000 0.0000
# 4 0.0000 0.0000 0.0000 19.4948 0.0000 0.0000
# 5 0.0000 0.0000 0.0000 0.0000 12.8700 0.0000
# 6 0.0000 0.0000 0.0000 0.0000 0.0000 -17.7970
#
#
#
# Elastic Compliance Matrix: (Units=1/GPa)
#
#
# Indices 1 2 3 4 5 6 
#
# 1 0.035929 -0.001590 0.003092 0.000000 0.000000 0.000000
# 2 -0.001590 0.011262 -0.001566 0.000000 0.000000 0.000000
# 3 0.003092 -0.001566 0.013970 0.000000 0.000000 0.000000
# 4 0.000000 0.000000 0.000000 0.051296 0.000000 0.000000
# 5 0.000000 0.000000 0.000000 0.000000 0.077700 0.000000
# 6 0.000000 0.000000 0.000000 0.000000 0.000000 -0.056189
#
#
# Mechanical properties :
#
#
# Convention : Reuss Voigt Hill
#
# Bulk Modulus (GPa) = 16.38507 22.93235 19.65871
# Shear Modulus (GPa) = 32.37495 15.33393 23.85444
#
# Velocity S-wave (km/s) = 4.00741 2.75795 3.43988
# Velocity P-wave (km/s) = 5.43508 4.63865 5.05258
#
# Compressibility (1/GPa) = 0.06103116
#
# Stress axis : x y z
#
# Youngs Moduli (GPa) = 27.83302 88.79175 71.58305
#
# Poissons Ratio (x) = 0.14118 -0.22131
# Poissons Ratio (y) = 0.04426 0.11212
# Poissons Ratio (z) = -0.08605 0.13908
#
# Static dielectric constant tensor:
#      x y z
#    x 1.695980 0.000000 0.000000 
#    y 0.000000 1.724740 0.000000 
#    z 0.000000 0.000000 1.740020 
# 
# From -- ./inp_files/15640.got.cif
#   From: 2010.05.17/outbox.cif.g08.bks.cpg/sg71_8_cif.got.tgz:15640.got - 2010.06.03 16:22:01.
