data_PCOD9521665
_publ_section_title
;
Structure prediction by ZEFSAII (Michael W. Deem and Ramdas Pophale) SiO2 
 PCOD9521665
Probable space group: I M M M
;
_chemical_formula_sum "Si O2"
_cell_formula_units_Z 88
_cell_length_a 21.840490
_cell_length_b 11.636667
_cell_length_c 18.086566
_cell_angle_alpha 90.000000
_cell_angle_beta 90.000000
_cell_angle_gamma 90.000000
_cell_volume 4596.709959
_symmetry_space_group_name_H-M "I M M M"
_symmetry_group_IT_number 71
_symmetry_cell_setting 'orthorhombic'
loop_
_space_group_symop_operation_xyz
x,y,z
-x,-y,z
x,-y,-z
-x,y,-z
-x,-y,-z
x,y,-z
-x,y,z
x,-y,z
1/2+x,1/2+y,1/2+z
1/2-x,1/2-y,1/2+z
1/2+x,1/2-y,1/2-z
1/2-x,1/2+y,1/2-z
1/2-x,1/2-y,1/2-z
1/2+x,1/2+y,1/2-z
1/2-x,1/2+y,1/2+z
1/2+x,1/2-y,1/2+z
loop_
_atom_site_type_symbol
_atom_site_label
_atom_site_fract_x
_atom_site_fract_y
_atom_site_fract_z
Si Si1 0.929081 0.000000 0.711689
Si Si2 0.839949 0.636155 0.198312
Si Si3 0.621168 0.740159 0.153126
Si Si4 0.000000 0.637188 0.411419
Si Si5 0.571557 0.500000 0.388625
Si Si6 0.926701 0.745482 0.918182
Si Si7 0.234032 0.137600 0.582634
O O1 0.899466 0.115367 0.681722
O O2 0.925148 0.000000 0.800237
O O3 0.000000 0.000000 0.690286
O O4 0.839241 0.500000 0.208515
O O5 0.848269 0.695584 0.277206
O O6 0.896282 0.674144 0.146620
O O7 0.780659 0.667274 0.148782
O O8 0.561444 0.806902 0.123348
O O9 0.673148 0.712572 0.093057
O O10 0.000000 0.500000 0.397946
O O11 0.000000 0.656522 0.500000
O O12 0.500000 0.500000 0.411274
O O13 0.596682 0.622314 0.414830
O O14 0.000000 0.748739 0.907663
O O15 0.914329 0.698134 0.000000
O O16 0.259871 0.156267 0.500000
O O17 0.221005 0.000000 0.588407
#
# Coordination Sequence:
#
# PCOD9521665 Si02
#       7
#     8  16  16   8   8  16  16
#     4  11  20  35  60  99 126 150 201 264 316 359
#     4  11  24  39  59  88 123 167 211 253 307 375
#     4  12  22  41  66  95 123 161 210 258 312 375
#     4  11  26  45  67  97 134 170 200 244 310 382
#     4   9  17  32  53  80 116 152 192 250 311 368
#     4  10  20  34  55  83 117 159 207 259 313 368
#     4  10  22  41  64  90 122 161 207 263 320 368
#
# _framework density 19.144127000000001
#
# number of rings (size 3 to 8) (size 9 to 14) (size 15 to 20)
#    0.000    1.364    3.636    2.455    1.273    2.545 
#    0.000    1.364    2.000    0.000    0.000    0.000 
#    0.000    0.000    0.000    0.000    0.000    0.000 
#
# Total GULP energy -245633.553357 kJ/mol
# GULP energy per Si atom -5582.580758 kJ/mol
# Density = 1.910055 g / cm^3
# Si number density = 19.144127 Si / 1000 Ang^3
#
#
#
# Elastic Constant Matrix: (Units=GPa)
#
#
# Indices 1 2 3 4 5 6 
#
# 1 90.0145 40.5921 47.0171 0.0000 0.0000 0.0000
# 2 40.5921 87.0766 45.3235 0.0000 0.0000 0.0000
# 3 47.0171 45.3235 104.6952 0.0000 0.0000 0.0000
# 4 0.0000 0.0000 0.0000 -2.4630 0.0000 0.0000
# 5 0.0000 0.0000 0.0000 0.0000 30.4150 0.0000
# 6 0.0000 0.0000 0.0000 0.0000 0.0000 21.6375
#
#
#
# Elastic Compliance Matrix: (Units=1/GPa)
#
#
# Indices 1 2 3 4 5 6 
#
# 1 0.015916 -0.004775 -0.005081 0.000000 0.000000 0.000000
# 2 -0.004775 0.016257 -0.004893 0.000000 0.000000 0.000000
# 3 -0.005081 -0.004893 0.013952 0.000000 0.000000 0.000000
# 4 0.000000 0.000000 0.000000 -0.406004 0.000000 0.000000
# 5 0.000000 0.000000 0.000000 0.000000 0.032879 0.000000
# 6 0.000000 0.000000 0.000000 0.000000 0.000000 0.046216
#
#
# Mechanical properties :
#
#
# Convention : Reuss Voigt Hill
#
# Bulk Modulus (GPa) = 60.14408 60.85018 60.49713
# Shear Modulus (GPa) = -20.34643 19.84147 -0.25248
#
# Velocity S-wave (km/s) = -3.26360 3.22285 -0.36355
# Velocity P-wave (km/s) = 4.15731 6.76042 5.61189
#
# Compressibility (1/GPa) = 0.01662674
#
# Stress axis : x y z
#
# Youngs Moduli (GPa) = 62.82799 61.51113 71.67657
#
# Poissons Ratio (x) = 0.29373 0.36416
# Poissons Ratio (y) = 0.30002 0.35074
# Poissons Ratio (z) = 0.31920 0.30100
#
# Static dielectric constant tensor:
#      x y z
#    x 1.674540 0.000000 0.000000 
#    y 0.000000 1.666770 0.000000 
#    z 0.000000 0.000000 1.720070 
# 
# From -- ./inp_files/47128.got.cif
#   From: 2010.05.17/outbox.cif.g08.bks.cpg/sg71_24_cif.got.tgz:47128.got - 2010.06.03 16:22:01.
