data_PCOD9521271
_publ_section_title
;
Structure prediction by ZEFSAII (Michael W. Deem and Ramdas Pophale) SiO2 
 PCOD9521271
Probable space group: I M M M
;
_chemical_formula_sum "Si O2"
_cell_formula_units_Z 56
_cell_length_a 12.577744
_cell_length_b 19.416033
_cell_length_c 13.076933
_cell_angle_alpha 90.000000
_cell_angle_beta 90.000000
_cell_angle_gamma 90.000000
_cell_volume 3193.516403
_symmetry_space_group_name_H-M "I M M M"
_symmetry_group_IT_number 71
_symmetry_cell_setting 'orthorhombic'
loop_
_space_group_symop_operation_xyz
x,y,z
-x,-y,z
x,-y,-z
-x,y,-z
-x,-y,-z
x,y,-z
-x,y,z
x,-y,z
1/2+x,1/2+y,1/2+z
1/2-x,1/2-y,1/2+z
1/2+x,1/2-y,1/2-z
1/2-x,1/2+y,1/2-z
1/2-x,1/2-y,1/2-z
1/2+x,1/2+y,1/2-z
1/2-x,1/2+y,1/2+z
1/2+x,1/2-y,1/2+z
loop_
_atom_site_type_symbol
_atom_site_label
_atom_site_fract_x
_atom_site_fract_y
_atom_site_fract_z
Si Si1 0.265629 0.194819 0.384623
Si Si2 0.376731 0.417456 0.500000
Si Si3 0.000000 0.419586 0.321258
Si Si4 0.000000 0.652430 0.111668
Si Si5 0.274168 0.851166 0.165002
O O1 0.237279 0.171317 0.500000
O O2 0.394384 0.198051 0.380371
O O3 0.242572 0.147883 0.285551
O O4 0.220186 0.270695 0.365510
O O5 0.371057 0.500000 0.500000
O O6 0.500000 0.396464 0.500000
O O7 0.314355 0.387687 0.402680
O O8 0.000000 0.404101 0.199641
O O9 0.889409 0.384939 0.355835
O O10 0.000000 0.500000 0.345229
O O11 0.000000 0.619354 0.000000
#
# Coordination Sequence:
#
# PCOD9521271 Si02
#       5
#    16   8   8   8  16
#     4   9  17  32  54  83 112 137 179 224 273 324
#     4  11  24  39  57  79 103 142 191 230 271 327
#     4  10  20  34  50  74 113 149 177 213 261 328
#     4   8  16  29  53  81 104 138 175 223 271 316
#     4  10  20  34  55  80 109 146 179 220 275 321
#
# _framework density 17.535529
#
# number of rings (size 3 to 8) (size 9 to 14) (size 15 to 20)
#    0.000    2.429    1.429    0.857    2.000    0.857 
#    2.571    1.429    0.000    2.571    0.000    2.000 
#    0.000    0.000    0.000    0.000    0.000    0.000 
#
# Total GULP energy -155942.205004 kJ/mol
# GULP energy per Si atom -5569.364464 kJ/mol
# Density = 1.749562 g / cm^3
# Si number density = 17.535529 Si / 1000 Ang^3
#
#
#
# Elastic Constant Matrix: (Units=GPa)
#
#
# Indices 1 2 3 4 5 6 
#
# 1 121.2496 53.5453 70.0622 0.0000 0.0000 0.0000
# 2 53.5453 65.2760 31.1640 0.0001 0.0000 0.0000
# 3 70.0622 31.1640 137.0289 0.0002 -0.0001 0.0000
# 4 0.0000 0.0001 0.0002 -0.2757 -0.0001 0.0000
# 5 0.0000 0.0000 -0.0001 -0.0001 20.3282 0.0000
# 6 0.0000 0.0000 0.0000 0.0000 0.0000 26.2202
#
#
#
# Elastic Compliance Matrix: (Units=1/GPa)
#
#
# Indices 1 2 3 4 5 6 
#
# 1 0.016362 -0.010576 -0.005961 -0.000007 0.000000 0.000000
# 2 -0.010576 0.024022 -0.000056 0.000008 0.000000 0.000000
# 3 -0.005961 -0.000056 0.010358 0.000008 0.000000 0.000000
# 4 -0.000007 0.000008 0.000008 -3.626870 -0.000010 -0.000002
# 5 0.000000 0.000000 0.000000 -0.000010 0.049193 0.000000
# 6 0.000000 0.000000 0.000000 -0.000002 0.000000 0.038139
#
#
# Mechanical properties :
#
#
# Convention : Reuss Voigt Hill
#
# Bulk Modulus (GPa) = 56.95697 70.34417 63.65057
# Shear Modulus (GPa) = -1.44938 20.50674 9.52868
#
# Velocity S-wave (km/s) = -0.91013 3.42342 2.33361
# Velocity P-wave (km/s) = 5.60776 7.47186 6.60589
#
# Compressibility (1/GPa) = 0.01755711
#
# Stress axis : x y z
#
# Youngs Moduli (GPa) = 61.11644 41.62925 96.54344
#
# Poissons Ratio (x) = 0.44027 0.57546
# Poissons Ratio (y) = 0.64637 0.00538
# Poissons Ratio (z) = 0.36429 0.00232
#
# Static dielectric constant tensor:
#      x y z
#    x 1.585640 0.000000 0.000000 
#    y 0.000000 1.568940 0.000000 
#    z 0.000000 0.000000 1.672010 
# 
# From -- ./inp_files/32218.got.cif
#   From: 2010.05.17/outbox.cif.g08.bks.cpg/sg71_17_cif.got.tgz:32218.got - 2010.06.03 16:22:01.
