data_PCOD9521624
_publ_section_title
;
Structure prediction by ZEFSAII (Michael W. Deem and Ramdas Pophale) SiO2 
 PCOD9521624
Probable space group: I M M M
;
_chemical_formula_sum "Si O2"
_cell_formula_units_Z 96
_cell_length_a 25.320540
_cell_length_b 24.931709
_cell_length_c 8.853489
_cell_angle_alpha 90.000000
_cell_angle_beta 90.000000
_cell_angle_gamma 90.000000
_cell_volume 5589.068916
_symmetry_space_group_name_H-M "I M M M"
_symmetry_group_IT_number 71
_symmetry_cell_setting 'orthorhombic'
loop_
_space_group_symop_operation_xyz
x,y,z
-x,-y,z
x,-y,-z
-x,y,-z
-x,-y,-z
x,y,-z
-x,y,z
x,-y,z
1/2+x,1/2+y,1/2+z
1/2-x,1/2-y,1/2+z
1/2+x,1/2-y,1/2-z
1/2-x,1/2+y,1/2-z
1/2-x,1/2-y,1/2-z
1/2+x,1/2+y,1/2-z
1/2-x,1/2+y,1/2+z
1/2+x,1/2-y,1/2+z
loop_
_atom_site_type_symbol
_atom_site_label
_atom_site_fract_x
_atom_site_fract_y
_atom_site_fract_z
Si Si1 0.725988 0.500000 0.168509
Si Si2 0.636058 0.411230 0.824454
Si Si3 0.832050 0.500000 0.323551
Si Si4 0.313633 0.805846 0.180934
Si Si5 0.562125 0.500000 0.680573
Si Si6 0.192197 0.811900 0.180787
Si Si7 0.613883 0.103667 0.318518
Si Si8 0.500000 0.937511 0.683447
O O1 0.687998 0.551105 0.180201
O O2 0.769637 0.500000 0.295905
O O3 0.750744 0.500000 0.000000
O O4 0.590756 0.447370 0.748220
O O5 0.652402 0.356605 0.742658
O O6 0.623075 0.401655 0.000000
O O7 0.844963 0.500000 0.500000
O O8 0.855220 0.552122 0.243012
O O9 0.253717 0.825348 0.218599
O O10 0.318531 0.745955 0.246015
O O11 0.357357 0.844630 0.250939
O O12 0.318141 0.805100 0.000000
O O13 0.500000 0.500000 0.715670
O O14 0.569001 0.500000 0.500000
O O15 0.188407 0.808240 0.000000
O O16 0.616310 0.105542 0.500000
O O17 0.553104 0.093497 0.271839
O O18 0.500000 0.939937 0.500000
O O19 0.500000 0.000000 0.735474
#
# Coordination Sequence:
#
# PCOD9521624 Si02
#       8
#     8  16   8  16   8  16  16   8
#     4   9  19  33  49  75 109 145 179 210 261 324
#     4  10  20  34  55  81 110 143 179 223 269 317
#     4  12  23  32  47  76 110 140 175 221 271 321
#     4  10  21  36  55  82 113 143 179 223 269 320
#     4  10  21  37  58  83 110 143 182 222 269 329
#     4  10  20  35  56  81 112 149 182 215 263 324
#     4  11  21  36  57  77 102 139 182 225 271 323
#     4   9  18  36  58  78 100 136 184 225 266 317
#
# _framework density 17.176386000000001
#
# number of rings (size 3 to 8) (size 9 to 14) (size 15 to 20)
#    0.000    1.833    0.833    4.500    0.000    7.333 
#    0.000    2.083    1.833    0.000    0.000    0.000 
#    0.000    0.000    0.000    0.000    0.000    0.000 
#
# Total GULP energy -267970.553911 kJ/mol
# GULP energy per Si atom -5582.719873 kJ/mol
# Density = 1.713729 g / cm^3
# Si number density = 17.176386 Si / 1000 Ang^3
#
#
#
# Elastic Constant Matrix: (Units=GPa)
#
#
# Indices 1 2 3 4 5 6 
#
# 1 123.7549 72.9966 60.5613 0.0000 0.0000 0.0000
# 2 72.9966 113.7332 54.6499 0.0000 0.0000 0.0000
# 3 60.5613 54.6499 88.0814 0.0000 0.0000 0.0000
# 4 0.0000 0.0000 0.0000 30.9128 0.0000 0.0000
# 5 0.0000 0.0000 0.0000 0.0000 22.9561 0.0000
# 6 0.0000 0.0000 0.0000 0.0000 0.0000 16.3868
#
#
#
# Elastic Compliance Matrix: (Units=1/GPa)
#
#
# Indices 1 2 3 4 5 6 
#
# 1 0.015061 -0.006683 -0.006209 0.000000 0.000000 0.000000
# 2 -0.006683 0.015493 -0.005017 0.000000 0.000000 0.000000
# 3 -0.006209 -0.005017 0.018735 0.000000 0.000000 0.000000
# 4 0.000000 0.000000 0.000000 0.032349 0.000000 0.000000
# 5 0.000000 0.000000 0.000000 0.000000 0.043561 0.000000
# 6 0.000000 0.000000 0.000000 0.000000 0.000000 0.061025
#
#
# Mechanical properties :
#
#
# Convention : Reuss Voigt Hill
#
# Bulk Modulus (GPa) = 74.23797 77.99834 76.11815
# Shear Modulus (GPa) = 22.07191 23.20859 22.64025
#
# Velocity S-wave (km/s) = 3.58860 3.67984 3.63451
# Velocity P-wave (km/s) = 7.77724 7.97269 7.87557
#
# Compressibility (1/GPa) = 0.01347020
#
# Stress axis : x y z
#
# Youngs Moduli (GPa) = 66.39760 64.54633 53.37574
#
# Poissons Ratio (x) = 0.43136 0.33140
# Poissons Ratio (y) = 0.44373 0.26781
# Poissons Ratio (z) = 0.41225 0.32386
#
# Static dielectric constant tensor:
#      x y z
#    x 1.579330 0.000000 0.000000 
#    y 0.000000 1.560030 0.000000 
#    z 0.000000 0.000000 1.579940 
# 
# From -- ./inp_files/12987.got.cif
#   From: 2010.05.17/outbox.cif.g08.bks.cpg/sg71_7_cif.got.tgz:12987.got - 2010.06.03 16:22:01.
