data_PCOD9521497
_publ_section_title
;
Structure prediction by ZEFSAII (Michael W. Deem and Ramdas Pophale) SiO2 
 PCOD9521497
Probable space group: I M M M
;
_chemical_formula_sum "Si O2"
_cell_formula_units_Z 88
_cell_length_a 8.320506
_cell_length_b 21.940830
_cell_length_c 24.526015
_cell_angle_alpha 90.000000
_cell_angle_beta 90.000000
_cell_angle_gamma 90.000000
_cell_volume 4477.440055
_symmetry_space_group_name_H-M "I M M M"
_symmetry_group_IT_number 71
_symmetry_cell_setting 'orthorhombic'
loop_
_space_group_symop_operation_xyz
x,y,z
-x,-y,z
x,-y,-z
-x,y,-z
-x,-y,-z
x,y,-z
-x,y,z
x,-y,z
1/2+x,1/2+y,1/2+z
1/2-x,1/2-y,1/2+z
1/2+x,1/2-y,1/2-z
1/2-x,1/2+y,1/2-z
1/2-x,1/2-y,1/2-z
1/2+x,1/2+y,1/2-z
1/2-x,1/2+y,1/2+z
1/2+x,1/2-y,1/2+z
loop_
_atom_site_type_symbol
_atom_site_label
_atom_site_fract_x
_atom_site_fract_y
_atom_site_fract_z
Si Si1 0.316307 0.803739 0.787272
Si Si2 0.178644 0.364131 0.935682
Si Si3 0.193410 0.433662 0.320406
Si Si4 0.809153 0.905293 0.940890
Si Si5 0.314315 0.726943 0.599233
Si Si6 0.000000 0.071255 0.566444
O O1 0.500000 0.811560 0.770925
O O2 0.250000 0.750000 0.750000
O O3 0.242615 0.872370 0.790690
O O4 0.299535 0.780083 0.849066
O O5 0.204115 0.291817 0.929017
O O6 0.334919 0.398193 0.912976
O O7 0.000000 0.378912 0.912721
O O8 0.171647 0.378290 0.000000
O O9 0.251819 0.500000 0.300862
O O10 0.232749 0.428655 0.384941
O O11 0.000000 0.432494 0.315453
O O12 0.790225 0.831936 0.938118
O O13 0.000000 0.918646 0.938413
O O14 0.748422 0.926772 0.000000
O O15 0.500000 0.723435 0.619109
O O16 0.000000 0.078276 0.500000
O O17 0.000000 0.000000 0.578453
#
# Coordination Sequence:
#
# PCOD9521497 Si02
#       6
#    16  16  16  16  16   8
#     4  10  20  34  54  77  99 125 164 214 266 314
#     4   9  17  29  47  71  99 133 170 208 255 309
#     4   9  19  35  52  72 101 137 174 210 252 306
#     4   9  17  29  46  71 105 141 174 209 247 290
#     4   9  17  30  49  72  99 129 164 207 258 305
#     4   9  18  30  44  66  96 130 169 211 251 299
#
# _framework density 19.654088999999999
#
# number of rings (size 3 to 8) (size 9 to 14) (size 15 to 20)
#    0.000    2.818    0.000    1.091    1.273    4.364 
#    0.000    3.636    0.000    1.091    0.000    2.545 
#    0.000    0.000    0.000    0.000    0.000    0.000 
#
# Total GULP energy -244996.898703 kJ/mol
# GULP energy per Si atom -5568.111334 kJ/mol
# Density = 1.960936 g / cm^3
# Si number density = 19.654089 Si / 1000 Ang^3
#
#
#
# Elastic Constant Matrix: (Units=GPa)
#
#
# Indices 1 2 3 4 5 6 
#
# 1 60.1373 60.3874 1.8437 0.0000 0.0000 0.0000
# 2 60.3874 134.9702 29.5275 0.0000 0.0000 0.0000
# 3 1.8437 29.5275 39.4420 0.0000 0.0000 0.0000
# 4 0.0000 0.0000 0.0000 -0.0472 0.0000 0.0000
# 5 0.0000 0.0000 0.0000 0.0000 19.7279 0.0000
# 6 0.0000 0.0000 0.0000 0.0000 0.0000 19.9116
#
#
#
# Elastic Compliance Matrix: (Units=1/GPa)
#
#
# Indices 1 2 3 4 5 6 
#
# 1 0.034245 -0.017904 0.011803 0.000000 0.000000 0.000000
# 2 -0.017904 0.018220 -0.012803 0.000000 0.000000 0.000000
# 3 0.011803 -0.012803 0.034387 -0.000001 0.000000 0.000000
# 4 0.000000 0.000000 -0.000001-21.172469 0.000000 0.000000
# 5 0.000000 0.000000 0.000000 0.000000 0.050690 0.000000
# 6 0.000000 0.000000 0.000000 0.000000 0.000000 0.050222
#
#
# Mechanical properties :
#
#
# Convention : Reuss Voigt Hill
#
# Bulk Modulus (GPa) = 20.39021 46.45185 33.42103
# Shear Modulus (GPa) = -0.23889 17.43784 8.59948
#
# Velocity S-wave (km/s) = -0.34901 2.98188 2.09402
# Velocity P-wave (km/s) = 3.19916 5.96167 4.78415
#
# Compressibility (1/GPa) = 0.04904315
#
# Stress axis : x y z
#
# Youngs Moduli (GPa) = 29.20148 54.88363 29.08064
#
# Poissons Ratio (x) = 0.98262 -0.34322
# Poissons Ratio (y) = 0.52281 0.37233
# Poissons Ratio (z) = -0.34465 0.70270
#
# Static dielectric constant tensor:
#      x y z
#    x 1.743660 0.000000 0.000000 
#    y 0.000000 1.724890 0.000000 
#    z 0.000000 0.000000 1.672390 
# 
# From -- ./inp_files/57563.got.cif
#   From: 2010.05.17/outbox.cif.g08.bks.cpg/sg71_29_cif.got.tgz:57563.got - 2010.06.03 16:22:01.
