data_PCOD9521569
_publ_section_title
;
Structure prediction by ZEFSAII (Michael W. Deem and Ramdas Pophale) SiO2 
 PCOD9521569
Probable space group: I M M M
;
_chemical_formula_sum "Si O2"
_cell_formula_units_Z 104
_cell_length_a 8.511200
_cell_length_b 24.007080
_cell_length_c 27.686031
_cell_angle_alpha 90.000000
_cell_angle_beta 90.000000
_cell_angle_gamma 90.000000
_cell_volume 5657.060670
_symmetry_space_group_name_H-M "I M M M"
_symmetry_group_IT_number 71
_symmetry_cell_setting 'orthorhombic'
loop_
_space_group_symop_operation_xyz
x,y,z
-x,-y,z
x,-y,-z
-x,y,-z
-x,-y,-z
x,y,-z
-x,y,z
x,-y,z
1/2+x,1/2+y,1/2+z
1/2-x,1/2-y,1/2+z
1/2+x,1/2-y,1/2-z
1/2-x,1/2+y,1/2-z
1/2-x,1/2-y,1/2-z
1/2+x,1/2+y,1/2-z
1/2-x,1/2+y,1/2+z
1/2+x,1/2-y,1/2+z
loop_
_atom_site_type_symbol
_atom_site_label
_atom_site_fract_x
_atom_site_fract_y
_atom_site_fract_z
Si Si1 0.189333 0.115656 0.145038
Si Si2 0.313985 0.285984 0.879397
Si Si3 0.811841 0.000000 0.707391
Si Si4 0.687058 0.000000 0.817208
Si Si5 0.681705 0.715595 0.293907
Si Si6 0.310539 0.090150 0.367633
Si Si7 0.688299 0.186349 0.054671
Si Si8 0.309618 0.000000 0.554085
O O1 0.256539 0.054826 0.154361
O O2 0.247543 0.155935 0.188953
O O3 0.240352 0.145238 0.095051
O O4 0.000000 0.114019 0.146317
O O5 0.500000 0.280201 0.868268
O O6 0.210472 0.254106 0.840066
O O7 0.265848 0.349911 0.875516
O O8 0.284892 0.250379 0.928109
O O9 0.758327 0.000000 0.763009
O O10 0.747523 0.054351 0.678532
O O11 0.000000 0.000000 0.705046
O O12 0.500000 0.000000 0.813259
O O13 0.500000 0.706991 0.283509
O O14 0.750000 0.750000 0.250000
O O15 0.500000 0.094841 0.364830
O O16 0.266083 0.053227 0.414204
O O17 0.500000 0.177985 0.055374
O O18 0.745264 0.177228 0.000000
O O19 0.500000 0.000000 0.551797
O O20 0.247145 0.000000 0.500000
#
# Coordination Sequence:
#
# PCOD9521569 Si02
#       8
#    16  16   8   8  16  16  16   8
#     4  10  22  40  60  87 119 151 192 241 290 342
#     4  10  20  34  54  81 114 149 188 232 281 335
#     4  11  23  39  58  79 110 152 196 242 292 344
#     4  12  25  41  63  87 116 154 194 237 290 349
#     4  10  21  36  56  81 113 149 187 230 281 337
#     4  10  20  35  54  79 112 148 193 240 286 342
#     4   9  19  38  62  87 118 155 193 236 290 349
#     4   8  16  32  52  73 101 140 185 236 288 333
#
# _framework density 18.384105999999999
#
# number of rings (size 3 to 8) (size 9 to 14) (size 15 to 20)
#    0.000    2.077    0.000    3.692    2.154    3.385 
#    0.000    0.385    0.000   10.154    0.000    0.000 
#    0.000    0.000    0.000    0.000    0.000    0.000 
#
# Total GULP energy -290007.907644 kJ/mol
# GULP energy per Si atom -5577.075147 kJ/mol
# Density = 1.834226 g / cm^3
# Si number density = 18.384106 Si / 1000 Ang^3
#
#
#
# Elastic Constant Matrix: (Units=GPa)
#
#
# Indices 1 2 3 4 5 6 
#
# 1 43.4083 13.7200 19.7987 0.0000 0.0000 0.0000
# 2 13.7200 145.0571 44.0232 0.0000 0.0000 0.0000
# 3 19.7987 44.0232 103.9440 0.0000 0.0000 0.0000
# 4 0.0000 0.0000 0.0000 11.3951 0.0000 0.0000
# 5 0.0000 0.0000 0.0000 0.0000 21.5445 0.0000
# 6 0.0000 0.0000 0.0000 0.0000 0.0000 28.6086
#
#
#
# Elastic Compliance Matrix: (Units=1/GPa)
#
#
# Indices 1 2 3 4 5 6 
#
# 1 0.025373 -0.001071 -0.004379 0.000000 0.000000 0.000000
# 2 -0.001071 0.007956 -0.003166 0.000000 0.000000 0.000000
# 3 -0.004379 -0.003166 0.011795 0.000000 0.000000 0.000000
# 4 0.000000 0.000000 0.000000 0.087757 0.000000 0.000000
# 5 0.000000 0.000000 0.000000 0.000000 0.046415 0.000000
# 6 0.000000 0.000000 0.000000 0.000000 0.000000 0.034955
#
#
# Mechanical properties :
#
#
# Convention : Reuss Voigt Hill
#
# Bulk Modulus (GPa) = 35.85160 49.72147 42.78654
# Shear Modulus (GPa) = 20.76579 26.63413 23.69996
#
# Velocity S-wave (km/s) = 3.36453 3.81039 3.59438
# Velocity P-wave (km/s) = 5.88533 6.81640 6.36791
#
# Compressibility (1/GPa) = 0.02789276
#
# Stress axis : x y z
#
# Youngs Moduli (GPa) = 39.41200 125.69400 84.77851
#
# Poissons Ratio (x) = 0.13459 0.37128
# Poissons Ratio (y) = 0.04220 0.26837
# Poissons Ratio (z) = 0.17260 0.39789
#
# Static dielectric constant tensor:
#      x y z
#    x 1.627720 0.000000 0.000000 
#    y 0.000000 1.623430 0.000000 
#    z 0.000000 0.000000 1.641030 
# 
# From -- ./inp_files/63365.got.cif
#   From: 2010.05.17/outbox.cif.g08.bks.cpg/sg71_32_cif.got.tgz:63365.got - 2010.06.03 16:22:01.
