data_PCOD9521147
_publ_section_title
;
Structure prediction by ZEFSAII (Michael W. Deem and Ramdas Pophale) SiO2 
 PCOD9521147
Probable space group: I M M M
;
_chemical_formula_sum "Si O2"
_cell_formula_units_Z 104
_cell_length_a 21.749396
_cell_length_b 8.488742
_cell_length_c 29.725965
_cell_angle_alpha 90.000000
_cell_angle_beta 90.000000
_cell_angle_gamma 90.000000
_cell_volume 5488.156624
_symmetry_space_group_name_H-M "I M M M"
_symmetry_group_IT_number 71
_symmetry_cell_setting 'orthorhombic'
loop_
_space_group_symop_operation_xyz
x,y,z
-x,-y,z
x,-y,-z
-x,y,-z
-x,-y,-z
x,y,-z
-x,y,z
x,-y,z
1/2+x,1/2+y,1/2+z
1/2-x,1/2-y,1/2+z
1/2+x,1/2-y,1/2-z
1/2-x,1/2+y,1/2-z
1/2-x,1/2-y,1/2-z
1/2+x,1/2+y,1/2-z
1/2-x,1/2+y,1/2+z
1/2+x,1/2-y,1/2+z
loop_
_atom_site_type_symbol
_atom_site_label
_atom_site_fract_x
_atom_site_fract_y
_atom_site_fract_z
Si Si1 0.070230 0.315625 0.081016
Si Si2 0.266776 0.319207 0.120851
Si Si3 0.293813 0.313051 0.710566
Si Si4 0.631795 0.689006 0.948053
Si Si5 0.429751 0.308991 0.316980
Si Si6 0.500000 0.821554 0.945770
Si Si7 0.186738 0.177563 0.050453
O O1 0.085510 0.500000 0.075692
O O2 0.075480 0.266142 0.133456
O O3 0.114562 0.204899 0.052949
O O4 0.000000 0.294493 0.067676
O O5 0.279946 0.500000 0.133195
O O6 0.240641 0.232235 0.164255
O O7 0.323423 0.251139 0.091414
O O8 0.213665 0.305723 0.083786
O O9 0.296232 0.500000 0.714701
O O10 0.250000 0.250000 0.750000
O O11 0.366288 0.259859 0.708684
O O12 0.639231 0.500000 0.949537
O O13 0.562547 0.732413 0.934583
O O14 0.642606 0.746136 0.000000
O O15 0.500000 0.269782 0.300093
O O16 0.427823 0.500000 0.320806
O O17 0.500000 0.000000 0.928235
O O18 0.500000 0.829716 0.000000
O O19 0.202007 0.000000 0.065588
O O20 0.209666 0.198769 0.000000
#
# Coordination Sequence:
#
# PCOD9521147 Si02
#       7
#    16  16  16  16  16   8  16
#     4  10  20  33  52  78 107 143 188 236 282 327
#     4  11  22  37  58  83 113 147 188 235 283 334
#     4  11  23  39  62  89 117 148 187 233 287 346
#     4   9  18  33  54  80 111 149 190 230 276 334
#     4   9  18  35  60  86 112 145 186 231 280 339
#     4   9  17  29  49  79 111 145 187 233 277 327
#     4  11  23  36  51  75 110 152 193 232 279 334
#
# _framework density 18.949895999999999
#
# number of rings (size 3 to 8) (size 9 to 14) (size 15 to 20)
#    0.000    1.923    1.538    2.538    0.000    5.846 
#    0.000    3.077    1.692    0.000    0.000    0.000 
#    0.000    0.000    0.000    0.000    0.000    0.000 
#
# Total GULP energy -289733.600948 kJ/mol
# GULP energy per Si atom -5571.800018 kJ/mol
# Density = 1.890677 g / cm^3
# Si number density = 18.949896 Si / 1000 Ang^3
#
#
#
# Elastic Constant Matrix: (Units=GPa)
#
#
# Indices 1 2 3 4 5 6 
#
# 1 144.2737 15.2425 52.0329 0.0000 0.0000 0.0000
# 2 15.2425 17.6870 12.8965 0.0000 0.0000 0.0000
# 3 52.0329 12.8965 64.8912 0.0000 0.0000 0.0000
# 4 0.0000 0.0000 0.0000 13.8959 0.0000 0.0000
# 5 0.0000 0.0000 0.0000 0.0000 30.6536 0.0000
# 6 0.0000 0.0000 0.0000 0.0000 0.0000 23.5116
#
#
#
# Elastic Compliance Matrix: (Units=1/GPa)
#
#
# Indices 1 2 3 4 5 6 
#
# 1 0.009905 -0.003210 -0.007304 0.000000 0.000000 0.000000
# 2 -0.003210 0.067161 -0.010774 0.000000 0.000000 0.000000
# 3 -0.007304 -0.010774 0.023408 0.000000 0.000000 0.000000
# 4 0.000000 0.000000 0.000000 0.071964 0.000000 0.000000
# 5 0.000000 0.000000 0.000000 0.000000 0.032623 0.000000
# 6 0.000000 0.000000 0.000000 0.000000 0.000000 0.042532
#
#
# Mechanical properties :
#
#
# Convention : Reuss Voigt Hill
#
# Bulk Modulus (GPa) = 17.27168 43.02175 30.14672
# Shear Modulus (GPa) = 16.15683 23.39088 19.77385
#
# Velocity S-wave (km/s) = 2.92311 3.51715 3.23380
# Velocity P-wave (km/s) = 4.53067 6.26466 5.46685
#
# Compressibility (1/GPa) = 0.05789823
#
# Stress axis : x y z
#
# Youngs Moduli (GPa) = 100.96277 14.88970 42.71990
#
# Poissons Ratio (x) = 0.04780 0.31203
# Poissons Ratio (y) = 0.32409 0.46025
# Poissons Ratio (z) = 0.73744 0.16042
#
# Static dielectric constant tensor:
#      x y z
#    x 1.741080 0.000000 0.000000 
#    y 0.000000 1.656690 0.000000 
#    z 0.000000 0.000000 1.636000 
# 
# From -- ./inp_files/70717.got.cif
#   From: 2010.05.17/outbox.cif.g08.bks.cpg/sg71_36_cif.got.tgz:70717.got - 2010.06.03 16:22:01.
