data_PCOD9521963
_publ_section_title
;
Structure prediction by ZEFSAII (Michael W. Deem and Ramdas Pophale) SiO2 
 PCOD9521963
Probable space group: I M M M
;
_chemical_formula_sum "Si O2"
_cell_formula_units_Z 104
_cell_length_a 26.854056
_cell_length_b 22.754132
_cell_length_c 8.152904
_cell_angle_alpha 90.000000
_cell_angle_beta 90.000000
_cell_angle_gamma 90.000000
_cell_volume 4981.756452
_symmetry_space_group_name_H-M "I M M M"
_symmetry_group_IT_number 71
_symmetry_cell_setting 'orthorhombic'
loop_
_space_group_symop_operation_xyz
x,y,z
-x,-y,z
x,-y,-z
-x,y,-z
-x,-y,-z
x,y,-z
-x,y,z
x,-y,z
1/2+x,1/2+y,1/2+z
1/2-x,1/2-y,1/2+z
1/2+x,1/2-y,1/2-z
1/2-x,1/2+y,1/2-z
1/2-x,1/2-y,1/2-z
1/2+x,1/2+y,1/2-z
1/2-x,1/2+y,1/2+z
1/2+x,1/2-y,1/2+z
loop_
_atom_site_type_symbol
_atom_site_label
_atom_site_fract_x
_atom_site_fract_y
_atom_site_fract_z
Si Si1 0.230025 0.685872 0.696468
Si Si2 0.881317 0.330371 0.695206
Si Si3 0.445407 0.067853 0.697507
Si Si4 0.000000 0.069068 0.186241
Si Si5 0.287486 0.566762 0.806130
Si Si6 0.105530 0.107632 0.195136
Si Si7 0.057320 0.221088 0.698894
O O1 0.229651 0.686774 0.500000
O O2 0.250000 0.750000 0.750000
O O3 0.173574 0.680745 0.762445
O O4 0.259398 0.625675 0.742894
O O5 0.878186 0.322496 0.500000
O O6 0.900954 0.394523 0.733330
O O7 0.923515 0.284835 0.752489
O O8 0.444482 0.070861 0.500000
O O9 0.500000 0.089681 0.753333
O O10 0.441476 0.000000 0.744509
O O11 0.052537 0.085186 0.264840
O O12 0.000000 0.000000 0.170582
O O13 0.000000 0.094876 0.000000
O O14 0.275149 0.500000 0.741975
O O15 0.345919 0.579071 0.772086
O O16 0.278907 0.565188 0.000000
O O17 0.098373 0.176456 0.230192
O O18 0.107560 0.095922 0.000000
O O19 0.057743 0.216873 0.500000
O O20 0.000000 0.209446 0.751758
#
# Coordination Sequence:
#
# PCOD9521963 Si02
#       7
#    16  16  16   8  16  16  16
#     4  11  24  43  67  94 125 161 206 261 318 378
#     4  10  22  38  58  86 116 150 194 244 297 354
#     4   9  19  36  57  84 119 156 193 236 288 348
#     4   9  18  32  51  79 115 149 184 231 284 343
#     4  11  25  44  65  90 123 164 212 264 316 373
#     4  11  21  36  59  87 120 157 199 246 300 360
#     4  10  20  35  56  84 123 163 197 241 297 358
#
# _framework density 20.876172
#
# number of rings (size 3 to 8) (size 9 to 14) (size 15 to 20)
#    0.000    1.769    0.769    3.692    0.000    6.769 
#    0.000    3.846    0.000    1.846    0.000    0.000 
#    0.000    0.000    0.000    0.000    0.000    0.000 
#
# Total GULP energy -290041.713248 kJ/mol
# GULP energy per Si atom -5577.725255 kJ/mol
# Density = 2.082866 g / cm^3
# Si number density = 20.876172 Si / 1000 Ang^3
#
#
#
# Elastic Constant Matrix: (Units=GPa)
#
#
# Indices 1 2 3 4 5 6 
#
# 1 105.2381 64.8384 11.5013 0.0000 0.0000 0.0000
# 2 64.8384 129.4083 15.2027 0.0000 0.0000 0.0000
# 3 11.5013 15.2027 25.1456 0.0000 0.0000 0.0000
# 4 0.0000 0.0000 0.0000 28.1842 0.0000 0.0000
# 5 0.0000 0.0000 0.0000 0.0000 25.1806 0.0000
# 6 0.0000 0.0000 0.0000 0.0000 0.0000 30.1932
#
#
#
# Elastic Compliance Matrix: (Units=1/GPa)
#
#
# Indices 1 2 3 4 5 6 
#
# 1 0.013869 -0.006678 -0.002306 0.000000 0.000000 0.000000
# 2 -0.006678 0.011534 -0.003919 0.000000 0.000000 0.000000
# 3 -0.002306 -0.003919 0.043192 0.000000 0.000000 0.000000
# 4 0.000000 0.000000 0.000000 0.035481 0.000000 0.000000
# 5 0.000000 0.000000 0.000000 0.000000 0.039713 0.000000
# 6 0.000000 0.000000 0.000000 0.000000 0.000000 0.033120
#
#
# Mechanical properties :
#
#
# Convention : Reuss Voigt Hill
#
# Bulk Modulus (GPa) = 23.37022 49.20853 36.28938
# Shear Modulus (GPa) = 23.04393 27.92823 25.48608
#
# Velocity S-wave (km/s) = 3.32601 3.66157 3.49782
# Velocity P-wave (km/s) = 5.09596 6.44196 5.80808
#
# Compressibility (1/GPa) = 0.04278950
#
# Stress axis : x y z
#
# Youngs Moduli (GPa) = 72.10570 86.70275 23.15222
#
# Poissons Ratio (x) = 0.57898 0.05339
# Poissons Ratio (y) = 0.48150 0.09073
# Poissons Ratio (z) = 0.16628 0.33977
#
# Static dielectric constant tensor:
#      x y z
#    x 1.775930 0.000000 0.000000 
#    y 0.000000 1.797720 0.000000 
#    z 0.000000 0.000000 1.749460 
# 
# From -- ./inp_files/15042.got.cif
#   From: 2010.05.17/outbox.cif.g08.bks.cpg/sg71_8_cif.got.tgz:15042.got - 2010.06.03 16:22:01.
