data_PCOD9521179
_publ_section_title
;
Structure prediction by ZEFSAII (Michael W. Deem and Ramdas Pophale) SiO2 
 PCOD9521179
Probable space group: I M M M
;
_chemical_formula_sum "Si O2"
_cell_formula_units_Z 88
_cell_length_a 25.317839
_cell_length_b 20.336719
_cell_length_c 7.790966
_cell_angle_alpha 90.000000
_cell_angle_beta 90.000000
_cell_angle_gamma 90.000000
_cell_volume 4011.426422
_symmetry_space_group_name_H-M "I M M M"
_symmetry_group_IT_number 71
_symmetry_cell_setting 'orthorhombic'
loop_
_space_group_symop_operation_xyz
x,y,z
-x,-y,z
x,-y,-z
-x,y,-z
-x,-y,-z
x,y,-z
-x,y,z
x,-y,z
1/2+x,1/2+y,1/2+z
1/2-x,1/2-y,1/2+z
1/2+x,1/2-y,1/2-z
1/2-x,1/2+y,1/2-z
1/2-x,1/2-y,1/2-z
1/2+x,1/2+y,1/2-z
1/2-x,1/2+y,1/2+z
1/2+x,1/2-y,1/2+z
loop_
_atom_site_type_symbol
_atom_site_label
_atom_site_fract_x
_atom_site_fract_y
_atom_site_fract_z
Si Si1 0.061553 0.000000 0.289127
Si Si2 0.828688 0.570908 0.292522
Si Si3 0.367454 0.621807 0.799896
Si Si4 0.758473 0.825705 0.701524
Si Si5 0.557665 0.892173 0.797104
Si Si6 0.440301 0.739818 0.705562
O O1 0.094952 0.936089 0.230102
O O2 0.059671 0.000000 0.500000
O O3 0.000000 0.000000 0.233270
O O4 0.830534 0.572399 0.500000
O O5 0.806416 0.500000 0.238805
O O6 0.793036 0.631309 0.237249
O O7 0.888767 0.577002 0.227360
O O8 0.309940 0.637444 0.720817
O O9 0.399075 0.689940 0.785111
O O10 0.360071 0.604199 0.000000
O O11 0.767904 0.824382 0.500000
O O12 0.750000 0.750000 0.750000
O O13 0.500000 0.910377 0.724082
O O14 0.563914 0.813699 0.775069
O O15 0.555927 0.907525 0.000000
O O16 0.433358 0.741863 0.500000
O O17 0.500000 0.716621 0.742790
#
# Coordination Sequence:
#
# PCOD9521179 Si02
#       6
#     8  16  16  16  16  16
#     4   9  18  34  57  83 109 139 182 235 286 340
#     4  10  22  39  59  85 118 152 190 236 289 349
#     4  10  21  36  57  81 107 145 191 237 284 341
#     4  11  24  40  61  86 116 153 198 248 294 349
#     4   9  18  34  57  83 111 146 189 234 280 334
#     4  10  20  33  52  81 115 147 182 230 286 341
#
# _framework density 21.937332999999999
#
# number of rings (size 3 to 8) (size 9 to 14) (size 15 to 20)
#    0.000    2.091    0.000    2.727    1.273    9.091 
#    0.000    2.273    0.000    1.636    0.000    3.818 
#    0.000    0.000    0.000    0.000    0.000    0.000 
#
# Total GULP energy -245674.938609 kJ/mol
# GULP energy per Si atom -5583.521332 kJ/mol
# Density = 2.188740 g / cm^3
# Si number density = 21.937333 Si / 1000 Ang^3
#
#
#
# Elastic Constant Matrix: (Units=GPa)
#
#
# Indices 1 2 3 4 5 6 
#
# 1 157.8141 79.7747 9.0941 0.0000 0.0000 0.0000
# 2 79.7747 125.9491 -0.4716 0.0000 0.0000 0.0000
# 3 9.0941 -0.4716 28.3849 0.0000 0.0000 0.0000
# 4 0.0000 0.0000 0.0000 5.3345 0.0000 0.0000
# 5 0.0000 0.0000 0.0000 0.0000 19.6625 0.0000
# 6 0.0000 0.0000 0.0000 0.0000 0.0000 38.4890
#
#
#
# Elastic Compliance Matrix: (Units=1/GPa)
#
#
# Indices 1 2 3 4 5 6 
#
# 1 0.009599 -0.006092 -0.003177 0.000000 0.000000 0.000000
# 2 -0.006092 0.011806 0.002148 0.000000 0.000000 0.000000
# 3 -0.003177 0.002148 0.036283 0.000000 0.000000 0.000000
# 4 0.000000 0.000000 0.000000 0.187460 0.000000 0.000000
# 5 0.000000 0.000000 0.000000 0.000000 0.050858 0.000000
# 6 0.000000 0.000000 0.000000 0.000000 0.000000 0.025981
#
#
# Mechanical properties :
#
#
# Convention : Reuss Voigt Hill
#
# Bulk Modulus (GPa) = 23.01621 54.32695 38.67158
# Shear Modulus (GPa) = 14.25670 27.61390 20.93530
#
# Velocity S-wave (km/s) = 2.55205 3.55175 3.09256
# Velocity P-wave (km/s) = 4.38161 6.45278 5.51529
#
# Compressibility (1/GPa) = 0.04344765
#
# Stress axis : x y z
#
# Youngs Moduli (GPa) = 104.17727 84.70095 27.56079
#
# Poissons Ratio (x) = 0.51598 0.08755
# Poissons Ratio (y) = 0.63463 -0.05920
# Poissons Ratio (z) = 0.33093 -0.18193
#
# Static dielectric constant tensor:
#      x y z
#    x 1.852240 0.000000 0.000000 
#    y 0.000000 1.739880 0.000000 
#    z 0.000000 0.000000 1.835400 
# 
# From -- ./inp_files/10391.got.cif
#   From: 2010.05.17/outbox.cif.g08.bks.cpg/sg71_6_cif.got.tgz:10391.got - 2010.06.03 16:22:01.
