data_PCOD9521668
_publ_section_title
;
Structure prediction by ZEFSAII (Michael W. Deem and Ramdas Pophale) SiO2 
 PCOD9521668
Probable space group: I M M M
;
_chemical_formula_sum "Si O2"
_cell_formula_units_Z 88
_cell_length_a 13.416692
_cell_length_b 12.739320
_cell_length_c 22.985500
_cell_angle_alpha 90.000000
_cell_angle_beta 90.000000
_cell_angle_gamma 90.000000
_cell_volume 3928.670920
_symmetry_space_group_name_H-M "I M M M"
_symmetry_group_IT_number 71
_symmetry_cell_setting 'orthorhombic'
loop_
_space_group_symop_operation_xyz
x,y,z
-x,-y,z
x,-y,-z
-x,y,-z
-x,-y,-z
x,y,-z
-x,y,z
x,-y,z
1/2+x,1/2+y,1/2+z
1/2-x,1/2-y,1/2+z
1/2+x,1/2-y,1/2-z
1/2-x,1/2+y,1/2-z
1/2-x,1/2-y,1/2-z
1/2+x,1/2+y,1/2-z
1/2-x,1/2+y,1/2+z
1/2+x,1/2-y,1/2+z
loop_
_atom_site_type_symbol
_atom_site_label
_atom_site_fract_x
_atom_site_fract_y
_atom_site_fract_z
Si Si1 0.679000 0.614244 0.736142
Si Si2 0.387548 0.162430 0.718021
Si Si3 0.384339 0.889960 0.415170
Si Si4 0.749727 0.297153 0.564633
Si Si5 0.617849 0.621367 0.128143
Si Si6 0.379579 0.500000 0.571369
O O1 0.651191 0.500000 0.713416
O O2 0.628168 0.713727 0.707386
O O3 0.798961 0.627969 0.739173
O O4 0.644916 0.620930 0.803553
O O5 0.500000 0.141229 0.738338
O O6 0.372585 0.112404 0.654889
O O7 0.500000 0.888421 0.427249
O O8 0.336700 0.788180 0.440354
O O9 0.342491 0.000000 0.436350
O O10 0.790350 0.322359 0.500000
O O11 0.828137 0.223700 0.600344
O O12 0.690638 0.399506 0.588197
O O13 0.500000 0.634050 0.120960
O O14 0.641131 0.500000 0.107876
O O15 0.500000 0.500000 0.588625
O O16 0.382785 0.500000 0.500000
#
# Coordination Sequence:
#
# PCOD9521668 Si02
#       6
#    16  16  16  16  16   8
#     4  10  20  37  59  83 116 156 195 236 290 354
#     4  10  20  34  55  84 115 149 191 237 289 350
#     4  10  20  35  56  84 118 152 188 237 299 357
#     4  11  22  38  60  86 117 155 201 245 291 352
#     4  10  21  38  61  89 123 160 199 250 305 351
#     4   9  20  40  63  85 115 155 194 240 301 361
#
# _framework density 22.399432999999998
#
# number of rings (size 3 to 8) (size 9 to 14) (size 15 to 20)
#    0.000    1.909    1.818    2.182    0.000    5.091 
#    1.636    2.273    2.000    1.636    0.000    0.000 
#    0.000    0.000    0.000    0.000    0.000    0.000 
#
# Total GULP energy -245438.592619 kJ/mol
# GULP energy per Si atom -5578.149832 kJ/mol
# Density = 2.234845 g / cm^3
# Si number density = 22.399433 Si / 1000 Ang^3
#
#
#
# Elastic Constant Matrix: (Units=GPa)
#
#
# Indices 1 2 3 4 5 6 
#
# 1 128.2354 48.9235 25.2104 0.0000 0.0000 0.0000
# 2 48.9235 211.8092 35.1384 0.0000 0.0000 0.0000
# 3 25.2104 35.1384 47.6617 0.0000 0.0000 0.0000
# 4 0.0000 0.0000 0.0000 23.3937 0.0000 0.0000
# 5 0.0000 0.0000 0.0000 0.0000 10.5322 0.0000
# 6 0.0000 0.0000 0.0000 0.0000 0.0000 28.9690
#
#
#
# Elastic Compliance Matrix: (Units=1/GPa)
#
#
# Indices 1 2 3 4 5 6 
#
# 1 0.009095 -0.001484 -0.003717 0.000000 0.000000 0.000000
# 2 -0.001484 0.005621 -0.003359 0.000000 0.000000 0.000000
# 3 -0.003717 -0.003359 0.025424 0.000000 0.000000 0.000000
# 4 0.000000 0.000000 0.000000 0.042747 0.000000 0.000000
# 5 0.000000 0.000000 0.000000 0.000000 0.094946 0.000000
# 6 0.000000 0.000000 0.000000 0.000000 0.000000 0.034520
#
#
# Mechanical properties :
#
#
# Convention : Reuss Voigt Hill
#
# Bulk Modulus (GPa) = 43.44042 67.36122 55.40082
# Shear Modulus (GPa) = 21.08405 31.14126 26.11266
#
# Velocity S-wave (km/s) = 3.07135 3.73268 3.41805
# Velocity P-wave (km/s) = 5.65802 6.97963 6.35328
#
# Compressibility (1/GPa) = 0.02302004
#
# Stress axis : x y z
#
# Youngs Moduli (GPa) = 109.94985 177.89358 39.33341
#
# Poissons Ratio (x) = 0.26403 0.14619
# Poissons Ratio (y) = 0.16319 0.13213
# Poissons Ratio (z) = 0.40864 0.59759
#
# Static dielectric constant tensor:
#      x y z
#    x 1.828870 0.000000 0.000000 
#    y 0.000000 1.840680 0.000000 
#    z 0.000000 0.000000 1.884400 
# 
# From -- ./inp_files/65339.got.cif
#   From: 2010.05.17/outbox.cif.g08.bks.cpg/sg71_33_cif.got.tgz:65339.got - 2010.06.03 16:22:01.
