data_PCOD9521924
_publ_section_title
;
Structure prediction by ZEFSAII (Michael W. Deem and Ramdas Pophale) SiO2 
 PCOD9521924
Probable space group: I M M M
;
_chemical_formula_sum "Si O2"
_cell_formula_units_Z 104
_cell_length_a 25.798365
_cell_length_b 20.541224
_cell_length_c 8.577179
_cell_angle_alpha 90.000000
_cell_angle_beta 90.000000
_cell_angle_gamma 90.000000
_cell_volume 4545.304419
_symmetry_space_group_name_H-M "I M M M"
_symmetry_group_IT_number 71
_symmetry_cell_setting 'orthorhombic'
loop_
_space_group_symop_operation_xyz
x,y,z
-x,-y,z
x,-y,-z
-x,y,-z
-x,-y,-z
x,y,-z
-x,y,z
x,-y,z
1/2+x,1/2+y,1/2+z
1/2-x,1/2-y,1/2+z
1/2+x,1/2-y,1/2-z
1/2-x,1/2+y,1/2-z
1/2-x,1/2-y,1/2-z
1/2+x,1/2+y,1/2-z
1/2-x,1/2+y,1/2+z
1/2+x,1/2-y,1/2+z
loop_
_atom_site_type_symbol
_atom_site_label
_atom_site_fract_x
_atom_site_fract_y
_atom_site_fract_z
Si Si1 0.720485 0.075388 0.184807
Si Si2 0.667897 0.577350 0.823052
Si Si3 0.444389 0.613055 0.183431
Si Si4 0.409899 0.262197 0.320159
Si Si5 0.936425 0.500000 0.179689
Si Si6 0.938070 0.632775 0.327279
Si Si7 0.800330 0.286359 0.186070
O O1 0.780857 0.091688 0.225048
O O2 0.692448 0.139506 0.253078
O O3 0.710263 0.000000 0.241792
O O4 0.713044 0.074602 0.000000
O O5 0.668203 0.500000 0.839485
O O6 0.611498 0.592457 0.751036
O O7 0.671955 0.605683 0.000000
O O8 0.500000 0.588829 0.245823
O O9 0.441810 0.690289 0.210004
O O10 0.443149 0.596222 0.000000
O O11 0.415936 0.282191 0.500000
O O12 0.427903 0.188715 0.296134
O O13 0.349678 0.258652 0.274159
O O14 0.917768 0.563720 0.269026
O O15 0.000000 0.500000 0.180257
O O16 0.920299 0.500000 0.000000
O O17 0.918080 0.649725 0.500000
O O18 0.000000 0.626006 0.338581
O O19 0.750000 0.250000 0.250000
O O20 0.797491 0.290211 0.000000
#
# Coordination Sequence:
#
# PCOD9521924 Si02
#       7
#    16  16  16  16   8  16  16
#     4  10  21  38  61  89 120 154 194 242 295 354
#     4   9  18  34  58  86 116 153 193 233 282 341
#     4  10  21  36  55  82 116 153 193 238 286 339
#     4  11  24  39  55  80 110 145 188 234 287 340
#     4   9  17  31  53  79 107 141 179 219 265 317
#     4  10  20  35  56  81 109 143 184 227 272 325
#     4  11  24  41  62  87 115 150 193 243 295 352
#
# _framework density 22.880755000000001
#
# number of rings (size 3 to 8) (size 9 to 14) (size 15 to 20)
#    0.000    1.923    0.000    3.462    0.000   10.769 
#    1.385    1.538    0.000    0.000    0.000    3.231 
#    0.000    0.000    0.000    0.000    0.000    0.000 
#
# Total GULP energy -290374.218245 kJ/mol
# GULP energy per Si atom -5584.119582 kJ/mol
# Density = 2.282868 g / cm^3
# Si number density = 22.880755 Si / 1000 Ang^3
#
#
#
# Elastic Constant Matrix: (Units=GPa)
#
#
# Indices 1 2 3 4 5 6 
#
# 1 64.6029 0.2475 15.5461 0.0000 0.0000 0.0000
# 2 0.2475 44.2919 -1.0170 0.0000 0.0000 0.0000
# 3 15.5461 -1.0170 42.0289 0.0000 0.0000 0.0000
# 4 0.0000 0.0000 0.0000 27.7548 0.0000 0.0000
# 5 0.0000 0.0000 0.0000 0.0000 17.3157 0.0000
# 6 0.0000 0.0000 0.0000 0.0000 0.0000 8.8279
#
#
#
# Elastic Compliance Matrix: (Units=1/GPa)
#
#
# Indices 1 2 3 4 5 6 
#
# 1 0.016994 -0.000239 -0.006292 0.000000 0.000000 0.000000
# 2 -0.000239 0.022593 0.000635 0.000000 0.000000 0.000000
# 3 -0.006292 0.000635 0.026136 0.000000 0.000000 0.000000
# 4 0.000000 0.000000 0.000000 0.036030 0.000000 0.000000
# 5 0.000000 0.000000 0.000000 0.000000 0.057751 0.000000
# 6 0.000000 0.000000 0.000000 0.000000 0.000000 0.113277
#
#
# Mechanical properties :
#
#
# Convention : Reuss Voigt Hill
#
# Bulk Modulus (GPa) = 18.54206 20.05300 19.29753
# Shear Modulus (GPa) = 16.52617 19.85614 18.19116
#
# Velocity S-wave (km/s) = 2.69043 2.94906 2.82271
# Velocity P-wave (km/s) = 4.21576 4.51432 4.36759
#
# Compressibility (1/GPa) = 0.05393144
#
# Stress axis : x y z
#
# Youngs Moduli (GPa) = 58.84377 44.26070 38.26172
#
# Poissons Ratio (x) = 0.01060 0.24073
# Poissons Ratio (y) = 0.01409 -0.02431
# Poissons Ratio (z) = 0.37023 -0.02812
#
# Static dielectric constant tensor:
#      x y z
#    x 1.946350 0.000000 0.000000 
#    y 0.000000 1.871680 0.000000 
#    z 0.000000 0.000000 1.822590 
# 
# From -- ./inp_files/11098.got.cif
#   From: 2010.05.17/outbox.cif.g08.bks.cpg/sg71_6_cif.got.tgz:11098.got - 2010.06.03 16:22:01.
