data_PCOD9521841
_publ_section_title
;
Structure prediction by ZEFSAII (Michael W. Deem and Ramdas Pophale) SiO2 
 PCOD9521841
Probable space group: I M M M
;
_chemical_formula_sum "Si O2"
_cell_formula_units_Z 80
_cell_length_a 9.131218
_cell_length_b 22.288272
_cell_length_c 22.707659
_cell_angle_alpha 90.000000
_cell_angle_beta 90.000000
_cell_angle_gamma 90.000000
_cell_volume 4621.441652
_symmetry_space_group_name_H-M "I M M M"
_symmetry_group_IT_number 71
_symmetry_cell_setting 'orthorhombic'
loop_
_space_group_symop_operation_xyz
x,y,z
-x,-y,z
x,-y,-z
-x,y,-z
-x,-y,-z
x,y,-z
-x,y,z
x,-y,z
1/2+x,1/2+y,1/2+z
1/2-x,1/2-y,1/2+z
1/2+x,1/2-y,1/2-z
1/2-x,1/2+y,1/2-z
1/2-x,1/2-y,1/2-z
1/2+x,1/2+y,1/2-z
1/2-x,1/2+y,1/2+z
1/2+x,1/2-y,1/2+z
loop_
_atom_site_type_symbol
_atom_site_label
_atom_site_fract_x
_atom_site_fract_y
_atom_site_fract_z
Si Si1 0.674633 0.124137 0.569893
Si Si2 0.324567 0.069842 0.119398
Si Si3 0.825532 0.333943 0.715762
Si Si4 0.831720 0.073024 0.000000
Si Si5 0.331376 0.500000 0.071466
Si Si6 0.173761 0.202273 0.334104
O O1 0.703098 0.132619 0.500000
O O2 0.500000 0.121324 0.578149
O O3 0.747575 0.060791 0.588571
O O4 0.744637 0.176276 0.609168
O O5 0.500000 0.073480 0.111671
O O6 0.284615 0.110272 0.174930
O O7 0.286248 0.000000 0.128553
O O8 0.248778 0.091942 0.059601
O O9 0.799622 0.272645 0.679102
O O10 0.736597 0.330505 0.776113
O O11 0.000000 0.336420 0.728771
O O12 0.000000 0.091876 0.000000
O O13 0.826786 0.000000 0.000000
O O14 0.500000 0.500000 0.091707
O O15 0.332823 0.500000 0.000000
O O16 0.000000 0.193094 0.339774
#
# Coordination Sequence:
#
# PCOD9521841 Si02
#       6
#    16  16  16   8   8  16
#     4  10  20  35  55  79 108 141 177 217 261 313
#     4   9  17  32  54  77 102 134 173 215 259 312
#     4   9  19  36  55  75 102 138 179 219 264 319
#     4   9  17  29  47  73 105 137 165 202 255 308
#     4   9  17  31  53  79 107 137 169 210 261 312
#     4  10  20  35  55  76 102 140 178 218 266 314
#
# _framework density 17.310614999999999
#
# number of rings (size 3 to 8) (size 9 to 14) (size 15 to 20)
#    0.000    2.600    0.000    1.800    0.000    5.200 
#    3.600    0.000    0.000    0.000    0.000    0.000 
#    0.000    0.000    0.000    0.000    0.000    0.000 
#
# Total GULP energy -223075.360019 kJ/mol
# GULP energy per Si atom -5576.884000 kJ/mol
# Density = 1.727122 g / cm^3
# Si number density = 17.310615 Si / 1000 Ang^3
#
#
#
# Elastic Constant Matrix: (Units=GPa)
#
#
# Indices 1 2 3 4 5 6 
#
# 1 74.9527 43.3084 58.3294 0.0000 0.0000 0.0000
# 2 43.3084 55.9971 53.1291 0.0000 0.0000 0.0000
# 3 58.3294 53.1291 87.9579 0.0000 0.0000 0.0000
# 4 0.0000 0.0000 0.0000 25.8522 0.0000 0.0000
# 5 0.0000 0.0000 0.0000 0.0000 30.9876 0.0000
# 6 0.0000 0.0000 0.0000 0.0000 0.0000 24.1344
#
#
#
# Elastic Compliance Matrix: (Units=1/GPa)
#
#
# Indices 1 2 3 4 5 6 
#
# 1 0.029812 -0.010071 -0.013687 0.000000 0.000000 0.000000
# 2 -0.010071 0.045233 -0.020644 0.000000 0.000000 0.000000
# 3 -0.013687 -0.020644 0.032915 0.000000 0.000000 0.000000
# 4 0.000000 0.000000 0.000000 0.038681 0.000000 0.000000
# 5 0.000000 0.000000 0.000000 0.000000 0.032271 0.000000
# 6 0.000000 0.000000 0.000000 0.000000 0.000000 0.041435
#
#
# Mechanical properties :
#
#
# Convention : Reuss Voigt Hill
#
# Bulk Modulus (GPa) = 52.19901 58.71571 55.45736
# Shear Modulus (GPa) = 15.84604 20.47089 18.15847
#
# Velocity S-wave (km/s) = 3.02883 3.44257 3.24231
# Velocity P-wave (km/s) = 6.51549 7.05651 6.79139
#
# Compressibility (1/GPa) = 0.01915745
#
# Stress axis : x y z
#
# Youngs Moduli (GPa) = 33.54328 22.10756 30.38152
#
# Poissons Ratio (x) = 0.22265 0.41582
# Poissons Ratio (y) = 0.33782 0.62718
# Poissons Ratio (z) = 0.45910 0.45638
#
# Static dielectric constant tensor:
#      x y z
#    x 1.577870 0.000000 0.000000 
#    y 0.000000 1.584520 0.000000 
#    z 0.000000 0.000000 1.563500 
# 
# From -- ./inp_files/57443.got.cif
#   From: 2010.05.17/outbox.cif.g08.bks.cpg/sg71_29_cif.got.tgz:57443.got - 2010.06.03 16:22:01.
