data_PCOD9521635
_publ_section_title
;
Structure prediction by ZEFSAII (Michael W. Deem and Ramdas Pophale) SiO2 
 PCOD9521635
Probable space group: I M M M
;
_chemical_formula_sum "Si O2"
_cell_formula_units_Z 104
_cell_length_a 17.537817
_cell_length_b 32.169626
_cell_length_c 10.995846
_cell_angle_alpha 90.000000
_cell_angle_beta 90.000000
_cell_angle_gamma 90.000000
_cell_volume 6203.691527
_symmetry_space_group_name_H-M "I M M M"
_symmetry_group_IT_number 71
_symmetry_cell_setting 'orthorhombic'
loop_
_space_group_symop_operation_xyz
x,y,z
-x,-y,z
x,-y,-z
-x,y,-z
-x,-y,-z
x,y,-z
-x,y,z
x,-y,z
1/2+x,1/2+y,1/2+z
1/2-x,1/2-y,1/2+z
1/2+x,1/2-y,1/2-z
1/2-x,1/2+y,1/2-z
1/2-x,1/2-y,1/2-z
1/2+x,1/2+y,1/2-z
1/2-x,1/2+y,1/2+z
1/2+x,1/2-y,1/2+z
loop_
_atom_site_type_symbol
_atom_site_label
_atom_site_fract_x
_atom_site_fract_y
_atom_site_fract_z
Si Si1 0.322685 0.392990 0.698705
Si Si2 0.335624 0.149621 0.133094
Si Si3 0.909870 0.826779 0.639577
Si Si4 0.193815 0.253555 0.363603
Si Si5 0.724968 0.045706 0.642358
Si Si6 0.907611 0.050294 0.000000
Si Si7 0.590051 0.104628 0.639061
O O1 0.251439 0.367757 0.639696
O O2 0.375133 0.359330 0.765777
O O3 0.281053 0.422103 0.796080
O O4 0.370356 0.423963 0.612148
O O5 0.336258 0.199434 0.137402
O O6 0.380027 0.133162 0.251160
O O7 0.366637 0.136431 0.000000
O O8 0.895389 0.840954 0.500000
O O9 0.869614 0.782028 0.651719
O O10 0.000000 0.822896 0.656267
O O11 0.228176 0.246995 0.500000
O O12 0.250000 0.250000 0.250000
O O13 0.742189 0.044051 0.500000
O O14 0.639026 0.062693 0.653587
O O15 0.732696 0.000000 0.696575
O O16 0.000000 0.053914 0.000000
O O17 0.890336 0.000000 0.000000
O O18 0.606559 0.120139 0.500000
O O19 0.500000 0.098475 0.648101
#
# Coordination Sequence:
#
# PCOD9521635 Si02
#       7
#    16  16  16  16  16   8  16
#     4  11  19  35  56  77 106 140 182 229 271 333
#     4  10  20  34  55  82 109 145 186 225 272 327
#     4  10  21  36  56  82 111 145 183 226 283 339
#     4  10  20  35  55  81 111 144 185 229 273 326
#     4   9  18  32  53  80 104 132 174 223 276 326
#     4  11  24  38  54  78 109 149 187 229 288 342
#     4   9  19  34  53  78 109 144 182 223 271 326
#
# _framework density 16.764212000000001
#
# number of rings (size 3 to 8) (size 9 to 14) (size 15 to 20)
#    0.000    2.077    2.308    1.385    0.000    2.462 
#    0.000    3.077    0.000    0.000    0.000    8.615 
#    0.000    0.000    0.000    0.000    0.000    0.000 
#
# Total GULP energy -289564.146923 kJ/mol
# GULP energy per Si atom -5568.541287 kJ/mol
# Density = 1.672606 g / cm^3
# Si number density = 16.764212 Si / 1000 Ang^3
#
#
#
# Elastic Constant Matrix: (Units=GPa)
#
#
# Indices 1 2 3 4 5 6 
#
# 1 79.3390 38.5229 42.4778 -0.0007 0.0000 -0.0001
# 2 38.5229 118.7059 48.5510 -0.0012 0.0001 0.0000
# 3 42.4778 48.5510 87.2973 -0.0050 0.0002 -0.0001
# 4 -0.0007 -0.0012 -0.0050 26.6609 0.0002 -0.0001
# 5 0.0000 0.0001 0.0002 0.0002 22.8332 0.0001
# 6 -0.0001 0.0000 -0.0001 -0.0001 0.0001 20.3875
#
#
#
# Elastic Compliance Matrix: (Units=1/GPa)
#
#
# Indices 1 2 3 4 5 6 
#
# 1 0.017778 -0.002888 -0.007044 -0.000001 0.000000 0.000000
# 2 -0.002888 0.011374 -0.004920 0.000000 0.000000 0.000000
# 3 -0.007044 -0.004920 0.017619 0.000003 0.000000 0.000000
# 4 -0.000001 0.000000 0.000003 0.037508 0.000000 0.000000
# 5 0.000000 0.000000 0.000000 0.000000 0.043796 0.000000
# 6 0.000000 0.000000 0.000000 0.000000 0.000000 0.049050
#
#
# Mechanical properties :
#
#
# Convention : Reuss Voigt Hill
#
# Bulk Modulus (GPa) = 58.59762 60.49394 59.54578
# Shear Modulus (GPa) = 23.52732 24.36234 23.94483
#
# Velocity S-wave (km/s) = 3.75030 3.81627 3.78343
# Velocity P-wave (km/s) = 7.33368 7.45534 7.39476
#
# Compressibility (1/GPa) = 0.01706554
#
# Stress axis : x y z
#
# Youngs Moduli (GPa) = 56.24937 87.92060 56.75643
#
# Poissons Ratio (x) = 0.25394 0.39980
# Poissons Ratio (y) = 0.16246 0.27926
# Poissons Ratio (z) = 0.39623 0.43259
#
# Static dielectric constant tensor:
#      x y z
#    x 1.541660 0.000000 0.000000 
#    y 0.000000 1.551880 0.000000 
#    z 0.000000 0.000000 1.604630 
# 
# From -- ./inp_files/24561.got.cif
#   From: 2010.05.17/outbox.cif.g08.bks.cpg/sg71_13_cif.got.tgz:24561.got - 2010.06.03 16:22:01.
