data_PCOD9521116
_publ_section_title
;
Structure prediction by ZEFSAII (Michael W. Deem and Ramdas Pophale) SiO2 
 PCOD9521116
Probable space group: I M M M
;
_chemical_formula_sum "Si O2"
_cell_formula_units_Z 80
_cell_length_a 22.671096
_cell_length_b 17.760487
_cell_length_c 11.461365
_cell_angle_alpha 90.000000
_cell_angle_beta 90.000000
_cell_angle_gamma 90.000000
_cell_volume 4614.915245
_symmetry_space_group_name_H-M "I M M M"
_symmetry_group_IT_number 71
_symmetry_cell_setting 'orthorhombic'
loop_
_space_group_symop_operation_xyz
x,y,z
-x,-y,z
x,-y,-z
-x,y,-z
-x,-y,-z
x,y,-z
-x,y,z
x,-y,z
1/2+x,1/2+y,1/2+z
1/2-x,1/2-y,1/2+z
1/2+x,1/2-y,1/2-z
1/2-x,1/2+y,1/2-z
1/2-x,1/2-y,1/2-z
1/2+x,1/2+y,1/2-z
1/2-x,1/2+y,1/2+z
1/2+x,1/2-y,1/2+z
loop_
_atom_site_type_symbol
_atom_site_label
_atom_site_fract_x
_atom_site_fract_y
_atom_site_fract_z
Si Si1 0.165123 0.296229 0.141863
Si Si2 0.000000 0.910507 0.639878
Si Si3 0.734848 0.583847 0.860015
Si Si4 0.120132 0.858703 0.758732
Si Si5 0.933136 0.910789 0.000000
Si Si6 0.933698 0.416428 0.141161
O O1 0.222957 0.345847 0.171243
O O2 0.150088 0.222467 0.216409
O O3 0.111799 0.352631 0.169958
O O4 0.165842 0.281186 0.000000
O O5 0.059157 0.869059 0.686422
O O6 0.000000 0.910351 0.500000
O O7 0.000000 0.000000 0.678459
O O8 0.759216 0.500000 0.831158
O O9 0.671229 0.593163 0.802006
O O10 0.728947 0.586364 0.000000
O O11 0.101493 0.886603 0.886001
O O12 0.000000 0.878514 0.000000
O O13 0.938070 0.000000 0.000000
O O14 0.916703 0.500000 0.181582
O O15 0.000000 0.400197 0.181180
O O16 0.934950 0.419256 0.000000
#
# Coordination Sequence:
#
# PCOD9521116 Si02
#       6
#    16   8  16  16   8  16
#     4  10  20  33  51  81 115 146 179 226 282 334
#     4  11  24  41  61  83 108 144 190 234 275 326
#     4  10  21  38  59  79 107 149 193 235 278 325
#     4  12  22  36  56  84 114 144 186 229 280 335
#     4  11  22  36  54  80 115 151 182 220 274 341
#     4   8  14  25  44  70 104 142 178 217 265 322
#
# _framework density 17.335096
#
# number of rings (size 3 to 8) (size 9 to 14) (size 15 to 20)
#    0.000    1.800    2.000    4.200    1.400    4.000 
#    0.000    0.000    0.000    0.000    0.000    0.000 
#    0.000    3.200    0.000    0.000    0.000    0.000 
#
# Total GULP energy -222848.952019 kJ/mol
# GULP energy per Si atom -5571.223800 kJ/mol
# Density = 1.729564 g / cm^3
# Si number density = 17.335096 Si / 1000 Ang^3
#
#
#
# Elastic Constant Matrix: (Units=GPa)
#
#
# Indices 1 2 3 4 5 6 
#
# 1 100.6114 66.9707 32.5046 0.0000 0.0000 0.0000
# 2 66.9707 93.3694 29.6315 0.0000 0.0000 0.0000
# 3 32.5046 29.6315 45.8093 0.0000 0.0000 0.0000
# 4 0.0000 0.0000 0.0000 22.8118 0.0000 0.0000
# 5 0.0000 0.0000 0.0000 0.0000 31.4027 0.0000
# 6 0.0000 0.0000 0.0000 0.0000 0.0000 21.3913
#
#
#
# Elastic Compliance Matrix: (Units=1/GPa)
#
#
# Indices 1 2 3 4 5 6 
#
# 1 0.020367 -0.012611 -0.006294 0.000000 0.000000 0.000000
# 2 -0.012611 0.021285 -0.004820 0.000000 0.000000 0.000000
# 3 -0.006294 -0.004820 0.029414 0.000000 0.000000 0.000000
# 4 0.000000 0.000000 0.000000 0.043837 0.000000 0.000000
# 5 0.000000 0.000000 0.000000 0.000000 0.031844 0.000000
# 6 0.000000 0.000000 0.000000 0.000000 0.000000 0.046748
#
#
# Mechanical properties :
#
#
# Convention : Reuss Voigt Hill
#
# Bulk Modulus (GPa) = 42.34540 55.33374 48.83957
# Shear Modulus (GPa) = 20.09501 22.50005 21.29753
#
# Velocity S-wave (km/s) = 3.40841 3.60661 3.50891
# Velocity P-wave (km/s) = 6.32220 7.02374 6.68218
#
# Compressibility (1/GPa) = 0.02361532
#
# Stress axis : x y z
#
# Youngs Moduli (GPa) = 49.09861 46.98076 33.99787
#
# Poissons Ratio (x) = 0.59248 0.21400
# Poissons Ratio (y) = 0.61919 0.16387
# Poissons Ratio (z) = 0.30904 0.22644
#
# Static dielectric constant tensor:
#      x y z
#    x 1.602880 0.000000 0.000000 
#    y 0.000000 1.628070 0.000000 
#    z 0.000000 0.000000 1.605600 
# 
# From -- ./inp_files/25581.got.cif
#   From: 2010.05.17/outbox.cif.g08.bks.cpg/sg71_13_cif.got.tgz:25581.got - 2010.06.03 16:22:01.
