data_PCOD9521235
_publ_section_title
;
Structure prediction by ZEFSAII (Michael W. Deem and Ramdas Pophale) SiO2 
 PCOD9521235
Probable space group: I M M M
;
_chemical_formula_sum "Si O2"
_cell_formula_units_Z 84
_cell_length_a 12.105164
_cell_length_b 22.254660
_cell_length_c 13.802151
_cell_angle_alpha 90.000000
_cell_angle_beta 90.000000
_cell_angle_gamma 90.000000
_cell_volume 3718.248537
_symmetry_space_group_name_H-M "I M M M"
_symmetry_group_IT_number 71
_symmetry_cell_setting 'orthorhombic'
loop_
_space_group_symop_operation_xyz
x,y,z
-x,-y,z
x,-y,-z
-x,y,-z
-x,-y,-z
x,y,-z
-x,y,z
x,-y,z
1/2+x,1/2+y,1/2+z
1/2-x,1/2-y,1/2+z
1/2+x,1/2-y,1/2-z
1/2-x,1/2+y,1/2-z
1/2-x,1/2-y,1/2-z
1/2+x,1/2+y,1/2-z
1/2-x,1/2+y,1/2+z
1/2+x,1/2-y,1/2+z
loop_
_atom_site_type_symbol
_atom_site_label
_atom_site_fract_x
_atom_site_fract_y
_atom_site_fract_z
Si Si1 0.131520 0.879182 0.176596
Si Si2 0.287106 0.219845 0.149487
Si Si3 0.250056 0.000000 0.165108
Si Si4 0.632819 0.347664 0.897323
Si Si5 0.500000 0.103550 0.604486
Si Si6 0.683623 0.000000 0.390899
Si Si7 0.500000 0.857216 0.802807
Si Si8 0.500000 0.000000 0.849254
O O1 0.184875 0.822350 0.122600
O O2 0.184109 0.940367 0.138959
O O3 0.165120 0.873852 0.292132
O O4 0.000000 0.879396 0.171271
O O5 0.250000 0.250000 0.250000
O O6 0.325159 0.279644 0.096763
O O7 0.391277 0.174509 0.156021
O O8 0.260393 0.000000 0.284511
O O9 0.372003 0.000000 0.117687
O O10 0.500000 0.347376 0.894881
O O11 0.666459 0.377615 0.000000
O O12 0.500000 0.132877 0.500000
O O13 0.395686 0.058669 0.611186
O O14 0.500000 0.152344 0.687668
O O15 0.735686 0.000000 0.500000
O O16 0.500000 0.930135 0.809376
#
# Coordination Sequence:
#
# PCOD9521235 Si02
#       8
#    16  16   8  16   8   8   8   4
#     4  10  21  34  51  77 110 148 179 221 267 327
#     4  10  20  33  55  78 102 139 182 229 273 325
#     4  12  19  32  48  76 108 143 184 223 263 322
#     4   9  18  35  56  80 105 136 183 232 278 323
#     4   9  15  25  42  67 101 138 171 210 256 307
#     4   9  15  24  39  62  97 141 177 204 249 304
#     4  12  18  34  52  78 106 136 187 226 282 325
#     4  12  20  30  53  82 109 138 184 236 278 322
#
# _framework density 22.591280999999999
#
# number of rings (size 3 to 8) (size 9 to 14) (size 15 to 20)
#    0.000    1.905    4.762    0.857    1.333    0.762 
#    0.000    5.714    0.000    3.429    0.000    3.333 
#    0.000    1.524    0.000    0.000    0.000    0.000 
#
# Total GULP energy -233954.937801 kJ/mol
# GULP energy per Si atom -5570.355662 kJ/mol
# Density = 2.253986 g / cm^3
# Si number density = 22.591281 Si / 1000 Ang^3
#
#
#
# Elastic Constant Matrix: (Units=GPa)
#
#
# Indices 1 2 3 4 5 6 
#
# 1 110.7770 57.4586 2.5787 0.0000 0.0000 0.0000
# 2 57.4586 118.2783 -4.1312 -0.0002 0.0000 0.0000
# 3 2.5787 -4.1312 40.8860 -0.0002 0.0000 0.0000
# 4 0.0000 -0.0002 -0.0002 6.4849 0.0000 0.0000
# 5 0.0000 0.0000 0.0000 0.0000 -13.4569 0.0000
# 6 0.0000 0.0000 0.0000 0.0000 0.0000 5.9869
#
#
#
# Elastic Compliance Matrix: (Units=1/GPa)
#
#
# Indices 1 2 3 4 5 6 
#
# 1 0.012144 -0.005947 -0.001367 0.000000 0.000000 0.000000
# 2 -0.005947 0.011397 0.001527 0.000000 0.000000 0.000000
# 3 -0.001367 0.001527 0.024699 0.000001 0.000000 0.000000
# 4 0.000000 0.000000 0.000001 0.154204 0.000000 -0.000001
# 5 0.000000 0.000000 0.000000 0.000000 -0.074311 0.000000
# 6 0.000000 0.000000 0.000000 -0.000001 0.000000 0.167032
#
#
# Mechanical properties :
#
#
# Convention : Reuss Voigt Hill
#
# Bulk Modulus (GPa) = 27.27402 42.41708 34.84555
# Shear Modulus (GPa) = 15.67594 14.07198 14.87396
#
# Velocity S-wave (km/s) = 2.63704 2.49849 2.56870
# Velocity P-wave (km/s) = 4.62288 5.20960 4.92498
#
# Compressibility (1/GPa) = 0.03666493
#
# Stress axis : x y z
#
# Youngs Moduli (GPa) = 82.34794 87.74267 40.48798
#
# Poissons Ratio (x) = 0.52181 0.05534
# Poissons Ratio (y) = 0.48972 -0.06181
# Poissons Ratio (z) = 0.11255 -0.13395
#
# Static dielectric constant tensor:
#      x y z
#    x 1.820580 0.000000 0.000000 
#    y 0.000000 1.805640 0.000000 
#    z 0.000000 0.000000 1.952660 
# 
# From -- ./inp_files/32808.got.cif
#   From: 2010.05.17/outbox.cif.g08.bks.cpg/sg71_17_cif.got.tgz:32808.got - 2010.06.03 16:22:01.
