data_PCOD9521262
_publ_section_title
;
Structure prediction by ZEFSAII (Michael W. Deem and Ramdas Pophale) SiO2 
 PCOD9521262
Probable space group: I M M M
;
_chemical_formula_sum "Si O2"
_cell_formula_units_Z 92
_cell_length_a 29.419960
_cell_length_b 24.802215
_cell_length_c 7.481581
_cell_angle_alpha 90.000000
_cell_angle_beta 90.000000
_cell_angle_gamma 90.000000
_cell_volume 5459.161320
_symmetry_space_group_name_H-M "I M M M"
_symmetry_group_IT_number 71
_symmetry_cell_setting 'orthorhombic'
loop_
_space_group_symop_operation_xyz
x,y,z
-x,-y,z
x,-y,-z
-x,y,-z
-x,-y,-z
x,y,-z
-x,y,z
x,-y,z
1/2+x,1/2+y,1/2+z
1/2-x,1/2-y,1/2+z
1/2+x,1/2-y,1/2-z
1/2-x,1/2+y,1/2-z
1/2-x,1/2-y,1/2-z
1/2+x,1/2+y,1/2-z
1/2-x,1/2+y,1/2+z
1/2+x,1/2-y,1/2+z
loop_
_atom_site_type_symbol
_atom_site_label
_atom_site_fract_x
_atom_site_fract_y
_atom_site_fract_z
Si Si1 0.908133 0.620714 0.213631
Si Si2 0.814516 0.560633 0.713710
Si Si3 0.821162 0.231761 0.713643
Si Si4 0.500000 0.061801 0.281718
Si Si5 0.580925 0.243212 0.205928
Si Si6 0.235369 0.665074 0.286390
Si Si7 0.000000 0.248397 0.000000
O O1 0.865018 0.583604 0.253992
O O2 0.905019 0.679956 0.294836
O O3 0.954592 0.592421 0.274948
O O4 0.911085 0.627605 0.000000
O O5 0.808309 0.557443 0.500000
O O6 0.809342 0.500000 0.785302
O O7 0.780612 0.607094 0.782818
O O8 0.823392 0.237346 0.500000
O O9 0.873159 0.226945 0.771524
O O10 0.796600 0.286244 0.784441
O O11 0.786925 0.183060 0.752946
O O12 0.500000 0.061812 0.500000
O O13 0.500000 0.000000 0.223419
O O14 0.539802 0.249861 0.342562
O O15 0.570006 0.258553 0.000000
O O16 0.229045 0.664082 0.500000
#
# Coordination Sequence:
#
# PCOD9521262 Si02
#       7
#    16  16  16   8  16  16   4
#     4  11  20  32  51  67  90 127 177 223 269 312
#     4  10  20  34  49  69 100 136 172 216 269 318
#     4   9  18  32  51  74  97 127 165 213 265 308
#     4   9  19  32  43  58  82 114 162 221 265 300
#     4  11  22  37  54  75 105 134 173 221 266 319
#     4   9  17  30  49  72  97 128 169 214 259 313
#     4  12  24  36  52  80 103 142 177 216 276 318
#
# _framework density 16.852404
#
# number of rings (size 3 to 8) (size 9 to 14) (size 15 to 20)
#    0.000    2.000    2.609    1.826    2.435    1.739 
#    0.000    1.304    0.000    3.130    0.000    0.000 
#    0.000    0.000    0.000    1.565    0.000    7.739 
#
# Total GULP energy -256195.089649 kJ/mol
# GULP energy per Si atom -5569.458471 kJ/mol
# Density = 1.681405 g / cm^3
# Si number density = 16.852404 Si / 1000 Ang^3
#
#
#
# Elastic Constant Matrix: (Units=GPa)
#
#
# Indices 1 2 3 4 5 6 
#
# 1 149.0664 80.1617 25.2140 0.0000 0.0000 0.0000
# 2 80.1617 65.1843 11.6884 0.0000 0.0000 0.0000
# 3 25.2140 11.6884 77.0454 0.0000 0.0000 0.0000
# 4 0.0000 0.0000 0.0000 8.1377 0.0000 0.0000
# 5 0.0000 0.0000 0.0000 0.0000 36.9511 0.0000
# 6 0.0000 0.0000 0.0000 0.0000 0.0000 7.7127
#
#
#
# Elastic Compliance Matrix: (Units=1/GPa)
#
#
# Indices 1 2 3 4 5 6 
#
# 1 0.020442 -0.024609 -0.002957 0.000000 0.000000 0.000000
# 2 -0.024609 0.045396 0.001167 0.000000 0.000000 0.000000
# 3 -0.002957 0.001167 0.013770 0.000000 0.000000 0.000000
# 4 0.000000 0.000000 0.000000 0.122885 0.000000 0.000000
# 5 0.000000 0.000000 0.000000 0.000000 0.027063 0.000000
# 6 0.000000 0.000000 0.000000 0.000000 0.000000 0.129655
#
#
# Mechanical properties :
#
#
# Convention : Reuss Voigt Hill
#
# Bulk Modulus (GPa) = 37.29975 58.38046 47.84011
# Shear Modulus (GPa) = 11.87801 22.17578 17.02690
#
# Velocity S-wave (km/s) = 2.65774 3.63144 3.18206
# Velocity P-wave (km/s) = 5.62133 7.23192 6.47688
#
# Compressibility (1/GPa) = 0.02680983
#
# Stress axis : x y z
#
# Youngs Moduli (GPa) = 48.91821 22.02861 72.62203
#
# Poissons Ratio (x) = 0.54211 0.21471
# Poissons Ratio (y) = 1.20384 -0.08474
# Poissons Ratio (z) = 0.14463 -0.02570
#
# Static dielectric constant tensor:
#      x y z
#    x 1.582170 0.000000 0.000000 
#    y 0.000000 1.570920 0.000000 
#    z 0.000000 0.000000 1.627540 
# 
# From -- ./inp_files/15208.got.cif
#   From: 2010.05.17/outbox.cif.g08.bks.cpg/sg71_8_cif.got.tgz:15208.got - 2010.06.03 16:22:01.
