data_PCOD9521572
_publ_section_title
;
Structure prediction by ZEFSAII (Michael W. Deem and Ramdas Pophale) SiO2 
 PCOD9521572
Probable space group: I M M M
;
_chemical_formula_sum "Si O2"
_cell_formula_units_Z 120
_cell_length_a 21.842482
_cell_length_b 21.802029
_cell_length_c 13.803033
_cell_angle_alpha 90.000000
_cell_angle_beta 90.000000
_cell_angle_gamma 90.000000
_cell_volume 6573.148225
_symmetry_space_group_name_H-M "I M M M"
_symmetry_group_IT_number 71
_symmetry_cell_setting 'orthorhombic'
loop_
_space_group_symop_operation_xyz
x,y,z
-x,-y,z
x,-y,-z
-x,y,-z
-x,-y,-z
x,y,-z
-x,y,z
x,-y,z
1/2+x,1/2+y,1/2+z
1/2-x,1/2-y,1/2+z
1/2+x,1/2-y,1/2-z
1/2-x,1/2+y,1/2-z
1/2-x,1/2-y,1/2-z
1/2+x,1/2+y,1/2-z
1/2-x,1/2+y,1/2+z
1/2+x,1/2-y,1/2+z
loop_
_atom_site_type_symbol
_atom_site_label
_atom_site_fract_x
_atom_site_fract_y
_atom_site_fract_z
Si Si1 0.164582 0.929863 0.801198
Si Si2 0.667335 0.728708 0.112139
Si Si3 0.571801 0.000000 0.389997
Si Si4 0.784874 0.365232 0.386106
Si Si5 0.643189 0.104867 0.294402
Si Si6 0.571107 0.208863 0.611907
Si Si7 0.428460 0.325657 0.267330
Si Si8 0.271290 0.400434 0.109089
O O1 0.217982 0.890706 0.855580
O O2 0.103228 0.889419 0.797221
O O3 0.187317 0.931642 0.689894
O O4 0.159388 0.000000 0.837315
O O5 0.702094 0.792752 0.133817
O O6 0.612327 0.707456 0.183183
O O7 0.714833 0.672337 0.116786
O O8 0.645575 0.733048 0.000000
O O9 0.592598 0.057960 0.328619
O O10 0.500000 0.000000 0.399351
O O11 0.597665 0.000000 0.500000
O O12 0.794007 0.375748 0.500000
O O13 0.833119 0.398661 0.315306
O O14 0.616202 0.170974 0.320222
O O15 0.701711 0.090209 0.360700
O O16 0.587158 0.198354 0.500000
O O17 0.500000 0.189891 0.625795
O O18 0.574751 0.279556 0.641773
O O19 0.500000 0.332024 0.239544
O O20 0.283829 0.420131 0.000000
#
# Coordination Sequence:
#
# PCOD9521572 Si02
#       8
#    16  16   8  16  16  16  16  16
#     4  10  23  38  55  82 114 155 203 246 293 349
#     4   9  18  36  58  86 117 148 183 231 293 352
#     4  11  24  40  57  81 117 159 197 234 280 342
#     4  10  22  38  60  86 117 151 190 241 293 343
#     4  11  21  35  58  83 113 148 191 232 284 347
#     4  10  20  34  54  82 113 145 183 230 285 341
#     4  10  21  37  58  84 117 153 193 242 291 352
#     4   9  19  32  55  86 115 142 178 232 295 354
#
# _framework density 18.256093
#
# number of rings (size 3 to 8) (size 9 to 14) (size 15 to 20)
#    0.000    2.067    1.333    1.600    5.600    4.267 
#    0.000    0.000    0.000    2.000    0.000    6.533 
#    0.000    0.000    0.000    0.000    0.000    0.000 
#
# Total GULP energy -334514.648940 kJ/mol
# GULP energy per Si atom -5575.244149 kJ/mol
# Density = 1.821454 g / cm^3
# Si number density = 18.256093 Si / 1000 Ang^3
#
#
#
# Elastic Constant Matrix: (Units=GPa)
#
#
# Indices 1 2 3 4 5 6 
#
# 1 80.1067 38.7460 26.8926 0.0000 0.0000 0.0000
# 2 38.7460 95.7000 16.3897 0.0000 0.0000 0.0000
# 3 26.8926 16.3897 89.3102 0.0000 0.0000 0.0000
# 4 0.0000 0.0000 0.0000 30.4483 0.0000 0.0000
# 5 0.0000 0.0000 0.0000 0.0000 16.7353 0.0000
# 6 0.0000 0.0000 0.0000 0.0000 0.0000 18.4956
#
#
#
# Elastic Compliance Matrix: (Units=1/GPa)
#
#
# Indices 1 2 3 4 5 6 
#
# 1 0.016757 -0.006112 -0.003924 0.000000 0.000000 0.000000
# 2 -0.006112 0.013018 -0.000548 0.000000 0.000000 0.000000
# 3 -0.003924 -0.000548 0.012479 0.000000 0.000000 0.000000
# 4 0.000000 0.000000 0.000000 0.032843 0.000000 0.000000
# 5 0.000000 0.000000 0.000000 0.000000 0.059754 0.000000
# 6 0.000000 0.000000 0.000000 0.000000 0.000000 0.054067
#
#
# Mechanical properties :
#
#
# Convention : Reuss Voigt Hill
#
# Bulk Modulus (GPa) = 47.42847 47.68594 47.55721
# Shear Modulus (GPa) = 23.02919 25.34175 24.18547
#
# Velocity S-wave (km/s) = 3.55555 3.72980 3.64371
# Velocity P-wave (km/s) = 6.54918 6.68773 6.61882
#
# Compressibility (1/GPa) = 0.02108438
#
# Stress axis : x y z
#
# Youngs Moduli (GPa) = 59.67597 76.81680 80.13350
#
# Poissons Ratio (x) = 0.46954 0.31445
# Poissons Ratio (y) = 0.36476 0.04395
# Poissons Ratio (z) = 0.23417 0.04213
#
# Static dielectric constant tensor:
#      x y z
#    x 1.609040 0.000000 0.000000 
#    y 0.000000 2.106370 0.000000 
#    z 0.000000 0.000000 1.627260 
# 
# From -- ./inp_files/38413.got.cif
#   From: 2010.05.17/outbox.cif.g08.bks.cpg/sg71_20_cif.got.tgz:38413.got - 2010.06.03 16:22:01.
