data_PCOD9521736
_publ_section_title
;
Structure prediction by ZEFSAII (Michael W. Deem and Ramdas Pophale) SiO2 
 PCOD9521736
Probable space group: I M M M
;
_chemical_formula_sum "Si O2"
_cell_formula_units_Z 90
_cell_length_a 7.720524
_cell_length_b 28.350081
_cell_length_c 20.247108
_cell_angle_alpha 90.000000
_cell_angle_beta 90.000000
_cell_angle_gamma 90.000000
_cell_volume 4431.635992
_symmetry_space_group_name_H-M "I M M M"
_symmetry_group_IT_number 71
_symmetry_cell_setting 'orthorhombic'
loop_
_space_group_symop_operation_xyz
x,y,z
-x,-y,z
x,-y,-z
-x,y,-z
-x,-y,-z
x,y,-z
-x,y,z
x,-y,z
1/2+x,1/2+y,1/2+z
1/2-x,1/2-y,1/2+z
1/2+x,1/2-y,1/2-z
1/2-x,1/2+y,1/2-z
1/2-x,1/2-y,1/2-z
1/2+x,1/2+y,1/2-z
1/2-x,1/2+y,1/2+z
1/2+x,1/2-y,1/2+z
loop_
_atom_site_type_symbol
_atom_site_label
_atom_site_fract_x
_atom_site_fract_y
_atom_site_fract_z
Si Si1 0.796379 0.396170 0.171458
Si Si2 0.794534 0.373393 0.316321
Si Si3 0.287625 0.815298 0.424317
Si Si4 0.310830 0.500000 0.862897
Si Si5 0.211699 0.446194 0.424945
Si Si6 0.500000 0.500000 0.000000
Si Si7 0.293659 0.266195 0.324320
O O1 0.721426 0.382555 0.242955
O O2 0.728124 0.363124 0.112527
O O3 0.777118 0.451274 0.156975
O O4 0.000000 0.384849 0.174665
O O5 0.724265 0.408797 0.371555
O O6 0.772734 0.318940 0.334795
O O7 0.000000 0.383182 0.312534
O O8 0.228882 0.812549 0.500000
O O9 0.500000 0.814924 0.426069
O O10 0.231154 0.771727 0.378210
O O11 0.500000 0.500000 0.829287
O O12 0.352037 0.500000 0.940898
O O13 0.266789 0.435565 0.500000
O O14 0.261796 0.500000 0.408891
O O15 0.000000 0.445168 0.425248
O O16 0.500000 0.267385 0.329461
O O17 0.250000 0.250000 0.250000
#
# Coordination Sequence:
#
# PCOD9521736 Si02
#       7
#    16  16  16   8  16   2  16
#     4  10  20  36  58  84 109 143 188 233 271 324
#     4  10  20  34  57  85 113 142 183 232 276 325
#     4   9  19  35  56  80 106 141 186 229 267 320
#     4  10  23  39  55  77 114 147 181 222 285 331
#     4   8  15  29  51  80 113 149 184 223 271 321
#     4   8  24  44  54  72 120 160 164 236 288 332
#     4  11  21  37  57  79 111 145 182 227 278 330
#
# _framework density 20.308526000000001
#
# number of rings (size 3 to 8) (size 9 to 14) (size 15 to 20)
#    0.267    2.133    1.778    1.333    2.489    1.422 
#    0.000    0.444    0.000    2.667    0.000    1.244 
#    0.000    0.000    0.000    0.000    0.000    0.000 
#
# Total GULP energy -250775.390788 kJ/mol
# GULP energy per Si atom -5572.786462 kJ/mol
# Density = 2.026230 g / cm^3
# Si number density = 20.308526 Si / 1000 Ang^3
#
#
#
# Elastic Constant Matrix: (Units=GPa)
#
#
# Indices 1 2 3 4 5 6 
#
# 1 22.9034 -17.2051 7.3181 0.0000 0.0000 0.0000
# 2 -17.2051 156.0043 122.4584 0.0000 0.0000 0.0000
# 3 7.3181 122.4584 181.2053 0.0000 0.0000 0.0000
# 4 0.0000 0.0000 0.0000 31.1453 0.0000 0.0000
# 5 0.0000 0.0000 0.0000 0.0000 0.3805 0.0000
# 6 0.0000 0.0000 0.0000 0.0000 0.0000 21.0399
#
#
#
# Elastic Compliance Matrix: (Units=1/GPa)
#
#
# Indices 1 2 3 4 5 6 
#
# 1 0.062856 0.019008 -0.015384 0.000000 0.000000 0.000000
# 2 0.019008 0.019401 -0.013879 0.000000 0.000000 0.000000
# 3 -0.015384 -0.013879 0.015519 0.000000 0.000000 0.000000
# 4 0.000000 0.000000 0.000000 0.032108 0.000000 0.000000
# 5 0.000000 0.000000 0.000000 0.000000 2.628228 0.000000
# 6 0.000000 0.000000 0.000000 0.000000 0.000000 0.047529
#
#
# Mechanical properties :
#
#
# Convention : Reuss Voigt Hill
#
# Bulk Modulus (GPa) = 12.94212 65.02844 38.98528
# Shear Modulus (GPa) = 1.75321 27.01591 14.38456
#
# Velocity S-wave (km/s) = 0.93014 3.65125 2.66428
# Velocity P-wave (km/s) = 2.74593 7.06153 5.35749
#
# Compressibility (1/GPa) = 0.07726710
#
# Stress axis : x y z
#
# Youngs Moduli (GPa) = 15.90926 51.54425 64.43655
#
# Poissons Ratio (x) = -0.97978 0.99132
# Poissons Ratio (y) = -0.30241 0.89430
# Poissons Ratio (z) = 0.24475 0.71537
#
# Static dielectric constant tensor:
#      x y z
#    x 1.772050 0.000000 0.000000 
#    y 0.000000 1.703760 0.000000 
#    z 0.000000 0.000000 1.711610 
# 
# From -- ./inp_files/50584.got.cif
#   From: 2010.05.17/outbox.cif.g08.bks.cpg/sg71_26_cif.got.tgz:50584.got - 2010.06.03 16:22:01.
