data_PCOD9521328
_publ_section_title
;
Structure prediction by ZEFSAII (Michael W. Deem and Ramdas Pophale) SiO2 
 PCOD9521328
Probable space group: I M M M
;
_chemical_formula_sum "Si O2"
_cell_formula_units_Z 72
_cell_length_a 13.778264
_cell_length_b 34.863348
_cell_length_c 7.532130
_cell_angle_alpha 90.000000
_cell_angle_beta 90.000000
_cell_angle_gamma 90.000000
_cell_volume 3618.106947
_symmetry_space_group_name_H-M "I M M M"
_symmetry_group_IT_number 71
_symmetry_cell_setting 'orthorhombic'
loop_
_space_group_symop_operation_xyz
x,y,z
-x,-y,z
x,-y,-z
-x,y,-z
-x,-y,-z
x,y,-z
-x,y,z
x,-y,z
1/2+x,1/2+y,1/2+z
1/2-x,1/2-y,1/2+z
1/2+x,1/2-y,1/2-z
1/2-x,1/2+y,1/2-z
1/2-x,1/2-y,1/2-z
1/2+x,1/2+y,1/2-z
1/2-x,1/2+y,1/2+z
1/2+x,1/2-y,1/2+z
loop_
_atom_site_type_symbol
_atom_site_label
_atom_site_fract_x
_atom_site_fract_y
_atom_site_fract_z
Si Si1 0.116605 0.500000 0.300235
Si Si2 0.500000 0.338008 0.218193
Si Si3 0.707446 0.633460 0.201182
Si Si4 0.500000 0.752225 0.783316
Si Si5 0.611695 0.914080 0.706086
Si Si6 0.696032 0.789091 0.210581
O O1 0.155955 0.500000 0.500000
O O2 0.138474 0.459168 0.213641
O O3 0.000000 0.500000 0.308348
O O4 0.401090 0.359623 0.276473
O O5 0.500000 0.292686 0.274029
O O6 0.500000 0.337425 0.000000
O O7 0.795852 0.608694 0.284828
O O8 0.751846 0.675972 0.196760
O O9 0.693262 0.618551 0.000000
O O10 0.410116 0.777963 0.727342
O O11 0.500000 0.750249 0.000000
O O12 0.605380 0.902252 0.500000
O O13 0.500000 0.909150 0.778912
O O14 0.750000 0.750000 0.250000
O O15 0.695733 0.797164 0.000000
#
# Coordination Sequence:
#
# PCOD9521328 Si02
#       6
#     8   8  16   8  16  16
#     4   9  17  31  53  78 103 132 162 191 236 301
#     4   9  16  32  52  67  95 134 170 204 244 296
#     4  10  20  34  52  74 100 132 168 206 250 296
#     4   9  18  32  48  66  93 130 165 205 258 303
#     4   9  18  32  51  77 106 130 157 199 248 293
#     4  11  21  34  50  69  95 130 171 212 255 298
#
# _framework density 19.899908
#
# number of rings (size 3 to 8) (size 9 to 14) (size 15 to 20)
#    0.000    2.333    2.222    1.000    1.556    2.222 
#    0.000    3.333    0.000    0.667    0.000    4.667 
#    0.000    0.000    0.000    0.000    0.000    0.000 
#
# Total GULP energy -200427.206963 kJ/mol
# GULP energy per Si atom -5567.422416 kJ/mol
# Density = 1.985462 g / cm^3
# Si number density = 19.899908 Si / 1000 Ang^3
#
#
#
# Elastic Constant Matrix: (Units=GPa)
#
#
# Indices 1 2 3 4 5 6 
#
# 1 191.6635 59.6488 4.7364 0.0018 -0.0031 -0.0001
# 2 59.6488 92.0770 -6.4958 0.0061 -0.0034 0.0010
# 3 4.7364 -6.4958 56.0038 0.0120 -0.0074 0.0052
# 4 0.0018 0.0061 0.0120 8.8064 -0.0030 -0.0008
# 5 -0.0031 -0.0034 -0.0074 -0.0030 -3.7525 0.0011
# 6 -0.0001 0.0010 0.0052 -0.0008 0.0011 32.1141
#
#
#
# Elastic Compliance Matrix: (Units=1/GPa)
#
#
# Indices 1 2 3 4 5 6 
#
# 1 0.006597 -0.004349 -0.001062 0.000003 0.000001 0.000000
# 2 -0.004349 0.013817 0.001970 -0.000011 -0.000013 -0.000001
# 3 -0.001062 0.001970 0.018174 -0.000026 -0.000037 -0.000003
# 4 0.000003 -0.000011 -0.000026 0.113554 -0.000089 0.000003
# 5 0.000001 -0.000013 -0.000037 -0.000089 -0.266491 0.000009
# 6 0.000000 -0.000001 -0.000003 0.000003 0.000009 0.031139
#
#
# Mechanical properties :
#
#
# Convention : Reuss Voigt Hill
#
# Bulk Modulus (GPa) = 31.53903 50.61368 41.07636
# Shear Modulus (GPa) = -76.03430 26.22393 -24.90518
#
# Velocity S-wave (km/s) = -6.18800 3.63408 -3.54152
# Velocity P-wave (km/s) = 5.93059 6.56491 1.99075
#
# Compressibility (1/GPa) = 0.03170675
#
# Stress axis : x y z
#
# Youngs Moduli (GPa) = 151.58181 72.37672 55.02275
#
# Poissons Ratio (x) = 0.31474 0.05845
# Poissons Ratio (y) = 0.65917 -0.10841
# Poissons Ratio (z) = 0.16103 -0.14261
#
# Static dielectric constant tensor:
#      x y z
#    x 1.687910 0.000000 0.000000 
#    y 0.000000 1.665510 0.000000 
#    z 0.000000 0.000000 2.090040 
# 
# From -- ./inp_files/6199.got.cif
#   From: 2010.05.17/outbox.cif.g08.bks.cpg/sg71_4_cif.got.tgz:6199.got - 2010.06.03 16:22:01.
