data_PCOD9521110
_publ_section_title
;
Structure prediction by ZEFSAII (Michael W. Deem and Ramdas Pophale) SiO2 
 PCOD9521110
Probable space group: I M M M
;
_chemical_formula_sum "Si O2"
_cell_formula_units_Z 112
_cell_length_a 22.910051
_cell_length_b 15.326036
_cell_length_c 14.949438
_cell_angle_alpha 90.000000
_cell_angle_beta 90.000000
_cell_angle_gamma 90.000000
_cell_volume 5249.050653
_symmetry_space_group_name_H-M "I M M M"
_symmetry_group_IT_number 71
_symmetry_cell_setting 'orthorhombic'
loop_
_space_group_symop_operation_xyz
x,y,z
-x,-y,z
x,-y,-z
-x,y,-z
-x,-y,-z
x,y,-z
-x,y,z
x,-y,z
1/2+x,1/2+y,1/2+z
1/2-x,1/2-y,1/2+z
1/2+x,1/2-y,1/2-z
1/2-x,1/2+y,1/2-z
1/2-x,1/2-y,1/2-z
1/2+x,1/2+y,1/2-z
1/2-x,1/2+y,1/2+z
1/2+x,1/2-y,1/2+z
loop_
_atom_site_type_symbol
_atom_site_label
_atom_site_fract_x
_atom_site_fract_y
_atom_site_fract_z
Si Si1 0.834986 0.098354 0.603759
Si Si2 0.698047 0.864022 0.400324
Si Si3 0.313943 0.664474 0.403146
Si Si4 0.937429 0.215414 0.322555
Si Si5 0.063651 0.901132 0.848720
Si Si6 0.212147 0.403364 0.297165
Si Si7 0.593283 0.100863 0.894094
O O1 0.849128 0.089710 0.500000
O O2 0.768577 0.131750 0.607440
O O3 0.880459 0.167947 0.639816
O O4 0.837881 0.000000 0.643814
O O5 0.684877 0.902871 0.500000
O O6 0.673522 0.767031 0.403770
O O7 0.682725 0.897895 0.301128
O O8 0.286288 0.642209 0.500000
O O9 0.374392 0.612667 0.395873
O O10 0.268047 0.653799 0.322446
O O11 0.937860 0.177179 0.222774
O O12 0.933708 0.318947 0.338695
O O13 0.000000 0.186494 0.363223
O O14 0.000000 0.896716 0.896098
O O15 0.065210 0.000000 0.809268
O O16 0.236513 0.500000 0.305991
O O17 0.161664 0.391626 0.369960
O O18 0.575956 0.000000 0.872788
O O19 0.582811 0.114279 0.000000
#
# Coordination Sequence:
#
# PCOD9521110 Si02
#       7
#    16  16  16  16  16  16  16
#     4  10  20  33  51  79 116 152 185 229 287 346
#     4  10  21  37  58  84 115 152 193 240 296 355
#     4  11  22  36  58  85 114 154 203 248 290 345
#     4  11  22  37  58  80 107 150 202 248 291 346
#     4  10  22  39  58  83 118 158 198 245 301 354
#     4  11  21  34  56  82 111 146 185 237 296 352
#     4  10  22  39  58  84 119 156 196 247 306 359
#
# _framework density 21.337191000000001
#
# number of rings (size 3 to 8) (size 9 to 14) (size 15 to 20)
#    0.000    1.571    0.000    5.143    0.000    6.286 
#    0.000    2.143    0.000    0.000    0.000    0.000 
#    0.000    0.000    0.000   39.286    0.000    0.286 
#
# Total GULP energy -311811.226211 kJ/mol
# GULP energy per Si atom -5568.057611 kJ/mol
# Density = 2.128863 g / cm^3
# Si number density = 21.337191 Si / 1000 Ang^3
#
#
#
# Elastic Constant Matrix: (Units=GPa)
#
#
# Indices 1 2 3 4 5 6 
#
# 1 47.4154 36.5266 6.2808 0.0000 0.0000 0.0000
# 2 36.5266 119.8409 25.9907 0.0000 0.0000 0.0000
# 3 6.2808 25.9907 83.5932 0.0000 0.0000 0.0000
# 4 0.0000 0.0000 0.0000 21.9833 0.0000 0.0000
# 5 0.0000 0.0000 0.0000 0.0000 0.6490 0.0000
# 6 0.0000 0.0000 0.0000 0.0000 0.0000 10.1386
#
#
#
# Elastic Compliance Matrix: (Units=1/GPa)
#
#
# Indices 1 2 3 4 5 6 
#
# 1 0.027588 -0.008535 0.000581 0.000000 0.000000 0.000000
# 2 -0.008535 0.011588 -0.002962 0.000000 0.000000 0.000000
# 3 0.000581 -0.002962 0.012840 0.000000 0.000000 0.000000
# 4 0.000000 0.000000 0.000000 0.045489 0.000000 0.000000
# 5 0.000000 0.000000 0.000000 0.000000 1.540736 0.000000
# 6 0.000000 0.000000 0.000000 0.000000 0.000000 0.098633
#
#
# Mechanical properties :
#
#
# Convention : Reuss Voigt Hill
#
# Bulk Modulus (GPa) = 33.12925 43.16063 38.14494
# Shear Modulus (GPa) = 2.82683 18.69095 10.75889
#
# Velocity S-wave (km/s) = 1.15226 2.96291 2.24795
# Velocity P-wave (km/s) = 4.16299 5.65481 4.96525
#
# Compressibility (1/GPa) = 0.03018481
#
# Stress axis : x y z
#
# Youngs Moduli (GPa) = 36.24782 86.29638 77.88219
#
# Poissons Ratio (x) = 0.73650 -0.04523
# Poissons Ratio (y) = 0.30936 0.23066
# Poissons Ratio (z) = -0.02105 0.25558
#
# Static dielectric constant tensor:
#      x y z
#    x 1.774370 0.000000 0.000000 
#    y 0.000000 1.794090 0.000000 
#    z 0.000000 0.000000 1.839570 
# 
# From -- ./inp_files/39271.got.cif
#   From: 2010.05.17/outbox.cif.g08.bks.cpg/sg71_20_cif.got.tgz:39271.got - 2010.06.03 16:22:01.
