data_PCOD9521926
_publ_section_title
;
Structure prediction by ZEFSAII (Michael W. Deem and Ramdas Pophale) SiO2 
 PCOD9521926
Probable space group: I M M M
;
_chemical_formula_sum "Si O2"
_cell_formula_units_Z 104
_cell_length_a 28.542912
_cell_length_b 8.093353
_cell_length_c 21.997648
_cell_angle_alpha 90.000000
_cell_angle_beta 90.000000
_cell_angle_gamma 90.000000
_cell_volume 5081.629644
_symmetry_space_group_name_H-M "I M M M"
_symmetry_group_IT_number 71
_symmetry_cell_setting 'orthorhombic'
loop_
_space_group_symop_operation_xyz
x,y,z
-x,-y,z
x,-y,-z
-x,y,-z
-x,-y,-z
x,y,-z
-x,y,z
x,-y,z
1/2+x,1/2+y,1/2+z
1/2-x,1/2-y,1/2+z
1/2+x,1/2-y,1/2-z
1/2-x,1/2+y,1/2-z
1/2-x,1/2-y,1/2-z
1/2+x,1/2+y,1/2-z
1/2-x,1/2+y,1/2+z
1/2+x,1/2-y,1/2+z
loop_
_atom_site_type_symbol
_atom_site_label
_atom_site_fract_x
_atom_site_fract_y
_atom_site_fract_z
Si Si1 0.444177 0.810809 0.500000
Si Si2 0.947217 0.807303 0.572391
Si Si3 0.127008 0.312686 0.342327
Si Si4 0.704513 0.198998 0.069091
Si Si5 0.811386 0.302118 0.930528
Si Si6 0.095886 0.809446 0.126307
Si Si7 0.947056 0.305588 0.247825
O O1 0.500000 0.814473 0.500000
O O2 0.427065 0.724953 0.561075
O O3 0.426021 0.000000 0.500000
O O4 0.945785 0.793309 0.500000
O O5 0.910405 0.689333 0.603143
O O6 0.000000 0.769908 0.592867
O O7 0.937205 0.000000 0.587337
O O8 0.139643 0.500000 0.323386
O O9 0.172212 0.235735 0.375798
O O10 0.095695 0.233890 0.288501
O O11 0.758763 0.240296 0.080023
O O12 0.698834 0.000000 0.068170
O O13 0.692450 0.259014 0.000000
O O14 0.811618 0.500000 0.928830
O O15 0.849811 0.237147 0.883608
O O16 0.824055 0.249948 0.000000
O O17 0.069041 0.709835 0.178269
O O18 0.091561 0.000000 0.142581
O O19 0.949487 0.500000 0.263937
O O20 0.000000 0.237104 0.256027
#
# Coordination Sequence:
#
# PCOD9521926 Si02
#       7
#     8  16  16  16  16  16  16
#     4  11  23  39  61  89 121 153 185 227 282 343
#     4   9  18  31  47  71 105 143 183 233 292 348
#     4  10  20  35  56  81 109 148 195 241 289 340
#     4   9  18  33  55  85 120 150 185 239 296 342
#     4  10  20  36  60  87 116 150 188 230 285 350
#     4  12  24  38  60  88 117 149 189 236 287 341
#     4  10  22  40  59  80 113 156 198 239 286 344
#
# _framework density 20.465876999999999
#
# number of rings (size 3 to 8) (size 9 to 14) (size 15 to 20)
#    0.000    1.923    0.769    3.923    0.000    6.462 
#    0.000    3.077    0.000    0.000    0.000    0.000 
#    0.000    0.000    0.000    0.000    0.000    0.000 
#
# Total GULP energy -290125.712519 kJ/mol
# GULP energy per Si atom -5579.340625 kJ/mol
# Density = 2.041930 g / cm^3
# Si number density = 20.465877 Si / 1000 Ang^3
#
#
#
# Elastic Constant Matrix: (Units=GPa)
#
#
# Indices 1 2 3 4 5 6 
#
# 1 100.1585 -0.4702 48.3825 0.0000 0.0000 0.0000
# 2 -0.4702 23.2074 -8.6639 0.0000 0.0000 0.0000
# 3 48.3825 -8.6639 82.3389 0.0000 0.0000 0.0000
# 4 0.0000 0.0000 0.0000 10.9975 0.0000 0.0000
# 5 0.0000 0.0000 0.0000 0.0000 49.2593 0.0000
# 6 0.0000 0.0000 0.0000 0.0000 0.0000 20.8156
#
#
#
# Elastic Compliance Matrix: (Units=1/GPa)
#
#
# Indices 1 2 3 4 5 6 
#
# 1 0.014130 -0.002928 -0.008611 0.000000 0.000000 0.000000
# 2 -0.002928 0.045458 0.006504 0.000000 0.000000 0.000000
# 3 -0.008611 0.006504 0.017889 0.000000 0.000000 0.000000
# 4 0.000000 0.000000 0.000000 0.090930 0.000000 0.000000
# 5 0.000000 0.000000 0.000000 0.000000 0.020301 0.000000
# 6 0.000000 0.000000 0.000000 0.000000 0.000000 0.048041
#
#
# Mechanical properties :
#
#
# Convention : Reuss Voigt Hill
#
# Bulk Modulus (GPa) = 14.83532 31.57796 23.20664
# Shear Modulus (GPa) = 18.56744 27.31158 22.93951
#
# Velocity S-wave (km/s) = 3.01531 3.65703 3.35157
# Velocity P-wave (km/s) = 4.40310 5.77018 5.13236
#
# Compressibility (1/GPa) = 0.06740670
#
# Stress axis : x y z
#
# Youngs Moduli (GPa) = 70.77122 21.99815 55.89996
#
# Poissons Ratio (x) = 0.06442 0.48135
# Poissons Ratio (y) = 0.20725 -0.36357
# Poissons Ratio (z) = 0.60941 -0.14308
#
# Static dielectric constant tensor:
#      x y z
#    x 1.743410 0.000000 0.000000 
#    y 0.000000 1.742620 0.000000 
#    z 0.000000 0.000000 1.723430 
# 
# From -- ./inp_files/56207.got.cif
#   From: 2010.05.17/outbox.cif.g08.bks.cpg/sg71_29_cif.got.tgz:56207.got - 2010.06.03 16:22:01.
