data_PCOD9521115
_publ_section_title
;
Structure prediction by ZEFSAII (Michael W. Deem and Ramdas Pophale) SiO2 
 PCOD9521115
Probable space group: I M M M
;
_chemical_formula_sum "Si O2"
_cell_formula_units_Z 88
_cell_length_a 24.034323
_cell_length_b 10.990164
_cell_length_c 16.664809
_cell_angle_alpha 90.000000
_cell_angle_beta 90.000000
_cell_angle_gamma 90.000000
_cell_volume 4401.861837
_symmetry_space_group_name_H-M "I M M M"
_symmetry_group_IT_number 71
_symmetry_cell_setting 'orthorhombic'
loop_
_space_group_symop_operation_xyz
x,y,z
-x,-y,z
x,-y,-z
-x,y,-z
-x,-y,-z
x,y,-z
-x,y,z
x,-y,z
1/2+x,1/2+y,1/2+z
1/2-x,1/2-y,1/2+z
1/2+x,1/2-y,1/2-z
1/2-x,1/2+y,1/2-z
1/2-x,1/2-y,1/2-z
1/2+x,1/2+y,1/2-z
1/2-x,1/2+y,1/2+z
1/2+x,1/2-y,1/2+z
loop_
_atom_site_type_symbol
_atom_site_label
_atom_site_fract_x
_atom_site_fract_y
_atom_site_fract_z
Si Si1 0.933518 0.370963 0.500000
Si Si2 0.565357 0.140189 0.330202
Si Si3 0.132247 0.864512 0.096621
Si Si4 0.832451 0.868764 0.402705
Si Si5 0.435877 0.729930 0.162190
Si Si6 0.261596 0.865984 0.097458
O O1 0.904310 0.500000 0.500000
O O2 0.922404 0.304267 0.581813
O O3 0.000000 0.383695 0.500000
O O4 0.500000 0.144890 0.353018
O O5 0.598339 0.247712 0.374232
O O6 0.568638 0.180073 0.237082
O O7 0.584201 0.000000 0.342095
O O8 0.196925 0.853945 0.121286
O O9 0.111862 0.000000 0.123153
O O10 0.130855 0.865027 0.000000
O O11 0.844322 0.861210 0.500000
O O12 0.887389 0.867792 0.346830
O O13 0.796513 0.751717 0.378274
O O14 0.803810 0.000000 0.391970
O O15 0.500000 0.685076 0.159304
O O16 0.281739 0.000000 0.124496
O O17 0.262772 0.866567 0.000000
#
# Coordination Sequence:
#
# PCOD9521115 Si02
#       6
#     8  16  16  16  16  16
#     4   9  16  28  49  73  97 135 187 229 260 307
#     4  10  22  38  56  83 118 149 182 229 280 329
#     4   9  19  38  63  87 111 142 184 228 274 337
#     4  10  20  33  51  81 115 145 184 232 279 329
#     4  10  20  35  52  75 110 152 190 228 275 324
#     4   8  16  33  56  81 107 139 180 227 277 327
#
# _framework density 19.991541000000002
#
# number of rings (size 3 to 8) (size 9 to 14) (size 15 to 20)
#    0.000    2.636    0.909    1.636    0.000    6.545 
#    0.000    7.273    0.000    0.000    0.000    0.000 
#    0.000    0.000    0.000    0.000    0.000    0.000 
#
# Total GULP energy -245022.804247 kJ/mol
# GULP energy per Si atom -5568.700097 kJ/mol
# Density = 1.994604 g / cm^3
# Si number density = 19.991541 Si / 1000 Ang^3
#
#
#
# Elastic Constant Matrix: (Units=GPa)
#
#
# Indices 1 2 3 4 5 6 
#
# 1 72.3770 88.8629 21.4415 0.0000 0.0000 0.0000
# 2 88.8629 214.2355 32.6002 0.0000 0.0000 0.0000
# 3 21.4415 32.6002 26.8671 0.0000 0.0000 0.0000
# 4 0.0000 0.0000 0.0000 11.4822 0.0000 0.0000
# 5 0.0000 0.0000 0.0000 0.0000 14.1485 0.0000
# 6 0.0000 0.0000 0.0000 0.0000 0.0000 27.2870
#
#
#
# Elastic Compliance Matrix: (Units=1/GPa)
#
#
# Indices 1 2 3 4 5 6 
#
# 1 0.030623 -0.011018 -0.011070 0.000000 0.000000 0.000000
# 2 -0.011018 0.009689 -0.002963 0.000000 0.000000 0.000000
# 3 -0.011070 -0.002963 0.049651 0.000000 0.000000 0.000000
# 4 0.000000 0.000000 0.000000 0.087091 0.000000 0.000000
# 5 0.000000 0.000000 0.000000 0.000000 0.070679 0.000000
# 6 0.000000 0.000000 0.000000 0.000000 0.000000 0.036647
#
#
# Mechanical properties :
#
#
# Convention : Reuss Voigt Hill
#
# Bulk Modulus (GPa) = 25.08791 66.58763 45.83777
# Shear Modulus (GPa) = 14.37728 21.95522 18.16625
#
# Velocity S-wave (km/s) = 2.68464 3.31754 3.01773
# Velocity P-wave (km/s) = 4.71023 6.93217 5.92627
#
# Compressibility (1/GPa) = 0.03985983
#
# Stress axis : x y z
#
# Youngs Moduli (GPa) = 32.65468 103.21230 20.14061
#
# Poissons Ratio (x) = 1.13717 0.22297
# Poissons Ratio (y) = 0.35978 0.05969
# Poissons Ratio (z) = 0.36150 0.30586
#
# Static dielectric constant tensor:
#      x y z
#    x 1.730520 0.000000 0.000000 
#    y 0.000000 1.805780 0.000000 
#    z 0.000000 0.000000 1.696550 
# 
# From -- ./inp_files/39029.got.cif
#   From: 2010.05.17/outbox.cif.g08.bks.cpg/sg71_20_cif.got.tgz:39029.got - 2010.06.03 16:22:01.
