data_PCOD9521418
_publ_section_title
;
Structure prediction by ZEFSAII (Michael W. Deem and Ramdas Pophale) SiO2 
 PCOD9521418
Probable space group: I M M M
;
_chemical_formula_sum "Si O2"
_cell_formula_units_Z 72
_cell_length_a 33.802851
_cell_length_b 14.263214
_cell_length_c 7.770370
_cell_angle_alpha 90.000000
_cell_angle_beta 90.000000
_cell_angle_gamma 90.000000
_cell_volume 3746.385193
_symmetry_space_group_name_H-M "I M M M"
_symmetry_group_IT_number 71
_symmetry_cell_setting 'orthorhombic'
loop_
_space_group_symop_operation_xyz
x,y,z
-x,-y,z
x,-y,-z
-x,y,-z
-x,-y,-z
x,y,-z
-x,y,z
x,-y,z
1/2+x,1/2+y,1/2+z
1/2-x,1/2-y,1/2+z
1/2+x,1/2-y,1/2-z
1/2-x,1/2+y,1/2-z
1/2-x,1/2-y,1/2-z
1/2+x,1/2+y,1/2-z
1/2-x,1/2+y,1/2+z
1/2+x,1/2-y,1/2+z
loop_
_atom_site_type_symbol
_atom_site_label
_atom_site_fract_x
_atom_site_fract_y
_atom_site_fract_z
Si Si1 0.772866 0.104731 0.294092
Si Si2 0.548109 0.393873 0.000000
Si Si3 0.546579 0.257436 0.304659
Si Si4 0.308821 0.202864 0.791747
Si Si5 0.109659 0.391859 0.291032
O O1 0.778379 0.101104 0.500000
O O2 0.727802 0.137014 0.260501
O O3 0.799429 0.191578 0.228797
O O4 0.780148 0.000000 0.225251
O O5 0.560034 0.335075 0.167455
O O6 0.563004 0.500000 0.000000
O O7 0.500000 0.397897 0.000000
O O8 0.550983 0.291041 0.500000
O O9 0.500000 0.238748 0.274258
O O10 0.572152 0.164807 0.276620
O O11 0.350337 0.160481 0.733809
O O12 0.309271 0.205068 0.000000
O O13 0.108584 0.389401 0.500000
O O14 0.110056 0.500000 0.237600
#
# Coordination Sequence:
#
# PCOD9521418 Si02
#       5
#    16   8  16  16  16
#     4   9  17  30  49  73 102 137 176 219 272 329
#     4   9  18  36  61  85 111 145 184 226 277 333
#     4  10  21  37  58  85 116 148 187 235 282 334
#     4   9  18  32  50  73 104 138 178 226 272 326
#     4  10  20  34  53  76 108 148 189 234 284 339
#
# _framework density 19.218526000000001
#
# number of rings (size 3 to 8) (size 9 to 14) (size 15 to 20)
#    0.000    2.556    1.111    0.667    0.000    3.556 
#    0.000    5.556    0.000    0.000    0.000    0.000 
#    0.000    0.000    0.000    0.000    0.000    0.000 
#
# Total GULP energy -200872.349244 kJ/mol
# GULP energy per Si atom -5579.787479 kJ/mol
# Density = 1.917478 g / cm^3
# Si number density = 19.218526 Si / 1000 Ang^3
#
#
#
# Elastic Constant Matrix: (Units=GPa)
#
#
# Indices 1 2 3 4 5 6 
#
# 1 70.4045 69.8565 37.0747 0.0000 0.0000 0.0000
# 2 69.8565 187.8801 49.5459 0.0000 0.0000 0.0000
# 3 37.0747 49.5459 58.2704 0.0000 -0.0001 0.0000
# 4 0.0000 0.0000 0.0000 3.3537 0.0000 0.0000
# 5 0.0000 0.0000 -0.0001 0.0000 20.3204 0.0000
# 6 0.0000 0.0000 0.0000 0.0000 0.0000 20.8127
#
#
#
# Elastic Compliance Matrix: (Units=1/GPa)
#
#
# Indices 1 2 3 4 5 6 
#
# 1 0.027223 -0.007160 -0.011233 0.000000 0.000000 0.000000
# 2 -0.007160 0.008744 -0.002879 0.000000 0.000000 0.000000
# 3 -0.011233 -0.002879 0.026757 0.000000 0.000000 0.000000
# 4 0.000000 0.000000 0.000000 0.298182 0.000000 0.000000
# 5 0.000000 0.000000 0.000000 0.000000 0.049212 0.000000
# 6 0.000000 0.000000 0.000000 0.000000 0.000000 0.048047
#
#
# Mechanical properties :
#
#
# Convention : Reuss Voigt Hill
#
# Bulk Modulus (GPa) = 49.55539 69.94545 59.75042
# Shear Modulus (GPa) = 9.85349 19.56922 14.71135
#
# Velocity S-wave (km/s) = 2.26676 3.19446 2.76973
# Velocity P-wave (km/s) = 5.71770 7.07672 6.43320
#
# Compressibility (1/GPa) = 0.02017944
#
# Stress axis : x y z
#
# Youngs Moduli (GPa) = 36.73409 114.36541 37.37388
#
# Poissons Ratio (x) = 0.81880 0.41982
# Poissons Ratio (y) = 0.26300 0.10762
# Poissons Ratio (z) = 0.41263 0.32931
#
# Static dielectric constant tensor:
#      x y z
#    x 1.642550 0.000000 0.000000 
#    y 0.000000 1.662260 0.000000 
#    z 0.000000 0.000000 1.705720 
# 
# From -- ./inp_files/6432.got.cif
#   From: 2010.05.17/outbox.cif.g08.bks.cpg/sg71_4_cif.got.tgz:6432.got - 2010.06.03 16:22:01.
