data_PCOD9521380
_publ_section_title
;
Structure prediction by ZEFSAII (Michael W. Deem and Ramdas Pophale) SiO2 
 PCOD9521380
Probable space group: I M M M
;
_chemical_formula_sum "Si O2"
_cell_formula_units_Z 120
_cell_length_a 25.339740
_cell_length_b 29.303664
_cell_length_c 8.094103
_cell_angle_alpha 90.000000
_cell_angle_beta 90.000000
_cell_angle_gamma 90.000000
_cell_volume 6010.253736
_symmetry_space_group_name_H-M "I M M M"
_symmetry_group_IT_number 71
_symmetry_cell_setting 'orthorhombic'
loop_
_space_group_symop_operation_xyz
x,y,z
-x,-y,z
x,-y,-z
-x,y,-z
-x,-y,-z
x,y,-z
-x,y,z
x,-y,z
1/2+x,1/2+y,1/2+z
1/2-x,1/2-y,1/2+z
1/2+x,1/2-y,1/2-z
1/2-x,1/2+y,1/2-z
1/2-x,1/2-y,1/2-z
1/2+x,1/2+y,1/2-z
1/2-x,1/2+y,1/2+z
1/2+x,1/2-y,1/2+z
loop_
_atom_site_type_symbol
_atom_site_label
_atom_site_fract_x
_atom_site_fract_y
_atom_site_fract_z
Si Si1 0.936868 0.279173 0.690033
Si Si2 0.275700 0.702798 0.697707
Si Si3 0.372437 0.587280 0.302819
Si Si4 0.892527 0.814025 0.691134
Si Si5 0.149155 0.551390 0.301559
Si Si6 0.752611 0.102967 0.799320
Si Si7 0.938848 0.000000 0.797174
Si Si8 0.939711 0.378483 0.195191
O O1 0.917456 0.280139 0.500000
O O2 0.919618 0.230960 0.766153
O O3 0.920467 0.326768 0.770811
O O4 0.000000 0.279324 0.689181
O O5 0.285268 0.702694 0.500000
O O6 0.250000 0.750000 0.750000
O O7 0.330769 0.696746 0.790660
O O8 0.243603 0.656579 0.737111
O O9 0.368523 0.582271 0.500000
O O10 0.399343 0.636149 0.268611
O O11 0.311588 0.589315 0.240239
O O12 0.406990 0.544962 0.241375
O O13 0.908790 0.817338 0.500000
O O14 0.153824 0.549148 0.500000
O O15 0.140747 0.500000 0.238989
O O16 0.204270 0.572593 0.237845
O O17 0.100765 0.584802 0.264465
O O18 0.753828 0.099175 0.000000
O O19 0.000000 0.000000 0.745243
O O20 0.939013 0.000000 0.000000
O O21 0.000000 0.382971 0.262034
O O22 0.942294 0.384814 0.000000
#
# Coordination Sequence:
#
# PCOD9521380 Si02
#       8
#    16  16  16  16  16  16   8  16
#     4   9  19  36  57  79 105 142 185 225 268 322
#     4  10  20  34  52  78 112 146 181 220 268 327
#     4   9  18  34  55  78 110 150 187 228 277 330
#     4  10  20  34  53  78 109 143 182 226 276 329
#     4  10  21  36  57  83 106 134 182 233 273 323
#     4   8  17  33  52  77 106 139 179 222 267 314
#     4   9  18  32  55  87 115 145 190 237 282 332
#     4  10  22  39  57  79 109 142 175 217 275 336
#
# _framework density 19.965879999999999
#
# number of rings (size 3 to 8) (size 9 to 14) (size 15 to 20)
#    0.000    2.600    0.000    2.000    2.800    2.933 
#    0.000    4.333    0.000    0.400    0.000    0.000 
#    0.000    0.000    0.000    0.000    0.000    0.000 
#
# Total GULP energy -334527.078722 kJ/mol
# GULP energy per Si atom -5575.451312 kJ/mol
# Density = 1.992044 g / cm^3
# Si number density = 19.965880 Si / 1000 Ang^3
#
#
#
# Elastic Constant Matrix: (Units=GPa)
#
#
# Indices 1 2 3 4 5 6 
#
# 1 86.5261 96.9783 7.9061 0.0000 0.0000 0.0000
# 2 96.9783 207.3836 9.0079 0.0000 0.0000 0.0000
# 3 7.9061 9.0079 12.8712 0.0000 0.0000 0.0000
# 4 0.0000 0.0000 0.0000 22.8226 0.0000 0.0000
# 5 0.0000 0.0000 0.0000 0.0000 14.0447 0.0000
# 6 0.0000 0.0000 0.0000 0.0000 0.0000 36.3294
#
#
#
# Elastic Compliance Matrix: (Units=1/GPa)
#
#
# Indices 1 2 3 4 5 6 
#
# 1 0.024948 -0.011346 -0.007384 0.000000 0.000000 0.000000
# 2 -0.011346 0.010133 -0.000122 0.000000 0.000000 0.000000
# 3 -0.007384 -0.000122 0.082314 0.000000 0.000000 0.000000
# 4 0.000000 0.000000 0.000000 0.043816 0.000000 0.000000
# 5 0.000000 0.000000 0.000000 0.000000 0.071201 0.000000
# 6 0.000000 0.000000 0.000000 0.000000 0.000000 0.027526
#
#
# Mechanical properties :
#
#
# Convention : Reuss Voigt Hill
#
# Bulk Modulus (GPa) = 12.54849 59.39616 35.97233
# Shear Modulus (GPa) = 15.42227 27.49859 21.46043
#
# Velocity S-wave (km/s) = 2.78228 3.71520 3.28206
# Velocity P-wave (km/s) = 4.07677 6.94385 5.69373
#
# Compressibility (1/GPa) = 0.07969084
#
# Stress axis : x y z
#
# Youngs Moduli (GPa) = 40.08308 98.68869 12.14857
#
# Poissons Ratio (x) = 1.11969 0.08971
# Poissons Ratio (y) = 0.45477 0.00149
# Poissons Ratio (z) = 0.29598 0.01208
#
# Static dielectric constant tensor:
#      x y z
#    x 1.707800 0.000000 0.000000 
#    y 0.000000 1.712940 0.000000 
#    z 0.000000 0.000000 1.728910 
# 
# From -- ./inp_files/15625.got.cif
#   From: 2010.05.17/outbox.cif.g08.bks.cpg/sg71_8_cif.got.tgz:15625.got - 2010.06.03 16:22:01.
