data_PCOD9521517
_publ_section_title
;
Structure prediction by ZEFSAII (Michael W. Deem and Ramdas Pophale) SiO2 
 PCOD9521517
Probable space group: I M M M
;
_chemical_formula_sum "Si O2"
_cell_formula_units_Z 104
_cell_length_a 26.548966
_cell_length_b 22.465736
_cell_length_c 7.423348
_cell_angle_alpha 90.000000
_cell_angle_beta 90.000000
_cell_angle_gamma 90.000000
_cell_volume 4427.596982
_symmetry_space_group_name_H-M "I M M M"
_symmetry_group_IT_number 71
_symmetry_cell_setting 'orthorhombic'
loop_
_space_group_symop_operation_xyz
x,y,z
-x,-y,z
x,-y,-z
-x,y,-z
-x,-y,-z
x,y,-z
-x,y,z
x,-y,z
1/2+x,1/2+y,1/2+z
1/2-x,1/2-y,1/2+z
1/2+x,1/2-y,1/2-z
1/2-x,1/2+y,1/2-z
1/2-x,1/2-y,1/2-z
1/2+x,1/2+y,1/2-z
1/2-x,1/2+y,1/2+z
1/2+x,1/2-y,1/2+z
loop_
_atom_site_type_symbol
_atom_site_label
_atom_site_fract_x
_atom_site_fract_y
_atom_site_fract_z
Si Si1 0.289904 0.351057 0.720275
Si Si2 0.444129 0.320581 0.210557
Si Si3 0.500000 0.930855 0.278956
Si Si4 0.796942 0.565010 0.717336
Si Si5 0.349342 0.757085 0.704170
Si Si6 0.396157 0.875635 0.290030
Si Si7 0.115528 0.932401 0.217282
O O1 0.289876 0.348419 0.500000
O O2 0.237843 0.380426 0.779740
O O3 0.306468 0.285671 0.785516
O O4 0.333890 0.397440 0.773342
O O5 0.500000 0.307870 0.280464
O O6 0.399058 0.284597 0.301473
O O7 0.430480 0.390124 0.227800
O O8 0.442727 0.304730 0.000000
O O9 0.500000 0.931057 0.500000
O O10 0.449458 0.897420 0.217245
O O11 0.500000 0.000000 0.224360
O O12 0.795942 0.565956 0.500000
O O13 0.777484 0.500000 0.773983
O O14 0.854112 0.573641 0.777367
O O15 0.333210 0.770991 0.500000
O O16 0.368842 0.817715 0.792133
O O17 0.405437 0.861063 0.500000
O O18 0.113395 0.000000 0.282371
O O19 0.116412 0.934028 0.000000
#
# Coordination Sequence:
#
# PCOD9521517 Si02
#       7
#    16  16   8  16  16  16  16
#     4   8  15  31  53  77 105 138 174 216 262 312
#     4  10  21  34  48  70 103 140 174 217 275 329
#     4   9  18  34  55  77 105 141 174 211 266 323
#     4  10  20  34  54  79 108 143 178 211 258 322
#     4   9  19  35  56  79 102 133 180 227 266 313
#     4  10  21  36  56  82 107 136 176 224 273 319
#     4   9  17  31  52  75  99 134 182 228 267 312
#
# _framework density 23.489038999999998
#
# number of rings (size 3 to 8) (size 9 to 14) (size 15 to 20)
#    0.000    2.692    0.000    2.308    1.077    5.846 
#    0.000    5.000    0.000    5.077    0.000    0.000 
#    0.000    0.000    0.000    0.000    0.000    0.000 
#
# Total GULP energy -290420.416663 kJ/mol
# GULP energy per Si atom -5585.008013 kJ/mol
# Density = 2.343558 g / cm^3
# Si number density = 23.489039 Si / 1000 Ang^3
#
#
#
# Elastic Constant Matrix: (Units=GPa)
#
#
# Indices 1 2 3 4 5 6 
#
# 1 137.4835 46.9608 -1.1018 0.0000 0.0000 0.0000
# 2 46.9608 143.3006 4.1841 0.0000 0.0000 0.0000
# 3 -1.1018 4.1841 81.3679 0.0000 0.0000 0.0000
# 4 0.0000 0.0000 0.0000 -4.6556 0.0000 0.0000
# 5 0.0000 0.0000 0.0000 0.0000 13.6311 0.0000
# 6 0.0000 0.0000 0.0000 0.0000 0.0000 25.6615
#
#
#
# Elastic Compliance Matrix: (Units=1/GPa)
#
#
# Indices 1 2 3 4 5 6 
#
# 1 0.008195 -0.002693 0.000249 0.000000 0.000000 0.000000
# 2 -0.002693 0.007874 -0.000441 0.000000 0.000000 0.000000
# 3 0.000249 -0.000441 0.012316 0.000000 0.000000 0.000000
# 4 0.000000 0.000000 0.000000 -0.214796 0.000000 0.000000
# 5 0.000000 0.000000 0.000000 0.000000 0.073362 0.000000
# 6 0.000000 0.000000 0.000000 0.000000 0.000000 0.038969
#
#
# Mechanical properties :
#
#
# Convention : Reuss Voigt Hill
#
# Bulk Modulus (GPa) = 44.21778 51.35981 47.78880
# Shear Modulus (GPa) = -82.27525 27.73466 -27.27029
#
# Velocity S-wave (km/s) = -5.92479 3.43993 -3.41101
# Velocity P-wave (km/s) = 5.28568 6.13925 2.20816
#
# Compressibility (1/GPa) = 0.02261534
#
# Stress axis : x y z
#
# Youngs Moduli (GPa) = 122.01879 127.00439 81.19562
#
# Poissons Ratio (x) = 0.34202 -0.02025
# Poissons Ratio (y) = 0.32860 0.03584
# Poissons Ratio (z) = -0.03044 0.05605
#
# Static dielectric constant tensor:
#      x y z
#    x 1.856240 0.000000 0.000000 
#    y 0.000000 1.896380 0.000000 
#    z 0.000000 0.000000 1.899530 
# 
# From -- ./inp_files/15021.got.cif
#   From: 2010.05.17/outbox.cif.g08.bks.cpg/sg71_8_cif.got.tgz:15021.got - 2010.06.03 16:22:01.
