data_PCOD9521398
_publ_section_title
;
Structure prediction by ZEFSAII (Michael W. Deem and Ramdas Pophale) SiO2 
 PCOD9521398
Probable space group: I M M M
;
_chemical_formula_sum "Si O2"
_cell_formula_units_Z 96
_cell_length_a 12.100867
_cell_length_b 34.718257
_cell_length_c 13.835067
_cell_angle_alpha 90.000000
_cell_angle_beta 90.000000
_cell_angle_gamma 90.000000
_cell_volume 5812.402327
_symmetry_space_group_name_H-M "I M M M"
_symmetry_group_IT_number 71
_symmetry_cell_setting 'orthorhombic'
loop_
_space_group_symop_operation_xyz
x,y,z
-x,-y,z
x,-y,-z
-x,y,-z
-x,-y,-z
x,y,-z
-x,y,z
x,-y,z
1/2+x,1/2+y,1/2+z
1/2-x,1/2-y,1/2+z
1/2+x,1/2-y,1/2-z
1/2-x,1/2+y,1/2-z
1/2-x,1/2-y,1/2-z
1/2+x,1/2+y,1/2-z
1/2-x,1/2+y,1/2+z
1/2+x,1/2-y,1/2+z
loop_
_atom_site_type_symbol
_atom_site_label
_atom_site_fract_x
_atom_site_fract_y
_atom_site_fract_z
Si Si1 0.633145 0.199120 0.715933
Si Si2 0.214260 0.954959 0.888892
Si Si3 0.867297 0.543397 0.210129
Si Si4 0.365787 0.121513 0.609396
Si Si5 0.000000 0.180045 0.117049
Si Si6 0.279691 0.273559 0.614713
Si Si7 0.000000 0.092511 0.882356
O O1 0.500000 0.202884 0.710792
O O2 0.664286 0.156093 0.681743
O O3 0.690597 0.229904 0.644389
O O4 0.679455 0.210213 0.821304
O O5 0.315354 0.950661 0.815864
O O6 0.110815 0.929823 0.854462
O O7 0.181701 0.000000 0.888567
O O8 0.241717 0.944660 0.000000
O O9 0.835724 0.500000 0.177087
O O10 0.830415 0.579145 0.144363
O O11 0.000000 0.544350 0.215241
O O12 0.328281 0.129460 0.500000
O O13 0.500000 0.121024 0.607689
O O14 0.888939 0.202312 0.144454
O O15 0.000000 0.136294 0.152115
O O16 0.000000 0.179194 0.000000
O O17 0.262282 0.277021 0.500000
O O18 0.000000 0.092501 0.000000
#
# Coordination Sequence:
#
# PCOD9521398 Si02
#       7
#    16  16  16  16   8  16   8
#     4  10  20  34  53  77 102 132 169 206 246 293
#     4   9  17  29  46  68  96 130 164 199 240 287
#     4   9  18  31  46  69  99 127 159 199 246 299
#     4   9  18  32  51  72  94 124 162 204 247 292
#     4   9  18  31  48  71  96 129 166 201 244 289
#     4  10  20  34  53  75 103 136 168 204 245 292
#     4   9  17  28  45  68  94 126 164 203 236 275
#
# _framework density 16.516406
#
# number of rings (size 3 to 8) (size 9 to 14) (size 15 to 20)
#    0.000    2.667    0.833    0.750    2.333    2.667 
#    0.000    3.333    0.000    3.000    0.000    1.750 
#    0.000    2.667    0.000    0.000    0.000    0.000 
#
# Total GULP energy -267315.916016 kJ/mol
# GULP energy per Si atom -5569.081584 kJ/mol
# Density = 1.647881 g / cm^3
# Si number density = 16.516406 Si / 1000 Ang^3
#
#
#
# Elastic Constant Matrix: (Units=GPa)
#
#
# Indices 1 2 3 4 5 6 
#
# 1 22.7579 25.5956 17.5603 0.0003 0.0000 0.0000
# 2 25.5956 107.3396 42.9137 -0.0001 -0.0002 -0.0001
# 3 17.5603 42.9137 73.8648 -0.0003 -0.0004 0.0003
# 4 0.0003 -0.0001 -0.0003 21.9645 -0.0001 0.0001
# 5 0.0000 -0.0002 -0.0004 -0.0001 5.9109 0.0001
# 6 0.0000 -0.0001 0.0003 0.0001 0.0001 13.2699
#
#
#
# Elastic Compliance Matrix: (Units=1/GPa)
#
#
# Indices 1 2 3 4 5 6 
#
# 1 0.063663 -0.011892 -0.008226 -0.000001 -0.000001 0.000000
# 2 -0.011892 0.014356 -0.005513 0.000000 0.000000 0.000000
# 3 -0.008226 -0.005513 0.018697 0.000000 0.000001 0.000000
# 4 -0.000001 0.000000 0.000000 0.045528 0.000001 0.000000
# 5 -0.000001 0.000000 0.000001 0.000001 0.169180 -0.000002
# 6 0.000000 0.000000 0.000000 0.000000 -0.000002 0.075358
#
#
# Mechanical properties :
#
#
# Convention : Reuss Voigt Hill
#
# Bulk Modulus (GPa) = 22.00057 41.78904 31.89480
# Shear Modulus (GPa) = 11.03274 16.08858 13.56066
#
# Velocity S-wave (km/s) = 2.58735 3.12444 2.86849
# Velocity P-wave (km/s) = 4.71966 6.19456 5.50671
#
# Compressibility (1/GPa) = 0.04545337
#
# Stress axis : x y z
#
# Youngs Moduli (GPa) = 15.70771 69.65644 53.48450
#
# Poissons Ratio (x) = 0.82836 0.43996
# Poissons Ratio (y) = 0.18680 0.29488
# Poissons Ratio (z) = 0.12921 0.38405
#
# Static dielectric constant tensor:
#      x y z
#    x 1.535300 0.000000 0.000000 
#    y 0.000000 1.577990 0.000000 
#    z 0.000000 0.000000 1.548550 
# 
# From -- ./inp_files/33205.got.cif
#   From: 2010.05.17/outbox.cif.g08.bks.cpg/sg71_17_cif.got.tgz:33205.got - 2010.06.03 16:22:01.
