data_PCOD9521831
_publ_section_title
;
Structure prediction by ZEFSAII (Michael W. Deem and Ramdas Pophale) SiO2 
 PCOD9521831
Probable space group: I M M M
;
_chemical_formula_sum "Si O2"
_cell_formula_units_Z 58
_cell_length_a 14.959120
_cell_length_b 26.282459
_cell_length_c 8.785717
_cell_angle_alpha 90.000000
_cell_angle_beta 90.000000
_cell_angle_gamma 90.000000
_cell_volume 3454.214092
_symmetry_space_group_name_H-M "I M M M"
_symmetry_group_IT_number 71
_symmetry_cell_setting 'orthorhombic'
loop_
_space_group_symop_operation_xyz
x,y,z
-x,-y,z
x,-y,-z
-x,y,-z
-x,-y,-z
x,y,-z
-x,y,z
x,-y,z
1/2+x,1/2+y,1/2+z
1/2-x,1/2-y,1/2+z
1/2+x,1/2-y,1/2-z
1/2-x,1/2+y,1/2-z
1/2-x,1/2-y,1/2-z
1/2+x,1/2+y,1/2-z
1/2-x,1/2+y,1/2+z
1/2+x,1/2-y,1/2+z
loop_
_atom_site_type_symbol
_atom_site_label
_atom_site_fract_x
_atom_site_fract_y
_atom_site_fract_z
Si Si1 0.500000 0.352101 0.682823
Si Si2 0.804732 0.702425 0.815780
Si Si3 0.313323 0.500000 0.667526
Si Si4 0.500000 0.767890 0.684196
Si Si5 0.500000 0.500000 0.500000
Si Si6 0.684570 0.393277 0.182164
O O1 0.500000 0.358689 0.500000
O O2 0.500000 0.292145 0.721559
O O3 0.410901 0.377166 0.748595
O O4 0.750000 0.750000 0.750000
O O5 0.755693 0.650204 0.772673
O O6 0.907488 0.707094 0.763456
O O7 0.803346 0.706016 0.000000
O O8 0.269883 0.500000 0.500000
O O9 0.419873 0.500000 0.629922
O O10 0.291038 0.448671 0.756033
O O11 0.500000 0.770626 0.500000
O O12 0.678084 0.393947 0.000000
#
# Coordination Sequence:
#
# PCOD9521831 Si02
#       6
#     8  16   8   8   2  16
#     4  11  20  31  53  77 108 151 181 209 257 326
#     4  10  20  35  54  79 107 141 180 218 265 317
#     4  10  21  37  55  74 103 144 184 218 259 332
#     4   9  18  34  53  76 108 145 178 214 257 318
#     4   8  20  36  54  76 100 134 190 212 248 322
#     4  11  22  34  53  80 111 139 179 229 270 306
#
# _framework density 16.791084000000001
#
# number of rings (size 3 to 8) (size 9 to 14) (size 15 to 20)
#    0.414    1.379    2.759    2.483    1.931    1.103 
#    0.000    2.759    0.000    0.828    0.000    5.793 
#    0.000    0.000    0.000    0.000    0.000    0.000 
#
# Total GULP energy -161537.758444 kJ/mol
# GULP energy per Si atom -5570.267533 kJ/mol
# Density = 1.675287 g / cm^3
# Si number density = 16.791084 Si / 1000 Ang^3
#
#
#
# Elastic Constant Matrix: (Units=GPa)
#
#
# Indices 1 2 3 4 5 6 
#
# 1 126.2704 83.1689 26.7876 0.0003 0.0000 -0.0001
# 2 83.1689 172.8660 54.1655 0.0004 -0.0001 -0.0001
# 3 26.7876 54.1655 46.6715 0.0059 -0.0015 -0.0014
# 4 0.0003 0.0004 0.0059 24.6085 -0.0004 -0.0002
# 5 0.0000 -0.0001 -0.0015 -0.0004 10.9974 -0.0005
# 6 -0.0001 -0.0001 -0.0014 -0.0002 -0.0005 3.2319
#
#
#
# Elastic Compliance Matrix: (Units=1/GPa)
#
#
# Indices 1 2 3 4 5 6 
#
# 1 0.011596 -0.005490 -0.000284 0.000000 0.000000 0.000000
# 2 -0.005490 0.011690 -0.010416 0.000002 -0.000001 -0.000004
# 3 -0.000284 -0.010416 0.033678 -0.000008 0.000005 0.000014
# 4 0.000000 0.000002 -0.000008 0.040636 0.000002 0.000003
# 5 0.000000 -0.000001 0.000005 0.000002 0.090930 0.000013
# 6 0.000000 -0.000004 0.000014 0.000003 0.000013 0.309418
#
#
# Mechanical properties :
#
#
# Convention : Reuss Voigt Hill
#
# Bulk Modulus (GPa) = 40.67754 74.89465 57.78609
# Shear Modulus (GPa) = 9.28467 19.87996 14.58231
#
# Velocity S-wave (km/s) = 2.35404 3.44460 2.95015
# Velocity P-wave (km/s) = 5.62734 7.77953 6.78926
#
# Compressibility (1/GPa) = 0.02458359
#
# Stress axis : x y z
#
# Youngs Moduli (GPa) = 86.23853 85.54477 29.69327
#
# Poissons Ratio (x) = 0.46963 0.00844
# Poissons Ratio (y) = 0.47344 0.30928
# Poissons Ratio (z) = 0.02450 0.89102
#
# Static dielectric constant tensor:
#      x y z
#    x 1.550650 0.000000 0.000000 
#    y 0.000000 1.568090 0.000000 
#    z 0.000000 0.000000 1.568130 
# 
# From -- ./inp_files/3431.got.cif
#   From: 2010.05.17/outbox.cif.g08.bks.cpg/sg71_2_cif.got.tgz:3431.got - 2010.06.03 16:22:01.
