data_PCOD9521751
_publ_section_title
;
Structure prediction by ZEFSAII (Michael W. Deem and Ramdas Pophale) SiO2 
 PCOD9521751
Probable space group: I M M M
;
_chemical_formula_sum "Si O2"
_cell_formula_units_Z 90
_cell_length_a 8.211822
_cell_length_b 25.396255
_cell_length_c 22.792535
_cell_angle_alpha 90.000000
_cell_angle_beta 90.000000
_cell_angle_gamma 90.000000
_cell_volume 4753.372360
_symmetry_space_group_name_H-M "I M M M"
_symmetry_group_IT_number 71
_symmetry_cell_setting 'orthorhombic'
loop_
_space_group_symop_operation_xyz
x,y,z
-x,-y,z
x,-y,-z
-x,y,-z
-x,-y,-z
x,y,-z
-x,y,z
x,-y,z
1/2+x,1/2+y,1/2+z
1/2-x,1/2-y,1/2+z
1/2+x,1/2-y,1/2-z
1/2-x,1/2+y,1/2-z
1/2-x,1/2-y,1/2-z
1/2+x,1/2+y,1/2-z
1/2-x,1/2+y,1/2+z
1/2+x,1/2-y,1/2+z
loop_
_atom_site_type_symbol
_atom_site_label
_atom_site_fract_x
_atom_site_fract_y
_atom_site_fract_z
Si Si1 0.803656 0.616864 0.434385
Si Si2 0.808785 0.805084 0.168743
Si Si3 0.309155 0.696726 0.803226
Si Si4 0.000000 0.000000 0.500000
Si Si5 0.810274 0.500000 0.595736
Si Si6 0.309911 0.500000 0.275192
Si Si7 0.688054 0.913957 0.685096
Si Si8 0.815001 0.500000 0.085526
O O1 0.752117 0.634623 0.500000
O O2 0.757739 0.656110 0.381235
O O3 0.742058 0.556594 0.425031
O O4 0.000000 0.614564 0.433919
O O5 0.775946 0.742897 0.160009
O O6 0.743892 0.809945 0.235958
O O7 0.000000 0.815685 0.171425
O O8 0.500000 0.709802 0.799992
O O9 0.281069 0.639381 0.828510
O O10 0.148843 0.000000 0.450779
O O11 0.793564 0.500000 0.665812
O O12 0.000000 0.500000 0.577895
O O13 0.500000 0.500000 0.290273
O O14 0.267700 0.448587 0.236769
O O15 0.500000 0.903028 0.700967
O O16 0.689879 0.949895 0.628040
O O17 0.000000 0.500000 0.059833
#
# Coordination Sequence:
#
# PCOD9521751 Si02
#       8
#    16  16  16   2   8   8  16   8
#     4  10  21  37  57  78 107 146 192 234 274 325
#     4  10  21  36  54  82 112 147 184 226 281 332
#     4  10  20  34  58  85 113 142 182 228 276 341
#     4  12  22  36  68  78 112 160 190 240 282 348
#     4  10  20  35  55  80 109 146 187 231 279 327
#     4  11  21  31  50  81 119 149 183 226 273 339
#     4  10  20  35  55  82 116 148 178 228 285 336
#     4   9  22  38  57  87 115 147 195 236 287 347
#
# _framework density 18.933924999999999
#
# number of rings (size 3 to 8) (size 9 to 14) (size 15 to 20)
#    0.000    1.956    0.000    4.400    3.733    7.111 
#    0.000    0.000    1.956    1.600    0.000    0.000 
#    0.000    0.000    0.000    0.000    0.000    0.000 
#
# Total GULP energy -250555.947604 kJ/mol
# GULP energy per Si atom -5567.909947 kJ/mol
# Density = 1.889083 g / cm^3
# Si number density = 18.933925 Si / 1000 Ang^3
#
#
#
# Elastic Constant Matrix: (Units=GPa)
#
#
# Indices 1 2 3 4 5 6 
#
# 1 62.6198 10.7460 19.2497 0.0000 0.0000 0.0000
# 2 10.7460 118.1370 54.2212 0.0000 0.0000 0.0000
# 3 19.2497 54.2212 94.1859 0.0000 0.0000 0.0000
# 4 0.0000 0.0000 0.0000 -0.2556 0.0000 0.0000
# 5 0.0000 0.0000 0.0000 0.0000 24.6768 0.0000
# 6 0.0000 0.0000 0.0000 0.0000 0.0000 -15.3378
#
#
#
# Elastic Compliance Matrix: (Units=1/GPa)
#
#
# Indices 1 2 3 4 5 6 
#
# 1 0.017040 0.000066 -0.003521 0.000000 0.000000 0.000000
# 2 0.000066 0.011505 -0.006637 0.000000 0.000000 0.000000
# 3 -0.003521 -0.006637 0.015157 0.000000 0.000000 0.000000
# 4 0.000000 0.000000 0.000000 -3.912972 0.000000 0.000002
# 5 0.000000 0.000000 0.000000 0.000000 0.040524 0.000000
# 6 0.000000 0.000000 0.000000 0.000002 0.000000 -0.065199
#
#
# Mechanical properties :
#
#
# Convention : Reuss Voigt Hill
#
# Bulk Modulus (GPa) = 42.51730 49.26405 45.89067
# Shear Modulus (GPa) = -1.29335 14.53174 6.61919
#
# Velocity S-wave (km/s) = -0.82739 2.77338 1.87177
# Velocity P-wave (km/s) = 4.64668 6.02751 5.38157
#
# Compressibility (1/GPa) = 0.02351984
#
# Stress axis : x y z
#
# Youngs Moduli (GPa) = 58.68427 86.92084 65.97453
#
# Poissons Ratio (x) = -0.00572 0.23227
# Poissons Ratio (y) = -0.00386 0.43784
# Poissons Ratio (z) = 0.20660 0.57685
#
# Static dielectric constant tensor:
#      x y z
#    x 1.679440 0.000000 0.000000 
#    y 0.000000 1.651460 0.000000 
#    z 0.000000 0.000000 1.652420 
# 
# From -- ./inp_files/50664.got.cif
#   From: 2010.05.17/outbox.cif.g08.bks.cpg/sg71_26_cif.got.tgz:50664.got - 2010.06.03 16:22:01.
