data_PCOD9521947
_publ_section_title
;
Structure prediction by ZEFSAII (Michael W. Deem and Ramdas Pophale) SiO2 
 PCOD9521947
Probable space group: I M M M
;
_chemical_formula_sum "Si O2"
_cell_formula_units_Z 72
_cell_length_a 7.886966
_cell_length_b 23.795097
_cell_length_c 21.926539
_cell_angle_alpha 90.000000
_cell_angle_beta 90.000000
_cell_angle_gamma 90.000000
_cell_volume 4114.978154
_symmetry_space_group_name_H-M "I M M M"
_symmetry_group_IT_number 71
_symmetry_cell_setting 'orthorhombic'
loop_
_space_group_symop_operation_xyz
x,y,z
-x,-y,z
x,-y,-z
-x,y,-z
-x,-y,-z
x,y,-z
-x,y,z
x,-y,z
1/2+x,1/2+y,1/2+z
1/2-x,1/2-y,1/2+z
1/2+x,1/2-y,1/2-z
1/2-x,1/2+y,1/2-z
1/2-x,1/2-y,1/2-z
1/2+x,1/2+y,1/2-z
1/2-x,1/2+y,1/2+z
1/2+x,1/2-y,1/2+z
loop_
_atom_site_type_symbol
_atom_site_label
_atom_site_fract_x
_atom_site_fract_y
_atom_site_fract_z
Si Si1 0.000000 0.434064 0.667146
Si Si2 0.203754 0.435461 0.000000
Si Si3 0.000000 0.664452 0.427123
Si Si4 0.310877 0.254306 0.427645
Si Si5 0.200119 0.136696 0.617831
Si Si6 0.698936 0.433819 0.762120
O O1 0.167469 0.423582 0.708292
O O2 0.000000 0.500000 0.650338
O O3 0.000000 0.392818 0.610122
O O4 0.263473 0.402978 0.939900
O O5 0.263086 0.500000 0.000000
O O6 0.000000 0.435153 0.000000
O O7 0.834926 0.701732 0.411572
O O8 0.000000 0.655033 0.500000
O O9 0.290346 0.240994 0.500000
O O10 0.500000 0.277273 0.418754
O O11 0.291149 0.195952 0.392094
O O12 0.244492 0.104044 0.679632
O O13 0.000000 0.148505 0.619076
O O14 0.500000 0.423796 0.746232
O O15 0.713204 0.500000 0.778784
#
# Coordination Sequence:
#
# PCOD9521947 Si02
#       6
#     8   8   8  16  16  16
#     4  10  22  41  66  89 112 144 181 233 295 351
#     4  11  23  31  43  77 117 155 207 259 287 320
#     4  10  22  41  64  90 115 141 182 230 292 362
#     4  10  20  35  56  82 115 156 191 231 283 335
#     4  11  20  33  54  77 112 158 204 245 283 327
#     4   9  20  37  57  81 114 156 196 233 281 338
#
# _framework density 17.497056000000001
#
# number of rings (size 3 to 8) (size 9 to 14) (size 15 to 20)
#    0.000    1.889    2.222    1.667    3.111    2.889 
#    0.000    1.111    0.000    0.000    0.000    6.222 
#    0.000    0.000    0.000    0.000    0.000    0.000 
#
# Total GULP energy -200977.091538 kJ/mol
# GULP energy per Si atom -5582.696987 kJ/mol
# Density = 1.745723 g / cm^3
# Si number density = 17.497056 Si / 1000 Ang^3
#
#
#
# Elastic Constant Matrix: (Units=GPa)
#
#
# Indices 1 2 3 4 5 6 
#
# 1 102.2130 58.9254 45.3304 0.0000 0.0000 0.0000
# 2 58.9254 104.0230 68.6079 0.0000 0.0000 0.0000
# 3 45.3304 68.6079 66.6764 0.0000 0.0000 0.0000
# 4 0.0000 0.0000 0.0000 36.9246 0.0000 0.0000
# 5 0.0000 0.0000 0.0000 0.0000 -5.6802 0.0000
# 6 0.0000 0.0000 0.0000 0.0000 0.0000 11.0127
#
#
#
# Elastic Compliance Matrix: (Units=1/GPa)
#
#
# Indices 1 2 3 4 5 6 
#
# 1 0.014952 -0.005493 -0.004512 0.000000 0.000000 0.000000
# 2 -0.005493 0.031934 -0.029124 0.000000 0.000000 0.000000
# 3 -0.004512 -0.029124 0.048033 0.000000 0.000000 0.000000
# 4 0.000000 0.000000 0.000000 0.027082 0.000000 0.000000
# 5 0.000000 0.000000 0.000000 0.000000 -0.176049 0.000000
# 6 0.000000 0.000000 0.000000 0.000000 0.000000 0.090804
#
#
# Mechanical properties :
#
#
# Convention : Reuss Voigt Hill
#
# Bulk Modulus (GPa) = 60.02790 68.73778 64.38284
# Shear Modulus (GPa) = 41.47010 15.12133 28.29572
#
# Velocity S-wave (km/s) = 4.87367 2.94295 4.02577
# Velocity P-wave (km/s) = 8.12724 7.13573 7.64757
#
# Compressibility (1/GPa) = 0.01665892
#
# Stress axis : x y z
#
# Youngs Moduli (GPa) = 66.88222 31.31477 20.81884
#
# Poissons Ratio (x) = 0.17203 0.09394
# Poissons Ratio (y) = 0.36742 0.60633
# Poissons Ratio (z) = 0.30180 0.91202
#
# Static dielectric constant tensor:
#      x y z
#    x 1.619980 0.000000 0.000000 
#    y 0.000000 1.569980 0.000000 
#    z 0.000000 0.000000 1.561190 
# 
# From -- ./inp_files/50218.got.cif
#   From: 2010.05.17/outbox.cif.g08.bks.cpg/sg71_26_cif.got.tgz:50218.got - 2010.06.03 16:22:01.
