data_PCOD9521796
_publ_section_title
;
Structure prediction by ZEFSAII (Michael W. Deem and Ramdas Pophale) SiO2 
 PCOD9521796
Probable space group: I M M M
;
_chemical_formula_sum "Si O2"
_cell_formula_units_Z 68
_cell_length_a 16.570968
_cell_length_b 7.535448
_cell_length_c 23.509104
_cell_angle_alpha 90.000000
_cell_angle_beta 90.000000
_cell_angle_gamma 90.000000
_cell_volume 2935.574004
_symmetry_space_group_name_H-M "I M M M"
_symmetry_group_IT_number 71
_symmetry_cell_setting 'orthorhombic'
loop_
_space_group_symop_operation_xyz
x,y,z
-x,-y,z
x,-y,-z
-x,y,-z
-x,-y,-z
x,y,-z
-x,y,z
x,-y,z
1/2+x,1/2+y,1/2+z
1/2-x,1/2-y,1/2+z
1/2+x,1/2-y,1/2-z
1/2-x,1/2+y,1/2-z
1/2-x,1/2-y,1/2-z
1/2+x,1/2+y,1/2-z
1/2-x,1/2+y,1/2+z
1/2+x,1/2-y,1/2+z
loop_
_atom_site_type_symbol
_atom_site_label
_atom_site_fract_x
_atom_site_fract_y
_atom_site_fract_z
Si Si1 0.843460 0.000000 0.000000
Si Si2 0.408392 0.203562 0.579902
Si Si3 0.174622 0.711463 0.322777
Si Si4 0.355541 0.288292 0.298939
Si Si5 0.405418 0.783607 0.062205
O O1 0.850226 0.843806 0.049674
O O2 0.500000 0.251424 0.562348
O O3 0.404877 0.217400 0.648044
O O4 0.392292 0.000000 0.564459
O O5 0.181198 0.500000 0.329037
O O6 0.264215 0.780994 0.309810
O O7 0.122593 0.743384 0.265911
O O8 0.139602 0.781902 0.381795
O O9 0.356247 0.500000 0.302951
O O10 0.500000 0.737412 0.065531
O O11 0.401237 0.000000 0.062469
O O12 0.374014 0.727037 0.000000
#
# Coordination Sequence:
#
# PCOD9521796 Si02
#       5
#     4  16  16  16  16
#     4  12  23  42  64  86 122 156 189 244 301 350
#     4  11  23  39  61  87 117 156 199 243 293 349
#     4   9  18  33  53  80 111 151 192 238 293 347
#     4  10  20  35  53  79 113 153 195 245 291 340
#     4   8  14  27  49  78 109 138 175 228 287 347
#
# _framework density 23.164124000000001
#
# number of rings (size 3 to 8) (size 9 to 14) (size 15 to 20)
#    0.000    2.353    1.176    2.824    0.000    2.824 
#    2.118    2.353    0.000    0.706    0.000    1.647 
#    0.000    0.000    0.000    0.000    0.000    0.000 
#
# Total GULP energy -189410.046663 kJ/mol
# GULP energy per Si atom -5570.883725 kJ/mol
# Density = 2.311140 g / cm^3
# Si number density = 23.164124 Si / 1000 Ang^3
#
#
#
# Elastic Constant Matrix: (Units=GPa)
#
#
# Indices 1 2 3 4 5 6 
#
# 1 20.7431 3.1209 50.6986 0.0000 0.0000 0.0000
# 2 3.1209 87.5457 12.3746 0.0000 0.0000 0.0000
# 3 50.6986 12.3746 244.6735 0.0000 0.0000 0.0000
# 4 0.0000 0.0000 0.0000 26.5691 0.0000 0.0000
# 5 0.0000 0.0000 0.0000 0.0000 14.3737 0.0000
# 6 0.0000 0.0000 0.0000 0.0000 0.0000 1.0129
#
#
#
# Elastic Compliance Matrix: (Units=1/GPa)
#
#
# Indices 1 2 3 4 5 6 
#
# 1 0.097711 -0.000626 -0.020215 0.000000 0.000000 0.000000
# 2 -0.000626 0.011509 -0.000452 0.000000 0.000000 0.000000
# 3 -0.020215 -0.000452 0.008299 0.000000 0.000000 0.000000
# 4 0.000000 0.000000 0.000000 0.037638 0.000000 0.000000
# 5 0.000000 0.000000 0.000000 0.000000 0.069571 0.000000
# 6 0.000000 0.000000 0.000000 0.000000 0.000000 0.987263
#
#
# Mechanical properties :
#
#
# Convention : Reuss Voigt Hill
#
# Bulk Modulus (GPa) = 13.34545 53.92784 33.63665
# Shear Modulus (GPa) = 3.90761 27.50902 15.70831
#
# Velocity S-wave (km/s) = 1.30023 3.44985 2.60692
# Velocity P-wave (km/s) = 2.83335 6.26099 4.85941
#
# Compressibility (1/GPa) = 0.07493188
#
# Stress axis : x y z
#
# Youngs Moduli (GPa) = 10.23428 86.88954 120.50098
#
# Poissons Ratio (x) = 0.05439 2.43592
# Poissons Ratio (y) = 0.00641 0.05451
# Poissons Ratio (z) = 0.20689 0.03931
#
# Static dielectric constant tensor:
#      x y z
#    x 1.904180 0.000000 0.000000 
#    y 0.000000 1.852090 0.000000 
#    z 0.000000 0.000000 1.902900 
# 
# From -- ./inp_files/60369.got.cif
#   From: 2010.05.17/outbox.cif.g08.bks.cpg/sg71_31_cif.got.tgz:60369.got - 2010.06.03 16:22:01.
