data_PCOD9521961
_publ_section_title
;
Structure prediction by ZEFSAII (Michael W. Deem and Ramdas Pophale) SiO2 
 PCOD9521961
Probable space group: I M M M
;
_chemical_formula_sum "Si O2"
_cell_formula_units_Z 104
_cell_length_a 8.450550
_cell_length_b 28.709519
_cell_length_c 22.576475
_cell_angle_alpha 90.000000
_cell_angle_beta 90.000000
_cell_angle_gamma 90.000000
_cell_volume 5477.306274
_symmetry_space_group_name_H-M "I M M M"
_symmetry_group_IT_number 71
_symmetry_cell_setting 'orthorhombic'
loop_
_space_group_symop_operation_xyz
x,y,z
-x,-y,z
x,-y,-z
-x,y,-z
-x,-y,-z
x,y,-z
-x,y,z
x,-y,z
1/2+x,1/2+y,1/2+z
1/2-x,1/2-y,1/2+z
1/2+x,1/2-y,1/2-z
1/2-x,1/2+y,1/2-z
1/2-x,1/2-y,1/2-z
1/2+x,1/2+y,1/2-z
1/2-x,1/2+y,1/2+z
1/2+x,1/2-y,1/2+z
loop_
_atom_site_type_symbol
_atom_site_label
_atom_site_fract_x
_atom_site_fract_y
_atom_site_fract_z
Si Si1 0.312618 0.859768 0.360515
Si Si2 0.827049 0.094819 0.070142
Si Si3 0.684769 0.769644 0.430917
Si Si4 0.308989 0.553785 0.068008
Si Si5 0.500000 0.055294 0.931247
Si Si6 0.318246 0.180628 0.878409
Si Si7 0.311350 0.303599 0.252791
O O1 0.500000 0.862266 0.349058
O O2 0.284330 0.822596 0.413131
O O3 0.253065 0.909333 0.384196
O O4 0.232839 0.835090 0.303803
O O5 0.667838 0.071324 0.095410
O O6 0.795638 0.149277 0.081269
O O7 0.000000 0.081430 0.094413
O O8 0.831229 0.084763 0.000000
O O9 0.710468 0.762045 0.500000
O O10 0.500000 0.760115 0.416664
O O11 0.790691 0.734301 0.394177
O O12 0.500000 0.555394 0.068670
O O13 0.261873 0.500000 0.079825
O O14 0.258182 0.565111 0.000000
O O15 0.500000 0.000000 0.932728
O O16 0.500000 0.072770 0.000000
O O17 0.500000 0.168008 0.889453
O O18 0.269760 0.174180 0.810572
O O19 0.500000 0.302105 0.260089
O O20 0.250000 0.250000 0.250000
#
# Coordination Sequence:
#
# PCOD9521961 Si02
#       7
#    16  16  16  16   8  16  16
#     4  11  22  37  58  85 117 154 196 246 298 352
#     4  10  20  35  56  84 118 154 192 238 295 353
#     4  10  21  35  52  78 115 156 192 234 288 345
#     4   9  19  37  61  89 122 160 201 247 301 360
#     4   9  18  34  56  84 116 148 188 236 282 342
#     4  12  23  36  56  81 113 154 197 240 289 348
#     4  12  24  40  59  82 112 152 199 244 290 348
#
# _framework density 18.987437
#
# number of rings (size 3 to 8) (size 9 to 14) (size 15 to 20)
#    0.000    1.462    2.308    4.615    0.000    4.308 
#    0.000    2.308    0.000    0.923    0.000    0.000 
#    0.000    0.000    0.000    0.000    0.000    0.000 
#
# Total GULP energy -290170.435858 kJ/mol
# GULP energy per Si atom -5580.200690 kJ/mol
# Density = 1.894422 g / cm^3
# Si number density = 18.987437 Si / 1000 Ang^3
#
#
#
# Elastic Constant Matrix: (Units=GPa)
#
#
# Indices 1 2 3 4 5 6 
#
# 1 102.7786 36.0371 29.0412 0.0000 0.0000 0.0000
# 2 36.0371 76.4947 14.4788 0.0000 0.0000 0.0000
# 3 29.0412 14.4788 42.7659 0.0000 0.0000 0.0000
# 4 0.0000 0.0000 0.0000 21.9527 0.0000 0.0000
# 5 0.0000 0.0000 0.0000 0.0000 21.0143 0.0000
# 6 0.0000 0.0000 0.0000 0.0000 0.0000 20.3580
#
#
#
# Elastic Compliance Matrix: (Units=1/GPa)
#
#
# Indices 1 2 3 4 5 6 
#
# 1 0.013612 -0.004982 -0.007557 0.000000 0.000000 0.000000
# 2 -0.004982 0.015792 -0.001963 0.000000 0.000000 0.000000
# 3 -0.007557 -0.001963 0.029179 0.000000 0.000000 0.000000
# 4 0.000000 0.000000 0.000000 0.045553 0.000000 0.000000
# 5 0.000000 0.000000 0.000000 0.000000 0.047587 0.000000
# 6 0.000000 0.000000 0.000000 0.000000 0.000000 0.049121
#
#
# Mechanical properties :
#
#
# Convention : Reuss Voigt Hill
#
# Bulk Modulus (GPa) = 33.80813 42.35039 38.07926
# Shear Modulus (GPa) = 20.85890 22.16381 21.51135
#
# Velocity S-wave (km/s) = 3.31805 3.42027 3.36955
# Velocity P-wave (km/s) = 5.70294 6.16040 5.93607
#
# Compressibility (1/GPa) = 0.02957868
#
# Stress axis : x y z
#
# Youngs Moduli (GPa) = 73.46570 63.32498 34.27098
#
# Poissons Ratio (x) = 0.31550 0.25897
# Poissons Ratio (y) = 0.36603 0.06727
# Poissons Ratio (z) = 0.55515 0.12431
#
# Static dielectric constant tensor:
#      x y z
#    x 1.688590 0.000000 0.000000 
#    y 0.000000 1.672410 0.000000 
#    z 0.000000 0.000000 1.652220 
# 
# From -- ./inp_files/50939.got.cif
#   From: 2010.05.17/outbox.cif.g08.bks.cpg/sg71_26_cif.got.tgz:50939.got - 2010.06.03 16:22:01.
