data_PCOD9521789
_publ_section_title
;
Structure prediction by ZEFSAII (Michael W. Deem and Ramdas Pophale) SiO2 
 PCOD9521789
Probable space group: I M M M
;
_chemical_formula_sum "Si O2"
_cell_formula_units_Z 80
_cell_length_a 20.396877
_cell_length_b 16.689354
_cell_length_c 14.337094
_cell_angle_alpha 90.000000
_cell_angle_beta 90.000000
_cell_angle_gamma 90.000000
_cell_volume 4880.500215
_symmetry_space_group_name_H-M "I M M M"
_symmetry_group_IT_number 71
_symmetry_cell_setting 'orthorhombic'
loop_
_space_group_symop_operation_xyz
x,y,z
-x,-y,z
x,-y,-z
-x,y,-z
-x,-y,-z
x,y,-z
-x,y,z
x,-y,z
1/2+x,1/2+y,1/2+z
1/2-x,1/2-y,1/2+z
1/2+x,1/2-y,1/2-z
1/2-x,1/2+y,1/2-z
1/2-x,1/2-y,1/2-z
1/2+x,1/2+y,1/2-z
1/2-x,1/2+y,1/2+z
1/2+x,1/2-y,1/2+z
loop_
_atom_site_type_symbol
_atom_site_label
_atom_site_fract_x
_atom_site_fract_y
_atom_site_fract_z
Si Si1 0.701726 0.596503 0.779546
Si Si2 0.638347 0.330222 0.609802
Si Si3 0.000000 0.908925 0.113093
Si Si4 0.925485 0.500000 0.113052
Si Si5 0.169201 0.645028 0.889322
Si Si6 0.927655 0.097105 0.390921
O O1 0.705214 0.500000 0.781993
O O2 0.691740 0.627436 0.674792
O O3 0.765226 0.631129 0.830528
O O4 0.635841 0.623414 0.834205
O O5 0.647898 0.347695 0.500000
O O6 0.566994 0.364311 0.637855
O O7 0.642677 0.234832 0.622200
O O8 0.000000 0.000000 0.150086
O O9 0.000000 0.912997 0.000000
O O10 0.884526 0.578904 0.139066
O O11 0.000000 0.500000 0.148110
O O12 0.928710 0.500000 0.000000
O O13 0.183426 0.632952 0.000000
O O14 0.921394 0.118957 0.500000
O O15 0.000000 0.123806 0.357605
O O16 0.927805 0.000000 0.387078
#
# Coordination Sequence:
#
# PCOD9521789 Si02
#       6
#    16  16   8   8  16  16
#     4  11  20  31  51  74 103 137 174 215 259 315
#     4  10  22  35  50  72 104 141 176 218 260 308
#     4   9  18  34  52  71  98 136 178 212 246 296
#     4   9  18  32  54  78 102 130 165 210 262 322
#     4  10  20  35  53  77 105 133 171 214 267 318
#     4   8  15  27  43  66  96 130 169 209 251 301
#
# _framework density 16.391762
#
# number of rings (size 3 to 8) (size 9 to 14) (size 15 to 20)
#    0.000    2.400    1.000    2.400    2.800    2.000 
#    0.000    0.000    0.000    0.000    0.000    0.000 
#    0.000    1.600    0.000    0.000    0.000    0.200 
#
# Total GULP energy -223074.150814 kJ/mol
# GULP energy per Si atom -5576.853770 kJ/mol
# Density = 1.635445 g / cm^3
# Si number density = 16.391762 Si / 1000 Ang^3
#
#
#
# Elastic Constant Matrix: (Units=GPa)
#
#
# Indices 1 2 3 4 5 6 
#
# 1 146.7287 62.2519 59.7264 0.0000 0.0000 0.0000
# 2 62.2519 81.1768 39.6996 0.0000 0.0000 0.0000
# 3 59.7264 39.6996 62.9236 0.0000 0.0000 0.0000
# 4 0.0000 0.0000 0.0000 18.2942 0.0000 0.0000
# 5 0.0000 0.0000 0.0000 0.0000 17.7635 0.0000
# 6 0.0000 0.0000 0.0000 0.0000 0.0000 23.5452
#
#
#
# Elastic Compliance Matrix: (Units=1/GPa)
#
#
# Indices 1 2 3 4 5 6 
#
# 1 0.012613 -0.005521 -0.008489 0.000000 0.000000 0.000000
# 2 -0.005521 0.020233 -0.007525 0.000000 0.000000 0.000000
# 3 -0.008489 -0.007525 0.028697 0.000000 0.000000 0.000000
# 4 0.000000 0.000000 0.000000 0.054662 0.000000 0.000000
# 5 0.000000 0.000000 0.000000 0.000000 0.056295 0.000000
# 6 0.000000 0.000000 0.000000 0.000000 0.000000 0.042471
#
#
# Mechanical properties :
#
#
# Convention : Reuss Voigt Hill
#
# Bulk Modulus (GPa) = 54.13040 68.24276 61.18658
# Shear Modulus (GPa) = 18.92514 20.53068 19.72791
#
# Velocity S-wave (km/s) = 3.40156 3.54291 3.47295
# Velocity P-wave (km/s) = 6.96578 7.64585 7.31372
#
# Compressibility (1/GPa) = 0.01847391
#
# Stress axis : x y z
#
# Youngs Moduli (GPa) = 79.28235 49.42503 34.84652
#
# Poissons Ratio (x) = 0.27288 0.29581
# Poissons Ratio (y) = 0.43773 0.26221
# Poissons Ratio (z) = 0.67302 0.37190
#
# Static dielectric constant tensor:
#      x y z
#    x 1.544340 0.000000 0.000000 
#    y 0.000000 1.532750 0.000000 
#    z 0.000000 0.000000 1.570190 
# 
# From -- ./inp_files/36294.got.cif
#   From: 2010.05.17/outbox.cif.g08.bks.cpg/sg71_19_cif.got.tgz:36294.got - 2010.06.03 16:22:01.
