data_PCOD9521462
_publ_section_title
;
Structure prediction by ZEFSAII (Michael W. Deem and Ramdas Pophale) SiO2 
 PCOD9521462
Probable space group: I M M M
;
_chemical_formula_sum "Si O2"
_cell_formula_units_Z 88
_cell_length_a 26.596944
_cell_length_b 21.058788
_cell_length_c 7.679172
_cell_angle_alpha 90.000000
_cell_angle_beta 90.000000
_cell_angle_gamma 90.000000
_cell_volume 4301.099669
_symmetry_space_group_name_H-M "I M M M"
_symmetry_group_IT_number 71
_symmetry_cell_setting 'orthorhombic'
loop_
_space_group_symop_operation_xyz
x,y,z
-x,-y,z
x,-y,-z
-x,y,-z
-x,-y,-z
x,y,-z
-x,y,z
x,-y,z
1/2+x,1/2+y,1/2+z
1/2-x,1/2-y,1/2+z
1/2+x,1/2-y,1/2-z
1/2-x,1/2+y,1/2-z
1/2-x,1/2-y,1/2-z
1/2+x,1/2+y,1/2-z
1/2-x,1/2+y,1/2+z
1/2+x,1/2-y,1/2+z
loop_
_atom_site_type_symbol
_atom_site_label
_atom_site_fract_x
_atom_site_fract_y
_atom_site_fract_z
Si Si1 0.303873 0.697065 0.299324
Si Si2 0.000000 0.217257 0.287025
Si Si3 0.303464 0.161825 0.201293
Si Si4 0.442038 0.500000 0.709214
Si Si5 0.096018 0.137205 0.296971
Si Si6 0.000000 0.364415 0.287352
Si Si7 0.605741 0.073633 0.213231
O O1 0.292366 0.713411 0.500000
O O2 0.317841 0.763771 0.210278
O O3 0.253455 0.664208 0.224735
O O4 0.351739 0.652736 0.292189
O O5 0.049695 0.179664 0.228652
O O6 0.000000 0.290611 0.234173
O O7 0.000000 0.215322 0.500000
O O8 0.347619 0.117482 0.274948
O O9 0.298687 0.141756 0.000000
O O10 0.500000 0.500000 0.764680
O O11 0.440043 0.500000 0.500000
O O12 0.417429 0.435986 0.776553
O O13 0.102144 0.152850 0.500000
O O14 0.051552 0.398635 0.231123
O O15 0.000000 0.365461 0.500000
O O16 0.611329 0.000000 0.263777
O O17 0.605408 0.075855 0.000000
#
# Coordination Sequence:
#
# PCOD9521462 Si02
#       7
#    16   8  16   8  16   8  16
#     4  10  20  34  53  79 106 138 182 231 280 325
#     4   9  18  30  50  78 105 134 171 216 263 319
#     4   9  18  34  54  76 105 143 183 222 273 333
#     4  11  23  39  57  79 113 149 181 222 275 330
#     4  11  21  36  57  80 108 143 183 225 272 328
#     4   9  15  24  42  74 108 132 163 210 263 310
#     4   9  16  27  46  73 105 137 170 212 263 319
#
# _framework density 20.459883999999999
#
# number of rings (size 3 to 8) (size 9 to 14) (size 15 to 20)
#    0.000    2.273    0.909    2.727    0.000    5.091 
#    1.636    0.000    0.000    0.545    0.000    0.000 
#    0.000    2.909    0.000    0.000    0.000    0.000 
#
# Total GULP energy -245565.161388 kJ/mol
# GULP energy per Si atom -5581.026395 kJ/mol
# Density = 2.041332 g / cm^3
# Si number density = 20.459884 Si / 1000 Ang^3
#
#
#
# Elastic Constant Matrix: (Units=GPa)
#
#
# Indices 1 2 3 4 5 6 
#
# 1 185.9217 118.7758 6.8503 0.0000 0.0000 0.0000
# 2 118.7758 156.0792 -4.2150 0.0000 0.0000 0.0000
# 3 6.8503 -4.2150 39.8722 0.0000 0.0000 0.0000
# 4 0.0000 0.0000 0.0000 8.4506 0.0000 0.0000
# 5 0.0000 0.0000 0.0000 0.0000 1.0673 0.0000
# 6 0.0000 0.0000 0.0000 0.0000 0.0000 30.7356
#
#
#
# Elastic Compliance Matrix: (Units=1/GPa)
#
#
# Indices 1 2 3 4 5 6 
#
# 1 0.010754 -0.008257 -0.002720 0.000000 0.000000 0.000000
# 2 -0.008257 0.012765 0.002768 0.000000 0.000000 0.000000
# 3 -0.002720 0.002768 0.025840 0.000000 0.000000 0.000000
# 4 0.000000 0.000000 0.000000 0.118334 0.000000 0.000000
# 5 0.000000 0.000000 0.000000 0.000000 0.936937 0.000000
# 6 0.000000 0.000000 0.000000 0.000000 0.000000 0.032536
#
#
# Mechanical properties :
#
#
# Convention : Reuss Voigt Hill
#
# Bulk Modulus (GPa) = 30.35781 69.41058 49.88419
# Shear Modulus (GPa) = 4.29345 25.41485 14.85415
#
# Velocity S-wave (km/s) = 1.45018 3.52828 2.69739
# Velocity P-wave (km/s) = 4.20404 7.11317 5.84257
#
# Compressibility (1/GPa) = 0.03294046
#
# Stress axis : x y z
#
# Youngs Moduli (GPa) = 92.98922 78.33645 38.69941
#
# Poissons Ratio (x) = 0.64684 0.10528
# Poissons Ratio (y) = 0.76783 -0.10712
# Poissons Ratio (z) = 0.25298 -0.21684
#
# Static dielectric constant tensor:
#      x y z
#    x 1.729090 0.000000 0.000000 
#    y 0.000000 1.773840 0.000000 
#    z 0.000000 0.000000 1.805060 
# 
# From -- ./inp_files/12642.got.cif
#   From: 2010.05.17/outbox.cif.g08.bks.cpg/sg71_7_cif.got.tgz:12642.got - 2010.06.03 16:22:01.
