data_PCOD9521267
_publ_section_title
;
Structure prediction by ZEFSAII (Michael W. Deem and Ramdas Pophale) SiO2 
 PCOD9521267
Probable space group: I M M M
;
_chemical_formula_sum "Si O2"
_cell_formula_units_Z 72
_cell_length_a 15.363290
_cell_length_b 27.770559
_cell_length_c 7.385756
_cell_angle_alpha 90.000000
_cell_angle_beta 90.000000
_cell_angle_gamma 90.000000
_cell_volume 3151.111758
_symmetry_space_group_name_H-M "I M M M"
_symmetry_group_IT_number 71
_symmetry_cell_setting 'orthorhombic'
loop_
_space_group_symop_operation_xyz
x,y,z
-x,-y,z
x,-y,-z
-x,y,-z
-x,-y,-z
x,y,-z
-x,y,z
x,-y,z
1/2+x,1/2+y,1/2+z
1/2-x,1/2-y,1/2+z
1/2+x,1/2-y,1/2-z
1/2-x,1/2+y,1/2-z
1/2-x,1/2-y,1/2-z
1/2+x,1/2+y,1/2-z
1/2-x,1/2+y,1/2+z
1/2+x,1/2-y,1/2+z
loop_
_atom_site_type_symbol
_atom_site_label
_atom_site_fract_x
_atom_site_fract_y
_atom_site_fract_z
Si Si1 0.097385 0.878092 0.209303
Si Si2 0.846568 0.229607 0.285599
Si Si3 0.221383 0.410318 0.278380
Si Si4 0.092611 0.670320 0.279660
Si Si5 0.601206 0.000000 0.779129
O O1 0.128200 0.822181 0.209676
O O2 0.178869 0.908329 0.285794
O O3 0.000000 0.881839 0.288480
O O4 0.090457 0.892737 0.000000
O O5 0.858340 0.224554 0.500000
O O6 0.750000 0.250000 0.250000
O O7 0.903208 0.274641 0.219514
O O8 0.223496 0.410608 0.500000
O O9 0.173409 0.361360 0.219387
O O10 0.158432 0.453793 0.224225
O O11 0.096376 0.671002 0.500000
O O12 0.000000 0.648010 0.228821
O O13 0.500000 0.000000 0.719808
O O14 0.598274 0.000000 0.000000
#
# Coordination Sequence:
#
# PCOD9521267 Si02
#       5
#    16  16  16  16   8
#     4  10  20  34  50  70 102 142 175 209 257 306
#     4  11  20  32  50  73 103 137 175 212 252 300
#     4   9  16  28  44  67  99 131 164 205 255 309
#     4   9  16  26  43  66  93 125 160 200 248 299
#     4   9  16  26  45  73 102 129 161 207 262 314
#
# _framework density 22.849077999999999
#
# number of rings (size 3 to 8) (size 9 to 14) (size 15 to 20)
#    0.000    2.333    2.222    2.000    0.000    4.000 
#    0.000    0.556    0.000    3.333    0.000    0.778 
#    0.000    2.667    0.000    0.000    0.000    0.000 
#
# Total GULP energy -200914.768059 kJ/mol
# GULP energy per Si atom -5580.965779 kJ/mol
# Density = 2.279707 g / cm^3
# Si number density = 22.849078 Si / 1000 Ang^3
#
#
#
# Elastic Constant Matrix: (Units=GPa)
#
#
# Indices 1 2 3 4 5 6 
#
# 1 247.3003 69.7082 1.3773 -0.0003 -0.0004 0.0001
# 2 69.7082 91.8875 -2.7522 -0.0027 0.0008 0.0005
# 3 1.3773 -2.7522 82.0279 -0.0140 0.0114 0.0010
# 4 -0.0003 -0.0027 -0.0140 7.1815 0.0011 0.0004
# 5 -0.0004 0.0008 0.0114 0.0011 -6.3144 -0.0006
# 6 0.0001 0.0005 0.0010 0.0004 -0.0006 33.3209
#
#
#
# Elastic Compliance Matrix: (Units=1/GPa)
#
#
# Indices 1 2 3 4 5 6 
#
# 1 0.005147 -0.003912 -0.000218 -0.000002 -0.000001 0.000000
# 2 -0.003912 0.013866 0.000531 0.000006 0.000003 0.000000
# 3 -0.000218 0.000531 0.012212 0.000024 0.000022 0.000000
# 4 -0.000002 0.000006 0.000024 0.139247 0.000025 -0.000002
# 5 -0.000001 0.000003 0.000022 0.000025 -0.158369 -0.000003
# 6 0.000000 0.000000 0.000000 -0.000002 -0.000003 0.030011
#
#
# Mechanical properties :
#
#
# Convention : Reuss Voigt Hill
#
# Bulk Modulus (GPa) = 41.61548 61.98693 51.80120
# Shear Modulus (GPa) = 87.22718 30.36310 58.79514
#
# Velocity S-wave (km/s) = 6.18532 3.64930 5.07817
# Velocity P-wave (km/s) = 8.32248 6.70405 7.55672
#
# Compressibility (1/GPa) = 0.02402952
#
# Stress axis : x y z
#
# Youngs Moduli (GPa) = 194.27129 72.11809 81.88373
#
# Poissons Ratio (x) = 0.28209 0.01782
# Poissons Ratio (y) = 0.75989 -0.04347
# Poissons Ratio (z) = 0.04229 -0.03829
#
# Static dielectric constant tensor:
#      x y z
#    x 1.905400 0.000000 0.000040 
#    y 0.000000 1.804980 0.000090 
#    z 0.000040 0.000090 1.111590 
# 
# From -- ./inp_files/6112.got.cif
#   From: 2010.05.17/outbox.cif.g08.bks.cpg/sg71_4_cif.got.tgz:6112.got - 2010.06.03 16:22:01.
