data_PCOD9521597
_publ_section_title
;
Structure prediction by ZEFSAII (Michael W. Deem and Ramdas Pophale) SiO2 
 PCOD9521597
Probable space group: I M M M
;
_chemical_formula_sum "Si O2"
_cell_formula_units_Z 96
_cell_length_a 14.859095
_cell_length_b 14.596917
_cell_length_c 23.989156
_cell_angle_alpha 90.000000
_cell_angle_beta 90.000000
_cell_angle_gamma 90.000000
_cell_volume 5203.175403
_symmetry_space_group_name_H-M "I M M M"
_symmetry_group_IT_number 71
_symmetry_cell_setting 'orthorhombic'
loop_
_space_group_symop_operation_xyz
x,y,z
-x,-y,z
x,-y,-z
-x,y,-z
-x,-y,-z
x,y,-z
-x,y,z
x,-y,z
1/2+x,1/2+y,1/2+z
1/2-x,1/2-y,1/2+z
1/2+x,1/2-y,1/2-z
1/2-x,1/2+y,1/2-z
1/2-x,1/2-y,1/2-z
1/2+x,1/2+y,1/2-z
1/2-x,1/2+y,1/2+z
1/2+x,1/2-y,1/2+z
loop_
_atom_site_type_symbol
_atom_site_label
_atom_site_fract_x
_atom_site_fract_y
_atom_site_fract_z
Si Si1 0.105860 0.500000 0.666540
Si Si2 0.362455 0.500000 0.185672
Si Si3 0.392494 0.802197 0.118387
Si Si4 0.345801 0.000000 0.292576
Si Si5 0.257678 0.194123 0.561769
Si Si6 0.657296 0.500000 0.062344
Si Si7 0.395465 0.802641 0.337375
Si Si8 0.604550 0.698795 0.769728
O O1 0.121684 0.591086 0.631006
O O2 0.156964 0.500000 0.725346
O O3 0.000000 0.500000 0.682599
O O4 0.254699 0.500000 0.183655
O O5 0.395989 0.500000 0.121323
O O6 0.388902 0.591393 0.218466
O O7 0.500000 0.786246 0.108529
O O8 0.327167 0.761030 0.072207
O O9 0.362997 0.749287 0.174807
O O10 0.390878 0.906389 0.313577
O O11 0.294971 0.208637 0.500000
O O12 0.332622 0.205429 0.608943
O O13 0.217247 0.091549 0.564702
O O14 0.613244 0.500000 0.000000
O O15 0.500000 0.780688 0.349814
O O16 0.357659 0.737067 0.287994
O O17 0.500000 0.725522 0.766371
#
# Coordination Sequence:
#
# PCOD9521597 Si02
#       8
#     8   8  16   8  16   8  16  16
#     4  10  20  34  54  86 120 143 171 220 286 350
#     4  12  21  34  55  84 115 155 187 230 283 341
#     4  10  20  36  59  86 116 148 182 230 289 348
#     4  12  20  30  56  88 116 148 181 226 283 347
#     4  11  23  40  58  79 112 152 199 240 277 332
#     4  10  20  36  53  79 116 151 186 230 274 326
#     4  11  22  37  57  84 117 151 191 236 287 337
#     4  10  21  35  54  82 117 149 184 232 286 344
#
# _framework density 18.450271999999998
#
# number of rings (size 3 to 8) (size 9 to 14) (size 15 to 20)
#    0.000    1.333    5.000    1.000    2.333    2.000 
#    0.000    0.833    0.000    6.500    0.000    0.000 
#    0.000    4.000    0.000    0.000    0.000    0.000 
#
# Total GULP energy -267899.078953 kJ/mol
# GULP energy per Si atom -5581.230812 kJ/mol
# Density = 1.840828 g / cm^3
# Si number density = 18.450272 Si / 1000 Ang^3
#
#
#
# Elastic Constant Matrix: (Units=GPa)
#
#
# Indices 1 2 3 4 5 6 
#
# 1 57.0936 1.8553 19.8628 0.0000 0.0000 0.0000
# 2 1.8553 89.0312 38.8570 0.0000 0.0000 0.0000
# 3 19.8628 38.8570 119.7476 0.0000 0.0000 0.0000
# 4 0.0000 0.0000 0.0000 27.0424 0.0000 0.0000
# 5 0.0000 0.0000 0.0000 0.0000 15.6698 0.0000
# 6 0.0000 0.0000 0.0000 0.0000 0.0000 22.7981
#
#
#
# Elastic Compliance Matrix: (Units=1/GPa)
#
#
# Indices 1 2 3 4 5 6 
#
# 1 0.018683 0.001122 -0.003463 0.000000 0.000000 0.000000
# 2 0.001122 0.013153 -0.004454 0.000000 0.000000 0.000000
# 3 -0.003463 -0.004454 0.010371 0.000000 0.000000 0.000000
# 4 0.000000 0.000000 0.000000 0.036979 0.000000 0.000000
# 5 0.000000 0.000000 0.000000 0.000000 0.063817 0.000000
# 6 0.000000 0.000000 0.000000 0.000000 0.000000 0.043863
#
#
# Mechanical properties :
#
#
# Convention : Reuss Voigt Hill
#
# Bulk Modulus (GPa) = 34.94486 43.00252 38.97369
# Shear Modulus (GPa) = 23.81009 26.78854 25.29931
#
# Velocity S-wave (km/s) = 3.59625 3.81456 3.70701
# Velocity P-wave (km/s) = 6.01873 6.53903 6.28427
#
# Compressibility (1/GPa) = 0.02861651
#
# Stress axis : x y z
#
# Youngs Moduli (GPa) = 53.52326 76.03091 96.42618
#
# Poissons Ratio (x) = -0.08532 0.33394
# Poissons Ratio (y) = -0.06006 0.42948
# Poissons Ratio (z) = 0.18536 0.33864
#
# Static dielectric constant tensor:
#      x y z
#    x 1.646700 0.000000 0.000000 
#    y 0.000000 1.631550 0.000000 
#    z 0.000000 0.000000 1.656370 
# 
# From -- ./inp_files/34575.got.cif
#   From: 2010.05.17/outbox.cif.g08.bks.cpg/sg71_18_cif.got.tgz:34575.got - 2010.06.03 16:22:01.
