data_PCOD9521720
_publ_section_title
;
Structure prediction by ZEFSAII (Michael W. Deem and Ramdas Pophale) SiO2 
 PCOD9521720
Probable space group: I M M M
;
_chemical_formula_sum "Si O2"
_cell_formula_units_Z 88
_cell_length_a 22.373719
_cell_length_b 23.354268
_cell_length_c 8.820588
_cell_angle_alpha 90.000000
_cell_angle_beta 90.000000
_cell_angle_gamma 90.000000
_cell_volume 4608.949781
_symmetry_space_group_name_H-M "I M M M"
_symmetry_group_IT_number 71
_symmetry_cell_setting 'orthorhombic'
loop_
_space_group_symop_operation_xyz
x,y,z
-x,-y,z
x,-y,-z
-x,y,-z
-x,-y,-z
x,y,-z
-x,y,z
x,-y,z
1/2+x,1/2+y,1/2+z
1/2-x,1/2-y,1/2+z
1/2+x,1/2-y,1/2-z
1/2-x,1/2+y,1/2-z
1/2-x,1/2-y,1/2-z
1/2+x,1/2+y,1/2-z
1/2-x,1/2+y,1/2+z
1/2+x,1/2-y,1/2+z
loop_
_atom_site_type_symbol
_atom_site_label
_atom_site_fract_x
_atom_site_fract_y
_atom_site_fract_z
Si Si1 0.815745 0.238208 0.320698
Si Si2 0.875793 0.125290 0.819031
Si Si3 0.657884 0.147610 0.675443
Si Si4 0.071317 0.566368 0.327883
Si Si5 0.500000 0.567029 0.685153
Si Si6 0.245717 0.935082 0.819338
O O1 0.809501 0.232756 0.500000
O O2 0.750000 0.250000 0.250000
O O3 0.850099 0.182941 0.256253
O O4 0.850411 0.295552 0.273614
O O5 0.939803 0.100714 0.767323
O O6 0.824052 0.078084 0.795083
O O7 0.879738 0.135682 0.000000
O O8 0.664557 0.162532 0.500000
O O9 0.602853 0.105819 0.706954
O O10 0.715209 0.111810 0.732965
O O11 0.090102 0.582361 0.500000
O O12 0.087836 0.500000 0.306400
O O13 0.000000 0.570331 0.320738
O O14 0.500000 0.500000 0.732674
O O15 0.500000 0.566316 0.500000
O O16 0.260379 0.000000 0.773795
O O17 0.257086 0.929508 0.000000
#
# Coordination Sequence:
#
# PCOD9521720 Si02
#       6
#    16  16  16  16   8  16
#     4  12  24  41  63  86 116 155 198 249 305 366
#     4  10  20  37  62  91 124 162 204 251 300 358
#     4  12  24  37  57  86 119 156 198 247 299 357
#     4   9  19  38  62  86 116 155 196 239 293 355
#     4   9  18  36  65  99 131 165 208 253 300 361
#     4  10  20  34  56  86 120 158 198 242 297 359
#
# _framework density 19.093287
#
# number of rings (size 3 to 8) (size 9 to 14) (size 15 to 20)
#    0.000    1.545    1.818    4.909    0.000    5.455 
#    1.636    1.364    0.000    2.182    0.000    0.000 
#    0.000    0.000    0.000    0.000    0.000    0.000 
#
# Total GULP energy -245763.058281 kJ/mol
# GULP energy per Si atom -5585.524052 kJ/mol
# Density = 1.904983 g / cm^3
# Si number density = 19.093287 Si / 1000 Ang^3
#
#
#
# Elastic Constant Matrix: (Units=GPa)
#
#
# Indices 1 2 3 4 5 6 
#
# 1 106.2306 54.2622 30.5255 0.0000 0.0000 0.0000
# 2 54.2622 113.5972 39.5527 0.0000 0.0000 0.0000
# 3 30.5255 39.5527 61.2634 0.0000 0.0000 0.0000
# 4 0.0000 0.0000 0.0000 29.9783 0.0000 0.0000
# 5 0.0000 0.0000 0.0000 0.0000 14.9427 0.0000
# 6 0.0000 0.0000 0.0000 0.0000 0.0000 18.9016
#
#
#
# Elastic Compliance Matrix: (Units=1/GPa)
#
#
# Indices 1 2 3 4 5 6 
#
# 1 0.012910 -0.005066 -0.003162 0.000000 0.000000 0.000000
# 2 -0.005066 0.013343 -0.006091 0.000000 0.000000 0.000000
# 3 -0.003162 -0.006091 0.021831 0.000000 0.000000 0.000000
# 4 0.000000 0.000000 0.000000 0.033357 0.000000 0.000000
# 5 0.000000 0.000000 0.000000 0.000000 0.066922 0.000000
# 6 0.000000 0.000000 0.000000 0.000000 0.000000 0.052906
#
#
# Mechanical properties :
#
#
# Convention : Reuss Voigt Hill
#
# Bulk Modulus (GPa) = 51.42142 58.86356 55.14249
# Shear Modulus (GPa) = 21.15165 23.21456 22.18310
#
# Velocity S-wave (km/s) = 3.33198 3.49069 3.41226
# Velocity P-wave (km/s) = 6.46475 6.86607 6.66843
#
# Compressibility (1/GPa) = 0.01944715
#
# Stress axis : x y z
#
# Youngs Moduli (GPa) = 77.46191 74.94333 45.80697
#
# Poissons Ratio (x) = 0.37963 0.14484
# Poissons Ratio (y) = 0.39239 0.27900
# Poissons Ratio (z) = 0.24493 0.45646
#
# Static dielectric constant tensor:
#      x y z
#    x 1.682560 0.000000 0.000000 
#    y 0.000000 1.662810 0.000000 
#    z 0.000000 0.000000 1.657160 
# 
# From -- ./inp_files/10457.got.cif
#   From: 2010.05.17/outbox.cif.g08.bks.cpg/sg71_6_cif.got.tgz:10457.got - 2010.06.03 16:22:01.
