data_PCOD9521439
_publ_section_title
;
Structure prediction by ZEFSAII (Michael W. Deem and Ramdas Pophale) SiO2 
 PCOD9521439
Probable space group: I M M M
;
_chemical_formula_sum "Si O2"
_cell_formula_units_Z 112
_cell_length_a 14.608914
_cell_length_b 30.100441
_cell_length_c 14.612051
_cell_angle_alpha 90.000000
_cell_angle_beta 90.000000
_cell_angle_gamma 90.000000
_cell_volume 6425.426651
_symmetry_space_group_name_H-M "I M M M"
_symmetry_group_IT_number 71
_symmetry_cell_setting 'orthorhombic'
loop_
_space_group_symop_operation_xyz
x,y,z
-x,-y,z
x,-y,-z
-x,y,-z
-x,-y,-z
x,y,-z
-x,y,z
x,-y,z
1/2+x,1/2+y,1/2+z
1/2-x,1/2-y,1/2+z
1/2+x,1/2-y,1/2-z
1/2-x,1/2+y,1/2-z
1/2-x,1/2-y,1/2-z
1/2+x,1/2+y,1/2-z
1/2-x,1/2+y,1/2+z
1/2+x,1/2-y,1/2+z
loop_
_atom_site_type_symbol
_atom_site_label
_atom_site_fract_x
_atom_site_fract_y
_atom_site_fract_z
Si Si1 0.704526 0.382659 0.606536
Si Si2 0.102339 0.657954 0.396346
Si Si3 0.393582 0.786179 0.285000
Si Si4 0.253868 0.849354 0.609252
Si Si5 0.399755 0.448634 0.723978
Si Si6 0.276655 0.550368 0.107543
Si Si7 0.890031 0.183637 0.244367
O O1 0.681321 0.383285 0.500000
O O2 0.812897 0.374901 0.615970
O O3 0.672904 0.426291 0.658354
O O4 0.649814 0.344268 0.659650
O O5 0.109938 0.676268 0.500000
O O6 0.111540 0.694271 0.317632
O O7 0.000000 0.638280 0.387937
O O8 0.500000 0.788095 0.314410
O O9 0.331808 0.817176 0.349437
O O10 0.365864 0.734867 0.276648
O O11 0.243573 0.843187 0.500000
O O12 0.274489 0.902336 0.625373
O O13 0.163285 0.835410 0.666740
O O14 0.500000 0.427829 0.713502
O O15 0.405491 0.500000 0.700765
O O16 0.364877 0.445783 0.827792
O O17 0.237205 0.500000 0.126527
O O18 0.298376 0.550829 0.000000
O O19 0.000000 0.180491 0.253700
#
# Coordination Sequence:
#
# PCOD9521439 Si02
#       7
#    16  16  16  16  16  16  16
#     4  11  22  36  56  78 106 143 180 226 280 333
#     4   9  18  34  58  83 104 135 181 228 275 326
#     4  10  21  38  58  80 112 147 185 235 282 333
#     4  11  22  36  57  83 113 150 190 233 283 336
#     4  10  20  34  53  77 108 145 185 228 272 328
#     4   9  18  33  54  80 109 145 188 231 279 332
#     4  11  23  38  54  79 113 148 190 230 274 330
#
# _framework density 17.430748999999999
#
# number of rings (size 3 to 8) (size 9 to 14) (size 15 to 20)
#    0.000    1.857    2.857    0.857    0.000    3.429 
#    0.000    6.429    0.000    0.857    0.000    8.000 
#    0.000    0.000    0.000    0.000    0.000    0.286 
#
# Total GULP energy -311873.311496 kJ/mol
# GULP energy per Si atom -5569.166277 kJ/mol
# Density = 1.739108 g / cm^3
# Si number density = 17.430749 Si / 1000 Ang^3
#
#
#
# Elastic Constant Matrix: (Units=GPa)
#
#
# Indices 1 2 3 4 5 6 
#
# 1 53.7452 47.6241 24.4071 0.0000 0.0000 0.0000
# 2 47.6241 129.7201 47.4572 0.0000 0.0000 0.0000
# 3 24.4071 47.4572 75.3468 -0.0007 0.0005 0.0000
# 4 0.0000 0.0000 -0.0007 16.7542 0.0003 0.0000
# 5 0.0000 0.0000 0.0005 0.0003 9.2273 0.0000
# 6 0.0000 0.0000 0.0000 0.0000 0.0000 18.8640
#
#
#
# Elastic Compliance Matrix: (Units=1/GPa)
#
#
# Indices 1 2 3 4 5 6 
#
# 1 0.028233 -0.009121 -0.003401 0.000000 0.000000 0.000000
# 2 -0.009121 0.012964 -0.005211 0.000000 0.000000 0.000000
# 3 -0.003401 -0.005211 0.017655 0.000001 -0.000001 0.000000
# 4 0.000000 0.000000 0.000001 0.059687 -0.000002 0.000000
# 5 0.000000 0.000000 -0.000001 -0.000002 0.108375 0.000000
# 6 0.000000 0.000000 0.000000 0.000000 0.000000 0.053011
#
#
# Mechanical properties :
#
#
# Convention : Reuss Voigt Hill
#
# Bulk Modulus (GPa) = 42.75788 55.30990 49.03389
# Shear Modulus (GPa) = 15.47102 18.25733 16.86417
#
# Velocity S-wave (km/s) = 2.98244 3.23990 3.11383
# Velocity P-wave (km/s) = 6.03683 6.76728 6.41246
#
# Compressibility (1/GPa) = 0.02338750
#
# Stress axis : x y z
#
# Youngs Moduli (GPa) = 35.41975 77.13791 56.63967
#
# Poissons Ratio (x) = 0.70358 0.19261
# Poissons Ratio (y) = 0.32306 0.29513
# Poissons Ratio (z) = 0.12045 0.40194
#
# Static dielectric constant tensor:
#      x y z
#    x 1.608440 0.000000 0.000000 
#    y 0.000000 1.627170 0.000000 
#    z 0.000000 0.000000 1.578470 
# 
# From -- ./inp_files/35342.got.cif
#   From: 2010.05.17/outbox.cif.g08.bks.cpg/sg71_18_cif.got.tgz:35342.got - 2010.06.03 16:22:01.
