data_PCOD9521095
_publ_section_title
;
Structure prediction by ZEFSAII (Michael W. Deem and Ramdas Pophale) SiO2 
 PCOD9521095
Probable space group: I M M M
;
_chemical_formula_sum "Si O2"
_cell_formula_units_Z 104
_cell_length_a 28.885376
_cell_length_b 9.032407
_cell_length_c 24.100359
_cell_angle_alpha 90.000000
_cell_angle_beta 90.000000
_cell_angle_gamma 90.000000
_cell_volume 6287.891449
_symmetry_space_group_name_H-M "I M M M"
_symmetry_group_IT_number 71
_symmetry_cell_setting 'orthorhombic'
loop_
_space_group_symop_operation_xyz
x,y,z
-x,-y,z
x,-y,-z
-x,y,-z
-x,-y,-z
x,y,-z
-x,y,z
x,-y,z
1/2+x,1/2+y,1/2+z
1/2-x,1/2-y,1/2+z
1/2+x,1/2-y,1/2-z
1/2-x,1/2+y,1/2-z
1/2-x,1/2-y,1/2-z
1/2+x,1/2+y,1/2-z
1/2-x,1/2+y,1/2+z
1/2+x,1/2-y,1/2+z
loop_
_atom_site_type_symbol
_atom_site_label
_atom_site_fract_x
_atom_site_fract_y
_atom_site_fract_z
Si Si1 0.553790 0.177601 0.140507
Si Si2 0.555081 0.174912 0.269705
Si Si3 0.177086 0.324851 0.066672
Si Si4 0.088897 0.823597 0.123019
Si Si5 0.000000 0.326308 0.066557
Si Si6 0.631415 0.323632 0.065634
Si Si7 0.227233 0.670414 0.432623
O O1 0.500000 0.216865 0.130059
O O2 0.564066 0.209828 0.205254
O O3 0.588919 0.259879 0.100427
O O4 0.557941 0.000000 0.133402
O O5 0.500000 0.197313 0.279156
O O6 0.582915 0.271388 0.313510
O O7 0.564328 0.000000 0.278476
O O8 0.174808 0.500000 0.077808
O O9 0.135690 0.240591 0.096867
O O10 0.226812 0.259107 0.083904
O O11 0.172365 0.304594 0.000000
O O12 0.045504 0.751537 0.090677
O O13 0.087438 0.000000 0.118439
O O14 0.000000 0.500000 0.082528
O O15 0.000000 0.317303 0.000000
O O16 0.634920 0.500000 0.071778
O O17 0.679466 0.248018 0.084275
O O18 0.625071 0.291185 0.000000
O O19 0.227108 0.670765 0.500000
O O20 0.229056 0.500000 0.414199
#
# Coordination Sequence:
#
# PCOD9521095 Si02
#       7
#    16  16  16  16   8  16  16
#     4   9  19  35  55  79 104 136 176 216 256 300
#     4   9  18  35  56  73  96 133 176 217 259 310
#     4  10  20  34  52  74 102 137 174 212 259 313
#     4  12  23  33  50  76 103 133 172 218 263 310
#     4  11  23  37  51  69  99 139 176 213 264 317
#     4  10  20  33  51  78 111 144 173 204 251 309
#     4   9  17  31  52  76 102 133 171 215 256 300
#
# _framework density 16.539725000000001
#
# number of rings (size 3 to 8) (size 9 to 14) (size 15 to 20)
#    0.000    2.077    0.769    4.385    0.000    7.385 
#    0.000    3.077    0.000    0.923    0.000    0.000 
#    0.000    0.000    0.000    0.000    0.000    0.000 
#
# Total GULP energy -290254.734263 kJ/mol
# GULP energy per Si atom -5581.821813 kJ/mol
# Density = 1.650208 g / cm^3
# Si number density = 16.539725 Si / 1000 Ang^3
#
#
#
# Elastic Constant Matrix: (Units=GPa)
#
#
# Indices 1 2 3 4 5 6 
#
# 1 147.0633 91.0514 68.1556 0.0000 0.0000 0.0000
# 2 91.0514 128.7309 66.5669 0.0000 0.0000 0.0000
# 3 68.1556 66.5669 64.4349 0.0000 0.0000 0.0000
# 4 0.0000 0.0000 0.0000 22.5226 0.0000 0.0000
# 5 0.0000 0.0000 0.0000 0.0000 2.8594 0.0000
# 6 0.0000 0.0000 0.0000 0.0000 0.0000 33.9976
#
#
#
# Elastic Compliance Matrix: (Units=1/GPa)
#
#
# Indices 1 2 3 4 5 6 
#
# 1 0.014735 -0.005072 -0.010346 0.000000 0.000000 0.000000
# 2 -0.005072 0.018423 -0.013668 0.000000 0.000000 0.000000
# 3 -0.010346 -0.013668 0.040583 0.000000 0.000000 0.000000
# 4 0.000000 0.000000 0.000000 0.044400 0.000000 0.000000
# 5 0.000000 0.000000 0.000000 0.000000 0.349724 0.000000
# 6 0.000000 0.000000 0.000000 0.000000 0.000000 0.029414
#
#
# Mechanical properties :
#
#
# Convention : Reuss Voigt Hill
#
# Bulk Modulus (GPa) = 64.22837 87.97522 76.10179
# Shear Modulus (GPa) = 8.91839 19.50627 14.21233
#
# Velocity S-wave (km/s) = 2.32461 3.43791 2.93454
# Velocity P-wave (km/s) = 6.79133 8.31051 7.58903
#
# Compressibility (1/GPa) = 0.01556944
#
# Stress axis : x y z
#
# Youngs Moduli (GPa) = 67.86703 54.27884 24.64115
#
# Poissons Ratio (x) = 0.27531 0.25493
# Poissons Ratio (y) = 0.34423 0.33679
# Poissons Ratio (z) = 0.70212 0.74188
#
# Static dielectric constant tensor:
#      x y z
#    x 1.532340 0.000000 0.000000 
#    y 0.000000 1.549020 0.000000 
#    z 0.000000 0.000000 1.546880 
# 
# From -- ./inp_files/61972.got.cif
#   From: 2010.05.17/outbox.cif.g08.bks.cpg/sg71_31_cif.got.tgz:61972.got - 2010.06.03 16:22:01.
