data_PCOD9521955
_publ_section_title
;
Structure prediction by ZEFSAII (Michael W. Deem and Ramdas Pophale) SiO2 
 PCOD9521955
Probable space group: I M M M
;
_chemical_formula_sum "Si O2"
_cell_formula_units_Z 104
_cell_length_a 20.852917
_cell_length_b 9.539683
_cell_length_c 27.810127
_cell_angle_alpha 90.000000
_cell_angle_beta 90.000000
_cell_angle_gamma 90.000000
_cell_volume 5532.274621
_symmetry_space_group_name_H-M "I M M M"
_symmetry_group_IT_number 71
_symmetry_cell_setting 'orthorhombic'
loop_
_space_group_symop_operation_xyz
x,y,z
-x,-y,z
x,-y,-z
-x,y,-z
-x,-y,-z
x,y,-z
-x,y,z
x,-y,z
1/2+x,1/2+y,1/2+z
1/2-x,1/2-y,1/2+z
1/2+x,1/2-y,1/2-z
1/2-x,1/2+y,1/2-z
1/2-x,1/2-y,1/2-z
1/2+x,1/2+y,1/2-z
1/2-x,1/2+y,1/2+z
1/2+x,1/2-y,1/2+z
loop_
_atom_site_type_symbol
_atom_site_label
_atom_site_fract_x
_atom_site_fract_y
_atom_site_fract_z
Si Si1 0.073194 0.667696 0.763178
Si Si2 0.070866 0.500000 0.441625
Si Si3 0.500000 0.331065 0.555364
Si Si4 0.574001 0.500000 0.058727
Si Si5 0.751881 0.835662 0.132842
Si Si6 0.694264 0.671653 0.219019
Si Si7 0.337758 0.753057 0.942709
Si Si8 0.404557 0.334053 0.360019
O O1 0.088995 0.500000 0.763343
O O2 0.126650 0.759896 0.735335
O O3 0.073634 0.733009 0.816993
O O4 0.000000 0.682118 0.744476
O O5 0.066324 0.500000 0.500000
O O6 0.113570 0.627452 0.427431
O O7 0.000000 0.500000 0.421870
O O8 0.500000 0.500000 0.551474
O O9 0.500000 0.277142 0.500000
O O10 0.560903 0.296066 0.589617
O O11 0.500000 0.500000 0.075524
O O12 0.619846 0.624374 0.073682
O O13 0.569687 0.500000 0.000000
O O14 0.713041 0.728566 0.166532
O O15 0.729699 0.790144 0.080086
O O16 0.827846 0.821914 0.138166
O O17 0.736075 0.000000 0.142546
O O18 0.695206 0.500000 0.223706
O O19 0.750000 0.750000 0.250000
O O20 0.331631 0.747011 0.000000
O O21 0.419423 0.500000 0.350089
#
# Coordination Sequence:
#
# PCOD9521955 Si02
#       8
#    16   8   8   8  16  16  16  16
#     4  11  23  41  67  96 124 158 207 264 319 380
#     4   9  16  30  54  80 103 143 199 245 292 346
#     4   9  18  34  57  93 133 167 213 269 320 373
#     4   9  18  34  56  80 107 149 205 255 300 354
#     4  11  23  38  59  91 127 164 208 255 310 371
#     4  12  25  42  67  95 125 163 208 258 314 380
#     4  10  20  35  56  83 118 157 199 251 302 361
#     4  10  20  35  61  90 119 165 213 256 308 373
#
# _framework density 18.798777000000001
#
# number of rings (size 3 to 8) (size 9 to 14) (size 15 to 20)
#    0.000    1.615    3.077    2.308    1.077    3.385 
#    0.000    3.077    0.000    0.923    0.000    0.000 
#    0.000    0.000    0.000    0.000    0.000    0.000 
#
# Total GULP energy -289508.995106 kJ/mol
# GULP energy per Si atom -5567.480675 kJ/mol
# Density = 1.875599 g / cm^3
# Si number density = 18.798777 Si / 1000 Ang^3
#
#
#
# Elastic Constant Matrix: (Units=GPa)
#
#
# Indices 1 2 3 4 5 6 
#
# 1 126.8862 62.5187 36.0421 0.0000 0.0000 0.0000
# 2 62.5187 160.7078 30.8013 0.0000 0.0000 0.0000
# 3 36.0421 30.8013 60.6703 0.0000 0.0000 0.0000
# 4 0.0000 0.0000 0.0000 22.9360 0.0000 0.0000
# 5 0.0000 0.0000 0.0000 0.0000 31.9458 0.0000
# 6 0.0000 0.0000 0.0000 0.0000 0.0000 22.2624
#
#
#
# Elastic Compliance Matrix: (Units=1/GPa)
#
#
# Indices 1 2 3 4 5 6 
#
# 1 0.010870 -0.003313 -0.004775 0.000000 0.000000 0.000000
# 2 -0.003313 0.007903 -0.002044 0.000000 0.000000 0.000000
# 3 -0.004775 -0.002044 0.020357 0.000000 0.000000 0.000000
# 4 0.000000 0.000000 0.000000 0.043600 0.000000 0.000000
# 5 0.000000 0.000000 0.000000 0.000000 0.031303 0.000000
# 6 0.000000 0.000000 0.000000 0.000000 0.000000 0.044919
#
#
# Mechanical properties :
#
#
# Convention : Reuss Voigt Hill
#
# Bulk Modulus (GPa) = 53.00845 67.44317 60.22581
# Shear Modulus (GPa) = 26.95337 30.02232 28.48785
#
# Velocity S-wave (km/s) = 3.79064 4.00063 3.89705
# Velocity P-wave (km/s) = 6.88605 7.56930 7.23574
#
# Compressibility (1/GPa) = 0.01886492
#
# Stress axis : x y z
#
# Youngs Moduli (GPa) = 91.99540 126.53073 49.12298
#
# Poissons Ratio (x) = 0.41925 0.23458
# Poissons Ratio (y) = 0.30482 0.10040
# Poissons Ratio (z) = 0.43931 0.25862
#
# Static dielectric constant tensor:
#      x y z
#    x 1.647590 0.000000 0.000000 
#    y 0.000000 1.626890 0.000000 
#    z 0.000000 0.000000 1.716500 
# 
# From -- ./inp_files/66480.got.cif
#   From: 2010.05.17/outbox.cif.g08.bks.cpg/sg71_34_cif.got.tgz:66480.got - 2010.06.03 16:22:01.
