data_PCOD9521117
_publ_section_title
;
Structure prediction by ZEFSAII (Michael W. Deem and Ramdas Pophale) SiO2 
 PCOD9521117
Probable space group: I M M M
;
_chemical_formula_sum "Si O2"
_cell_formula_units_Z 88
_cell_length_a 8.575497
_cell_length_b 23.103876
_cell_length_c 23.143178
_cell_angle_alpha 90.000000
_cell_angle_beta 90.000000
_cell_angle_gamma 90.000000
_cell_volume 4585.293504
_symmetry_space_group_name_H-M "I M M M"
_symmetry_group_IT_number 71
_symmetry_cell_setting 'orthorhombic'
loop_
_space_group_symop_operation_xyz
x,y,z
-x,-y,z
x,-y,-z
-x,y,-z
-x,-y,-z
x,y,-z
-x,y,z
x,-y,z
1/2+x,1/2+y,1/2+z
1/2-x,1/2-y,1/2+z
1/2+x,1/2-y,1/2-z
1/2-x,1/2+y,1/2-z
1/2-x,1/2-y,1/2-z
1/2+x,1/2+y,1/2-z
1/2-x,1/2+y,1/2+z
1/2+x,1/2-y,1/2+z
loop_
_atom_site_type_symbol
_atom_site_label
_atom_site_fract_x
_atom_site_fract_y
_atom_site_fract_z
Si Si1 0.190100 0.287980 0.937053
Si Si2 0.312098 0.123648 0.659853
Si Si3 0.678203 0.500000 0.292594
Si Si4 0.185459 0.841227 0.909635
Si Si5 0.324029 0.500000 0.847049
Si Si6 0.813414 0.432654 0.500000
Si Si7 0.314648 0.123418 0.207236
O O1 0.244743 0.327298 0.884043
O O2 0.239050 0.221153 0.932874
O O3 0.000000 0.287813 0.934562
O O4 0.235625 0.311380 0.000000
O O5 0.500000 0.124120 0.661081
O O6 0.259792 0.060161 0.638797
O O7 0.261382 0.133398 0.726527
O O8 0.500000 0.500000 0.314941
O O9 0.669847 0.500000 0.222936
O O10 0.771244 0.442686 0.308144
O O11 0.258217 0.894808 0.944785
O O12 0.228412 0.841152 0.842107
O O13 0.000000 0.845396 0.917018
O O14 0.500000 0.500000 0.869404
O O15 0.757753 0.500000 0.500000
O O16 0.000000 0.434185 0.500000
O O17 0.500000 0.132176 0.204107
#
# Coordination Sequence:
#
# PCOD9521117 Si02
#       7
#    16  16   8  16   8   8  16
#     4   9  18  36  60  83 107 143 191 237 277 328
#     4   9  18  34  58  83 111 148 188 228 278 336
#     4   9  17  31  51  75 105 145 186 223 270 331
#     4  11  22  38  60  84 112 149 191 234 278 331
#     4   9  17  31  52  80 114 143 176 225 278 327
#     4  11  25  43  61  83 115 152 191 238 282 326
#     4  10  20  33  51  81 115 146 181 230 283 334
#
# _framework density 19.191792
#
# number of rings (size 3 to 8) (size 9 to 14) (size 15 to 20)
#    0.000    2.273    0.909    1.909    1.273    4.364 
#    0.000    2.273    0.000    2.727    0.000    0.000 
#    0.000    0.000    0.000    0.000    0.000    0.000 
#
# Total GULP energy -245351.482626 kJ/mol
# GULP energy per Si atom -5576.170060 kJ/mol
# Density = 1.914811 g / cm^3
# Si number density = 19.191792 Si / 1000 Ang^3
#
#
#
# Elastic Constant Matrix: (Units=GPa)
#
#
# Indices 1 2 3 4 5 6 
#
# 1 28.8097 16.7389 15.3986 0.0000 0.0000 0.0000
# 2 16.7389 103.8367 67.1321 0.0000 0.0000 0.0000
# 3 15.3986 67.1321 120.0980 0.0000 0.0000 0.0000
# 4 0.0000 0.0000 0.0000 102.8263 0.0000 0.0000
# 5 0.0000 0.0000 0.0000 0.0000 19.5293 0.0000
# 6 0.0000 0.0000 0.0000 0.0000 0.0000 10.9842
#
#
#
# Elastic Compliance Matrix: (Units=1/GPa)
#
#
# Indices 1 2 3 4 5 6 
#
# 1 0.038702 -0.004746 -0.002309 0.000000 0.000000 0.000000
# 2 -0.004746 0.015662 -0.008146 0.000000 0.000000 0.000000
# 3 -0.002309 -0.008146 0.013176 0.000000 0.000000 0.000000
# 4 0.000000 0.000000 0.000000 0.009725 0.000000 0.000000
# 5 0.000000 0.000000 0.000000 0.000000 0.051205 0.000000
# 6 0.000000 0.000000 0.000000 0.000000 0.000000 0.091040
#
#
# Mechanical properties :
#
#
# Convention : Reuss Voigt Hill
#
# Bulk Modulus (GPa) = 26.92692 50.14262 38.53477
# Shear Modulus (GPa) = 19.06261 36.89962 27.98112
#
# Velocity S-wave (km/s) = 3.15504 4.38959 3.82248
# Velocity P-wave (km/s) = 5.22812 7.20244 6.29319
#
# Compressibility (1/GPa) = 0.03713756
#
# Stress axis : x y z
#
# Youngs Moduli (GPa) = 25.83818 63.84744 75.89385
#
# Poissons Ratio (x) = 0.30301 0.17527
# Poissons Ratio (y) = 0.12262 0.61826
# Poissons Ratio (z) = 0.05967 0.52013
#
# Static dielectric constant tensor:
#      x y z
#    x 1.657390 0.000000 0.000000 
#    y 0.000000 1.697760 0.000000 
#    z 0.000000 0.000000 1.684680 
# 
# From -- ./inp_files/57606.got.cif
#   From: 2010.05.17/outbox.cif.g08.bks.cpg/sg71_29_cif.got.tgz:57606.got - 2010.06.03 16:22:01.
