data_PCOD9521416
_publ_section_title
;
Structure prediction by ZEFSAII (Michael W. Deem and Ramdas Pophale) SiO2 
 PCOD9521416
Probable space group: I M M M
;
_chemical_formula_sum "Si O2"
_cell_formula_units_Z 120
_cell_length_a 28.558111
_cell_length_b 27.027315
_cell_length_c 8.853539
_cell_angle_alpha 90.000000
_cell_angle_beta 90.000000
_cell_angle_gamma 90.000000
_cell_volume 6833.595771
_symmetry_space_group_name_H-M "I M M M"
_symmetry_group_IT_number 71
_symmetry_cell_setting 'orthorhombic'
loop_
_space_group_symop_operation_xyz
x,y,z
-x,-y,z
x,-y,-z
-x,y,-z
-x,-y,-z
x,y,-z
-x,y,z
x,-y,z
1/2+x,1/2+y,1/2+z
1/2-x,1/2-y,1/2+z
1/2+x,1/2-y,1/2-z
1/2-x,1/2+y,1/2-z
1/2-x,1/2-y,1/2-z
1/2+x,1/2+y,1/2-z
1/2-x,1/2+y,1/2+z
1/2+x,1/2-y,1/2+z
loop_
_atom_site_type_symbol
_atom_site_label
_atom_site_fract_x
_atom_site_fract_y
_atom_site_fract_z
Si Si1 0.305694 0.942671 0.820601
Si Si2 0.359298 0.855601 0.679796
Si Si3 0.612320 0.403661 0.319616
Si Si4 0.611358 0.701078 0.820246
Si Si5 0.294029 0.559520 0.175495
Si Si6 0.946249 0.000000 0.816068
Si Si7 0.054038 0.710339 0.181241
Si Si8 0.698653 0.756330 0.319132
O O1 0.344729 0.904447 0.767436
O O2 0.257392 0.928718 0.737256
O O3 0.316359 0.000000 0.782572
O O4 0.298584 0.939662 0.000000
O O5 0.357373 0.864836 0.500000
O O6 0.410473 0.834199 0.718270
O O7 0.322985 0.810774 0.712956
O O8 0.608651 0.398888 0.500000
O O9 0.598235 0.352729 0.241453
O O10 0.665469 0.415528 0.272265
O O11 0.581144 0.450540 0.269245
O O12 0.573958 0.741472 0.764095
O O13 0.661264 0.717964 0.750231
O O14 0.614689 0.701003 0.000000
O O15 0.299544 0.500000 0.186775
O O16 0.298347 0.573782 0.000000
O O17 0.000000 0.000000 0.765831
O O18 0.945999 0.000000 0.000000
O O19 0.000000 0.700780 0.217040
O O20 0.058224 0.718538 0.000000
O O21 0.700068 0.750211 0.500000
O O22 0.750000 0.750000 0.250000
#
# Coordination Sequence:
#
# PCOD9521416 Si02
#       8
#    16  16  16  16  16   8  16  16
#     4  10  21  35  53  80 114 152 192 226 265 323
#     4   9  19  35  56  83 113 144 183 228 278 330
#     4  11  21  36  57  79 106 142 187 236 284 338
#     4  11  23  37  54  81 114 146 185 231 281 336
#     4  10  20  34  53  76 106 143 184 228 278 329
#     4   9  20  38  59  81 103 135 183 237 290 341
#     4   9  19  39  64  86 110 142 183 231 281 337
#     4  10  21  37  55  79 112 150 189 229 280 337
#
# _framework density 17.560302
#
# number of rings (size 3 to 8) (size 9 to 14) (size 15 to 20)
#    0.000    2.067    0.667    3.600    1.867    4.800 
#    0.000    1.333    0.000    3.200    0.000    2.800 
#    0.000    0.000    0.000    0.000    0.000    0.000 
#
# Total GULP energy -335060.170502 kJ/mol
# GULP energy per Si atom -5584.336175 kJ/mol
# Density = 1.752033 g / cm^3
# Si number density = 17.560302 Si / 1000 Ang^3
#
#
#
# Elastic Constant Matrix: (Units=GPa)
#
#
# Indices 1 2 3 4 5 6 
#
# 1 123.0200 56.1176 44.4040 0.0000 0.0000 0.0000
# 2 56.1176 92.6515 40.1430 0.0000 0.0000 0.0000
# 3 44.4040 40.1430 59.4351 0.0000 0.0000 0.0000
# 4 0.0000 0.0000 0.0000 29.0448 0.0000 0.0000
# 5 0.0000 0.0000 0.0000 0.0000 23.3922 0.0000
# 6 0.0000 0.0000 0.0000 0.0000 0.0000 11.3864
#
#
#
# Elastic Compliance Matrix: (Units=1/GPa)
#
#
# Indices 1 2 3 4 5 6 
#
# 1 0.012590 -0.005019 -0.006016 0.000000 0.000000 0.000000
# 2 -0.005019 0.017259 -0.007907 0.000000 0.000000 0.000000
# 3 -0.006016 -0.007907 0.026660 0.000000 0.000000 0.000000
# 4 0.000000 0.000000 0.000000 0.034430 0.000000 0.000000
# 5 0.000000 0.000000 0.000000 0.000000 0.042749 0.000000
# 6 0.000000 0.000000 0.000000 0.000000 0.000000 0.087824
#
#
# Mechanical properties :
#
#
# Convention : Reuss Voigt Hill
#
# Bulk Modulus (GPa) = 53.69215 61.82619 57.75917
# Shear Modulus (GPa) = 18.82500 21.72748 20.27624
#
# Velocity S-wave (km/s) = 3.27772 3.52135 3.40172
# Velocity P-wave (km/s) = 6.70574 7.19844 6.95645
#
# Compressibility (1/GPa) = 0.01862470
#
# Stress axis : x y z
#
# Youngs Moduli (GPa) = 79.43050 57.94101 37.50904
#
# Poissons Ratio (x) = 0.29080 0.22565
# Poissons Ratio (y) = 0.39865 0.29659
# Poissons Ratio (z) = 0.47785 0.45816
#
# Static dielectric constant tensor:
#      x y z
#    x 1.579750 0.000000 0.000000 
#    y 0.000000 1.593690 0.000000 
#    z 0.000000 0.000000 1.587380 
# 
# From -- ./inp_files/15663.got.cif
#   From: 2010.05.17/outbox.cif.g08.bks.cpg/sg71_8_cif.got.tgz:15663.got - 2010.06.03 16:22:01.
