data_PCOD9521176
_publ_section_title
;
Structure prediction by ZEFSAII (Michael W. Deem and Ramdas Pophale) SiO2 
 PCOD9521176
Probable space group: I M M M
;
_chemical_formula_sum "Si O2"
_cell_formula_units_Z 104
_cell_length_a 30.504320
_cell_length_b 23.013753
_cell_length_c 8.922051
_cell_angle_alpha 90.000000
_cell_angle_beta 90.000000
_cell_angle_gamma 90.000000
_cell_volume 6263.448303
_symmetry_space_group_name_H-M "I M M M"
_symmetry_group_IT_number 71
_symmetry_cell_setting 'orthorhombic'
loop_
_space_group_symop_operation_xyz
x,y,z
-x,-y,z
x,-y,-z
-x,y,-z
-x,-y,-z
x,y,-z
-x,y,z
x,-y,z
1/2+x,1/2+y,1/2+z
1/2-x,1/2-y,1/2+z
1/2+x,1/2-y,1/2-z
1/2-x,1/2+y,1/2-z
1/2-x,1/2-y,1/2-z
1/2+x,1/2+y,1/2-z
1/2-x,1/2+y,1/2+z
1/2+x,1/2-y,1/2+z
loop_
_atom_site_type_symbol
_atom_site_label
_atom_site_fract_x
_atom_site_fract_y
_atom_site_fract_z
Si Si1 0.210194 0.429500 0.327373
Si Si2 0.604748 0.385780 0.180197
Si Si3 0.449792 0.500000 0.817907
Si Si4 0.449076 0.844775 0.178724
Si Si5 0.192031 0.068444 0.818899
Si Si6 0.380208 0.068532 0.321970
Si Si7 0.051278 0.219133 0.179109
O O1 0.203695 0.411038 0.500000
O O2 0.211732 0.500000 0.327838
O O3 0.258813 0.411609 0.276094
O O4 0.168442 0.412513 0.229889
O O5 0.576136 0.442185 0.227768
O O6 0.653404 0.395973 0.242655
O O7 0.581866 0.328961 0.246374
O O8 0.605222 0.383343 0.000000
O O9 0.500000 0.500000 0.764854
O O10 0.450698 0.500000 0.000000
O O11 0.500000 0.859203 0.212326
O O12 0.416624 0.893505 0.240015
O O13 0.439412 0.782993 0.255882
O O14 0.444656 0.839087 0.000000
O O15 0.187072 0.000000 0.778567
O O16 0.189203 0.071983 0.000000
O O17 0.384462 0.074735 0.500000
O O18 0.384871 0.000000 0.284311
O O19 0.000000 0.206081 0.213267
O O20 0.056566 0.219132 0.000000
#
# Coordination Sequence:
#
# PCOD9521176 Si02
#       7
#    16  16   8  16  16  16  16
#     4   8  15  29  49  72 100 137 174 209 251 301
#     4  11  20  31  49  73 102 136 174 217 262 310
#     4   9  18  30  43  65  99 135 169 211 262 307
#     4  10  21  37  57  79 103 135 174 212 249 298
#     4   9  17  30  48  71 102 136 172 216 263 308
#     4  10  20  33  52  81 113 141 168 204 251 300
#     4  10  21  37  55  74  98 132 174 217 260 307
#
# _framework density 16.604271000000001
#
# number of rings (size 3 to 8) (size 9 to 14) (size 15 to 20)
#    0.000    2.385    0.769    3.231    0.000    4.308 
#    0.000    3.077    0.000    2.769    0.000    0.000 
#    0.000    0.000    0.000    0.000    0.000    0.000 
#
# Total GULP energy -290047.284891 kJ/mol
# GULP energy per Si atom -5577.832402 kJ/mol
# Density = 1.656648 g / cm^3
# Si number density = 16.604271 Si / 1000 Ang^3
#
#
#
# Elastic Constant Matrix: (Units=GPa)
#
#
# Indices 1 2 3 4 5 6 
#
# 1 140.4791 78.0118 60.1168 0.0000 0.0000 0.0000
# 2 78.0118 76.0273 46.4941 0.0000 0.0000 0.0000
# 3 60.1168 46.4941 55.4182 0.0000 0.0000 0.0000
# 4 0.0000 0.0000 0.0000 25.4667 0.0000 0.0000
# 5 0.0000 0.0000 0.0000 0.0000 28.0522 0.0000
# 6 0.0000 0.0000 0.0000 0.0000 0.0000 12.7134
#
#
#
# Elastic Compliance Matrix: (Units=1/GPa)
#
#
# Indices 1 2 3 4 5 6 
#
# 1 0.018273 -0.013611 -0.008403 0.000000 0.000000 0.000000
# 2 -0.013611 0.037151 -0.016403 0.000000 0.000000 0.000000
# 3 -0.008403 -0.016403 0.040922 0.000000 0.000000 0.000000
# 4 0.000000 0.000000 0.000000 0.039267 0.000000 0.000000
# 5 0.000000 0.000000 0.000000 0.000000 0.035648 0.000000
# 6 0.000000 0.000000 0.000000 0.000000 0.000000 0.078657
#
#
# Mechanical properties :
#
#
# Convention : Reuss Voigt Hill
#
# Bulk Modulus (GPa) = 51.25306 71.24110 61.24708
# Shear Modulus (GPa) = 15.00342 19.06658 17.03500
#
# Velocity S-wave (km/s) = 3.00923 3.39232 3.20651
# Velocity P-wave (km/s) = 6.55808 7.63821 7.11866
#
# Compressibility (1/GPa) = 0.01951103
#
# Stress axis : x y z
#
# Youngs Moduli (GPa) = 54.72468 26.91706 24.43684
#
# Poissons Ratio (x) = 0.36638 0.20534
# Poissons Ratio (y) = 0.74488 0.40084
# Poissons Ratio (z) = 0.45985 0.44152
#
# Static dielectric constant tensor:
#      x y z
#    x 1.560950 0.000000 0.000000 
#    y 0.000000 1.529010 0.000000 
#    z 0.000000 0.000000 1.550100 
# 
# From -- ./inp_files/15004.got.cif
#   From: 2010.05.17/outbox.cif.g08.bks.cpg/sg71_8_cif.got.tgz:15004.got - 2010.06.03 16:22:01.
