data_PCOD9521054
_publ_section_title
;
Structure prediction by ZEFSAII (Michael W. Deem and Ramdas Pophale) SiO2 
 PCOD9521054
Probable space group: I M M M
;
_chemical_formula_sum "Si O2"
_cell_formula_units_Z 104
_cell_length_a 30.870451
_cell_length_b 8.495959
_cell_length_c 23.508728
_cell_angle_alpha 90.000000
_cell_angle_beta 90.000000
_cell_angle_gamma 90.000000
_cell_volume 6165.730149
_symmetry_space_group_name_H-M "I M M M"
_symmetry_group_IT_number 71
_symmetry_cell_setting 'orthorhombic'
loop_
_space_group_symop_operation_xyz
x,y,z
-x,-y,z
x,-y,-z
-x,y,-z
-x,-y,-z
x,y,-z
-x,y,z
x,-y,z
1/2+x,1/2+y,1/2+z
1/2-x,1/2-y,1/2+z
1/2+x,1/2-y,1/2-z
1/2-x,1/2+y,1/2-z
1/2-x,1/2-y,1/2-z
1/2+x,1/2+y,1/2-z
1/2-x,1/2+y,1/2+z
1/2+x,1/2-y,1/2+z
loop_
_atom_site_type_symbol
_atom_site_label
_atom_site_fract_x
_atom_site_fract_y
_atom_site_fract_z
Si Si1 0.710281 0.317919 0.569032
Si Si2 0.049959 0.690059 0.279802
Si Si3 0.950107 0.307853 0.500000
Si Si4 0.549523 0.312051 0.655168
Si Si5 0.603715 0.192394 0.888584
Si Si6 0.195077 0.307753 0.433742
Si Si7 0.882029 0.686894 0.065311
O O1 0.712444 0.315718 0.500000
O O2 0.705917 0.500000 0.586670
O O3 0.757469 0.255292 0.587261
O O4 0.666702 0.228417 0.585066
O O5 0.050632 0.500000 0.279364
O O6 0.062394 0.749250 0.217383
O O7 0.081112 0.744777 0.330446
O O8 0.000000 0.738930 0.290671
O O9 0.950256 0.500000 0.500000
O O10 0.924646 0.259064 0.443275
O O11 0.000000 0.256380 0.500000
O O12 0.500000 0.256759 0.644251
O O13 0.549168 0.500000 0.656923
O O14 0.582310 0.257274 0.606861
O O15 0.653278 0.242654 0.898279
O O16 0.603680 0.000000 0.888384
O O17 0.188991 0.261904 0.500000
O O18 0.196424 0.500000 0.433525
O O19 0.886805 0.500000 0.064527
O O20 0.886802 0.745821 0.000000
#
# Coordination Sequence:
#
# PCOD9521054 Si02
#       7
#    16  16   8  16  16  16  16
#     4   8  14  25  43  66  93 125 158 189 223 270
#     4   9  17  29  45  66  93 126 163 200 238 278
#     4   9  14  18  28  54  95 133 159 193 244 291
#     4  10  21  36  53  71  92 122 158 191 222 264
#     4   9  14  21  36  61  94 128 161 199 241 283
#     4   8  12  20  36  61  92 125 160 197 236 276
#     4  10  20  33  51  76 102 123 143 175 227 281
#
# _framework density 16.867428
#
# number of rings (size 3 to 8) (size 9 to 14) (size 15 to 20)
#    0.000    3.000    0.769    2.308    0.000    4.000 
#    0.000    1.538    0.000    1.846    0.000    0.538 
#    0.000    3.077    0.000    0.000    0.000    0.000 
#
# Total GULP energy -289640.380308 kJ/mol
# GULP energy per Si atom -5570.007314 kJ/mol
# Density = 1.682904 g / cm^3
# Si number density = 16.867428 Si / 1000 Ang^3
#
#
#
# Elastic Constant Matrix: (Units=GPa)
#
#
# Indices 1 2 3 4 5 6 
#
# 1 143.6596 16.9487 92.5293 0.0000 0.0000 0.0000
# 2 16.9487 7.7776 17.5075 0.0000 0.0000 0.0000
# 3 92.5293 17.5075 104.6923 0.0000 0.0000 0.0000
# 4 0.0000 0.0000 0.0000 5.0406 0.0000 0.0000
# 5 0.0000 0.0000 0.0000 0.0000 17.3547 0.0000
# 6 0.0000 0.0000 0.0000 0.0000 0.0000 7.5969
#
#
#
# Elastic Compliance Matrix: (Units=1/GPa)
#
#
# Indices 1 2 3 4 5 6 
#
# 1 0.016278 -0.004951 -0.013559 0.000000 0.000000 0.000000
# 2 -0.004951 0.207700 -0.030357 0.000000 0.000000 0.000000
# 3 -0.013559 -0.030357 0.026612 0.000000 0.000000 0.000000
# 4 0.000000 0.000000 0.000000 0.198388 0.000000 0.000000
# 5 0.000000 0.000000 0.000000 0.000000 0.057621 0.000000
# 6 0.000000 0.000000 0.000000 0.000000 0.000000 0.131633
#
#
# Mechanical properties :
#
#
# Convention : Reuss Voigt Hill
#
# Bulk Modulus (GPa) = 6.54213 56.67785 31.60999
# Shear Modulus (GPa) = 6.35388 14.60803 10.48096
#
# Velocity S-wave (km/s) = 1.94297 2.94607 2.49544
# Velocity P-wave (km/s) = 2.98672 6.72661 5.20422
#
# Compressibility (1/GPa) = 0.15285534
#
# Stress axis : x y z
#
# Youngs Moduli (GPa) = 61.43147 4.81463 37.57667
#
# Poissons Ratio (x) = 0.02384 0.50951
# Poissons Ratio (y) = 0.30417 1.14073
# Poissons Ratio (z) = 0.83296 0.14616
#
# Static dielectric constant tensor:
#      x y z
#    x 1.589940 0.000000 0.000000 
#    y 0.000000 1.579110 0.000000 
#    z 0.000000 0.000000 1.543140 
# 
# From -- ./inp_files/62299.got.cif
#   From: 2010.05.17/outbox.cif.g08.bks.cpg/sg71_32_cif.got.tgz:62299.got - 2010.06.03 16:22:01.
