data_PCOD9521325
_publ_section_title
;
Structure prediction by ZEFSAII (Michael W. Deem and Ramdas Pophale) SiO2 
 PCOD9521325
Probable space group: I M M M
;
_chemical_formula_sum "Si O2"
_cell_formula_units_Z 96
_cell_length_a 15.758011
_cell_length_b 27.046476
_cell_length_c 12.182175
_cell_angle_alpha 90.000000
_cell_angle_beta 90.000000
_cell_angle_gamma 90.000000
_cell_volume 5192.026738
_symmetry_space_group_name_H-M "I M M M"
_symmetry_group_IT_number 71
_symmetry_cell_setting 'orthorhombic'
loop_
_space_group_symop_operation_xyz
x,y,z
-x,-y,z
x,-y,-z
-x,y,-z
-x,-y,-z
x,y,-z
-x,y,z
x,-y,z
1/2+x,1/2+y,1/2+z
1/2-x,1/2-y,1/2+z
1/2+x,1/2-y,1/2-z
1/2-x,1/2+y,1/2-z
1/2-x,1/2-y,1/2-z
1/2+x,1/2+y,1/2-z
1/2-x,1/2+y,1/2+z
1/2+x,1/2-y,1/2+z
loop_
_atom_site_type_symbol
_atom_site_label
_atom_site_fract_x
_atom_site_fract_y
_atom_site_fract_z
Si Si1 0.602848 0.054442 0.244441
Si Si2 0.648020 0.659258 0.127194
Si Si3 0.599044 0.192538 0.000000
Si Si4 0.648260 0.846140 0.624664
Si Si5 0.599019 0.925615 0.000000
Si Si6 0.651456 0.759086 0.223140
Si Si7 0.898050 0.947262 0.628138
O O1 0.500000 0.056729 0.242265
O O2 0.631456 0.102591 0.311634
O O3 0.626817 0.000000 0.289448
O O4 0.633848 0.057535 0.117737
O O5 0.750035 0.661423 0.121103
O O6 0.614511 0.704498 0.200411
O O7 0.628238 0.605273 0.175126
O O8 0.616196 0.663208 0.000000
O O9 0.643324 0.213509 0.107245
O O10 0.500000 0.207336 0.000000
O O11 0.602115 0.133582 0.000000
O O12 0.616590 0.849256 0.500000
O O13 0.614220 0.797726 0.688806
O O14 0.500000 0.941031 0.000000
O O15 0.750000 0.750000 0.250000
O O16 0.870191 0.946251 0.500000
O O17 0.000000 0.948077 0.628051
O O18 0.868184 0.000000 0.675625
#
# Coordination Sequence:
#
# PCOD9521325 Si02
#       7
#    16  16   8  16   8  16  16
#     4  10  20  34  52  73  98 132 173 219 271 320
#     4   9  17  30  47  70  96 129 169 206 252 312
#     4  11  20  33  58  87 106 135 186 235 272 324
#     4  10  21  34  48  68 100 140 180 214 261 325
#     4   9  17  32  53  78 102 124 165 223 277 314
#     4  10  20  34  52  75 109 140 177 221 279 327
#     4   8  14  25  42  66  96 125 150 187 248 310
#
# _framework density 18.489889999999999
#
# number of rings (size 3 to 8) (size 9 to 14) (size 15 to 20)
#    0.000    2.500    2.500    0.750    1.167    3.000 
#    0.000    2.500    0.000    0.000    0.000    0.000 
#    0.000    0.000    0.000    1.833    2.667    0.167 
#
# Total GULP energy -267250.396425 kJ/mol
# GULP energy per Si atom -5567.716592 kJ/mol
# Density = 1.844781 g / cm^3
# Si number density = 18.489890 Si / 1000 Ang^3
#
#
#
# Elastic Constant Matrix: (Units=GPa)
#
#
# Indices 1 2 3 4 5 6 
#
# 1 23.7898 8.8735 10.9826 0.0000 0.0000 0.0000
# 2 8.8735 204.2432 68.6534 0.0000 0.0000 0.0000
# 3 10.9826 68.6534 106.3545 0.0000 0.0000 0.0000
# 4 0.0000 0.0000 0.0000 9.8269 0.0000 0.0000
# 5 0.0000 0.0000 0.0000 0.0000 6.9647 0.0000
# 6 0.0000 0.0000 0.0000 0.0000 0.0000 25.8629
#
#
#
# Elastic Compliance Matrix: (Units=1/GPa)
#
#
# Indices 1 2 3 4 5 6 
#
# 1 0.044178 -0.000493 -0.004244 0.000000 0.000000 0.000000
# 2 -0.000493 0.006258 -0.003989 0.000000 0.000000 0.000000
# 3 -0.004244 -0.003989 0.012416 0.000000 0.000000 0.000000
# 4 0.000000 0.000000 0.000000 0.101761 0.000000 0.000000
# 5 0.000000 0.000000 0.000000 0.000000 0.143582 0.000000
# 6 0.000000 0.000000 0.000000 0.000000 0.000000 0.038665
#
#
# Mechanical properties :
#
#
# Convention : Reuss Voigt Hill
#
# Bulk Modulus (GPa) = 22.02616 56.82294 39.42455
# Shear Modulus (GPa) = 13.17713 24.92276 19.04995
#
# Velocity S-wave (km/s) = 2.67248 3.67538 3.21330
# Velocity P-wave (km/s) = 4.63263 6.98640 5.92752
#
# Compressibility (1/GPa) = 0.04540056
#
# Stress axis : x y z
#
# Youngs Moduli (GPa) = 22.63580 159.78594 80.54319
#
# Poissons Ratio (x) = 0.07874 0.34181
# Poissons Ratio (y) = 0.01116 0.32129
# Poissons Ratio (z) = 0.09606 0.63738
#
# Static dielectric constant tensor:
#      x y z
#    x 1.648430 0.000000 0.000000 
#    y 0.000000 1.701630 0.000000 
#    z 0.000000 0.000000 1.640190 
# 
# From -- ./inp_files/26190.got.cif
#   From: 2010.05.17/outbox.cif.g08.bks.cpg/sg71_14_cif.got.tgz:26190.got - 2010.06.03 16:22:01.
