data_PCOD9521520
_publ_section_title
;
Structure prediction by ZEFSAII (Michael W. Deem and Ramdas Pophale) SiO2 
 PCOD9521520
Probable space group: I M M M
;
_chemical_formula_sum "Si O2"
_cell_formula_units_Z 104
_cell_length_a 7.738127
_cell_length_b 24.543842
_cell_length_c 26.394933
_cell_angle_alpha 90.000000
_cell_angle_beta 90.000000
_cell_angle_gamma 90.000000
_cell_volume 5013.014533
_symmetry_space_group_name_H-M "I M M M"
_symmetry_group_IT_number 71
_symmetry_cell_setting 'orthorhombic'
loop_
_space_group_symop_operation_xyz
x,y,z
-x,-y,z
x,-y,-z
-x,y,-z
-x,-y,-z
x,y,-z
-x,y,z
x,-y,z
1/2+x,1/2+y,1/2+z
1/2-x,1/2-y,1/2+z
1/2+x,1/2-y,1/2-z
1/2-x,1/2+y,1/2-z
1/2-x,1/2-y,1/2-z
1/2+x,1/2+y,1/2-z
1/2-x,1/2+y,1/2+z
1/2+x,1/2-y,1/2+z
loop_
_atom_site_type_symbol
_atom_site_label
_atom_site_fract_x
_atom_site_fract_y
_atom_site_fract_z
Si Si1 0.193758 0.221081 0.801715
Si Si2 0.291359 0.667017 0.840927
Si Si3 0.797428 0.061748 0.725321
Si Si4 0.209542 0.564478 0.443324
Si Si5 0.801343 0.604417 0.666001
Si Si6 0.193998 0.000000 0.438569
Si Si7 0.289559 0.384969 0.055991
O O1 0.250000 0.250000 0.750000
O O2 0.206625 0.274323 0.835353
O O3 0.295795 0.168852 0.821251
O O4 0.000000 0.200271 0.795481
O O5 0.500000 0.672336 0.832980
O O6 0.231662 0.615993 0.805127
O O7 0.254522 0.653842 0.898772
O O8 0.780949 0.074383 0.785381
O O9 0.000000 0.059639 0.711935
O O10 0.727646 0.000000 0.714709
O O11 0.269857 0.582815 0.500000
O O12 0.248120 0.500000 0.439472
O O13 0.270251 0.592368 0.390650
O O14 0.000000 0.570298 0.444211
O O15 0.000000 0.585851 0.665467
O O16 0.280778 0.056363 0.426870
O O17 0.178003 0.000000 0.500000
O O18 0.000000 0.000000 0.416139
O O19 0.500000 0.390963 0.053108
O O20 0.228975 0.370811 0.000000
#
# Coordination Sequence:
#
# PCOD9521520 Si02
#       7
#    16  16  16  16  16   8  16
#     4  12  24  40  59  78 104 141 185 232 278 330
#     4  10  20  34  54  79 109 144 182 223 272 323
#     4  10  21  34  50  78 116 151 181 222 276 330
#     4   8  15  30  54  86 121 152 184 225 273 327
#     4  11  21  35  59  86 111 144 186 232 280 330
#     4   7  10  18  36  66 101 133 165 205 250 293
#     4   8  14  25  44  72 104 136 173 216 258 304
#
# _framework density 20.745999999999999
#
# number of rings (size 3 to 8) (size 9 to 14) (size 15 to 20)
#    0.000    2.385    1.538    3.692    1.077    0.923 
#    0.000    0.769    0.000    6.923    0.000    5.385 
#    0.000    1.846    0.000    0.000    0.000    0.000 
#
# Total GULP energy -289535.769779 kJ/mol
# GULP energy per Si atom -5567.995573 kJ/mol
# Density = 2.069878 g / cm^3
# Si number density = 20.746000 Si / 1000 Ang^3
#
#
#
# Elastic Constant Matrix: (Units=GPa)
#
#
# Indices 1 2 3 4 5 6 
#
# 1 33.5702 -7.6906 -4.8486 0.0000 0.0000 0.0000
# 2 -7.6906 78.2124 26.3098 0.0000 0.0000 0.0000
# 3 -4.8486 26.3098 107.0013 0.0000 0.0000 0.0000
# 4 0.0000 0.0000 0.0000 32.8334 0.0000 0.0000
# 5 0.0000 0.0000 0.0000 0.0000 12.9134 0.0000
# 6 0.0000 0.0000 0.0000 0.0000 0.0000 7.1505
#
#
#
# Elastic Compliance Matrix: (Units=1/GPa)
#
#
# Indices 1 2 3 4 5 6 
#
# 1 0.030523 0.002765 0.000703 0.000000 0.000000 0.000000
# 2 0.002765 0.014189 -0.003364 0.000000 0.000000 0.000000
# 3 0.000703 -0.003364 0.010205 0.000000 0.000000 0.000000
# 4 0.000000 0.000000 0.000000 0.030457 0.000000 0.000000
# 5 0.000000 0.000000 0.000000 0.000000 0.077439 0.000000
# 6 0.000000 0.000000 0.000000 0.000000 0.000000 0.139850
#
#
# Mechanical properties :
#
#
# Convention : Reuss Voigt Hill
#
# Bulk Modulus (GPa) = 18.14030 27.36945 22.75488
# Shear Modulus (GPa) = 15.58463 24.24701 19.91582
#
# Velocity S-wave (km/s) = 2.74380 3.42242 3.10172
# Velocity P-wave (km/s) = 4.33600 5.37015 4.88054
#
# Compressibility (1/GPa) = 0.05512588
#
# Stress axis : x y z
#
# Youngs Moduli (GPa) = 32.76191 70.47700 97.99508
#
# Poissons Ratio (x) = -0.19485 -0.06892
# Poissons Ratio (y) = -0.09058 0.32961
# Poissons Ratio (z) = -0.02304 0.23705
#
# Static dielectric constant tensor:
#      x y z
#    x 1.878000 0.000000 0.000000 
#    y 0.000000 1.652780 0.000000 
#    z 0.000000 0.000000 1.816170 
# 
# From -- ./inp_files/63333.got.cif
#   From: 2010.05.17/outbox.cif.g08.bks.cpg/sg71_32_cif.got.tgz:63333.got - 2010.06.03 16:22:01.
