data_PCOD9521779
_publ_section_title
;
Structure prediction by ZEFSAII (Michael W. Deem and Ramdas Pophale) SiO2 
 PCOD9521779
Probable space group: I M M M
;
_chemical_formula_sum "Si O2"
_cell_formula_units_Z 96
_cell_length_a 8.137142
_cell_length_b 24.921385
_cell_length_c 23.940480
_cell_angle_alpha 90.000000
_cell_angle_beta 90.000000
_cell_angle_gamma 90.000000
_cell_volume 4854.862374
_symmetry_space_group_name_H-M "I M M M"
_symmetry_group_IT_number 71
_symmetry_cell_setting 'orthorhombic'
loop_
_space_group_symop_operation_xyz
x,y,z
-x,-y,z
x,-y,-z
-x,y,-z
-x,-y,-z
x,y,-z
-x,y,z
x,-y,z
1/2+x,1/2+y,1/2+z
1/2-x,1/2-y,1/2+z
1/2+x,1/2-y,1/2-z
1/2-x,1/2+y,1/2-z
1/2-x,1/2-y,1/2-z
1/2+x,1/2+y,1/2-z
1/2-x,1/2+y,1/2+z
1/2+x,1/2-y,1/2+z
loop_
_atom_site_type_symbol
_atom_site_label
_atom_site_fract_x
_atom_site_fract_y
_atom_site_fract_z
Si Si1 0.194371 0.164184 0.230050
Si Si2 0.693042 0.156842 0.643960
Si Si3 0.301078 0.122841 0.063733
Si Si4 0.306370 0.770578 0.871138
Si Si5 0.696843 0.441079 0.666730
Si Si6 0.200503 0.439020 0.935586
O O1 0.224400 0.162685 0.295658
O O2 0.277073 0.210557 0.192947
O O3 0.258323 0.107590 0.205070
O O4 0.000000 0.168836 0.219368
O O5 0.500000 0.148208 0.653199
O O6 0.719531 0.214726 0.615792
O O7 0.756758 0.107487 0.606462
O O8 0.500000 0.121995 0.065291
O O9 0.248123 0.179418 0.091241
O O10 0.237114 0.076066 0.103677
O O11 0.247259 0.118219 0.000000
O O12 0.500000 0.763390 0.879780
O O13 0.500000 0.442501 0.673331
O O14 0.763011 0.500000 0.680114
O O15 0.250155 0.500000 0.920157
O O16 0.000000 0.438080 0.935284
O O17 0.250974 0.429282 0.000000
#
# Coordination Sequence:
#
# PCOD9521779 Si02
#       6
#    16  16  16  16  16  16
#     4  10  20  35  53  73 102 137 170 207 251 298
#     4  11  21  32  52  81 105 128 165 208 249 299
#     4   9  19  35  53  74 101 134 171 210 252 297
#     4  10  20  35  53  73 102 137 170 207 251 298
#     4   9  19  35  53  74 101 134 171 210 252 297
#     4   8  16  33  54  75 102 134 166 203 246 292
#
# _framework density 19.773990000000001
#
# number of rings (size 3 to 8) (size 9 to 14) (size 15 to 20)
#    0.000    2.500    0.000    2.500    0.000    3.667 
#    0.000    1.667    0.000    3.000    0.000    4.667 
#    0.000    0.000    0.000    0.000    0.000    0.000 
#
# Total GULP energy -267831.969832 kJ/mol
# GULP energy per Si atom -5579.832705 kJ/mol
# Density = 1.972898 g / cm^3
# Si number density = 19.773990 Si / 1000 Ang^3
#
#
#
# Elastic Constant Matrix: (Units=GPa)
#
#
# Indices 1 2 3 4 5 6 
#
# 1 10.1933 0.1544 -2.5916 0.0000 0.0000 0.0000
# 2 0.1544 126.7398 23.1118 0.0000 0.0000 0.0000
# 3 -2.5916 23.1118 30.1612 0.0000 0.0000 0.0000
# 4 0.0000 0.0000 0.0000 19.2804 0.0000 0.0000
# 5 0.0000 0.0000 0.0000 0.0000 16.6974 0.0000
# 6 0.0000 0.0000 0.0000 0.0000 0.0000 14.7278
#
#
#
# Elastic Compliance Matrix: (Units=1/GPa)
#
#
# Indices 1 2 3 4 5 6 
#
# 1 0.100720 -0.001977 0.010169 0.000000 0.000000 0.000000
# 2 -0.001977 0.009211 -0.007228 0.000000 0.000000 0.000000
# 3 0.010169 -0.007228 0.039567 0.000000 0.000000 0.000000
# 4 0.000000 0.000000 0.000000 0.051866 0.000000 0.000000
# 5 0.000000 0.000000 0.000000 0.000000 0.059890 0.000000
# 6 0.000000 0.000000 0.000000 0.000000 0.000000 0.067899
#
#
# Mechanical properties :
#
#
# Convention : Reuss Voigt Hill
#
# Bulk Modulus (GPa) = 6.60386 23.16038 14.88212
# Shear Modulus (GPa) = 13.23806 19.90242 16.57024
#
# Velocity S-wave (km/s) = 2.59022 3.17597 2.89793
# Velocity P-wave (km/s) = 3.50607 5.01867 4.32895
#
# Compressibility (1/GPa) = 0.15142658
#
# Stress axis : x y z
#
# Youngs Moduli (GPa) = 9.92856 108.57036 25.27330
#
# Poissons Ratio (x) = 0.21466 -0.25701
# Poissons Ratio (y) = 0.01963 0.18267
# Poissons Ratio (z) = -0.10097 0.78472
#
# Static dielectric constant tensor:
#      x y z
#    x 1.691000 0.000000 0.000000 
#    y 0.000000 1.709380 0.000000 
#    z 0.000000 0.000000 1.682590 
# 
# From -- ./inp_files/12832.got.cif
#   From: 2010.05.17/outbox.cif.g08.bks.cpg/sg71_7_cif.got.tgz:12832.got - 2010.06.03 16:22:01.
