data_PCOD9521911
_publ_section_title
;
Structure prediction by ZEFSAII (Michael W. Deem and Ramdas Pophale) SiO2 
 PCOD9521911
Probable space group: I M M M
;
_chemical_formula_sum "Si O2"
_cell_formula_units_Z 72
_cell_length_a 14.559857
_cell_length_b 12.838011
_cell_length_c 23.126456
_cell_angle_alpha 90.000000
_cell_angle_beta 90.000000
_cell_angle_gamma 90.000000
_cell_volume 4322.788005
_symmetry_space_group_name_H-M "I M M M"
_symmetry_group_IT_number 71
_symmetry_cell_setting 'orthorhombic'
loop_
_space_group_symop_operation_xyz
x,y,z
-x,-y,z
x,-y,-z
-x,y,-z
-x,-y,-z
x,y,-z
-x,y,z
x,-y,z
1/2+x,1/2+y,1/2+z
1/2-x,1/2-y,1/2+z
1/2+x,1/2-y,1/2-z
1/2-x,1/2+y,1/2-z
1/2-x,1/2-y,1/2-z
1/2+x,1/2+y,1/2-z
1/2-x,1/2+y,1/2+z
1/2+x,1/2-y,1/2+z
loop_
_atom_site_type_symbol
_atom_site_label
_atom_site_fract_x
_atom_site_fract_y
_atom_site_fract_z
Si Si1 0.609206 0.878476 0.500000
Si Si2 0.255848 0.377083 0.683891
Si Si3 0.393783 0.381183 0.096589
Si Si4 0.392751 0.711895 0.222560
Si Si5 0.265779 0.730254 0.562210
O O1 0.500000 0.870789 0.500000
O O2 0.653541 0.816070 0.446030
O O3 0.635090 0.000000 0.500000
O O4 0.242609 0.500000 0.686852
O O5 0.340133 0.341944 0.724547
O O6 0.165970 0.314665 0.706327
O O7 0.274612 0.339821 0.618397
O O8 0.500000 0.365817 0.079866
O O9 0.367782 0.500000 0.082947
O O10 0.387651 0.361221 0.165629
O O11 0.326577 0.298129 0.068331
O O12 0.500000 0.732646 0.234135
O O13 0.264535 0.673391 0.500000
#
# Coordination Sequence:
#
# PCOD9521911 Si02
#       5
#     8  16  16  16  16
#     4   9  18  34  52  68  96 139 178 214 256 296
#     4  10  20  35  56  79 105 140 177 217 265 315
#     4   9  16  28  50  78 104 130 163 209 266 318
#     4   9  19  35  54  79 108 135 171 218 265 318
#     4   9  20  33  48  73 105 139 176 217 253 304
#
# _framework density 16.655918
#
# number of rings (size 3 to 8) (size 9 to 14) (size 15 to 20)
#    0.667    2.111    0.000    1.333    0.000    3.556 
#    0.000    2.222    0.000    0.667    0.000    6.222 
#    0.000    0.000    0.000    0.000    0.000    0.000 
#
# Total GULP energy -200451.033640 kJ/mol
# GULP energy per Si atom -5568.084268 kJ/mol
# Density = 1.661801 g / cm^3
# Si number density = 16.655918 Si / 1000 Ang^3
#
#
#
# Elastic Constant Matrix: (Units=GPa)
#
#
# Indices 1 2 3 4 5 6 
#
# 1 71.7896 17.8028 13.4554 0.0000 0.0000 0.0000
# 2 17.8028 90.5921 20.4622 0.0000 0.0000 0.0000
# 3 13.4554 20.4622 69.9186 0.0000 0.0000 0.0000
# 4 0.0000 0.0000 0.0000 10.2601 0.0000 0.0000
# 5 0.0000 0.0000 0.0000 0.0000 21.8435 0.0000
# 6 0.0000 0.0000 0.0000 0.0000 0.0000 14.0553
#
#
#
# Elastic Compliance Matrix: (Units=1/GPa)
#
#
# Indices 1 2 3 4 5 6 
#
# 1 0.014941 -0.002449 -0.002159 0.000000 0.000000 0.000000
# 2 -0.002449 0.012221 -0.003105 0.000000 0.000000 0.000000
# 3 -0.002159 -0.003105 0.015627 0.000000 0.000000 0.000000
# 4 0.000000 0.000000 0.000000 0.097465 0.000000 0.000000
# 5 0.000000 0.000000 0.000000 0.000000 0.045780 0.000000
# 6 0.000000 0.000000 0.000000 0.000000 0.000000 0.071148
#
#
# Mechanical properties :
#
#
# Convention : Reuss Voigt Hill
#
# Bulk Modulus (GPa) = 36.54491 37.30456 36.92474
# Shear Modulus (GPa) = 17.74755 21.27043 19.50899
#
# Velocity S-wave (km/s) = 3.26780 3.57746 3.42613
# Velocity P-wave (km/s) = 6.01887 6.28571 6.15373
#
# Compressibility (1/GPa) = 0.02736359
#
# Stress axis : x y z
#
# Youngs Moduli (GPa) = 66.92793 81.82574 63.99341
#
# Poissons Ratio (x) = 0.20036 0.13815
# Poissons Ratio (y) = 0.16388 0.19872
# Poissons Ratio (z) = 0.14448 0.25410
#
# Static dielectric constant tensor:
#      x y z
#    x 1.545830 0.000000 0.000000 
#    y 0.000000 1.528290 0.000000 
#    z 0.000000 0.000000 1.579540 
# 
# From -- ./inp_files/59574.got.cif
#   From: 2010.05.17/outbox.cif.g08.bks.cpg/sg71_30_cif.got.tgz:59574.got - 2010.06.03 16:22:01.
