data_PCOD9521333
_publ_section_title
;
Structure prediction by ZEFSAII (Michael W. Deem and Ramdas Pophale) SiO2 
 PCOD9521333
Probable space group: I M M M
;
_chemical_formula_sum "Si O2"
_cell_formula_units_Z 88
_cell_length_a 8.132432
_cell_length_b 26.531071
_cell_length_c 19.596646
_cell_angle_alpha 90.000000
_cell_angle_beta 90.000000
_cell_angle_gamma 90.000000
_cell_volume 4228.214097
_symmetry_space_group_name_H-M "I M M M"
_symmetry_group_IT_number 71
_symmetry_cell_setting 'orthorhombic'
loop_
_space_group_symop_operation_xyz
x,y,z
-x,-y,z
x,-y,-z
-x,y,-z
-x,-y,-z
x,y,-z
-x,y,z
x,-y,z
1/2+x,1/2+y,1/2+z
1/2-x,1/2-y,1/2+z
1/2+x,1/2-y,1/2-z
1/2-x,1/2+y,1/2-z
1/2-x,1/2-y,1/2-z
1/2+x,1/2+y,1/2-z
1/2-x,1/2+y,1/2+z
1/2+x,1/2-y,1/2+z
loop_
_atom_site_type_symbol
_atom_site_label
_atom_site_fract_x
_atom_site_fract_y
_atom_site_fract_z
Si Si1 0.189286 0.099682 0.711995
Si Si2 0.698931 0.650844 0.077421
Si Si3 0.809295 0.302164 0.717531
Si Si4 0.500000 0.561791 0.578748
Si Si5 0.677706 0.940995 0.156882
Si Si6 0.194996 0.233682 0.922326
O O1 0.250306 0.111678 0.635827
O O2 0.202772 0.153468 0.750216
O O3 0.290724 0.064396 0.762426
O O4 0.000000 0.082583 0.709622
O O5 0.500000 0.655512 0.082588
O O6 0.771594 0.706564 0.089170
O O7 0.740250 0.635786 0.000000
O O8 0.750000 0.250000 0.750000
O O9 0.785121 0.296744 0.636679
O O10 0.000000 0.310912 0.734312
O O11 0.500000 0.500000 0.581162
O O12 0.500000 0.576982 0.500000
O O13 0.663965 0.579716 0.617225
O O14 0.500000 0.918080 0.139792
O O15 0.671148 0.000000 0.139583
O O16 0.000000 0.224896 0.916730
O O17 0.247690 0.222466 0.000000
#
# Coordination Sequence:
#
# PCOD9521333 Si02
#       6
#    16  16  16   8  16  16
#     4  11  21  35  58  84 112 148 188 236 288 338
#     4   9  18  32  52  79 108 142 186 232 277 329
#     4  12  23  35  52  77 109 145 187 232 278 333
#     4   9  18  36  62  90 119 151 187 231 284 342
#     4  10  21  38  61  90 120 151 190 236 286 340
#     4  10  20  34  52  74 103 140 181 227 277 328
#
# _framework density 20.812570000000001
#
# number of rings (size 3 to 8) (size 9 to 14) (size 15 to 20)
#    0.000    1.727    2.727    2.727    0.000    2.182 
#    0.000    2.727    0.000    2.727    0.000    3.818 
#    0.000    0.000    0.000    0.000    0.000    0.000 
#
# Total GULP energy -245798.901711 kJ/mol
# GULP energy per Si atom -5586.338675 kJ/mol
# Density = 2.076520 g / cm^3
# Si number density = 20.812570 Si / 1000 Ang^3
#
#
#
# Elastic Constant Matrix: (Units=GPa)
#
#
# Indices 1 2 3 4 5 6 
#
# 1 99.6455 7.4519 43.4886 0.0000 0.0000 0.0000
# 2 7.4519 17.8030 -0.5068 0.0000 0.0000 0.0000
# 3 43.4886 -0.5068 129.8183 0.0000 0.0000 0.0000
# 4 0.0000 0.0000 0.0000 27.8651 0.0000 0.0000
# 5 0.0000 0.0000 0.0000 0.0000 17.4080 0.0000
# 6 0.0000 0.0000 0.0000 0.0000 0.0000 15.9033
#
#
#
# Elastic Compliance Matrix: (Units=1/GPa)
#
#
# Indices 1 2 3 4 5 6 
#
# 1 0.012223 -0.005233 -0.004115 0.000000 0.000000 0.000000
# 2 -0.005233 0.058417 0.001981 0.000000 0.000000 0.000000
# 3 -0.004115 0.001981 0.009089 0.000000 0.000000 0.000000
# 4 0.000000 0.000000 0.000000 0.035887 0.000000 0.000000
# 5 0.000000 0.000000 0.000000 0.000000 0.057445 0.000000
# 6 0.000000 0.000000 0.000000 0.000000 0.000000 0.062880
#
#
# Mechanical properties :
#
#
# Convention : Reuss Voigt Hill
#
# Bulk Modulus (GPa) = 15.38576 38.68157 27.03366
# Shear Modulus (GPa) = 18.35933 25.35749 21.85841
#
# Velocity S-wave (km/s) = 2.97328 3.49431 3.24427
# Velocity P-wave (km/s) = 4.38130 5.90815 5.20106
#
# Compressibility (1/GPa) = 0.06499519
#
# Stress axis : x y z
#
# Youngs Moduli (GPa) = 81.81363 17.11819 110.01903
#
# Poissons Ratio (x) = 0.08959 0.45273
# Poissons Ratio (y) = 0.42816 -0.21797
# Poissons Ratio (z) = 0.33667 -0.03391
#
# Static dielectric constant tensor:
#      x y z
#    x 1.747140 0.000000 0.000000 
#    y 0.000000 1.745620 0.000000 
#    z 0.000000 0.000000 1.763500 
# 
# From -- ./inp_files/42446.got.cif
#   From: 2010.05.17/outbox.cif.g08.bks.cpg/sg71_22_cif.got.tgz:42446.got - 2010.06.03 16:22:01.
