data_PCOD9521691
_publ_section_title
;
Structure prediction by ZEFSAII (Michael W. Deem and Ramdas Pophale) SiO2 
 PCOD9521691
Probable space group: I M M M
;
_chemical_formula_sum "Si O2"
_cell_formula_units_Z 96
_cell_length_a 27.462110
_cell_length_b 19.238524
_cell_length_c 11.079631
_cell_angle_alpha 90.000000
_cell_angle_beta 90.000000
_cell_angle_gamma 90.000000
_cell_volume 5853.706569
_symmetry_space_group_name_H-M "I M M M"
_symmetry_group_IT_number 71
_symmetry_cell_setting 'orthorhombic'
loop_
_space_group_symop_operation_xyz
x,y,z
-x,-y,z
x,-y,-z
-x,y,-z
-x,-y,-z
x,y,-z
-x,y,z
x,-y,z
1/2+x,1/2+y,1/2+z
1/2-x,1/2-y,1/2+z
1/2+x,1/2-y,1/2-z
1/2-x,1/2+y,1/2-z
1/2-x,1/2-y,1/2-z
1/2+x,1/2+y,1/2-z
1/2-x,1/2+y,1/2+z
1/2+x,1/2-y,1/2+z
loop_
_atom_site_type_symbol
_atom_site_label
_atom_site_fract_x
_atom_site_fract_y
_atom_site_fract_z
Si Si1 0.405259 0.856689 0.255368
Si Si2 0.943446 0.077185 0.646530
Si Si3 0.442126 0.080967 0.500000
Si Si4 0.810907 0.580948 0.141351
Si Si5 0.881571 0.790608 0.357803
Si Si6 0.766118 0.201248 0.360807
Si Si7 0.500000 0.923046 0.858120
O O1 0.426191 0.874413 0.386102
O O2 0.352884 0.895292 0.265135
O O3 0.394851 0.777739 0.217990
O O4 0.449244 0.885922 0.174189
O O5 0.941628 0.076672 0.500000
O O6 0.911234 0.142050 0.685483
O O7 0.000000 0.086417 0.680295
O O8 0.927483 0.000000 0.686737
O O9 0.500000 0.075602 0.500000
O O10 0.423557 0.000000 0.500000
O O11 0.800036 0.500000 0.158468
O O12 0.764002 0.630012 0.153672
O O13 0.827194 0.589618 0.000000
O O14 0.893417 0.777634 0.500000
O O15 0.824173 0.806199 0.351833
O O16 0.755895 0.226413 0.500000
O O17 0.750000 0.250000 0.250000
O O18 0.500000 0.000000 0.798524
O O19 0.500000 0.930176 0.000000
#
# Coordination Sequence:
#
# PCOD9521691 Si02
#       7
#    16  16   8  16  16  16   8
#     4  12  21  34  54  76 109 140 180 221 272 316
#     4   8  15  29  50  77 108 139 171 211 263 320
#     4  11  22  36  54  76 105 143 185 233 273 307
#     4  10  20  34  56  82 105 136 182 229 273 318
#     4  10  21  34  53  80 112 144 175 217 273 327
#     4  10  20  37  55  77 108 142 177 221 273 321
#     4  11  24  37  49  71 106 149 185 216 265 328
#
# _framework density 16.399865999999999
#
# number of rings (size 3 to 8) (size 9 to 14) (size 15 to 20)
#    0.000    1.833    3.333    2.500    1.167    0.667 
#    0.000    3.333    0.000    1.500    0.000    0.583 
#    0.000    2.000    0.000    0.000    0.000    0.000 
#
# Total GULP energy -267248.435204 kJ/mol
# GULP energy per Si atom -5567.675733 kJ/mol
# Density = 1.636254 g / cm^3
# Si number density = 16.399866 Si / 1000 Ang^3
#
#
#
# Elastic Constant Matrix: (Units=GPa)
#
#
# Indices 1 2 3 4 5 6 
#
# 1 100.8031 85.8514 38.4065 0.0000 0.0000 0.0000
# 2 85.8514 166.2357 57.0574 0.0000 0.0000 0.0000
# 3 38.4065 57.0574 70.9424 0.0000 0.0000 0.0000
# 4 0.0000 0.0000 0.0000 23.6191 0.0000 0.0000
# 5 0.0000 0.0000 0.0000 0.0000 8.5600 0.0000
# 6 0.0000 0.0000 0.0000 0.0000 0.0000 33.2499
#
#
#
# Elastic Compliance Matrix: (Units=1/GPa)
#
#
# Indices 1 2 3 4 5 6 
#
# 1 0.018212 -0.008317 -0.003170 0.000000 0.000000 0.000000
# 2 -0.008317 0.012108 -0.005235 0.000000 0.000000 0.000000
# 3 -0.003170 -0.005235 0.020023 0.000000 0.000000 0.000000
# 4 0.000000 0.000000 0.000000 0.042339 0.000000 0.000000
# 5 0.000000 0.000000 0.000000 0.000000 0.116822 0.000000
# 6 0.000000 0.000000 0.000000 0.000000 0.000000 0.030075
#
#
# Mechanical properties :
#
#
# Convention : Reuss Voigt Hill
#
# Bulk Modulus (GPa) = 59.18146 77.84576 68.51361
# Shear Modulus (GPa) = 17.94328 23.53021 20.73674
#
# Velocity S-wave (km/s) = 3.31132 3.79196 3.55976
# Velocity P-wave (km/s) = 7.12634 8.16960 7.66574
#
# Compressibility (1/GPa) = 0.01689718
#
# Stress axis : x y z
#
# Youngs Moduli (GPa) = 54.90962 82.59058 49.94316
#
# Poissons Ratio (x) = 0.68693 0.15832
# Poissons Ratio (y) = 0.45670 0.26147
# Poissons Ratio (z) = 0.17406 0.43239
#
# Static dielectric constant tensor:
#      x y z
#    x 1.572330 0.000000 0.000000 
#    y 0.000000 1.541700 0.000000 
#    z 0.000000 0.000000 1.498270 
# 
# From -- ./inp_files/29953.got.cif
#   From: 2010.05.17/outbox.cif.g08.bks.cpg/sg71_15_cif.got.tgz:29953.got - 2010.06.03 16:22:01.
