data_PCOD9521535
_publ_section_title
;
Structure prediction by ZEFSAII (Michael W. Deem and Ramdas Pophale) SiO2 
 PCOD9521535
Probable space group: I M M M
;
_chemical_formula_sum "Si O2"
_cell_formula_units_Z 104
_cell_length_a 9.739318
_cell_length_b 23.373826
_cell_length_c 26.296256
_cell_angle_alpha 90.000000
_cell_angle_beta 90.000000
_cell_angle_gamma 90.000000
_cell_volume 5986.214465
_symmetry_space_group_name_H-M "I M M M"
_symmetry_group_IT_number 71
_symmetry_cell_setting 'orthorhombic'
loop_
_space_group_symop_operation_xyz
x,y,z
-x,-y,z
x,-y,-z
-x,y,-z
-x,-y,-z
x,y,-z
-x,y,z
x,-y,z
1/2+x,1/2+y,1/2+z
1/2-x,1/2-y,1/2+z
1/2+x,1/2-y,1/2-z
1/2-x,1/2+y,1/2-z
1/2-x,1/2-y,1/2-z
1/2+x,1/2+y,1/2-z
1/2-x,1/2+y,1/2+z
1/2+x,1/2-y,1/2+z
loop_
_atom_site_type_symbol
_atom_site_label
_atom_site_fract_x
_atom_site_fract_y
_atom_site_fract_z
Si Si1 0.660206 0.786759 0.859827
Si Si2 0.844422 0.828320 0.699123
Si Si3 0.341411 0.567689 0.000000
Si Si4 0.334752 0.887531 0.784244
Si Si5 0.148727 0.500000 0.835098
Si Si6 0.727111 0.887610 0.394399
Si Si7 0.153624 0.269266 0.058976
Si Si8 0.167544 0.000000 0.237588
O O1 0.500000 0.782637 0.873007
O O2 0.684460 0.736678 0.817944
O O3 0.685866 0.847209 0.833176
O O4 0.748149 0.771658 0.909033
O O5 0.728764 0.852672 0.736468
O O6 0.835521 0.865633 0.647477
O O7 0.000000 0.832385 0.720181
O O8 0.282259 0.591184 0.947995
O O9 0.322311 0.500000 0.000000
O O10 0.500000 0.581998 0.000000
O O11 0.500000 0.897186 0.778246
O O12 0.241880 0.944376 0.786239
O O13 0.155995 0.442379 0.868539
O O14 0.275343 0.500000 0.795862
O O15 0.000000 0.500000 0.808033
O O16 0.650203 0.829540 0.410640
O O17 0.000000 0.245770 0.058624
O O18 0.196154 0.278286 0.000000
O O19 0.000000 0.000000 0.235297
#
# Coordination Sequence:
#
# PCOD9521535 Si02
#       8
#    16  16   8  16   8  16  16   8
#     4   9  21  38  57  84 113 147 186 229 277 335
#     4  10  20  34  54  80 110 143 186 231 280 333
#     4  11  22  34  48  70 102 144 192 247 296 335
#     4  11  22  38  59  83 114 146 185 228 279 339
#     4  12  24  37  55  76 107 151 197 242 291 334
#     4  11  21  36  52  75 105 147 196 240 288 332
#     4  10  21  37  57  83 114 147 187 235 285 335
#     4  12  26  40  59  83 113 149 189 234 281 337
#
# _framework density 17.373251
#
# number of rings (size 3 to 8) (size 9 to 14) (size 15 to 20)
#    0.000    1.462    3.077    2.538    0.000    5.231 
#    0.000    0.385    0.000    0.000    0.000    0.538 
#    0.000    4.308    0.000    0.000    0.000    0.000 
#
# Total GULP energy -289891.438542 kJ/mol
# GULP energy per Si atom -5574.835357 kJ/mol
# Density = 1.733371 g / cm^3
# Si number density = 17.373251 Si / 1000 Ang^3
#
#
#
# Elastic Constant Matrix: (Units=GPa)
#
#
# Indices 1 2 3 4 5 6 
#
# 1 118.9566 62.4873 46.9831 0.0000 0.0000 0.0000
# 2 62.4873 105.5840 52.2914 0.0000 0.0000 0.0000
# 3 46.9831 52.2914 74.8923 0.0000 0.0000 0.0000
# 4 0.0000 0.0000 0.0000 32.9468 0.0000 0.0000
# 5 0.0000 0.0000 0.0000 0.0000 29.4745 0.0000
# 6 0.0000 0.0000 0.0000 0.0000 0.0000 -16.5520
#
#
#
# Elastic Compliance Matrix: (Units=1/GPa)
#
#
# Indices 1 2 3 4 5 6 
#
# 1 0.013033 -0.005601 -0.004266 0.000000 0.000000 0.000000
# 2 -0.005601 0.016884 -0.008275 0.000000 0.000000 0.000000
# 3 -0.004266 -0.008275 0.021807 0.000000 0.000000 0.000000
# 4 0.000000 0.000000 0.000000 0.030352 0.000000 0.000000
# 5 0.000000 0.000000 0.000000 0.000000 0.033928 0.000000
# 6 0.000000 0.000000 0.000000 0.000000 0.000000 -0.060416
#
#
# Mechanical properties :
#
#
# Convention : Reuss Voigt Hill
#
# Bulk Modulus (GPa) = 64.76513 69.21741 66.99127
# Shear Modulus (GPa) = 51.53649 18.35193 34.94421
#
# Velocity S-wave (km/s) = 5.45240 3.25365 4.48971
# Velocity P-wave (km/s) = 8.77484 7.35139 8.09446
#
# Compressibility (1/GPa) = 0.01544041
#
# Stress axis : x y z
#
# Youngs Moduli (GPa) = 76.72654 59.22675 45.85765
#
# Poissons Ratio (x) = 0.33172 0.19562
# Poissons Ratio (y) = 0.42973 0.37949
# Poissons Ratio (z) = 0.32730 0.49012
#
# Static dielectric constant tensor:
#      x y z
#    x 1.606410 0.000000 0.000000 
#    y 0.000000 1.612730 0.000000 
#    z 0.000000 0.000000 1.565670 
# 
# From -- ./inp_files/63609.got.cif
#   From: 2010.05.17/outbox.cif.g08.bks.cpg/sg71_32_cif.got.tgz:63609.got - 2010.06.03 16:22:01.
