data_PCOD9521894
_publ_section_title
;
Structure prediction by ZEFSAII (Michael W. Deem and Ramdas Pophale) SiO2 
 PCOD9521894
Probable space group: I M M M
;
_chemical_formula_sum "Si O2"
_cell_formula_units_Z 116
_cell_length_a 8.642853
_cell_length_b 23.259801
_cell_length_c 28.659833
_cell_angle_alpha 90.000000
_cell_angle_beta 90.000000
_cell_angle_gamma 90.000000
_cell_volume 5761.516059
_symmetry_space_group_name_H-M "I M M M"
_symmetry_group_IT_number 71
_symmetry_cell_setting 'orthorhombic'
loop_
_space_group_symop_operation_xyz
x,y,z
-x,-y,z
x,-y,-z
-x,y,-z
-x,-y,-z
x,y,-z
-x,y,z
x,-y,z
1/2+x,1/2+y,1/2+z
1/2-x,1/2-y,1/2+z
1/2+x,1/2-y,1/2-z
1/2-x,1/2+y,1/2-z
1/2-x,1/2-y,1/2-z
1/2+x,1/2+y,1/2-z
1/2-x,1/2+y,1/2+z
1/2+x,1/2-y,1/2+z
loop_
_atom_site_type_symbol
_atom_site_label
_atom_site_fract_x
_atom_site_fract_y
_atom_site_fract_z
Si Si1 0.682700 0.565579 0.217897
Si Si2 0.314478 0.765297 0.198775
Si Si3 0.325172 0.299686 0.555095
Si Si4 0.682587 0.084287 0.918888
Si Si5 0.184947 0.827300 0.552349
Si Si6 0.817317 0.343545 0.853319
Si Si7 0.313400 0.898496 0.184277
Si Si8 0.218451 0.000000 0.000000
O O1 0.500000 0.577416 0.213902
O O2 0.712369 0.500000 0.203364
O O3 0.773209 0.610635 0.186140
O O4 0.734290 0.573235 0.271305
O O5 0.500000 0.901874 0.189077
O O6 0.250000 0.750000 0.250000
O O7 0.251387 0.717551 0.163416
O O8 0.271305 0.830558 0.185320
O O9 0.333746 0.311829 0.500000
O O10 0.500000 0.303075 0.574437
O O11 0.214248 0.348031 0.575579
O O12 0.257789 0.235994 0.558654
O O13 0.500000 0.071682 0.926090
O O14 0.725712 0.072644 0.865260
O O15 0.772479 0.049592 0.958571
O O16 0.227795 0.847579 0.500000
O O17 0.246463 0.861450 0.596874
O O18 0.000000 0.823291 0.554413
O O19 0.000000 0.338146 0.857418
O O20 0.000000 0.738042 0.300197
#
# Coordination Sequence:
#
# PCOD9521894 Si02
#       8
#    16  16  16  16  16  16  16   4
#     4  11  25  44  65  89 120 161 209 258 309 373
#     4  11  21  36  59  93 131 165 207 260 322 387
#     4  10  20  35  55  82 116 154 197 249 308 370
#     4  11  22  38  58  81 111 153 210 267 321 380
#     4  10  21  38  63  94 127 163 201 245 299 365
#     4  12  24  39  64  96 131 170 206 253 312 373
#     4  10  23  39  61  89 119 158 206 263 326 386
#     4  12  25  40  61  86 113 160 225 286 333 384
#
# _framework density 20.133589000000001
#
# number of rings (size 3 to 8) (size 9 to 14) (size 15 to 20)
#    0.000    1.241    2.069    4.345    0.966    4.690 
#    0.000    0.690    0.000    0.414    0.000    2.897 
#    0.000    0.000    0.000    0.000    0.000    0.000 
#
# Total GULP energy -323738.739796 kJ/mol
# GULP energy per Si atom -5581.702410 kJ/mol
# Density = 2.008776 g / cm^3
# Si number density = 20.133589 Si / 1000 Ang^3
#
#
#
# Elastic Constant Matrix: (Units=GPa)
#
#
# Indices 1 2 3 4 5 6 
#
# 1 50.0958 19.1762 25.3447 0.0000 0.0000 0.0000
# 2 19.1762 39.5185 13.9054 0.0000 0.0000 0.0000
# 3 25.3447 13.9054 132.0769 0.0000 0.0000 0.0000
# 4 0.0000 0.0000 0.0000 -12.9543 0.0000 0.0000
# 5 0.0000 0.0000 0.0000 0.0000 27.3480 0.0000
# 6 0.0000 0.0000 0.0000 0.0000 0.0000 -6.5342
#
#
#
# Elastic Compliance Matrix: (Units=1/GPa)
#
#
# Indices 1 2 3 4 5 6 
#
# 1 0.026267 -0.011394 -0.003841 0.000000 0.000000 0.000000
# 2 -0.011394 0.031221 -0.001101 0.000000 0.000000 0.000000
# 3 -0.003841 -0.001101 0.008424 0.000000 0.000000 0.000000
# 4 0.000000 0.000000 0.000000 -0.077195 0.000000 0.000000
# 5 0.000000 0.000000 0.000000 0.000000 0.036566 0.000000
# 6 0.000000 0.000000 0.000000 0.000000 0.000000 -0.153041
#
#
# Mechanical properties :
#
#
# Convention : Reuss Voigt Hill
#
# Bulk Modulus (GPa) = 30.08378 37.61598 33.84988
# Shear Modulus (GPa) = -59.51883 12.45623 -23.53130
#
# Velocity S-wave (km/s) = -5.44299 2.49002 -3.42242
# Velocity P-wave (km/s) = 4.95247 5.19526 1.10989
#
# Compressibility (1/GPa) = 0.03324051
#
# Stress axis : x y z
#
# Youngs Moduli (GPa) = 38.07126 32.02983 118.70521
#
# Poissons Ratio (x) = 0.36496 0.45592
# Poissons Ratio (y) = 0.43380 0.13064
# Poissons Ratio (z) = 0.14622 0.03525
#
# Static dielectric constant tensor:
#      x y z
#    x 1.705630 0.000000 0.000000 
#    y 0.000000 1.694330 0.000000 
#    z 0.000000 0.000000 1.738380 
# 
# From -- ./inp_files/63635.got.cif
#   From: 2010.05.17/outbox.cif.g08.bks.cpg/sg71_32_cif.got.tgz:63635.got - 2010.06.03 16:22:01.
