data_PCOD9521620
_publ_section_title
;
Structure prediction by ZEFSAII (Michael W. Deem and Ramdas Pophale) SiO2 
 PCOD9521620
Probable space group: I M M M
;
_chemical_formula_sum "Si O2"
_cell_formula_units_Z 120
_cell_length_a 7.672464
_cell_length_b 26.560657
_cell_length_c 27.806457
_cell_angle_alpha 90.000000
_cell_angle_beta 90.000000
_cell_angle_gamma 90.000000
_cell_volume 5666.557877
_symmetry_space_group_name_H-M "I M M M"
_symmetry_group_IT_number 71
_symmetry_cell_setting 'orthorhombic'
loop_
_space_group_symop_operation_xyz
x,y,z
-x,-y,z
x,-y,-z
-x,y,-z
-x,-y,-z
x,y,-z
-x,y,z
x,-y,z
1/2+x,1/2+y,1/2+z
1/2-x,1/2-y,1/2+z
1/2+x,1/2-y,1/2-z
1/2-x,1/2+y,1/2-z
1/2-x,1/2-y,1/2-z
1/2+x,1/2+y,1/2-z
1/2-x,1/2+y,1/2+z
1/2+x,1/2-y,1/2+z
loop_
_atom_site_type_symbol
_atom_site_label
_atom_site_fract_x
_atom_site_fract_y
_atom_site_fract_z
Si Si1 0.296922 0.645126 0.173509
Si Si2 0.711412 0.445738 0.343353
Si Si3 0.208264 0.557765 0.000000
Si Si4 0.711926 0.417726 0.552094
Si Si5 0.207159 0.942413 0.394141
Si Si6 0.789781 0.200586 0.052736
Si Si7 0.205465 0.255518 0.344901
Si Si8 0.704068 0.151361 0.218128
O O1 0.500000 0.647439 0.158578
O O2 0.221761 0.597510 0.144526
O O3 0.218022 0.699983 0.162195
O O4 0.289162 0.639895 0.230788
O O5 0.500000 0.443343 0.342859
O O6 0.763504 0.500000 0.322627
O O7 0.770094 0.442942 0.398848
O O8 0.776677 0.397116 0.315660
O O9 0.265906 0.578391 0.948383
O O10 0.275062 0.500000 0.000000
O O11 0.000000 0.557401 0.000000
O O12 0.772927 0.436562 0.500000
O O13 0.500000 0.421333 0.551563
O O14 0.756300 0.358530 0.555550
O O15 0.000000 0.946932 0.386420
O O16 0.278861 0.000000 0.391371
O O17 0.722907 0.227996 0.099860
O O18 0.000000 0.203203 0.053860
O O19 0.731908 0.219392 0.000000
O O20 0.276503 0.299536 0.309955
O O21 0.000000 0.252641 0.333407
O O22 0.500000 0.159735 0.227457
#
# Coordination Sequence:
#
# PCOD9521620 Si02
#       8
#    16  16   8  16  16  16  16  16
#     4  10  22  39  58  82 109 139 184 233 272 320
#     4  10  20  34  55  81 107 142 186 228 274 327
#     4   9  17  31  55  85 115 147 177 207 254 319
#     4   8  14  27  49  77 106 136 175 224 272 316
#     4   9  18  35  59  83 108 141 179 219 263 314
#     4   9  17  31  54  81 109 144 183 223 270 322
#     4  10  21  37  56  80 109 144 183 225 276 330
#     4  11  23  38  56  78 107 144 183 227 282 333
#
# _framework density 21.176877000000001
#
# number of rings (size 3 to 8) (size 9 to 14) (size 15 to 20)
#    0.000    2.467    1.333    1.800    0.000    3.733 
#    1.200    2.667    0.000    0.400    0.000    0.933 
#    0.000    0.000    0.000    0.000    0.000    0.000 
#
# Total GULP energy -334712.539333 kJ/mol
# GULP energy per Si atom -5578.542322 kJ/mol
# Density = 2.112868 g / cm^3
# Si number density = 21.176877 Si / 1000 Ang^3
#
#
#
# Elastic Constant Matrix: (Units=GPa)
#
#
# Indices 1 2 3 4 5 6 
#
# 1 37.0696 7.3694 -10.4691 0.0000 0.0000 0.0000
# 2 7.3694 133.2726 81.3588 0.0000 0.0000 0.0000
# 3 -10.4691 81.3588 139.3992 0.0000 0.0000 0.0000
# 4 0.0000 0.0000 0.0000 -22.5105 0.0000 0.0000
# 5 0.0000 0.0000 0.0000 0.0000 33.6870 0.0000
# 6 0.0000 0.0000 0.0000 0.0000 0.0000 7.1802
#
#
#
# Elastic Compliance Matrix: (Units=1/GPa)
#
#
# Indices 1 2 3 4 5 6 
#
# 1 0.029269 -0.004599 0.004882 0.000000 0.000000 0.000000
# 2 -0.004599 0.012379 -0.007570 0.000000 0.000000 0.000000
# 3 0.004882 -0.007570 0.011959 0.000000 0.000000 0.000000
# 4 0.000000 0.000000 0.000000 -0.044424 0.000000 0.000000
# 5 0.000000 0.000000 0.000000 0.000000 0.029685 0.000000
# 6 0.000000 0.000000 0.000000 0.000000 0.000000 0.139271
#
#
# Mechanical properties :
#
#
# Convention : Reuss Voigt Hill
#
# Bulk Modulus (GPa) = 25.61923 51.80661 38.71292
# Shear Modulus (GPa) = 24.30432 19.10351 21.70391
#
# Velocity S-wave (km/s) = 3.39142 3.00674 3.20486
# Velocity P-wave (km/s) = 5.24020 6.04739 5.65820
#
# Compressibility (1/GPa) = 0.03903317
#
# Stress axis : x y z
#
# Youngs Moduli (GPa) = 34.16543 80.78071 83.62138
#
# Poissons Ratio (x) = 0.37151 -0.40826
# Poissons Ratio (y) = 0.15713 0.63304
# Poissons Ratio (z) = -0.16681 0.61154
#
# Static dielectric constant tensor:
#      x y z
#    x 1.806270 0.000000 0.000000 
#    y 0.000000 1.780100 0.000000 
#    z 0.000000 0.000000 1.750090 
# 
# From -- ./inp_files/63759.got.cif
#   From: 2010.05.17/outbox.cif.g08.bks.cpg/sg71_32_cif.got.tgz:63759.got - 2010.06.03 16:22:01.
