data_PCOD9521870
_publ_section_title
;
Structure prediction by ZEFSAII (Michael W. Deem and Ramdas Pophale) SiO2 
 PCOD9521870
Probable space group: I M M M
;
_chemical_formula_sum "Si O2"
_cell_formula_units_Z 120
_cell_length_a 19.174204
_cell_length_b 14.604424
_cell_length_c 22.230059
_cell_angle_alpha 90.000000
_cell_angle_beta 90.000000
_cell_angle_gamma 90.000000
_cell_volume 6225.043521
_symmetry_space_group_name_H-M "I M M M"
_symmetry_group_IT_number 71
_symmetry_cell_setting 'orthorhombic'
loop_
_space_group_symop_operation_xyz
x,y,z
-x,-y,z
x,-y,-z
-x,y,-z
-x,-y,-z
x,y,-z
-x,y,z
x,-y,z
1/2+x,1/2+y,1/2+z
1/2-x,1/2-y,1/2+z
1/2+x,1/2-y,1/2-z
1/2-x,1/2+y,1/2-z
1/2-x,1/2-y,1/2-z
1/2+x,1/2+y,1/2-z
1/2-x,1/2+y,1/2+z
1/2+x,1/2-y,1/2+z
loop_
_atom_site_type_symbol
_atom_site_label
_atom_site_fract_x
_atom_site_fract_y
_atom_site_fract_z
Si Si1 0.080277 0.816614 0.366079
Si Si2 0.334227 0.744026 0.248076
Si Si3 0.854176 0.110389 0.855311
Si Si4 0.225983 0.604767 0.567846
Si Si5 0.084244 0.609237 0.823555
Si Si6 0.415133 0.500000 0.931267
Si Si7 0.426244 0.134948 0.929755
Si Si8 0.082258 0.739368 0.067453
O O1 0.132448 0.778157 0.316372
O O2 0.105286 0.910971 0.394076
O O3 0.076122 0.743249 0.419869
O O4 0.000000 0.825766 0.342650
O O5 0.250000 0.750000 0.250000
O O6 0.358178 0.660203 0.291400
O O7 0.371191 0.835904 0.273772
O O8 0.779975 0.141617 0.884224
O O9 0.905821 0.162220 0.901020
O O10 0.861409 0.000000 0.851883
O O11 0.226310 0.646095 0.500000
O O12 0.248435 0.500000 0.560410
O O13 0.147819 0.602282 0.592972
O O14 0.096608 0.500000 0.824308
O O15 0.105386 0.659948 0.886150
O O16 0.000000 0.623070 0.814751
O O17 0.500000 0.500000 0.933648
O O18 0.390101 0.500000 0.000000
O O19 0.500000 0.103624 0.902478
O O20 0.427373 0.110562 0.000000
O O21 0.000000 0.725838 0.061976
O O22 0.112955 0.736325 0.000000
#
# Coordination Sequence:
#
# PCOD9521870 Si02
#       8
#    16  16  16  16  16   8  16  16
#     4  10  20  35  55  79 108 141 182 226 272 337
#     4  11  23  37  56  81 110 152 191 242 290 339
#     4  10  21  35  51  73 107 148 188 227 277 339
#     4   9  17  30  49  72  99 136 178 216 260 321
#     4   9  19  38  61  84 113 150 192 240 292 343
#     4   9  18  34  58  86 112 142 182 232 290 349
#     4   9  17  30  50  75 102 131 165 214 271 321
#     4   9  18  33  55  85 114 141 182 234 288 344
#
# _framework density 19.276973999999999
#
# number of rings (size 3 to 8) (size 9 to 14) (size 15 to 20)
#    0.000    2.467    0.000    2.000    0.933    4.267 
#    0.000    4.000    0.000    1.600    0.000    0.000 
#    0.000    0.000    0.000    0.000    0.000    0.000 
#
# Total GULP energy -334004.295308 kJ/mol
# GULP energy per Si atom -5566.738255 kJ/mol
# Density = 1.923310 g / cm^3
# Si number density = 19.276974 Si / 1000 Ang^3
#
#
#
# Elastic Constant Matrix: (Units=GPa)
#
#
# Indices 1 2 3 4 5 6 
#
# 1 55.0672 18.0321 23.0516 0.0000 0.0000 0.0000
# 2 18.0321 140.0904 46.2821 0.0000 0.0000 0.0000
# 3 23.0516 46.2821 85.8525 0.0000 0.0000 0.0000
# 4 0.0000 0.0000 0.0000 5.6654 0.0000 0.0000
# 5 0.0000 0.0000 0.0000 0.0000 17.3611 0.0000
# 6 0.0000 0.0000 0.0000 0.0000 0.0000 18.9648
#
#
#
# Elastic Compliance Matrix: (Units=1/GPa)
#
#
# Indices 1 2 3 4 5 6 
#
# 1 0.020574 -0.001002 -0.004984 0.000000 0.000000 0.000000
# 2 -0.001002 0.008734 -0.004439 0.000000 0.000000 0.000000
# 3 -0.004984 -0.004439 0.015379 0.000000 0.000000 0.000000
# 4 0.000000 0.000000 0.000000 0.176510 0.000000 0.000000
# 5 0.000000 0.000000 0.000000 0.000000 0.057600 0.000000
# 6 0.000000 0.000000 0.000000 0.000000 0.000000 0.052729
#
#
# Mechanical properties :
#
#
# Convention : Reuss Voigt Hill
#
# Bulk Modulus (GPa) = 41.95184 50.63798 46.29491
# Shear Modulus (GPa) = 13.87647 21.30787 17.59217
#
# Velocity S-wave (km/s) = 2.68591 3.32829 3.02420
# Velocity P-wave (km/s) = 5.60613 6.41059 6.02181
#
# Compressibility (1/GPa) = 0.02383685
#
# Stress axis : x y z
#
# Youngs Moduli (GPa) = 48.60493 114.49739 65.02214
#
# Poissons Ratio (x) = 0.11468 0.32408
# Poissons Ratio (y) = 0.04868 0.28866
# Poissons Ratio (z) = 0.24226 0.50830
#
# Static dielectric constant tensor:
#      x y z
#    x 1.711260 0.000000 0.000000 
#    y 0.000000 1.683640 0.000000 
#    z 0.000000 0.000000 1.737190 
# 
# From -- ./inp_files/55127.got.cif
#   From: 2010.05.17/outbox.cif.g08.bks.cpg/sg71_28_cif.got.tgz:55127.got - 2010.06.03 16:22:01.
