data_PCOD9521858
_publ_section_title
;
Structure prediction by ZEFSAII (Michael W. Deem and Ramdas Pophale) SiO2 
 PCOD9521858
Probable space group: I M M M
;
_chemical_formula_sum "Si O2"
_cell_formula_units_Z 80
_cell_length_a 9.063838
_cell_length_b 22.906057
_cell_length_c 22.321032
_cell_angle_alpha 90.000000
_cell_angle_beta 90.000000
_cell_angle_gamma 90.000000
_cell_volume 4634.221010
_symmetry_space_group_name_H-M "I M M M"
_symmetry_group_IT_number 71
_symmetry_cell_setting 'orthorhombic'
loop_
_space_group_symop_operation_xyz
x,y,z
-x,-y,z
x,-y,-z
-x,y,-z
-x,-y,-z
x,y,-z
-x,y,z
x,-y,z
1/2+x,1/2+y,1/2+z
1/2-x,1/2-y,1/2+z
1/2+x,1/2-y,1/2-z
1/2-x,1/2+y,1/2-z
1/2-x,1/2-y,1/2-z
1/2+x,1/2+y,1/2-z
1/2-x,1/2+y,1/2+z
1/2+x,1/2-y,1/2+z
loop_
_atom_site_type_symbol
_atom_site_label
_atom_site_fract_x
_atom_site_fract_y
_atom_site_fract_z
Si Si1 0.677147 0.067092 0.877157
Si Si2 0.331184 0.429068 0.500000
Si Si3 0.823533 0.673898 0.703451
Si Si4 0.676105 0.209499 0.661589
Si Si5 0.830352 0.500000 0.072725
Si Si6 0.824136 0.121115 0.571221
O O1 0.500000 0.067233 0.884139
O O2 0.715772 0.111503 0.824394
O O3 0.722932 0.000000 0.865747
O O4 0.748779 0.088111 0.939278
O O5 0.329971 0.500000 0.500000
O O6 0.500000 0.409237 0.500000
O O7 0.739735 0.725407 0.668741
O O8 0.790846 0.679541 0.773928
O O9 0.000000 0.682632 0.696432
O O10 0.500000 0.210551 0.653308
O O11 0.752642 0.172800 0.609423
O O12 0.747503 0.440693 0.090441
O O13 0.000000 0.500000 0.093476
O O14 0.831465 0.500000 0.000000
O O15 0.795587 0.128618 0.500000
O O16 0.000000 0.119292 0.579709
#
# Coordination Sequence:
#
# PCOD9521858 Si02
#       6
#    16   8  16  16   8  16
#     4   9  17  32  54  77 102 134 173 212 254 312
#     4   9  17  29  47  73 105 135 163 202 255 304
#     4   9  19  36  55  76 103 139 178 215 263 319
#     4  10  20  35  55  78 104 139 179 220 265 312
#     4   9  17  31  53  79 107 139 173 214 263 312
#     4  10  20  35  55  79 109 143 178 218 264 317
#
# _framework density 17.262879999999999
#
# number of rings (size 3 to 8) (size 9 to 14) (size 15 to 20)
#    0.000    2.600    0.000    1.800    0.000    5.200 
#    3.600    0.000    0.000    0.000    0.000    0.000 
#    0.000    0.000    0.000    0.000    0.000    0.000 
#
# Total GULP energy -223044.564707 kJ/mol
# GULP energy per Si atom -5576.114118 kJ/mol
# Density = 1.722359 g / cm^3
# Si number density = 17.262880 Si / 1000 Ang^3
#
#
#
# Elastic Constant Matrix: (Units=GPa)
#
#
# Indices 1 2 3 4 5 6 
#
# 1 63.7649 54.0557 46.4662 0.0000 0.0000 0.0000
# 2 54.0557 103.3944 63.9925 0.0000 0.0000 0.0000
# 3 46.4662 63.9925 65.1486 0.0000 0.0000 0.0000
# 4 0.0000 0.0000 0.0000 29.0231 0.0000 0.0000
# 5 0.0000 0.0000 0.0000 0.0000 21.6085 0.0000
# 6 0.0000 0.0000 0.0000 0.0000 0.0000 27.2992
#
#
#
# Elastic Compliance Matrix: (Units=1/GPa)
#
#
# Indices 1 2 3 4 5 6 
#
# 1 0.034629 -0.007188 -0.017639 0.000000 0.000000 0.000000
# 2 -0.007188 0.026160 -0.020570 0.000000 0.000000 0.000000
# 3 -0.017639 -0.020570 0.048135 0.000000 0.000000 0.000000
# 4 0.000000 0.000000 0.000000 0.034455 0.000000 0.000000
# 5 0.000000 0.000000 0.000000 0.000000 0.046278 0.000000
# 6 0.000000 0.000000 0.000000 0.000000 0.000000 0.036631
#
#
# Mechanical properties :
#
#
# Convention : Reuss Voigt Hill
#
# Bulk Modulus (GPa) = 55.15006 62.37074 58.76040
# Shear Modulus (GPa) = 15.47388 20.10572 17.78980
#
# Velocity S-wave (km/s) = 2.99719 3.41644 3.21366
# Velocity P-wave (km/s) = 6.63280 7.19522 6.91973
#
# Compressibility (1/GPa) = 0.01813235
#
# Stress axis : x y z
#
# Youngs Moduli (GPa) = 28.87714 38.22564 20.77509
#
# Poissons Ratio (x) = 0.27476 0.36644
# Poissons Ratio (y) = 0.20756 0.42734
# Poissons Ratio (z) = 0.50935 0.78629
#
# Static dielectric constant tensor:
#      x y z
#    x 1.576240 0.000000 0.000000 
#    y 0.000000 1.574640 0.000000 
#    z 0.000000 0.000000 1.569520 
# 
# From -- ./inp_files/50384.got.cif
#   From: 2010.05.17/outbox.cif.g08.bks.cpg/sg71_26_cif.got.tgz:50384.got - 2010.06.03 16:22:01.
