data_PCOD9521214
_publ_section_title
;
Structure prediction by ZEFSAII (Michael W. Deem and Ramdas Pophale) SiO2 
 PCOD9521214
Probable space group: I M M M
;
_chemical_formula_sum "Si O2"
_cell_formula_units_Z 116
_cell_length_a 28.015936
_cell_length_b 7.595856
_cell_length_c 24.954758
_cell_angle_alpha 90.000000
_cell_angle_beta 90.000000
_cell_angle_gamma 90.000000
_cell_volume 5310.497665
_symmetry_space_group_name_H-M "I M M M"
_symmetry_group_IT_number 71
_symmetry_cell_setting 'orthorhombic'
loop_
_space_group_symop_operation_xyz
x,y,z
-x,-y,z
x,-y,-z
-x,y,-z
-x,-y,-z
x,y,-z
-x,y,z
x,-y,z
1/2+x,1/2+y,1/2+z
1/2-x,1/2-y,1/2+z
1/2+x,1/2-y,1/2-z
1/2-x,1/2+y,1/2-z
1/2-x,1/2-y,1/2-z
1/2+x,1/2+y,1/2-z
1/2-x,1/2+y,1/2+z
1/2+x,1/2-y,1/2+z
loop_
_atom_site_type_symbol
_atom_site_label
_atom_site_fract_x
_atom_site_fract_y
_atom_site_fract_z
Si Si1 0.914739 0.710931 0.936908
Si Si2 0.645535 0.705198 0.237240
Si Si3 0.000000 0.000000 0.923815
Si Si4 0.816392 0.711833 0.441123
Si Si5 0.428367 0.706540 0.058500
Si Si6 0.733344 0.296480 0.167964
Si Si7 0.051073 0.297754 0.323359
Si Si8 0.337391 0.798263 0.351230
O O1 0.925029 0.500000 0.926243
O O2 0.871044 0.768561 0.898432
O O3 0.902651 0.723422 0.000000
O O4 0.958418 0.843462 0.926459
O O5 0.653446 0.500000 0.247625
O O6 0.692986 0.779576 0.207828
O O7 0.599509 0.717013 0.199144
O O8 0.635962 0.792890 0.294254
O O9 0.797098 0.760020 0.500000
O O10 0.815866 0.500000 0.436511
O O11 0.871184 0.772381 0.439278
O O12 0.788971 0.789873 0.391141
O O13 0.440234 0.500000 0.060659
O O14 0.447461 0.791553 0.112252
O O15 0.443452 0.775353 0.000000
O O16 0.739325 0.500000 0.184870
O O17 0.785802 0.214636 0.162273
O O18 0.051991 0.500000 0.306086
O O19 0.000000 0.219002 0.305951
O O20 0.327085 0.000000 0.366657
#
# Coordination Sequence:
#
# PCOD9521214 Si02
#       8
#    16  16   4  16  16  16  16  16
#     4  10  22  42  69 103 139 175 219 267 318 386
#     4  11  23  40  63  90 121 161 212 263 314 380
#     4  12  23  42  76 106 138 184 218 258 323 392
#     4  10  20  33  53  85 121 159 203 250 302 363
#     4  10  20  35  57  84 115 152 198 252 307 365
#     4  10  21  38  62  90 121 166 213 256 316 378
#     4  11  24  41  61  85 117 158 204 256 315 374
#     4  10  23  42  64  93 129 167 209 258 313 375
#
# _framework density 21.843527000000002
#
# number of rings (size 3 to 8) (size 9 to 14) (size 15 to 20)
#    0.000    1.655    1.379    2.897    0.966    5.241 
#    1.241    2.759    0.000    0.000    0.000    0.000 
#    0.000    0.000    0.000    0.000    0.000    0.000 
#
# Total GULP energy -323248.242148 kJ/mol
# GULP energy per Si atom -5573.245554 kJ/mol
# Density = 2.179381 g / cm^3
# Si number density = 21.843527 Si / 1000 Ang^3
#
#
#
# Elastic Constant Matrix: (Units=GPa)
#
#
# Indices 1 2 3 4 5 6 
#
# 1 145.6188 26.7795 67.1165 0.0000 0.0000 0.0000
# 2 26.7795 83.6947 10.2723 0.0000 0.0000 0.0000
# 3 67.1165 10.2723 89.9900 0.0000 0.0000 0.0000
# 4 0.0000 0.0000 0.0000 20.8673 0.0000 0.0000
# 5 0.0000 0.0000 0.0000 0.0000 -8.7361 0.0000
# 6 0.0000 0.0000 0.0000 0.0000 0.0000 10.4901
#
#
#
# Elastic Compliance Matrix: (Units=1/GPa)
#
#
# Indices 1 2 3 4 5 6 
#
# 1 0.010973 -0.002542 -0.007894 0.000000 0.000000 0.000000
# 2 -0.002542 0.012707 0.000446 0.000000 0.000000 0.000000
# 3 -0.007894 0.000446 0.016949 0.000000 0.000000 0.000000
# 4 0.000000 0.000000 0.000000 0.047922 0.000000 0.000000
# 5 0.000000 0.000000 0.000000 0.000000 -0.114467 0.000000
# 6 0.000000 0.000000 0.000000 0.000000 0.000000 0.095328
#
#
# Mechanical properties :
#
#
# Convention : Reuss Voigt Hill
#
# Bulk Modulus (GPa) = 48.43088 58.62667 53.52878
# Shear Modulus (GPa) = 51.93471 18.86661 35.40066
#
# Velocity S-wave (km/s) = 4.88133 2.94209 4.03009
# Velocity P-wave (km/s) = 7.34777 6.19991 6.79811
#
# Compressibility (1/GPa) = 0.02064798
#
# Stress axis : x y z
#
# Youngs Moduli (GPa) = 91.13265 78.69737 59.00121
#
# Poissons Ratio (x) = 0.20006 0.46574
# Poissons Ratio (y) = 0.23167 -0.02629
# Poissons Ratio (z) = 0.71938 -0.03506
#
# Static dielectric constant tensor:
#      x y z
#    x 1.818880 0.000000 0.000000 
#    y 0.000000 1.833490 0.000000 
#    z 0.000000 0.000000 1.785290 
# 
# From -- ./inp_files/62065.got.cif
#   From: 2010.05.17/outbox.cif.g08.bks.cpg/sg71_32_cif.got.tgz:62065.got - 2010.06.03 16:22:01.
