data_PCOD9521612
_publ_section_title
;
Structure prediction by ZEFSAII (Michael W. Deem and Ramdas Pophale) SiO2 
 PCOD9521612
Probable space group: I M M M
;
_chemical_formula_sum "Si O2"
_cell_formula_units_Z 88
_cell_length_a 14.907641
_cell_length_b 19.568216
_cell_length_c 15.964287
_cell_angle_alpha 90.000000
_cell_angle_beta 90.000000
_cell_angle_gamma 90.000000
_cell_volume 4657.036975
_symmetry_space_group_name_H-M "I M M M"
_symmetry_group_IT_number 71
_symmetry_cell_setting 'orthorhombic'
loop_
_space_group_symop_operation_xyz
x,y,z
-x,-y,z
x,-y,-z
-x,y,-z
-x,-y,-z
x,y,-z
-x,y,z
x,-y,z
1/2+x,1/2+y,1/2+z
1/2-x,1/2-y,1/2+z
1/2+x,1/2-y,1/2-z
1/2-x,1/2+y,1/2-z
1/2-x,1/2-y,1/2-z
1/2+x,1/2+y,1/2-z
1/2-x,1/2+y,1/2+z
1/2+x,1/2-y,1/2+z
loop_
_atom_site_type_symbol
_atom_site_label
_atom_site_fract_x
_atom_site_fract_y
_atom_site_fract_z
Si Si1 0.339531 0.132847 0.308731
Si Si2 0.500000 0.923520 0.597449
Si Si3 0.767211 0.175089 0.909680
Si Si4 0.396817 0.714604 0.733027
Si Si5 0.676423 0.675936 0.903860
Si Si6 0.105244 0.578245 0.363662
O O1 0.414812 0.119429 0.376328
O O2 0.354256 0.209072 0.271176
O O3 0.246367 0.125599 0.357398
O O4 0.364277 0.082834 0.233110
O O5 0.500000 0.931528 0.500000
O O6 0.500000 0.000000 0.635819
O O7 0.834263 0.170585 0.830344
O O8 0.730333 0.252452 0.910141
O O9 0.679657 0.126796 0.904803
O O10 0.812433 0.162689 0.000000
O O11 0.500000 0.717167 0.704851
O O12 0.394121 0.689610 0.829396
O O13 0.650022 0.658004 0.000000
O O14 0.110166 0.500000 0.393018
O O15 0.000000 0.600423 0.371282
#
# Coordination Sequence:
#
# PCOD9521612 Si02
#       6
#    16   8  16  16  16  16
#     4  11  18  35  51  77 113 150 184 226 276 331
#     4  11  22  32  48  80 117 151 190 228 268 331
#     4  10  21  37  54  79 113 146 187 233 276 328
#     4  11  20  35  58  81 110 145 185 234 284 330
#     4  10  20  34  55  80 109 145 183 230 285 333
#     4  11  21  34  57  84 113 152 189 221 270 338
#
# _framework density 18.896135999999998
#
# number of rings (size 3 to 8) (size 9 to 14) (size 15 to 20)
#    0.000    1.364    5.455    2.182    0.000    2.182 
#    0.000    2.727    0.000    0.545    0.000    1.273 
#    0.000    1.455    0.000    0.000    0.000    0.000 
#
# Total GULP energy -245017.022090 kJ/mol
# GULP energy per Si atom -5568.568684 kJ/mol
# Density = 1.885313 g / cm^3
# Si number density = 18.896136 Si / 1000 Ang^3
#
#
#
# Elastic Constant Matrix: (Units=GPa)
#
#
# Indices 1 2 3 4 5 6 
#
# 1 61.9602 15.3502 33.5455 0.0000 0.0000 0.0000
# 2 15.3502 23.1310 8.0796 0.0000 0.0000 0.0000
# 3 33.5455 8.0796 136.6523 0.0000 0.0000 0.0000
# 4 0.0000 0.0000 0.0000 -11.1317 0.0000 0.0000
# 5 0.0000 0.0000 0.0000 0.0000 59.0524 0.0000
# 6 0.0000 0.0000 0.0000 0.0000 0.0000 21.2956
#
#
#
# Elastic Compliance Matrix: (Units=1/GPa)
#
#
# Indices 1 2 3 4 5 6 
#
# 1 0.021816 -0.012873 -0.004594 0.000000 0.000000 0.000000
# 2 -0.012873 0.051739 0.000101 0.000000 0.000000 0.000000
# 3 -0.004594 0.000101 0.008440 0.000000 0.000000 0.000000
# 4 0.000000 0.000000 0.000000 -0.089834 0.000000 0.000000
# 5 0.000000 0.000000 0.000000 0.000000 0.016934 0.000000
# 6 0.000000 0.000000 0.000000 0.000000 0.000000 0.046958
#
#
# Mechanical properties :
#
#
# Convention : Reuss Voigt Hill
#
# Bulk Modulus (GPa) = 21.15831 37.29936 29.22884
# Shear Modulus (GPa) = 46.93085 24.82780 35.87933
#
# Velocity S-wave (km/s) = 4.98900 3.62872 4.36221
# Velocity P-wave (km/s) = 6.66396 6.11055 6.39324
#
# Compressibility (1/GPa) = 0.04726274
#
# Stress axis : x y z
#
# Youngs Moduli (GPa) = 45.83819 19.32767 118.48777
#
# Poissons Ratio (x) = 0.24880 0.54437
# Poissons Ratio (y) = 0.59006 -0.01195
# Poissons Ratio (z) = 0.21059 -0.00195
#
# Static dielectric constant tensor:
#      x y z
#    x 1.635970 0.000000 0.000000 
#    y 0.000000 1.664780 0.000000 
#    z 0.000000 0.000000 1.758540 
# 
# From -- ./inp_files/44884.got.cif
#   From: 2010.05.17/outbox.cif.g08.bks.cpg/sg71_23_cif.got.tgz:44884.got - 2010.06.03 16:22:01.
