data_PCOD9521242
_publ_section_title
;
Structure prediction by ZEFSAII (Michael W. Deem and Ramdas Pophale) SiO2 
 PCOD9521242
Probable space group: I M M M
;
_chemical_formula_sum "Si O2"
_cell_formula_units_Z 104
_cell_length_a 28.556425
_cell_length_b 11.170172
_cell_length_c 17.976167
_cell_angle_alpha 90.000000
_cell_angle_beta 90.000000
_cell_angle_gamma 90.000000
_cell_volume 5734.040967
_symmetry_space_group_name_H-M "I M M M"
_symmetry_group_IT_number 71
_symmetry_cell_setting 'orthorhombic'
loop_
_space_group_symop_operation_xyz
x,y,z
-x,-y,z
x,-y,-z
-x,y,-z
-x,-y,-z
x,y,-z
-x,y,z
x,-y,z
1/2+x,1/2+y,1/2+z
1/2-x,1/2-y,1/2+z
1/2+x,1/2-y,1/2-z
1/2-x,1/2+y,1/2-z
1/2-x,1/2-y,1/2-z
1/2+x,1/2+y,1/2-z
1/2-x,1/2+y,1/2+z
1/2+x,1/2-y,1/2+z
loop_
_atom_site_type_symbol
_atom_site_label
_atom_site_fract_x
_atom_site_fract_y
_atom_site_fract_z
Si Si1 0.944204 0.355144 0.500000
Si Si2 0.200481 0.858888 0.318413
Si Si3 0.389600 0.142302 0.584033
Si Si4 0.054766 0.355234 0.225621
Si Si5 0.700963 0.248945 0.656049
Si Si6 0.615721 0.225046 0.137449
Si Si7 0.716045 0.500000 0.411812
Si Si8 0.176072 0.500000 0.409635
O O1 0.933572 0.500000 0.500000
O O2 0.921387 0.291423 0.571194
O O3 0.000000 0.345336 0.500000
O O4 0.247818 0.809369 0.357241
O O5 0.196412 0.779046 0.243427
O O6 0.151680 0.835902 0.361314
O O7 0.206436 0.000000 0.301899
O O8 0.391947 0.192242 0.500000
O O9 0.428709 0.182543 0.643244
O O10 0.339899 0.167964 0.622944
O O11 0.395134 0.000000 0.578082
O O12 0.061371 0.500000 0.233279
O O13 0.087274 0.291611 0.286408
O O14 0.000000 0.330992 0.237786
O O15 0.695163 0.377496 0.617618
O O16 0.650593 0.114232 0.123541
O O17 0.714720 0.500000 0.500000
O O18 0.770121 0.500000 0.386826
O O19 0.173759 0.500000 0.500000
#
# Coordination Sequence:
#
# PCOD9521242 Si02
#       8
#     8  16  16  16  16  16   8   8
#     4  11  22  36  61  95 123 149 192 251 304 345
#     4  11  24  37  57  85 116 154 196 235 278 344
#     4  10  21  37  56  82 119 155 187 229 287 348
#     4  10  20  33  55  86 113 143 187 234 287 344
#     4  11  21  38  58  83 117 151 192 236 286 336
#     4  12  19  36  59  82 121 154 185 239 289 347
#     4  11  22  34  58  86 117 150 193 236 286 336
#     4  11  20  34  54  88 119 151 186 230 294 341
#
# _framework density 18.137297
#
# number of rings (size 3 to 8) (size 9 to 14) (size 15 to 20)
#    0.000    1.154    6.154    1.385    0.000    1.538 
#    1.385    1.923    0.000    2.308    0.000    0.000 
#    0.000    3.077    0.000    0.000    0.000    0.000 
#
# Total GULP energy -290093.285234 kJ/mol
# GULP energy per Si atom -5578.717024 kJ/mol
# Density = 1.809602 g / cm^3
# Si number density = 18.137297 Si / 1000 Ang^3
#
#
#
# Elastic Constant Matrix: (Units=GPa)
#
#
# Indices 1 2 3 4 5 6 
#
# 1 76.6035 10.7585 14.4218 0.0000 0.0000 0.0000
# 2 10.7585 33.5855 15.8642 0.0000 0.0000 0.0000
# 3 14.4218 15.8642 69.3073 0.0000 0.0000 0.0000
# 4 0.0000 0.0000 0.0000 2.8745 0.0000 0.0000
# 5 0.0000 0.0000 0.0000 0.0000 18.8543 0.0000
# 6 0.0000 0.0000 0.0000 0.0000 0.0000 25.5170
#
#
#
# Elastic Compliance Matrix: (Units=1/GPa)
#
#
# Indices 1 2 3 4 5 6 
#
# 1 0.013938 -0.003470 -0.002106 0.000000 0.000000 0.000000
# 2 -0.003470 0.034248 -0.007117 0.000000 0.000000 0.000000
# 3 -0.002106 -0.007117 0.016496 0.000000 0.000000 0.000000
# 4 0.000000 0.000000 0.000000 0.347883 0.000000 0.000000
# 5 0.000000 0.000000 0.000000 0.000000 0.053038 0.000000
# 6 0.000000 0.000000 0.000000 0.000000 0.000000 0.039190
#
#
# Mechanical properties :
#
#
# Convention : Reuss Voigt Hill
#
# Bulk Modulus (GPa) = 25.44821 29.06505 27.25663
# Shear Modulus (GPa) = 9.20340 18.67929 13.94134
#
# Velocity S-wave (km/s) = 2.25506 3.21266 2.77547
# Velocity P-wave (km/s) = 4.56528 5.46090 5.03305
#
# Compressibility (1/GPa) = 0.03929549
#
# Stress axis : x y z
#
# Youngs Moduli (GPa) = 71.74596 29.19870 60.62142
#
# Poissons Ratio (x) = 0.10132 0.12767
# Poissons Ratio (y) = 0.24896 0.43145
# Poissons Ratio (z) = 0.15110 0.20781
#
# Static dielectric constant tensor:
#      x y z
#    x 1.616470 0.000000 0.000000 
#    y 0.000000 1.607860 0.000000 
#    z 0.000000 0.000000 1.670480 
# 
# From -- ./inp_files/48887.got.cif
#   From: 2010.05.17/outbox.cif.g08.bks.cpg/sg71_25_cif.got.tgz:48887.got - 2010.06.03 16:22:01.
