data_PCOD9521241
_publ_section_title
;
Structure prediction by ZEFSAII (Michael W. Deem and Ramdas Pophale) SiO2 
 PCOD9521241
Probable space group: I M M M
;
_chemical_formula_sum "Si O2"
_cell_formula_units_Z 82
_cell_length_a 23.325335
_cell_length_b 22.602958
_cell_length_c 7.649087
_cell_angle_alpha 90.000000
_cell_angle_beta 90.000000
_cell_angle_gamma 90.000000
_cell_volume 4032.763637
_symmetry_space_group_name_H-M "I M M M"
_symmetry_group_IT_number 71
_symmetry_cell_setting 'orthorhombic'
loop_
_space_group_symop_operation_xyz
x,y,z
-x,-y,z
x,-y,-z
-x,y,-z
-x,-y,-z
x,y,-z
-x,y,z
x,-y,z
1/2+x,1/2+y,1/2+z
1/2-x,1/2-y,1/2+z
1/2+x,1/2-y,1/2-z
1/2-x,1/2+y,1/2-z
1/2-x,1/2-y,1/2-z
1/2+x,1/2+y,1/2-z
1/2-x,1/2+y,1/2+z
1/2+x,1/2-y,1/2+z
loop_
_atom_site_type_symbol
_atom_site_label
_atom_site_fract_x
_atom_site_fract_y
_atom_site_fract_z
Si Si1 0.835546 0.619721 0.294254
Si Si2 0.500000 0.567511 0.793299
Si Si3 0.903332 0.837123 0.789881
Si Si4 0.000000 0.500000 0.000000
Si Si5 0.102671 0.500000 0.284351
Si Si6 0.437977 0.792489 0.711354
Si Si7 0.773763 0.815809 0.211142
O O1 0.825800 0.613536 0.500000
O O2 0.861126 0.557987 0.236829
O O3 0.884037 0.669529 0.269223
O O4 0.775340 0.640799 0.217892
O O5 0.500000 0.500000 0.719580
O O6 0.443609 0.606839 0.749612
O O7 0.500000 0.561865 0.000000
O O8 0.931974 0.775441 0.730659
O O9 0.837461 0.832918 0.725437
O O10 0.901171 0.834388 0.000000
O O11 0.951122 0.500000 0.156566
O O12 0.091337 0.500000 0.500000
O O13 0.437525 0.793384 0.500000
O O14 0.500000 0.816695 0.768926
O O15 0.750000 0.750000 0.250000
O O16 0.776428 0.819274 0.000000
#
# Coordination Sequence:
#
# PCOD9521241 Si02
#       7
#    16   8  16   2   8  16  16
#     4  10  22  39  58  83 123 164 206 254 317 370
#     4  11  25  43  62  87 123 158 200 259 321 372
#     4  10  20  38  61  89 120 157 204 250 302 368
#     4  12  26  44  72  90 116 164 234 246 338 398
#     4  10  25  45  63  92 131 170 217 278 314 386
#     4  10  20  33  55  85 118 150 195 254 303 359
#     4  10  20  36  60  91 122 161 203 252 312 372
#
# _framework density 20.333449999999999
#
# number of rings (size 3 to 8) (size 9 to 14) (size 15 to 20)
#    0.000    1.854    2.927    0.439    2.732    2.732 
#    1.756    0.000    0.000    0.000    0.000    0.000 
#    0.000    0.000    0.000    0.000    0.000    0.000 
#
# Total GULP energy -228433.572183 kJ/mol
# GULP energy per Si atom -5571.550541 kJ/mol
# Density = 2.028717 g / cm^3
# Si number density = 20.333450 Si / 1000 Ang^3
#
#
#
# Elastic Constant Matrix: (Units=GPa)
#
#
# Indices 1 2 3 4 5 6 
#
# 1 200.9294 80.7427 16.1371 0.0000 0.0000 0.0000
# 2 80.7427 144.4144 6.6524 0.0000 0.0000 0.0000
# 3 16.1371 6.6524 49.4025 0.0000 0.0000 0.0000
# 4 0.0000 0.0000 0.0000 18.9116 0.0000 0.0000
# 5 0.0000 0.0000 0.0000 0.0000 12.7641 0.0000
# 6 0.0000 0.0000 0.0000 0.0000 0.0000 -8.0213
#
#
#
# Elastic Compliance Matrix: (Units=1/GPa)
#
#
# Indices 1 2 3 4 5 6 
#
# 1 0.006551 -0.003586 -0.001657 0.000000 0.000000 0.000000
# 2 -0.003586 0.008931 -0.000031 0.000000 0.000000 0.000000
# 3 -0.001657 -0.000031 0.020787 0.000000 0.000000 0.000000
# 4 0.000000 0.000000 0.000000 0.052878 0.000000 0.000000
# 5 0.000000 0.000000 0.000000 0.000000 0.078345 0.000000
# 6 0.000000 0.000000 0.000000 0.000000 0.000000 -0.124668
#
#
# Mechanical properties :
#
#
# Convention : Reuss Voigt Hill
#
# Bulk Modulus (GPa) = 38.87948 66.86785 52.87366
# Shear Modulus (GPa) = 80.71466 24.14515 52.42990
#
# Velocity S-wave (km/s) = 6.30727 3.44969 5.08341
# Velocity P-wave (km/s) = 8.49733 6.98743 7.77910
#
# Compressibility (1/GPa) = 0.02572051
#
# Stress axis : x y z
#
# Youngs Moduli (GPa) = 152.64501 111.96769 48.10625
#
# Poissons Ratio (x) = 0.40157 0.07971
# Poissons Ratio (y) = 0.54745 0.00150
# Poissons Ratio (z) = 0.25293 0.00349
#
# Static dielectric constant tensor:
#      x y z
#    x 1.869120 0.000000 0.000000 
#    y 0.000000 1.721150 0.000000 
#    z 0.000000 0.000000 1.758130 
# 
# From -- ./inp_files/12447.got.cif
#   From: 2010.05.17/outbox.cif.g08.bks.cpg/sg71_7_cif.got.tgz:12447.got - 2010.06.03 16:22:01.
