data_PCOD9521127
_publ_section_title
;
Structure prediction by ZEFSAII (Michael W. Deem and Ramdas Pophale) SiO2 
 PCOD9521127
Probable space group: I M M M
;
_chemical_formula_sum "Si O2"
_cell_formula_units_Z 88
_cell_length_a 25.207781
_cell_length_b 21.888164
_cell_length_c 9.038579
_cell_angle_alpha 90.000000
_cell_angle_beta 90.000000
_cell_angle_gamma 90.000000
_cell_volume 4987.054444
_symmetry_space_group_name_H-M "I M M M"
_symmetry_group_IT_number 71
_symmetry_cell_setting 'orthorhombic'
loop_
_space_group_symop_operation_xyz
x,y,z
-x,-y,z
x,-y,-z
-x,y,-z
-x,-y,-z
x,y,-z
-x,y,z
x,-y,z
1/2+x,1/2+y,1/2+z
1/2-x,1/2-y,1/2+z
1/2+x,1/2-y,1/2-z
1/2-x,1/2+y,1/2-z
1/2-x,1/2-y,1/2-z
1/2+x,1/2+y,1/2-z
1/2-x,1/2+y,1/2+z
1/2+x,1/2-y,1/2+z
loop_
_atom_site_type_symbol
_atom_site_label
_atom_site_fract_x
_atom_site_fract_y
_atom_site_fract_z
Si Si1 0.000000 0.754196 0.675629
Si Si2 0.085280 0.650530 0.323836
Si Si3 0.190977 0.826395 0.676333
Si Si4 0.500000 0.927848 0.331749
Si Si5 0.000000 0.885733 0.177796
Si Si6 0.313114 0.806072 0.675425
Si Si7 0.883079 0.070318 0.821084
O O1 0.948697 0.712270 0.708498
O O2 0.000000 0.816716 0.763620
O O3 0.000000 0.766902 0.500000
O O4 0.089086 0.645395 0.500000
O O5 0.141873 0.653209 0.248139
O O6 0.050576 0.596938 0.255239
O O7 0.181170 0.823158 0.500000
O O8 0.254351 0.833123 0.700699
O O9 0.180351 0.760495 0.749852
O O10 0.155470 0.879793 0.746872
O O11 0.500000 0.903517 0.500000
O O12 0.500000 0.000000 0.336550
O O13 0.055501 0.917003 0.223400
O O14 0.000000 0.885989 0.000000
O O15 0.320491 0.799833 0.500000
O O16 0.869419 0.000000 0.783771
O O17 0.879821 0.076689 0.000000
#
# Coordination Sequence:
#
# PCOD9521127 Si02
#       7
#     8  16  16   8   8  16  16
#     4   9  19  32  47  75 110 137 164 207 260 306
#     4  10  20  34  54  80 110 141 176 221 267 314
#     4  10  21  36  55  80 109 139 174 220 269 317
#     4  10  21  37  56  78 107 144 182 219 265 323
#     4  10  20  33  52  77 103 135 174 214 255 302
#     4  10  20  35  56  81 108 139 175 217 268 323
#     4  10  21  37  55  75 103 140 180 219 260 311
#
# _framework density 17.645686000000001
#
# number of rings (size 3 to 8) (size 9 to 14) (size 15 to 20)
#    0.000    2.091    0.000    3.818    0.000   10.182 
#    0.000    0.909    0.000    2.727    0.000    0.000 
#    0.000    0.000    0.000    0.000    0.000    0.000 
#
# Total GULP energy -245572.251185 kJ/mol
# GULP energy per Si atom -5581.187527 kJ/mol
# Density = 1.760552 g / cm^3
# Si number density = 17.645686 Si / 1000 Ang^3
#
#
#
# Elastic Constant Matrix: (Units=GPa)
#
#
# Indices 1 2 3 4 5 6 
#
# 1 125.6898 62.6265 72.6582 0.0000 0.0000 0.0000
# 2 62.6265 94.3311 46.7939 0.0000 0.0000 0.0000
# 3 72.6582 46.7939 60.0921 0.0000 0.0000 0.0000
# 4 0.0000 0.0000 0.0000 16.5334 0.0000 0.0000
# 5 0.0000 0.0000 0.0000 0.0000 31.6464 0.0000
# 6 0.0000 0.0000 0.0000 0.0000 0.0000 -3.9749
#
#
#
# Elastic Compliance Matrix: (Units=1/GPa)
#
#
# Indices 1 2 3 4 5 6 
#
# 1 0.026877 -0.002808 -0.030311 0.000000 0.000000 0.000000
# 2 -0.002808 0.017567 -0.010285 0.000000 0.000000 0.000000
# 3 -0.030311 -0.010285 0.061300 0.000000 0.000000 0.000000
# 4 0.000000 0.000000 0.000000 0.060484 0.000000 0.000000
# 5 0.000000 0.000000 0.000000 0.000000 0.031599 0.000000
# 6 0.000000 0.000000 0.000000 0.000000 0.000000 -0.251581
#
#
# Mechanical properties :
#
#
# Convention : Reuss Voigt Hill
#
# Bulk Modulus (GPa) = 52.80796 71.58559 62.19678
# Shear Modulus (GPa) = 127.01738 15.37661 71.19700
#
# Velocity S-wave (km/s) = 8.49343 2.95517 6.35891
# Velocity P-wave (km/s) = 11.23282 7.23190 9.44661
#
# Compressibility (1/GPa) = 0.01893654
#
# Stress axis : x y z
#
# Youngs Moduli (GPa) = 37.20609 56.92607 16.31329
#
# Poissons Ratio (x) = 0.15982 0.49448
# Poissons Ratio (y) = 0.10446 0.16777
# Poissons Ratio (z) = 1.12777 0.58546
#
# Static dielectric constant tensor:
#      x y z
#    x 1.584880 0.000000 0.000000 
#    y 0.000000 1.571140 0.000000 
#    z 0.000000 0.000000 1.589330 
# 
# From -- ./inp_files/12633.got.cif
#   From: 2010.05.17/outbox.cif.g08.bks.cpg/sg71_7_cif.got.tgz:12633.got - 2010.06.03 16:22:01.
