data_PCOD9521967
_publ_section_title
;
Structure prediction by ZEFSAII (Michael W. Deem and Ramdas Pophale) SiO2 
 PCOD9521967
Probable space group: I M M M
;
_chemical_formula_sum "Si O2"
_cell_formula_units_Z 116
_cell_length_a 7.671930
_cell_length_b 24.228405
_cell_length_c 28.405255
_cell_angle_alpha 90.000000
_cell_angle_beta 90.000000
_cell_angle_gamma 90.000000
_cell_volume 5279.929804
_symmetry_space_group_name_H-M "I M M M"
_symmetry_group_IT_number 71
_symmetry_cell_setting 'orthorhombic'
loop_
_space_group_symop_operation_xyz
x,y,z
-x,-y,z
x,-y,-z
-x,y,-z
-x,-y,-z
x,y,-z
-x,y,z
x,-y,z
1/2+x,1/2+y,1/2+z
1/2-x,1/2-y,1/2+z
1/2+x,1/2-y,1/2-z
1/2-x,1/2+y,1/2-z
1/2-x,1/2-y,1/2-z
1/2+x,1/2+y,1/2-z
1/2-x,1/2+y,1/2+z
1/2+x,1/2-y,1/2+z
loop_
_atom_site_type_symbol
_atom_site_label
_atom_site_fract_x
_atom_site_fract_y
_atom_site_fract_z
Si Si1 0.710467 0.709594 0.550288
Si Si2 0.000000 0.000000 0.060100
Si Si3 0.709863 0.749670 0.652473
Si Si4 0.203087 0.589524 0.580564
Si Si5 0.286709 0.063743 0.553493
Si Si6 0.297626 0.869220 0.815107
Si Si7 0.199670 0.061790 0.273212
Si Si8 0.800122 0.631242 0.141609
O O1 0.761430 0.734564 0.500000
O O2 0.500000 0.705968 0.551447
O O3 0.761209 0.740524 0.597812
O O4 0.783680 0.647969 0.554416
O O5 0.845265 0.952435 0.061201
O O6 0.500000 0.746083 0.657326
O O7 0.776669 0.696773 0.680989
O O8 0.772823 0.811555 0.662802
O O9 0.254878 0.604128 0.634818
O O10 0.000000 0.570996 0.579467
O O11 0.235631 0.078375 0.500000
O O12 0.500000 0.064169 0.554721
O O13 0.222624 0.104507 0.594411
O O14 0.234767 0.000000 0.562510
O O15 0.500000 0.881448 0.809062
O O16 0.207334 0.898326 0.771581
O O17 0.300414 0.086614 0.317177
O O18 0.000000 0.059072 0.288913
O O19 0.258266 0.000000 0.260273
O O20 0.000000 0.645221 0.128956
#
# Coordination Sequence:
#
# PCOD9521967 Si02
#       8
#    16   4  16  16  16  16  16  16
#     4   9  17  34  58  82 113 154 196 243 302 358
#     4  12  22  36  61  84 120 162 190 252 313 354
#     4   9  19  35  57  84 115 152 190 236 290 346
#     4  10  22  37  57  87 116 154 203 249 302 365
#     4   8  14  26  48  79 115 154 192 234 284 334
#     4  10  22  39  60  85 112 145 193 241 289 350
#     4  11  25  40  59  84 113 151 189 232 290 351
#     4  10  20  35  56  85 120 153 191 239 287 338
#
# _framework density 21.969988000000001
#
# number of rings (size 3 to 8) (size 9 to 14) (size 15 to 20)
#    0.000    2.345    0.690    1.862    2.897    3.586 
#    0.000    3.448    0.000    1.241    0.000    3.862 
#    0.000    0.000    0.000    0.000    0.000    0.000 
#
# Total GULP energy -323177.922974 kJ/mol
# GULP energy per Si atom -5572.033155 kJ/mol
# Density = 2.191998 g / cm^3
# Si number density = 21.969988 Si / 1000 Ang^3
#
#
#
# Elastic Constant Matrix: (Units=GPa)
#
#
# Indices 1 2 3 4 5 6 
#
# 1 55.6490 11.1787 2.3165 0.0000 0.0000 0.0000
# 2 11.1787 95.8003 32.6570 0.0000 0.0000 0.0000
# 3 2.3165 32.6570 70.7298 0.0000 0.0000 0.0000
# 4 0.0000 0.0000 0.0000 12.9335 0.0000 0.0000
# 5 0.0000 0.0000 0.0000 0.0000 -1.3052 0.0000
# 6 0.0000 0.0000 0.0000 0.0000 0.0000 7.4396
#
#
#
# Elastic Compliance Matrix: (Units=1/GPa)
#
#
# Indices 1 2 3 4 5 6 
#
# 1 0.018414 -0.002306 0.000462 0.000000 0.000000 0.000000
# 2 -0.002306 0.012677 -0.005778 0.000000 0.000000 0.000000
# 3 0.000462 -0.005778 0.016791 0.000000 0.000000 0.000000
# 4 0.000000 0.000000 0.000000 0.077319 0.000000 0.000000
# 5 0.000000 0.000000 0.000000 0.000000 -0.766154 0.000000
# 6 0.000000 0.000000 0.000000 0.000000 0.000000 0.134416
#
#
# Mechanical properties :
#
#
# Convention : Reuss Voigt Hill
#
# Bulk Modulus (GPa) = 30.63952 34.94260 32.79106
# Shear Modulus (GPa) = -10.40768 15.54870 2.57051
#
# Velocity S-wave (km/s) = -2.17888 2.66320 1.08284
# Velocity P-wave (km/s) = 2.76520 5.03945 4.06463
#
# Compressibility (1/GPa) = 0.03263758
#
# Stress axis : x y z
#
# Youngs Moduli (GPa) = 54.30711 78.88319 59.55637
#
# Poissons Ratio (x) = 0.18191 -0.02749
# Poissons Ratio (y) = 0.12523 0.34409
# Poissons Ratio (z) = -0.02507 0.45576
#
# Static dielectric constant tensor:
#      x y z
#    x 1.815590 0.000000 0.000000 
#    y 0.000000 1.792260 0.000000 
#    z 0.000000 0.000000 1.819000 
# 
# From -- ./inp_files/63642.got.cif
#   From: 2010.05.17/outbox.cif.g08.bks.cpg/sg71_32_cif.got.tgz:63642.got - 2010.06.03 16:22:01.
