data_PCOD9521086
_publ_section_title
;
Structure prediction by ZEFSAII (Michael W. Deem and Ramdas Pophale) SiO2 
 PCOD9521086
Probable space group: I M M M
;
_chemical_formula_sum "Si O2"
_cell_formula_units_Z 104
_cell_length_a 29.783143
_cell_length_b 8.444195
_cell_length_c 21.529374
_cell_angle_alpha 90.000000
_cell_angle_beta 90.000000
_cell_angle_gamma 90.000000
_cell_volume 5414.522749
_symmetry_space_group_name_H-M "I M M M"
_symmetry_group_IT_number 71
_symmetry_cell_setting 'orthorhombic'
loop_
_space_group_symop_operation_xyz
x,y,z
-x,-y,z
x,-y,-z
-x,y,-z
-x,-y,-z
x,y,-z
-x,y,z
x,-y,z
1/2+x,1/2+y,1/2+z
1/2-x,1/2-y,1/2+z
1/2+x,1/2-y,1/2-z
1/2-x,1/2+y,1/2-z
1/2-x,1/2-y,1/2-z
1/2+x,1/2+y,1/2-z
1/2-x,1/2+y,1/2+z
1/2+x,1/2-y,1/2+z
loop_
_atom_site_type_symbol
_atom_site_label
_atom_site_fract_x
_atom_site_fract_y
_atom_site_fract_z
Si Si1 0.051784 0.311552 0.500000
Si Si2 0.606970 0.314035 0.117492
Si Si3 0.796266 0.810644 0.178010
Si Si4 0.141276 0.308519 0.068295
Si Si5 0.553553 0.813965 0.768181
Si Si6 0.195762 0.191528 0.681497
Si Si7 0.050307 0.692959 0.126299
O O1 0.048551 0.500000 0.500000
O O2 0.079763 0.261676 0.439175
O O3 0.000000 0.248668 0.500000
O O4 0.610361 0.500000 0.104132
O O5 0.579257 0.285057 0.180579
O O6 0.656991 0.252506 0.134471
O O7 0.828231 0.751749 0.123844
O O8 0.812445 0.756930 0.246797
O O9 0.745882 0.748136 0.167069
O O10 0.795225 0.000000 0.178734
O O11 0.142125 0.500000 0.069437
O O12 0.090055 0.257480 0.081373
O O13 0.156113 0.255647 0.000000
O O14 0.500000 0.803583 0.778085
O O15 0.561896 0.762096 0.697304
O O16 0.565980 0.000000 0.774224
O O17 0.194924 0.000000 0.680537
O O18 0.048842 0.500000 0.126159
O O19 0.000000 0.748214 0.111199
#
# Coordination Sequence:
#
# PCOD9521086 Si02
#       7
#     8  16  16  16  16  16  16
#     4  11  25  43  59  77 109 151 191 229 270 327
#     4  11  22  36  56  82 109 140 177 223 278 329
#     4  10  20  36  59  84 109 141 180 222 269 327
#     4  10  20  33  51  77 109 147 184 220 268 315
#     4   9  17  30  50  76 106 140 177 220 269 317
#     4   9  20  38  59  84 111 136 171 223 280 328
#     4   8  15  29  50  77 107 140 183 229 266 309
#
# _framework density 19.207602000000001
#
# number of rings (size 3 to 8) (size 9 to 14) (size 15 to 20)
#    0.000    2.385    0.000    3.462    0.000    5.231 
#    1.385    1.538    0.000    1.385    0.000    1.077 
#    0.000    0.000    0.000    0.000    0.000    0.000 
#
# Total GULP energy -290157.549512 kJ/mol
# GULP energy per Si atom -5579.952875 kJ/mol
# Density = 1.916388 g / cm^3
# Si number density = 19.207602 Si / 1000 Ang^3
#
#
#
# Elastic Constant Matrix: (Units=GPa)
#
#
# Indices 1 2 3 4 5 6 
#
# 1 115.0514 22.2830 84.9569 0.0000 0.0000 0.0000
# 2 22.2830 13.5640 18.3839 0.0000 0.0000 0.0000
# 3 84.9569 18.3839 89.5655 0.0000 0.0000 0.0000
# 4 0.0000 0.0000 0.0000 13.7890 0.0000 0.0000
# 5 0.0000 0.0000 0.0000 0.0000 18.4155 0.0000
# 6 0.0000 0.0000 0.0000 0.0000 0.0000 17.2977
#
#
#
# Elastic Compliance Matrix: (Units=1/GPa)
#
#
# Indices 1 2 3 4 5 6 
#
# 1 0.031183 -0.015432 -0.026411 0.000000 0.000000 0.000000
# 2 -0.015432 0.109776 -0.007894 0.000000 0.000000 0.000000
# 3 -0.026411 -0.007894 0.037838 0.000000 0.000000 0.000000
# 4 0.000000 0.000000 0.000000 0.072522 0.000000 0.000000
# 5 0.000000 0.000000 0.000000 0.000000 0.054302 0.000000
# 6 0.000000 0.000000 0.000000 0.000000 0.000000 0.057811
#
#
# Mechanical properties :
#
#
# Convention : Reuss Voigt Hill
#
# Bulk Modulus (GPa) = 12.60687 52.15874 32.38281
# Shear Modulus (GPa) = 10.21767 16.07091 13.14429
#
# Velocity S-wave (km/s) = 2.30893 2.89571 2.61880
# Velocity P-wave (km/s) = 3.69945 6.19632 5.10295
#
# Compressibility (1/GPa) = 0.07932183
#
# Stress axis : x y z
#
# Youngs Moduli (GPa) = 32.06825 9.10946 26.42856
#
# Poissons Ratio (x) = 0.14058 0.69802
# Poissons Ratio (y) = 0.49487 0.20864
# Poissons Ratio (z) = 0.84697 0.07191
#
# Static dielectric constant tensor:
#      x y z
#    x 1.672670 0.000000 0.000000 
#    y 0.000000 1.667060 0.000000 
#    z 0.000000 0.000000 1.655790 
# 
# From -- ./inp_files/50912.got.cif
#   From: 2010.05.17/outbox.cif.g08.bks.cpg/sg71_26_cif.got.tgz:50912.got - 2010.06.03 16:22:01.
