data_PCOD9521232
_publ_section_title
;
Structure prediction by ZEFSAII (Michael W. Deem and Ramdas Pophale) SiO2 
 PCOD9521232
Probable space group: I M M M
;
_chemical_formula_sum "Si O2"
_cell_formula_units_Z 88
_cell_length_a 8.774200
_cell_length_b 22.976908
_cell_length_c 23.126319
_cell_angle_alpha 90.000000
_cell_angle_beta 90.000000
_cell_angle_gamma 90.000000
_cell_volume 4662.358096
_symmetry_space_group_name_H-M "I M M M"
_symmetry_group_IT_number 71
_symmetry_cell_setting 'orthorhombic'
loop_
_space_group_symop_operation_xyz
x,y,z
-x,-y,z
x,-y,-z
-x,y,-z
-x,-y,-z
x,y,-z
-x,y,z
x,-y,z
1/2+x,1/2+y,1/2+z
1/2-x,1/2-y,1/2+z
1/2+x,1/2-y,1/2-z
1/2-x,1/2+y,1/2-z
1/2-x,1/2-y,1/2-z
1/2+x,1/2+y,1/2-z
1/2-x,1/2+y,1/2+z
1/2+x,1/2-y,1/2+z
loop_
_atom_site_type_symbol
_atom_site_label
_atom_site_fract_x
_atom_site_fract_y
_atom_site_fract_z
Si Si1 0.183322 0.342645 0.126136
Si Si2 0.816426 0.408463 0.335742
Si Si3 0.173012 0.211361 0.000000
Si Si4 0.827463 0.647773 0.000000
Si Si5 0.814913 0.500000 0.566828
Si Si6 0.181460 0.935362 0.712801
Si Si7 0.818894 0.284511 0.621126
O O1 0.242336 0.364733 0.062862
O O2 0.238231 0.385744 0.175499
O O3 0.241038 0.276771 0.135836
O O4 0.000000 0.340918 0.123158
O O5 0.771498 0.444183 0.393595
O O6 0.737047 0.432460 0.278822
O O7 0.780917 0.339879 0.339673
O O8 0.000000 0.414738 0.330369
O O9 0.263368 0.196501 0.942472
O O10 0.163241 0.281815 0.000000
O O11 0.000000 0.188922 0.000000
O O12 0.000000 0.623808 0.000000
O O13 0.759960 0.500000 0.500000
O O14 0.000000 0.500000 0.563769
O O15 0.000000 0.927368 0.710612
O O16 0.218555 0.000000 0.690003
O O17 0.000000 0.276056 0.621018
#
# Coordination Sequence:
#
# PCOD9521232 Si02
#       7
#    16  16   8   8   8  16  16
#     4  10  20  37  62  87 116 152 190 233 288 352
#     4  10  21  37  60  85 114 154 199 241 290 348
#     4   9  17  31  51  77 115 159 194 226 279 347
#     4   7  14  31  54  82 110 139 179 224 268 322
#     4   9  18  34  59  87 117 152 197 248 285 333
#     4  11  24  41  60  82 113 151 193 241 294 346
#     4  10  20  33  54  87 119 149 191 244 297 344
#
# _framework density 18.874569000000001
#
# number of rings (size 3 to 8) (size 9 to 14) (size 15 to 20)
#    0.000    2.273    0.909    3.000    1.273    3.273 
#    0.000    1.818    0.000    3.273    0.000    0.000 
#    0.000    0.000    0.000    0.000    0.000    0.000 
#
# Total GULP energy -245316.558957 kJ/mol
# GULP energy per Si atom -5575.376340 kJ/mol
# Density = 1.883161 g / cm^3
# Si number density = 18.874569 Si / 1000 Ang^3
#
#
#
# Elastic Constant Matrix: (Units=GPa)
#
#
# Indices 1 2 3 4 5 6 
#
# 1 36.6604 47.7898 26.3916 0.0000 0.0000 0.0000
# 2 47.7898 117.1439 57.5928 0.0000 0.0000 0.0000
# 3 26.3916 57.5928 96.3823 0.0000 0.0000 0.0000
# 4 0.0000 0.0000 0.0000 36.3942 0.0000 0.0000
# 5 0.0000 0.0000 0.0000 0.0000 23.5750 0.0000
# 6 0.0000 0.0000 0.0000 0.0000 0.0000 13.1782
#
#
#
# Elastic Compliance Matrix: (Units=1/GPa)
#
#
# Indices 1 2 3 4 5 6 
#
# 1 0.058683 -0.022712 -0.002497 0.000000 0.000000 0.000000
# 2 -0.022712 0.020878 -0.006256 0.000000 0.000000 0.000000
# 3 -0.002497 -0.006256 0.014798 0.000000 0.000000 0.000000
# 4 0.000000 0.000000 0.000000 0.027477 0.000000 0.000000
# 5 0.000000 0.000000 0.000000 0.000000 0.042418 0.000000
# 6 0.000000 0.000000 0.000000 0.000000 0.000000 0.075883
#
#
# Mechanical properties :
#
#
# Convention : Reuss Voigt Hill
#
# Bulk Modulus (GPa) = 31.82011 57.08168 44.45089
# Shear Modulus (GPa) = 15.94675 22.52361 19.23518
#
# Velocity S-wave (km/s) = 2.90984 3.45821 3.19581
# Velocity P-wave (km/s) = 5.30894 6.80102 6.10077
#
# Compressibility (1/GPa) = 0.03142666
#
# Stress axis : x y z
#
# Youngs Moduli (GPa) = 17.04084 47.89680 67.57859
#
# Poissons Ratio (x) = 1.08786 0.16873
# Poissons Ratio (y) = 0.38704 0.42281
# Poissons Ratio (z) = 0.04255 0.29967
#
# Static dielectric constant tensor:
#      x y z
#    x 1.635620 0.000000 0.000000 
#    y 0.000000 1.647970 0.000000 
#    z 0.000000 0.000000 1.679610 
# 
# From -- ./inp_files/50600.got.cif
#   From: 2010.05.17/outbox.cif.g08.bks.cpg/sg71_26_cif.got.tgz:50600.got - 2010.06.03 16:22:01.
