data_PCOD9521618
_publ_section_title
;
Structure prediction by ZEFSAII (Michael W. Deem and Ramdas Pophale) SiO2 
 PCOD9521618
Probable space group: I M M M
;
_chemical_formula_sum "Si O2"
_cell_formula_units_Z 104
_cell_length_a 20.184907
_cell_length_b 29.291883
_cell_length_c 9.601816
_cell_angle_alpha 90.000000
_cell_angle_beta 90.000000
_cell_angle_gamma 90.000000
_cell_volume 5677.111486
_symmetry_space_group_name_H-M "I M M M"
_symmetry_group_IT_number 71
_symmetry_cell_setting 'orthorhombic'
loop_
_space_group_symop_operation_xyz
x,y,z
-x,-y,z
x,-y,-z
-x,y,-z
-x,-y,-z
x,y,-z
-x,y,z
x,-y,z
1/2+x,1/2+y,1/2+z
1/2-x,1/2-y,1/2+z
1/2+x,1/2-y,1/2-z
1/2-x,1/2+y,1/2-z
1/2-x,1/2-y,1/2-z
1/2+x,1/2+y,1/2-z
1/2-x,1/2+y,1/2+z
1/2+x,1/2-y,1/2+z
loop_
_atom_site_type_symbol
_atom_site_label
_atom_site_fract_x
_atom_site_fract_y
_atom_site_fract_z
Si Si1 0.197410 0.724899 0.659197
Si Si2 0.922586 0.588738 0.164494
Si Si3 0.074330 0.782032 0.331226
Si Si4 0.686670 0.445842 0.332801
Si Si5 0.079088 0.887119 0.332841
Si Si6 0.079619 0.500000 0.343879
Si Si7 0.189539 0.380085 0.659577
O O1 0.202145 0.740602 0.500000
O O2 0.250000 0.750000 0.750000
O O3 0.125193 0.742311 0.708532
O O4 0.214237 0.671618 0.659949
O O5 0.904628 0.543568 0.251793
O O6 0.870916 0.622590 0.232557
O O7 0.000000 0.599462 0.189058
O O8 0.913936 0.582297 0.000000
O O9 0.070496 0.782296 0.500000
O O10 0.094556 0.834110 0.293552
O O11 0.000000 0.773918 0.278029
O O12 0.675874 0.442313 0.500000
O O13 0.693293 0.500000 0.299307
O O14 0.626462 0.421710 0.250234
O O15 0.753836 0.416816 0.303033
O O16 0.089241 0.891983 0.500000
O O17 0.000000 0.894197 0.307003
O O18 0.108418 0.500000 0.500000
O O19 0.000000 0.500000 0.357701
O O20 0.166811 0.390247 0.500000
#
# Coordination Sequence:
#
# PCOD9521618 Si02
#       7
#    16  16  16  16  16   8  16
#     4  10  20  34  55  81 107 138 179 224 270 327
#     4  10  21  36  54  79 110 142 181 229 277 325
#     4   8  15  30  53  80 108 137 169 210 263 320
#     4  10  22  38  53  73 106 145 182 223 270 318
#     4   9  18  34  57  83 108 135 171 215 266 329
#     4   9  17  31  53  77 101 135 176 217 264 317
#     4  10  22  37  54  79 108 144 190 232 272 325
#
# _framework density 18.319175000000001
#
# number of rings (size 3 to 8) (size 9 to 14) (size 15 to 20)
#    0.000    2.538    0.000    2.538    1.077    4.615 
#    0.000    3.077    0.000    1.385    0.000    0.000 
#    0.000    0.000    0.000    0.000    0.000    0.000 
#
# Total GULP energy -289595.382181 kJ/mol
# GULP energy per Si atom -5569.141965 kJ/mol
# Density = 1.827748 g / cm^3
# Si number density = 18.319175 Si / 1000 Ang^3
#
#
#
# Elastic Constant Matrix: (Units=GPa)
#
#
# Indices 1 2 3 4 5 6 
#
# 1 86.9686 48.9697 42.0616 0.0000 0.0000 0.0000
# 2 48.9697 89.7555 23.7386 0.0000 0.0000 0.0000
# 3 42.0616 23.7386 52.0838 0.0000 0.0000 0.0000
# 4 0.0000 0.0000 0.0000 27.3760 0.0000 0.0000
# 5 0.0000 0.0000 0.0000 0.0000 33.8802 0.0000
# 6 0.0000 0.0000 0.0000 0.0000 0.0000 34.9309
#
#
#
# Elastic Compliance Matrix: (Units=1/GPa)
#
#
# Indices 1 2 3 4 5 6 
#
# 1 0.023951 -0.009042 -0.015221 0.000000 0.000000 0.000000
# 2 -0.009042 0.016082 -0.000028 0.000000 0.000000 0.000000
# 3 -0.015221 -0.000028 0.031505 0.000000 0.000000 0.000000
# 4 0.000000 0.000000 0.000000 0.036528 0.000000 0.000000
# 5 0.000000 0.000000 0.000000 0.000000 0.029516 0.000000
# 6 0.000000 0.000000 0.000000 0.000000 0.000000 0.028628
#
#
# Mechanical properties :
#
#
# Convention : Reuss Voigt Hill
#
# Bulk Modulus (GPa) = 43.56157 50.92754 47.24455
# Shear Modulus (GPa) = 22.47755 26.83996 24.65875
#
# Velocity S-wave (km/s) = 3.50665 3.83185 3.67285
# Velocity P-wave (km/s) = 6.34242 6.88752 6.62058
#
# Compressibility (1/GPa) = 0.02295601
#
# Stress axis : x y z
#
# Youngs Moduli (GPa) = 41.75136 62.18184 31.74110
#
# Poissons Ratio (x) = 0.56224 0.48314
# Poissons Ratio (y) = 0.37751 0.00088
# Poissons Ratio (z) = 0.63551 0.00173
#
# Static dielectric constant tensor:
#      x y z
#    x 1.519430 0.000000 0.000000 
#    y 0.000000 1.682620 0.000000 
#    z 0.000000 0.000000 1.616190 
# 
# From -- ./inp_files/11058.got.cif
#   From: 2010.05.17/outbox.cif.g08.bks.cpg/sg71_6_cif.got.tgz:11058.got - 2010.06.03 16:22:01.
