data_PCOD9521075
_publ_section_title
;
Structure prediction by ZEFSAII (Michael W. Deem and Ramdas Pophale) SiO2 
 PCOD9521075
Probable space group: I M M M
;
_chemical_formula_sum "Si O2"
_cell_formula_units_Z 88
_cell_length_a 9.578749
_cell_length_b 24.280841
_cell_length_c 18.689291
_cell_angle_alpha 90.000000
_cell_angle_beta 90.000000
_cell_angle_gamma 90.000000
_cell_volume 4346.756823
_symmetry_space_group_name_H-M "I M M M"
_symmetry_group_IT_number 71
_symmetry_cell_setting 'orthorhombic'
loop_
_space_group_symop_operation_xyz
x,y,z
-x,-y,z
x,-y,-z
-x,y,-z
-x,-y,-z
x,y,-z
-x,y,z
x,-y,z
1/2+x,1/2+y,1/2+z
1/2-x,1/2-y,1/2+z
1/2+x,1/2-y,1/2-z
1/2-x,1/2+y,1/2-z
1/2-x,1/2-y,1/2-z
1/2+x,1/2+y,1/2-z
1/2-x,1/2+y,1/2+z
1/2+x,1/2-y,1/2+z
loop_
_atom_site_type_symbol
_atom_site_label
_atom_site_fract_x
_atom_site_fract_y
_atom_site_fract_z
Si Si1 0.344881 0.437069 0.587468
Si Si2 0.348287 0.842712 0.916858
Si Si3 0.839255 0.242380 0.854650
Si Si4 0.336907 0.663607 0.785460
Si Si5 0.668811 0.065638 0.661224
Si Si6 0.659108 0.066661 0.500000
O O1 0.345499 0.436777 0.500000
O O2 0.500000 0.418371 0.609981
O O3 0.324192 0.500000 0.609534
O O4 0.227200 0.396256 0.614255
O O5 0.500000 0.831199 0.883851
O O6 0.245640 0.791502 0.912710
O O7 0.366136 0.855240 0.000000
O O8 0.754328 0.297166 0.836928
O O9 0.834673 0.199410 0.787677
O O10 0.000000 0.253669 0.871450
O O11 0.500000 0.657603 0.805404
O O12 0.257715 0.605168 0.787329
O O13 0.500000 0.074552 0.666881
O O14 0.715607 0.080398 0.578999
O O15 0.691854 0.000000 0.672251
O O16 0.500000 0.087461 0.500000
O O17 0.653676 0.000000 0.500000
#
# Coordination Sequence:
#
# PCOD9521075 Si02
#       6
#    16  16  16  16  16   8
#     4   8  14  26  45  68  95 130 169 204 244 302
#     4  10  20  33  51  77 107 134 165 216 274 318
#     4  10  21  38  58  76  99 139 185 221 263 323
#     4  10  21  37  57  80 105 136 177 225 271 315
#     4   9  17  32  56  84 113 146 183 220 262 319
#     4   7  12  26  49  77 109 143 177 211 248 301
#
# _framework density 20.244979000000001
#
# number of rings (size 3 to 8) (size 9 to 14) (size 15 to 20)
#    0.000    2.818    0.000    3.273    0.000    4.000 
#    1.636    3.182    0.000    2.727    0.000    0.000 
#    0.000    0.000    0.000    0.000    0.000    0.000 
#
# Total GULP energy -245068.648308 kJ/mol
# GULP energy per Si atom -5569.742007 kJ/mol
# Density = 2.019890 g / cm^3
# Si number density = 20.244979 Si / 1000 Ang^3
#
#
#
# Elastic Constant Matrix: (Units=GPa)
#
#
# Indices 1 2 3 4 5 6 
#
# 1 146.4367 70.8624 25.8143 0.0000 0.0000 0.0000
# 2 70.8624 92.9663 16.0978 0.0000 0.0000 0.0000
# 3 25.8143 16.0978 26.6503 0.0000 0.0000 0.0000
# 4 0.0000 0.0000 0.0000 23.3299 0.0000 0.0000
# 5 0.0000 0.0000 0.0000 0.0000 14.8690 0.0000
# 6 0.0000 0.0000 0.0000 0.0000 0.0000 30.8174
#
#
#
# Elastic Compliance Matrix: (Units=1/GPa)
#
#
# Indices 1 2 3 4 5 6 
#
# 1 0.011801 -0.007836 -0.006698 0.000000 0.000000 0.000000
# 2 -0.007836 0.017216 -0.002809 0.000000 0.000000 0.000000
# 3 -0.006698 -0.002809 0.045708 0.000000 0.000000 0.000000
# 4 0.000000 0.000000 0.000000 0.042863 0.000000 0.000000
# 5 0.000000 0.000000 0.000000 0.000000 0.067254 0.000000
# 6 0.000000 0.000000 0.000000 0.000000 0.000000 0.032449
#
#
# Mechanical properties :
#
#
# Convention : Reuss Voigt Hill
#
# Bulk Modulus (GPa) = 24.97557 54.62246 39.79902
# Shear Modulus (GPa) = 18.84491 24.02185 21.43338
#
# Velocity S-wave (km/s) = 3.05428 3.44838 3.25730
# Velocity P-wave (km/s) = 4.98013 6.54939 5.81791
#
# Compressibility (1/GPa) = 0.04003912
#
# Stress axis : x y z
#
# Youngs Moduli (GPa) = 84.73547 58.08679 21.87811
#
# Poissons Ratio (x) = 0.45515 0.14654
# Poissons Ratio (y) = 0.66396 0.06146
# Poissons Ratio (z) = 0.56758 0.16317
#
# Static dielectric constant tensor:
#      x y z
#    x 1.740720 0.000000 0.000000 
#    y 0.000000 1.712190 0.000000 
#    z 0.000000 0.000000 1.796330 
# 
# From -- ./inp_files/50488.got.cif
#   From: 2010.05.17/outbox.cif.g08.bks.cpg/sg71_26_cif.got.tgz:50488.got - 2010.06.03 16:22:01.
