data_PCOD9521295
_publ_section_title
;
Structure prediction by ZEFSAII (Michael W. Deem and Ramdas Pophale) SiO2 
 PCOD9521295
Probable space group: I M M M
;
_chemical_formula_sum "Si O2"
_cell_formula_units_Z 88
_cell_length_a 18.407140
_cell_length_b 32.078372
_cell_length_c 7.659848
_cell_angle_alpha 90.000000
_cell_angle_beta 90.000000
_cell_angle_gamma 90.000000
_cell_volume 4522.918755
_symmetry_space_group_name_H-M "I M M M"
_symmetry_group_IT_number 71
_symmetry_cell_setting 'orthorhombic'
loop_
_space_group_symop_operation_xyz
x,y,z
-x,-y,z
x,-y,-z
-x,y,-z
-x,-y,-z
x,y,-z
-x,y,z
x,-y,z
1/2+x,1/2+y,1/2+z
1/2-x,1/2-y,1/2+z
1/2+x,1/2-y,1/2-z
1/2-x,1/2+y,1/2-z
1/2-x,1/2-y,1/2-z
1/2+x,1/2+y,1/2-z
1/2-x,1/2+y,1/2+z
1/2+x,1/2-y,1/2+z
loop_
_atom_site_type_symbol
_atom_site_label
_atom_site_fract_x
_atom_site_fract_y
_atom_site_fract_z
Si Si1 0.808881 0.119758 0.702346
Si Si2 0.921248 0.668816 0.709535
Si Si3 0.583083 0.000000 0.213522
Si Si4 0.653240 0.085498 0.788025
Si Si5 0.585050 0.547137 0.212956
Si Si6 0.263914 0.202284 0.704814
O O1 0.830841 0.125949 0.500000
O O2 0.730934 0.097126 0.711116
O O3 0.866705 0.086298 0.776794
O O4 0.788707 0.165619 0.781458
O O5 0.924652 0.670105 0.500000
O O6 0.904221 0.621243 0.760763
O O7 0.848246 0.692953 0.757274
O O8 0.000000 0.682759 0.777320
O O9 0.624737 0.041118 0.269166
O O10 0.500000 0.000000 0.271262
O O11 0.582089 0.000000 0.000000
O O12 0.660033 0.086110 0.000000
O O13 0.500000 0.552159 0.258871
O O14 0.608062 0.500000 0.268908
O O15 0.589348 0.547007 0.000000
O O16 0.254111 0.197928 0.500000
O O17 0.250000 0.250000 0.750000
#
# Coordination Sequence:
#
# PCOD9521295 Si02
#       6
#    16  16   8  16  16  16
#     4   9  18  31  48  71  95 122 157 198 241 286
#     4   9  17  31  51  72  94 124 163 202 241 287
#     4   9  16  26  41  63  92 125 160 194 225 263
#     4   9  17  28  44  67  94 126 161 195 231 275
#     4   8  14  26  46  71  96 123 156 194 237 286
#     4  10  20  34  51  72  99 128 161 202 251 301
#
# _framework density 19.456464
#
# number of rings (size 3 to 8) (size 9 to 14) (size 15 to 20)
#    0.000    3.000    0.000    1.636    1.273    3.273 
#    0.000    0.909    0.000    6.000    0.000    1.273 
#    0.000    0.000    0.000    0.000    0.000    0.000 
#
# Total GULP energy -245047.054521 kJ/mol
# GULP energy per Si atom -5569.251239 kJ/mol
# Density = 1.941218 g / cm^3
# Si number density = 19.456464 Si / 1000 Ang^3
#
#
#
# Elastic Constant Matrix: (Units=GPa)
#
#
# Indices 1 2 3 4 5 6 
#
# 1 89.7773 87.4581 6.4505 -0.0029 0.0071 0.0073
# 2 87.4581 189.6631 7.8884 0.0021 -0.0014 -0.0008
# 3 6.4505 7.8884 32.1707 0.0286 -0.0046 0.0023
# 4 -0.0029 0.0021 0.0286 6.2414 -0.0016 -0.0007
# 5 0.0071 -0.0014 -0.0046 -0.0016 16.7275 -0.0038
# 6 0.0073 -0.0008 0.0023 -0.0007 -0.0038 16.4891
#
#
#
# Elastic Compliance Matrix: (Units=1/GPa)
#
#
# Indices 1 2 3 4 5 6 
#
# 1 0.020325 -0.009298 -0.001796 0.000021 -0.000010 -0.000009
# 2 -0.009298 0.009580 -0.000485 -0.000005 0.000005 0.000005
# 3 -0.001796 -0.000485 0.031563 -0.000145 0.000009 -0.000004
# 4 0.000021 -0.000005 -0.000145 0.160220 0.000016 0.000006
# 5 -0.000010 0.000005 0.000009 0.000016 0.059782 0.000014
# 6 -0.000009 0.000005 -0.000004 0.000006 0.000014 0.060646
#
#
# Mechanical properties :
#
#
# Convention : Reuss Voigt Hill
#
# Bulk Modulus (GPa) = 26.10124 57.24500 41.67312
# Shear Modulus (GPa) = 13.22597 21.87920 17.55258
#
# Velocity S-wave (km/s) = 2.61007 3.35703 3.00683
# Velocity P-wave (km/s) = 4.74633 6.67174 5.78964
#
# Compressibility (1/GPa) = 0.03831235
#
# Stress axis : x y z
#
# Youngs Moduli (GPa) = 49.19975 104.38300 31.68246
#
# Poissons Ratio (x) = 0.97053 0.05689
# Poissons Ratio (y) = 0.45745 0.01536
# Poissons Ratio (z) = 0.08834 0.05060
#
# Static dielectric constant tensor:
#      x y z
#    x 1.660910 0.000000 0.000000 
#    y 0.000000 1.659030 0.000000 
#    z 0.000000 0.000000 1.751600 
# 
# From -- ./inp_files/8793.got.cif
#   From: 2010.05.17/outbox.cif.g08.bks.cpg/sg71_5_cif.got.tgz:8793.got - 2010.06.03 16:22:01.
