data_PCOD9521374
_publ_section_title
;
Structure prediction by ZEFSAII (Michael W. Deem and Ramdas Pophale) SiO2 
 PCOD9521374
Probable space group: I M M M
;
_chemical_formula_sum "Si O2"
_cell_formula_units_Z 72
_cell_length_a 18.317890
_cell_length_b 10.790958
_cell_length_c 20.186763
_cell_angle_alpha 90.000000
_cell_angle_beta 90.000000
_cell_angle_gamma 90.000000
_cell_volume 3990.268623
_symmetry_space_group_name_H-M "I M M M"
_symmetry_group_IT_number 71
_symmetry_cell_setting 'orthorhombic'
loop_
_space_group_symop_operation_xyz
x,y,z
-x,-y,z
x,-y,-z
-x,y,-z
-x,-y,-z
x,y,-z
-x,y,z
x,-y,z
1/2+x,1/2+y,1/2+z
1/2-x,1/2-y,1/2+z
1/2+x,1/2-y,1/2-z
1/2-x,1/2+y,1/2-z
1/2-x,1/2-y,1/2-z
1/2+x,1/2+y,1/2-z
1/2-x,1/2+y,1/2+z
1/2+x,1/2-y,1/2+z
loop_
_atom_site_type_symbol
_atom_site_label
_atom_site_fract_x
_atom_site_fract_y
_atom_site_fract_z
Si Si1 0.587653 0.135636 0.701430
Si Si2 0.917036 0.000000 0.079960
Si Si3 0.587786 0.641298 0.796194
Si Si4 0.341593 0.758486 0.422412
Si Si5 0.817490 0.854594 0.425353
O O1 0.500000 0.142842 0.696916
O O2 0.612396 0.251132 0.746223
O O3 0.620549 0.149271 0.628519
O O4 0.607083 0.000000 0.729232
O O5 0.873280 0.123902 0.096481
O O6 0.000000 0.000000 0.107541
O O7 0.923019 0.000000 0.000000
O O8 0.500000 0.647263 0.801528
O O9 0.606518 0.500000 0.774808
O O10 0.624332 0.663509 0.867525
O O11 0.358840 0.781762 0.500000
O O12 0.254744 0.772871 0.415375
O O13 0.845865 0.832185 0.500000
O O14 0.794943 0.000000 0.422697
#
# Coordination Sequence:
#
# PCOD9521374 Si02
#       5
#    16   8  16  16  16
#     4  10  21  35  52  77 108 142 179 221 268 319
#     4   9  18  32  50  74 105 141 180 220 259 304
#     4   9  19  36  57  80 106 140 182 225 272 325
#     4  10  20  34  52  77 108 142 179 221 268 318
#     4   9  18  34  56  81 108 137 174 225 276 322
#
# _framework density 18.043897999999999
#
# number of rings (size 3 to 8) (size 9 to 14) (size 15 to 20)
#    0.000    2.556    0.000    1.333    1.556    4.000 
#    2.000    3.333    0.000    0.000    0.000    3.111 
#    0.000    0.000    0.000    0.000    0.000    0.000 
#
# Total GULP energy -200681.507386 kJ/mol
# GULP energy per Si atom -5574.486316 kJ/mol
# Density = 1.800283 g / cm^3
# Si number density = 18.043898 Si / 1000 Ang^3
#
#
#
# Elastic Constant Matrix: (Units=GPa)
#
#
# Indices 1 2 3 4 5 6 
#
# 1 26.5597 40.5955 31.5916 0.0000 0.0000 0.0000
# 2 40.5955 111.3138 65.9493 0.0000 0.0000 0.0000
# 3 31.5916 65.9493 89.9325 0.0000 0.0000 0.0000
# 4 0.0000 0.0000 0.0000 21.7233 0.0000 0.0000
# 5 0.0000 0.0000 0.0000 0.0000 27.7926 0.0000
# 6 0.0000 0.0000 0.0000 0.0000 0.0000 24.3837
#
#
#
# Elastic Compliance Matrix: (Units=1/GPa)
#
#
# Indices 1 2 3 4 5 6 
#
# 1 0.094012 -0.026028 -0.013938 0.000000 0.000000 0.000000
# 2 -0.026028 0.023091 -0.007790 0.000000 0.000000 0.000000
# 3 -0.013938 -0.007790 0.021728 0.000000 0.000000 0.000000
# 4 0.000000 0.000000 0.000000 0.046034 0.000000 0.000000
# 5 0.000000 0.000000 0.000000 0.000000 0.035981 0.000000
# 6 0.000000 0.000000 0.000000 0.000000 0.000000 0.041011
#
#
# Mechanical properties :
#
#
# Convention : Reuss Voigt Hill
#
# Bulk Modulus (GPa) = 23.08422 56.00875 39.54648
# Shear Modulus (GPa) = 13.44778 20.75790 17.10284
#
# Velocity S-wave (km/s) = 2.73295 3.39545 3.08205
# Velocity P-wave (km/s) = 4.77282 6.81761 5.88471
#
# Compressibility (1/GPa) = 0.04331964
#
# Stress axis : x y z
#
# Youngs Moduli (GPa) = 10.63693 43.30651 46.02325
#
# Poissons Ratio (x) = 1.12718 0.64146
# Poissons Ratio (y) = 0.27686 0.35853
# Poissons Ratio (z) = 0.14826 0.33736
#
# Static dielectric constant tensor:
#      x y z
#    x 1.588410 0.000000 0.000000 
#    y 0.000000 1.646710 0.000000 
#    z 0.000000 0.000000 1.618310 
# 
# From -- ./inp_files/23488.got.cif
#   From: 2010.05.17/outbox.cif.g08.bks.cpg/sg71_12_cif.got.tgz:23488.got - 2010.06.03 16:22:01.
