data_PCOD9521001
_publ_section_title
;
Structure prediction by ZEFSAII (Michael W. Deem and Ramdas Pophale) SiO2 
 PCOD9521001
Probable space group: I M M M
;
_chemical_formula_sum "Si O2"
_cell_formula_units_Z 64
_cell_length_a 18.390873
_cell_length_b 8.923856
_cell_length_c 23.986469
_cell_angle_alpha 90.000000
_cell_angle_beta 90.000000
_cell_angle_gamma 90.000000
_cell_volume 3936.599383
_symmetry_space_group_name_H-M "I M M M"
_symmetry_group_IT_number 71
_symmetry_cell_setting 'orthorhombic'
loop_
_space_group_symop_operation_xyz
x,y,z
-x,-y,z
x,-y,-z
-x,y,-z
-x,-y,-z
x,y,-z
-x,y,z
x,-y,z
1/2+x,1/2+y,1/2+z
1/2-x,1/2-y,1/2+z
1/2+x,1/2-y,1/2-z
1/2-x,1/2+y,1/2-z
1/2-x,1/2-y,1/2-z
1/2+x,1/2+y,1/2-z
1/2-x,1/2+y,1/2+z
1/2+x,1/2-y,1/2+z
loop_
_atom_site_type_symbol
_atom_site_label
_atom_site_fract_x
_atom_site_fract_y
_atom_site_fract_z
Si Si1 0.000000 0.320145 0.765130
Si Si2 0.000000 0.317505 0.636364
Si Si3 0.860864 0.319829 0.434821
Si Si4 0.418926 0.323429 0.639958
Si Si5 0.794743 0.320930 0.065149
O O1 0.000000 0.272838 0.700966
O O2 0.068274 0.254404 0.799959
O O3 0.000000 0.500000 0.768432
O O4 0.072361 0.269753 0.603616
O O5 0.000000 0.500000 0.635116
O O6 0.876817 0.287747 0.500000
O O7 0.853028 0.500000 0.429677
O O8 0.784617 0.243326 0.420167
O O9 0.500000 0.305316 0.613306
O O10 0.405678 0.500000 0.646623
O O11 0.356811 0.248863 0.603645
O O12 0.794859 0.500000 0.070130
O O13 0.807836 0.281921 0.000000
#
# Coordination Sequence:
#
# PCOD9521001 Si02
#       5
#     8   8  16  16  16
#     4   9  17  32  52  73 100 130 165 209 250 289
#     4   9  17  31  54  79  99 130 171 206 246 295
#     4   9  17  31  52  77 105 133 164 203 245 293
#     4   9  19  34  52  73  99 130 168 208 245 292
#     4  10  20  33  50  75 105 133 163 201 249 299
#
# _framework density 16.257686
#
# number of rings (size 3 to 8) (size 9 to 14) (size 15 to 20)
#    0.750    2.000    0.000    1.875    0.000    3.500 
#    0.000    6.875    0.000    3.000    0.000    0.000 
#    0.000    0.000    0.000    0.000    0.000    0.000 
#
# Total GULP energy -178160.143981 kJ/mol
# GULP energy per Si atom -5567.504499 kJ/mol
# Density = 1.622068 g / cm^3
# Si number density = 16.257686 Si / 1000 Ang^3
#
#
#
# Elastic Constant Matrix: (Units=GPa)
#
#
# Indices 1 2 3 4 5 6 
#
# 1 141.3811 59.1504 107.3256 0.0000 0.0000 0.0000
# 2 59.1504 54.3424 53.4304 0.0000 0.0000 0.0000
# 3 107.3256 53.4304 121.8319 0.0000 0.0000 0.0000
# 4 0.0000 0.0000 0.0000 14.9923 0.0000 0.0000
# 5 0.0000 0.0000 0.0000 0.0000 -20.9092 0.0000
# 6 0.0000 0.0000 0.0000 0.0000 0.0000 21.7870
#
#
#
# Elastic Compliance Matrix: (Units=1/GPa)
#
#
# Indices 1 2 3 4 5 6 
#
# 1 0.023746 -0.009282 -0.016848 0.000000 0.000000 0.000000
# 2 -0.009282 0.035980 -0.007603 0.000000 0.000000 0.000000
# 3 -0.016848 -0.007603 0.026384 0.000000 0.000000 0.000000
# 4 0.000000 0.000000 0.000000 0.066701 0.000000 0.000000
# 5 0.000000 0.000000 0.000000 0.000000 -0.047826 0.000000
# 6 0.000000 0.000000 0.000000 0.000000 0.000000 0.045899
#
#
# Mechanical properties :
#
#
# Convention : Reuss Voigt Hill
#
# Bulk Modulus (GPa) = 53.63319 84.15203 68.89261
# Shear Modulus (GPa) = 22.26530 9.68395 15.97462
#
# Velocity S-wave (km/s) = 3.70472 2.44325 3.13803
# Velocity P-wave (km/s) = 7.16666 7.73518 7.45634
#
# Compressibility (1/GPa) = 0.01864517
#
# Stress axis : x y z
#
# Youngs Moduli (GPa) = 42.11207 27.79333 37.90112
#
# Poissons Ratio (x) = 0.25797 0.63857
# Poissons Ratio (y) = 0.39087 0.28815
# Poissons Ratio (z) = 0.70951 0.21131
#
# Static dielectric constant tensor:
#      x y z
#    x 1.525280 0.000000 0.000000 
#    y 0.000000 1.540860 0.000000 
#    z 0.000000 0.000000 1.533970 
# 
# From -- ./inp_files/60340.got.cif
#   From: 2010.05.17/outbox.cif.g08.bks.cpg/sg71_31_cif.got.tgz:60340.got - 2010.06.03 16:22:01.
