data_PCOD9521112
_publ_section_title
;
Structure prediction by ZEFSAII (Michael W. Deem and Ramdas Pophale) SiO2 
 PCOD9521112
Probable space group: I M M M
;
_chemical_formula_sum "Si O2"
_cell_formula_units_Z 88
_cell_length_a 31.312495
_cell_length_b 17.275905
_cell_length_c 8.301753
_cell_angle_alpha 90.000000
_cell_angle_beta 90.000000
_cell_angle_gamma 90.000000
_cell_volume 4490.847306
_symmetry_space_group_name_H-M "I M M M"
_symmetry_group_IT_number 71
_symmetry_cell_setting 'orthorhombic'
loop_
_space_group_symop_operation_xyz
x,y,z
-x,-y,z
x,-y,-z
-x,y,-z
-x,-y,-z
x,y,-z
-x,y,z
x,-y,z
1/2+x,1/2+y,1/2+z
1/2-x,1/2-y,1/2+z
1/2+x,1/2-y,1/2-z
1/2-x,1/2+y,1/2-z
1/2-x,1/2-y,1/2-z
1/2+x,1/2+y,1/2-z
1/2-x,1/2+y,1/2+z
1/2+x,1/2-y,1/2+z
loop_
_atom_site_type_symbol
_atom_site_label
_atom_site_fract_x
_atom_site_fract_y
_atom_site_fract_z
Si Si1 0.294059 0.590687 0.805508
Si Si2 0.201800 0.592320 0.680180
Si Si3 0.625091 0.688992 0.806624
Si Si4 0.050228 0.500000 0.802926
Si Si5 0.453452 0.410522 0.196530
Si Si6 0.887702 0.361277 0.811813
O O1 0.301612 0.500000 0.755857
O O2 0.247529 0.617964 0.747030
O O3 0.330823 0.649669 0.748497
O O4 0.293776 0.589972 0.000000
O O5 0.194555 0.624234 0.500000
O O6 0.205426 0.500000 0.669788
O O7 0.160352 0.607825 0.786304
O O8 0.585964 0.638102 0.743007
O O9 0.614478 0.777133 0.766761
O O10 0.626404 0.682071 0.000000
O O11 0.077528 0.575884 0.749814
O O12 0.000000 0.500000 0.754714
O O13 0.050901 0.500000 0.000000
O O14 0.500000 0.381200 0.247443
O O15 0.449564 0.500000 0.242838
O O16 0.452723 0.408755 0.000000
O O17 0.896475 0.351644 0.000000
#
# Coordination Sequence:
#
# PCOD9521112 Si02
#       6
#    16  16  16   8  16  16
#     4   9  18  33  54  79 109 148 188 221 260 316
#     4  10  20  35  57  81 107 138 177 226 275 322
#     4  10  20  33  51  80 115 144 177 226 273 315
#     4   9  20  40  63  83 103 135 183 231 274 329
#     4   8  14  27  50  78 107 142 181 218 261 315
#     4  11  22  37  58  80 105 141 180 220 270 329
#
# _framework density 19.595410999999999
#
# number of rings (size 3 to 8) (size 9 to 14) (size 15 to 20)
#    0.000    2.455    0.909    2.182    0.000    5.091 
#    0.000    0.000    0.000    5.455    0.000    1.273 
#    0.000    0.000    0.000    0.000    0.000    0.000 
#
# Total GULP energy -245230.286607 kJ/mol
# GULP energy per Si atom -5573.415605 kJ/mol
# Density = 1.955081 g / cm^3
# Si number density = 19.595411 Si / 1000 Ang^3
#
#
#
# Elastic Constant Matrix: (Units=GPa)
#
#
# Indices 1 2 3 4 5 6 
#
# 1 168.9617 67.4326 -1.9384 0.0000 0.0000 0.0000
# 2 67.4326 68.5057 -3.2519 0.0000 0.0000 0.0000
# 3 -1.9384 -3.2519 5.3477 0.0000 0.0000 0.0000
# 4 0.0000 0.0000 0.0000 17.4492 0.0000 0.0000
# 5 0.0000 0.0000 0.0000 0.0000 6.0509 0.0000
# 6 0.0000 0.0000 0.0000 0.0000 0.0000 23.1299
#
#
#
# Elastic Compliance Matrix: (Units=1/GPa)
#
#
# Indices 1 2 3 4 5 6 
#
# 1 0.009777 -0.009737 -0.002377 0.000000 0.000000 0.000000
# 2 -0.009737 0.024728 0.011508 0.000000 0.000000 0.000000
# 3 -0.002377 0.011508 0.193134 0.000000 0.000000 0.000000
# 4 0.000000 0.000000 0.000000 0.057309 0.000000 0.000000
# 5 0.000000 0.000000 0.000000 0.000000 0.165264 0.000000
# 6 0.000000 0.000000 0.000000 0.000000 0.000000 0.043234
#
#
# Mechanical properties :
#
#
# Convention : Reuss Voigt Hill
#
# Bulk Modulus (GPa) = 4.41644 40.81106 22.61375
# Shear Modulus (GPa) = 8.76987 21.36418 15.06703
#
# Velocity S-wave (km/s) = 2.11783 3.30550 2.77592
# Velocity P-wave (km/s) = 2.87036 5.95319 4.67330
#
# Compressibility (1/GPa) = 0.22642650
#
# Stress axis : x y z
#
# Youngs Moduli (GPa) = 102.27839 40.43996 5.17776
#
# Poissons Ratio (x) = 0.39376 0.01231
# Poissons Ratio (y) = 0.99588 -0.05958
# Poissons Ratio (z) = 0.24311 -0.46537
#
# Static dielectric constant tensor:
#      x y z
#    x 1.691770 0.000000 0.000000 
#    y 0.000000 1.697050 0.000000 
#    z 0.000000 0.000000 1.709870 
# 
# From -- ./inp_files/16617.got.cif
#   From: 2010.05.17/outbox.cif.g08.bks.cpg/sg71_9_cif.got.tgz:16617.got - 2010.06.03 16:22:01.
