data_PCOD9521066
_publ_section_title
;
Structure prediction by ZEFSAII (Michael W. Deem and Ramdas Pophale) SiO2 
 PCOD9521066
Probable space group: I M M M
;
_chemical_formula_sum "Si O2"
_cell_formula_units_Z 116
_cell_length_a 7.616401
_cell_length_b 22.146437
_cell_length_c 31.759392
_cell_angle_alpha 90.000000
_cell_angle_beta 90.000000
_cell_angle_gamma 90.000000
_cell_volume 5357.051807
_symmetry_space_group_name_H-M "I M M M"
_symmetry_group_IT_number 71
_symmetry_cell_setting 'orthorhombic'
loop_
_space_group_symop_operation_xyz
x,y,z
-x,-y,z
x,-y,-z
-x,y,-z
-x,-y,-z
x,y,-z
-x,y,z
x,-y,z
1/2+x,1/2+y,1/2+z
1/2-x,1/2-y,1/2+z
1/2+x,1/2-y,1/2-z
1/2-x,1/2+y,1/2-z
1/2-x,1/2-y,1/2-z
1/2+x,1/2+y,1/2-z
1/2-x,1/2+y,1/2+z
1/2+x,1/2-y,1/2+z
loop_
_atom_site_type_symbol
_atom_site_label
_atom_site_fract_x
_atom_site_fract_y
_atom_site_fract_z
Si Si1 0.294719 0.692883 0.046430
Si Si2 0.796428 0.432930 0.086751
Si Si3 0.788297 0.432225 0.257648
Si Si4 0.797573 0.070068 0.060631
Si Si5 0.214576 0.748353 0.630708
Si Si6 0.000000 0.615460 0.500000
Si Si7 0.286765 0.886328 0.848522
Si Si8 0.292815 0.371443 0.828895
O O1 0.500000 0.709034 0.043423
O O2 0.285689 0.623467 0.062068
O O3 0.221498 0.733847 0.083981
O O4 0.216909 0.699649 0.000000
O O5 0.722361 0.500000 0.079356
O O6 0.786818 0.416499 0.136342
O O7 0.000000 0.433730 0.074360
O O8 0.725364 0.500000 0.248947
O O9 0.726803 0.411113 0.303509
O O10 0.739063 0.390291 0.218692
O O11 0.000000 0.433262 0.259221
O O12 0.655233 0.110402 0.036601
O O13 0.777051 0.077840 0.110713
O O14 0.000000 0.082788 0.049583
O O15 0.758360 0.000000 0.049534
O O16 0.270404 0.682936 0.645558
O O17 0.269368 0.803839 0.660402
O O18 0.000000 0.747836 0.630085
O O19 0.500000 0.888671 0.848917
O O20 0.500000 0.373140 0.837311
#
# Coordination Sequence:
#
# PCOD9521066 Si02
#       8
#    16  16  16  16  16   4  16  16
#     4   9  18  34  54  77 107 143 184 229 281 340
#     4  10  20  33  51  76 107 142 181 229 284 339
#     4  10  21  35  54  82 116 151 191 235 285 353
#     4  11  23  39  62  93 125 157 203 258 304 365
#     4   8  17  35  56  81 109 148 192 236 286 342
#     4  12  23  42  68  90 122 168 206 246 321 374
#     4  10  20  38  60  84 115 159 198 236 296 359
#     4  10  20  35  56  81 110 145 189 237 286 344
#
# _framework density 21.653700000000001
#
# number of rings (size 3 to 8) (size 9 to 14) (size 15 to 20)
#    0.000    2.207    0.690    3.310    0.000    5.793 
#    1.241    4.828    0.000    0.000    0.000    0.000 
#    0.000    0.000    0.000    0.000    0.000    0.000 
#
# Total GULP energy -323507.875394 kJ/mol
# GULP energy per Si atom -5577.721990 kJ/mol
# Density = 2.160442 g / cm^3
# Si number density = 21.653700 Si / 1000 Ang^3
#
#
#
# Elastic Constant Matrix: (Units=GPa)
#
#
# Indices 1 2 3 4 5 6 
#
# 1 67.5415 2.4424 6.0053 0.0000 0.0000 0.0000
# 2 2.4424 56.9775 22.2532 0.0000 0.0000 0.0000
# 3 6.0053 22.2532 147.8766 0.0000 0.0000 0.0000
# 4 0.0000 0.0000 0.0000 -99.3228 0.0000 0.0000
# 5 0.0000 0.0000 0.0000 0.0000 8.0371 0.0000
# 6 0.0000 0.0000 0.0000 0.0000 0.0000 138.6484
#
#
#
# Elastic Compliance Matrix: (Units=1/GPa)
#
#
# Indices 1 2 3 4 5 6 
#
# 1 0.014869 -0.000427 -0.000540 0.000000 0.000000 0.000000
# 2 -0.000427 0.018659 -0.002791 0.000000 0.000000 0.000000
# 3 -0.000540 -0.002791 0.007204 0.000000 0.000000 0.000000
# 4 0.000000 0.000000 0.000000 -0.010068 0.000000 0.000000
# 5 0.000000 0.000000 0.000000 0.000000 0.124422 0.000000
# 6 0.000000 0.000000 0.000000 0.000000 0.000000 0.007212
#
#
# Mechanical properties :
#
#
# Convention : Reuss Voigt Hill
#
# Bulk Modulus (GPa) = 30.10356 37.08861 33.59608
# Shear Modulus (GPa) = 27.64178 25.58554 26.61366
#
# Velocity S-wave (km/s) = 3.57674 3.44114 3.50960
# Velocity P-wave (km/s) = 5.56686 5.74054 5.65437
#
# Compressibility (1/GPa) = 0.03321867
#
# Stress axis : x y z
#
# Youngs Moduli (GPa) = 67.25346 53.59357 138.80696
#
# Poissons Ratio (x) = 0.02286 0.07491
# Poissons Ratio (y) = 0.02869 0.38735
# Poissons Ratio (z) = 0.03629 0.14956
#
# Static dielectric constant tensor:
#      x y z
#    x 1.825120 0.000000 0.000000 
#    y 0.000000 1.789600 0.000000 
#    z 0.000000 0.000000 1.768890 
# 
# From -- ./inp_files/68506.got.cif
#   From: 2010.05.17/outbox.cif.g08.bks.cpg/sg71_35_cif.got.tgz:68506.got - 2010.06.03 16:22:01.
