data_PCOD9521312
_publ_section_title
;
Structure prediction by ZEFSAII (Michael W. Deem and Ramdas Pophale) SiO2 
 PCOD9521312
Probable space group: I M M M
;
_chemical_formula_sum "Si O2"
_cell_formula_units_Z 104
_cell_length_a 8.777364
_cell_length_b 32.882083
_cell_length_c 20.831657
_cell_angle_alpha 90.000000
_cell_angle_beta 90.000000
_cell_angle_gamma 90.000000
_cell_volume 6012.391421
_symmetry_space_group_name_H-M "I M M M"
_symmetry_group_IT_number 71
_symmetry_cell_setting 'orthorhombic'
loop_
_space_group_symop_operation_xyz
x,y,z
-x,-y,z
x,-y,-z
-x,y,-z
-x,-y,-z
x,y,-z
-x,y,z
x,-y,z
1/2+x,1/2+y,1/2+z
1/2-x,1/2-y,1/2+z
1/2+x,1/2-y,1/2-z
1/2-x,1/2+y,1/2-z
1/2-x,1/2-y,1/2-z
1/2+x,1/2+y,1/2-z
1/2-x,1/2+y,1/2+z
1/2+x,1/2-y,1/2+z
loop_
_atom_site_type_symbol
_atom_site_label
_atom_site_fract_x
_atom_site_fract_y
_atom_site_fract_z
Si Si1 0.182841 0.821920 0.072837
Si Si2 0.819199 0.835232 0.324307
Si Si3 0.317273 0.133846 0.805722
Si Si4 0.674122 0.451552 0.000000
Si Si5 0.683624 0.955414 0.235317
Si Si6 0.681179 0.081047 0.628781
Si Si7 0.183161 0.274098 0.926989
O O1 0.264553 0.847655 0.127266
O O2 0.216892 0.773854 0.079956
O O3 0.000000 0.826319 0.079150
O O4 0.224997 0.833758 0.000000
O O5 0.748473 0.839334 0.253043
O O6 0.767431 0.877062 0.357828
O O7 0.757617 0.799533 0.369920
O O8 0.000000 0.832552 0.319007
O O9 0.500000 0.133961 0.800216
O O10 0.263535 0.086734 0.797370
O O11 0.761832 0.437110 0.937195
O O12 0.669390 0.500000 0.000000
O O13 0.500000 0.436058 0.000000
O O14 0.500000 0.956243 0.227124
O O15 0.712816 0.948485 0.311000
O O16 0.742463 0.000000 0.214981
O O17 0.500000 0.088700 0.627914
O O18 0.000000 0.279033 0.923737
O O19 0.230011 0.286506 0.000000
#
# Coordination Sequence:
#
# PCOD9521312 Si02
#       7
#    16  16  16   8  16  16  16
#     4   9  19  37  59  81 106 138 173 214 266 320
#     4  11  22  35  52  76 108 141 176 221 271 318
#     4  10  20  34  55  82 109 138 175 217 263 317
#     4  11  23  35  47  69 101 135 177 229 279 323
#     4   8  15  30  52  76 100 128 168 215 258 304
#     4  10  20  34  52  72  97 135 180 224 269 320
#     4   9  19  36  56  76 102 139 183 224 264 315
#
# _framework density 17.297609000000001
#
# number of rings (size 3 to 8) (size 9 to 14) (size 15 to 20)
#    0.000    2.385    0.000    4.846    1.077    3.077 
#    0.000    1.538    0.000    9.692    0.000    3.231 
#    0.000    0.000    0.000    0.000    0.000    0.000 
#
# Total GULP energy -290005.104354 kJ/mol
# GULP energy per Si atom -5577.021238 kJ/mol
# Density = 1.725824 g / cm^3
# Si number density = 17.297609 Si / 1000 Ang^3
#
#
#
# Elastic Constant Matrix: (Units=GPa)
#
#
# Indices 1 2 3 4 5 6 
#
# 1 56.9123 43.2090 52.5717 0.0000 0.0000 0.0000
# 2 43.2090 85.4273 80.6490 0.0000 0.0000 0.0000
# 3 52.5717 80.6490 138.8187 -0.0001 0.0000 0.0000
# 4 0.0000 0.0000 -0.0001 10.8005 0.0000 0.0000
# 5 0.0000 0.0000 0.0000 0.0000 31.1365 0.0000
# 6 0.0000 0.0000 0.0000 0.0000 0.0000 20.2992
#
#
#
# Elastic Compliance Matrix: (Units=1/GPa)
#
#
# Indices 1 2 3 4 5 6 
#
# 1 0.030447 -0.009998 -0.005722 0.000000 0.000000 0.000000
# 2 -0.009998 0.029208 -0.013183 0.000000 0.000000 0.000000
# 3 -0.005722 -0.013183 0.017029 0.000000 0.000000 0.000000
# 4 0.000000 0.000000 0.000000 0.092588 0.000000 0.000000
# 5 0.000000 0.000000 0.000000 0.000000 0.032117 0.000000
# 6 0.000000 0.000000 0.000000 0.000000 0.000000 0.049263
#
#
# Mechanical properties :
#
#
# Convention : Reuss Voigt Hill
#
# Bulk Modulus (GPa) = 52.96863 70.44642 61.70752
# Shear Modulus (GPa) = 15.88557 19.42915 17.65736
#
# Velocity S-wave (km/s) = 3.03375 3.35509 3.19846
# Velocity P-wave (km/s) = 6.55438 7.47151 7.02792
#
# Compressibility (1/GPa) = 0.01887910
#
# Stress axis : x y z
#
# Youngs Moduli (GPa) = 32.84356 34.23697 58.72275
#
# Poissons Ratio (x) = 0.34231 0.33601
# Poissons Ratio (y) = 0.32838 0.77411
# Poissons Ratio (z) = 0.18793 0.45133
#
# Static dielectric constant tensor:
#      x y z
#    x 1.586490 0.000000 0.000000 
#    y 0.000000 1.594170 0.000000 
#    z 0.000000 0.000000 1.572060 
# 
# From -- ./inp_files/51128.got.cif
#   From: 2010.05.17/outbox.cif.g08.bks.cpg/sg71_26_cif.got.tgz:51128.got - 2010.06.03 16:22:01.
