data_PCOD9521131
_publ_section_title
;
Structure prediction by ZEFSAII (Michael W. Deem and Ramdas Pophale) SiO2 
 PCOD9521131
Probable space group: I M M M
;
_chemical_formula_sum "Si O2"
_cell_formula_units_Z 104
_cell_length_a 9.338286
_cell_length_b 24.562440
_cell_length_c 25.970794
_cell_angle_alpha 90.000000
_cell_angle_beta 90.000000
_cell_angle_gamma 90.000000
_cell_volume 5956.949317
_symmetry_space_group_name_H-M "I M M M"
_symmetry_group_IT_number 71
_symmetry_cell_setting 'orthorhombic'
loop_
_space_group_symop_operation_xyz
x,y,z
-x,-y,z
x,-y,-z
-x,y,-z
-x,-y,-z
x,y,-z
-x,y,z
x,-y,z
1/2+x,1/2+y,1/2+z
1/2-x,1/2-y,1/2+z
1/2+x,1/2-y,1/2-z
1/2-x,1/2+y,1/2-z
1/2-x,1/2-y,1/2-z
1/2+x,1/2+y,1/2-z
1/2-x,1/2+y,1/2+z
1/2+x,1/2-y,1/2+z
loop_
_atom_site_type_symbol
_atom_site_label
_atom_site_fract_x
_atom_site_fract_y
_atom_site_fract_z
Si Si1 0.673052 0.564333 0.773659
Si Si2 0.832050 0.108072 0.560906
Si Si3 0.162127 0.500000 0.937653
Si Si4 0.336498 0.265633 0.700103
Si Si5 0.665346 0.148317 0.350646
Si Si6 0.826313 0.117011 0.836457
Si Si7 0.325960 0.435991 0.557161
O O1 0.500000 0.570467 0.780025
O O2 0.706808 0.500000 0.782248
O O3 0.754035 0.606475 0.811732
O O4 0.709833 0.581886 0.714653
O O5 0.813914 0.116386 0.500000
O O6 0.750428 0.150305 0.595926
O O7 0.000000 0.105107 0.571852
O O8 0.753705 0.052254 0.576326
O O9 0.000000 0.500000 0.917669
O O10 0.153268 0.500000 0.000000
O O11 0.500000 0.278223 0.715134
O O12 0.250000 0.250000 0.750000
O O13 0.335784 0.210252 0.668229
O O14 0.281207 0.320487 0.673104
O O15 0.500000 0.130524 0.356880
O O16 0.773640 0.094159 0.891320
O O17 0.000000 0.115671 0.839375
O O18 0.278422 0.416719 0.500000
O O19 0.500000 0.432341 0.557119
O O20 0.290939 0.500000 0.561331
#
# Coordination Sequence:
#
# PCOD9521131 Si02
#       7
#    16  16   8  16  16  16  16
#     4  10  20  33  52  77 104 137 175 217 267 321
#     4  10  21  37  56  76 100 135 178 217 257 313
#     4   9  17  31  53  79 105 133 165 207 260 309
#     4  10  20  35  54  75 100 137 182 221 266 319
#     4  11  23  36  52  76 106 139 176 218 272 325
#     4   9  16  29  49  72 101 135 176 220 261 311
#     4   8  13  22  40  70 107 141 169 203 256 319
#
# _framework density 17.458601000000002
#
# number of rings (size 3 to 8) (size 9 to 14) (size 15 to 20)
#    0.000    2.385    1.538    2.077    1.077    4.615 
#    0.000    0.769    0.000    2.769    0.000    0.000 
#    0.000    1.846    0.000    8.462    0.000    7.692 
#
# Total GULP energy -289639.473973 kJ/mol
# GULP energy per Si atom -5569.989884 kJ/mol
# Density = 1.741886 g / cm^3
# Si number density = 17.458601 Si / 1000 Ang^3
#
#
#
# Elastic Constant Matrix: (Units=GPa)
#
#
# Indices 1 2 3 4 5 6 
#
# 1 66.8367 28.6264 47.8923 0.0000 0.0000 0.0000
# 2 28.6264 82.3865 40.6185 0.0000 0.0000 0.0000
# 3 47.8923 40.6185 91.9928 0.0000 0.0000 0.0000
# 4 0.0000 0.0000 0.0000 26.3954 0.0000 0.0000
# 5 0.0000 0.0000 0.0000 0.0000 19.1888 0.0000
# 6 0.0000 0.0000 0.0000 0.0000 0.0000 16.1145
#
#
#
# Elastic Compliance Matrix: (Units=1/GPa)
#
#
# Indices 1 2 3 4 5 6 
#
# 1 0.024369 -0.002828 -0.011438 0.000000 0.000000 0.000000
# 2 -0.002828 0.015844 -0.005523 0.000000 0.000000 0.000000
# 3 -0.011438 -0.005523 0.019264 0.000000 0.000000 0.000000
# 4 0.000000 0.000000 0.000000 0.037885 0.000000 0.000000
# 5 0.000000 0.000000 0.000000 0.000000 0.052114 0.000000
# 6 0.000000 0.000000 0.000000 0.000000 0.000000 0.062056
#
#
# Mechanical properties :
#
#
# Convention : Reuss Voigt Hill
#
# Bulk Modulus (GPa) = 50.25679 52.83225 51.54452
# Shear Modulus (GPa) = 19.39915 20.61167 20.00541
#
# Velocity S-wave (km/s) = 3.33701 3.43972 3.38875
# Velocity P-wave (km/s) = 6.61032 6.78990 6.70071
#
# Compressibility (1/GPa) = 0.01989781
#
# Stress axis : x y z
#
# Youngs Moduli (GPa) = 41.03545 63.11652 51.91059
#
# Poissons Ratio (x) = 0.17851 0.59376
# Poissons Ratio (y) = 0.11606 0.28672
# Poissons Ratio (z) = 0.46937 0.34861
#
# Static dielectric constant tensor:
#      x y z
#    x 1.591790 0.000000 0.000000 
#    y 0.000000 1.614420 0.000000 
#    z 0.000000 0.000000 1.620410 
# 
# From -- ./inp_files/57992.got.cif
#   From: 2010.05.17/outbox.cif.g08.bks.cpg/sg71_29_cif.got.tgz:57992.got - 2010.06.03 16:22:01.
