data_PCOD9521322
_publ_section_title
;
Structure prediction by ZEFSAII (Michael W. Deem and Ramdas Pophale) SiO2 
 PCOD9521322
Probable space group: I M M M
;
_chemical_formula_sum "Si O2"
_cell_formula_units_Z 120
_cell_length_a 8.688660
_cell_length_b 28.370149
_cell_length_c 27.641005
_cell_angle_alpha 90.000000
_cell_angle_beta 90.000000
_cell_angle_gamma 90.000000
_cell_volume 6813.468449
_symmetry_space_group_name_H-M "I M M M"
_symmetry_group_IT_number 71
_symmetry_cell_setting 'orthorhombic'
loop_
_space_group_symop_operation_xyz
x,y,z
-x,-y,z
x,-y,-z
-x,y,-z
-x,-y,-z
x,y,-z
-x,y,z
x,-y,z
1/2+x,1/2+y,1/2+z
1/2-x,1/2-y,1/2+z
1/2+x,1/2-y,1/2-z
1/2-x,1/2+y,1/2-z
1/2-x,1/2-y,1/2-z
1/2+x,1/2+y,1/2-z
1/2-x,1/2+y,1/2+z
1/2+x,1/2-y,1/2+z
loop_
_atom_site_type_symbol
_atom_site_label
_atom_site_fract_x
_atom_site_fract_y
_atom_site_fract_z
Si Si1 0.185063 0.854000 0.944406
Si Si2 0.815189 0.947378 0.888590
Si Si3 0.182211 0.698263 0.645254
Si Si4 0.821835 0.557199 0.000000
Si Si5 0.813137 0.555217 0.106836
Si Si6 0.816833 0.602806 0.296638
Si Si7 0.181624 0.278136 0.795886
Si Si8 0.183010 0.117208 0.694286
O O1 0.223357 0.907196 0.927456
O O2 0.271901 0.820155 0.907425
O O3 0.000000 0.848163 0.938793
O O4 0.224951 0.846330 0.000000
O O5 0.738801 0.932739 0.838010
O O6 0.000000 0.946166 0.882241
O O7 0.770228 0.000000 0.903139
O O8 0.219879 0.655075 0.682084
O O9 0.277515 0.743969 0.659763
O O10 0.000000 0.707308 0.648984
O O11 0.757084 0.570360 0.052796
O O12 0.823276 0.500000 0.000000
O O13 0.000000 0.572947 0.000000
O O14 0.771059 0.500000 0.114266
O O15 0.750918 0.588026 0.149355
O O16 0.000000 0.557155 0.106489
O O17 0.736313 0.595306 0.245464
O O18 0.000000 0.600094 0.290655
O O19 0.250000 0.250000 0.750000
O O20 0.255026 0.329221 0.803770
O O21 0.000000 0.283703 0.789037
O O22 0.000000 0.117563 0.691325
#
# Coordination Sequence:
#
# PCOD9521322 Si02
#       8
#    16  16  16   8  16  16  16  16
#     4   9  18  33  54  79 107 142 186 233 282 338
#     4   9  18  32  50  74 106 143 184 231 282 334
#     4  10  20  35  56  80 106 138 179 226 277 331
#     4   7  12  28  57  85 105 135 179 221 263 315
#     4   9  18  35  59  85 113 146 185 227 270 320
#     4  10  20  34  52  73 102 140 181 224 271 330
#     4  12  23  37  59  85 112 143 180 223 271 327
#     4  12  24  36  54  82 116 149 183 225 270 323
#
# _framework density 17.612175000000001
#
# number of rings (size 3 to 8) (size 9 to 14) (size 15 to 20)
#    0.000    2.067    1.333    4.000    0.000    2.667 
#    0.000    1.667    1.467    1.200    0.000    3.733 
#    0.000    0.000    0.000    0.000    0.000    0.000 
#
# Total GULP energy -334797.022404 kJ/mol
# GULP energy per Si atom -5579.950373 kJ/mol
# Density = 1.757209 g / cm^3
# Si number density = 17.612175 Si / 1000 Ang^3
#
#
#
# Elastic Constant Matrix: (Units=GPa)
#
#
# Indices 1 2 3 4 5 6 
#
# 1 47.0338 19.0681 34.3479 0.0000 0.0000 0.0000
# 2 19.0681 55.9747 34.3640 0.0000 0.0000 0.0000
# 3 34.3479 34.3640 133.6627 0.0000 0.0000 0.0000
# 4 0.0000 0.0000 0.0000 17.6947 0.0000 0.0000
# 5 0.0000 0.0000 0.0000 0.0000 26.7295 0.0000
# 6 0.0000 0.0000 0.0000 0.0000 0.0000 22.2010
#
#
#
# Elastic Compliance Matrix: (Units=1/GPa)
#
#
# Indices 1 2 3 4 5 6 
#
# 1 0.027790 -0.006035 -0.005590 0.000000 0.000000 0.000000
# 2 -0.006035 0.022524 -0.004240 0.000000 0.000000 0.000000
# 3 -0.005590 -0.004240 0.010008 0.000000 0.000000 0.000000
# 4 0.000000 0.000000 0.000000 0.056514 0.000000 0.000000
# 5 0.000000 0.000000 0.000000 0.000000 0.037412 0.000000
# 6 0.000000 0.000000 0.000000 0.000000 0.000000 0.045043
#
#
# Mechanical properties :
#
#
# Convention : Reuss Voigt Hill
#
# Bulk Modulus (GPa) = 34.97421 45.80346 40.38884
# Shear Modulus (GPa) = 20.78554 23.25112 22.01833
#
# Velocity S-wave (km/s) = 3.43910 3.63736 3.53962
# Velocity P-wave (km/s) = 5.97252 6.61088 6.29979
#
# Compressibility (1/GPa) = 0.02859249
#
# Stress axis : x y z
#
# Youngs Moduli (GPa) = 35.98406 44.39678 99.92003
#
# Poissons Ratio (x) = 0.26794 0.55852
# Poissons Ratio (y) = 0.21717 0.42366
# Poissons Ratio (z) = 0.20114 0.18824
#
# Static dielectric constant tensor:
#      x y z
#    x 1.596860 0.000000 0.000000 
#    y 0.000000 1.595780 0.000000 
#    z 0.000000 0.000000 1.604070 
# 
# From -- ./inp_files/63799.got.cif
#   From: 2010.05.17/outbox.cif.g08.bks.cpg/sg71_32_cif.got.tgz:63799.got - 2010.06.03 16:22:01.
