data_PCOD9521246
_publ_section_title
;
Structure prediction by ZEFSAII (Michael W. Deem and Ramdas Pophale) SiO2 
 PCOD9521246
Probable space group: I M M M
;
_chemical_formula_sum "Si O2"
_cell_formula_units_Z 72
_cell_length_a 18.479333
_cell_length_b 25.267669
_cell_length_c 7.395068
_cell_angle_alpha 90.000000
_cell_angle_beta 90.000000
_cell_angle_gamma 90.000000
_cell_volume 3452.976658
_symmetry_space_group_name_H-M "I M M M"
_symmetry_group_IT_number 71
_symmetry_cell_setting 'orthorhombic'
loop_
_space_group_symop_operation_xyz
x,y,z
-x,-y,z
x,-y,-z
-x,y,-z
-x,-y,-z
x,y,-z
-x,y,z
x,-y,z
1/2+x,1/2+y,1/2+z
1/2-x,1/2-y,1/2+z
1/2+x,1/2-y,1/2-z
1/2-x,1/2+y,1/2-z
1/2-x,1/2-y,1/2-z
1/2+x,1/2+y,1/2-z
1/2-x,1/2+y,1/2+z
1/2+x,1/2-y,1/2+z
loop_
_atom_site_type_symbol
_atom_site_label
_atom_site_fract_x
_atom_site_fract_y
_atom_site_fract_z
Si Si1 0.080228 0.254655 0.282796
Si Si2 0.646431 0.643009 0.219098
Si Si3 0.811797 0.349249 0.787597
Si Si4 0.417900 0.060514 0.720639
Si Si5 0.913115 0.938497 0.000000
O O1 0.078112 0.255062 0.500000
O O2 0.100863 0.195139 0.229313
O O3 0.142412 0.295781 0.231588
O O4 0.000000 0.269711 0.216061
O O5 0.729606 0.653222 0.277217
O O6 0.616763 0.592560 0.325234
O O7 0.642360 0.636969 0.000000
O O8 0.860036 0.397200 0.712159
O O9 0.804771 0.359797 0.000000
O O10 0.417787 0.061505 0.500000
O O11 0.500000 0.074016 0.776423
O O12 0.402527 0.000000 0.774023
O O13 0.000000 0.935681 0.000000
O O14 0.891447 0.000000 0.000000
#
# Coordination Sequence:
#
# PCOD9521246 Si02
#       5
#    16  16  16  16   8
#     4  10  21  36  56  84 122 167 208 253 314 377
#     4  10  23  42  64  92 128 164 204 258 321 377
#     4  10  20  33  56  88 117 158 207 254 311 367
#     4   8  14  26  45  72 109 149 192 244 297 357
#     4  11  26  46  70  98 123 161 214 260 313 376
#
# _framework density 20.851575
#
# number of rings (size 3 to 8) (size 9 to 14) (size 15 to 20)
#    0.000    2.333    0.000    2.667    3.111    4.000 
#    0.000    3.333    0.000    0.000    0.000    3.111 
#    0.000    0.000    0.000    0.000    0.000    0.000 
#
# Total GULP energy -201098.509775 kJ/mol
# GULP energy per Si atom -5586.069716 kJ/mol
# Density = 2.080412 g / cm^3
# Si number density = 20.851575 Si / 1000 Ang^3
#
#
#
# Elastic Constant Matrix: (Units=GPa)
#
#
# Indices 1 2 3 4 5 6 
#
# 1 111.7227 48.1950 16.6537 0.0000 0.0000 0.0000
# 2 48.1950 103.2688 13.2951 0.0000 0.0000 0.0000
# 3 16.6537 13.2951 74.9942 0.0000 0.0000 0.0000
# 4 0.0000 0.0000 0.0000 66.4292 0.0000 0.0000
# 5 0.0000 0.0000 0.0000 0.0000 -30.0695 0.0000
# 6 0.0000 0.0000 0.0000 0.0000 0.0000 743.4209
#
#
#
# Elastic Compliance Matrix: (Units=1/GPa)
#
#
# Indices 1 2 3 4 5 6 
#
# 1 0.011397 -0.005110 -0.001625 0.000000 0.000000 0.000000
# 2 -0.005110 0.012201 -0.001028 0.000000 0.000000 0.000000
# 3 -0.001625 -0.001028 0.013878 0.000000 0.000000 0.000000
# 4 0.000000 0.000000 0.000000 0.015054 0.000000 0.000000
# 5 0.000000 0.000000 0.000000 0.000000 -0.033256 0.000000
# 6 0.000000 0.000000 0.000000 0.000000 0.000000 0.001345
#
#
# Mechanical properties :
#
#
# Convention : Reuss Voigt Hill
#
# Bulk Modulus (GPa) = 45.55990 49.58592 47.57291
# Shear Modulus (GPa) = 115.04738 170.07892 142.56315
#
# Velocity S-wave (km/s) = 7.43601 9.04121 8.27761
# Velocity P-wave (km/s) = 9.77868 11.52490 10.68752
#
# Compressibility (1/GPa) = 0.02194913
#
# Stress axis : x y z
#
# Youngs Moduli (GPa) = 87.74056 81.96338 72.05897
#
# Poissons Ratio (x) = 0.41882 0.11710
# Poissons Ratio (y) = 0.44834 0.07409
# Poissons Ratio (z) = 0.14258 0.08428
#
# Static dielectric constant tensor:
#      x y z
#    x 1.750220 0.000000 0.000000 
#    y 0.000000 1.706180 0.000000 
#    z 0.000000 0.000000 1.824400 
# 
# From -- ./inp_files/7955.got.cif
#   From: 2010.05.17/outbox.cif.g08.bks.cpg/sg71_4_cif.got.tgz:7955.got - 2010.06.03 16:22:01.
