data_PCOD9521062
_publ_section_title
;
Structure prediction by ZEFSAII (Michael W. Deem and Ramdas Pophale) SiO2 
 PCOD9521062
Probable space group: I M M M
;
_chemical_formula_sum "Si O2"
_cell_formula_units_Z 96
_cell_length_a 23.653297
_cell_length_b 9.376710
_cell_length_c 23.889418
_cell_angle_alpha 90.000000
_cell_angle_beta 90.000000
_cell_angle_gamma 90.000000
_cell_volume 5298.436563
_symmetry_space_group_name_H-M "I M M M"
_symmetry_group_IT_number 71
_symmetry_cell_setting 'orthorhombic'
loop_
_space_group_symop_operation_xyz
x,y,z
-x,-y,z
x,-y,-z
-x,y,-z
-x,-y,-z
x,y,-z
-x,y,z
x,-y,z
1/2+x,1/2+y,1/2+z
1/2-x,1/2-y,1/2+z
1/2+x,1/2-y,1/2-z
1/2-x,1/2+y,1/2-z
1/2-x,1/2-y,1/2-z
1/2+x,1/2+y,1/2-z
1/2-x,1/2+y,1/2+z
1/2+x,1/2-y,1/2+z
loop_
_atom_site_type_symbol
_atom_site_label
_atom_site_fract_x
_atom_site_fract_y
_atom_site_fract_z
Si Si1 0.568754 0.334040 0.938441
Si Si2 0.665807 0.832141 0.245917
Si Si3 0.323295 0.830923 0.433393
Si Si4 0.565318 0.829464 0.171488
Si Si5 0.936571 0.834826 0.067984
Si Si6 0.232600 0.832469 0.160614
O O1 0.500000 0.327829 0.939053
O O2 0.584310 0.500000 0.932202
O O3 0.587027 0.243802 0.885251
O O4 0.587983 0.284147 0.000000
O O5 0.604121 0.792584 0.223965
O O6 0.707833 0.815441 0.192697
O O7 0.688123 0.735007 0.295658
O O8 0.667768 0.000000 0.261960
O O9 0.316267 0.806214 0.500000
O O10 0.384073 0.764034 0.415807
O O11 0.275876 0.752710 0.396725
O O12 0.322888 0.000000 0.423613
O O13 0.500000 0.789134 0.179915
O O14 0.568280 0.000000 0.164263
O O15 0.000000 0.791582 0.086632
O O16 0.927085 0.000000 0.084646
O O17 0.937689 0.832798 0.000000
O O18 0.222860 0.000000 0.151809
#
# Coordination Sequence:
#
# PCOD9521062 Si02
#       6
#    16  16  16  16  16  16
#     4   8  14  25  41  63  94 131 166 197 232 279
#     4   9  19  36  55  75  99 127 164 208 251 300
#     4  10  20  33  51  76 105 135 167 207 254 300
#     4   9  17  30  50  75 101 128 158 198 250 301
#     4   8  14  26  45  69  98 132 167 201 240 291
#     4  10  20  35  56  76  95 128 171 210 249 294
#
# _framework density 18.118552999999999
#
# number of rings (size 3 to 8) (size 9 to 14) (size 15 to 20)
#    0.000    3.000    0.000    2.000    0.000    3.000 
#    0.000    5.000    0.000    8.000    0.000    0.000 
#    0.000    0.000    0.000    0.000    0.000    0.000 
#
# Total GULP energy -267439.668202 kJ/mol
# GULP energy per Si atom -5571.659754 kJ/mol
# Density = 1.807731 g / cm^3
# Si number density = 18.118553 Si / 1000 Ang^3
#
#
#
# Elastic Constant Matrix: (Units=GPa)
#
#
# Indices 1 2 3 4 5 6 
#
# 1 31.5055 24.6024 24.7481 0.0000 0.0000 0.0000
# 2 24.6024 60.6457 35.6173 0.0000 0.0000 0.0000
# 3 24.7481 35.6173 47.6343 0.0000 0.0000 0.0000
# 4 0.0000 0.0000 0.0000 33.8457 0.0000 0.0000
# 5 0.0000 0.0000 0.0000 0.0000 19.9725 0.0000
# 6 0.0000 0.0000 0.0000 0.0000 0.0000 18.4661
#
#
#
# Elastic Compliance Matrix: (Units=1/GPa)
#
#
# Indices 1 2 3 4 5 6 
#
# 1 0.056965 -0.010212 -0.021960 0.000000 0.000000 0.000000
# 2 -0.010212 0.031231 -0.018046 0.000000 0.000000 0.000000
# 3 -0.021960 -0.018046 0.045896 0.000000 0.000000 0.000000
# 4 0.000000 0.000000 0.000000 0.029546 0.000000 0.000000
# 5 0.000000 0.000000 0.000000 0.000000 0.050069 0.000000
# 6 0.000000 0.000000 0.000000 0.000000 0.000000 0.054153
#
#
# Mechanical properties :
#
#
# Convention : Reuss Voigt Hill
#
# Bulk Modulus (GPa) = 29.71326 34.41345 32.06335
# Shear Modulus (GPa) = 13.17476 18.11140 15.64308
#
# Velocity S-wave (km/s) = 2.69948 3.16508 2.94151
# Velocity P-wave (km/s) = 5.11383 5.69137 5.41031
#
# Compressibility (1/GPa) = 0.03365501
#
# Stress axis : x y z
#
# Youngs Moduli (GPa) = 17.55469 32.01991 21.78842
#
# Poissons Ratio (x) = 0.32699 0.47847
# Poissons Ratio (y) = 0.17927 0.39320
# Poissons Ratio (z) = 0.38550 0.57784
#
# Static dielectric constant tensor:
#      x y z
#    x 1.647870 0.000000 0.000000 
#    y 0.000000 1.601430 0.000000 
#    z 0.000000 0.000000 1.629020 
# 
# From -- ./inp_files/12798.got.cif
#   From: 2010.05.17/outbox.cif.g08.bks.cpg/sg71_7_cif.got.tgz:12798.got - 2010.06.03 16:22:01.
