data_PCOD9521067
_publ_section_title
;
Structure prediction by ZEFSAII (Michael W. Deem and Ramdas Pophale) SiO2 
 PCOD9521067
Probable space group: I M M M
;
_chemical_formula_sum "Si O2"
_cell_formula_units_Z 104
_cell_length_a 7.624509
_cell_length_b 19.935827
_cell_length_c 32.399867
_cell_angle_alpha 90.000000
_cell_angle_beta 90.000000
_cell_angle_gamma 90.000000
_cell_volume 4924.808697
_symmetry_space_group_name_H-M "I M M M"
_symmetry_group_IT_number 71
_symmetry_cell_setting 'orthorhombic'
loop_
_space_group_symop_operation_xyz
x,y,z
-x,-y,z
x,-y,-z
-x,y,-z
-x,-y,-z
x,y,-z
-x,y,z
x,-y,z
1/2+x,1/2+y,1/2+z
1/2-x,1/2-y,1/2+z
1/2+x,1/2-y,1/2-z
1/2-x,1/2+y,1/2-z
1/2-x,1/2-y,1/2-z
1/2+x,1/2+y,1/2-z
1/2-x,1/2+y,1/2+z
1/2+x,1/2-y,1/2+z
loop_
_atom_site_type_symbol
_atom_site_label
_atom_site_fract_x
_atom_site_fract_y
_atom_site_fract_z
Si Si1 0.206956 0.575495 0.409660
Si Si2 0.284141 0.208531 0.873524
Si Si3 0.209102 0.424808 0.078182
Si Si4 0.294938 0.283515 0.955222
Si Si5 0.211093 0.925635 0.324891
Si Si6 0.289432 0.286631 0.207416
Si Si7 0.790831 0.077790 0.000000
O O1 0.283188 0.500000 0.407871
O O2 0.274603 0.631662 0.378664
O O3 0.228325 0.604466 0.456144
O O4 0.000000 0.569405 0.402540
O O5 0.500000 0.209632 0.873510
O O6 0.222453 0.248574 0.914155
O O7 0.225243 0.243929 0.831797
O O8 0.273377 0.500000 0.067789
O O9 0.283091 0.363313 0.052277
O O10 0.249371 0.413399 0.126717
O O11 0.000000 0.424225 0.072928
O O12 0.500000 0.265305 0.956624
O O13 0.216816 0.265993 0.000000
O O14 0.276275 0.862948 0.298142
O O15 0.000000 0.927769 0.321209
O O16 0.279102 0.000000 0.314293
O O17 0.500000 0.289845 0.203936
O O18 0.250000 0.250000 0.250000
O O19 0.000000 0.078884 0.000000
O O20 0.728709 0.000000 0.000000
#
# Coordination Sequence:
#
# PCOD9521067 Si02
#       7
#    16  16  16  16  16  16   8
#     4   9  17  30  51  75  98 132 177 217 256 306
#     4   9  18  34  54  76 104 134 170 219 265 304
#     4  10  20  33  51  76 108 142 174 216 266 310
#     4  10  20  34  53  75 101 140 184 220 258 308
#     4   9  17  33  58  81 103 137 180 220 256 304
#     4  10  20  36  57  81 108 137 171 214 265 315
#     4   9  17  29  45  69 103 137 170 211 256 303
#
# _framework density 21.117571000000002
#
# number of rings (size 3 to 8) (size 9 to 14) (size 15 to 20)
#    0.000    2.538    1.538    0.692    1.077    3.077 
#    0.000    3.846    0.000    0.923    0.000    0.000 
#    0.000    0.000    0.000    0.000    0.000    0.000 
#
# Total GULP energy -290179.367802 kJ/mol
# GULP energy per Si atom -5580.372458 kJ/mol
# Density = 2.106951 g / cm^3
# Si number density = 21.117571 Si / 1000 Ang^3
#
#
#
# Elastic Constant Matrix: (Units=GPa)
#
#
# Indices 1 2 3 4 5 6 
#
# 1 44.5785 6.2168 2.0850 0.0000 0.0000 0.0000
# 2 6.2168 139.0536 86.1349 0.0000 0.0000 0.0000
# 3 2.0850 86.1349 137.9853 0.0000 0.0000 0.0000
# 4 0.0000 0.0000 0.0000 29.4986 0.0000 0.0000
# 5 0.0000 0.0000 0.0000 0.0000 9.8124 0.0000
# 6 0.0000 0.0000 0.0000 0.0000 0.0000 3.0025
#
#
#
# Elastic Compliance Matrix: (Units=1/GPa)
#
#
# Indices 1 2 3 4 5 6 
#
# 1 0.022592 -0.001302 0.000471 0.000000 0.000000 0.000000
# 2 -0.001302 0.011800 -0.007347 0.000000 0.000000 0.000000
# 3 0.000471 -0.007347 0.011826 0.000000 0.000000 0.000000
# 4 0.000000 0.000000 0.000000 0.033900 0.000000 0.000000
# 5 0.000000 0.000000 0.000000 0.000000 0.101912 0.000000
# 6 0.000000 0.000000 0.000000 0.000000 0.000000 0.333052
#
#
# Mechanical properties :
#
#
# Convention : Reuss Voigt Hill
#
# Bulk Modulus (GPa) = 33.48518 56.72116 45.10317
# Shear Modulus (GPa) = 9.23547 23.60810 16.42178
#
# Velocity S-wave (km/s) = 2.09353 3.34718 2.79164
# Velocity P-wave (km/s) = 4.66206 6.46964 5.63875
#
# Compressibility (1/GPa) = 0.02986395
#
# Stress axis : x y z
#
# Youngs Moduli (GPa) = 44.26368 84.74305 84.55979
#
# Poissons Ratio (x) = 0.11034 -0.03986
# Poissons Ratio (y) = 0.05763 0.62122
# Poissons Ratio (z) = -0.02087 0.62257
#
# Static dielectric constant tensor:
#      x y z
#    x 2.001240 0.000000 0.000000 
#    y 0.000000 1.765880 0.000000 
#    z 0.000000 0.000000 1.733580 
# 
# From -- ./inp_files/68240.got.cif
#   From: 2010.05.17/outbox.cif.g08.bks.cpg/sg71_35_cif.got.tgz:68240.got - 2010.06.03 16:22:01.
