data_PCOD9521836
_publ_section_title
;
Structure prediction by ZEFSAII (Michael W. Deem and Ramdas Pophale) SiO2 
 PCOD9521836
Probable space group: I M M M
;
_chemical_formula_sum "Si O2"
_cell_formula_units_Z 80
_cell_length_a 18.940991
_cell_length_b 19.972205
_cell_length_c 11.674617
_cell_angle_alpha 90.000000
_cell_angle_beta 90.000000
_cell_angle_gamma 90.000000
_cell_volume 4416.430035
_symmetry_space_group_name_H-M "I M M M"
_symmetry_group_IT_number 71
_symmetry_cell_setting 'orthorhombic'
loop_
_space_group_symop_operation_xyz
x,y,z
-x,-y,z
x,-y,-z
-x,y,-z
-x,-y,-z
x,y,-z
-x,y,z
x,-y,z
1/2+x,1/2+y,1/2+z
1/2-x,1/2-y,1/2+z
1/2+x,1/2-y,1/2-z
1/2-x,1/2+y,1/2-z
1/2-x,1/2-y,1/2-z
1/2+x,1/2+y,1/2-z
1/2-x,1/2+y,1/2+z
1/2+x,1/2-y,1/2+z
loop_
_atom_site_type_symbol
_atom_site_label
_atom_site_fract_x
_atom_site_fract_y
_atom_site_fract_z
Si Si1 0.298425 0.425159 0.136322
Si Si2 0.646631 0.927178 0.254095
Si Si3 0.328423 0.279979 0.779774
Si Si4 0.081615 0.304219 0.871350
Si Si5 0.083349 0.723859 0.500000
Si Si6 0.374041 0.925160 0.000000
O O1 0.324767 0.500000 0.168776
O O2 0.215658 0.424226 0.167853
O O3 0.327197 0.359193 0.198073
O O4 0.307895 0.417561 0.000000
O O5 0.597438 0.866560 0.289172
O O6 0.612403 0.000000 0.270272
O O7 0.667486 0.922085 0.120194
O O8 0.250000 0.250000 0.750000
O O9 0.373514 0.257969 0.671003
O O10 0.370112 0.248123 0.889842
O O11 0.000000 0.287626 0.866832
O O12 0.101246 0.324054 0.000000
O O13 0.081246 0.642777 0.500000
O O14 0.000000 0.746731 0.500000
O O15 0.408308 0.000000 0.000000
#
# Coordination Sequence:
#
# PCOD9521836 Si02
#       6
#    16  16  16  16   8   8
#     4  10  20  37  61  89 119 154 198 252 307 359
#     4  10  20  35  56  83 120 160 200 244 295 357
#     4  12  23  38  64  90 121 157 205 248 304 368
#     4  11  24  40  59  85 119 156 200 249 299 360
#     4  12  24  39  61  92 125 162 206 259 317 369
#     4  10  20  35  54  83 123 169 206 236 291 366
#
# _framework density 18.114179
#
# number of rings (size 3 to 8) (size 9 to 14) (size 15 to 20)
#    0.000    1.200    5.000    1.200    1.400    1.800 
#    1.800    3.000    0.000    3.000    0.000    1.400 
#    0.000    0.000    0.000    0.000    0.000    0.000 
#
# Total GULP energy -222776.255801 kJ/mol
# GULP energy per Si atom -5569.406395 kJ/mol
# Density = 1.807295 g / cm^3
# Si number density = 18.114179 Si / 1000 Ang^3
#
#
#
# Elastic Constant Matrix: (Units=GPa)
#
#
# Indices 1 2 3 4 5 6 
#
# 1 58.4324 45.5033 35.8194 0.0000 0.0000 0.0000
# 2 45.5033 154.6226 33.5787 0.0000 0.0000 0.0000
# 3 35.8194 33.5787 69.6864 0.0000 0.0000 0.0000
# 4 0.0000 0.0000 0.0000 30.1769 0.0000 0.0000
# 5 0.0000 0.0000 0.0000 0.0000 20.2088 0.0000
# 6 0.0000 0.0000 0.0000 0.0000 0.0000 13.7266
#
#
#
# Elastic Compliance Matrix: (Units=1/GPa)
#
#
# Indices 1 2 3 4 5 6 
#
# 1 0.029189 -0.005955 -0.012134 0.000000 0.000000 0.000000
# 2 -0.005955 0.008438 -0.001005 0.000000 0.000000 0.000000
# 3 -0.012134 -0.001005 0.021071 0.000000 0.000000 0.000000
# 4 0.000000 0.000000 0.000000 0.033138 0.000000 0.000000
# 5 0.000000 0.000000 0.000000 0.000000 0.049483 0.000000
# 6 0.000000 0.000000 0.000000 0.000000 0.000000 0.072851
#
#
# Mechanical properties :
#
#
# Convention : Reuss Voigt Hill
#
# Bulk Modulus (GPa) = 48.75542 56.94934 52.85238
# Shear Modulus (GPa) = 19.29039 24.01180 21.65109
#
# Velocity S-wave (km/s) = 3.26687 3.64480 3.46100
# Velocity P-wave (km/s) = 6.41903 7.01571 6.72399
#
# Compressibility (1/GPa) = 0.02051054
#
# Stress axis : x y z
#
# Youngs Moduli (GPa) = 34.25899 118.51057 47.45781
#
# Poissons Ratio (x) = 0.70572 0.57586
# Poissons Ratio (y) = 0.20401 0.04770
# Poissons Ratio (z) = 0.41571 0.11911
#
# Static dielectric constant tensor:
#      x y z
#    x 1.606870 0.000000 0.000000 
#    y 0.000000 1.658960 0.000000 
#    z 0.000000 0.000000 1.646210 
# 
# From -- ./inp_files/23816.got.cif
#   From: 2010.05.17/outbox.cif.g08.bks.cpg/sg71_12_cif.got.tgz:23816.got - 2010.06.03 16:22:01.
