data_PCOD9521861
_publ_section_title
;
Structure prediction by ZEFSAII (Michael W. Deem and Ramdas Pophale) SiO2 
 PCOD9521861
Probable space group: I M M M
;
_chemical_formula_sum "Si O2"
_cell_formula_units_Z 72
_cell_length_a 33.318755
_cell_length_b 8.470517
_cell_length_c 13.584933
_cell_angle_alpha 90.000000
_cell_angle_beta 90.000000
_cell_angle_gamma 90.000000
_cell_volume 3834.035981
_symmetry_space_group_name_H-M "I M M M"
_symmetry_group_IT_number 71
_symmetry_cell_setting 'orthorhombic'
loop_
_space_group_symop_operation_xyz
x,y,z
-x,-y,z
x,-y,-z
-x,y,-z
-x,-y,-z
x,y,-z
-x,y,z
x,-y,z
1/2+x,1/2+y,1/2+z
1/2-x,1/2-y,1/2+z
1/2+x,1/2-y,1/2-z
1/2-x,1/2+y,1/2-z
1/2-x,1/2-y,1/2-z
1/2+x,1/2+y,1/2-z
1/2-x,1/2+y,1/2+z
1/2+x,1/2-y,1/2+z
loop_
_atom_site_type_symbol
_atom_site_label
_atom_site_fract_x
_atom_site_fract_y
_atom_site_fract_z
Si Si1 0.292870 0.820321 0.220895
Si Si2 0.500000 0.690239 0.616968
Si Si3 0.083357 0.688017 0.799609
Si Si4 0.868162 0.811255 0.387223
Si Si5 0.159202 0.820549 0.887752
O O1 0.250000 0.750000 0.250000
O O2 0.322491 0.732907 0.144436
O O3 0.317783 0.803980 0.321630
O O4 0.288032 0.000000 0.188872
O O5 0.500000 0.500000 0.621152
O O6 0.500000 0.735342 0.500000
O O7 0.538914 0.756450 0.673557
O O8 0.086682 0.500000 0.811251
O O9 0.101366 0.734517 0.692067
O O10 0.112722 0.779719 0.874503
O O11 0.875430 0.761511 0.500000
O O12 0.872614 0.000000 0.380998
O O13 0.166628 0.000000 0.851363
O O14 0.171593 0.812652 0.000000
#
# Coordination Sequence:
#
# PCOD9521861 Si02
#       5
#    16   8  16  16  16
#     4  11  22  36  55  79 110 144 182 231 279 328
#     4  11  23  39  60  85 116 153 189 228 276 331
#     4  11  22  36  57  85 116 146 181 228 276 329
#     4  10  21  39  62  84 110 148 191 233 279 334
#     4  10  20  35  55  78 107 143 180 219 267 325
#
# _framework density 18.779164999999999
#
# number of rings (size 3 to 8) (size 9 to 14) (size 15 to 20)
#    0.000    1.444    0.000    9.000    0.000    8.000 
#    0.000    0.556    0.000    3.333    0.000    0.000 
#    0.000    0.000    0.000    0.000    0.000    0.000 
#
# Total GULP energy -200878.879640 kJ/mol
# GULP energy per Si atom -5579.968879 kJ/mol
# Density = 1.873642 g / cm^3
# Si number density = 18.779165 Si / 1000 Ang^3
#
#
#
# Elastic Constant Matrix: (Units=GPa)
#
#
# Indices 1 2 3 4 5 6 
#
# 1 110.6414 4.1665 15.3651 0.0000 0.0000 0.0000
# 2 4.1665 80.1853 11.6656 0.0000 0.0000 0.0000
# 3 15.3651 11.6656 96.5159 0.0000 0.0000 0.0000
# 4 0.0000 0.0000 0.0000 7.6157 0.0000 0.0000
# 5 0.0000 0.0000 0.0000 0.0000 7.2457 0.0000
# 6 0.0000 0.0000 0.0000 0.0000 0.0000 33.5492
#
#
#
# Elastic Compliance Matrix: (Units=1/GPa)
#
#
# Indices 1 2 3 4 5 6 
#
# 1 0.009248 -0.000271 -0.001440 0.000000 0.000000 0.000000
# 2 -0.000271 0.012702 -0.001492 0.000000 0.000000 0.000000
# 3 -0.001440 -0.001492 0.010771 0.000000 0.000000 0.000000
# 4 0.000000 0.000000 0.000000 0.131307 0.000000 0.000000
# 5 0.000000 0.000000 0.000000 0.000000 0.138013 0.000000
# 6 0.000000 0.000000 0.000000 0.000000 0.000000 0.029807
#
#
# Mechanical properties :
#
#
# Convention : Reuss Voigt Hill
#
# Bulk Modulus (GPa) = 38.00035 38.85966 38.43000
# Shear Modulus (GPa) = 14.40817 26.75849 20.58333
#
# Velocity S-wave (km/s) = 2.77292 3.77888 3.31429
# Velocity P-wave (km/s) = 5.52552 6.30697 5.92913
#
# Compressibility (1/GPa) = 0.02631555
#
# Stress axis : x y z
#
# Youngs Moduli (GPa) = 108.12765 78.72598 92.84614
#
# Poissons Ratio (x) = 0.02134 0.13366
# Poissons Ratio (y) = 0.02932 0.13854
# Poissons Ratio (z) = 0.15565 0.11747
#
# Static dielectric constant tensor:
#      x y z
#    x 1.698270 0.000000 0.000000 
#    y 0.000000 1.645150 0.000000 
#    z 0.000000 0.000000 1.656590 
# 
# From -- ./inp_files/40692.got.cif
#   From: 2010.05.17/outbox.cif.g08.bks.cpg/sg71_21_cif.got.tgz:40692.got - 2010.06.03 16:22:01.
