data_PCOD9521479
_publ_section_title
;
Structure prediction by ZEFSAII (Michael W. Deem and Ramdas Pophale) SiO2 
 PCOD9521479
Probable space group: I M M M
;
_chemical_formula_sum "Si O2"
_cell_formula_units_Z 72
_cell_length_a 7.504561
_cell_length_b 22.880479
_cell_length_c 19.432337
_cell_angle_alpha 90.000000
_cell_angle_beta 90.000000
_cell_angle_gamma 90.000000
_cell_volume 3336.686757
_symmetry_space_group_name_H-M "I M M M"
_symmetry_group_IT_number 71
_symmetry_cell_setting 'orthorhombic'
loop_
_space_group_symop_operation_xyz
x,y,z
-x,-y,z
x,-y,-z
-x,y,-z
-x,-y,-z
x,y,-z
-x,y,z
x,-y,z
1/2+x,1/2+y,1/2+z
1/2-x,1/2-y,1/2+z
1/2+x,1/2-y,1/2-z
1/2-x,1/2+y,1/2-z
1/2-x,1/2-y,1/2-z
1/2+x,1/2+y,1/2-z
1/2-x,1/2+y,1/2+z
1/2+x,1/2-y,1/2+z
loop_
_atom_site_type_symbol
_atom_site_label
_atom_site_fract_x
_atom_site_fract_y
_atom_site_fract_z
Si Si1 0.500000 0.066195 0.581680
Si Si2 0.705648 0.641821 0.846250
Si Si3 0.215782 0.254587 0.577481
Si Si4 0.717501 0.888820 0.076468
Si Si5 0.784124 0.564573 0.279006
O O1 0.500000 0.066288 0.500000
O O2 0.671719 0.099157 0.609828
O O3 0.500000 0.000000 0.607587
O O4 0.500000 0.637542 0.867031
O O5 0.767353 0.707559 0.864914
O O6 0.722517 0.617776 0.768930
O O7 0.270109 0.235345 0.500000
O O8 0.274639 0.321316 0.586976
O O9 0.000000 0.257093 0.577629
O O10 0.500000 0.889655 0.075951
O O11 0.773072 0.925672 0.142310
O O12 0.774549 0.907707 0.000000
O O13 0.725926 0.500000 0.254918
O O14 0.000000 0.565567 0.276879
#
# Coordination Sequence:
#
# PCOD9521479 Si02
#       5
#     8  16  16  16  16
#     4  11  24  40  58  84 117 151 194 244 285 330
#     4  11  22  37  59  85 114 155 194 234 283 345
#     4   8  15  30  53  81 111 144 187 236 287 342
#     4   8  15  30  54  83 113 147 189 240 294 347
#     4  10  20  34  53  80 116 154 194 239 287 340
#
# _framework density 21.578292000000001
#
# number of rings (size 3 to 8) (size 9 to 14) (size 15 to 20)
#    0.000    2.556    1.111    2.667    0.000    4.444 
#    0.000    3.333    2.444    0.667    0.000    1.556 
#    0.000    0.000    0.000    0.000    0.000    0.000 
#
# Total GULP energy -200952.717201 kJ/mol
# GULP energy per Si atom -5582.019922 kJ/mol
# Density = 2.152918 g / cm^3
# Si number density = 21.578292 Si / 1000 Ang^3
#
#
#
# Elastic Constant Matrix: (Units=GPa)
#
#
# Indices 1 2 3 4 5 6 
#
# 1 74.6156 -1.7895 -2.2057 0.0000 0.0000 0.0000
# 2 -1.7895 40.5469 24.1923 0.0000 0.0000 0.0000
# 3 -2.2057 24.1923 100.4620 0.0000 0.0000 0.0000
# 4 0.0000 0.0000 0.0000 44.8553 0.0000 0.0000
# 5 0.0000 0.0000 0.0000 0.0000 -0.2027 0.0000
# 6 0.0000 0.0000 0.0000 0.0000 0.0000 12.4123
#
#
#
# Elastic Compliance Matrix: (Units=1/GPa)
#
#
# Indices 1 2 3 4 5 6 
#
# 1 0.013419 0.000486 0.000178 0.000000 0.000000 0.000000
# 2 0.000486 0.028818 -0.006929 0.000000 0.000000 0.000000
# 3 0.000178 -0.006929 0.011627 0.000000 0.000000 0.000000
# 4 0.000000 0.000000 0.000000 0.022294 0.000000 0.000000
# 5 0.000000 0.000000 0.000000 0.000000 -4.934286 -0.000001
# 6 0.000000 0.000000 0.000000 0.000000 -0.000001 0.080565
#
#
# Mechanical properties :
#
#
# Convention : Reuss Voigt Hill
#
# Bulk Modulus (GPa) = 24.19355 28.44654 26.32004
# Shear Modulus (GPa) = -1.05235 24.44148 11.69456
#
# Velocity S-wave (km/s) = -0.69911 3.36919 2.33053
# Velocity P-wave (km/s) = 3.25341 5.32418 4.41200
#
# Compressibility (1/GPa) = 0.04133333
#
# Stress axis : x y z
#
# Youngs Moduli (GPa) = 74.52160 34.69995 86.01031
#
# Poissons Ratio (x) = -0.01687 -0.01527
# Poissons Ratio (y) = -0.03624 0.59598
# Poissons Ratio (z) = -0.01323 0.24044
#
# Static dielectric constant tensor:
#      x y z
#    x 1.815740 0.000000 0.000000 
#    y 0.000000 1.765410 0.000000 
#    z 0.000000 0.000000 1.789190 
# 
# From -- ./inp_files/12196.got.cif
#   From: 2010.05.17/outbox.cif.g08.bks.cpg/sg71_7_cif.got.tgz:12196.got - 2010.06.03 16:22:01.
