data_PCOD9521765
_publ_section_title
;
Structure prediction by ZEFSAII (Michael W. Deem and Ramdas Pophale) SiO2 
 PCOD9521765
Probable space group: I M M M
;
_chemical_formula_sum "Si O2"
_cell_formula_units_Z 80
_cell_length_a 11.087960
_cell_length_b 11.744936
_cell_length_c 30.376368
_cell_angle_alpha 90.000000
_cell_angle_beta 90.000000
_cell_angle_gamma 90.000000
_cell_volume 3955.834836
_symmetry_space_group_name_H-M "I M M M"
_symmetry_group_IT_number 71
_symmetry_cell_setting 'orthorhombic'
loop_
_space_group_symop_operation_xyz
x,y,z
-x,-y,z
x,-y,-z
-x,y,-z
-x,-y,-z
x,y,-z
-x,y,z
x,-y,z
1/2+x,1/2+y,1/2+z
1/2-x,1/2-y,1/2+z
1/2+x,1/2-y,1/2-z
1/2-x,1/2+y,1/2-z
1/2-x,1/2-y,1/2-z
1/2+x,1/2+y,1/2-z
1/2-x,1/2+y,1/2+z
1/2+x,1/2-y,1/2+z
loop_
_atom_site_type_symbol
_atom_site_label
_atom_site_fract_x
_atom_site_fract_y
_atom_site_fract_z
Si Si1 0.129197 0.254822 0.550704
Si Si2 0.630583 0.634704 0.446557
Si Si3 0.368949 0.500000 0.076526
Si Si4 0.630943 0.000000 0.366377
Si Si5 0.367405 0.775635 0.306791
Si Si6 0.364928 0.136486 0.205679
O O1 0.127160 0.294833 0.500000
O O2 0.251363 0.302985 0.571148
O O3 0.000000 0.288844 0.570997
O O4 0.133705 0.118205 0.550490
O O5 0.628510 0.648741 0.500000
O O6 0.500000 0.676403 0.430068
O O7 0.639428 0.500000 0.438251
O O8 0.500000 0.500000 0.100529
O O9 0.249358 0.500000 0.104752
O O10 0.635937 0.887440 0.336710
O O11 0.500000 0.000000 0.389896
O O12 0.500000 0.719678 0.312598
O O13 0.362673 0.821552 0.256509
O O14 0.251327 0.697078 0.315425
O O15 0.500000 0.166376 0.188471
O O16 0.353049 0.000000 0.204115
#
# Coordination Sequence:
#
# PCOD9521765 Si02
#       6
#    16  16   8   8  16  16
#     4   9  17  30  48  69  94 123 155 195 243 289
#     4   8  14  25  42  66  95 121 144 179 229 279
#     4  10  21  34  48  68  94 124 160 200 238 284
#     4  10  20  35  51  67  94 130 162 194 236 284
#     4   9  17  30  47  68  96 127 156 189 229 274
#     4   9  16  28  47  72 100 125 152 189 233 275
#
# _framework density 20.223291
#
# number of rings (size 3 to 8) (size 9 to 14) (size 15 to 20)
#    0.000    3.000    1.000    0.900    0.000    3.600 
#    0.000    2.000    0.000    4.200    0.000    0.000 
#    0.000    0.000    0.000    0.000    0.000    0.000 
#
# Total GULP energy -222797.896868 kJ/mol
# GULP energy per Si atom -5569.947422 kJ/mol
# Density = 2.017726 g / cm^3
# Si number density = 20.223291 Si / 1000 Ang^3
#
#
#
# Elastic Constant Matrix: (Units=GPa)
#
#
# Indices 1 2 3 4 5 6 
#
# 1 274.1023 84.8055 27.8428 0.0000 0.0000 0.0000
# 2 84.8055 61.7270 -5.3359 0.0000 0.0000 0.0000
# 3 27.8428 -5.3359 27.2900 0.0000 0.0000 0.0000
# 4 0.0000 0.0000 0.0000 10.9456 0.0000 0.0000
# 5 0.0000 0.0000 0.0000 0.0000 10.4926 0.0000
# 6 0.0000 0.0000 0.0000 0.0000 0.0000 40.1852
#
#
#
# Elastic Compliance Matrix: (Units=1/GPa)
#
#
# Indices 1 2 3 4 5 6 
#
# 1 0.008971 -0.013341 -0.011761 0.000000 0.000000 0.000000
# 2 -0.013341 0.036320 0.020713 0.000000 0.000000 0.000000
# 3 -0.011761 0.020713 0.052693 0.000000 0.000000 0.000000
# 4 0.000000 0.000000 0.000000 0.091361 0.000000 0.000000
# 5 0.000000 0.000000 0.000000 0.000000 0.095305 0.000000
# 6 0.000000 0.000000 0.000000 0.000000 0.000000 0.024885
#
#
# Mechanical properties :
#
#
# Convention : Reuss Voigt Hill
#
# Bulk Modulus (GPa) = 11.21011 64.19377 37.70194
# Shear Modulus (GPa) = 14.36586 29.37847 21.87217
#
# Velocity S-wave (km/s) = 2.66815 3.81557 3.29224
# Velocity P-wave (km/s) = 3.87908 7.15701 5.75631
#
# Compressibility (1/GPa) = 0.08920517
#
# Stress axis : x y z
#
# Youngs Moduli (GPa) = 111.47525 27.53299 18.97799
#
# Poissons Ratio (x) = 0.36732 0.22320
# Poissons Ratio (y) = 1.48721 -0.39309
# Poissons Ratio (z) = 1.31105 -0.57029
#
# Static dielectric constant tensor:
#      x y z
#    x 1.795570 0.000000 0.000000 
#    y 0.000000 1.691870 0.000000 
#    z 0.000000 0.000000 1.702020 
# 
# From -- ./inp_files/69013.got.cif
#   From: 2010.05.17/outbox.cif.g08.bks.cpg/sg71_35_cif.got.tgz:69013.got - 2010.06.03 16:22:01.
