data_PCOD9521956
_publ_section_title
;
Structure prediction by ZEFSAII (Michael W. Deem and Ramdas Pophale) SiO2 
 PCOD9521956
Probable space group: I M M M
;
_chemical_formula_sum "Si O2"
_cell_formula_units_Z 88
_cell_length_a 8.523098
_cell_length_b 17.679946
_cell_length_c 29.726044
_cell_angle_alpha 90.000000
_cell_angle_beta 90.000000
_cell_angle_gamma 90.000000
_cell_volume 4479.355514
_symmetry_space_group_name_H-M "I M M M"
_symmetry_group_IT_number 71
_symmetry_cell_setting 'orthorhombic'
loop_
_space_group_symop_operation_xyz
x,y,z
-x,-y,z
x,-y,-z
-x,y,-z
-x,-y,-z
x,y,-z
-x,y,z
x,-y,z
1/2+x,1/2+y,1/2+z
1/2-x,1/2-y,1/2+z
1/2+x,1/2-y,1/2-z
1/2-x,1/2+y,1/2-z
1/2-x,1/2-y,1/2-z
1/2+x,1/2+y,1/2-z
1/2-x,1/2+y,1/2+z
1/2+x,1/2-y,1/2+z
loop_
_atom_site_type_symbol
_atom_site_label
_atom_site_fract_x
_atom_site_fract_y
_atom_site_fract_z
Si Si1 0.182730 0.165609 0.947222
Si Si2 0.317500 0.500000 0.574828
Si Si3 0.684523 0.640811 0.281554
Si Si4 0.314651 0.679876 0.085045
Si Si5 0.312778 0.913017 0.500000
Si Si6 0.321704 0.000000 0.830197
Si Si7 0.188401 0.797786 0.683768
O O1 0.275514 0.231683 0.922739
O O2 0.000000 0.166247 0.931763
O O3 0.247421 0.080643 0.941294
O O4 0.183543 0.183574 0.000000
O O5 0.500000 0.500000 0.560280
O O6 0.296775 0.500000 0.628079
O O7 0.500000 0.624042 0.287054
O O8 0.787210 0.573860 0.301202
O O9 0.726087 0.718287 0.307404
O O10 0.717013 0.653869 0.228687
O O11 0.500000 0.667981 0.081906
O O12 0.239190 0.631342 0.045025
O O13 0.263827 0.664526 0.136555
O O14 0.500000 0.914505 0.500000
O O15 0.254104 0.000000 0.500000
O O16 0.500000 0.000000 0.847162
O O17 0.000000 0.783798 0.681630
#
# Coordination Sequence:
#
# PCOD9521956 Si02
#       7
#    16   8  16  16   8   8  16
#     4  10  20  35  56  83 119 157 196 240 281 332
#     4  10  21  36  56  84 116 160 206 240 284 337
#     4  10  20  37  60  84 115 154 194 235 283 343
#     4  11  22  38  62  90 118 151 190 235 292 353
#     4  11  25  45  65  86 115 148 189 243 294 347
#     4  12  24  37  53  79 116 153 191 242 289 334
#     4   9  20  38  60  88 118 148 187 236 286 342
#
# _framework density 19.645682999999998
#
# number of rings (size 3 to 8) (size 9 to 14) (size 15 to 20)
#    0.000    1.727    0.909    3.545    0.000    7.636 
#    1.636    0.000    0.000    1.636    0.000    0.000 
#    0.000    0.000    0.000    0.000    0.000    0.000 
#
# Total GULP energy -245691.879517 kJ/mol
# GULP energy per Si atom -5583.906353 kJ/mol
# Density = 1.960097 g / cm^3
# Si number density = 19.645683 Si / 1000 Ang^3
#
#
#
# Elastic Constant Matrix: (Units=GPa)
#
#
# Indices 1 2 3 4 5 6 
#
# 1 18.8248 2.1027 17.4470 0.0000 0.0000 0.0000
# 2 2.1027 42.2280 20.8029 0.0000 0.0000 0.0000
# 3 17.4470 20.8029 121.7902 0.0000 0.0000 0.0000
# 4 0.0000 0.0000 0.0000 12.1693 0.0000 0.0000
# 5 0.0000 0.0000 0.0000 0.0000 19.5643 0.0000
# 6 0.0000 0.0000 0.0000 0.0000 0.0000 7.1432
#
#
#
# Elastic Compliance Matrix: (Units=1/GPa)
#
#
# Indices 1 2 3 4 5 6 
#
# 1 0.061329 0.001391 -0.009023 0.000000 0.000000 0.000000
# 2 0.001391 0.025888 -0.004621 0.000000 0.000000 0.000000
# 3 -0.009023 -0.004621 0.010293 0.000000 0.000000 0.000000
# 4 0.000000 0.000000 0.000000 0.082174 0.000000 0.000000
# 5 0.000000 0.000000 0.000000 0.000000 0.051113 0.000000
# 6 0.000000 0.000000 0.000000 0.000000 0.000000 0.139993
#
#
# Mechanical properties :
#
#
# Convention : Reuss Voigt Hill
#
# Bulk Modulus (GPa) = 13.69796 29.28313 21.49054
# Shear Modulus (GPa) = 11.91523 17.27473 14.59498
#
# Velocity S-wave (km/s) = 2.46541 2.96854 2.72860
# Velocity P-wave (km/s) = 3.88484 5.16601 4.57053
#
# Compressibility (1/GPa) = 0.07300358
#
# Stress axis : x y z
#
# Youngs Moduli (GPa) = 16.30553 38.62749 97.15506
#
# Poissons Ratio (x) = -0.05374 0.87666
# Poissons Ratio (y) = -0.02269 0.44898
# Poissons Ratio (z) = 0.14713 0.17851
#
# Static dielectric constant tensor:
#      x y z
#    x 1.678360 0.000000 0.000000 
#    y 0.000000 1.676850 0.000000 
#    z 0.000000 0.000000 1.701240 
# 
# From -- ./inp_files/68072.got.cif
#   From: 2010.05.17/outbox.cif.g08.bks.cpg/sg71_35_cif.got.tgz:68072.got - 2010.06.03 16:22:01.
