data_PCOD9521318
_publ_section_title
;
Structure prediction by ZEFSAII (Michael W. Deem and Ramdas Pophale) SiO2 
 PCOD9521318
Probable space group: I M M M
;
_chemical_formula_sum "Si O2"
_cell_formula_units_Z 120
_cell_length_a 28.933521
_cell_length_b 8.752748
_cell_length_c 28.361971
_cell_angle_alpha 90.000000
_cell_angle_beta 90.000000
_cell_angle_gamma 90.000000
_cell_volume 7182.607272
_symmetry_space_group_name_H-M "I M M M"
_symmetry_group_IT_number 71
_symmetry_cell_setting 'orthorhombic'
loop_
_space_group_symop_operation_xyz
x,y,z
-x,-y,z
x,-y,-z
-x,y,-z
-x,-y,-z
x,y,-z
-x,y,z
x,-y,z
1/2+x,1/2+y,1/2+z
1/2-x,1/2-y,1/2+z
1/2+x,1/2-y,1/2-z
1/2-x,1/2+y,1/2-z
1/2-x,1/2-y,1/2-z
1/2+x,1/2+y,1/2-z
1/2-x,1/2+y,1/2+z
1/2+x,1/2-y,1/2+z
loop_
_atom_site_type_symbol
_atom_site_label
_atom_site_fract_x
_atom_site_fract_y
_atom_site_fract_z
Si Si1 0.714945 0.820713 0.555488
Si Si2 0.791818 0.824312 0.308723
Si Si3 0.093994 0.316813 0.444907
Si Si4 0.553402 0.685915 0.553981
Si Si5 0.817802 0.677741 0.787341
Si Si6 0.807745 0.679850 0.406050
Si Si7 0.500000 0.681273 0.944434
Si Si8 0.136978 0.182461 0.121045
O O1 0.706768 0.798544 0.500000
O O2 0.766578 0.769270 0.568484
O O3 0.679141 0.724407 0.586284
O O4 0.709145 0.000000 0.566911
O O5 0.817129 0.774570 0.260741
O O6 0.736156 0.814864 0.303054
O O7 0.803998 0.711638 0.350788
O O8 0.802885 0.000000 0.320536
O O9 0.096684 0.274837 0.500000
O O10 0.090572 0.500000 0.441715
O O11 0.141819 0.267549 0.422095
O O12 0.047474 0.245890 0.423997
O O13 0.565542 0.733900 0.500000
O O14 0.500000 0.731603 0.563073
O O15 0.554291 0.500000 0.553835
O O16 0.590456 0.734951 0.593411
O O17 0.828381 0.500000 0.778157
O O18 0.850261 0.741156 0.828944
O O19 0.802919 0.500000 0.416742
O O20 0.500000 0.500000 0.942461
O O21 0.500000 0.728792 0.000000
O O22 0.134555 0.000000 0.127444
#
# Coordination Sequence:
#
# PCOD9521318 Si02
#       8
#    16  16  16  16  16  16   8  16
#     4  11  23  35  46  66 102 143 175 206 246 293
#     4  10  20  34  52  73 101 133 167 207 251 296
#     4   9  18  32  49  70  98 132 167 203 243 290
#     4   8  15  29  49  75 106 137 172 215 259 303
#     4  10  20  34  52  73 101 132 166 207 252 297
#     4  11  21  33  51  74 101 133 170 206 249 301
#     4   9  17  29  47  71  95 123 163 207 245 281
#     4  11  20  31  52  78 102 132 172 213 257 307
#
# _framework density 16.707025000000002
#
# number of rings (size 3 to 8) (size 9 to 14) (size 15 to 20)
#    0.000    2.067    1.333    3.400    0.000    5.067 
#    0.000    1.333    0.000    1.600    1.733    4.667 
#    0.000    0.000    0.000    0.000    0.000    0.000 
#
# Total GULP energy -334631.761789 kJ/mol
# GULP energy per Si atom -5577.196030 kJ/mol
# Density = 1.666900 g / cm^3
# Si number density = 16.707025 Si / 1000 Ang^3
#
#
#
# Elastic Constant Matrix: (Units=GPa)
#
#
# Indices 1 2 3 4 5 6 
#
# 1 54.5679 2.4078 -1.9400 0.0000 0.0000 0.0000
# 2 2.4078 21.9767 1.1744 0.0000 0.0000 0.0000
# 3 -1.9400 1.1744 26.6153 0.0000 0.0000 0.0000
# 4 0.0000 0.0000 0.0000 21.9409 0.0000 0.0000
# 5 0.0000 0.0000 0.0000 0.0000 -48.7188 0.0000
# 6 0.0000 0.0000 0.0000 0.0000 0.0000 4.7449
#
#
#
# Elastic Compliance Matrix: (Units=1/GPa)
#
#
# Indices 1 2 3 4 5 6 
#
# 1 0.018470 -0.002100 0.001439 0.000000 0.000000 0.000000
# 2 -0.002100 0.045849 -0.002176 0.000000 0.000000 0.000000
# 3 0.001439 -0.002176 0.037773 0.000000 0.000000 0.000000
# 4 0.000000 0.000000 0.000000 0.045577 0.000000 0.000000
# 5 0.000000 0.000000 0.000000 0.000000 -0.020526 0.000000
# 6 0.000000 0.000000 0.000000 0.000000 0.000000 0.210752
#
#
# Mechanical properties :
#
#
# Convention : Reuss Voigt Hill
#
# Bulk Modulus (GPa) = 10.37166 11.82714 11.09940
# Shear Modulus (GPa) = 13.30815 2.36126 7.83470
#
# Velocity S-wave (km/s) = 2.82540 1.19013 2.16787
# Velocity P-wave (km/s) = 4.10674 2.99717 3.59502
#
# Compressibility (1/GPa) = 0.09641663
#
# Stress axis : x y z
#
# Youngs Moduli (GPa) = 54.14291 21.81066 26.47371
#
# Poissons Ratio (x) = 0.04581 -0.03809
# Poissons Ratio (y) = 0.11372 0.05761
# Poissons Ratio (z) = -0.07791 0.04747
#
# Static dielectric constant tensor:
#      x y z
#    x 1.563090 0.000000 0.000000 
#    y 0.000000 1.557940 0.000000 
#    z 0.000000 0.000000 1.565700 
# 
# From -- ./inp_files/67152.got.cif
#   From: 2010.05.17/outbox.cif.g08.bks.cpg/sg71_34_cif.got.tgz:67152.got - 2010.06.03 16:22:01.
