data_PCOD9521656
_publ_section_title
;
Structure prediction by ZEFSAII (Michael W. Deem and Ramdas Pophale) SiO2 
 PCOD9521656
Probable space group: I M M M
;
_chemical_formula_sum "Si O2"
_cell_formula_units_Z 88
_cell_length_a 20.777234
_cell_length_b 17.406384
_cell_length_c 13.600296
_cell_angle_alpha 90.000000
_cell_angle_beta 90.000000
_cell_angle_gamma 90.000000
_cell_volume 4918.635633
_symmetry_space_group_name_H-M "I M M M"
_symmetry_group_IT_number 71
_symmetry_cell_setting 'orthorhombic'
loop_
_space_group_symop_operation_xyz
x,y,z
-x,-y,z
x,-y,-z
-x,y,-z
-x,-y,-z
x,y,-z
-x,y,z
x,-y,z
1/2+x,1/2+y,1/2+z
1/2-x,1/2-y,1/2+z
1/2+x,1/2-y,1/2-z
1/2-x,1/2+y,1/2-z
1/2-x,1/2-y,1/2-z
1/2+x,1/2+y,1/2-z
1/2-x,1/2+y,1/2+z
1/2+x,1/2-y,1/2+z
loop_
_atom_site_type_symbol
_atom_site_label
_atom_site_fract_x
_atom_site_fract_y
_atom_site_fract_z
Si Si1 0.238306 0.088540 0.117055
Si Si2 0.621305 0.687255 0.690653
Si Si3 0.500000 0.408988 0.617567
Si Si4 0.575029 0.246917 0.888846
Si Si5 0.577233 0.848999 0.388977
Si Si6 0.384478 0.914365 0.813768
O O1 0.187627 0.146902 0.163036
O O2 0.308786 0.095135 0.164160
O O3 0.216236 0.000000 0.130655
O O4 0.243528 0.101844 0.000000
O O5 0.563126 0.630633 0.662028
O O6 0.615201 0.710551 0.804794
O O7 0.609114 0.766119 0.631135
O O8 0.500000 0.500000 0.635306
O O9 0.500000 0.396109 0.500000
O O10 0.500000 0.268180 0.877198
O O11 0.580976 0.155864 0.868230
O O12 0.595547 0.263521 0.000000
O O13 0.590660 0.875142 0.500000
O O14 0.500000 0.839404 0.378880
O O15 0.600890 0.903558 0.301667
O O16 0.403624 0.000000 0.845788
#
# Coordination Sequence:
#
# PCOD9521656 Si02
#       6
#    16  16   8  16  16  16
#     4  10  21  36  55  80 111 144 178 223 275 323
#     4  11  19  35  55  80 111 143 177 223 272 325
#     4  11  20  30  53  85 110 137 175 219 269 321
#     4  10  21  37  57  80 106 141 182 226 274 321
#     4  10  20  34  55  83 114 147 180 222 274 323
#     4  10  21  37  54  77 109 144 183 226 272 321
#
# _framework density 17.891141000000001
#
# number of rings (size 3 to 8) (size 9 to 14) (size 15 to 20)
#    0.000    1.727    1.818    4.364    0.000    7.273 
#    0.000    4.545    0.000    3.818    0.000    0.000 
#    0.000    0.000    0.000    0.000    0.000    0.000 
#
# Total GULP energy -245712.259463 kJ/mol
# GULP energy per Si atom -5584.369533 kJ/mol
# Density = 1.785042 g / cm^3
# Si number density = 17.891141 Si / 1000 Ang^3
#
#
#
# Elastic Constant Matrix: (Units=GPa)
#
#
# Indices 1 2 3 4 5 6 
#
# 1 45.2257 16.9899 30.0643 0.0000 0.0000 0.0000
# 2 16.9899 59.6818 25.7126 0.0000 0.0000 0.0000
# 3 30.0643 25.7126 120.6097 0.0000 0.0000 0.0000
# 4 0.0000 0.0000 0.0000 0.9638 0.0000 0.0000
# 5 0.0000 0.0000 0.0000 0.0000 18.6902 0.0000
# 6 0.0000 0.0000 0.0000 0.0000 0.0000 -10.5268
#
#
#
# Elastic Compliance Matrix: (Units=1/GPa)
#
#
# Indices 1 2 3 4 5 6 
#
# 1 0.028038 -0.005473 -0.005822 0.000000 0.000000 0.000000
# 2 -0.005473 0.019519 -0.002797 0.000000 0.000000 0.000000
# 3 -0.005822 -0.002797 0.010339 0.000000 0.000000 0.000000
# 4 0.000000 0.000000 0.000000 1.037506 0.000000 0.000000
# 5 0.000000 0.000000 0.000000 0.000000 0.053504 0.000000
# 6 0.000000 0.000000 0.000000 0.000000 0.000000 -0.094996
#
#
# Mechanical properties :
#
#
# Convention : Reuss Voigt Hill
#
# Bulk Modulus (GPa) = 33.65802 41.22787 37.44295
# Shear Modulus (GPa) = 4.57877 12.00882 8.29379
#
# Velocity S-wave (km/s) = 1.60150 2.59359 2.15540
# Velocity P-wave (km/s) = 4.71945 5.66240 5.21229
#
# Compressibility (1/GPa) = 0.02971060
#
# Stress axis : x y z
#
# Youngs Moduli (GPa) = 35.66618 51.23323 96.72373
#
# Poissons Ratio (x) = 0.28042 0.56314
# Poissons Ratio (y) = 0.19521 0.27052
# Poissons Ratio (z) = 0.20765 0.14329
#
# Static dielectric constant tensor:
#      x y z
#    x 1.591890 0.000000 0.000000 
#    y 0.000000 1.605080 0.000000 
#    z 0.000000 0.000000 1.612660 
# 
# From -- ./inp_files/38002.got.cif
#   From: 2010.05.17/outbox.cif.g08.bks.cpg/sg71_20_cif.got.tgz:38002.got - 2010.06.03 16:22:01.
