data_PCOD9521546
_publ_section_title
;
Structure prediction by ZEFSAII (Michael W. Deem and Ramdas Pophale) SiO2 
 PCOD9521546
Probable space group: I M M M
;
_chemical_formula_sum "Si O2"
_cell_formula_units_Z 96
_cell_length_a 21.249397
_cell_length_b 27.386997
_cell_length_c 8.356131
_cell_angle_alpha 90.000000
_cell_angle_beta 90.000000
_cell_angle_gamma 90.000000
_cell_volume 4862.910365
_symmetry_space_group_name_H-M "I M M M"
_symmetry_group_IT_number 71
_symmetry_cell_setting 'orthorhombic'
loop_
_space_group_symop_operation_xyz
x,y,z
-x,-y,z
x,-y,-z
-x,y,-z
-x,-y,-z
x,y,-z
-x,y,z
x,-y,z
1/2+x,1/2+y,1/2+z
1/2-x,1/2-y,1/2+z
1/2+x,1/2-y,1/2-z
1/2-x,1/2+y,1/2-z
1/2-x,1/2-y,1/2-z
1/2+x,1/2+y,1/2-z
1/2-x,1/2+y,1/2+z
1/2+x,1/2-y,1/2+z
loop_
_atom_site_type_symbol
_atom_site_label
_atom_site_fract_x
_atom_site_fract_y
_atom_site_fract_z
Si Si1 0.906950 0.286128 0.319366
Si Si2 0.071741 0.823945 0.808863
Si Si3 0.313847 0.613291 0.182686
Si Si4 0.567735 0.888764 0.689651
Si Si5 0.761221 0.302509 0.679845
Si Si6 0.805404 0.556685 0.194864
O O1 0.932072 0.285968 0.500000
O O2 0.911459 0.230737 0.254393
O O3 0.934087 0.330370 0.216291
O O4 0.835346 0.303675 0.329917
O O5 0.121657 0.865693 0.757882
O O6 0.000000 0.834713 0.755417
O O7 0.072365 0.821189 0.000000
O O8 0.268566 0.660175 0.197135
O O9 0.264290 0.573744 0.254024
O O10 0.327955 0.599911 0.000000
O O11 0.568510 0.898360 0.500000
O O12 0.500000 0.907917 0.753790
O O13 0.633221 0.912622 0.752040
O O14 0.734520 0.309649 0.500000
O O15 0.750000 0.250000 0.750000
O O16 0.815253 0.500000 0.231490
O O17 0.802556 0.562224 0.000000
#
# Coordination Sequence:
#
# PCOD9521546 Si02
#       6
#    16  16  16  16  16  16
#     4  11  22  34  52  79 114 153 190 226 263 314
#     4  11  24  39  56  80 113 150 185 225 273 330
#     4  11  21  35  58  82 108 144 183 230 282 330
#     4  10  20  34  54  80 113 152 190 228 271 320
#     4  11  21  32  51  79 110 146 187 226 270 320
#     4   9  19  36  58  84 110 137 179 234 285 330
#
# _framework density 19.741264000000001
#
# number of rings (size 3 to 8) (size 9 to 14) (size 15 to 20)
#    0.000    1.500    3.333    2.500    0.000    5.333 
#    0.000    1.667    0.000    5.000    0.000    4.667 
#    0.000    0.000    0.000    0.000    0.000    0.000 
#
# Total GULP energy -267237.871531 kJ/mol
# GULP energy per Si atom -5567.455657 kJ/mol
# Density = 1.969633 g / cm^3
# Si number density = 19.741264 Si / 1000 Ang^3
#
#
#
# Elastic Constant Matrix: (Units=GPa)
#
#
# Indices 1 2 3 4 5 6 
#
# 1 156.3318 41.4919 18.2989 0.0000 0.0000 0.0000
# 2 41.4919 82.7904 4.0512 0.0000 0.0000 0.0000
# 3 18.2989 4.0512 26.3373 0.0000 0.0000 0.0000
# 4 0.0000 0.0000 0.0000 14.9340 0.0000 0.0000
# 5 0.0000 0.0000 0.0000 0.0000 14.4419 0.0000
# 6 0.0000 0.0000 0.0000 0.0000 0.0000 -6.6294
#
#
#
# Elastic Compliance Matrix: (Units=1/GPa)
#
#
# Indices 1 2 3 4 5 6 
#
# 1 0.007974 -0.003753 -0.004963 0.000000 0.000000 0.000000
# 2 -0.003753 0.013937 0.000464 0.000000 0.000000 0.000000
# 3 -0.004963 0.000464 0.041346 0.000000 0.000000 0.000000
# 4 0.000000 0.000000 0.000000 0.066961 0.000000 0.000000
# 5 0.000000 0.000000 0.000000 0.000000 0.069243 0.000000
# 6 0.000000 0.000000 0.000000 0.000000 0.000000 -0.150843
#
#
# Mechanical properties :
#
#
# Convention : Reuss Voigt Hill
#
# Bulk Modulus (GPa) = 21.38934 43.68263 32.53599
# Shear Modulus (GPa) = 61.95323 17.99046 39.97185
#
# Velocity S-wave (km/s) = 5.60810 3.02207 4.50464
# Velocity P-wave (km/s) = 7.26586 5.86113 6.60097
#
# Compressibility (1/GPa) = 0.04675225
#
# Stress axis : x y z
#
# Youngs Moduli (GPa) = 125.41202 71.75123 24.18634
#
# Poissons Ratio (x) = 0.26931 0.12003
# Poissons Ratio (y) = 0.47071 -0.01122
# Poissons Ratio (z) = 0.62239 -0.03329
#
# Static dielectric constant tensor:
#      x y z
#    x 1.790150 0.000000 0.000000 
#    y 0.000000 1.672170 0.000000 
#    z 0.000000 0.000000 1.704870 
# 
# From -- ./inp_files/10894.got.cif
#   From: 2010.05.17/outbox.cif.g08.bks.cpg/sg71_6_cif.got.tgz:10894.got - 2010.06.03 16:22:01.
