data_PCOD9521166
_publ_section_title
;
Structure prediction by ZEFSAII (Michael W. Deem and Ramdas Pophale) SiO2 
 PCOD9521166
Probable space group: I M M M
;
_chemical_formula_sum "Si O2"
_cell_formula_units_Z 104
_cell_length_a 8.914233
_cell_length_b 28.882000
_cell_length_c 24.645357
_cell_angle_alpha 90.000000
_cell_angle_beta 90.000000
_cell_angle_gamma 90.000000
_cell_volume 6345.215240
_symmetry_space_group_name_H-M "I M M M"
_symmetry_group_IT_number 71
_symmetry_cell_setting 'orthorhombic'
loop_
_space_group_symop_operation_xyz
x,y,z
-x,-y,z
x,-y,-z
-x,y,-z
-x,-y,-z
x,y,-z
-x,y,z
x,-y,z
1/2+x,1/2+y,1/2+z
1/2-x,1/2-y,1/2+z
1/2+x,1/2-y,1/2-z
1/2-x,1/2+y,1/2-z
1/2-x,1/2-y,1/2-z
1/2+x,1/2+y,1/2-z
1/2-x,1/2+y,1/2+z
1/2+x,1/2-y,1/2+z
loop_
_atom_site_type_symbol
_atom_site_label
_atom_site_fract_x
_atom_site_fract_y
_atom_site_fract_z
Si Si1 0.681464 0.824170 0.563686
Si Si2 0.179049 0.054040 0.853120
Si Si3 0.327608 0.279371 0.565788
Si Si4 0.178248 0.625116 0.436087
Si Si5 0.682262 0.500000 0.062089
Si Si6 0.179072 0.554678 0.763257
Si Si7 0.680405 0.591267 0.870988
O O1 0.722350 0.830188 0.500000
O O2 0.500000 0.826890 0.566787
O O3 0.724211 0.772032 0.581889
O O4 0.756325 0.863398 0.599762
O O5 0.240094 0.086986 0.900016
O O6 0.254927 0.066261 0.795695
O O7 0.000000 0.058254 0.848417
O O8 0.214852 0.000000 0.864412
O O9 0.329254 0.277985 0.500000
O O10 0.500000 0.286210 0.583568
O O11 0.229570 0.323419 0.581507
O O12 0.216844 0.619947 0.500000
O O13 0.000000 0.620535 0.430618
O O14 0.500000 0.500000 0.061036
O O15 0.728010 0.453766 0.093781
O O16 0.735441 0.500000 0.000000
O O17 0.212754 0.500000 0.772887
O O18 0.254173 0.583735 0.811120
O O19 0.000000 0.560410 0.763559
O O20 0.500000 0.592530 0.869277
#
# Coordination Sequence:
#
# PCOD9521166 Si02
#       7
#    16  16  16  16   8  16  16
#     4   9  18  32  49  72 102 134 171 215 261 306
#     4  10  21  36  55  78 104 135 172 209 246 295
#     4   8  15  30  51  72  98 134 172 209 249 298
#     4  10  20  33  52  80 111 139 167 202 247 298
#     4   9  18  30  43  65  99 135 168 207 256 303
#     4  10  20  35  54  73  97 130 172 216 258 302
#     4  11  20  31  49  71 100 135 173 215 257 307
#
# _framework density 16.390301999999998
#
# number of rings (size 3 to 8) (size 9 to 14) (size 15 to 20)
#    0.000    2.385    0.769    3.231    0.000    4.308 
#    0.000    3.077    0.000    2.769    0.000    0.000 
#    0.000    0.000    0.000    0.000    0.000    0.000 
#
# Total GULP energy -290032.417289 kJ/mol
# GULP energy per Si atom -5577.546486 kJ/mol
# Density = 1.635300 g / cm^3
# Si number density = 16.390302 Si / 1000 Ang^3
#
#
#
# Elastic Constant Matrix: (Units=GPa)
#
#
# Indices 1 2 3 4 5 6 
#
# 1 50.0150 51.0522 46.9937 0.0000 0.0000 0.0000
# 2 51.0522 122.2038 74.4162 0.0000 0.0000 0.0000
# 3 46.9937 74.4162 92.4947 0.0001 0.0000 0.0000
# 4 0.0000 0.0000 0.0001 5.6444 0.0000 0.0000
# 5 0.0000 0.0000 0.0000 0.0000 26.0733 0.0000
# 6 0.0000 0.0000 0.0000 0.0000 0.0000 28.1990
#
#
#
# Elastic Compliance Matrix: (Units=1/GPa)
#
#
# Indices 1 2 3 4 5 6 
#
# 1 0.042872 -0.009109 -0.014454 0.000000 0.000000 0.000000
# 2 -0.009109 0.017978 -0.009836 0.000000 0.000000 0.000000
# 3 -0.014454 -0.009836 0.026069 0.000000 0.000000 0.000000
# 4 0.000000 0.000000 0.000000 0.177167 0.000000 0.000000
# 5 0.000000 0.000000 0.000000 0.000000 0.038353 0.000000
# 6 0.000000 0.000000 0.000000 0.000000 0.000000 0.035462
#
#
# Mechanical properties :
#
#
# Convention : Reuss Voigt Hill
#
# Bulk Modulus (GPa) = 49.69804 67.73752 58.71778
# Shear Modulus (GPa) = 12.15341 18.13342 15.14341
#
# Velocity S-wave (km/s) = 2.72600 3.32979 3.04291
# Velocity P-wave (km/s) = 6.34788 7.49672 6.94609
#
# Compressibility (1/GPa) = 0.02012152
#
# Stress axis : x y z
#
# Youngs Moduli (GPa) = 23.32506 55.62259 38.36015
#
# Poissons Ratio (x) = 0.50666 0.55444
# Poissons Ratio (y) = 0.21247 0.37733
# Poissons Ratio (z) = 0.33713 0.54713
#
# Static dielectric constant tensor:
#      x y z
#    x 1.543100 0.000000 0.000000 
#    y 0.000000 1.546240 0.000000 
#    z 0.000000 0.000000 1.525860 
# 
# From -- ./inp_files/15250.got.cif
#   From: 2010.05.17/outbox.cif.g08.bks.cpg/sg71_8_cif.got.tgz:15250.got - 2010.06.03 16:22:01.
