data_PCOD9521082
_publ_section_title
;
Structure prediction by ZEFSAII (Michael W. Deem and Ramdas Pophale) SiO2 
 PCOD9521082
Probable space group: I M M M
;
_chemical_formula_sum "Si O2"
_cell_formula_units_Z 108
_cell_length_a 12.727523
_cell_length_b 21.100260
_cell_length_c 23.603257
_cell_angle_alpha 90.000000
_cell_angle_beta 90.000000
_cell_angle_gamma 90.000000
_cell_volume 6338.750130
_symmetry_space_group_name_H-M "I M M M"
_symmetry_group_IT_number 71
_symmetry_cell_setting 'orthorhombic'
loop_
_space_group_symop_operation_xyz
x,y,z
-x,-y,z
x,-y,-z
-x,y,-z
-x,-y,-z
x,y,-z
-x,y,z
x,-y,z
1/2+x,1/2+y,1/2+z
1/2-x,1/2-y,1/2+z
1/2+x,1/2-y,1/2-z
1/2-x,1/2+y,1/2-z
1/2-x,1/2-y,1/2-z
1/2+x,1/2+y,1/2-z
1/2-x,1/2+y,1/2+z
1/2+x,1/2-y,1/2+z
loop_
_atom_site_type_symbol
_atom_site_label
_atom_site_fract_x
_atom_site_fract_y
_atom_site_fract_z
Si Si1 0.376133 0.363337 0.389247
Si Si2 0.124106 0.381313 0.081720
Si Si3 0.328405 0.000000 0.500000
Si Si4 0.256131 0.745639 0.063750
Si Si5 0.277930 0.652727 0.269601
Si Si6 0.623922 0.740899 0.179733
Si Si7 0.382469 0.925659 0.291087
Si Si8 0.872625 0.000000 0.934512
O O1 0.500000 0.357206 0.401667
O O2 0.313155 0.307593 0.420865
O O3 0.354587 0.356476 0.322421
O O4 0.338937 0.433589 0.407124
O O5 0.183628 0.317123 0.065680
O O6 0.133725 0.390395 0.149280
O O7 0.000000 0.376739 0.068638
O O8 0.165449 0.443369 0.048986
O O9 0.340028 0.738160 0.114369
O O10 0.299143 0.751816 0.000000
O O11 0.339952 0.679581 0.215476
O O12 0.190587 0.703354 0.290466
O O13 0.209758 0.592698 0.251256
O O14 0.500000 0.750430 0.184561
O O15 0.500000 0.908803 0.269829
O O16 0.381819 0.000000 0.302813
O O17 0.000000 0.000000 0.931463
O O18 0.841723 0.000000 0.000000
#
# Coordination Sequence:
#
# PCOD9521082 Si02
#       8
#    16  16   4  16  16  16  16   8
#     4  10  21  35  54  82 110 140 180 225 275 328
#     4  11  20  31  49  77 111 142 176 219 271 323
#     4  12  21  32  50  78 115 150 175 214 278 322
#     4  11  22  35  54  81 106 142 186 226 268 319
#     4  10  20  35  56  80 106 142 177 225 277 331
#     4  10  21  37  55  78 108 142 179 225 279 326
#     4  10  20  33  51  77 108 141 178 221 268 326
#     4   9  18  34  53  73 106 146 174 211 269 328
#
# _framework density 17.038059000000001
#
# number of rings (size 3 to 8) (size 9 to 14) (size 15 to 20)
#    0.000    1.704    2.963    2.444    1.037    1.778 
#    0.000    0.000    0.000    0.000    0.000    0.519 
#    0.000    6.222    0.000    0.000    0.000    0.000 
#
# Total GULP energy -300615.227687 kJ/mol
# GULP energy per Si atom -5566.948661 kJ/mol
# Density = 1.699928 g / cm^3
# Si number density = 17.038059 Si / 1000 Ang^3
#
#
#
# Elastic Constant Matrix: (Units=GPa)
#
#
# Indices 1 2 3 4 5 6 
#
# 1 43.7541 24.4723 23.7486 0.0000 0.0000 0.0000
# 2 24.4723 94.4321 20.0900 0.0000 0.0000 0.0000
# 3 23.7486 20.0900 92.4082 0.0000 0.0000 0.0000
# 4 0.0000 0.0000 0.0000 25.8428 0.0000 0.0000
# 5 0.0000 0.0000 0.0000 0.0000 7.6544 0.0000
# 6 0.0000 0.0000 0.0000 0.0000 0.0000 17.7778
#
#
#
# Elastic Compliance Matrix: (Units=1/GPa)
#
#
# Indices 1 2 3 4 5 6 
#
# 1 0.029841 -0.006398 -0.006278 0.000000 0.000000 0.000000
# 2 -0.006398 0.012475 -0.001068 0.000000 0.000000 0.000000
# 3 -0.006278 -0.001068 0.012667 0.000000 0.000000 0.000000
# 4 0.000000 0.000000 0.000000 0.038696 0.000000 0.000000
# 5 0.000000 0.000000 0.000000 0.000000 0.130643 0.000000
# 6 0.000000 0.000000 0.000000 0.000000 0.000000 0.056250
#
#
# Mechanical properties :
#
#
# Convention : Reuss Voigt Hill
#
# Bulk Modulus (GPa) = 36.36967 40.80180 38.58573
# Shear Modulus (GPa) = 15.76173 21.07389 18.41781
#
# Velocity S-wave (km/s) = 3.04483 3.52073 3.29139
# Velocity P-wave (km/s) = 5.80980 6.36607 6.09429
#
# Compressibility (1/GPa) = 0.02749544
#
# Stress axis : x y z
#
# Youngs Moduli (GPa) = 33.51103 80.16173 78.94415
#
# Poissons Ratio (x) = 0.51285 0.49562
# Poissons Ratio (y) = 0.21439 0.08430
# Poissons Ratio (z) = 0.21039 0.08560
#
# Static dielectric constant tensor:
#      x y z
#    x 1.549850 0.000000 0.000000 
#    y 0.000000 1.573020 0.000000 
#    z 0.000000 0.000000 1.593860 
# 
# From -- ./inp_files/59077.got.cif
#   From: 2010.05.17/outbox.cif.g08.bks.cpg/sg71_30_cif.got.tgz:59077.got - 2010.06.03 16:22:01.
