data_PCOD9521341
_publ_section_title
;
Structure prediction by ZEFSAII (Michael W. Deem and Ramdas Pophale) SiO2 
 PCOD9521341
Probable space group: I M M M
;
_chemical_formula_sum "Si O2"
_cell_formula_units_Z 104
_cell_length_a 28.314749
_cell_length_b 7.503429
_cell_length_c 22.986496
_cell_angle_alpha 90.000000
_cell_angle_beta 90.000000
_cell_angle_gamma 90.000000
_cell_volume 4883.658273
_symmetry_space_group_name_H-M "I M M M"
_symmetry_group_IT_number 71
_symmetry_cell_setting 'orthorhombic'
loop_
_space_group_symop_operation_xyz
x,y,z
-x,-y,z
x,-y,-z
-x,y,-z
-x,-y,-z
x,y,-z
-x,y,z
x,-y,z
1/2+x,1/2+y,1/2+z
1/2-x,1/2-y,1/2+z
1/2+x,1/2-y,1/2-z
1/2-x,1/2+y,1/2-z
1/2-x,1/2-y,1/2-z
1/2+x,1/2+y,1/2-z
1/2-x,1/2+y,1/2+z
1/2+x,1/2-y,1/2+z
loop_
_atom_site_type_symbol
_atom_site_label
_atom_site_fract_x
_atom_site_fract_y
_atom_site_fract_z
Si Si1 0.778934 0.786052 0.809417
Si Si2 0.945452 0.782333 0.334349
Si Si3 0.123499 0.215548 0.565562
Si Si4 0.232959 0.709731 0.432013
Si Si5 0.052736 0.790175 0.122278
Si Si6 0.616790 0.281386 0.724630
Si Si7 0.946084 0.711072 0.000000
O O1 0.750000 0.750000 0.750000
O O2 0.759493 0.720190 0.872982
O O3 0.831110 0.721069 0.792145
O O4 0.780343 0.000000 0.815666
O O5 0.918595 0.725638 0.392689
O O6 0.909406 0.727413 0.283466
O O7 0.000000 0.723175 0.328120
O O8 0.947193 0.000000 0.333281
O O9 0.115095 0.275875 0.500000
O O10 0.176932 0.270804 0.581168
O O11 0.123772 0.000000 0.566855
O O12 0.240420 0.779052 0.500000
O O13 0.244136 0.500000 0.435515
O O14 0.083005 0.716306 0.173573
O O15 0.076621 0.768978 0.059771
O O16 0.000000 0.712785 0.119656
O O17 0.048228 0.000000 0.133019
O O18 0.618476 0.500000 0.725752
O O19 0.949072 0.500000 0.000000
O O20 0.000000 0.787165 0.000000
#
# Coordination Sequence:
#
# PCOD9521341 Si02
#       7
#    16  16  16  16  16  16   8
#     4  10  20  34  52  74  99 128 164 204 248 295
#     4   9  16  26  43  69 101 131 157 193 240 286
#     4   9  17  29  48  74 100 127 160 197 238 286
#     4   9  18  33  51  71  97 130 167 205 246 293
#     4   9  16  28  47  69  91 117 155 198 235 275
#     4   9  17  29  45  69  95 122 158 199 242 282
#     4   9  17  29  45  65  91 123 153 183 227 281
#
# _framework density 21.295511000000001
#
# number of rings (size 3 to 8) (size 9 to 14) (size 15 to 20)
#    0.000    2.846    0.000    1.615    0.000    4.923 
#    1.385    2.308    0.000    1.385    0.000    2.154 
#    0.000    0.000    0.000    0.000    0.000    0.000 
#
# Total GULP energy -289640.706332 kJ/mol
# GULP energy per Si atom -5570.013583 kJ/mol
# Density = 2.124704 g / cm^3
# Si number density = 21.295511 Si / 1000 Ang^3
#
#
#
# Elastic Constant Matrix: (Units=GPa)
#
#
# Indices 1 2 3 4 5 6 
#
# 1 142.1425 3.3590 113.3891 0.0000 0.0000 0.0000
# 2 3.3590 56.5316 1.6181 0.0000 0.0000 0.0000
# 3 113.3891 1.6181 180.5062 0.0000 0.0000 0.0000
# 4 0.0000 0.0000 0.0000 137.5495 0.0000 0.0000
# 5 0.0000 0.0000 0.0000 0.0000 37.7099 0.0000
# 6 0.0000 0.0000 0.0000 0.0000 0.0000 10.7188
#
#
#
# Elastic Compliance Matrix: (Units=1/GPa)
#
#
# Indices 1 2 3 4 5 6 
#
# 1 0.014121 -0.000585 -0.008865 0.000000 0.000000 0.000000
# 2 -0.000585 0.017718 0.000209 0.000000 0.000000 0.000000
# 3 -0.008865 0.000209 0.011107 0.000000 0.000000 0.000000
# 4 0.000000 0.000000 0.000000 0.007270 0.000000 0.000000
# 5 0.000000 0.000000 0.000000 0.000000 0.026518 0.000000
# 6 0.000000 0.000000 0.000000 0.000000 0.000000 0.093294
#
#
# Mechanical properties :
#
#
# Convention : Reuss Voigt Hill
#
# Bulk Modulus (GPa) = 40.87856 68.43475 54.65665
# Shear Modulus (GPa) = 25.42395 54.58326 40.00361
#
# Velocity S-wave (km/s) = 3.45898 5.06823 4.33887
# Velocity P-wave (km/s) = 5.93214 8.15198 7.12899
#
# Compressibility (1/GPa) = 0.02446270
#
# Stress axis : x y z
#
# Youngs Moduli (GPa) = 70.81751 56.43969 90.03421
#
# Poissons Ratio (x) = 0.03303 0.79816
# Poissons Ratio (y) = 0.04145 -0.01880
# Poissons Ratio (z) = 0.62780 -0.01179
#
# Static dielectric constant tensor:
#      x y z
#    x 1.693920 0.000000 0.000000 
#    y 0.000000 -10.177490 0.000000 
#    z 0.000000 0.000000 1.835480 
# 
# From -- ./inp_files/17043.got.cif
#   From: 2010.05.17/outbox.cif.g08.bks.cpg/sg71_9_cif.got.tgz:17043.got - 2010.06.03 16:22:01.
