data_PCOD9521903
_publ_section_title
;
Structure prediction by ZEFSAII (Michael W. Deem and Ramdas Pophale) SiO2 
 PCOD9521903
Probable space group: I M M M
;
_chemical_formula_sum "Si O2"
_cell_formula_units_Z 80
_cell_length_a 7.813435
_cell_length_b 17.252977
_cell_length_c 28.079204
_cell_angle_alpha 90.000000
_cell_angle_beta 90.000000
_cell_angle_gamma 90.000000
_cell_volume 3785.217498
_symmetry_space_group_name_H-M "I M M M"
_symmetry_group_IT_number 71
_symmetry_cell_setting 'orthorhombic'
loop_
_space_group_symop_operation_xyz
x,y,z
-x,-y,z
x,-y,-z
-x,y,-z
-x,-y,-z
x,y,-z
-x,y,z
x,-y,z
1/2+x,1/2+y,1/2+z
1/2-x,1/2-y,1/2+z
1/2+x,1/2-y,1/2-z
1/2-x,1/2+y,1/2-z
1/2-x,1/2-y,1/2-z
1/2+x,1/2+y,1/2-z
1/2-x,1/2+y,1/2+z
1/2+x,1/2-y,1/2+z
loop_
_atom_site_type_symbol
_atom_site_label
_atom_site_fract_x
_atom_site_fract_y
_atom_site_fract_z
Si Si1 0.294701 0.347528 0.368908
Si Si2 0.500000 0.150023 0.055439
Si Si3 0.807302 0.591285 0.109393
Si Si4 0.000000 0.835416 0.446927
Si Si5 0.299065 0.416231 0.268650
Si Si6 0.195393 0.297771 0.806086
O O1 0.500000 0.340938 0.381267
O O2 0.170279 0.367974 0.412877
O O3 0.277598 0.407565 0.325374
O O4 0.232512 0.267569 0.342239
O O5 0.500000 0.243163 0.052224
O O6 0.500000 0.121043 0.000000
O O7 0.780719 0.500000 0.108458
O O8 0.667277 0.633736 0.078731
O O9 0.793391 0.624100 0.162469
O O10 0.000000 0.609039 0.092677
O O11 0.000000 0.866653 0.500000
O O12 0.500000 0.420057 0.258191
O O13 0.222118 0.500000 0.253697
O O14 0.246438 0.334177 0.244720
O O15 0.000000 0.272365 0.800386
#
# Coordination Sequence:
#
# PCOD9521903 Si02
#       6
#    16   8  16   8  16  16
#     4  10  22  41  62  88 124 160 200 252 305 364
#     4  11  24  41  67  95 115 155 213 261 315 367
#     4  10  21  36  53  77 115 157 198 246 294 350
#     4  11  23  38  57  81 110 148 203 261 308 351
#     4  10  22  37  58  90 124 161 201 245 302 365
#     4  10  20  35  55  84 119 162 202 236 288 348
#
# _framework density 21.13485
#
# number of rings (size 3 to 8) (size 9 to 14) (size 15 to 20)
#    0.000    1.800    2.000    1.500    4.200    2.800 
#    0.000    3.000    0.000    1.200    0.000    2.800 
#    0.000    0.000    0.000    0.000    0.000    0.000 
#
# Total GULP energy -222884.029324 kJ/mol
# GULP energy per Si atom -5572.100733 kJ/mol
# Density = 2.108675 g / cm^3
# Si number density = 21.134850 Si / 1000 Ang^3
#
#
#
# Elastic Constant Matrix: (Units=GPa)
#
#
# Indices 1 2 3 4 5 6 
#
# 1 25.4064 -5.3633 24.0187 0.0000 0.0000 0.0000
# 2 -5.3633 43.5323 -10.0302 0.0000 0.0000 0.0000
# 3 24.0187 -10.0302 89.2191 0.0000 0.0000 0.0000
# 4 0.0000 0.0000 0.0000 294.1210 0.0000 0.0000
# 5 0.0000 0.0000 0.0000 0.0000 22.3097 0.0000
# 6 0.0000 0.0000 0.0000 0.0000 0.0000 15.4036
#
#
#
# Elastic Compliance Matrix: (Units=1/GPa)
#
#
# Indices 1 2 3 4 5 6 
#
# 1 0.053268 0.003345 -0.013964 0.000000 0.000000 0.000000
# 2 0.003345 0.023792 0.001774 0.000000 0.000000 0.000000
# 3 -0.013964 0.001774 0.015167 0.000000 0.000000 0.000000
# 4 0.000000 0.000000 0.000000 0.003400 0.000000 0.000000
# 5 0.000000 0.000000 0.000000 0.000000 0.044824 0.000000
# 6 0.000000 0.000000 0.000000 0.000000 0.000000 0.064920
#
#
# Mechanical properties :
#
#
# Convention : Reuss Voigt Hill
#
# Bulk Modulus (GPa) = 13.41599 19.48980 16.45289
# Shear Modulus (GPa) = 20.16896 76.33570 48.25233
#
# Velocity S-wave (km/s) = 3.09252 6.01638 4.78333
# Velocity P-wave (km/s) = 4.37186 7.58314 6.18940
#
# Compressibility (1/GPa) = 0.07453791
#
# Stress axis : x y z
#
# Youngs Moduli (GPa) = 18.77314 42.03025 65.93225
#
# Poissons Ratio (x) = -0.14060 0.92068
# Poissons Ratio (y) = -0.06280 -0.11698
# Poissons Ratio (z) = 0.26215 -0.07457
#
# Static dielectric constant tensor:
#      x y z
#    x 1.777140 0.000000 0.000000 
#    y 0.000000 1.866070 0.000000 
#    z 0.000000 0.000000 1.816270 
# 
# From -- ./inp_files/55445.got.cif
#   From: 2010.05.17/outbox.cif.g08.bks.cpg/sg71_28_cif.got.tgz:55445.got - 2010.06.03 16:22:01.
