data_PCOD9521033
_publ_section_title
;
Structure prediction by ZEFSAII (Michael W. Deem and Ramdas Pophale) SiO2 
 PCOD9521033
Probable space group: I M M M
;
_chemical_formula_sum "Si O2"
_cell_formula_units_Z 96
_cell_length_a 7.570797
_cell_length_b 20.389211
_cell_length_c 28.435451
_cell_angle_alpha 90.000000
_cell_angle_beta 90.000000
_cell_angle_gamma 90.000000
_cell_volume 4389.369508
_symmetry_space_group_name_H-M "I M M M"
_symmetry_group_IT_number 71
_symmetry_cell_setting 'orthorhombic'
loop_
_space_group_symop_operation_xyz
x,y,z
-x,-y,z
x,-y,-z
-x,y,-z
-x,-y,-z
x,y,-z
-x,y,z
x,-y,z
1/2+x,1/2+y,1/2+z
1/2-x,1/2-y,1/2+z
1/2+x,1/2-y,1/2-z
1/2-x,1/2+y,1/2-z
1/2-x,1/2-y,1/2-z
1/2+x,1/2+y,1/2-z
1/2-x,1/2+y,1/2+z
1/2+x,1/2-y,1/2+z
loop_
_atom_site_type_symbol
_atom_site_label
_atom_site_fract_x
_atom_site_fract_y
_atom_site_fract_z
Si Si1 0.294398 0.666122 0.051594
Si Si2 0.213239 0.573742 0.445631
Si Si3 0.206598 0.208039 0.896836
Si Si4 0.288033 0.701017 0.707270
Si Si5 0.784255 0.925638 0.258816
Si Si6 0.784834 0.924367 0.365092
O O1 0.500000 0.646826 0.048727
O O2 0.289075 0.742108 0.066072
O O3 0.218256 0.623754 0.094511
O O4 0.215203 0.655918 0.000000
O O5 0.269304 0.584908 0.500000
O O6 0.271018 0.500000 0.431896
O O7 0.272979 0.632900 0.412718
O O8 0.000000 0.573966 0.445397
O O9 0.280217 0.219717 0.844302
O O10 0.000000 0.223940 0.896616
O O11 0.500000 0.697320 0.702911
O O12 0.250000 0.750000 0.750000
O O13 0.223163 0.629269 0.722793
O O14 0.728131 0.907662 0.312000
O O15 0.000000 0.925585 0.258564
O O16 0.728147 0.000000 0.248774
O O17 0.000000 0.921502 0.364195
O O18 0.736709 0.000000 0.374350
#
# Coordination Sequence:
#
# PCOD9521033 Si02
#       6
#    16  16  16  16  16  16
#     4  10  20  33  51  74 100 134 173 211 254 304
#     4   9  19  37  59  80 103 135 176 218 259 308
#     4  11  23  35  50  76 107 138 173 214 261 310
#     4  10  21  35  52  75 102 134 171 210 252 300
#     4   8  14  27  48  71  95 125 159 195 240 294
#     4   8  14  26  47  75 101 124 157 204 253 297
#
# _framework density 21.871022
#
# number of rings (size 3 to 8) (size 9 to 14) (size 15 to 20)
#    0.000    2.667    0.000    3.500    0.000    6.667 
#    0.000    4.167    0.000    1.000    0.000    5.833 
#    0.000    0.000    0.000    0.000    0.000    0.000 
#
# Total GULP energy -268003.499859 kJ/mol
# GULP energy per Si atom -5583.406247 kJ/mol
# Density = 2.182124 g / cm^3
# Si number density = 21.871022 Si / 1000 Ang^3
#
#
#
# Elastic Constant Matrix: (Units=GPa)
#
#
# Indices 1 2 3 4 5 6 
#
# 1 51.9206 -8.1355 2.4698 0.0000 0.0000 0.0000
# 2 -8.1355 31.4981 -1.0408 0.0000 0.0000 0.0000
# 3 2.4698 -1.0408 50.1047 0.0000 0.0000 0.0000
# 4 0.0000 0.0000 0.0000 39.4371 0.0000 0.0000
# 5 0.0000 0.0000 0.0000 0.0000 4.8093 0.0000
# 6 0.0000 0.0000 0.0000 0.0000 0.0000 8.1655
#
#
#
# Elastic Compliance Matrix: (Units=1/GPa)
#
#
# Indices 1 2 3 4 5 6 
#
# 1 0.020112 0.005165 -0.000884 0.000000 0.000000 0.000000
# 2 0.005165 0.033096 0.000433 0.000000 0.000000 0.000000
# 3 -0.000884 0.000433 0.020011 0.000000 0.000000 0.000000
# 4 0.000000 0.000000 0.000000 0.025357 0.000000 0.000000
# 5 0.000000 0.000000 0.000000 0.000000 0.207932 0.000000
# 6 0.000000 0.000000 0.000000 0.000000 0.000000 0.122467
#
#
# Mechanical properties :
#
#
# Convention : Reuss Voigt Hill
#
# Bulk Modulus (GPa) = 12.09966 13.34561 12.72264
# Shear Modulus (GPa) = 11.18330 19.83102 15.50716
#
# Velocity S-wave (km/s) = 2.26371 3.01446 2.66565
# Velocity P-wave (km/s) = 3.51807 4.26979 3.91203
#
# Compressibility (1/GPa) = 0.08264697
#
# Stress axis : x y z
#
# Youngs Moduli (GPa) = 49.72256 30.21477 49.97307
#
# Poissons Ratio (x) = -0.15607 0.04418
# Poissons Ratio (y) = -0.25683 -0.02163
# Poissons Ratio (z) = 0.04396 -0.01308
#
# Static dielectric constant tensor:
#      x y z
#    x 1.871210 0.000000 0.000000 
#    y 0.000000 1.777570 0.000000 
#    z 0.000000 0.000000 1.800960 
# 
# From -- ./inp_files/10946.got.cif
#   From: 2010.05.17/outbox.cif.g08.bks.cpg/sg71_6_cif.got.tgz:10946.got - 2010.06.03 16:22:01.
