data_PCOD9521256
_publ_section_title
;
Structure prediction by ZEFSAII (Michael W. Deem and Ramdas Pophale) SiO2 
 PCOD9521256
Probable space group: I M M M
;
_chemical_formula_sum "Si O2"
_cell_formula_units_Z 78
_cell_length_a 16.757876
_cell_length_b 7.534739
_cell_length_c 24.122927
_cell_angle_alpha 90.000000
_cell_angle_beta 90.000000
_cell_angle_gamma 90.000000
_cell_volume 3045.910852
_symmetry_space_group_name_H-M "I M M M"
_symmetry_group_IT_number 71
_symmetry_cell_setting 'orthorhombic'
loop_
_space_group_symop_operation_xyz
x,y,z
-x,-y,z
x,-y,-z
-x,y,-z
-x,-y,-z
x,y,-z
-x,y,z
x,-y,z
1/2+x,1/2+y,1/2+z
1/2-x,1/2-y,1/2+z
1/2+x,1/2-y,1/2-z
1/2-x,1/2+y,1/2-z
1/2-x,1/2-y,1/2-z
1/2+x,1/2+y,1/2-z
1/2-x,1/2+y,1/2+z
1/2+x,1/2-y,1/2+z
loop_
_atom_site_type_symbol
_atom_site_label
_atom_site_fract_x
_atom_site_fract_y
_atom_site_fract_z
Si Si1 0.673688 0.500000 0.000000
Si Si2 0.155603 0.209772 0.321461
Si Si3 0.911561 0.706517 0.792437
Si Si4 0.000000 0.500000 0.500000
Si Si5 0.413394 0.296885 0.417811
Si Si6 0.260029 0.205896 0.076387
Si Si7 0.000000 0.216018 0.396191
O O1 0.680293 0.342300 0.952493
O O2 0.147868 0.265284 0.257991
O O3 0.226722 0.287446 0.357843
O O4 0.076252 0.256364 0.356885
O O5 0.163833 0.000000 0.321625
O O6 0.909869 0.500000 0.807252
O O7 0.905868 0.800928 0.851178
O O8 0.000000 0.752928 0.769764
O O9 0.000000 0.658141 0.450407
O O10 0.500000 0.215568 0.431292
O O11 0.415181 0.500000 0.436975
O O12 0.328827 0.224500 0.437828
O O13 0.269983 0.000000 0.059878
O O14 0.000000 0.000000 0.409670
#
# Coordination Sequence:
#
# PCOD9521256 Si02
#       7
#     4  16  16   2  16  16   8
#     4  12  26  50  69  93 132 172 222 276 346 381
#     4  11  22  41  63  90 132 172 214 266 318 388
#     4  10  20  33  61  97 134 174 213 258 322 388
#     4  12  26  40  68  82 120 164 216 288 316 364
#     4   9  20  41  67  97 131 169 211 261 325 395
#     4  11  25  45  69  96 129 170 218 274 329 388
#     4  10  25  43  59  90 123 165 218 267 321 376
#
# _framework density 25.608101999999999
#
# number of rings (size 3 to 8) (size 9 to 14) (size 15 to 20)
#    0.000    1.641    2.051    1.692    4.308    2.462 
#    0.000    1.026    0.000    2.462    0.000    0.000 
#    0.000    0.000    0.000    0.000    0.000    0.000 
#
# Total GULP energy -217392.938826 kJ/mol
# GULP energy per Si atom -5574.177919 kJ/mol
# Density = 2.554982 g / cm^3
# Si number density = 25.608102 Si / 1000 Ang^3
#
#
#
# Elastic Constant Matrix: (Units=GPa)
#
#
# Indices 1 2 3 4 5 6 
#
# 1 94.5159 7.3176 9.6927 0.0000 0.0000 0.0000
# 2 7.3176 126.6513 27.6662 0.0000 0.0000 0.0000
# 3 9.6927 27.6662 170.1915 0.0000 0.0000 0.0000
# 4 0.0000 0.0000 0.0000 -413.5583 0.0000 0.0000
# 5 0.0000 0.0000 0.0000 0.0000 -479.1390 0.0000
# 6 0.0000 0.0000 0.0000 0.0000 0.0000 -14.3105
#
#
#
# Elastic Compliance Matrix: (Units=1/GPa)
#
#
# Indices 1 2 3 4 5 6 
#
# 1 0.010673 -0.000502 -0.000526 0.000000 0.000000 0.000000
# 2 -0.000502 0.008210 -0.001306 0.000000 0.000000 0.000000
# 3 -0.000526 -0.001306 0.006118 0.000000 0.000000 0.000000
# 4 0.000000 0.000000 0.000000 -0.002418 0.000000 0.000000
# 5 0.000000 0.000000 0.000000 0.000000 -0.002087 0.000000
# 6 0.000000 0.000000 0.000000 0.000000 0.000000 -0.069879
#
#
# Mechanical properties :
#
#
# Convention : Reuss Voigt Hill
#
# Bulk Modulus (GPa) = 49.18119 53.41244 51.29681
# Shear Modulus (GPa) = -131.79747 -158.28943 -145.04345
#
# Velocity S-wave (km/s) = -7.18184 -7.87061 -7.53410
# Velocity P-wave (km/s) = 7.03738 7.85445 7.45711
#
# Compressibility (1/GPa) = 0.02033298
#
# Stress axis : x y z
#
# Youngs Moduli (GPa) = 93.69395 121.80306 163.45170
#
# Poissons Ratio (x) = 0.06111 0.08602
# Poissons Ratio (y) = 0.04701 0.21347
# Poissons Ratio (z) = 0.04931 0.15908
#
# Static dielectric constant tensor:
#      x y z
#    x 2.126050 0.000000 0.000000 
#    y 0.000000 1.955530 0.000000 
#    z 0.000000 0.000000 2.037440 
# 
# From -- ./inp_files/65874.got.cif
#   From: 2010.05.17/outbox.cif.g08.bks.cpg/sg71_33_cif.got.tgz:65874.got - 2010.06.03 16:22:01.
