data_PCOD9521700
_publ_section_title
;
Structure prediction by ZEFSAII (Michael W. Deem and Ramdas Pophale) SiO2 
 PCOD9521700
Probable space group: I M M M
;
_chemical_formula_sum "Si O2"
_cell_formula_units_Z 80
_cell_length_a 7.559085
_cell_length_b 20.008677
_cell_length_c 24.501586
_cell_angle_alpha 90.000000
_cell_angle_beta 90.000000
_cell_angle_gamma 90.000000
_cell_volume 3705.798488
_symmetry_space_group_name_H-M "I M M M"
_symmetry_group_IT_number 71
_symmetry_cell_setting 'orthorhombic'
loop_
_space_group_symop_operation_xyz
x,y,z
-x,-y,z
x,-y,-z
-x,y,-z
-x,-y,-z
x,y,-z
-x,y,z
x,-y,z
1/2+x,1/2+y,1/2+z
1/2-x,1/2-y,1/2+z
1/2+x,1/2-y,1/2-z
1/2-x,1/2+y,1/2-z
1/2-x,1/2-y,1/2-z
1/2+x,1/2+y,1/2-z
1/2-x,1/2+y,1/2+z
1/2+x,1/2-y,1/2+z
loop_
_atom_site_type_symbol
_atom_site_label
_atom_site_fract_x
_atom_site_fract_y
_atom_site_fract_z
Si Si1 0.788422 0.328583 0.744023
Si Si2 0.290852 0.428536 0.435176
Si Si3 0.713432 0.076703 0.342513
Si Si4 0.788410 0.823590 0.562763
Si Si5 0.200837 0.303587 0.372092
O O1 0.750000 0.250000 0.750000
O O2 0.719722 0.375286 0.793038
O O3 0.719971 0.337417 0.682311
O O4 0.000000 0.339425 0.745092
O O5 0.273387 0.430776 0.500000
O O6 0.500000 0.422792 0.423045
O O7 0.226932 0.500000 0.412728
O O8 0.197242 0.363192 0.414511
O O9 0.500000 0.075158 0.339232
O O10 0.757579 0.111080 0.400389
O O11 0.776140 0.000000 0.338196
O O12 0.721893 0.826033 0.500000
O O13 0.715997 0.761167 0.598893
O O14 0.000000 0.813800 0.558719
O O15 0.000000 0.283245 0.357222
#
# Coordination Sequence:
#
# PCOD9521700 Si02
#       5
#    16  16  16  16  16
#     4  10  20  36  59  83 109 142 179 223 272 326
#     4   9  19  35  52  74 109 149 186 226 271 319
#     4  10  22  39  58  83 114 147 185 230 278 329
#     4  10  21  37  57  83 114 147 187 233 278 327
#     4  10  20  34  56  84 111 142 181 226 277 333
#
# _framework density 21.587789000000001
#
# number of rings (size 3 to 8) (size 9 to 14) (size 15 to 20)
#    0.000    2.200    2.000    1.200    0.000    5.200 
#    0.000    5.000    0.000    0.000    0.000    0.000 
#    0.000    0.000    0.000    0.000    0.000    0.000 
#
# Total GULP energy -222935.234574 kJ/mol
# GULP energy per Si atom -5573.380864 kJ/mol
# Density = 2.153865 g / cm^3
# Si number density = 21.587789 Si / 1000 Ang^3
#
#
#
# Elastic Constant Matrix: (Units=GPa)
#
#
# Indices 1 2 3 4 5 6 
#
# 1 44.1364 0.5642 15.5090 0.0000 0.0000 0.0000
# 2 0.5642 142.4139 70.6380 0.0000 0.0000 0.0000
# 3 15.5090 70.6380 149.4727 0.0000 0.0000 0.0000
# 4 0.0000 0.0000 0.0000 35.6721 0.0000 0.0000
# 5 0.0000 0.0000 0.0000 0.0000 14.3970 0.0000
# 6 0.0000 0.0000 0.0000 0.0000 0.0000 25.4823
#
#
#
# Elastic Compliance Matrix: (Units=1/GPa)
#
#
# Indices 1 2 3 4 5 6 
#
# 1 0.023749 0.001474 -0.003160 0.000000 0.000000 0.000000
# 2 0.001474 0.009263 -0.004530 0.000000 0.000000 0.000000
# 3 -0.003160 -0.004530 0.009159 0.000000 0.000000 0.000000
# 4 0.000000 0.000000 0.000000 0.028033 0.000000 0.000000
# 5 0.000000 0.000000 0.000000 0.000000 0.069459 0.000000
# 6 0.000000 0.000000 0.000000 0.000000 0.000000 0.039243
#
#
# Mechanical properties :
#
#
# Convention : Reuss Voigt Hill
#
# Bulk Modulus (GPa) = 33.62912 56.60503 45.11707
# Shear Modulus (GPa) = 24.84442 31.73108 28.28775
#
# Velocity S-wave (km/s) = 3.39611 3.83804 3.62382
# Velocity P-wave (km/s) = 5.56684 6.77632 6.20114
#
# Compressibility (1/GPa) = 0.02973614
#
# Stress axis : x y z
#
# Youngs Moduli (GPa) = 42.10749 107.95554 109.18087
#
# Poissons Ratio (x) = -0.15908 0.34506
# Poissons Ratio (y) = -0.06205 0.49464
# Poissons Ratio (z) = 0.13308 0.48909
#
# Static dielectric constant tensor:
#      x y z
#    x 1.830030 0.000000 0.000000 
#    y 0.000000 1.782840 0.000000 
#    z 0.000000 0.000000 1.896720 
# 
# From -- ./inp_files/14535.got.cif
#   From: 2010.05.17/outbox.cif.g08.bks.cpg/sg71_8_cif.got.tgz:14535.got - 2010.06.03 16:22:01.
