data_PCOD9522355
_publ_section_title
;
Structure prediction by ZEFSAII (Michael W. Deem and Ramdas Pophale) SiO2 
 PCOD9522355
Probable space group: I M M M
;
_chemical_formula_sum "Si O2"
_cell_formula_units_Z 66
_cell_length_a 27.627278
_cell_length_b 16.052095
_cell_length_c 7.857097
_cell_angle_alpha 90.000000
_cell_angle_beta 90.000000
_cell_angle_gamma 90.000000
_cell_volume 3484.431522
_symmetry_space_group_name_H-M "I M M M"
_symmetry_group_IT_number 71
_symmetry_cell_setting 'orthorhombic'
loop_
_space_group_symop_operation_xyz
x,y,z
-x,-y,z
x,-y,-z
-x,y,-z
-x,-y,-z
x,y,-z
-x,y,z
x,-y,z
1/2+x,1/2+y,1/2+z
1/2-x,1/2-y,1/2+z
1/2+x,1/2-y,1/2-z
1/2-x,1/2+y,1/2-z
1/2-x,1/2-y,1/2-z
1/2+x,1/2+y,1/2-z
1/2-x,1/2+y,1/2+z
1/2+x,1/2-y,1/2+z
loop_
_atom_site_type_symbol
_atom_site_label
_atom_site_fract_x
_atom_site_fract_y
_atom_site_fract_z
Si Si1 0.685136 0.601481 0.500000
Si Si2 0.000000 0.000000 0.000000
Si Si3 0.142736 0.404269 0.295329
Si Si4 0.748437 0.898288 0.687543
Si Si5 0.444910 0.217805 0.800124
Si Si6 0.425827 0.345509 0.500000
O O1 0.683638 0.500000 0.500000
O O2 0.715446 0.629029 0.334826
O O3 0.631041 0.634649 0.500000
O O4 0.957890 0.072431 0.000000
O O5 0.148940 0.404815 0.500000
O O6 0.135916 0.500000 0.239802
O O7 0.193100 0.371689 0.219056
O O8 0.095938 0.349720 0.256293
O O9 0.764655 0.872792 0.500000
O O10 0.747300 0.000000 0.694281
O O11 0.500000 0.185549 0.783449
O O12 0.438408 0.292854 0.668835
O O13 0.438528 0.241650 0.000000
#
# Coordination Sequence:
#
# PCOD9522355 Si02
#       6
#     8   2  16  16  16   8
#     4  10  20  36  60  85 113 151 197 254 303 355
#     4  12  24  48  74  92 110 150 220 252 312 380
#     4   9  17  33  60  89 123 169 205 231 280 353
#     4   9  17  31  54  85 119 155 195 237 285 348
#     4  10  22  40  61  87 125 160 194 250 305 350
#     4  12  24  44  67  89 114 153 200 262 319 361
#
# _framework density 18.941396999999998
#
# number of rings (size 3 to 8) (size 9 to 14) (size 15 to 20)
#    0.000    2.182    3.030    0.000    1.697    1.455 
#    0.000    4.848    0.000    1.455    0.000    0.000 
#    0.000    0.000    0.000    0.000    0.000    0.000 
#
# Total GULP energy -183936.127021 kJ/mol
# GULP energy per Si atom -5573.822031 kJ/mol
# Density = 1.889829 g / cm^3
# Si number density = 18.941397 Si / 1000 Ang^3
#
#
#
# Elastic Constant Matrix: (Units=GPa)
#
#
# Indices 1 2 3 4 5 6 
#
# 1 183.0277 42.7654 81.2397 0.0000 0.0000 0.0000
# 2 42.7654 48.2613 35.1797 0.0000 0.0000 0.0000
# 3 81.2397 35.1797 102.2825 0.0000 0.0000 0.0000
# 4 0.0000 0.0000 0.0000 -2.3682 0.0000 0.0000
# 5 0.0000 0.0000 0.0000 0.0000 -4.8217 0.0000
# 6 0.0000 0.0000 0.0000 0.0000 0.0000 29.8704
#
#
#
# Elastic Compliance Matrix: (Units=1/GPa)
#
#
# Indices 1 2 3 4 5 6 
#
# 1 0.008895 -0.003646 -0.005811 0.000000 0.000000 0.000000
# 2 -0.003646 0.029148 -0.007129 0.000000 0.000000 0.000000
# 3 -0.005811 -0.007129 0.016844 0.000000 0.000000 0.000000
# 4 0.000000 0.000000 0.000000 -0.422253 0.000000 0.000000
# 5 0.000000 0.000000 0.000000 0.000000 -0.207397 0.000000
# 6 0.000000 0.000000 0.000000 0.000000 0.000000 0.033478
#
#
# Mechanical properties :
#
#
# Convention : Reuss Voigt Hill
#
# Bulk Modulus (GPa) = 46.05165 72.43789 59.24477
# Shear Modulus (GPa) = -9.98256 16.16188 3.08966
#
# Velocity S-wave (km/s) = -2.29819 2.92423 1.27856
# Velocity P-wave (km/s) = 4.16212 7.05178 5.79012
#
# Compressibility (1/GPa) = 0.02171475
#
# Stress axis : x y z
#
# Youngs Moduli (GPa) = 112.42531 34.30712 59.36723
#
# Poissons Ratio (x) = 0.12509 0.34497
# Poissons Ratio (y) = 0.40992 0.42326
# Poissons Ratio (z) = 0.65328 0.24459
#
# Static dielectric constant tensor:
#      x y z
#    x 1.631730 0.000000 0.000000 
#    y 0.000000 1.643990 0.000000 
#    z 0.000000 0.000000 1.668900 
# 
# From -- ./inp_files/14217.got.cif
#   From: 2010.05.17/outbox.cif.g08.bks.cpg/sg71_8_cif.got.tgz:14217.got - 2010.06.03 16:22:01.
