data_PCOD9522654
_publ_section_title
;
Structure prediction by ZEFSAII (Michael W. Deem and Ramdas Pophale) SiO2 
 PCOD9522654
Probable space group: I M M M
;
_chemical_formula_sum "Si O2"
_cell_formula_units_Z 104
_cell_length_a 8.741803
_cell_length_b 22.844497
_cell_length_c 27.453614
_cell_angle_alpha 90.000000
_cell_angle_beta 90.000000
_cell_angle_gamma 90.000000
_cell_volume 5482.544160
_symmetry_space_group_name_H-M "I M M M"
_symmetry_group_IT_number 71
_symmetry_cell_setting 'orthorhombic'
loop_
_space_group_symop_operation_xyz
x,y,z
-x,-y,z
x,-y,-z
-x,y,-z
-x,-y,-z
x,y,-z
-x,y,z
x,-y,z
1/2+x,1/2+y,1/2+z
1/2-x,1/2-y,1/2+z
1/2+x,1/2-y,1/2-z
1/2-x,1/2+y,1/2-z
1/2-x,1/2-y,1/2-z
1/2+x,1/2+y,1/2-z
1/2-x,1/2+y,1/2+z
1/2+x,1/2-y,1/2+z
loop_
_atom_site_type_symbol
_atom_site_label
_atom_site_fract_x
_atom_site_fract_y
_atom_site_fract_z
Si Si1 0.684853 0.376481 0.135695
Si Si2 0.316681 0.000000 0.333556
Si Si3 0.680619 0.211147 0.443117
Si Si4 0.186218 0.000000 0.776661
Si Si5 0.684349 0.430483 0.500000
Si Si6 0.680932 0.839667 0.077275
Si Si7 0.828600 0.806802 0.270362
Si Si8 0.174437 0.882367 0.826794
O O1 0.500000 0.381445 0.137056
O O2 0.754529 0.441320 0.140286
O O3 0.737445 0.337253 0.090241
O O4 0.739647 0.340553 0.183663
O O5 0.255798 0.000000 0.277465
O O6 0.500000 0.000000 0.333390
O O7 0.697482 0.196280 0.500000
O O8 0.500000 0.212697 0.431079
O O9 0.748072 0.276421 0.435697
O O10 0.230378 0.054867 0.809498
O O11 0.000000 0.000000 0.770791
O O12 0.728160 0.500000 0.500000
O O13 0.500000 0.428297 0.500000
O O14 0.747043 0.392785 0.454246
O O15 0.500000 0.837907 0.068709
O O16 0.720987 0.852204 0.133373
O O17 0.750000 0.750000 0.250000
O O18 0.833746 0.848616 0.224016
O O19 0.000000 0.790426 0.285525
O O20 0.000000 0.886216 0.846531
#
# Coordination Sequence:
#
# PCOD9522654 Si02
#       8
#    16   8  16   8   8  16  16  16
#     4  11  23  42  67  95 129 170 217 271 329 389
#     4  12  24  40  65  97 133 175 218 263 327 400
#     4  11  24  44  69  96 128 168 216 268 327 395
#     4  10  20  40  64  86 120 168 218 262 310 375
#     4  11  25  45  67  89 119 168 221 268 327 391
#     4  12  25  41  64  95 130 166 212 269 327 385
#     4  10  21  36  57  86 121 160 201 250 306 367
#     4  10  21  38  60  86 120 164 207 250 305 371
#
# _framework density 18.969296
#
# number of rings (size 3 to 8) (size 9 to 14) (size 15 to 20)
#    0.000    1.154    2.308    4.154    1.077    6.462 
#    0.000    0.385    0.000    2.308    0.000    0.000 
#    0.000    0.000    0.000    0.000    0.000    0.000 
#
# Total GULP energy -290415.364850 kJ/mol
# GULP energy per Si atom -5584.910862 kJ/mol
# Density = 1.892612 g / cm^3
# Si number density = 18.969296 Si / 1000 Ang^3
#
#
#
# Elastic Constant Matrix: (Units=GPa)
#
#
# Indices 1 2 3 4 5 6 
#
# 1 88.1396 47.9894 39.3531 0.0000 0.0000 0.0000
# 2 47.9894 141.1458 45.2338 0.0000 0.0000 0.0000
# 3 39.3531 45.2338 91.8769 0.0000 0.0000 0.0000
# 4 0.0000 0.0000 0.0000 27.9599 0.0000 0.0000
# 5 0.0000 0.0000 0.0000 0.0000 30.9914 0.0000
# 6 0.0000 0.0000 0.0000 0.0000 0.0000 29.4919
#
#
#
# Elastic Compliance Matrix: (Units=1/GPa)
#
#
# Indices 1 2 3 4 5 6 
#
# 1 0.015529 -0.003738 -0.004811 0.000000 0.000000 0.000000
# 2 -0.003738 0.009312 -0.002983 0.000000 0.000000 0.000000
# 3 -0.004811 -0.002983 0.014414 0.000000 0.000000 0.000000
# 4 0.000000 0.000000 0.000000 0.035765 0.000000 0.000000
# 5 0.000000 0.000000 0.000000 0.000000 0.032267 0.000000
# 6 0.000000 0.000000 0.000000 0.000000 0.000000 0.033908
#
#
# Mechanical properties :
#
#
# Convention : Reuss Voigt Hill
#
# Bulk Modulus (GPa) = 61.76864 65.14610 63.45737
# Shear Modulus (GPa) = 29.47134 30.26103 29.86619
#
# Velocity S-wave (km/s) = 3.94589 3.99841 3.97224
# Velocity P-wave (km/s) = 7.30707 7.46551 7.38671
#
# Compressibility (1/GPa) = 0.01618944
#
# Stress axis : x y z
#
# Youngs Moduli (GPa) = 64.39581 107.38936 69.37847
#
# Poissons Ratio (x) = 0.40142 0.33379
# Poissons Ratio (y) = 0.24071 0.20699
# Poissons Ratio (z) = 0.30982 0.32039
#
# Static dielectric constant tensor:
#      x y z
#    x 1.660350 0.000000 0.000000 
#    y 0.000000 1.623990 0.000000 
#    z 0.000000 0.000000 1.644310 
# 
# From -- ./inp_files/63387.got.cif
#   From: 2010.05.17/outbox.cif.g08.bks.cpg/sg71_32_cif.got.tgz:63387.got - 2010.06.03 16:22:01.
