data_PCOD9522492
_publ_section_title
;
Structure prediction by ZEFSAII (Michael W. Deem and Ramdas Pophale) SiO2 
 PCOD9522492
Probable space group: I M M M
;
_chemical_formula_sum "Si O2"
_cell_formula_units_Z 104
_cell_length_a 21.878468
_cell_length_b 7.721539
_cell_length_c 29.101125
_cell_angle_alpha 90.000000
_cell_angle_beta 90.000000
_cell_angle_gamma 90.000000
_cell_volume 4916.211471
_symmetry_space_group_name_H-M "I M M M"
_symmetry_group_IT_number 71
_symmetry_cell_setting 'orthorhombic'
loop_
_space_group_symop_operation_xyz
x,y,z
-x,-y,z
x,-y,-z
-x,y,-z
-x,-y,-z
x,y,-z
-x,y,z
x,-y,z
1/2+x,1/2+y,1/2+z
1/2-x,1/2-y,1/2+z
1/2+x,1/2-y,1/2-z
1/2-x,1/2+y,1/2-z
1/2-x,1/2-y,1/2-z
1/2+x,1/2+y,1/2-z
1/2-x,1/2+y,1/2+z
1/2+x,1/2-y,1/2+z
loop_
_atom_site_type_symbol
_atom_site_label
_atom_site_fract_x
_atom_site_fract_y
_atom_site_fract_z
Si Si1 0.600640 0.291582 0.373480
Si Si2 0.760994 0.207535 0.132058
Si Si3 0.500000 0.794923 0.552033
Si Si4 0.842685 0.208598 0.303775
Si Si5 0.673483 0.792023 0.050990
Si Si6 0.933200 0.788339 0.227352
Si Si7 0.068816 0.208173 0.385862
O O1 0.602678 0.500000 0.370969
O O2 0.670287 0.226387 0.373285
O O3 0.559266 0.251271 0.417426
O O4 0.571478 0.231887 0.325409
O O5 0.724989 0.241280 0.179639
O O6 0.718990 0.276176 0.090378
O O7 0.763854 0.000000 0.127810
O O8 0.500000 0.721181 0.500000
O O9 0.500000 0.000000 0.547906
O O10 0.874683 0.269158 0.256878
O O11 0.888834 0.271097 0.343953
O O12 0.843277 0.000000 0.303077
O O13 0.605319 0.752020 0.068034
O O14 0.680175 0.000000 0.050077
O O15 0.685787 0.725283 0.000000
O O16 0.000000 0.737261 0.246515
O O17 0.932336 0.000000 0.228067
O O18 0.000000 0.274912 0.384367
O O19 0.066346 0.000000 0.381697
#
# Coordination Sequence:
#
# PCOD9522492 Si02
#       7
#    16  16   8  16  16  16  16
#     4  10  20  37  61  85 107 139 181 221 265 318
#     4   9  19  34  52  76 107 137 173 223 268 314
#     4  11  25  43  61  85 117 145 173 221 284 339
#     4   9  17  30  50  75 104 143 181 211 256 316
#     4   9  18  32  47  64  91 128 167 209 261 314
#     4   9  16  29  53  81 108 139 181 226 263 308
#     4   9  17  29  45  67  95 127 168 213 253 299
#
# _framework density 21.154502000000001
#
# number of rings (size 3 to 8) (size 9 to 14) (size 15 to 20)
#    0.000    2.692    0.769    0.692    0.000    5.231 
#    0.000    3.846    0.000    0.923    0.000    0.000 
#    0.000    0.000    0.000    0.000    0.000    0.000 
#
# Total GULP energy -290019.751904 kJ/mol
# GULP energy per Si atom -5577.302921 kJ/mol
# Density = 2.110635 g / cm^3
# Si number density = 21.154502 Si / 1000 Ang^3
#
#
#
# Elastic Constant Matrix: (Units=GPa)
#
#
# Indices 1 2 3 4 5 6 
#
# 1 168.5040 3.8520 63.6135 0.0000 0.0000 0.0000
# 2 3.8520 30.4581 1.3803 0.0000 0.0000 0.0000
# 3 63.6135 1.3803 125.6189 0.0000 0.0000 0.0000
# 4 0.0000 0.0000 0.0000 9.4564 0.0000 0.0000
# 5 0.0000 0.0000 0.0000 0.0000 12.1036 0.0000
# 6 0.0000 0.0000 0.0000 0.0000 0.0000 19.2194
#
#
#
# Elastic Compliance Matrix: (Units=1/GPa)
#
#
# Indices 1 2 3 4 5 6 
#
# 1 0.007355 -0.000762 -0.003716 0.000000 0.000000 0.000000
# 2 -0.000762 0.032927 0.000024 0.000000 0.000000 0.000000
# 3 -0.003716 0.000024 0.009842 0.000000 0.000000 0.000000
# 4 0.000000 0.000000 0.000000 0.105748 0.000000 0.000000
# 5 0.000000 0.000000 0.000000 0.000000 0.082620 0.000000
# 6 0.000000 0.000000 0.000000 0.000000 0.000000 0.052031
#
#
# Mechanical properties :
#
#
# Convention : Reuss Voigt Hill
#
# Bulk Modulus (GPa) = 24.26219 51.36362 37.81290
# Shear Modulus (GPa) = 15.96579 25.20492 20.58536
#
# Velocity S-wave (km/s) = 2.75020 3.45551 3.12283
# Velocity P-wave (km/s) = 4.64529 6.34458 5.56024
#
# Compressibility (1/GPa) = 0.04121640
#
# Stress axis : x y z
#
# Youngs Moduli (GPa) = 135.96355 30.37001 101.60344
#
# Poissons Ratio (x) = 0.02313 0.37757
# Poissons Ratio (y) = 0.10357 -0.00244
# Poissons Ratio (z) = 0.50526 -0.00073
#
# Static dielectric constant tensor:
#      x y z
#    x 1.781750 0.000000 0.000000 
#    y 0.000000 1.786990 0.000000 
#    z 0.000000 0.000000 1.770860 
# 
# From -- ./inp_files/56289.got.cif
#   From: 2010.05.17/outbox.cif.g08.bks.cpg/sg71_29_cif.got.tgz:56289.got - 2010.06.03 16:22:01.
