data_PCOD9522048
_publ_section_title
;
Structure prediction by ZEFSAII (Michael W. Deem and Ramdas Pophale) SiO2 
 PCOD9522048
Probable space group: I M M M
;
_chemical_formula_sum "Si O2"
_cell_formula_units_Z 88
_cell_length_a 22.952379
_cell_length_b 16.976970
_cell_length_c 12.116192
_cell_angle_alpha 90.000000
_cell_angle_beta 90.000000
_cell_angle_gamma 90.000000
_cell_volume 4721.217786
_symmetry_space_group_name_H-M "I M M M"
_symmetry_group_IT_number 71
_symmetry_cell_setting 'orthorhombic'
loop_
_space_group_symop_operation_xyz
x,y,z
-x,-y,z
x,-y,-z
-x,y,-z
-x,-y,-z
x,y,-z
-x,y,z
x,-y,z
1/2+x,1/2+y,1/2+z
1/2-x,1/2-y,1/2+z
1/2+x,1/2-y,1/2-z
1/2-x,1/2+y,1/2-z
1/2-x,1/2-y,1/2-z
1/2+x,1/2+y,1/2-z
1/2-x,1/2+y,1/2+z
1/2+x,1/2-y,1/2+z
loop_
_atom_site_type_symbol
_atom_site_label
_atom_site_fract_x
_atom_site_fract_y
_atom_site_fract_z
Si Si1 0.632807 0.653894 0.799054
Si Si2 0.068056 0.413073 0.736297
Si Si3 0.740794 0.090911 0.633018
Si Si4 0.434656 0.731324 0.000000
Si Si5 0.069356 0.000000 0.631030
Si Si6 0.585214 0.089270 0.000000
Si Si7 0.365547 0.207656 0.631415
O O1 0.697683 0.624687 0.826786
O O2 0.593663 0.575777 0.805465
O O3 0.634702 0.708185 0.691158
O O4 0.603191 0.706328 0.894930
O O5 0.076215 0.500000 0.786819
O O6 0.108473 0.408881 0.626461
O O7 0.081668 0.343954 0.820005
O O8 0.000000 0.408158 0.700101
O O9 0.742550 0.088168 0.500000
O O10 0.690181 0.152920 0.662273
O O11 0.731473 0.000000 0.670958
O O12 0.442064 0.824486 0.000000
O O13 0.500000 0.694739 0.000000
O O14 0.089318 0.000000 0.500000
O O15 0.000000 0.000000 0.629115
O O16 0.559965 0.000000 0.000000
O O17 0.367806 0.215164 0.500000
#
# Coordination Sequence:
#
# PCOD9522048 Si02
#       7
#    16  16  16   8   8   8  16
#     4  12  22  39  63  92 122 156 196 256 317 369
#     4  10  20  35  57  85 118 156 197 250 308 361
#     4  10  20  39  65  91 118 154 202 254 311 359
#     4  12  22  34  62  98 127 155 195 254 322 379
#     4  11  22  38  65 101 129 149 191 262 333 382
#     4  10  20  35  57  89 128 160 191 244 320 382
#     4  11  25  40  58  85 120 167 212 248 281 357
#
# _framework density 18.639258000000002
#
# number of rings (size 3 to 8) (size 9 to 14) (size 15 to 20)
#    0.000    1.182    4.545    2.455    0.000    4.182 
#    0.000    1.364    0.000    0.545    0.000    0.000 
#    0.000    0.000    0.000    0.000    0.000    0.000 
#
# Total GULP energy -244988.893817 kJ/mol
# GULP energy per Si atom -5567.929405 kJ/mol
# Density = 1.859683 g / cm^3
# Si number density = 18.639258 Si / 1000 Ang^3
#
#
#
# Elastic Constant Matrix: (Units=GPa)
#
#
# Indices 1 2 3 4 5 6 
#
# 1 63.6272 42.9858 39.8695 0.0000 0.0000 0.0000
# 2 42.9858 171.9367 59.8407 0.0000 0.0000 0.0000
# 3 39.8695 59.8407 91.0507 0.0000 0.0000 0.0000
# 4 0.0000 0.0000 0.0000 21.7260 0.0000 0.0000
# 5 0.0000 0.0000 0.0000 0.0000 13.4991 0.0000
# 6 0.0000 0.0000 0.0000 0.0000 0.0000 11.8725
#
#
#
# Elastic Compliance Matrix: (Units=1/GPa)
#
#
# Indices 1 2 3 4 5 6 
#
# 1 0.022704 -0.002873 -0.008053 0.000000 0.000000 0.000000
# 2 -0.002873 0.007905 -0.003937 0.000000 0.000000 0.000000
# 3 -0.008053 -0.003937 0.017097 0.000000 0.000000 0.000000
# 4 0.000000 0.000000 0.000000 0.046028 0.000000 0.000000
# 5 0.000000 0.000000 0.000000 0.000000 0.074079 0.000000
# 6 0.000000 0.000000 0.000000 0.000000 0.000000 0.084228
#
#
# Mechanical properties :
#
#
# Convention : Reuss Voigt Hill
#
# Bulk Modulus (GPa) = 55.62265 68.00076 61.81171
# Shear Modulus (GPa) = 17.37558 21.68076 19.52817
#
# Velocity S-wave (km/s) = 3.05651 3.41424 3.24032
# Velocity P-wave (km/s) = 6.50867 7.21834 6.87267
#
# Compressibility (1/GPa) = 0.01797829
#
# Stress axis : x y z
#
# Youngs Moduli (GPa) = 44.04510 126.50736 58.49073
#
# Poissons Ratio (x) = 0.36350 0.47104
# Poissons Ratio (y) = 0.12656 0.23027
# Poissons Ratio (z) = 0.35471 0.49805
#
# Static dielectric constant tensor:
#      x y z
#    x 1.661410 0.000000 0.000000 
#    y 0.000000 1.674850 0.000000 
#    z 0.000000 0.000000 1.649040 
# 
# From -- ./inp_files/25698.got.cif
#   From: 2010.05.17/outbox.cif.g08.bks.cpg/sg71_13_cif.got.tgz:25698.got - 2010.06.03 16:22:01.
