data_PCOD9522113
_publ_section_title
;
Structure prediction by ZEFSAII (Michael W. Deem and Ramdas Pophale) SiO2 
 PCOD9522113
Probable space group: I M M M
;
_chemical_formula_sum "Si O2"
_cell_formula_units_Z 68
_cell_length_a 14.046014
_cell_length_b 11.975532
_cell_length_c 19.234607
_cell_angle_alpha 90.000000
_cell_angle_beta 90.000000
_cell_angle_gamma 90.000000
_cell_volume 3235.424202
_symmetry_space_group_name_H-M "I M M M"
_symmetry_group_IT_number 71
_symmetry_cell_setting 'orthorhombic'
loop_
_space_group_symop_operation_xyz
x,y,z
-x,-y,z
x,-y,-z
-x,y,-z
-x,-y,-z
x,y,-z
-x,y,z
x,-y,z
1/2+x,1/2+y,1/2+z
1/2-x,1/2-y,1/2+z
1/2+x,1/2-y,1/2-z
1/2-x,1/2+y,1/2-z
1/2-x,1/2-y,1/2-z
1/2+x,1/2+y,1/2-z
1/2-x,1/2+y,1/2+z
1/2+x,1/2-y,1/2+z
loop_
_atom_site_type_symbol
_atom_site_label
_atom_site_fract_x
_atom_site_fract_y
_atom_site_fract_z
Si Si1 0.895090 0.789647 0.201209
Si Si2 0.852725 0.822011 0.580275
Si Si3 0.867664 0.376363 0.919846
Si Si4 0.815806 0.371474 0.681075
Si Si5 0.500000 0.500000 0.865240
O O1 0.900710 0.722469 0.129065
O O2 0.869743 0.696000 0.258398
O O3 0.798649 0.862852 0.196094
O O4 0.000000 0.842029 0.214981
O O5 0.885946 0.824107 0.500000
O O6 0.746538 0.870273 0.581798
O O7 0.842472 0.698519 0.612162
O O8 0.918013 0.901740 0.626260
O O9 0.895915 0.500000 0.895718
O O10 0.895716 0.362899 0.000000
O O11 0.843035 0.500000 0.677846
#
# Coordination Sequence:
#
# PCOD9522113 Si02
#       5
#    16  16  16  16   4
#     4  10  22  40  59  84 115 157 200 246 304 357
#     4  10  20  35  58  88 121 158 199 249 300 353
#     4   9  17  32  55  83 115 148 188 245 305 356
#     4  10  23  42  60  86 122 159 202 247 303 368
#     4  12  21  36  62  94 126 158 209 258 299 360
#
# _framework density 21.017337000000001
#
# number of rings (size 3 to 8) (size 9 to 14) (size 15 to 20)
#    0.000    2.118    1.176    1.765    1.647    3.294 
#    2.118    1.176    0.000    1.412    0.000    6.588 
#    0.000    0.000    0.000    0.000    0.000    0.000 
#
# Total GULP energy -189305.333621 kJ/mol
# GULP energy per Si atom -5567.803930 kJ/mol
# Density = 2.096950 g / cm^3
# Si number density = 21.017337 Si / 1000 Ang^3
#
#
#
# Elastic Constant Matrix: (Units=GPa)
#
#
# Indices 1 2 3 4 5 6 
#
# 1 130.2202 -11.5364 -6.5737 0.0000 0.0000 0.0000
# 2 -11.5364 99.8541 5.1525 0.0000 0.0000 0.0000
# 3 -6.5737 5.1525 34.5166 0.0000 0.0000 0.0000
# 4 0.0000 0.0000 0.0000 8.4033 0.0000 0.0000
# 5 0.0000 0.0000 0.0000 0.0000 0.2142 0.0000
# 6 0.0000 0.0000 0.0000 0.0000 0.0000 -16.4515
#
#
#
# Elastic Compliance Matrix: (Units=1/GPa)
#
#
# Indices 1 2 3 4 5 6 
#
# 1 0.007822 0.000833 0.001365 0.000000 0.000000 0.000000
# 2 0.000833 0.010181 -0.001361 0.000000 0.000000 0.000000
# 3 0.001365 -0.001361 0.029435 0.000000 0.000000 0.000000
# 4 0.000000 0.000000 0.000000 0.119001 0.000000 0.000000
# 5 0.000000 0.000000 0.000000 0.000000 4.667760 0.000000
# 6 0.000000 0.000000 0.000000 0.000000 0.000000 -0.060785
#
#
# Mechanical properties :
#
#
# Convention : Reuss Voigt Hill
#
# Bulk Modulus (GPa) = 20.36126 26.51954 23.44040
# Shear Modulus (GPa) = 1.04425 16.93644 8.99035
#
# Velocity S-wave (km/s) = 0.70564 2.84180 2.07048
# Velocity P-wave (km/s) = 3.22068 4.83871 4.11010
#
# Compressibility (1/GPa) = 0.04911288
#
# Stress axis : x y z
#
# Youngs Moduli (GPa) = 127.84388 98.22114 33.97338
#
# Poissons Ratio (x) = -0.08184 -0.04638
# Poissons Ratio (y) = -0.10653 0.04624
# Poissons Ratio (z) = -0.17455 0.13369
#
# Static dielectric constant tensor:
#      x y z
#    x 1.820310 0.000000 0.000000 
#    y 0.000000 1.691520 0.000000 
#    z 0.000000 0.000000 1.794060 
# 
# From -- ./inp_files/21555.got.cif
#   From: 2010.05.17/outbox.cif.g08.bks.cpg/sg71_11_cif.got.tgz:21555.got - 2010.06.03 16:22:01.
