data_PCOD9522691
_publ_section_title
;
Structure prediction by ZEFSAII (Michael W. Deem and Ramdas Pophale) SiO2 
 PCOD9522691
Probable space group: I M M M
;
_chemical_formula_sum "Si O2"
_cell_formula_units_Z 104
_cell_length_a 13.059175
_cell_length_b 31.319270
_cell_length_c 14.236644
_cell_angle_alpha 90.000000
_cell_angle_beta 90.000000
_cell_angle_gamma 90.000000
_cell_volume 5822.841891
_symmetry_space_group_name_H-M "I M M M"
_symmetry_group_IT_number 71
_symmetry_cell_setting 'orthorhombic'
loop_
_space_group_symop_operation_xyz
x,y,z
-x,-y,z
x,-y,-z
-x,y,-z
-x,-y,-z
x,y,-z
-x,y,z
x,-y,z
1/2+x,1/2+y,1/2+z
1/2-x,1/2-y,1/2+z
1/2+x,1/2-y,1/2-z
1/2-x,1/2+y,1/2-z
1/2-x,1/2-y,1/2-z
1/2+x,1/2+y,1/2-z
1/2-x,1/2+y,1/2+z
1/2+x,1/2-y,1/2+z
loop_
_atom_site_type_symbol
_atom_site_label
_atom_site_fract_x
_atom_site_fract_y
_atom_site_fract_z
Si Si1 0.000000 0.948684 0.894728
Si Si2 0.877617 0.801769 0.228122
Si Si3 0.733054 0.743956 0.893306
Si Si4 0.617936 0.549840 0.112658
Si Si5 0.727455 0.450002 0.386903
Si Si6 0.116462 0.336797 0.896215
Si Si7 0.250598 0.387661 0.237809
O O1 0.889643 0.939383 0.854033
O O2 0.000000 0.000000 0.903024
O O3 0.000000 0.930200 0.000000
O O4 0.803858 0.781659 0.148042
O O5 0.853382 0.771572 0.319282
O O6 0.831743 0.849252 0.243918
O O7 0.000000 0.802359 0.209079
O O8 0.809688 0.703728 0.895973
O O9 0.697279 0.752309 0.000000
O O10 0.500000 0.560484 0.137351
O O11 0.633605 0.500000 0.136657
O O12 0.696176 0.579713 0.165787
O O13 0.627267 0.554068 0.000000
O O14 0.732541 0.445886 0.500000
O O15 0.748804 0.500000 0.365859
O O16 0.785844 0.414382 0.328581
O O17 0.154554 0.367092 0.814584
O O18 0.000000 0.322909 0.883346
O O19 0.125340 0.357184 0.000000
#
# Coordination Sequence:
#
# PCOD9522691 Si02
#       7
#     8  16  16  16  16  16  16
#     4   7  12  24  40  58  83 121 167 199 216 254
#     4  10  21  33  49  80 111 131 163 211 256 300
#     4   9  19  37  56  72  99 139 174 201 242 304
#     4   9  18  31  46  67  98 135 169 197 235 298
#     4   9  18  31  46  66  97 138 177 206 234 283
#     4   9  18  34  56  76  93 122 165 207 250 305
#     4  11  20  30  49  76 104 130 160 207 259 297
#
# _framework density 17.860693999999999
#
# number of rings (size 3 to 8) (size 9 to 14) (size 15 to 20)
#    0.000    2.692    0.000    3.231    2.154    2.462 
#    0.000    0.000    0.000    2.308    0.000    6.462 
#    0.000    0.000    0.000    0.000    0.000    0.000 
#
# Total GULP energy -289571.172239 kJ/mol
# GULP energy per Si atom -5568.676389 kJ/mol
# Density = 1.782004 g / cm^3
# Si number density = 17.860694 Si / 1000 Ang^3
#
#
#
# Elastic Constant Matrix: (Units=GPa)
#
#
# Indices 1 2 3 4 5 6 
#
# 1 22.2314 2.0283 -4.2901 -0.0005 0.0001 0.0000
# 2 2.0283 48.4602 21.4667 -0.0001 0.0000 0.0000
# 3 -4.2901 21.4667 54.0816 -0.0016 0.0008 0.0004
# 4 -0.0005 -0.0001 -0.0016 27.8560 0.0002 0.0001
# 5 0.0001 0.0000 0.0008 0.0002 18.7345 -0.0002
# 6 0.0000 0.0000 0.0004 0.0001 -0.0002 14.8631
#
#
#
# Elastic Compliance Matrix: (Units=1/GPa)
#
#
# Indices 1 2 3 4 5 6 
#
# 1 0.046420 -0.004337 0.005404 0.000001 0.000000 0.000000
# 2 -0.004337 0.025443 -0.010443 -0.000001 0.000000 0.000000
# 3 0.005404 -0.010443 0.023064 0.000001 -0.000001 -0.000001
# 4 0.000001 -0.000001 0.000001 0.035899 0.000000 0.000000
# 5 0.000000 0.000000 -0.000001 0.000000 0.053378 0.000001
# 6 0.000000 0.000000 -0.000001 0.000000 0.000001 0.067281
#
#
# Mechanical properties :
#
#
# Convention : Reuss Voigt Hill
#
# Bulk Modulus (GPa) = 13.12763 18.13144 15.62953
# Shear Modulus (GPa) = 16.91312 19.32861 18.12086
#
# Velocity S-wave (km/s) = 3.08059 3.29323 3.18868
# Velocity P-wave (km/s) = 4.47430 4.96328 4.72512
#
# Compressibility (1/GPa) = 0.07617523
#
# Stress axis : x y z
#
# Youngs Moduli (GPa) = 21.54249 39.30336 43.35671
#
# Poissons Ratio (x) = 0.17044 -0.23429
# Poissons Ratio (y) = 0.09342 0.45278
# Poissons Ratio (z) = -0.11641 0.41045
#
# Static dielectric constant tensor:
#      x y z
#    x 1.604700 0.000000 0.000000 
#    y 0.000000 1.606480 0.000000 
#    z 0.000000 0.000000 1.675110 
# 
# From -- ./inp_files/33287.got.cif
#   From: 2010.05.17/outbox.cif.g08.bks.cpg/sg71_17_cif.got.tgz:33287.got - 2010.06.03 16:22:01.
