data_PCOD9522339
_publ_section_title
;
Structure prediction by ZEFSAII (Michael W. Deem and Ramdas Pophale) SiO2 
 PCOD9522339
Probable space group: I M M M
;
_chemical_formula_sum "Si O2"
_cell_formula_units_Z 96
_cell_length_a 24.045043
_cell_length_b 25.701549
_cell_length_c 8.836682
_cell_angle_alpha 90.000000
_cell_angle_beta 90.000000
_cell_angle_gamma 90.000000
_cell_volume 5461.023975
_symmetry_space_group_name_H-M "I M M M"
_symmetry_group_IT_number 71
_symmetry_cell_setting 'orthorhombic'
loop_
_space_group_symop_operation_xyz
x,y,z
-x,-y,z
x,-y,-z
-x,y,-z
-x,-y,-z
x,y,-z
-x,y,z
x,-y,z
1/2+x,1/2+y,1/2+z
1/2-x,1/2-y,1/2+z
1/2+x,1/2-y,1/2-z
1/2-x,1/2+y,1/2-z
1/2-x,1/2-y,1/2-z
1/2+x,1/2+y,1/2-z
1/2-x,1/2+y,1/2+z
1/2+x,1/2-y,1/2+z
loop_
_atom_site_type_symbol
_atom_site_label
_atom_site_fract_x
_atom_site_fract_y
_atom_site_fract_z
Si Si1 0.687510 0.311070 0.819420
Si Si2 0.000000 0.061047 0.681395
Si Si3 0.807903 0.000000 0.819053
Si Si4 0.500000 0.061808 0.318700
Si Si5 0.883765 0.594626 0.318504
Si Si6 0.385315 0.599230 0.680691
Si Si7 0.313768 0.000000 0.680587
Si Si8 0.192982 0.309532 0.318867
O O1 0.643430 0.348797 0.741980
O O2 0.749695 0.324469 0.763157
O O3 0.678979 0.250178 0.779910
O O4 0.684311 0.316570 0.000000
O O5 0.944686 0.087657 0.745420
O O6 0.000000 0.063542 0.500000
O O7 0.000000 0.000000 0.726837
O O8 0.844363 0.050881 0.783443
O O9 0.750253 0.000000 0.730553
O O10 0.796389 0.000000 0.000000
O O11 0.500000 0.066619 0.500000
O O12 0.555301 0.087016 0.250073
O O13 0.500000 0.000000 0.282098
O O14 0.885966 0.588750 0.500000
O O15 0.844438 0.550169 0.249321
O O16 0.855677 0.650072 0.282948
O O17 0.391235 0.601526 0.500000
O O18 0.319238 0.000000 0.500000
O O19 0.202971 0.311701 0.500000
#
# Coordination Sequence:
#
# PCOD9522339 Si02
#       8
#    16   8   8   8  16  16   8  16
#     4  10  20  36  59  87 118 151 189 237 289 336
#     4  11  23  39  60  85 114 149 192 240 290 340
#     4  10  22  37  54  79 113 150 185 228 278 336
#     4  11  23  39  58  83 115 146 183 235 285 331
#     4  11  22  38  60  82 109 149 193 229 274 341
#     4  11  22  38  59  83 114 152 194 233 280 342
#     4  12  24  35  52  83 118 146 179 232 287 332
#     4   9  20  38  59  85 116 151 191 235 285 341
#
# _framework density 17.579121000000001
#
# number of rings (size 3 to 8) (size 9 to 14) (size 15 to 20)
#    0.000    1.500    1.667    3.750    0.000    8.000 
#    0.000    0.833    0.000    2.000    0.000    0.000 
#    0.000    0.000    0.000    0.000    0.000    0.000 
#
# Total GULP energy -268286.524254 kJ/mol
# GULP energy per Si atom -5589.302589 kJ/mol
# Density = 1.753911 g / cm^3
# Si number density = 17.579121 Si / 1000 Ang^3
#
#
#
# Elastic Constant Matrix: (Units=GPa)
#
#
# Indices 1 2 3 4 5 6 
#
# 1 179.2443 94.9556 76.3639 0.0000 0.0000 0.0000
# 2 94.9556 109.0088 56.5982 0.0000 0.0000 0.0000
# 3 76.3639 56.5982 66.0999 0.0000 0.0000 0.0000
# 4 0.0000 0.0000 0.0000 25.0736 0.0000 0.0000
# 5 0.0000 0.0000 0.0000 0.0000 21.8494 0.0000
# 6 0.0000 0.0000 0.0000 0.0000 0.0000 10.3900
#
#
#
# Elastic Compliance Matrix: (Units=1/GPa)
#
#
# Indices 1 2 3 4 5 6 
#
# 1 0.013058 -0.006377 -0.009625 0.000000 0.000000 0.000000
# 2 -0.006377 0.019631 -0.009442 0.000000 0.000000 0.000000
# 3 -0.009625 -0.009442 0.034333 0.000000 0.000000 0.000000
# 4 0.000000 0.000000 0.000000 0.039883 0.000000 0.000000
# 5 0.000000 0.000000 0.000000 0.000000 0.045768 0.000000
# 6 0.000000 0.000000 0.000000 0.000000 0.000000 0.096247
#
#
# Mechanical properties :
#
#
# Convention : Reuss Voigt Hill
#
# Bulk Modulus (GPa) = 61.98175 90.02092 76.00133
# Shear Modulus (GPa) = 16.38359 19.89161 18.13760
#
# Velocity S-wave (km/s) = 3.05617 3.36750 3.21560
# Velocity P-wave (km/s) = 6.91294 8.15109 7.55741
#
# Compressibility (1/GPa) = 0.01613378
#
# Stress axis : x y z
#
# Youngs Moduli (GPa) = 76.58223 50.94095 29.12677
#
# Poissons Ratio (x) = 0.32485 0.28035
# Poissons Ratio (y) = 0.48837 0.27500
# Poissons Ratio (z) = 0.73712 0.48096
#
# Static dielectric constant tensor:
#      x y z
#    x 1.557840 0.000000 0.000000 
#    y 0.000000 1.590640 0.000000 
#    z 0.000000 0.000000 1.585530 
# 
# From -- ./inp_files/12969.got.cif
#   From: 2010.05.17/outbox.cif.g08.bks.cpg/sg71_7_cif.got.tgz:12969.got - 2010.06.03 16:22:01.
