data_PCOD9522163
_publ_section_title
;
Structure prediction by ZEFSAII (Michael W. Deem and Ramdas Pophale) SiO2 
 PCOD9522163
Probable space group: I M M M
;
_chemical_formula_sum "Si O2"
_cell_formula_units_Z 88
_cell_length_a 11.241984
_cell_length_b 18.155877
_cell_length_c 22.106301
_cell_angle_alpha 90.000000
_cell_angle_beta 90.000000
_cell_angle_gamma 90.000000
_cell_volume 4512.074625
_symmetry_space_group_name_H-M "I M M M"
_symmetry_group_IT_number 71
_symmetry_cell_setting 'orthorhombic'
loop_
_space_group_symop_operation_xyz
x,y,z
-x,-y,z
x,-y,-z
-x,y,-z
-x,-y,-z
x,y,-z
-x,y,z
x,-y,z
1/2+x,1/2+y,1/2+z
1/2-x,1/2-y,1/2+z
1/2+x,1/2-y,1/2-z
1/2-x,1/2+y,1/2-z
1/2-x,1/2-y,1/2-z
1/2+x,1/2+y,1/2-z
1/2-x,1/2+y,1/2+z
1/2+x,1/2-y,1/2+z
loop_
_atom_site_type_symbol
_atom_site_label
_atom_site_fract_x
_atom_site_fract_y
_atom_site_fract_z
Si Si1 0.231491 0.192935 0.098129
Si Si2 0.500000 0.202952 0.575900
Si Si3 0.500000 0.907632 0.310151
Si Si4 0.860179 0.913325 0.000000
Si Si5 0.640966 0.580981 0.177966
Si Si6 0.359010 0.330487 0.063820
Si Si7 0.278574 0.834964 0.765347
O O1 0.115428 0.247443 0.094495
O O2 0.198466 0.123926 0.057823
O O3 0.332297 0.244912 0.070113
O O4 0.278571 0.166086 0.162683
O O5 0.500000 0.192641 0.500000
O O6 0.500000 0.131399 0.622119
O O7 0.612082 0.872704 0.271610
O O8 0.500000 0.000000 0.311186
O O9 0.000000 0.894359 0.000000
O O10 0.847597 0.000000 0.000000
O O11 0.500000 0.576415 0.170506
O O12 0.693403 0.500000 0.175235
O O13 0.689769 0.628989 0.122649
O O14 0.667601 0.618930 0.240832
O O15 0.500000 0.342379 0.062811
O O16 0.308306 0.358091 0.000000
O O17 0.250000 0.750000 0.750000
#
# Coordination Sequence:
#
# PCOD9522163 Si02
#       7
#    16   8   8   8  16  16  16
#     4  12  22  40  66  93 126 165 222 274 321 398
#     4  12  22  41  74 106 129 173 225 281 343 407
#     4  12  28  47  66 103 148 180 225 285 341 409
#     4  11  24  42  65  95 129 158 206 285 349 384
#     4  10  22  39  60  92 130 160 207 267 321 384
#     4  10  20  35  61  90 121 165 209 251 308 379
#     4  12  25  39  68  93 127 178 226 267 330 396
#
# _framework density 19.503223999999999
#
# number of rings (size 3 to 8) (size 9 to 14) (size 15 to 20)
#    0.000    0.818    6.364    0.545    3.818    2.000 
#    0.000    3.636    0.000    4.909    0.000    0.000 
#    0.000    0.000    0.000    0.000    0.000    0.000 
#
# Total GULP energy -245101.690200 kJ/mol
# GULP energy per Si atom -5570.492959 kJ/mol
# Density = 1.945883 g / cm^3
# Si number density = 19.503224 Si / 1000 Ang^3
#
#
#
# Elastic Constant Matrix: (Units=GPa)
#
#
# Indices 1 2 3 4 5 6 
#
# 1 45.3617 19.0427 20.7496 0.0000 0.0000 0.0000
# 2 19.0427 89.5192 42.3397 0.0000 0.0000 0.0000
# 3 20.7496 42.3397 131.3439 0.0000 0.0000 0.0000
# 4 0.0000 0.0000 0.0000 46.8083 0.0000 0.0000
# 5 0.0000 0.0000 0.0000 0.0000 22.0710 0.0000
# 6 0.0000 0.0000 0.0000 0.0000 0.0000 26.7750
#
#
#
# Elastic Compliance Matrix: (Units=1/GPa)
#
#
# Indices 1 2 3 4 5 6 
#
# 1 0.024955 -0.004063 -0.002632 0.000000 0.000000 0.000000
# 2 -0.004063 0.013842 -0.003820 0.000000 0.000000 0.000000
# 3 -0.002632 -0.003820 0.009261 0.000000 0.000000 0.000000
# 4 0.000000 0.000000 0.000000 0.021364 0.000000 0.000000
# 5 0.000000 0.000000 0.000000 0.000000 0.045308 0.000000
# 6 0.000000 0.000000 0.000000 0.000000 0.000000 0.037348
#
#
# Mechanical properties :
#
#
# Convention : Reuss Voigt Hill
#
# Bulk Modulus (GPa) = 37.00164 47.83211 42.41687
# Shear Modulus (GPa) = 27.45459 31.40370 29.42914
#
# Velocity S-wave (km/s) = 3.75600 4.01706 3.88872
# Velocity P-wave (km/s) = 6.15006 6.78927 6.47755
#
# Compressibility (1/GPa) = 0.02702583
#
# Stress axis : x y z
#
# Youngs Moduli (GPa) = 40.07216 72.24411 107.98052
#
# Poissons Ratio (x) = 0.29356 0.28426
# Poissons Ratio (y) = 0.16283 0.41250
# Poissons Ratio (z) = 0.10549 0.27598
#
# Static dielectric constant tensor:
#      x y z
#    x 1.748940 0.000000 0.000000 
#    y 0.000000 1.698460 0.000000 
#    z 0.000000 0.000000 1.694360 
# 
# From -- ./inp_files/51839.got.cif
#   From: 2010.05.17/outbox.cif.g08.bks.cpg/sg71_26_cif.got.tgz:51839.got - 2010.06.03 16:22:01.
