data_PCOD9522708
_publ_section_title
;
Structure prediction by ZEFSAII (Michael W. Deem and Ramdas Pophale) SiO2 
 PCOD9522708
Probable space group: I M M M
;
_chemical_formula_sum "Si O2"
_cell_formula_units_Z 80
_cell_length_a 22.296720
_cell_length_b 7.247646
_cell_length_c 19.680803
_cell_angle_alpha 90.000000
_cell_angle_beta 90.000000
_cell_angle_gamma 90.000000
_cell_volume 3180.392839
_symmetry_space_group_name_H-M "I M M M"
_symmetry_group_IT_number 71
_symmetry_cell_setting 'orthorhombic'
loop_
_space_group_symop_operation_xyz
x,y,z
-x,-y,z
x,-y,-z
-x,y,-z
-x,-y,-z
x,y,-z
-x,y,z
x,-y,z
1/2+x,1/2+y,1/2+z
1/2-x,1/2-y,1/2+z
1/2+x,1/2-y,1/2-z
1/2-x,1/2+y,1/2-z
1/2-x,1/2-y,1/2-z
1/2+x,1/2+y,1/2-z
1/2-x,1/2+y,1/2+z
1/2+x,1/2-y,1/2+z
loop_
_atom_site_type_symbol
_atom_site_label
_atom_site_fract_x
_atom_site_fract_y
_atom_site_fract_z
Si Si1 0.260241 0.275890 0.423792
Si Si2 0.065385 0.288450 0.777623
Si Si3 0.166975 0.278711 0.684371
Si Si4 0.400368 0.722395 0.426037
Si Si5 0.066359 0.277044 0.576067
O O1 0.237313 0.219689 0.500000
O O2 0.255442 0.500000 0.424015
O O3 0.226814 0.212484 0.354731
O O4 0.330090 0.227052 0.421648
O O5 0.064040 0.500000 0.752086
O O6 0.129701 0.212863 0.750655
O O7 0.068048 0.289363 0.858651
O O8 0.000000 0.208247 0.757723
O O9 0.176078 0.500000 0.692789
O O10 0.117378 0.230906 0.627867
O O11 0.423038 0.782404 0.500000
O O12 0.403861 0.500000 0.424641
O O13 0.078609 0.213372 0.500000
O O14 0.065409 0.500000 0.574058
O O15 0.000000 0.216032 0.595892
#
# Coordination Sequence:
#
# PCOD9522708 Si02
#       5
#    16  16  16  16  16
#     4   8  14  26  46  71  96 124 160 198 234 276
#     4  10  21  34  48  71 102 131 158 192 237 287
#     4   9  15  24  40  63  95 130 156 183 228 282
#     4   9  19  36  55  73  93 119 157 205 248 285
#     4   8  12  17  28  50  82 121 160 190 217 258
#
# _framework density 25.154123999999999
#
# number of rings (size 3 to 8) (size 9 to 14) (size 15 to 20)
#    0.000    3.200    0.000    3.000    0.000    6.800 
#    0.000    2.000    0.000    0.000    0.000    0.000 
#    0.000    2.400    0.000    9.800    0.000   10.000 
#
# Total GULP energy -223070.225175 kJ/mol
# GULP energy per Si atom -5576.755629 kJ/mol
# Density = 2.509687 g / cm^3
# Si number density = 25.154124 Si / 1000 Ang^3
#
#
#
# Elastic Constant Matrix: (Units=GPa)
#
#
# Indices 1 2 3 4 5 6 
#
# 1 75.0625 -0.6204 35.6592 0.0000 0.0000 0.0000
# 2 -0.6204 108.3915 -4.2860 0.0000 0.0000 0.0000
# 3 35.6592 -4.2860 138.0097 0.0000 0.0000 0.0000
# 4 0.0000 0.0000 0.0000 -27.1599 0.0000 0.0000
# 5 0.0000 0.0000 0.0000 0.0000 26.1168 0.0000
# 6 0.0000 0.0000 0.0000 0.0000 0.0000 -33.4989
#
#
#
# Elastic Compliance Matrix: (Units=1/GPa)
#
#
# Indices 1 2 3 4 5 6 
#
# 1 0.015187 -0.000068 -0.003926 0.000000 0.000000 0.000000
# 2 -0.000068 0.009237 0.000305 0.000000 0.000000 0.000000
# 3 -0.003926 0.000305 0.008270 0.000000 0.000000 0.000000
# 4 0.000000 0.000000 0.000000 -0.036819 0.000000 0.000000
# 5 0.000000 0.000000 0.000000 0.000000 0.038290 0.000000
# 6 0.000000 0.000000 0.000000 0.000000 0.000000 -0.029852
#
#
# Mechanical properties :
#
#
# Convention : Reuss Voigt Hill
#
# Bulk Modulus (GPa) = 39.50348 42.55213 41.02780
# Shear Modulus (GPa) = 248.37629 12.47232 130.42431
#
# Velocity S-wave (km/s) = 9.94767 2.22915 7.20851
# Velocity P-wave (km/s) = 12.15237 4.85580 9.25362
#
# Compressibility (1/GPa) = 0.02531423
#
# Stress axis : x y z
#
# Youngs Moduli (GPa) = 65.84665 108.25477 120.92246
#
# Poissons Ratio (x) = 0.00740 0.47476
# Poissons Ratio (y) = 0.00450 -0.03682
# Poissons Ratio (z) = 0.25852 -0.03297
#
# Static dielectric constant tensor:
#      x y z
#    x 1.984040 0.000000 0.000000 
#    y 0.000000 2.121130 0.000000 
#    z 0.000000 0.000000 1.992210 
# 
# From -- ./inp_files/38957.got.cif
#   From: 2010.05.17/outbox.cif.g08.bks.cpg/sg71_20_cif.got.tgz:38957.got - 2010.06.03 16:22:01.
