data_PCOD9522959
_publ_section_title
;
Structure prediction by ZEFSAII (Michael W. Deem and Ramdas Pophale) SiO2 
 PCOD9522959
Probable space group: I M M M
;
_chemical_formula_sum "Si O2"
_cell_formula_units_Z 104
_cell_length_a 7.769071
_cell_length_b 23.733782
_cell_length_c 28.621095
_cell_angle_alpha 90.000000
_cell_angle_beta 90.000000
_cell_angle_gamma 90.000000
_cell_volume 5277.427606
_symmetry_space_group_name_H-M "I M M M"
_symmetry_group_IT_number 71
_symmetry_cell_setting 'orthorhombic'
loop_
_space_group_symop_operation_xyz
x,y,z
-x,-y,z
x,-y,-z
-x,y,-z
-x,-y,-z
x,y,-z
-x,y,z
x,-y,z
1/2+x,1/2+y,1/2+z
1/2-x,1/2-y,1/2+z
1/2+x,1/2-y,1/2-z
1/2-x,1/2+y,1/2-z
1/2-x,1/2-y,1/2-z
1/2+x,1/2+y,1/2-z
1/2-x,1/2+y,1/2+z
1/2+x,1/2-y,1/2+z
loop_
_atom_site_type_symbol
_atom_site_label
_atom_site_fract_x
_atom_site_fract_y
_atom_site_fract_z
Si Si1 0.295473 0.275282 0.946543
Si Si2 0.305862 0.565571 0.000000
Si Si3 0.204978 0.705077 0.789918
Si Si4 0.202006 0.000000 0.240628
Si Si5 0.702150 0.000000 0.347627
Si Si6 0.800021 0.708219 0.363633
Si Si7 0.207001 0.377872 0.285287
Si Si8 0.694301 0.892844 0.596961
O O1 0.500000 0.266507 0.950257
O O2 0.224054 0.224421 0.914145
O O3 0.271454 0.332470 0.916765
O O4 0.227898 0.280270 0.000000
O O5 0.202425 0.579516 0.953901
O O6 0.332173 0.500000 0.000000
O O7 0.500000 0.592809 0.000000
O O8 0.250000 0.750000 0.750000
O O9 0.290936 0.733370 0.834371
O O10 0.264389 0.647374 0.765269
O O11 0.000000 0.703111 0.797885
O O12 0.287209 0.000000 0.291885
O O13 0.250331 0.943219 0.213364
O O14 0.000000 0.000000 0.248863
O O15 0.773609 0.058916 0.369178
O O16 0.500000 0.000000 0.361675
O O17 0.726089 0.660248 0.328671
O O18 0.000000 0.693164 0.370505
O O19 0.000000 0.370854 0.285080
O O20 0.500000 0.882150 0.613813
#
# Coordination Sequence:
#
# PCOD9522959 Si02
#       8
#    16   8  16   8   8  16  16  16
#     4  10  21  36  54  81 114 143 175 223 274 317
#     4  11  21  33  51  71  95 133 181 234 283 318
#     4   9  17  30  51  77 104 137 175 216 262 312
#     4  12  26  38  55  81 107 135 175 227 272 319
#     4  10  24  41  53  70 103 145 185 226 270 316
#     4   9  19  35  56  80 106 142 181 215 263 323
#     4   9  19  37  56  75 105 142 176 215 267 325
#     4  11  22  36  53  72  99 140 187 227 267 318
#
# _framework density 19.706569999999999
#
# number of rings (size 3 to 8) (size 9 to 14) (size 15 to 20)
#    0.000    2.077    1.538    2.769    2.154    5.231 
#    0.000    0.000    0.000    0.000    0.000    0.538 
#    0.000    4.308    0.000    0.000    0.000    0.000 
#
# Total GULP energy -289629.591871 kJ/mol
# GULP energy per Si atom -5569.799844 kJ/mol
# Density = 1.966172 g / cm^3
# Si number density = 19.706570 Si / 1000 Ang^3
#
#
#
# Elastic Constant Matrix: (Units=GPa)
#
#
# Indices 1 2 3 4 5 6 
#
# 1 35.1649 -2.2492 -1.9199 0.0000 0.0000 0.0000
# 2 -2.2492 124.7165 68.1990 0.0000 0.0000 0.0000
# 3 -1.9199 68.1990 112.5600 0.0000 0.0000 0.0000
# 4 0.0000 0.0000 0.0000 20.2460 0.0000 0.0000
# 5 0.0000 0.0000 0.0000 0.0000 8.9533 0.0000
# 6 0.0000 0.0000 0.0000 0.0000 0.0000 -7.0777
#
#
#
# Elastic Compliance Matrix: (Units=1/GPa)
#
#
# Indices 1 2 3 4 5 6 
#
# 1 0.028475 0.000371 0.000261 0.000000 0.000000 0.000000
# 2 0.000371 0.011996 -0.007262 0.000000 0.000000 0.000000
# 3 0.000261 -0.007262 0.013288 0.000000 0.000000 0.000000
# 4 0.000000 0.000000 0.000000 0.049392 0.000000 0.000000
# 5 0.000000 0.000000 0.000000 0.000000 0.111691 0.000000
# 6 0.000000 0.000000 0.000000 0.000000 0.000000 -0.141288
#
#
# Mechanical properties :
#
#
# Convention : Reuss Voigt Hill
#
# Bulk Modulus (GPa) = 24.69151 44.50012 34.59582
# Shear Modulus (GPa) = 49.84309 18.31842 34.08075
#
# Velocity S-wave (km/s) = 5.03463 3.05217 4.16313
# Velocity P-wave (km/s) = 6.80834 5.92042 6.37985
#
# Compressibility (1/GPa) = 0.04049975
#
# Stress axis : x y z
#
# Youngs Moduli (GPa) = 35.11802 83.36181 75.25305
#
# Poissons Ratio (x) = -0.03091 -0.01964
# Poissons Ratio (y) = -0.01302 0.54648
# Poissons Ratio (z) = -0.00917 0.60536
#
# Static dielectric constant tensor:
#      x y z
#    x 1.766570 0.000000 0.000000 
#    y 0.000000 1.717990 0.000000 
#    z 0.000000 0.000000 1.832030 
# 
# From -- ./inp_files/63590.got.cif
#   From: 2010.05.17/outbox.cif.g08.bks.cpg/sg71_32_cif.got.tgz:63590.got - 2010.06.03 16:22:01.
