data_PCOD9522141
_publ_section_title
;
Structure prediction by ZEFSAII (Michael W. Deem and Ramdas Pophale) SiO2 
 PCOD9522141
Probable space group: I M M M
;
_chemical_formula_sum "Si O2"
_cell_formula_units_Z 104
_cell_length_a 14.829705
_cell_length_b 18.929779
_cell_length_c 19.179640
_cell_angle_alpha 90.000000
_cell_angle_beta 90.000000
_cell_angle_gamma 90.000000
_cell_volume 5384.166814
_symmetry_space_group_name_H-M "I M M M"
_symmetry_group_IT_number 71
_symmetry_cell_setting 'orthorhombic'
loop_
_space_group_symop_operation_xyz
x,y,z
-x,-y,z
x,-y,-z
-x,y,-z
-x,-y,-z
x,y,-z
-x,y,z
x,-y,z
1/2+x,1/2+y,1/2+z
1/2-x,1/2-y,1/2+z
1/2+x,1/2-y,1/2-z
1/2-x,1/2+y,1/2-z
1/2-x,1/2-y,1/2-z
1/2+x,1/2+y,1/2-z
1/2-x,1/2+y,1/2+z
1/2+x,1/2-y,1/2+z
loop_
_atom_site_type_symbol
_atom_site_label
_atom_site_fract_x
_atom_site_fract_y
_atom_site_fract_z
Si Si1 0.717135 0.845751 0.919782
Si Si2 0.105174 0.640513 0.838647
Si Si3 0.727178 0.717001 0.174306
Si Si4 0.890938 0.500000 0.921529
Si Si5 0.102156 0.419470 0.312524
Si Si6 0.393131 0.418358 0.786853
Si Si7 0.104329 0.082244 0.118352
O O1 0.687978 0.776161 0.876727
O O2 0.668794 0.906849 0.875493
O O3 0.822774 0.865223 0.913742
O O4 0.690849 0.842235 0.000000
O O5 0.175910 0.699047 0.859032
O O6 0.131827 0.569887 0.879374
O O7 0.118549 0.626676 0.756211
O O8 0.000000 0.656002 0.850695
O O9 0.750000 0.750000 0.250000
O O10 0.667551 0.645693 0.183047
O O11 0.000000 0.500000 0.925150
O O12 0.855046 0.500000 0.000000
O O13 0.107831 0.500000 0.287813
O O14 0.000000 0.405910 0.335936
O O15 0.500000 0.409265 0.803764
O O16 0.367514 0.500000 0.806312
O O17 0.385713 0.414168 0.702641
O O18 0.000000 0.098661 0.101634
O O19 0.120689 0.000000 0.098141
#
# Coordination Sequence:
#
# PCOD9522141 Si02
#       7
#    16  16  16   8  16  16  16
#     4  12  26  40  53  82 124 158 196 246 298 348
#     4  10  20  35  59  89 119 151 190 237 286 348
#     4  12  23  37  60  89 114 157 199 241 294 355
#     4   9  18  34  58  90 122 150 184 233 294 348
#     4  10  20  37  62  88 113 150 199 243 287 346
#     4   9  19  37  64  93 115 143 194 253 296 341
#     4   9  18  35  60  88 118 154 195 238 288 351
#
# _framework density 19.315894
#
# number of rings (size 3 to 8) (size 9 to 14) (size 15 to 20)
#    0.000    1.769    3.846    1.385    1.077    5.538 
#    0.000    1.538    0.000    0.000    0.000    1.077 
#    0.000    0.000    0.000    0.000    0.000    0.000 
#
# Total GULP energy -290068.364046 kJ/mol
# GULP energy per Si atom -5578.237770 kJ/mol
# Density = 1.927193 g / cm^3
# Si number density = 19.315894 Si / 1000 Ang^3
#
#
#
# Elastic Constant Matrix: (Units=GPa)
#
#
# Indices 1 2 3 4 5 6 
#
# 1 55.7914 30.4300 14.0338 0.0000 0.0000 0.0000
# 2 30.4300 66.6073 2.6555 0.0000 0.0000 0.0000
# 3 14.0338 2.6555 50.1685 0.0000 0.0000 0.0000
# 4 0.0000 0.0000 0.0000 13.5625 0.0000 0.0000
# 5 0.0000 0.0000 0.0000 0.0000 10.8707 0.0000
# 6 0.0000 0.0000 0.0000 0.0000 0.0000 2.7671
#
#
#
# Elastic Compliance Matrix: (Units=1/GPa)
#
#
# Indices 1 2 3 4 5 6 
#
# 1 0.025903 -0.011569 -0.006633 0.000000 0.000000 0.000000
# 2 -0.011569 0.020213 0.002166 0.000000 0.000000 0.000000
# 3 -0.006633 0.002166 0.021674 0.000000 0.000000 0.000000
# 4 0.000000 0.000000 0.000000 0.073733 0.000000 0.000000
# 5 0.000000 0.000000 0.000000 0.000000 0.091990 0.000000
# 6 0.000000 0.000000 0.000000 0.000000 0.000000 0.361391
#
#
# Mechanical properties :
#
#
# Convention : Reuss Voigt Hill
#
# Bulk Modulus (GPa) = 27.99847 29.64509 28.82178
# Shear Modulus (GPa) = 7.82618 13.80324 10.81471
#
# Velocity S-wave (km/s) = 2.01506 2.67611 2.36876
# Velocity P-wave (km/s) = 4.46548 4.99295 4.73656
#
# Compressibility (1/GPa) = 0.03571624
#
# Stress axis : x y z
#
# Youngs Moduli (GPa) = 38.60602 49.47423 46.13876
#
# Poissons Ratio (x) = 0.57238 0.30606
# Poissons Ratio (y) = 0.44665 -0.09996
# Poissons Ratio (z) = 0.25609 -0.10718
#
# Static dielectric constant tensor:
#      x y z
#    x 1.728660 0.000000 0.000000 
#    y 0.000000 1.701050 0.000000 
#    z 0.000000 0.000000 1.653530 
# 
# From -- ./inp_files/36684.got.cif
#   From: 2010.05.17/outbox.cif.g08.bks.cpg/sg71_19_cif.got.tgz:36684.got - 2010.06.03 16:22:01.
