data_PCOD9522851
_publ_section_title
;
Structure prediction by ZEFSAII (Michael W. Deem and Ramdas Pophale) SiO2 
 PCOD9522851
Probable space group: I M M M
;
_chemical_formula_sum "Si O2"
_cell_formula_units_Z 100
_cell_length_a 7.449873
_cell_length_b 29.622341
_cell_length_c 21.610708
_cell_angle_alpha 90.000000
_cell_angle_beta 90.000000
_cell_angle_gamma 90.000000
_cell_volume 4769.108924
_symmetry_space_group_name_H-M "I M M M"
_symmetry_group_IT_number 71
_symmetry_cell_setting 'orthorhombic'
loop_
_space_group_symop_operation_xyz
x,y,z
-x,-y,z
x,-y,-z
-x,y,-z
-x,-y,-z
x,y,-z
-x,y,z
x,-y,z
1/2+x,1/2+y,1/2+z
1/2-x,1/2-y,1/2+z
1/2+x,1/2-y,1/2-z
1/2-x,1/2+y,1/2-z
1/2-x,1/2-y,1/2-z
1/2+x,1/2+y,1/2-z
1/2-x,1/2+y,1/2+z
1/2+x,1/2-y,1/2+z
loop_
_atom_site_type_symbol
_atom_site_label
_atom_site_fract_x
_atom_site_fract_y
_atom_site_fract_z
Si Si1 0.000000 0.901561 0.000000
Si Si2 0.716775 0.796294 0.820237
Si Si3 0.292982 0.860136 0.567894
Si Si4 0.282357 0.113543 0.110863
Si Si5 0.706704 0.193215 0.682577
Si Si6 0.790358 0.051110 0.631874
Si Si7 0.284323 0.948416 0.227921
O O1 0.158607 0.900412 0.945878
O O2 0.500000 0.792268 0.816559
O O3 0.756461 0.834575 0.870052
O O4 0.782785 0.810915 0.751803
O O5 0.788699 0.746415 0.832838
O O6 0.212786 0.853301 0.500000
O O7 0.500000 0.844691 0.564392
O O8 0.209072 0.833882 0.625913
O O9 0.293228 0.912518 0.586591
O O10 0.500000 0.109267 0.100137
O O11 0.235176 0.083549 0.171240
O O12 0.500000 0.177408 0.688152
O O13 0.772248 0.066349 0.703454
O O14 0.000000 0.049480 0.617041
O O15 0.717634 0.000000 0.628294
O O16 0.500000 0.949182 0.229060
O O17 0.220092 0.000000 0.218803
#
# Coordination Sequence:
#
# PCOD9522851 Si02
#       7
#     4  16  16  16  16  16  16
#     4  12  26  40  61  88 116 168 206 226 305 362
#     4   9  18  34  57  83 112 146 187 244 301 340
#     4  10  21  37  54  77 111 153 197 237 284 346
#     4  10  22  41  60  86 122 156 201 251 289 357
#     4   9  18  34  56  83 112 143 189 244 292 350
#     4  10  21  35  55  85 116 146 188 241 289 345
#     4   9  18  36  63  89 115 149 189 241 300 345
#
# _framework density 20.968277
#
# number of rings (size 3 to 8) (size 9 to 14) (size 15 to 20)
#    0.000    2.400    0.000    1.680    2.240    4.800 
#    1.440    2.400    0.000    1.920    0.000    0.000 
#    0.000    0.000    0.000    0.000    0.000    0.000 
#
# Total GULP energy -278530.278618 kJ/mol
# GULP energy per Si atom -5570.605572 kJ/mol
# Density = 2.092055 g / cm^3
# Si number density = 20.968277 Si / 1000 Ang^3
#
#
#
# Elastic Constant Matrix: (Units=GPa)
#
#
# Indices 1 2 3 4 5 6 
#
# 1 76.0396 -1.7274 9.3358 0.0000 0.0000 0.0000
# 2 -1.7274 43.6135 35.7947 0.0000 0.0000 0.0000
# 3 9.3358 35.7947 89.3800 0.0000 0.0000 0.0000
# 4 0.0000 0.0000 0.0000 3.5601 0.0000 0.0000
# 5 0.0000 0.0000 0.0000 0.0000 7.4544 0.0000
# 6 0.0000 0.0000 0.0000 0.0000 0.0000 9.0198
#
#
#
# Elastic Compliance Matrix: (Units=1/GPa)
#
#
# Indices 1 2 3 4 5 6 
#
# 1 0.013506 0.002521 -0.002420 0.000000 0.000000 0.000000
# 2 0.002521 0.034625 -0.014130 0.000000 0.000000 0.000000
# 3 -0.002420 -0.014130 0.017100 0.000000 0.000000 0.000000
# 4 0.000000 0.000000 0.000000 0.280889 0.000000 0.000000
# 5 0.000000 0.000000 0.000000 0.000000 0.134148 0.000000
# 6 0.000000 0.000000 0.000000 0.000000 0.000000 0.110867
#
#
# Mechanical properties :
#
#
# Convention : Reuss Voigt Hill
#
# Bulk Modulus (GPa) = 26.90155 32.87101 29.88628
# Shear Modulus (GPa) = 7.91660 15.04888 11.48274
#
# Velocity S-wave (km/s) = 1.94518 2.68189 2.34268
# Velocity P-wave (km/s) = 4.23113 5.02997 4.64775
#
# Compressibility (1/GPa) = 0.03717258
#
# Stress axis : x y z
#
# Youngs Moduli (GPa) = 74.04390 28.88051 58.48036
#
# Poissons Ratio (x) = -0.07282 0.14155
# Poissons Ratio (y) = -0.18670 0.82633
# Poissons Ratio (z) = 0.17922 0.40808
#
# Static dielectric constant tensor:
#      x y z
#    x 1.800890 0.000000 0.000000 
#    y 0.000000 1.758710 0.000000 
#    z 0.000000 0.000000 1.738580 
# 
# From -- ./inp_files/51195.got.cif
#   From: 2010.05.17/outbox.cif.g08.bks.cpg/sg71_26_cif.got.tgz:51195.got - 2010.06.03 16:22:01.
