data_PCOD9522650
_publ_section_title
;
Structure prediction by ZEFSAII (Michael W. Deem and Ramdas Pophale) SiO2 
 PCOD9522650
Probable space group: I M M M
;
_chemical_formula_sum "Si O2"
_cell_formula_units_Z 104
_cell_length_a 28.060344
_cell_length_b 22.832904
_cell_length_c 8.477647
_cell_angle_alpha 90.000000
_cell_angle_beta 90.000000
_cell_angle_gamma 90.000000
_cell_volume 5431.621149
_symmetry_space_group_name_H-M "I M M M"
_symmetry_group_IT_number 71
_symmetry_cell_setting 'orthorhombic'
loop_
_space_group_symop_operation_xyz
x,y,z
-x,-y,z
x,-y,-z
-x,y,-z
-x,-y,-z
x,y,-z
-x,y,z
x,-y,z
1/2+x,1/2+y,1/2+z
1/2-x,1/2-y,1/2+z
1/2+x,1/2-y,1/2-z
1/2-x,1/2+y,1/2-z
1/2-x,1/2-y,1/2-z
1/2+x,1/2+y,1/2-z
1/2-x,1/2+y,1/2+z
1/2+x,1/2-y,1/2+z
loop_
_atom_site_type_symbol
_atom_site_label
_atom_site_fract_x
_atom_site_fract_y
_atom_site_fract_z
Si Si1 0.000000 0.931379 0.811532
Si Si2 0.710298 0.500000 0.690181
Si Si3 0.574301 0.336805 0.186000
Si Si4 0.680238 0.000000 0.691036
Si Si5 0.053428 0.296210 0.690246
Si Si6 0.171430 0.121775 0.814028
Si Si7 0.238312 0.313933 0.810775
Si Si8 0.639540 0.125394 0.689504
O O1 0.044817 0.890944 0.759346
O O2 0.000000 0.000000 0.754328
O O3 0.000000 0.934397 0.000000
O O4 0.715621 0.500000 0.500000
O O5 0.764124 0.500000 0.757387
O O6 0.678505 0.444827 0.735555
O O7 0.561422 0.271286 0.245361
O O8 0.629818 0.346594 0.220293
O O9 0.564260 0.337636 0.000000
O O10 0.653163 0.059407 0.743627
O O11 0.680729 0.000000 0.500000
O O12 0.055715 0.294583 0.500000
O O13 0.092919 0.342095 0.747087
O O14 0.000000 0.313870 0.737754
O O15 0.223064 0.147144 0.776853
O O16 0.160809 0.126109 0.000000
O O17 0.250000 0.250000 0.750000
O O18 0.185264 0.334606 0.770818
O O19 0.243937 0.318458 0.000000
O O20 0.635658 0.123003 0.500000
#
# Coordination Sequence:
#
# PCOD9522650 Si02
#       8
#     8   8  16   8  16  16  16  16
#     4  11  25  43  63  89 123 162 205 258 317 371
#     4  10  22  38  58  84 120 162 202 245 296 360
#     4  11  23  42  65  90 121 162 210 257 310 367
#     4  10  20  40  63  87 123 160 204 256 303 370
#     4  10  22  42  64  88 120 156 201 257 311 366
#     4  11  23  38  57  87 123 157 199 246 295 358
#     4  11  22  37  57  85 120 158 199 246 303 363
#     4  10  22  38  61  90 119 157 203 252 310 372
#
# _framework density 19.147138999999999
#
# number of rings (size 3 to 8) (size 9 to 14) (size 15 to 20)
#    0.000    1.462    2.308    2.538    1.077    7.077 
#    0.000    0.385    0.000    2.308    0.000    0.000 
#    0.000    0.000    0.000    0.000    0.000    0.000 
#
# Total GULP energy -290269.100476 kJ/mol
# GULP energy per Si atom -5582.098086 kJ/mol
# Density = 1.910356 g / cm^3
# Si number density = 19.147139 Si / 1000 Ang^3
#
#
#
# Elastic Constant Matrix: (Units=GPa)
#
#
# Indices 1 2 3 4 5 6 
#
# 1 124.8275 42.5600 14.0620 0.0000 0.0000 0.0000
# 2 42.5600 102.1523 22.2184 0.0000 0.0000 0.0000
# 3 14.0620 22.2184 14.1743 0.0000 0.0000 0.0000
# 4 0.0000 0.0000 0.0000 25.5015 0.0000 0.0000
# 5 0.0000 0.0000 0.0000 0.0000 36.3564 0.0000
# 6 0.0000 0.0000 0.0000 0.0000 0.0000 28.7468
#
#
#
# Elastic Compliance Matrix: (Units=1/GPa)
#
#
# Indices 1 2 3 4 5 6 
#
# 1 0.009558 -0.002913 -0.004916 0.000000 0.000000 0.000000
# 2 -0.002913 0.015741 -0.021785 0.000000 0.000000 0.000000
# 3 -0.004916 -0.021785 0.109576 0.000000 0.000000 0.000000
# 4 0.000000 0.000000 0.000000 0.039213 0.000000 0.000000
# 5 0.000000 0.000000 0.000000 0.000000 0.027505 0.000000
# 6 0.000000 0.000000 0.000000 0.000000 0.000000 0.034786
#
#
# Mechanical properties :
#
#
# Convention : Reuss Voigt Hill
#
# Bulk Modulus (GPa) = 13.21929 44.31499 28.76714
# Shear Modulus (GPa) = 15.58488 28.94185 22.26337
#
# Velocity S-wave (km/s) = 2.85608 3.89208 3.41361
# Velocity P-wave (km/s) = 4.21845 6.58729 5.53117
#
# Compressibility (1/GPa) = 0.07564702
#
# Stress axis : x y z
#
# Youngs Moduli (GPa) = 104.62391 63.52784 9.12611
#
# Poissons Ratio (x) = 0.18505 0.04487
# Poissons Ratio (y) = 0.30476 0.19881
# Poissons Ratio (z) = 0.51437 1.38393
#
# Static dielectric constant tensor:
#      x y z
#    x 1.638360 0.000000 0.000000 
#    y 0.000000 1.639340 0.000000 
#    z 0.000000 0.000000 1.665720 
# 
# From -- ./inp_files/15082.got.cif
#   From: 2010.05.17/outbox.cif.g08.bks.cpg/sg71_8_cif.got.tgz:15082.got - 2010.06.03 16:22:01.
