data_PCOD9522620
_publ_section_title
;
Structure prediction by ZEFSAII (Michael W. Deem and Ramdas Pophale) SiO2 
 PCOD9522620
Probable space group: I M M M
;
_chemical_formula_sum "Si O2"
_cell_formula_units_Z 96
_cell_length_a 11.599069
_cell_length_b 23.274816
_cell_length_c 19.910465
_cell_angle_alpha 90.000000
_cell_angle_beta 90.000000
_cell_angle_gamma 90.000000
_cell_volume 5375.152512
_symmetry_space_group_name_H-M "I M M M"
_symmetry_group_IT_number 71
_symmetry_cell_setting 'orthorhombic'
loop_
_space_group_symop_operation_xyz
x,y,z
-x,-y,z
x,-y,-z
-x,y,-z
-x,-y,-z
x,y,-z
-x,y,z
x,-y,z
1/2+x,1/2+y,1/2+z
1/2-x,1/2-y,1/2+z
1/2+x,1/2-y,1/2-z
1/2-x,1/2+y,1/2-z
1/2-x,1/2-y,1/2-z
1/2+x,1/2+y,1/2-z
1/2-x,1/2+y,1/2+z
1/2+x,1/2-y,1/2+z
loop_
_atom_site_type_symbol
_atom_site_label
_atom_site_fract_x
_atom_site_fract_y
_atom_site_fract_z
Si Si1 0.000000 0.563083 0.858221
Si Si2 0.500000 0.190352 0.579813
Si Si3 0.859324 0.065318 0.500000
Si Si4 0.138852 0.436186 0.500000
Si Si5 0.363024 0.370857 0.866379
Si Si6 0.860556 0.360672 0.629093
Si Si7 0.283348 0.933432 0.741850
Si Si8 0.747997 0.757403 0.417575
O O1 0.000000 0.624078 0.896237
O O2 0.889635 0.563923 0.809793
O O3 0.000000 0.500000 0.894108
O O4 0.500000 0.188070 0.500000
O O5 0.616135 0.224767 0.598914
O O6 0.818434 0.094953 0.567866
O O7 0.000000 0.067520 0.500000
O O8 0.822859 0.000000 0.500000
O O9 0.187908 0.500000 0.500000
O O10 0.168071 0.401555 0.433631
O O11 0.000000 0.440372 0.500000
O O12 0.500000 0.373905 0.865601
O O13 0.314876 0.400548 0.799853
O O14 0.323407 0.306608 0.882040
O O15 0.821662 0.394927 0.695191
O O16 0.792050 0.302178 0.613639
O O17 0.000000 0.350777 0.630951
O O18 0.254578 0.000000 0.759654
O O19 0.762473 0.757270 0.500000
#
# Coordination Sequence:
#
# PCOD9522620 Si02
#       8
#     8   8   8   8  16  16  16  16
#     4  10  20  39  62  85 118 160 205 252 305 357
#     4  10  22  41  62  88 123 165 208 249 294 370
#     4   9  18  33  55  81 114 155 198 244 288 340
#     4   9  18  33  59  93 120 147 197 260 315 368
#     4  11  22  37  60  90 124 163 206 249 304 361
#     4  11  22  38  63  92 121 158 203 257 318 369
#     4  11  23  40  61  87 125 164 201 252 310 368
#     4  11  22  40  63  90 124 160 201 256 309 369
#
# _framework density 17.859957999999999
#
# number of rings (size 3 to 8) (size 9 to 14) (size 15 to 20)
#    0.000    1.500    4.167    1.500    0.000    3.167 
#    1.500    0.000    0.000    0.000    0.000    0.583 
#    0.000    0.000    0.000    0.000    0.000    0.000 
#
# Total GULP energy -267730.840685 kJ/mol
# GULP energy per Si atom -5577.725848 kJ/mol
# Density = 1.781931 g / cm^3
# Si number density = 17.859958 Si / 1000 Ang^3
#
#
#
# Elastic Constant Matrix: (Units=GPa)
#
#
# Indices 1 2 3 4 5 6 
#
# 1 83.7807 59.1445 48.0754 0.0000 0.0000 0.0000
# 2 59.1445 192.4531 61.5555 0.0000 0.0000 0.0000
# 3 48.0754 61.5555 73.2214 0.0000 0.0000 0.0000
# 4 0.0000 0.0000 0.0000 26.6825 0.0000 0.0000
# 5 0.0000 0.0000 0.0000 0.0000 28.4329 0.0000
# 6 0.0000 0.0000 0.0000 0.0000 0.0000 21.6079
#
#
#
# Elastic Compliance Matrix: (Units=1/GPa)
#
#
# Indices 1 2 3 4 5 6 
#
# 1 0.020112 -0.002677 -0.010954 0.000000 0.000000 0.000000
# 2 -0.002677 0.007463 -0.004517 0.000000 0.000000 0.000000
# 3 -0.010954 -0.004517 0.024647 0.000000 0.000000 0.000000
# 4 0.000000 0.000000 0.000000 0.037478 0.000000 0.000000
# 5 0.000000 0.000000 0.000000 0.000000 0.035170 0.000000
# 6 0.000000 0.000000 0.000000 0.000000 0.000000 0.046279
#
#
# Mechanical properties :
#
#
# Convention : Reuss Voigt Hill
#
# Bulk Modulus (GPa) = 62.79170 76.33402 69.56286
# Shear Modulus (GPa) = 23.50137 27.38999 25.44568
#
# Velocity S-wave (km/s) = 3.63143 3.92037 3.77866
# Velocity P-wave (km/s) = 7.26754 7.95773 7.62045
#
# Compressibility (1/GPa) = 0.01592567
#
# Stress axis : x y z
#
# Youngs Moduli (GPa) = 49.72268 133.98719 40.57358
#
# Poissons Ratio (x) = 0.35868 0.44445
# Poissons Ratio (y) = 0.13311 0.18326
# Poissons Ratio (z) = 0.54468 0.60518
#
# Static dielectric constant tensor:
#      x y z
#    x 1.620980 0.000000 0.000000 
#    y 0.000000 1.638860 0.000000 
#    z 0.000000 0.000000 1.594380 
# 
# From -- ./inp_files/43610.got.cif
#   From: 2010.05.17/outbox.cif.g08.bks.cpg/sg71_22_cif.got.tgz:43610.got - 2010.06.03 16:22:01.
