data_PCOD9522120
_publ_section_title
;
Structure prediction by ZEFSAII (Michael W. Deem and Ramdas Pophale) SiO2 
 PCOD9522120
Probable space group: I M M M
;
_chemical_formula_sum "Si O2"
_cell_formula_units_Z 88
_cell_length_a 7.720569
_cell_length_b 28.680659
_cell_length_c 21.219776
_cell_angle_alpha 90.000000
_cell_angle_beta 90.000000
_cell_angle_gamma 90.000000
_cell_volume 4698.716363
_symmetry_space_group_name_H-M "I M M M"
_symmetry_group_IT_number 71
_symmetry_cell_setting 'orthorhombic'
loop_
_space_group_symop_operation_xyz
x,y,z
-x,-y,z
x,-y,-z
-x,y,-z
-x,-y,-z
x,y,-z
-x,y,z
x,-y,z
1/2+x,1/2+y,1/2+z
1/2-x,1/2-y,1/2+z
1/2+x,1/2-y,1/2-z
1/2-x,1/2+y,1/2-z
1/2-x,1/2-y,1/2-z
1/2+x,1/2+y,1/2-z
1/2-x,1/2+y,1/2+z
1/2+x,1/2-y,1/2+z
loop_
_atom_site_type_symbol
_atom_site_label
_atom_site_fract_x
_atom_site_fract_y
_atom_site_fract_z
Si Si1 0.500000 0.445086 0.185804
Si Si2 0.000000 0.878699 0.573732
Si Si3 0.207073 0.553465 0.500000
Si Si4 0.706326 0.375615 0.610971
Si Si5 0.294108 0.818005 0.361841
Si Si6 0.289843 0.273539 0.429797
Si Si7 0.304476 0.113478 0.254009
O O1 0.500000 0.500000 0.189156
O O2 0.500000 0.425548 0.114895
O O3 0.666397 0.423023 0.220055
O O4 0.169834 0.849746 0.595332
O O5 0.000000 0.886359 0.500000
O O6 0.273059 0.500000 0.500000
O O7 0.260950 0.583165 0.561313
O O8 0.000000 0.551397 0.500000
O O9 0.500000 0.372270 0.620018
O O10 0.769627 0.325962 0.583921
O O11 0.787273 0.382914 0.679311
O O12 0.500000 0.822902 0.376569
O O13 0.243686 0.764842 0.377594
O O14 0.269143 0.837722 0.291032
O O15 0.232547 0.258775 0.500000
O O16 0.500000 0.275333 0.431011
O O17 0.500000 0.099725 0.270679
#
# Coordination Sequence:
#
# PCOD9522120 Si02
#       7
#     8   8   8  16  16  16  16
#     4  10  22  41  62  85 116 152 191 245 300 344
#     4  10  20  35  58  90 121 151 196 236 279 353
#     4  11  25  43  59  81 115 153 199 252 305 356
#     4  11  21  38  61  85 115 152 193 246 300 350
#     4   9  19  36  57  84 120 160 194 235 285 340
#     4   9  17  32  55  82 116 155 193 233 286 348
#     4  10  21  39  61  85 116 153 197 243 291 350
#
# _framework density 18.728518999999999
#
# number of rings (size 3 to 8) (size 9 to 14) (size 15 to 20)
#    0.000    2.091    1.818    1.364    0.000    3.818 
#    3.273    0.000    0.000    0.000    0.000    5.091 
#    0.000    0.000    0.000    0.000    0.000    0.000 
#
# Total GULP energy -245478.348837 kJ/mol
# GULP energy per Si atom -5579.053383 kJ/mol
# Density = 1.868589 g / cm^3
# Si number density = 18.728519 Si / 1000 Ang^3
#
#
#
# Elastic Constant Matrix: (Units=GPa)
#
#
# Indices 1 2 3 4 5 6 
#
# 1 70.9789 30.8298 22.5059 0.0000 0.0000 0.0000
# 2 30.8298 159.5035 67.9945 0.0000 0.0000 0.0000
# 3 22.5059 67.9945 141.2889 0.0000 0.0000 0.0000
# 4 0.0000 0.0000 0.0000 18.5744 0.0000 0.0000
# 5 0.0000 0.0000 0.0000 0.0000 -22.4238 0.0000
# 6 0.0000 0.0000 0.0000 0.0000 0.0000 11.5124
#
#
#
# Elastic Compliance Matrix: (Units=1/GPa)
#
#
# Indices 1 2 3 4 5 6 
#
# 1 0.015567 -0.002456 -0.001298 0.000000 0.000000 0.000000
# 2 -0.002456 0.008275 -0.003591 0.000000 0.000000 0.000000
# 3 -0.001298 -0.003591 0.009013 0.000000 0.000000 0.000000
# 4 0.000000 0.000000 0.000000 0.053838 0.000000 0.000000
# 5 0.000000 0.000000 0.000000 0.000000 -0.044596 0.000000
# 6 0.000000 0.000000 0.000000 0.000000 0.000000 0.086863
#
#
# Mechanical properties :
#
#
# Convention : Reuss Voigt Hill
#
# Bulk Modulus (GPa) = 55.05028 68.27018 61.66023
# Shear Modulus (GPa) = 33.39936 18.22868 25.81402
#
# Velocity S-wave (km/s) = 4.22755 3.12318 3.71661
# Velocity P-wave (km/s) = 7.29980 7.03827 7.17023
#
# Compressibility (1/GPa) = 0.01816521
#
# Stress axis : x y z
#
# Youngs Moduli (GPa) = 64.23921 120.84685 110.95526
#
# Poissons Ratio (x) = 0.29675 0.14401
# Poissons Ratio (y) = 0.15774 0.39845
# Poissons Ratio (z) = 0.08338 0.43398
#
# Static dielectric constant tensor:
#      x y z
#    x 1.672410 0.000000 0.000000 
#    y 0.000000 1.634680 0.000000 
#    z 0.000000 0.000000 1.638720 
# 
# From -- ./inp_files/51101.got.cif
#   From: 2010.05.17/outbox.cif.g08.bks.cpg/sg71_26_cif.got.tgz:51101.got - 2010.06.03 16:22:01.
