data_PCOD9522907
_publ_section_title
;
Structure prediction by ZEFSAII (Michael W. Deem and Ramdas Pophale) SiO2 
 PCOD9522907
Probable space group: I M M M
;
_chemical_formula_sum "Si O2"
_cell_formula_units_Z 120
_cell_length_a 8.771608
_cell_length_b 27.763888
_cell_length_c 28.228561
_cell_angle_alpha 90.000000
_cell_angle_beta 90.000000
_cell_angle_gamma 90.000000
_cell_volume 6874.612740
_symmetry_space_group_name_H-M "I M M M"
_symmetry_group_IT_number 71
_symmetry_cell_setting 'orthorhombic'
loop_
_space_group_symop_operation_xyz
x,y,z
-x,-y,z
x,-y,-z
-x,y,-z
-x,-y,-z
x,y,-z
-x,y,z
x,-y,z
1/2+x,1/2+y,1/2+z
1/2-x,1/2-y,1/2+z
1/2+x,1/2-y,1/2-z
1/2-x,1/2+y,1/2-z
1/2-x,1/2-y,1/2-z
1/2+x,1/2+y,1/2-z
1/2-x,1/2+y,1/2+z
1/2+x,1/2-y,1/2+z
loop_
_atom_site_type_symbol
_atom_site_label
_atom_site_fract_x
_atom_site_fract_y
_atom_site_fract_z
Si Si1 0.817609 0.817514 0.055490
Si Si2 0.315912 0.354401 0.860138
Si Si3 0.183026 0.899500 0.783708
Si Si4 0.316826 0.906298 0.886884
Si Si5 0.317558 0.055038 0.689386
Si Si6 0.817626 0.199303 0.264558
Si Si7 0.185584 0.500000 0.554009
Si Si8 0.683691 0.287168 0.945376
O O1 0.744786 0.857873 0.088702
O O2 0.757395 0.764142 0.067337
O O3 0.000000 0.818801 0.059814
O O4 0.777425 0.826577 0.000000
O O5 0.500000 0.359306 0.858974
O O6 0.244396 0.405881 0.847884
O O7 0.271674 0.318924 0.816800
O O8 0.271011 0.329005 0.909022
O O9 0.252781 0.912207 0.834138
O O10 0.246653 0.931029 0.740350
O O11 0.224153 0.844154 0.770817
O O12 0.000000 0.903361 0.784666
O O13 0.500000 0.904769 0.885449
O O14 0.267772 0.951949 0.918470
O O15 0.500000 0.059016 0.692541
O O16 0.277739 0.000000 0.677391
O O17 0.750000 0.250000 0.250000
O O18 0.000000 0.203245 0.264422
O O19 0.239847 0.500000 0.500000
O O20 0.000000 0.500000 0.553108
O O21 0.500000 0.282006 0.942502
O O22 0.723658 0.297945 0.000000
#
# Coordination Sequence:
#
# PCOD9522907 Si02
#       8
#    16  16  16  16  16  16   8  16
#     4  10  21  36  53  77 109 143 182 227 273 324
#     4   9  19  35  54  80 110 142 181 222 272 326
#     4  10  22  38  53  78 110 141 178 219 272 325
#     4  11  22  36  57  80 104 138 181 229 280 332
#     4  10  21  37  58  82 108 140 182 225 266 323
#     4   9  19  33  49  72 105 139 174 214 257 315
#     4   9  20  38  57  77 101 133 179 233 282 325
#     4   9  18  34  57  84 113 146 184 224 266 320
#
# _framework density 17.455528999999999
#
# number of rings (size 3 to 8) (size 9 to 14) (size 15 to 20)
#    0.000    2.333    0.000    2.800    2.800    5.600 
#    0.000    1.000    0.000    2.800    0.000    2.800 
#    0.000    0.000    0.000    0.000    0.000    0.000 
#
# Total GULP energy -334902.622192 kJ/mol
# GULP energy per Si atom -5581.710370 kJ/mol
# Density = 1.741580 g / cm^3
# Si number density = 17.455529 Si / 1000 Ang^3
#
#
#
# Elastic Constant Matrix: (Units=GPa)
#
#
# Indices 1 2 3 4 5 6 
#
# 1 35.0771 44.3231 36.8826 0.0000 0.0000 0.0000
# 2 44.3231 154.1012 87.7692 0.0000 0.0000 0.0000
# 3 36.8826 87.7692 120.6054 0.0000 0.0000 0.0000
# 4 0.0000 0.0000 0.0000 16.3693 0.0000 0.0000
# 5 0.0000 0.0000 0.0000 0.0000 24.5618 0.0000
# 6 0.0000 0.0000 0.0000 0.0000 0.0000 25.0141
#
#
#
# Elastic Compliance Matrix: (Units=1/GPa)
#
#
# Indices 1 2 3 4 5 6 
#
# 1 0.048994 -0.009493 -0.008075 0.000000 0.000000 0.000000
# 2 -0.009493 0.012922 -0.006501 0.000000 0.000000 0.000000
# 3 -0.008075 -0.006501 0.015492 0.000000 0.000000 0.000000
# 4 0.000000 0.000000 0.000000 0.061090 0.000000 0.000000
# 5 0.000000 0.000000 0.000000 0.000000 0.040714 0.000000
# 6 0.000000 0.000000 0.000000 0.000000 0.000000 0.039977
#
#
# Mechanical properties :
#
#
# Convention : Reuss Voigt Hill
#
# Bulk Modulus (GPa) = 34.16335 71.97040 53.06687
# Shear Modulus (GPa) = 18.04510 22.57629 20.31070
#
# Velocity S-wave (km/s) = 3.21873 3.60023 3.41481
# Velocity P-wave (km/s) = 5.78167 7.65522 6.78344
#
# Compressibility (1/GPa) = 0.02927113
#
# Stress axis : x y z
#
# Youngs Moduli (GPa) = 20.41063 77.38561 64.54995
#
# Poissons Ratio (x) = 0.73461 0.52122
# Poissons Ratio (y) = 0.19376 0.41964
# Poissons Ratio (z) = 0.16481 0.50309
#
# Static dielectric constant tensor:
#      x y z
#    x 1.587370 0.000000 0.000000 
#    y 0.000000 1.573080 0.000000 
#    z 0.000000 0.000000 1.585920 
# 
# From -- ./inp_files/63851.got.cif
#   From: 2010.05.17/outbox.cif.g08.bks.cpg/sg71_32_cif.got.tgz:63851.got - 2010.06.03 16:22:01.
