data_PCOD9522011
_publ_section_title
;
Structure prediction by ZEFSAII (Michael W. Deem and Ramdas Pophale) SiO2 
 PCOD9522011
Probable space group: I M M M
;
_chemical_formula_sum "Si O2"
_cell_formula_units_Z 88
_cell_length_a 23.319322
_cell_length_b 8.702821
_cell_length_c 22.966362
_cell_angle_alpha 90.000000
_cell_angle_beta 90.000000
_cell_angle_gamma 90.000000
_cell_volume 4660.882733
_symmetry_space_group_name_H-M "I M M M"
_symmetry_group_IT_number 71
_symmetry_cell_setting 'orthorhombic'
loop_
_space_group_symop_operation_xyz
x,y,z
-x,-y,z
x,-y,-z
-x,y,-z
-x,-y,-z
x,y,-z
-x,y,z
x,-y,z
1/2+x,1/2+y,1/2+z
1/2-x,1/2-y,1/2+z
1/2+x,1/2-y,1/2-z
1/2-x,1/2+y,1/2-z
1/2-x,1/2-y,1/2-z
1/2+x,1/2+y,1/2-z
1/2-x,1/2+y,1/2+z
1/2+x,1/2-y,1/2+z
loop_
_atom_site_type_symbol
_atom_site_label
_atom_site_fract_x
_atom_site_fract_y
_atom_site_fract_z
Si Si1 0.672860 0.680670 0.000000
Si Si2 0.211430 0.813950 0.873713
Si Si3 0.437844 0.183235 0.790547
Si Si4 0.589992 0.685320 0.333490
Si Si5 0.206142 0.177496 0.000000
Si Si6 0.500000 0.686783 0.432150
Si Si7 0.661631 0.680843 0.869217
O O1 0.644032 0.703377 0.937341
O O2 0.693206 0.500000 0.000000
O O3 0.725272 0.800311 0.000000
O O4 0.157624 0.775133 0.833793
O O5 0.190533 0.756690 0.937640
O O6 0.274032 0.747343 0.861044
O O7 0.216818 0.000000 0.876150
O O8 0.500000 0.230912 0.815432
O O9 0.435194 0.242638 0.724536
O O10 0.384933 0.246524 0.827209
O O11 0.434898 0.000000 0.790337
O O12 0.585516 0.500000 0.330458
O O13 0.554979 0.730865 0.391979
O O14 0.187694 0.000000 0.000000
O O15 0.500000 0.500000 0.435129
O O16 0.500000 0.740118 0.500000
O O17 0.664557 0.500000 0.858250
#
# Coordination Sequence:
#
# PCOD9522011 Si02
#       7
#     8  16  16  16   8   8  16
#     4   8  16  32  53  81 111 138 171 214 265 321
#     4   9  18  31  51  82 115 146 182 226 276 326
#     4  11  24  41  59  78 106 145 187 230 279 331
#     4  10  20  35  57  83 113 150 191 232 275 325
#     4   8  14  26  46  74 111 147 177 212 262 323
#     4   9  18  32  55  87 119 150 191 240 277 315
#     4  10  20  36  60  85 112 144 180 223 273 331
#
# _framework density 18.880544
#
# number of rings (size 3 to 8) (size 9 to 14) (size 15 to 20)
#    0.000    2.455    0.909    1.091    1.273    3.273 
#    0.000    0.455    0.000    3.818    0.000    0.000 
#    0.000    0.000    0.000    0.000    0.000    0.000 
#
# Total GULP energy -245010.426040 kJ/mol
# GULP energy per Si atom -5568.418774 kJ/mol
# Density = 1.883757 g / cm^3
# Si number density = 18.880544 Si / 1000 Ang^3
#
#
#
# Elastic Constant Matrix: (Units=GPa)
#
#
# Indices 1 2 3 4 5 6 
#
# 1 144.0007 38.7781 69.4136 0.0000 0.0000 0.0000
# 2 38.7781 28.4453 29.8278 0.0000 0.0000 0.0000
# 3 69.4136 29.8278 86.8561 0.0000 0.0000 0.0000
# 4 0.0000 0.0000 0.0000 17.1588 0.0000 0.0000
# 5 0.0000 0.0000 0.0000 0.0000 28.6841 0.0000
# 6 0.0000 0.0000 0.0000 0.0000 0.0000 12.1148
#
#
#
# Elastic Compliance Matrix: (Units=1/GPa)
#
#
# Indices 1 2 3 4 5 6 
#
# 1 0.013112 -0.010763 -0.006783 0.000000 0.000000 0.000000
# 2 -0.010763 0.063773 -0.013299 0.000000 0.000000 0.000000
# 3 -0.006783 -0.013299 0.021501 0.000000 0.000000 0.000000
# 4 0.000000 0.000000 0.000000 0.058279 0.000000 0.000000
# 5 0.000000 0.000000 0.000000 0.000000 0.034862 0.000000
# 6 0.000000 0.000000 0.000000 0.000000 0.000000 0.082544
#
#
# Mechanical properties :
#
#
# Convention : Reuss Voigt Hill
#
# Bulk Modulus (GPa) = 27.25045 59.48236 43.36640
# Shear Modulus (GPa) = 14.36801 19.67705 17.02253
#
# Velocity S-wave (km/s) = 2.76161 3.23179 3.00591
# Velocity P-wave (km/s) = 4.96317 6.74529 5.92166
#
# Compressibility (1/GPa) = 0.03669664
#
# Stress axis : x y z
#
# Youngs Moduli (GPa) = 76.26368 15.68052 46.50858
#
# Poissons Ratio (x) = 0.16877 0.31547
# Poissons Ratio (y) = 0.82081 0.61854
# Poissons Ratio (z) = 0.51730 0.20854
#
# Static dielectric constant tensor:
#      x y z
#    x 1.658450 0.000000 0.000000 
#    y 0.000000 1.647450 0.000000 
#    z 0.000000 0.000000 1.693280 
# 
# From -- ./inp_files/10525.got.cif
#   From: 2010.05.17/outbox.cif.g08.bks.cpg/sg71_6_cif.got.tgz:10525.got - 2010.06.03 16:22:01.
