data_PCOD9522034
_publ_section_title
;
Structure prediction by ZEFSAII (Michael W. Deem and Ramdas Pophale) SiO2 
 PCOD9522034
Probable space group: I M M M
;
_chemical_formula_sum "Si O2"
_cell_formula_units_Z 82
_cell_length_a 20.758400
_cell_length_b 24.086410
_cell_length_c 9.535355
_cell_angle_alpha 90.000000
_cell_angle_beta 90.000000
_cell_angle_gamma 90.000000
_cell_volume 4767.633002
_symmetry_space_group_name_H-M "I M M M"
_symmetry_group_IT_number 71
_symmetry_cell_setting 'orthorhombic'
loop_
_space_group_symop_operation_xyz
x,y,z
-x,-y,z
x,-y,-z
-x,y,-z
-x,-y,-z
x,y,-z
-x,y,z
x,-y,z
1/2+x,1/2+y,1/2+z
1/2-x,1/2-y,1/2+z
1/2+x,1/2-y,1/2-z
1/2-x,1/2+y,1/2-z
1/2-x,1/2-y,1/2-z
1/2+x,1/2+y,1/2-z
1/2-x,1/2+y,1/2+z
1/2+x,1/2-y,1/2+z
loop_
_atom_site_type_symbol
_atom_site_label
_atom_site_fract_x
_atom_site_fract_y
_atom_site_fract_z
Si Si1 0.863462 0.116747 0.169293
Si Si2 0.123683 0.642579 0.164899
Si Si3 0.000000 0.064389 0.829622
Si Si4 0.254757 0.064644 0.666720
Si Si5 0.500000 0.000000 0.000000
Si Si6 0.500000 0.114032 0.154086
Si Si7 0.185245 0.761215 0.835361
O O1 0.934220 0.095417 0.212632
O O2 0.807708 0.081826 0.245063
O O3 0.849677 0.181320 0.203702
O O4 0.858551 0.110403 0.000000
O O5 0.185548 0.604775 0.203301
O O6 0.063156 0.628563 0.259242
O O7 0.141395 0.707079 0.182209
O O8 0.110330 0.632397 0.000000
O O9 0.000000 0.000000 0.783381
O O10 0.000000 0.064005 0.000000
O O11 0.242120 0.071813 0.500000
O O12 0.270893 0.000000 0.691068
O O13 0.500000 0.950981 0.880790
O O14 0.500000 0.142225 0.000000
O O15 0.250000 0.750000 0.750000
O O16 0.201920 0.765337 0.000000
#
# Coordination Sequence:
#
# PCOD9522034 Si02
#       7
#    16  16   8  16   2   8  16
#     4  10  20  35  57  85 109 147 192 235 285 337
#     4  10  21  38  59  83 112 153 192 236 288 353
#     4   9  18  33  53  78 115 148 181 227 277 330
#     4  10  21  35  54  81 113 148 190 235 283 341
#     4   8  24  44  58  80 124 148 186 246 310 336
#     4  10  23  40  58  82 114 149 187 240 294 338
#     4  10  20  35  58  85 115 147 188 236 287 339
#
# _framework density 17.199310000000001
#
# number of rings (size 3 to 8) (size 9 to 14) (size 15 to 20)
#    0.293    1.854    1.951    0.878    1.366    3.512 
#    0.000    3.902    0.000    1.756    0.000    0.000 
#    0.000    0.000    0.000    0.000    0.000    0.000 
#
# Total GULP energy -228369.692323 kJ/mol
# GULP energy per Si atom -5569.992496 kJ/mol
# Density = 1.716016 g / cm^3
# Si number density = 17.199310 Si / 1000 Ang^3
#
#
#
# Elastic Constant Matrix: (Units=GPa)
#
#
# Indices 1 2 3 4 5 6 
#
# 1 149.2197 65.4353 61.0500 0.0000 0.0000 0.0000
# 2 65.4353 126.0586 38.1903 0.0000 0.0000 0.0000
# 3 61.0500 38.1903 40.1545 0.0000 0.0000 0.0000
# 4 0.0000 0.0000 0.0000 27.1024 0.0000 0.0000
# 5 0.0000 0.0000 0.0000 0.0000 11.8324 0.0000
# 6 0.0000 0.0000 0.0000 0.0000 0.0000 18.0447
#
#
#
# Elastic Compliance Matrix: (Units=1/GPa)
#
#
# Indices 1 2 3 4 5 6 
#
# 1 0.017923 -0.001472 -0.025849 0.000000 0.000000 0.000000
# 2 -0.001472 0.011265 -0.008475 0.000000 0.000000 0.000000
# 3 -0.025849 -0.008475 0.072265 0.000000 0.000000 0.000000
# 4 0.000000 0.000000 0.000000 0.036897 0.000000 0.000000
# 5 0.000000 0.000000 0.000000 0.000000 0.084513 0.000000
# 6 0.000000 0.000000 0.000000 0.000000 0.000000 0.055418
#
#
# Mechanical properties :
#
#
# Convention : Reuss Voigt Hill
#
# Bulk Modulus (GPa) = 33.49057 71.64268 52.56662
# Shear Modulus (GPa) = 13.89556 21.44639 17.67097
#
# Velocity S-wave (km/s) = 2.84547 3.53502 3.20882
# Velocity P-wave (km/s) = 5.50544 7.64243 6.66020
#
# Compressibility (1/GPa) = 0.02985915
#
# Stress axis : x y z
#
# Youngs Moduli (GPa) = 55.79493 88.77299 13.83796
#
# Poissons Ratio (x) = 0.13070 0.35770
# Poissons Ratio (y) = 0.08215 0.11728
# Poissons Ratio (z) = 1.44225 0.75237
#
# Static dielectric constant tensor:
#      x y z
#    x 1.548720 0.000000 0.000000 
#    y 0.000000 1.600410 0.000000 
#    z 0.000000 0.000000 1.584120 
# 
# From -- ./inp_files/10333.got.cif
#   From: 2010.05.17/outbox.cif.g08.bks.cpg/sg71_6_cif.got.tgz:10333.got - 2010.06.03 16:22:01.
