data_PCOD9522900
_publ_section_title
;
Structure prediction by ZEFSAII (Michael W. Deem and Ramdas Pophale) SiO2 
 PCOD9522900
Probable space group: I M M M
;
_chemical_formula_sum "Si O2"
_cell_formula_units_Z 72
_cell_length_a 8.108042
_cell_length_b 29.415824
_cell_length_c 15.547145
_cell_angle_alpha 90.000000
_cell_angle_beta 90.000000
_cell_angle_gamma 90.000000
_cell_volume 3708.067721
_symmetry_space_group_name_H-M "I M M M"
_symmetry_group_IT_number 71
_symmetry_cell_setting 'orthorhombic'
loop_
_space_group_symop_operation_xyz
x,y,z
-x,-y,z
x,-y,-z
-x,y,-z
-x,-y,-z
x,y,-z
-x,y,z
x,-y,z
1/2+x,1/2+y,1/2+z
1/2-x,1/2-y,1/2+z
1/2+x,1/2-y,1/2-z
1/2-x,1/2+y,1/2-z
1/2-x,1/2-y,1/2-z
1/2+x,1/2+y,1/2-z
1/2-x,1/2+y,1/2+z
1/2+x,1/2-y,1/2+z
loop_
_atom_site_type_symbol
_atom_site_label
_atom_site_fract_x
_atom_site_fract_y
_atom_site_fract_z
Si Si1 0.808287 0.186789 0.098395
Si Si2 0.808986 0.786612 0.402588
Si Si3 0.809070 0.358831 0.232162
Si Si4 0.688235 0.055244 0.000000
Si Si5 0.202739 0.447940 0.311878
O O1 0.794179 0.241032 0.113883
O O2 0.707360 0.162331 0.172587
O O3 0.000000 0.173654 0.105207
O O4 0.752086 0.178117 0.000000
O O5 0.772205 0.802197 0.500000
O O6 0.780314 0.825992 0.334197
O O7 0.000000 0.772468 0.399226
O O8 0.745976 0.410358 0.243120
O O9 0.000000 0.360114 0.206833
O O10 0.763932 0.066355 0.092433
O O11 0.500000 0.072729 0.000000
O O12 0.679019 0.000000 0.000000
O O13 0.251324 0.500000 0.294977
O O14 0.000000 0.447360 0.315886
#
# Coordination Sequence:
#
# PCOD9522900 Si02
#       5
#    16  16  16   8  16
#     4  10  21  36  53  75 107 141 171 207 250 301
#     4  10  21  38  57  74  97 132 174 217 259 307
#     4  11  21  31  52  81 107 135 169 213 258 306
#     4   7  10  20  38  60  91 129 163 195 231 275
#     4   8  15  27  44  70 103 136 169 206 247 291
#
# _framework density 19.417121000000002
#
# number of rings (size 3 to 8) (size 9 to 14) (size 15 to 20)
#    0.000    2.556    0.000    4.000    1.556    2.667 
#    0.000    0.000    0.000    3.333    0.000    6.222 
#    0.000    0.000    0.000    0.000    0.000    0.000 
#
# Total GULP energy -200850.077535 kJ/mol
# GULP energy per Si atom -5579.168820 kJ/mol
# Density = 1.937293 g / cm^3
# Si number density = 19.417121 Si / 1000 Ang^3
#
#
#
# Elastic Constant Matrix: (Units=GPa)
#
#
# Indices 1 2 3 4 5 6 
#
# 1 25.8355 -2.4483 -1.4067 0.0000 0.0000 0.0000
# 2 -2.4483 70.0331 33.9346 0.0001 0.0000 0.0000
# 3 -1.4067 33.9346 40.9191 0.0003 0.0000 0.0000
# 4 0.0000 0.0001 0.0003 26.5004 0.0000 0.0000
# 5 0.0000 0.0000 0.0000 0.0000 2.0358 0.0000
# 6 0.0000 0.0000 0.0000 0.0000 0.0000 9.4686
#
#
#
# Elastic Compliance Matrix: (Units=1/GPa)
#
#
# Indices 1 2 3 4 5 6 
#
# 1 0.038838 0.001188 0.000350 0.000000 0.000000 0.000000
# 2 0.001188 0.023908 -0.019786 0.000000 0.000000 0.000000
# 3 0.000350 -0.019786 0.040859 0.000000 0.000000 0.000000
# 4 0.000000 0.000000 0.000000 0.037735 0.000000 0.000000
# 5 0.000000 0.000000 0.000000 0.000000 0.491204 -0.000001
# 6 0.000000 0.000000 0.000000 0.000000 -0.000001 0.105612
#
#
# Mechanical properties :
#
#
# Convention : Reuss Voigt Hill
#
# Bulk Modulus (GPa) = 14.90116 21.88301 18.39208
# Shear Modulus (GPa) = 6.27335 14.71483 10.49409
#
# Velocity S-wave (km/s) = 1.79940 2.75585 2.32729
# Velocity P-wave (km/s) = 3.46526 4.62825 4.08832
#
# Compressibility (1/GPa) = 0.06710888
#
# Stress axis : x y z
#
# Youngs Moduli (GPa) = 25.74791 41.82718 24.47423
#
# Poissons Ratio (x) = -0.04970 -0.00856
# Poissons Ratio (y) = -0.03060 0.48425
# Poissons Ratio (z) = -0.00900 0.82760
#
# Static dielectric constant tensor:
#      x y z
#    x 1.672560 0.000000 0.000000 
#    y 0.000000 1.701420 0.000000 
#    z 0.000000 0.000000 1.671520 
# 
# From -- ./inp_files/6035.got.cif
#   From: 2010.05.17/outbox.cif.g08.bks.cpg/sg71_4_cif.got.tgz:6035.got - 2010.06.03 16:22:01.
