data_PCOD9522085
_publ_section_title
;
Structure prediction by ZEFSAII (Michael W. Deem and Ramdas Pophale) SiO2 
 PCOD9522085
Probable space group: I M M M
;
_chemical_formula_sum "Si O2"
_cell_formula_units_Z 88
_cell_length_a 22.265409
_cell_length_b 8.928272
_cell_length_c 24.294522
_cell_angle_alpha 90.000000
_cell_angle_beta 90.000000
_cell_angle_gamma 90.000000
_cell_volume 4829.547574
_symmetry_space_group_name_H-M "I M M M"
_symmetry_group_IT_number 71
_symmetry_cell_setting 'orthorhombic'
loop_
_space_group_symop_operation_xyz
x,y,z
-x,-y,z
x,-y,-z
-x,y,-z
-x,-y,-z
x,y,-z
-x,y,z
x,-y,z
1/2+x,1/2+y,1/2+z
1/2-x,1/2-y,1/2+z
1/2+x,1/2-y,1/2-z
1/2-x,1/2+y,1/2-z
1/2-x,1/2-y,1/2-z
1/2+x,1/2+y,1/2-z
1/2-x,1/2+y,1/2+z
1/2+x,1/2-y,1/2+z
loop_
_atom_site_type_symbol
_atom_site_label
_atom_site_fract_x
_atom_site_fract_y
_atom_site_fract_z
Si Si1 0.000000 0.181582 0.936412
Si Si2 0.732045 0.321902 0.690705
Si Si3 0.930955 0.672037 0.434390
Si Si4 0.067383 0.325419 0.732068
Si Si5 0.596329 0.319361 0.344985
Si Si6 0.154944 0.824789 0.646694
O O1 0.940465 0.222624 0.900402
O O2 0.000000 0.000000 0.938868
O O3 0.000000 0.235585 0.000000
O O4 0.733418 0.500000 0.698192
O O5 0.750000 0.250000 0.750000
O O6 0.667052 0.283595 0.664418
O O7 0.783696 0.266608 0.649819
O O8 0.924403 0.672764 0.500000
O O9 0.921510 0.500000 0.414904
O O10 0.884314 0.780091 0.405737
O O11 0.000000 0.712523 0.422223
O O12 0.084850 0.500000 0.730658
O O13 0.066647 0.264962 0.793836
O O14 0.114160 0.228002 0.697953
O O15 0.000000 0.312342 0.708946
O O16 0.590136 0.500000 0.339100
O O17 0.166899 0.000000 0.650071
#
# Coordination Sequence:
#
# PCOD9522085 Si02
#       6
#     8  16  16  16  16  16
#     4   9  18  36  63  91 117 147 186 239 296 349
#     4  11  22  36  55  83 117 156 195 236 291 352
#     4   9  19  38  62  85 112 148 190 239 292 343
#     4  11  22  34  53  82 115 150 187 236 294 349
#     4  10  20  35  58  85 113 145 187 238 290 350
#     4  12  24  36  54  82 117 157 195 237 284 340
#
# _framework density 18.221167999999999
#
# number of rings (size 3 to 8) (size 9 to 14) (size 15 to 20)
#    0.000    1.545    2.727    3.818    0.000    4.727 
#    0.000    1.818    0.000    4.364    0.000    0.000 
#    0.000    0.000    0.000    0.000    0.000    0.000 
#
# Total GULP energy -245540.393637 kJ/mol
# GULP energy per Si atom -5580.463492 kJ/mol
# Density = 1.817970 g / cm^3
# Si number density = 18.221168 Si / 1000 Ang^3
#
#
#
# Elastic Constant Matrix: (Units=GPa)
#
#
# Indices 1 2 3 4 5 6 
#
# 1 130.1149 42.3343 48.1406 0.0000 0.0000 0.0000
# 2 42.3343 37.7913 21.9557 0.0000 0.0000 0.0000
# 3 48.1406 21.9557 103.5733 0.0000 0.0000 0.0000
# 4 0.0000 0.0000 0.0000 24.7548 0.0000 0.0000
# 5 0.0000 0.0000 0.0000 0.0000 176.3204 0.0000
# 6 0.0000 0.0000 0.0000 0.0000 0.0000 19.7678
#
#
#
# Elastic Compliance Matrix: (Units=1/GPa)
#
#
# Indices 1 2 3 4 5 6 
#
# 1 0.013057 -0.012660 -0.003385 0.000000 0.000000 0.000000
# 2 -0.012660 0.042453 -0.003115 0.000000 0.000000 0.000000
# 3 -0.003385 -0.003115 0.011889 0.000000 0.000000 0.000000
# 4 0.000000 0.000000 0.000000 0.040396 0.000000 0.000000
# 5 0.000000 0.000000 0.000000 0.000000 0.005671 0.000000
# 6 0.000000 0.000000 0.000000 0.000000 0.000000 0.050587
#
#
# Mechanical properties :
#
#
# Convention : Reuss Voigt Hill
#
# Bulk Modulus (GPa) = 34.38989 55.14896 44.76942
# Shear Modulus (GPa) = 23.57753 54.77186 39.17470
#
# Velocity S-wave (km/s) = 3.60107 5.48860 4.64179
# Velocity P-wave (km/s) = 6.01705 8.39633 7.30422
#
# Compressibility (1/GPa) = 0.02907832
#
# Stress axis : x y z
#
# Youngs Moduli (GPa) = 76.58714 23.55567 84.11323
#
# Poissons Ratio (x) = 0.29821 0.28474
# Poissons Ratio (y) = 0.96959 0.26201
# Poissons Ratio (z) = 0.25926 0.07337
#
# Static dielectric constant tensor:
#      x y z
#    x 1.667310 0.000000 0.000000 
#    y 0.000000 1.607840 0.000000 
#    z 0.000000 0.000000 1.642690 
# 
# From -- ./inp_files/10474.got.cif
#   From: 2010.05.17/outbox.cif.g08.bks.cpg/sg71_6_cif.got.tgz:10474.got - 2010.06.03 16:22:01.
