data_PCOD9522123
_publ_section_title
;
Structure prediction by ZEFSAII (Michael W. Deem and Ramdas Pophale) SiO2 
 PCOD9522123
Probable space group: I M M M
;
_chemical_formula_sum "Si O2"
_cell_formula_units_Z 84
_cell_length_a 10.741576
_cell_length_b 14.849540
_cell_length_c 25.067686
_cell_angle_alpha 90.000000
_cell_angle_beta 90.000000
_cell_angle_gamma 90.000000
_cell_volume 3998.482984
_symmetry_space_group_name_H-M "I M M M"
_symmetry_group_IT_number 71
_symmetry_cell_setting 'orthorhombic'
loop_
_space_group_symop_operation_xyz
x,y,z
-x,-y,z
x,-y,-z
-x,y,-z
-x,-y,-z
x,y,-z
-x,y,z
x,-y,z
1/2+x,1/2+y,1/2+z
1/2-x,1/2-y,1/2+z
1/2+x,1/2-y,1/2-z
1/2-x,1/2+y,1/2-z
1/2-x,1/2-y,1/2-z
1/2+x,1/2+y,1/2-z
1/2-x,1/2+y,1/2+z
1/2+x,1/2-y,1/2+z
loop_
_atom_site_type_symbol
_atom_site_label
_atom_site_fract_x
_atom_site_fract_y
_atom_site_fract_z
Si Si1 0.363253 0.359632 0.784393
Si Si2 0.862384 0.264621 0.937008
Si Si3 0.636617 0.141647 0.210904
Si Si4 0.360608 0.602808 0.091367
Si Si5 0.000000 0.642999 0.500000
Si Si6 0.793171 0.396819 0.591247
O O1 0.500000 0.382857 0.762334
O O2 0.357522 0.250877 0.789882
O O3 0.249953 0.389658 0.747645
O O4 0.356180 0.396095 0.844401
O O5 0.752348 0.335871 0.927394
O O6 0.821784 0.171814 0.909755
O O7 0.000000 0.294783 0.918887
O O8 0.867602 0.248720 0.000000
O O9 0.500000 0.116060 0.231637
O O10 0.650590 0.108964 0.150460
O O11 0.500000 0.636636 0.075554
O O12 0.349181 0.500000 0.072464
O O13 0.891550 0.636107 0.453052
O O14 0.761183 0.500000 0.579012
#
# Coordination Sequence:
#
# PCOD9522123 Si02
#       6
#    16  16  16  16   4  16
#     4   9  19  37  60  88 127 166 207 258 319 380
#     4  11  26  44  64  92 128 171 212 261 328 392
#     4  10  20  35  58  91 126 164 211 261 313 381
#     4  10  22  42  69  97 124 162 214 267 320 382
#     4  12  25  40  66 102 133 172 223 282 326 376
#     4  12  24  40  65  96 130 170 219 268 322 382
#
# _framework density 21.007967000000001
#
# number of rings (size 3 to 8) (size 9 to 14) (size 15 to 20)
#    0.000    1.524    3.810    0.857    1.333    3.810 
#    0.000    2.857    0.000    0.000    0.000    0.000 
#    0.000    0.000    0.000    0.000    0.000    0.000 
#
# Total GULP energy -234178.635898 kJ/mol
# GULP energy per Si atom -5575.681807 kJ/mol
# Density = 2.096015 g / cm^3
# Si number density = 21.007967 Si / 1000 Ang^3
#
#
#
# Elastic Constant Matrix: (Units=GPa)
#
#
# Indices 1 2 3 4 5 6 
#
# 1 173.9791 52.5268 29.0919 0.0000 0.0000 0.0000
# 2 52.5268 80.7409 -12.1503 0.0000 0.0000 0.0000
# 3 29.0919 -12.1503 45.8742 0.0000 0.0000 0.0000
# 4 0.0000 0.0000 0.0000 -73.5567 0.0000 0.0000
# 5 0.0000 0.0000 0.0000 0.0000 27.3906 0.0000
# 6 0.0000 0.0000 0.0000 0.0000 0.0000 -8.9110
#
#
#
# Elastic Compliance Matrix: (Units=1/GPa)
#
#
# Indices 1 2 3 4 5 6 
#
# 1 0.009197 -0.007146 -0.007725 0.000000 0.000000 0.000000
# 2 -0.007146 0.018451 0.009419 0.000000 0.000000 0.000000
# 3 -0.007725 0.009419 0.029192 0.000000 0.000000 0.000000
# 4 0.000000 0.000000 0.000000 -0.013595 0.000000 0.000000
# 5 0.000000 0.000000 0.000000 0.000000 0.036509 0.000000
# 6 0.000000 0.000000 0.000000 0.000000 0.000000 -0.112221
#
#
# Mechanical properties :
#
#
# Convention : Reuss Voigt Hill
#
# Bulk Modulus (GPa) = 21.76920 48.83677 35.30298
# Shear Modulus (GPa) = -800.00856 4.39296 -397.80780
#
# Velocity S-wave (km/s) = -19.53558 1.44763 -13.77576
# Velocity P-wave (km/s) = 22.32637 5.10798 15.36840
#
# Compressibility (1/GPa) = 0.04593646
#
# Stress axis : x y z
#
# Youngs Moduli (GPa) = 108.73202 54.19661 34.25560
#
# Poissons Ratio (x) = 0.38727 0.26462
# Poissons Ratio (y) = 0.77696 -0.32264
# Poissons Ratio (z) = 0.83995 -0.51046
#
# Static dielectric constant tensor:
#      x y z
#    x 1.775580 0.000000 0.000000 
#    y 0.000000 1.825480 0.000000 
#    z 0.000000 0.000000 1.717140 
# 
# From -- ./inp_files/58740.got.cif
#   From: 2010.05.17/outbox.cif.g08.bks.cpg/sg71_30_cif.got.tgz:58740.got - 2010.06.03 16:22:01.
