data_PCOD9522368
_publ_section_title
;
Structure prediction by ZEFSAII (Michael W. Deem and Ramdas Pophale) SiO2 
 PCOD9522368
Probable space group: I M M M
;
_chemical_formula_sum "Si O2"
_cell_formula_units_Z 104
_cell_length_a 8.560954
_cell_length_b 22.206220
_cell_length_c 26.576845
_cell_angle_alpha 90.000000
_cell_angle_beta 90.000000
_cell_angle_gamma 90.000000
_cell_volume 5052.429069
_symmetry_space_group_name_H-M "I M M M"
_symmetry_group_IT_number 71
_symmetry_cell_setting 'orthorhombic'
loop_
_space_group_symop_operation_xyz
x,y,z
-x,-y,z
x,-y,-z
-x,y,-z
-x,-y,-z
x,y,-z
-x,y,z
x,-y,z
1/2+x,1/2+y,1/2+z
1/2-x,1/2-y,1/2+z
1/2+x,1/2-y,1/2-z
1/2-x,1/2+y,1/2-z
1/2-x,1/2-y,1/2-z
1/2+x,1/2+y,1/2-z
1/2-x,1/2+y,1/2+z
1/2+x,1/2-y,1/2+z
loop_
_atom_site_type_symbol
_atom_site_label
_atom_site_fract_x
_atom_site_fract_y
_atom_site_fract_z
Si Si1 0.688156 0.836806 0.943986
Si Si2 0.812560 0.571036 0.000000
Si Si3 0.813490 0.566011 0.205785
Si Si4 0.188112 0.067947 0.124851
Si Si5 0.687896 0.614503 0.106921
Si Si6 0.811871 0.247137 0.355675
Si Si7 0.186473 0.842610 0.215097
O O1 0.500000 0.836219 0.943745
O O2 0.747006 0.901206 0.925171
O O3 0.741069 0.789159 0.902188
O O4 0.742532 0.822294 0.000000
O O5 0.747280 0.601302 0.050842
O O6 0.769492 0.500000 0.000000
O O7 0.000000 0.575326 0.000000
O O8 0.761643 0.500000 0.226365
O O9 0.759507 0.569827 0.148068
O O10 0.745342 0.623749 0.235099
O O11 0.000000 0.568666 0.208938
O O12 0.235875 0.110078 0.171359
O O13 0.000000 0.068331 0.123338
O O14 0.243074 0.000000 0.131264
O O15 0.500000 0.610690 0.107249
O O16 0.734511 0.680296 0.128189
O O17 0.749024 0.278454 0.304928
O O18 0.000000 0.248354 0.352339
O O19 0.000000 0.838703 0.217810
#
# Coordination Sequence:
#
# PCOD9522368 Si02
#       7
#    16   8  16  16  16  16  16
#     4   9  18  32  51  73 102 141 184 235 287 342
#     4  11  25  45  67  93 129 167 202 249 310 369
#     4  11  24  41  62  89 123 161 200 246 304 366
#     4   9  18  32  49  72 105 143 184 234 290 343
#     4  11  24  41  66  95 122 158 204 253 303 360
#     4   9  20  38  59  85 118 154 196 244 300 359
#     4  10  20  36  60  87 117 154 199 248 296 353
#
# _framework density 20.584157000000001
#
# number of rings (size 3 to 8) (size 9 to 14) (size 15 to 20)
#    0.000    2.077    0.000    2.538    1.077    7.692 
#    0.000    1.538    0.000    0.000    0.000    0.000 
#    0.000    0.000    0.000    0.000    0.000    0.000 
#
# Total GULP energy -290340.109943 kJ/mol
# GULP energy per Si atom -5583.463653 kJ/mol
# Density = 2.053731 g / cm^3
# Si number density = 20.584157 Si / 1000 Ang^3
#
#
#
# Elastic Constant Matrix: (Units=GPa)
#
#
# Indices 1 2 3 4 5 6 
#
# 1 20.5917 26.9509 18.5853 0.0000 0.0000 0.0000
# 2 26.9509 128.9596 51.4456 0.0000 0.0000 0.0000
# 3 18.5853 51.4456 140.2962 0.0000 0.0000 0.0000
# 4 0.0000 0.0000 0.0000 23.4008 0.0000 0.0000
# 5 0.0000 0.0000 0.0000 0.0000 34.2636 0.0000
# 6 0.0000 0.0000 0.0000 0.0000 0.0000 25.4388
#
#
#
# Elastic Compliance Matrix: (Units=1/GPa)
#
#
# Indices 1 2 3 4 5 6 
#
# 1 0.069219 -0.012660 -0.004527 0.000000 0.000000 0.000000
# 2 -0.012660 0.011399 -0.002503 0.000000 0.000000 0.000000
# 3 -0.004527 -0.002503 0.008645 0.000000 0.000000 0.000000
# 4 0.000000 0.000000 0.000000 0.042734 0.000000 0.000000
# 5 0.000000 0.000000 0.000000 0.000000 0.029185 0.000000
# 6 0.000000 0.000000 0.000000 0.000000 0.000000 0.039310
#
#
# Mechanical properties :
#
#
# Convention : Reuss Voigt Hill
#
# Bulk Modulus (GPa) = 20.04690 53.75678 36.90184
# Shear Modulus (GPa) = 19.49326 29.47835 24.48581
#
# Velocity S-wave (km/s) = 3.08068 3.78840 3.45272
# Velocity P-wave (km/s) = 4.73437 6.73114 5.81904
#
# Compressibility (1/GPa) = 0.04988304
#
# Stress axis : x y z
#
# Youngs Moduli (GPa) = 14.44693 87.73084 115.67080
#
# Poissons Ratio (x) = 1.11066 0.52367
# Poissons Ratio (y) = 0.18290 0.28949
# Poissons Ratio (z) = 0.06541 0.21956
#
# Static dielectric constant tensor:
#      x y z
#    x 1.696300 0.000000 0.000000 
#    y 0.000000 1.770880 0.000000 
#    z 0.000000 0.000000 1.740170 
# 
# From -- ./inp_files/63295.got.cif
#   From: 2010.05.17/outbox.cif.g08.bks.cpg/sg71_32_cif.got.tgz:63295.got - 2010.06.03 16:22:01.
