data_PCOD9522302
_publ_section_title
;
Structure prediction by ZEFSAII (Michael W. Deem and Ramdas Pophale) SiO2 
 PCOD9522302
Probable space group: I M M M
;
_chemical_formula_sum "Si O2"
_cell_formula_units_Z 96
_cell_length_a 23.221946
_cell_length_b 8.213649
_cell_length_c 25.349081
_cell_angle_alpha 90.000000
_cell_angle_beta 90.000000
_cell_angle_gamma 90.000000
_cell_volume 4835.005471
_symmetry_space_group_name_H-M "I M M M"
_symmetry_group_IT_number 71
_symmetry_cell_setting 'orthorhombic'
loop_
_space_group_symop_operation_xyz
x,y,z
-x,-y,z
x,-y,-z
-x,y,-z
-x,-y,-z
x,y,-z
-x,y,z
x,-y,z
1/2+x,1/2+y,1/2+z
1/2-x,1/2-y,1/2+z
1/2+x,1/2-y,1/2-z
1/2-x,1/2+y,1/2-z
1/2-x,1/2-y,1/2-z
1/2+x,1/2+y,1/2-z
1/2-x,1/2+y,1/2+z
1/2+x,1/2-y,1/2+z
loop_
_atom_site_type_symbol
_atom_site_label
_atom_site_fract_x
_atom_site_fract_y
_atom_site_fract_z
Si Si1 0.811216 0.195825 0.881224
Si Si2 0.184290 0.318696 0.000000
Si Si3 0.201163 0.311802 0.312216
Si Si4 0.377482 0.692503 0.897274
Si Si5 0.875848 0.805026 0.780350
Si Si6 0.500000 0.807578 0.113377
Si Si7 0.000000 0.199434 0.265660
Si Si8 0.679114 0.685388 0.000000
O O1 0.825823 0.245017 0.941403
O O2 0.751714 0.255093 0.851541
O O3 0.860238 0.247359 0.839636
O O4 0.806674 0.000000 0.882115
O O5 0.159538 0.500000 0.000000
O O6 0.253342 0.324699 0.000000
O O7 0.214649 0.500000 0.302519
O O8 0.143325 0.288832 0.346461
O O9 0.179414 0.238090 0.256772
O O10 0.366249 0.500000 0.888136
O O11 0.443465 0.723238 0.908811
O O12 0.342086 0.761163 0.946393
O O13 0.939273 0.749426 0.761356
O O14 0.878636 0.000000 0.779539
O O15 0.500000 0.770295 0.175711
O O16 0.500000 0.000000 0.103773
O O17 0.000000 0.000000 0.268963
O O18 0.655091 0.500000 0.000000
#
# Coordination Sequence:
#
# PCOD9522302 Si02
#       8
#    16   8  16  16  16   8   8   8
#     4  10  22  38  56  84 118 150 183 229 284 337
#     4  11  21  37  60  85 110 146 188 228 277 338
#     4  11  21  33  53  84 117 147 182 229 284 334
#     4  11  21  37  57  77 106 147 193 235 278 329
#     4  10  21  37  58  83 114 150 189 228 277 339
#     4  12  24  37  53  80 112 145 190 237 283 328
#     4  10  20  36  59  82 107 148 190 227 274 332
#     4   9  20  36  56  79 103 141 193 237 272 321
#
# _framework density 19.8552
#
# number of rings (size 3 to 8) (size 9 to 14) (size 15 to 20)
#    0.000    1.500    3.333    2.500    0.000    1.667 
#    0.000    3.333    0.000    0.500    0.000    3.500 
#    0.000    0.000    0.000    0.000    0.000    0.000 
#
# Total GULP energy -267451.108479 kJ/mol
# GULP energy per Si atom -5571.898093 kJ/mol
# Density = 1.981001 g / cm^3
# Si number density = 19.855200 Si / 1000 Ang^3
#
#
#
# Elastic Constant Matrix: (Units=GPa)
#
#
# Indices 1 2 3 4 5 6 
#
# 1 43.2618 7.3842 8.0968 0.0000 0.0000 0.0000
# 2 7.3842 29.0683 16.9027 0.0000 0.0000 0.0000
# 3 8.0968 16.9027 128.7389 0.0000 0.0000 0.0000
# 4 0.0000 0.0000 0.0000 19.5491 0.0000 0.0000
# 5 0.0000 0.0000 0.0000 0.0000 56.3426 0.0000
# 6 0.0000 0.0000 0.0000 0.0000 0.0000 16.0280
#
#
#
# Elastic Compliance Matrix: (Units=1/GPa)
#
#
# Indices 1 2 3 4 5 6 
#
# 1 0.024234 -0.005705 -0.000775 0.000000 0.000000 0.000000
# 2 -0.005705 0.038588 -0.004708 0.000000 0.000000 0.000000
# 3 -0.000775 -0.004708 0.008434 0.000000 0.000000 0.000000
# 4 0.000000 0.000000 0.000000 0.051153 0.000000 0.000000
# 5 0.000000 0.000000 0.000000 0.000000 0.017749 0.000000
# 6 0.000000 0.000000 0.000000 0.000000 0.000000 0.062391
#
#
# Mechanical properties :
#
#
# Convention : Reuss Voigt Hill
#
# Bulk Modulus (GPa) = 20.45797 29.53738 24.99768
# Shear Modulus (GPa) = 20.72805 29.62965 25.17885
#
# Velocity S-wave (km/s) = 3.23454 3.86720 3.56494
# Velocity P-wave (km/s) = 4.92703 5.90331 5.43713
#
# Compressibility (1/GPa) = 0.04888069
#
# Stress axis : x y z
#
# Youngs Moduli (GPa) = 41.26437 25.91448 118.56077
#
# Poissons Ratio (x) = 0.14785 0.09189
# Poissons Ratio (y) = 0.23543 0.55814
# Poissons Ratio (z) = 0.03198 0.12200
#
# Static dielectric constant tensor:
#      x y z
#    x 1.748460 0.000000 0.000000 
#    y 0.000000 1.721170 0.000000 
#    z 0.000000 0.000000 1.770190 
# 
# From -- ./inp_files/61599.got.cif
#   From: 2010.05.17/outbox.cif.g08.bks.cpg/sg71_31_cif.got.tgz:61599.got - 2010.06.03 16:22:01.
