data_PCOD9522936
_publ_section_title
;
Structure prediction by ZEFSAII (Michael W. Deem and Ramdas Pophale) SiO2 
 PCOD9522936
Probable space group: I M M M
;
_chemical_formula_sum "Si O2"
_cell_formula_units_Z 72
_cell_length_a 8.821765
_cell_length_b 16.555791
_cell_length_c 28.014186
_cell_angle_alpha 90.000000
_cell_angle_beta 90.000000
_cell_angle_gamma 90.000000
_cell_volume 4091.508216
_symmetry_space_group_name_H-M "I M M M"
_symmetry_group_IT_number 71
_symmetry_cell_setting 'orthorhombic'
loop_
_space_group_symop_operation_xyz
x,y,z
-x,-y,z
x,-y,-z
-x,y,-z
-x,-y,-z
x,y,-z
-x,y,z
x,-y,z
1/2+x,1/2+y,1/2+z
1/2-x,1/2-y,1/2+z
1/2+x,1/2-y,1/2-z
1/2-x,1/2+y,1/2-z
1/2-x,1/2-y,1/2-z
1/2+x,1/2+y,1/2-z
1/2-x,1/2+y,1/2+z
1/2+x,1/2-y,1/2+z
loop_
_atom_site_type_symbol
_atom_site_label
_atom_site_fract_x
_atom_site_fract_y
_atom_site_fract_z
Si Si1 0.318775 0.841173 0.394652
Si Si2 0.818912 0.591101 0.353926
Si Si3 0.817886 0.000000 0.556346
Si Si4 0.679970 0.187727 0.945744
Si Si5 0.180930 0.755753 0.802367
O O1 0.500000 0.851116 0.394997
O O2 0.270959 0.765366 0.427430
O O3 0.271571 0.813361 0.340913
O O4 0.242992 0.920961 0.416203
O O5 0.770776 0.500000 0.343659
O O6 0.793772 0.614844 0.409150
O O7 0.734047 0.659151 0.324162
O O8 0.000000 0.597366 0.344982
O O9 0.771187 0.000000 0.500000
O O10 0.000000 0.000000 0.557249
O O11 0.500000 0.207482 0.943192
O O12 0.717788 0.168013 0.000000
O O13 0.250000 0.750000 0.750000
O O14 0.000000 0.752623 0.799494
#
# Coordination Sequence:
#
# PCOD9522936 Si02
#       5
#    16  16   8  16  16
#     4  10  21  36  54  78 107 140 180 224 269 322
#     4   9  18  33  53  78 108 141 175 214 259 307
#     4  11  23  37  55  81 113 147 183 225 272 325
#     4   9  17  30  50  76 107 143 180 216 256 306
#     4  10  21  38  59  80 104 137 177 222 272 323
#
# _framework density 17.597422999999999
#
# number of rings (size 3 to 8) (size 9 to 14) (size 15 to 20)
#    0.000    2.333    0.000    2.333    0.000    7.556 
#    2.000    2.222    0.000    0.000    0.000    6.222 
#    0.000    0.000    0.000    0.000    0.000    0.000 
#
# Total GULP energy -200786.975752 kJ/mol
# GULP energy per Si atom -5577.415993 kJ/mol
# Density = 1.755737 g / cm^3
# Si number density = 17.597423 Si / 1000 Ang^3
#
#
#
# Elastic Constant Matrix: (Units=GPa)
#
#
# Indices 1 2 3 4 5 6 
#
# 1 41.4909 39.0528 50.2215 0.0000 0.0000 0.0000
# 2 39.0528 114.3961 62.1566 0.0000 0.0000 0.0000
# 3 50.2215 62.1566 162.7102 0.0000 0.0000 0.0000
# 4 0.0000 0.0000 0.0000 11.1959 0.0000 0.0000
# 5 0.0000 0.0000 0.0000 0.0000 26.0456 0.0000
# 6 0.0000 0.0000 0.0000 0.0000 0.0000 19.0430
#
#
#
# Elastic Compliance Matrix: (Units=1/GPa)
#
#
# Indices 1 2 3 4 5 6 
#
# 1 0.046221 -0.010130 -0.010397 0.000000 0.000000 0.000000
# 2 -0.010130 0.013251 -0.001935 0.000000 0.000000 0.000000
# 3 -0.010397 -0.001935 0.010094 0.000000 0.000000 0.000000
# 4 0.000000 0.000000 0.000000 0.089319 0.000000 0.000000
# 5 0.000000 0.000000 0.000000 0.000000 0.038394 0.000000
# 6 0.000000 0.000000 0.000000 0.000000 0.000000 0.052513
#
#
# Mechanical properties :
#
#
# Convention : Reuss Voigt Hill
#
# Bulk Modulus (GPa) = 40.58076 69.05100 54.81588
# Shear Modulus (GPa) = 16.50549 22.40133 19.45341
#
# Velocity S-wave (km/s) = 3.06592 3.57177 3.32847
# Velocity P-wave (km/s) = 5.97025 7.50563 6.78153
#
# Compressibility (1/GPa) = 0.02464222
#
# Stress axis : x y z
#
# Youngs Moduli (GPa) = 21.63540 75.46391 99.06675
#
# Poissons Ratio (x) = 0.76445 1.02995
# Poissons Ratio (y) = 0.21917 0.19174
# Poissons Ratio (z) = 0.22493 0.14606
#
# Static dielectric constant tensor:
#      x y z
#    x 1.597730 0.000000 0.000000 
#    y 0.000000 1.568210 0.000000 
#    z 0.000000 0.000000 1.603730 
# 
# From -- ./inp_files/6000.got.cif
#   From: 2010.05.17/outbox.cif.g08.bks.cpg/sg71_3_cif.got.tgz:6000.got - 2010.06.03 16:22:01.
