data_PCOD9522365
_publ_section_title
;
Structure prediction by ZEFSAII (Michael W. Deem and Ramdas Pophale) SiO2 
 PCOD9522365
Probable space group: I M M M
;
_chemical_formula_sum "Si O2"
_cell_formula_units_Z 104
_cell_length_a 13.945758
_cell_length_b 24.285852
_cell_length_c 13.582505
_cell_angle_alpha 90.000000
_cell_angle_beta 90.000000
_cell_angle_gamma 90.000000
_cell_volume 4600.185474
_symmetry_space_group_name_H-M "I M M M"
_symmetry_group_IT_number 71
_symmetry_cell_setting 'orthorhombic'
loop_
_space_group_symop_operation_xyz
x,y,z
-x,-y,z
x,-y,-z
-x,y,-z
-x,-y,-z
x,y,-z
-x,y,z
x,-y,z
1/2+x,1/2+y,1/2+z
1/2-x,1/2-y,1/2+z
1/2+x,1/2-y,1/2-z
1/2-x,1/2+y,1/2-z
1/2-x,1/2-y,1/2-z
1/2+x,1/2+y,1/2-z
1/2-x,1/2+y,1/2+z
1/2+x,1/2-y,1/2+z
loop_
_atom_site_type_symbol
_atom_site_label
_atom_site_fract_x
_atom_site_fract_y
_atom_site_fract_z
Si Si1 0.387155 0.854931 0.610960
Si Si2 0.213015 0.294823 0.500000
Si Si3 0.117628 0.826132 0.500000
Si Si4 0.664842 0.733865 0.321281
Si Si5 0.892957 0.132021 0.291745
Si Si6 0.882642 0.438011 0.718965
Si Si7 0.383709 0.434763 0.391699
Si Si8 0.613791 0.907326 0.000000
O O1 0.348418 0.863714 0.500000
O O2 0.500000 0.867582 0.605539
O O3 0.378365 0.790422 0.638294
O O4 0.350202 0.892579 0.701082
O O5 0.162339 0.234961 0.500000
O O6 0.283466 0.298243 0.408254
O O7 0.135031 0.342418 0.500000
O O8 0.148983 0.856691 0.399665
O O9 0.000000 0.821937 0.500000
O O10 0.750000 0.750000 0.250000
O O11 0.601193 0.691803 0.260170
O O12 0.847437 0.093665 0.207920
O O13 0.000000 0.109998 0.310196
O O14 0.857654 0.500000 0.750627
O O15 0.849901 0.429653 0.605436
O O16 0.000000 0.434406 0.715290
O O17 0.349115 0.415520 0.500000
O O18 0.500000 0.425559 0.392388
O O19 0.368310 0.500000 0.386506
O O20 0.500000 0.918330 0.000000
#
# Coordination Sequence:
#
# PCOD9522365 Si02
#       8
#    16   8   8  16  16  16  16   8
#     4  10  21  37  56  83 119 153 190 237 287 346
#     4  12  23  37  53  83 111 154 191 232 283 343
#     4  10  21  38  56  81 115 148 186 229 275 337
#     4  12  23  37  55  80 114 151 191 235 283 337
#     4  10  21  36  57  83 113 148 187 231 282 339
#     4   9  18  33  57  87 114 147 192 242 292 338
#     4   8  15  30  54  83 111 140 179 229 282 332
#     4  10  20  36  60  86 118 150 190 244 291 342
#
# _framework density 22.607785
#
# number of rings (size 3 to 8) (size 9 to 14) (size 15 to 20)
#    0.000    2.000    2.308    2.308    1.077    1.231 
#    0.000    1.923    0.000    6.923    0.000    0.000 
#    0.000    0.000    0.000    0.000    0.000    0.000 
#
# Total GULP energy -290487.229082 kJ/mol
# GULP energy per Si atom -5586.292867 kJ/mol
# Density = 2.255633 g / cm^3
# Si number density = 22.607785 Si / 1000 Ang^3
#
#
#
# Elastic Constant Matrix: (Units=GPa)
#
#
# Indices 1 2 3 4 5 6 
#
# 1 59.5922 -5.3446 29.9236 0.0000 0.0000 0.0000
# 2 -5.3446 91.2691 66.1684 0.0003 -0.0001 0.0000
# 3 29.9236 66.1684 203.3674 0.0005 -0.0001 0.0000
# 4 0.0000 0.0003 0.0005 44.6063 0.0000 0.0000
# 5 0.0000 -0.0001 -0.0001 0.0000 30.1528 0.0000
# 6 0.0000 0.0000 0.0000 0.0000 0.0000 5.0244
#
#
#
# Elastic Compliance Matrix: (Units=1/GPa)
#
#
# Indices 1 2 3 4 5 6 
#
# 1 0.019257 0.004164 -0.004188 0.000000 0.000000 0.000000
# 2 0.004164 0.015239 -0.005571 0.000000 0.000000 0.000000
# 3 -0.004188 -0.005571 0.007346 0.000000 0.000000 0.000000
# 4 0.000000 0.000000 0.000000 0.022418 0.000000 0.000000
# 5 0.000000 0.000000 0.000000 0.000000 0.033164 0.000000
# 6 0.000000 0.000000 0.000000 0.000000 0.000000 0.199028
#
#
# Mechanical properties :
#
#
# Convention : Reuss Voigt Hill
#
# Bulk Modulus (GPa) = 32.62395 59.52483 46.07439
# Shear Modulus (GPa) = 15.73009 33.52211 24.62610
#
# Velocity S-wave (km/s) = 2.64063 3.85485 3.30400
# Velocity P-wave (km/s) = 4.87432 6.79703 5.91433
#
# Compressibility (1/GPa) = 0.03065232
#
# Stress axis : x y z
#
# Youngs Moduli (GPa) = 51.92816 65.61946 136.12621
#
# Poissons Ratio (x) = -0.27325 0.57015
# Poissons Ratio (y) = -0.21624 0.75837
# Poissons Ratio (z) = 0.21750 0.36557
#
# Static dielectric constant tensor:
#      x y z
#    x 1.978920 0.000000 0.000000 
#    y 0.000000 1.827870 0.000000 
#    z 0.000000 0.000000 1.828590 
# 
# From -- ./inp_files/24630.got.cif
#   From: 2010.05.17/outbox.cif.g08.bks.cpg/sg71_13_cif.got.tgz:24630.got - 2010.06.03 16:22:01.
