data_PCOD9522036
_publ_section_title
;
Structure prediction by ZEFSAII (Michael W. Deem and Ramdas Pophale) SiO2 
 PCOD9522036
Probable space group: I M M M
;
_chemical_formula_sum "Si O2"
_cell_formula_units_Z 88
_cell_length_a 20.734308
_cell_length_b 9.032974
_cell_length_c 26.036805
_cell_angle_alpha 90.000000
_cell_angle_beta 90.000000
_cell_angle_gamma 90.000000
_cell_volume 4876.497391
_symmetry_space_group_name_H-M "I M M M"
_symmetry_group_IT_number 71
_symmetry_cell_setting 'orthorhombic'
loop_
_space_group_symop_operation_xyz
x,y,z
-x,-y,z
x,-y,-z
-x,y,-z
-x,-y,-z
x,y,-z
-x,y,z
x,-y,z
1/2+x,1/2+y,1/2+z
1/2-x,1/2-y,1/2+z
1/2+x,1/2-y,1/2-z
1/2-x,1/2+y,1/2-z
1/2-x,1/2-y,1/2-z
1/2+x,1/2+y,1/2-z
1/2-x,1/2+y,1/2+z
1/2+x,1/2-y,1/2+z
loop_
_atom_site_type_symbol
_atom_site_label
_atom_site_fract_x
_atom_site_fract_y
_atom_site_fract_z
Si Si1 0.625557 0.321452 0.500000
Si Si2 0.665583 0.825964 0.700332
Si Si3 0.500000 0.668343 0.061448
Si Si4 0.368041 0.823168 0.907873
Si Si5 0.179947 0.172360 0.306579
Si Si6 0.275123 0.820407 0.000000
Si Si7 0.424978 0.822489 0.395426
O O1 0.621937 0.500000 0.500000
O O2 0.700880 0.273964 0.500000
O O3 0.593460 0.258127 0.448332
O O4 0.742216 0.813760 0.690115
O O5 0.655554 0.730859 0.751610
O O6 0.622596 0.779804 0.651454
O O7 0.651767 0.000000 0.710408
O O8 0.500000 0.500000 0.081111
O O9 0.563779 0.752725 0.078478
O O10 0.500000 0.664048 0.000000
O O11 0.348298 0.770053 0.851882
O O12 0.371969 0.000000 0.910614
O O13 0.314658 0.772654 0.949656
O O14 0.163678 0.000000 0.313169
O O15 0.274666 0.000000 0.000000
O O16 0.500000 0.793010 0.382721
O O17 0.417942 0.000000 0.402868
#
# Coordination Sequence:
#
# PCOD9522036 Si02
#       7
#     8  16   8  16  16   8  16
#     4  11  22  36  56  85 116 146 181 226 279 332
#     4   9  19  37  59  82 110 148 191 233 283 340
#     4  11  23  39  57  81 115 149 185 232 285 334
#     4  11  21  37  59  82 111 150 192 229 275 339
#     4  10  20  35  57  85 114 144 184 238 291 333
#     4   9  20  35  55  83 113 144 185 232 273 323
#     4  10  21  38  58  80 110 147 187 230 273 329
#
# _framework density 18.045738
#
# number of rings (size 3 to 8) (size 9 to 14) (size 15 to 20)
#    0.000    1.909    0.909    3.000    0.000    3.273 
#    1.636    2.727    0.000    0.000    0.000    0.000 
#    0.000    0.000    0.000    0.000    0.000    0.000 
#
# Total GULP energy -245665.435592 kJ/mol
# GULP energy per Si atom -5583.305354 kJ/mol
# Density = 1.800467 g / cm^3
# Si number density = 18.045738 Si / 1000 Ang^3
#
#
#
# Elastic Constant Matrix: (Units=GPa)
#
#
# Indices 1 2 3 4 5 6 
#
# 1 81.7905 38.8379 52.4998 0.0000 0.0000 0.0000
# 2 38.8379 70.9270 48.2764 0.0000 0.0000 0.0000
# 3 52.4998 48.2764 125.6426 0.0000 0.0000 0.0000
# 4 0.0000 0.0000 0.0000 19.2595 0.0000 0.0000
# 5 0.0000 0.0000 0.0000 0.0000 -10.0631 0.0000
# 6 0.0000 0.0000 0.0000 0.0000 0.0000 29.5631
#
#
#
# Elastic Compliance Matrix: (Units=1/GPa)
#
#
# Indices 1 2 3 4 5 6 
#
# 1 0.018796 -0.006698 -0.005280 0.000000 0.000000 0.000000
# 2 -0.006698 0.021479 -0.005454 0.000000 0.000000 0.000000
# 3 -0.005280 -0.005454 0.012261 0.000000 0.000000 0.000000
# 4 0.000000 0.000000 0.000000 0.051922 0.000000 0.000000
# 5 0.000000 0.000000 0.000000 0.000000 -0.099373 0.000000
# 6 0.000000 0.000000 0.000000 0.000000 0.000000 0.033826
#
#
# Mechanical properties :
#
#
# Convention : Reuss Voigt Hill
#
# Bulk Modulus (GPa) = 56.58981 61.95425 59.27203
# Shear Modulus (GPa) = 62.76001 17.00163 39.88082
#
# Velocity S-wave (km/s) = 5.90371 3.07276 4.70615
# Velocity P-wave (km/s) = 8.82604 6.85532 7.90235
#
# Compressibility (1/GPa) = 0.01767103
#
# Stress axis : x y z
#
# Youngs Moduli (GPa) = 53.20162 46.55654 81.55846
#
# Poissons Ratio (x) = 0.31186 0.43065
# Poissons Ratio (y) = 0.35637 0.44483
# Poissons Ratio (z) = 0.28092 0.25393
#
# Static dielectric constant tensor:
#      x y z
#    x 1.605310 0.000000 0.000000 
#    y 0.000000 1.605100 0.000000 
#    z 0.000000 0.000000 1.591940 
# 
# From -- ./inp_files/61165.got.cif
#   From: 2010.05.17/outbox.cif.g08.bks.cpg/sg71_31_cif.got.tgz:61165.got - 2010.06.03 16:22:01.
