data_PCOD9522561
_publ_section_title
;
Structure prediction by ZEFSAII (Michael W. Deem and Ramdas Pophale) SiO2 
 PCOD9522561
Probable space group: I M M M
;
_chemical_formula_sum "Si O2"
_cell_formula_units_Z 104
_cell_length_a 28.790809
_cell_length_b 7.874657
_cell_length_c 22.327273
_cell_angle_alpha 90.000000
_cell_angle_beta 90.000000
_cell_angle_gamma 90.000000
_cell_volume 5061.989001
_symmetry_space_group_name_H-M "I M M M"
_symmetry_group_IT_number 71
_symmetry_cell_setting 'orthorhombic'
loop_
_space_group_symop_operation_xyz
x,y,z
-x,-y,z
x,-y,-z
-x,y,-z
-x,-y,-z
x,y,-z
-x,y,z
x,-y,z
1/2+x,1/2+y,1/2+z
1/2-x,1/2-y,1/2+z
1/2+x,1/2-y,1/2-z
1/2-x,1/2+y,1/2-z
1/2-x,1/2-y,1/2-z
1/2+x,1/2+y,1/2-z
1/2-x,1/2+y,1/2+z
1/2+x,1/2-y,1/2+z
loop_
_atom_site_type_symbol
_atom_site_label
_atom_site_fract_x
_atom_site_fract_y
_atom_site_fract_z
Si Si1 0.000000 0.202735 0.068653
Si Si2 0.363378 0.299988 0.206963
Si Si3 0.325765 0.297297 0.668420
Si Si4 0.700112 0.704168 0.000000
Si Si5 0.398776 0.798433 0.431360
Si Si6 0.774833 0.298791 0.368390
Si Si7 0.907654 0.206980 0.500000
Si Si8 0.052397 0.208273 0.627666
O O1 0.049622 0.259012 0.093897
O O2 0.000000 0.000000 0.067579
O O3 0.000000 0.269913 0.000000
O O4 0.372538 0.500000 0.216020
O O5 0.349057 0.226422 0.271236
O O6 0.319591 0.282910 0.162650
O O7 0.408993 0.229772 0.174425
O O8 0.320763 0.500000 0.676212
O O9 0.358876 0.269091 0.611737
O O10 0.273763 0.230879 0.657578
O O11 0.723527 0.767407 0.939318
O O12 0.646145 0.759994 0.000000
O O13 0.700937 0.500000 0.000000
O O14 0.396007 0.730408 0.500000
O O15 0.393827 0.000000 0.434367
O O16 0.777855 0.500000 0.357381
O O17 0.932693 0.261671 0.439178
O O18 0.907891 0.000000 0.500000
O O19 0.000000 0.260732 0.641368
O O20 0.053401 0.000000 0.627610
#
# Coordination Sequence:
#
# PCOD9522561 Si02
#       8
#     8  16  16   8  16  16   8  16
#     4   9  17  33  59  85 111 147 183 224 285 344
#     4  10  20  38  59  82 112 150 197 238 280 346
#     4  10  23  39  56  82 116 152 193 240 290 347
#     4  11  21  36  59  85 112 149 193 241 292 347
#     4  10  21  37  58  85 114 146 189 238 289 347
#     4  11  23  38  57  83 115 152 191 239 296 347
#     4   9  15  27  50  82 112 142 179 227 283 330
#     4   9  16  28  51  83 115 144 183 237 284 328
#
# _framework density 20.545283000000001
#
# number of rings (size 3 to 8) (size 9 to 14) (size 15 to 20)
#    0.000    2.077    1.538    2.077    1.077    4.615 
#    1.385    0.000    0.000    0.462    0.000    1.077 
#    0.000    0.000    0.000    0.000    0.000    0.000 
#
# Total GULP energy -290370.871019 kJ/mol
# GULP energy per Si atom -5584.055212 kJ/mol
# Density = 2.049852 g / cm^3
# Si number density = 20.545283 Si / 1000 Ang^3
#
#
#
# Elastic Constant Matrix: (Units=GPa)
#
#
# Indices 1 2 3 4 5 6 
#
# 1 172.4388 -3.5029 77.4286 0.0000 0.0000 0.0000
# 2 -3.5029 19.8728 -6.2265 0.0000 0.0000 0.0000
# 3 77.4286 -6.2265 124.8457 0.0000 0.0000 0.0000
# 4 0.0000 0.0000 0.0000 7.7243 0.0000 0.0000
# 5 0.0000 0.0000 0.0000 0.0000 18.9557 0.0000
# 6 0.0000 0.0000 0.0000 0.0000 0.0000 13.8058
#
#
#
# Elastic Compliance Matrix: (Units=1/GPa)
#
#
# Indices 1 2 3 4 5 6 
#
# 1 0.008038 -0.000147 -0.004992 0.000000 0.000000 0.000000
# 2 -0.000147 0.051121 0.002641 0.000000 0.000000 0.000000
# 3 -0.004992 0.002641 0.011238 0.000000 0.000000 0.000000
# 4 0.000000 0.000000 0.000000 0.129461 0.000000 0.000000
# 5 0.000000 0.000000 0.000000 0.000000 0.052755 0.000000
# 6 0.000000 0.000000 0.000000 0.000000 0.000000 0.072433
#
#
# Mechanical properties :
#
#
# Convention : Reuss Voigt Hill
#
# Bulk Modulus (GPa) = 15.29060 50.28398 32.78729
# Shear Modulus (GPa) = 14.21085 24.72770 19.46928
#
# Velocity S-wave (km/s) = 2.63284 3.47302 3.08170
# Velocity P-wave (km/s) = 4.08669 6.37262 5.35310
#
# Compressibility (1/GPa) = 0.06539964
#
# Stress axis : x y z
#
# Youngs Moduli (GPa) = 124.41139 19.56126 88.98497
#
# Poissons Ratio (x) = 0.00288 0.44425
# Poissons Ratio (y) = 0.01834 -0.23501
# Poissons Ratio (z) = 0.62111 -0.05166
#
# Static dielectric constant tensor:
#      x y z
#    x 1.721110 0.000000 0.000000 
#    y 0.000000 1.749210 0.000000 
#    z 0.000000 0.000000 1.726760 
# 
# From -- ./inp_files/56326.got.cif
#   From: 2010.05.17/outbox.cif.g08.bks.cpg/sg71_29_cif.got.tgz:56326.got - 2010.06.03 16:22:01.
