data_PCOD9522429
_publ_section_title
;
Structure prediction by ZEFSAII (Michael W. Deem and Ramdas Pophale) SiO2 
 PCOD9522429
Probable space group: I M M M
;
_chemical_formula_sum "Si O2"
_cell_formula_units_Z 90
_cell_length_a 22.458741
_cell_length_b 9.305985
_cell_length_c 23.623786
_cell_angle_alpha 90.000000
_cell_angle_beta 90.000000
_cell_angle_gamma 90.000000
_cell_volume 4937.387973
_symmetry_space_group_name_H-M "I M M M"
_symmetry_group_IT_number 71
_symmetry_cell_setting 'orthorhombic'
loop_
_space_group_symop_operation_xyz
x,y,z
-x,-y,z
x,-y,-z
-x,y,-z
-x,-y,-z
x,y,-z
-x,y,z
x,-y,z
1/2+x,1/2+y,1/2+z
1/2-x,1/2-y,1/2+z
1/2+x,1/2-y,1/2-z
1/2-x,1/2+y,1/2-z
1/2-x,1/2-y,1/2-z
1/2+x,1/2+y,1/2-z
1/2-x,1/2+y,1/2+z
1/2+x,1/2-y,1/2+z
loop_
_atom_site_type_symbol
_atom_site_label
_atom_site_fract_x
_atom_site_fract_y
_atom_site_fract_z
Si Si1 0.000000 0.500000 0.500000
Si Si2 0.000000 0.169381 0.917206
Si Si3 0.625657 0.326884 0.766629
Si Si4 0.374294 0.159226 0.000000
Si Si5 0.804841 0.167773 0.155174
Si Si6 0.120794 0.669247 0.938213
Si Si7 0.500000 0.329379 0.282549
Si Si8 0.833888 0.330626 0.377474
O O1 0.054698 0.376647 0.500000
O O2 0.941274 0.247054 0.938572
O O3 0.000000 0.187627 0.849534
O O4 0.000000 0.000000 0.930219
O O5 0.625355 0.500000 0.772291
O O6 0.676366 0.292683 0.719447
O O7 0.562017 0.274888 0.742500
O O8 0.635458 0.255411 0.826981
O O9 0.352615 0.223953 0.059844
O O10 0.344296 0.000000 0.000000
O O11 0.841045 0.265628 0.112128
O O12 0.736062 0.178982 0.137694
O O13 0.823144 0.000000 0.148118
O O14 0.110605 0.500000 0.930260
O O15 0.150062 0.689941 0.000000
O O16 0.500000 0.500000 0.271273
O O17 0.850901 0.500000 0.375067
#
# Coordination Sequence:
#
# PCOD9522429 Si02
#       8
#     2   8  16   8  16  16   8  16
#     4   8  16  36  64  80 122 160 172 242 336 336
#     4  11  20  38  62  81 112 155 203 246 291 345
#     4  10  20  37  57  83 115 153 187 234 299 346
#     4   8  18  36  57  83 117 150 186 238 297 352
#     4  10  21  37  60  83 114 156 198 239 284 354
#     4  11  24  38  54  83 120 156 195 246 300 343
#     4   9  18  35  57  80 111 144 190 238 280 345
#     4  10  21  37  58  89 116 145 197 243 289 350
#
# _framework density 18.228261
#
# number of rings (size 3 to 8) (size 9 to 14) (size 15 to 20)
#    0.267    1.778    1.778    1.600    1.244    4.622 
#    0.000    0.444    0.000    0.000    0.000    2.489 
#    0.000    0.000    0.000    0.000    0.000    0.000 
#
# Total GULP energy -250535.059085 kJ/mol
# GULP energy per Si atom -5567.445757 kJ/mol
# Density = 1.818677 g / cm^3
# Si number density = 18.228261 Si / 1000 Ang^3
#
#
#
# Elastic Constant Matrix: (Units=GPa)
#
#
# Indices 1 2 3 4 5 6 
#
# 1 74.5645 27.7734 61.0342 0.0000 0.0000 0.0000
# 2 27.7734 40.0717 49.9671 0.0000 0.0000 0.0000
# 3 61.0342 49.9671 172.2454 0.0000 0.0000 0.0000
# 4 0.0000 0.0000 0.0000 217.5047 0.0000 0.0000
# 5 0.0000 0.0000 0.0000 0.0000 18.0050 0.0000
# 6 0.0000 0.0000 0.0000 0.0000 0.0000 16.5804
#
#
#
# Elastic Compliance Matrix: (Units=1/GPa)
#
#
# Indices 1 2 3 4 5 6 
#
# 1 0.020419 -0.008038 -0.004904 0.000000 0.000000 0.000000
# 2 -0.008038 0.042262 -0.009412 0.000000 0.000000 0.000000
# 3 -0.004904 -0.009412 0.010274 0.000000 0.000000 0.000000
# 4 0.000000 0.000000 0.000000 0.004598 0.000000 0.000000
# 5 0.000000 0.000000 0.000000 0.000000 0.055540 0.000000
# 6 0.000000 0.000000 0.000000 0.000000 0.000000 0.060312
#
#
# Mechanical properties :
#
#
# Convention : Reuss Voigt Hill
#
# Bulk Modulus (GPa) = 35.40028 62.71455 49.05742
# Shear Modulus (GPa) = 20.19981 60.29179 40.24580
#
# Velocity S-wave (km/s) = 3.33251 5.75741 4.70391
# Velocity P-wave (km/s) = 5.85408 8.87000 7.51489
#
# Compressibility (1/GPa) = 0.02824836
#
# Stress axis : x y z
#
# Youngs Moduli (GPa) = 48.97429 23.66183 97.33710
#
# Poissons Ratio (x) = 0.19018 0.47731
# Poissons Ratio (y) = 0.39363 0.91612
# Poissons Ratio (z) = 0.24015 0.22270
#
# Static dielectric constant tensor:
#      x y z
#    x 1.639370 0.000000 0.000000 
#    y 0.000000 1.613490 0.000000 
#    z 0.000000 0.000000 1.687760 
# 
# From -- ./inp_files/55676.got.cif
#   From: 2010.05.17/outbox.cif.g08.bks.cpg/sg71_28_cif.got.tgz:55676.got - 2010.06.03 16:22:01.
