data_PCOD9522588
_publ_section_title
;
Structure prediction by ZEFSAII (Michael W. Deem and Ramdas Pophale) SiO2 
 PCOD9522588
Probable space group: I M M M
;
_chemical_formula_sum "Si O2"
_cell_formula_units_Z 58
_cell_length_a 16.888454
_cell_length_b 19.859771
_cell_length_c 7.544083
_cell_angle_alpha 90.000000
_cell_angle_beta 90.000000
_cell_angle_gamma 90.000000
_cell_volume 2530.291692
_symmetry_space_group_name_H-M "I M M M"
_symmetry_group_IT_number 71
_symmetry_cell_setting 'orthorhombic'
loop_
_space_group_symop_operation_xyz
x,y,z
-x,-y,z
x,-y,-z
-x,y,-z
-x,-y,-z
x,y,-z
-x,y,z
x,-y,z
1/2+x,1/2+y,1/2+z
1/2-x,1/2-y,1/2+z
1/2+x,1/2-y,1/2-z
1/2-x,1/2+y,1/2-z
1/2-x,1/2-y,1/2-z
1/2+x,1/2+y,1/2-z
1/2-x,1/2+y,1/2+z
1/2+x,1/2-y,1/2+z
loop_
_atom_site_type_symbol
_atom_site_label
_atom_site_fract_x
_atom_site_fract_y
_atom_site_fract_z
Si Si1 0.163805 0.309400 0.206496
Si Si2 0.000000 0.500000 0.500000
Si Si3 0.409193 0.674734 0.286045
Si Si4 0.500000 0.112029 0.303489
Si Si5 0.279567 0.424158 0.211056
O O1 0.148266 0.234938 0.282368
O O2 0.221563 0.366093 0.286015
O O3 0.077179 0.342062 0.209838
O O4 0.187224 0.300354 0.000000
O O5 0.000000 0.557782 0.653210
O O6 0.411384 0.681076 0.500000
O O7 0.500000 0.680307 0.223526
O O8 0.367442 0.604538 0.240006
O O9 0.500000 0.081285 0.500000
O O10 0.267754 0.500000 0.280996
O O11 0.264248 0.427560 0.000000
#
# Coordination Sequence:
#
# PCOD9522588 Si02
#       5
#    16   2  16   8  16
#     4   9  18  38  65  86 112 159 205 247 312 377
#     4  12  26  36  52 106 132 160 226 252 304 402
#     4  10  20  38  62  88 115 151 206 253 305 377
#     4  10  21  41  63  86 130 176 205 260 317 367
#     4  10  22  38  57  87 120 155 202 247 307 384
#
# _framework density 22.922257999999999
#
# number of rings (size 3 to 8) (size 9 to 14) (size 15 to 20)
#    0.000    2.207    1.379    1.034    1.931    1.655 
#    4.966    2.759    0.000    0.000    0.000    0.000 
#    0.000    0.000    0.000    0.000    0.000    0.000 
#
# Total GULP energy -161692.612539 kJ/mol
# GULP energy per Si atom -5575.607329 kJ/mol
# Density = 2.287009 g / cm^3
# Si number density = 22.922258 Si / 1000 Ang^3
#
#
#
# Elastic Constant Matrix: (Units=GPa)
#
#
# Indices 1 2 3 4 5 6 
#
# 1 116.4295 73.8689 -1.9197 0.0000 0.0000 0.0000
# 2 73.8689 130.5931 12.0427 0.0000 0.0000 0.0000
# 3 -1.9197 12.0427 84.3123 0.0000 0.0000 0.0000
# 4 0.0000 0.0000 0.0000 20.3824 0.0000 0.0000
# 5 0.0000 0.0000 0.0000 0.0000 18.3533 0.0000
# 6 0.0000 0.0000 0.0000 0.0000 0.0000 19.2309
#
#
#
# Elastic Compliance Matrix: (Units=1/GPa)
#
#
# Indices 1 2 3 4 5 6 
#
# 1 0.013563 -0.007803 0.001423 0.000000 0.000000 0.000000
# 2 -0.007803 0.012249 -0.001927 0.000000 0.000000 0.000000
# 3 0.001423 -0.001927 0.012168 0.000000 0.000000 0.000000
# 4 0.000000 0.000000 0.000000 0.049062 0.000000 0.000000
# 5 0.000000 0.000000 0.000000 0.000000 0.054486 0.000000
# 6 0.000000 0.000000 0.000000 0.000000 0.000000 0.052000
#
#
# Mechanical properties :
#
#
# Convention : Reuss Voigt Hill
#
# Bulk Modulus (GPa) = 46.80256 55.47986 51.14121
# Shear Modulus (GPa) = 23.01347 28.08284 25.54816
#
# Velocity S-wave (km/s) = 3.17200 3.50399 3.34212
# Velocity P-wave (km/s) = 5.82046 6.37390 6.10346
#
# Compressibility (1/GPa) = 0.02136635
#
# Stress axis : x y z
#
# Youngs Moduli (GPa) = 73.72981 81.64041 82.18038
#
# Poissons Ratio (x) = 0.63705 -0.11697
# Poissons Ratio (y) = 0.57532 0.15838
# Poissons Ratio (z) = -0.10494 0.15734
#
# Static dielectric constant tensor:
#      x y z
#    x 1.847300 0.000000 0.000000 
#    y 0.000000 1.854450 0.000000 
#    z 0.000000 0.000000 1.874390 
# 
# From -- ./inp_files/7246.got.cif
#   From: 2010.05.17/outbox.cif.g08.bks.cpg/sg71_4_cif.got.tgz:7246.got - 2010.06.03 16:22:01.
