data_PCOD9522875
_publ_section_title
;
Structure prediction by ZEFSAII (Michael W. Deem and Ramdas Pophale) SiO2 
 PCOD9522875
Probable space group: I M M M
;
_chemical_formula_sum "Si O2"
_cell_formula_units_Z 68
_cell_length_a 24.255959
_cell_length_b 17.699671
_cell_length_c 7.520259
_cell_angle_alpha 90.000000
_cell_angle_beta 90.000000
_cell_angle_gamma 90.000000
_cell_volume 3228.616350
_symmetry_space_group_name_H-M "I M M M"
_symmetry_group_IT_number 71
_symmetry_cell_setting 'orthorhombic'
loop_
_space_group_symop_operation_xyz
x,y,z
-x,-y,z
x,-y,-z
-x,y,-z
-x,-y,-z
x,y,-z
-x,y,z
x,-y,z
1/2+x,1/2+y,1/2+z
1/2-x,1/2-y,1/2+z
1/2+x,1/2-y,1/2-z
1/2-x,1/2+y,1/2-z
1/2-x,1/2-y,1/2-z
1/2+x,1/2+y,1/2-z
1/2-x,1/2+y,1/2+z
1/2+x,1/2-y,1/2+z
loop_
_atom_site_type_symbol
_atom_site_label
_atom_site_fract_x
_atom_site_fract_y
_atom_site_fract_z
Si Si1 0.500000 0.131777 0.301082
Si Si2 0.000000 0.500000 0.500000
Si Si3 0.709627 0.084978 0.210666
Si Si4 0.100224 0.000000 0.284090
Si Si5 0.883393 0.302506 0.283402
Si Si6 0.672112 0.647503 0.212661
Si Si7 0.500000 0.500000 0.500000
O O1 0.500000 0.100242 0.500000
O O2 0.445266 0.182207 0.276853
O O3 0.500000 0.066371 0.154626
O O4 0.656619 0.129883 0.278847
O O5 0.764968 0.133409 0.233348
O O6 0.716437 0.000000 0.283895
O O7 0.701072 0.077741 0.000000
O O8 0.136584 0.926093 0.241445
O O9 0.047785 0.000000 0.157701
O O10 0.088861 0.000000 0.500000
O O11 0.883792 0.302181 0.500000
O O12 0.856603 0.223845 0.221414
O O13 0.672656 0.652573 0.000000
#
# Coordination Sequence:
#
# PCOD9522875 Si02
#       7
#     8   2  16   8  16  16   2
#     4  12  27  46  74 106 131 186 231 271 341 411
#     4  12  26  52  76  88 152 158 218 292 324 396
#     4  10  21  35  62  95 130 174 225 281 351 417
#     4  10  23  43  64  97 133 179 234 282 331 411
#     4  10  22  42  65  94 136 183 224 286 354 400
#     4  10  21  39  64  91 133 181 227 288 353 396
#     4  12  26  40  68  96 128 180 224 266 348 374
#
# _framework density 21.061655999999999
#
# number of rings (size 3 to 8) (size 9 to 14) (size 15 to 20)
#    0.000    1.647    2.353    1.059    3.294    2.824 
#    2.118    3.529    0.000    0.000    0.000    0.000 
#    0.000    0.000    0.000    0.000    0.000    0.000 
#
# Total GULP energy -189475.692618 kJ/mol
# GULP energy per Si atom -5572.814489 kJ/mol
# Density = 2.101372 g / cm^3
# Si number density = 21.061656 Si / 1000 Ang^3
#
#
#
# Elastic Constant Matrix: (Units=GPa)
#
#
# Indices 1 2 3 4 5 6 
#
# 1 203.7822 84.0355 22.3890 0.0000 0.0000 0.0000
# 2 84.0355 150.6640 22.5965 0.0000 0.0000 0.0000
# 3 22.3890 22.5965 88.6057 0.0000 0.0000 0.0000
# 4 0.0000 0.0000 0.0000 4.9519 0.0000 0.0000
# 5 0.0000 0.0000 0.0000 0.0000 52.7150 0.0000
# 6 0.0000 0.0000 0.0000 0.0000 0.0000 -0.4199
#
#
#
# Elastic Compliance Matrix: (Units=1/GPa)
#
#
# Indices 1 2 3 4 5 6 
#
# 1 0.006419 -0.003470 -0.000737 0.000000 0.000000 0.000000
# 2 -0.003470 0.008777 -0.001362 0.000000 0.000000 0.000000
# 3 -0.000737 -0.001362 0.011819 0.000000 0.000000 0.000000
# 4 0.000000 0.000000 0.000000 0.201942 0.000000 0.000000
# 5 0.000000 0.000000 0.000000 0.000000 0.018970 0.000000
# 6 0.000000 0.000000 0.000000 0.000000 0.000000 -2.381496
#
#
# Mechanical properties :
#
#
# Convention : Reuss Voigt Hill
#
# Bulk Modulus (GPa) = 62.97846 77.89931 70.43888
# Shear Modulus (GPa) = -2.36168 32.38480 15.01156
#
# Velocity S-wave (km/s) = -1.06007 3.92550 2.67262
# Velocity P-wave (km/s) = 5.33559 7.59030 6.56053
#
# Compressibility (1/GPa) = 0.01587845
#
# Stress axis : x y z
#
# Youngs Moduli (GPa) = 155.78627 113.93639 84.60647
#
# Poissons Ratio (x) = 0.39534 0.06236
# Poissons Ratio (y) = 0.54055 0.11520
# Poissons Ratio (z) = 0.11483 0.15513
#
# Static dielectric constant tensor:
#      x y z
#    x 1.712160 0.000000 0.000000 
#    y 0.000000 1.757410 0.000000 
#    z 0.000000 0.000000 1.788040 
# 
# From -- ./inp_files/9695.got.cif
#   From: 2010.05.17/outbox.cif.g08.bks.cpg/sg71_5_cif.got.tgz:9695.got - 2010.06.03 16:22:01.
