data_PCOD9522913
_publ_section_title
;
Structure prediction by ZEFSAII (Michael W. Deem and Ramdas Pophale) SiO2 
 PCOD9522913
Probable space group: I M M M
;
_chemical_formula_sum "Si O2"
_cell_formula_units_Z 116
_cell_length_a 29.836668
_cell_length_b 24.665292
_cell_length_c 7.578251
_cell_angle_alpha 90.000000
_cell_angle_beta 90.000000
_cell_angle_gamma 90.000000
_cell_volume 5577.063232
_symmetry_space_group_name_H-M "I M M M"
_symmetry_group_IT_number 71
_symmetry_cell_setting 'orthorhombic'
loop_
_space_group_symop_operation_xyz
x,y,z
-x,-y,z
x,-y,-z
-x,y,-z
-x,-y,-z
x,y,-z
-x,y,z
x,-y,z
1/2+x,1/2+y,1/2+z
1/2-x,1/2-y,1/2+z
1/2+x,1/2-y,1/2-z
1/2-x,1/2+y,1/2-z
1/2-x,1/2-y,1/2-z
1/2+x,1/2+y,1/2-z
1/2-x,1/2+y,1/2+z
1/2+x,1/2-y,1/2+z
loop_
_atom_site_type_symbol
_atom_site_label
_atom_site_fract_x
_atom_site_fract_y
_atom_site_fract_z
Si Si1 0.949011 0.938895 0.286858
Si Si2 0.949313 0.645645 0.290907
Si Si3 0.777827 0.909225 0.794186
Si Si4 0.742776 0.500000 0.000000
Si Si5 0.694813 0.848794 0.714465
Si Si6 0.129935 0.141911 0.207272
Si Si7 0.377269 0.763334 0.287251
Si Si8 0.125525 0.560875 0.207854
O O1 0.949017 0.939107 0.500000
O O2 0.913831 0.894655 0.227621
O O3 0.000000 0.928040 0.228878
O O4 0.936658 0.000000 0.229094
O O5 0.951907 0.638997 0.500000
O O6 0.920290 0.699752 0.257288
O O7 0.920415 0.594600 0.223892
O O8 0.000000 0.648444 0.220122
O O9 0.744230 0.858108 0.785251
O O10 0.826769 0.890649 0.727330
O O11 0.759120 0.953042 0.656727
O O12 0.780401 0.927596 0.000000
O O13 0.695900 0.848642 0.500000
O O14 0.666964 0.796083 0.770933
O O15 0.664588 0.900037 0.777600
O O16 0.122444 0.202090 0.281456
O O17 0.139102 0.149027 0.000000
O O18 0.376475 0.762067 0.500000
O O19 0.123869 0.500000 0.281664
O O20 0.135108 0.555746 0.000000
#
# Coordination Sequence:
#
# PCOD9522913 Si02
#       8
#    16  16  16   4  16  16  16  16
#     4   9  20  38  60  85 115 155 200 244 299 369
#     4  10  21  36  53  79 114 149 192 247 303 355
#     4  11  25  41  63  96 127 164 207 250 298 361
#     4  12  26  44  64  90 133 170 203 244 310 352
#     4   9  18  36  61  84 118 159 200 245 306 357
#     4  10  23  40  59  90 122 152 199 247 300 362
#     4   9  20  40  62  82 114 155 196 249 300 360
#     4   9  19  34  56  82 112 151 195 242 292 358
#
# _framework density 20.799475999999999
#
# number of rings (size 3 to 8) (size 9 to 14) (size 15 to 20)
#    0.000    2.345    0.690    1.862    2.897    6.069 
#    0.000    4.828    0.000    0.000    0.000    0.000 
#    0.000    0.000    0.000    0.000    0.000    0.000 
#
# Total GULP energy -323176.881809 kJ/mol
# GULP energy per Si atom -5572.015204 kJ/mol
# Density = 2.075214 g / cm^3
# Si number density = 20.799476 Si / 1000 Ang^3
#
#
#
# Elastic Constant Matrix: (Units=GPa)
#
#
# Indices 1 2 3 4 5 6 
#
# 1 75.0556 36.7080 -10.3987 0.0000 0.0000 0.0000
# 2 36.7080 104.8112 1.2777 0.0000 0.0000 0.0000
# 3 -10.3987 1.2777 65.4600 0.0000 0.0000 0.0000
# 4 0.0000 0.0000 0.0000 32.3829 0.0000 0.0000
# 5 0.0000 0.0000 0.0000 0.0000 25.7456 0.0000
# 6 0.0000 0.0000 0.0000 0.0000 0.0000 989.5102
#
#
#
# Elastic Compliance Matrix: (Units=1/GPa)
#
#
# Indices 1 2 3 4 5 6 
#
# 1 0.016556 -0.005832 0.002744 0.000000 0.000000 0.000000
# 2 -0.005832 0.011597 -0.001153 0.000000 0.000000 0.000000
# 3 0.002744 -0.001153 0.015735 0.000000 0.000000 0.000000
# 4 0.000000 0.000000 0.000000 0.030881 0.000000 0.000000
# 5 0.000000 0.000000 0.000000 0.000000 0.038842 0.000000
# 6 0.000000 0.000000 0.000000 0.000000 0.000000 0.001011
#
#
# Mechanical properties :
#
#
# Convention : Reuss Voigt Hill
#
# Bulk Modulus (GPa) = 28.24330 33.38899 30.81615
# Shear Modulus (GPa) = 37.06325 224.04373 130.55349
#
# Velocity S-wave (km/s) = 4.22587 10.38989 7.93120
# Velocity P-wave (km/s) = 6.11711 12.64993 9.93579
#
# Compressibility (1/GPa) = 0.03540663
#
# Stress axis : x y z
#
# Youngs Moduli (GPa) = 60.40183 86.22559 63.55313
#
# Poissons Ratio (x) = 0.50285 -0.17438
# Poissons Ratio (y) = 0.35225 0.07326
# Poissons Ratio (z) = -0.16573 0.09940
#
# Static dielectric constant tensor:
#      x y z
#    x 1.750840 0.000000 0.000000 
#    y 0.000000 1.750400 0.000000 
#    z 0.000000 0.000000 1.779280 
# 
# From -- ./inp_files/15401.got.cif
#   From: 2010.05.17/outbox.cif.g08.bks.cpg/sg71_8_cif.got.tgz:15401.got - 2010.06.03 16:22:01.
