data_PCOD9522912
_publ_section_title
;
Structure prediction by ZEFSAII (Michael W. Deem and Ramdas Pophale) SiO2 
 PCOD9522912
Probable space group: I M M M
;
_chemical_formula_sum "Si O2"
_cell_formula_units_Z 72
_cell_length_a 24.517099
_cell_length_b 18.343071
_cell_length_c 7.477415
_cell_angle_alpha 90.000000
_cell_angle_beta 90.000000
_cell_angle_gamma 90.000000
_cell_volume 3362.734756
_symmetry_space_group_name_H-M "I M M M"
_symmetry_group_IT_number 71
_symmetry_cell_setting 'orthorhombic'
loop_
_space_group_symop_operation_xyz
x,y,z
-x,-y,z
x,-y,-z
-x,y,-z
-x,-y,-z
x,y,-z
-x,y,z
x,-y,z
1/2+x,1/2+y,1/2+z
1/2-x,1/2-y,1/2+z
1/2+x,1/2-y,1/2-z
1/2-x,1/2+y,1/2-z
1/2-x,1/2-y,1/2-z
1/2+x,1/2+y,1/2-z
1/2-x,1/2+y,1/2+z
1/2+x,1/2-y,1/2+z
loop_
_atom_site_type_symbol
_atom_site_label
_atom_site_fract_x
_atom_site_fract_y
_atom_site_fract_z
Si Si1 0.562220 0.000000 0.218506
Si Si2 0.436789 0.709482 0.781031
Si Si3 0.874123 0.643650 0.281253
Si Si4 0.247439 0.663902 0.287917
Si Si5 0.641147 0.582063 0.209528
O O1 0.592603 0.073032 0.275528
O O2 0.500000 0.000000 0.276897
O O3 0.562430 0.000000 0.000000
O O4 0.500000 0.710840 0.726244
O O5 0.403875 0.781858 0.725387
O O6 0.403686 0.638467 0.717236
O O7 0.436327 0.709518 0.000000
O O8 0.873338 0.644950 0.500000
O O9 0.811643 0.638942 0.220187
O O10 0.248187 0.653682 0.500000
O O11 0.250000 0.750000 0.250000
O O12 0.299774 0.620445 0.219636
O O13 0.641795 0.500000 0.285102
O O14 0.628240 0.575439 0.000000
#
# Coordination Sequence:
#
# PCOD9522912 Si02
#       5
#     8  16  16  16  16
#     4   9  16  26  42  70 107 137 162 207 268 316
#     4   9  16  29  50  74 101 136 178 223 272 321
#     4   9  17  28  45  72 104 135 170 215 264 318
#     4  11  21  35  56  79 108 141 180 223 269 322
#     4  10  21  36  53  79 113 143 178 224 272 322
#
# _framework density 21.411144
#
# number of rings (size 3 to 8) (size 9 to 14) (size 15 to 20)
#    0.000    2.333    2.222    1.333    1.556    3.556 
#    0.000    2.222    0.000    0.667    0.000    1.556 
#    0.000    3.556    0.000    0.000    0.000    0.000 
#
# Total GULP energy -201107.065107 kJ/mol
# GULP energy per Si atom -5586.307364 kJ/mol
# Density = 2.136241 g / cm^3
# Si number density = 21.411144 Si / 1000 Ang^3
#
#
#
# Elastic Constant Matrix: (Units=GPa)
#
#
# Indices 1 2 3 4 5 6 
#
# 1 157.1657 67.4836 -3.5117 0.0000 0.0000 0.0000
# 2 67.4836 165.4370 -0.1631 0.0000 0.0000 0.0000
# 3 -3.5117 -0.1631 60.2829 0.0000 0.0000 0.0000
# 4 0.0000 0.0000 0.0000 -0.3019 0.0000 0.0000
# 5 0.0000 0.0000 0.0000 0.0000 15.5665 0.0000
# 6 0.0000 0.0000 0.0000 0.0000 0.0000 36.0061
#
#
#
# Elastic Compliance Matrix: (Units=1/GPa)
#
#
# Indices 1 2 3 4 5 6 
#
# 1 0.007726 -0.003151 0.000442 0.000000 0.000000 0.000000
# 2 -0.003151 0.007330 -0.000164 0.000000 0.000000 0.000000
# 3 0.000442 -0.000164 0.016614 0.000000 0.000000 0.000000
# 4 0.000000 0.000000 0.000000 -3.312766 0.000000 0.000000
# 5 0.000000 0.000000 0.000000 0.000000 0.064241 0.000000
# 6 0.000000 0.000000 0.000000 0.000000 0.000000 0.027773
#
#
# Mechanical properties :
#
#
# Convention : Reuss Voigt Hill
#
# Bulk Modulus (GPa) = 38.57612 56.72258 47.64935
# Shear Modulus (GPa) = -1.57495 31.52592 14.97548
#
# Velocity S-wave (km/s) = -0.85859 3.84136 2.64753
# Velocity P-wave (km/s) = 4.13196 6.79885 5.62572
#
# Compressibility (1/GPa) = 0.02592277
#
# Stress axis : x y z
#
# Youngs Moduli (GPa) = 129.44145 136.43095 60.19116
#
# Poissons Ratio (x) = 0.42988 -0.02657
# Poissons Ratio (y) = 0.40785 0.00985
# Poissons Ratio (z) = -0.05715 0.02234
#
# Static dielectric constant tensor:
#      x y z
#    x 1.736700 0.000000 0.000000 
#    y 0.000000 1.738750 0.000000 
#    z 0.000000 0.000000 1.858940 
# 
# From -- ./inp_files/12160.got.cif
#   From: 2010.05.17/outbox.cif.g08.bks.cpg/sg71_7_cif.got.tgz:12160.got - 2010.06.03 16:22:01.
