data_PCOD9522235
_publ_section_title
;
Structure prediction by ZEFSAII (Michael W. Deem and Ramdas Pophale) SiO2 
 PCOD9522235
Probable space group: I M M M
;
_chemical_formula_sum "Si O2"
_cell_formula_units_Z 104
_cell_length_a 11.723571
_cell_length_b 18.703588
_cell_length_c 23.399964
_cell_angle_alpha 90.000000
_cell_angle_beta 90.000000
_cell_angle_gamma 90.000000
_cell_volume 5130.976606
_symmetry_space_group_name_H-M "I M M M"
_symmetry_group_IT_number 71
_symmetry_cell_setting 'orthorhombic'
loop_
_space_group_symop_operation_xyz
x,y,z
-x,-y,z
x,-y,-z
-x,y,-z
-x,-y,-z
x,y,-z
-x,y,z
x,-y,z
1/2+x,1/2+y,1/2+z
1/2-x,1/2-y,1/2+z
1/2+x,1/2-y,1/2-z
1/2-x,1/2+y,1/2-z
1/2-x,1/2-y,1/2-z
1/2+x,1/2+y,1/2-z
1/2-x,1/2+y,1/2+z
1/2+x,1/2-y,1/2+z
loop_
_atom_site_type_symbol
_atom_site_label
_atom_site_fract_x
_atom_site_fract_y
_atom_site_fract_z
Si Si1 0.368646 0.921156 0.264409
Si Si2 0.128980 0.270826 0.278585
Si Si3 0.000000 0.369190 0.067806
Si Si4 0.371537 0.279887 0.908425
Si Si5 0.733385 0.639532 0.565610
Si Si6 0.368707 0.000000 0.070329
Si Si7 0.237023 0.580659 0.886245
Si Si8 0.000000 0.203346 0.929375
O O1 0.500000 0.920649 0.286568
O O2 0.362942 0.856784 0.220417
O O3 0.284787 0.909099 0.318103
O O4 0.347235 0.000000 0.240506
O O5 0.250000 0.250000 0.250000
O O6 0.127227 0.237370 0.340941
O O7 0.000000 0.255018 0.252873
O O8 0.887871 0.409613 0.087570
O O9 0.000000 0.286447 0.089392
O O10 0.000000 0.364859 0.000000
O O11 0.500000 0.282148 0.929929
O O12 0.305388 0.212687 0.934406
O O13 0.311454 0.356370 0.913359
O O14 0.708476 0.619628 0.500000
O O15 0.802931 0.571962 0.588982
O O16 0.612377 0.662317 0.591737
O O17 0.500000 0.000000 0.089907
O O18 0.372804 0.000000 0.000000
O O19 0.279753 0.500000 0.895397
O O20 0.000000 0.204630 0.000000
#
# Coordination Sequence:
#
# PCOD9522235 Si02
#       8
#    16  16   8  16  16   8  16   8
#     4   9  17  32  55  81 107 138 182 226 273 337
#     4  10  20  36  57  82 110 143 184 233 284 336
#     4  11  21  36  56  86 120 145 189 246 293 340
#     4  11  23  37  55  81 111 146 193 235 280 343
#     4  10  20  37  58  82 113 145 183 229 279 335
#     4   9  18  33  55  81 109 148 189 221 261 319
#     4  11  21  34  56  81 109 148 187 230 287 342
#     4   9  18  32  56  84 107 143 185 225 280 335
#
# _framework density 20.269045999999999
#
# number of rings (size 3 to 8) (size 9 to 14) (size 15 to 20)
#    0.000    1.923    3.846    0.692    0.000    2.154 
#    2.769    1.538    0.000    0.462    0.000    2.154 
#    0.000    0.000    0.000    0.000    0.000    0.000 
#
# Total GULP energy -289911.962813 kJ/mol
# GULP energy per Si atom -5575.230054 kJ/mol
# Density = 2.022291 g / cm^3
# Si number density = 20.269046 Si / 1000 Ang^3
#
#
#
# Elastic Constant Matrix: (Units=GPa)
#
#
# Indices 1 2 3 4 5 6 
#
# 1 120.2045 49.0282 5.8352 0.0000 0.0000 0.0000
# 2 49.0282 153.3916 4.5475 0.0000 0.0000 0.0000
# 3 5.8352 4.5475 21.7066 0.0000 0.0000 0.0000
# 4 0.0000 0.0000 0.0000 22.7903 0.0000 0.0000
# 5 0.0000 0.0000 0.0000 0.0000 8.3103 0.0000
# 6 0.0000 0.0000 0.0000 0.0000 0.0000 17.4444
#
#
#
# Elastic Compliance Matrix: (Units=1/GPa)
#
#
# Indices 1 2 3 4 5 6 
#
# 1 0.009648 -0.003026 -0.001960 0.000000 0.000000 0.000000
# 2 -0.003026 0.007509 -0.000760 0.000000 0.000000 0.000000
# 3 -0.001960 -0.000760 0.046755 0.000000 0.000000 0.000000
# 4 0.000000 0.000000 0.000000 0.043878 0.000000 0.000000
# 5 0.000000 0.000000 0.000000 0.000000 0.120332 0.000000
# 6 0.000000 0.000000 0.000000 0.000000 0.000000 0.057325
#
#
# Mechanical properties :
#
#
# Convention : Reuss Voigt Hill
#
# Bulk Modulus (GPa) = 19.07610 46.01384 32.54497
# Shear Modulus (GPa) = 15.90270 25.43515 20.66892
#
# Velocity S-wave (km/s) = 2.80408 3.54627 3.19678
# Velocity P-wave (km/s) = 4.46270 6.28640 5.45135
#
# Compressibility (1/GPa) = 0.05242161
#
# Stress axis : x y z
#
# Youngs Moduli (GPa) = 103.64374 133.17501 21.38815
#
# Poissons Ratio (x) = 0.40296 0.04192
# Poissons Ratio (y) = 0.31361 0.01625
# Poissons Ratio (z) = 0.20312 0.10117
#
# Static dielectric constant tensor:
#      x y z
#    x 1.731650 0.000000 0.000000 
#    y 0.000000 1.715960 0.000000 
#    z 0.000000 0.000000 1.757860 
# 
# From -- ./inp_files/64706.got.cif
#   From: 2010.05.17/outbox.cif.g08.bks.cpg/sg71_33_cif.got.tgz:64706.got - 2010.06.03 16:22:01.
