data_PCOD9522052
_publ_section_title
;
Structure prediction by ZEFSAII (Michael W. Deem and Ramdas Pophale) SiO2 
 PCOD9522052
Probable space group: I M M M
;
_chemical_formula_sum "Si O2"
_cell_formula_units_Z 104
_cell_length_a 22.858550
_cell_length_b 8.670479
_cell_length_c 27.702499
_cell_angle_alpha 90.000000
_cell_angle_beta 90.000000
_cell_angle_gamma 90.000000
_cell_volume 5490.485092
_symmetry_space_group_name_H-M "I M M M"
_symmetry_group_IT_number 71
_symmetry_cell_setting 'orthorhombic'
loop_
_space_group_symop_operation_xyz
x,y,z
-x,-y,z
x,-y,-z
-x,y,-z
-x,-y,-z
x,y,-z
-x,y,z
x,-y,z
1/2+x,1/2+y,1/2+z
1/2-x,1/2-y,1/2+z
1/2+x,1/2-y,1/2-z
1/2-x,1/2+y,1/2-z
1/2-x,1/2-y,1/2-z
1/2+x,1/2+y,1/2-z
1/2-x,1/2+y,1/2+z
1/2+x,1/2-y,1/2+z
loop_
_atom_site_type_symbol
_atom_site_label
_atom_site_fract_x
_atom_site_fract_y
_atom_site_fract_z
Si Si1 0.724893 0.821770 0.201878
Si Si2 0.167883 0.821851 0.872497
Si Si3 0.069196 0.825376 0.500000
Si Si4 0.567020 0.687791 0.700177
Si Si5 0.877261 0.317914 0.405427
Si Si6 0.755782 0.184166 0.443538
Si Si7 0.601568 0.680456 0.808278
O O1 0.750000 0.750000 0.250000
O O2 0.777578 0.821678 0.164315
O O3 0.670745 0.712869 0.190287
O O4 0.705036 0.000000 0.207338
O O5 0.113277 0.759449 0.840639
O O6 0.194823 0.735465 0.918631
O O7 0.154916 0.000000 0.885569
O O8 0.089744 0.736223 0.452988
O O9 0.000000 0.836142 0.500000
O O10 0.094414 0.000000 0.500000
O O11 0.500000 0.726701 0.688471
O O12 0.572580 0.500000 0.701349
O O13 0.580405 0.738552 0.755596
O O14 0.871544 0.500000 0.401203
O O15 0.811314 0.253310 0.414561
O O16 0.913896 0.259185 0.358928
O O17 0.759019 0.231973 0.500000
O O18 0.760198 0.000000 0.441257
O O19 0.587253 0.500000 0.810789
#
# Coordination Sequence:
#
# PCOD9522052 Si02
#       7
#    16  16   8  16  16  16  16
#     4  11  20  31  50  81 115 147 184 230 284 340
#     4  10  20  35  57  86 115 148 192 239 296 356
#     4  11  25  45  65  83 109 155 210 251 290 347
#     4   9  19  37  59  83 114 153 196 241 287 344
#     4  12  24  38  59  88 121 155 195 247 301 349
#     4  11  23  38  59  87 119 152 191 240 298 362
#     4  11  21  35  56  84 117 154 195 237 286 345
#
# _framework density 18.941859999999998
#
# number of rings (size 3 to 8) (size 9 to 14) (size 15 to 20)
#    0.000    1.308    3.846    3.000    0.000    2.769 
#    0.000    1.538    0.000    4.154    0.000    3.231 
#    0.000    0.000    0.000    0.000    0.000    0.000 
#
# Total GULP energy -290006.507236 kJ/mol
# GULP energy per Si atom -5577.048216 kJ/mol
# Density = 1.889875 g / cm^3
# Si number density = 18.941860 Si / 1000 Ang^3
#
#
#
# Elastic Constant Matrix: (Units=GPa)
#
#
# Indices 1 2 3 4 5 6 
#
# 1 85.1993 9.0940 31.9140 0.0000 0.0000 0.0000
# 2 9.0940 57.5069 28.9957 0.0000 0.0000 0.0000
# 3 31.9140 28.9957 91.3961 0.0000 0.0000 0.0000
# 4 0.0000 0.0000 0.0000 16.2202 0.0000 0.0000
# 5 0.0000 0.0000 0.0000 0.0000 16.4153 0.0000
# 6 0.0000 0.0000 0.0000 0.0000 0.0000 18.2125
#
#
#
# Elastic Compliance Matrix: (Units=1/GPa)
#
#
# Indices 1 2 3 4 5 6 
#
# 1 0.013507 0.000288 -0.004808 0.000000 0.000000 0.000000
# 2 0.000288 0.020707 -0.006670 0.000000 0.000000 0.000000
# 3 -0.004808 -0.006670 0.014736 0.000000 0.000000 0.000000
# 4 0.000000 0.000000 0.000000 0.061651 0.000000 0.000000
# 5 0.000000 0.000000 0.000000 0.000000 0.060919 0.000000
# 6 0.000000 0.000000 0.000000 0.000000 0.000000 0.054907
#
#
# Mechanical properties :
#
#
# Convention : Reuss Voigt Hill
#
# Bulk Modulus (GPa) = 37.63497 41.56775 39.60136
# Shear Modulus (GPa) = 19.40510 21.10952 20.25731
#
# Velocity S-wave (km/s) = 3.20418 3.34194 3.27379
# Velocity P-wave (km/s) = 5.79663 6.07322 5.93653
#
# Compressibility (1/GPa) = 0.02657103
#
# Stress axis : x y z
#
# Youngs Moduli (GPa) = 74.03349 48.29358 67.85952
#
# Poissons Ratio (x) = -0.01392 0.32627
# Poissons Ratio (y) = -0.02134 0.45262
# Poissons Ratio (z) = 0.35595 0.32211
#
# Static dielectric constant tensor:
#      x y z
#    x 1.684010 0.000000 0.000000 
#    y 0.000000 1.673830 0.000000 
#    z 0.000000 0.000000 1.760900 
# 
# From -- ./inp_files/56262.got.cif
#   From: 2010.05.17/outbox.cif.g08.bks.cpg/sg71_29_cif.got.tgz:56262.got - 2010.06.03 16:22:01.
