data_PCOD9522680
_publ_section_title
;
Structure prediction by ZEFSAII (Michael W. Deem and Ramdas Pophale) SiO2 
 PCOD9522680
Probable space group: I M M M
;
_chemical_formula_sum "Si O2"
_cell_formula_units_Z 100
_cell_length_a 29.817372
_cell_length_b 21.590924
_cell_length_c 7.403708
_cell_angle_alpha 90.000000
_cell_angle_beta 90.000000
_cell_angle_gamma 90.000000
_cell_volume 4766.393288
_symmetry_space_group_name_H-M "I M M M"
_symmetry_group_IT_number 71
_symmetry_cell_setting 'orthorhombic'
loop_
_space_group_symop_operation_xyz
x,y,z
-x,-y,z
x,-y,-z
-x,y,-z
-x,-y,-z
x,y,-z
-x,y,z
x,-y,z
1/2+x,1/2+y,1/2+z
1/2-x,1/2-y,1/2+z
1/2+x,1/2-y,1/2-z
1/2-x,1/2+y,1/2-z
1/2-x,1/2-y,1/2-z
1/2+x,1/2+y,1/2-z
1/2-x,1/2+y,1/2+z
1/2+x,1/2-y,1/2+z
loop_
_atom_site_type_symbol
_atom_site_label
_atom_site_fract_x
_atom_site_fract_y
_atom_site_fract_z
Si Si1 0.233723 0.500000 0.000000
Si Si2 0.548850 0.601202 0.287966
Si Si3 0.213675 0.605777 0.705125
Si Si4 0.144025 0.297522 0.279735
Si Si5 0.450475 0.747659 0.218204
Si Si6 0.705109 0.685016 0.793715
Si Si7 0.853963 0.933098 0.780301
O O1 0.230388 0.445588 0.157631
O O2 0.547491 0.585457 0.500000
O O3 0.500000 0.584378 0.210951
O O4 0.553881 0.675464 0.271006
O O5 0.594497 0.571882 0.218164
O O6 0.209430 0.582369 0.500000
O O7 0.167165 0.637677 0.766541
O O8 0.249724 0.661986 0.701373
O O9 0.143725 0.294522 0.500000
O O10 0.093207 0.284820 0.219123
O O11 0.175948 0.241274 0.216864
O O12 0.500000 0.768778 0.279141
O O13 0.450397 0.749227 0.000000
O O14 0.673012 0.625004 0.790100
O O15 0.716676 0.700029 0.000000
O O16 0.835127 0.000000 0.724827
O O17 0.852861 0.930110 0.000000
#
# Coordination Sequence:
#
# PCOD9522680 Si02
#       7
#     4  16  16  16  16  16  16
#     4  12  26  48  64  98 121 158 213 246 304 372
#     4   9  17  30  46  68  99 141 195 250 303 358
#     4  11  24  43  65  89 124 162 202 251 301 364
#     4   9  19  36  59  89 122 156 197 251 308 354
#     4   9  16  30  54  82 113 148 189 238 299 364
#     4  11  21  37  57  84 119 156 205 256 299 356
#     4  10  21  33  46  70 103 151 205 250 306 359
#
# _framework density 20.980224
#
# number of rings (size 3 to 8) (size 9 to 14) (size 15 to 20)
#    0.000    2.080    2.400    1.200    1.120    0.640 
#    4.320    1.600    0.000    0.000    0.000    4.480 
#    0.000    3.840    0.000    0.000    0.000    0.000 
#
# Total GULP energy -278865.885795 kJ/mol
# GULP energy per Si atom -5577.317716 kJ/mol
# Density = 2.093247 g / cm^3
# Si number density = 20.980224 Si / 1000 Ang^3
#
#
#
# Elastic Constant Matrix: (Units=GPa)
#
#
# Indices 1 2 3 4 5 6 
#
# 1 111.9621 42.2891 4.8557 0.0000 0.0000 0.0000
# 2 42.2891 52.3971 15.1752 0.0000 0.0000 0.0000
# 3 4.8557 15.1752 96.3155 0.0000 0.0000 0.0000
# 4 0.0000 0.0000 0.0000 0.5759 0.0000 0.0000
# 5 0.0000 0.0000 0.0000 0.0000 7.1930 0.0000
# 6 0.0000 0.0000 0.0000 0.0000 0.0000 1.1363
#
#
#
# Elastic Compliance Matrix: (Units=1/GPa)
#
#
# Indices 1 2 3 4 5 6 
#
# 1 0.012947 -0.010751 0.001041 0.000000 0.000000 0.000000
# 2 -0.010751 0.028925 -0.004015 0.000000 0.000000 0.000000
# 3 0.001041 -0.004015 0.010963 0.000000 0.000000 0.000000
# 4 0.000000 0.000000 0.000000 1.736446 0.000000 0.000000
# 5 0.000000 0.000000 0.000000 0.000000 0.139025 0.000000
# 6 0.000000 0.000000 0.000000 0.000000 0.000000 0.880047
#
#
# Mechanical properties :
#
#
# Convention : Reuss Voigt Hill
#
# Bulk Modulus (GPa) = 39.39417 42.81272 41.10345
# Shear Modulus (GPa) = 1.75792 15.00468 8.38130
#
# Velocity S-wave (km/s) = 0.91636 2.67719 2.00088
# Velocity P-wave (km/s) = 4.46511 5.47786 4.99721
#
# Compressibility (1/GPa) = 0.02538447
#
# Stress axis : x y z
#
# Youngs Moduli (GPa) = 77.23668 34.57214 91.21838
#
# Poissons Ratio (x) = 0.37169 -0.09498
# Poissons Ratio (y) = 0.83038 0.36627
# Poissons Ratio (z) = -0.08042 0.13882
#
# Static dielectric constant tensor:
#      x y z
#    x 1.800780 0.000000 0.000000 
#    y 0.000000 1.717490 0.000000 
#    z 0.000000 0.000000 1.783730 
# 
# From -- ./inp_files/11477.got.cif
#   From: 2010.05.17/outbox.cif.g08.bks.cpg/sg71_6_cif.got.tgz:11477.got - 2010.06.03 16:22:01.
