data_PCOD9522214
_publ_section_title
;
Structure prediction by ZEFSAII (Michael W. Deem and Ramdas Pophale) SiO2 
 PCOD9522214
Probable space group: I M M M
;
_chemical_formula_sum "Si O2"
_cell_formula_units_Z 92
_cell_length_a 14.820097
_cell_length_b 16.790656
_cell_length_c 19.953852
_cell_angle_alpha 90.000000
_cell_angle_beta 90.000000
_cell_angle_gamma 90.000000
_cell_volume 4965.299583
_symmetry_space_group_name_H-M "I M M M"
_symmetry_group_IT_number 71
_symmetry_cell_setting 'orthorhombic'
loop_
_space_group_symop_operation_xyz
x,y,z
-x,-y,z
x,-y,-z
-x,y,-z
-x,-y,-z
x,y,-z
-x,y,z
x,-y,z
1/2+x,1/2+y,1/2+z
1/2-x,1/2-y,1/2+z
1/2+x,1/2-y,1/2-z
1/2-x,1/2+y,1/2-z
1/2-x,1/2-y,1/2-z
1/2+x,1/2+y,1/2-z
1/2-x,1/2+y,1/2+z
1/2+x,1/2-y,1/2+z
loop_
_atom_site_type_symbol
_atom_site_label
_atom_site_fract_x
_atom_site_fract_y
_atom_site_fract_z
Si Si1 0.500000 0.181569 0.418292
Si Si2 0.892420 0.825500 0.575271
Si Si3 0.604744 0.000000 0.112332
Si Si4 0.500000 0.000000 0.636755
Si Si5 0.152859 0.226307 0.167320
Si Si6 0.697181 0.355665 0.793347
Si Si7 0.671581 0.000000 0.262451
Si Si8 0.291705 0.157976 0.074991
O O1 0.500000 0.192442 0.500000
O O2 0.500000 0.085684 0.402567
O O3 0.582828 0.225852 0.379400
O O4 0.863938 0.851243 0.500000
O O5 0.853162 0.875014 0.637270
O O6 0.855519 0.735308 0.584878
O O7 0.000000 0.825237 0.577498
O O8 0.620124 0.000000 0.192065
O O9 0.651473 0.921134 0.084705
O O10 0.500000 0.000000 0.095753
O O11 0.407729 0.000000 0.681407
O O12 0.228718 0.289508 0.188096
O O13 0.129806 0.181597 0.237216
O O14 0.206959 0.162075 0.123773
O O15 0.760190 0.426084 0.767271
O O16 0.256431 0.163189 0.000000
#
# Coordination Sequence:
#
# PCOD9522214 Si02
#       8
#     8  16   8   4  16  16   8  16
#     4  12  25  42  64  95 131 166 212 262 315 372
#     4   9  19  36  59  87 115 147 192 245 299 362
#     4  12  23  34  57  88 125 160 196 252 318 373
#     4  12  25  42  64  96 125 164 198 264 329 380
#     4  10  21  38  61  88 116 161 211 251 298 366
#     4  10  21  38  61  86 116 158 203 246 304 369
#     4  12  22  42  59  87 125 154 198 252 313 366
#     4  10  20  36  56  85 122 158 195 245 308 370
#
# _framework density 18.528590000000001
#
# number of rings (size 3 to 8) (size 9 to 14) (size 15 to 20)
#    0.000    1.565    3.913    1.435    1.217    2.087 
#    0.000    0.870    0.000    2.609    0.000    3.652 
#    0.000    0.000    0.000    0.000    0.000    0.000 
#
# Total GULP energy -256205.456680 kJ/mol
# GULP energy per Si atom -5569.683841 kJ/mol
# Density = 1.848642 g / cm^3
# Si number density = 18.528590 Si / 1000 Ang^3
#
#
#
# Elastic Constant Matrix: (Units=GPa)
#
#
# Indices 1 2 3 4 5 6 
#
# 1 62.8179 21.7362 45.9647 0.0000 0.0000 0.0000
# 2 21.7362 50.4391 20.5999 0.0000 0.0000 0.0000
# 3 45.9647 20.5999 103.0808 0.0000 0.0000 0.0000
# 4 0.0000 0.0000 0.0000 26.0754 0.0000 0.0000
# 5 0.0000 0.0000 0.0000 0.0000 25.9726 0.0000
# 6 0.0000 0.0000 0.0000 0.0000 0.0000 25.1226
#
#
#
# Elastic Compliance Matrix: (Units=1/GPa)
#
#
# Indices 1 2 3 4 5 6 
#
# 1 0.025693 -0.006961 -0.010066 0.000000 0.000000 0.000000
# 2 -0.006961 0.023474 -0.001587 0.000000 0.000000 0.000000
# 3 -0.010066 -0.001587 0.014507 0.000000 0.000000 0.000000
# 4 0.000000 0.000000 0.000000 0.038350 0.000000 0.000000
# 5 0.000000 0.000000 0.000000 0.000000 0.038502 0.000000
# 6 0.000000 0.000000 0.000000 0.000000 0.000000 0.039805
#
#
# Mechanical properties :
#
#
# Convention : Reuss Voigt Hill
#
# Bulk Modulus (GPa) = 37.81310 43.65992 40.73651
# Shear Modulus (GPa) = 22.08741 23.96991 23.02866
#
# Velocity S-wave (km/s) = 3.45639 3.60067 3.52926
# Velocity P-wave (km/s) = 6.03167 6.39540 6.21620
#
# Compressibility (1/GPa) = 0.02644586
#
# Stress axis : x y z
#
# Youngs Moduli (GPa) = 38.92141 42.60055 68.93421
#
# Poissons Ratio (x) = 0.29655 0.69386
# Poissons Ratio (y) = 0.27094 0.10940
# Poissons Ratio (z) = 0.39176 0.06761
#
# Static dielectric constant tensor:
#      x y z
#    x 1.613440 0.000000 0.000000 
#    y 0.000000 1.648930 0.000000 
#    z 0.000000 0.000000 1.702490 
# 
# From -- ./inp_files/53055.got.cif
#   From: 2010.05.17/outbox.cif.g08.bks.cpg/sg71_27_cif.got.tgz:53055.got - 2010.06.03 16:22:01.
