data_PCOD9522271
_publ_section_title
;
Structure prediction by ZEFSAII (Michael W. Deem and Ramdas Pophale) SiO2 
 PCOD9522271
Probable space group: I M M M
;
_chemical_formula_sum "Si O2"
_cell_formula_units_Z 72
_cell_length_a 7.805576
_cell_length_b 15.825913
_cell_length_c 27.731496
_cell_angle_alpha 90.000000
_cell_angle_beta 90.000000
_cell_angle_gamma 90.000000
_cell_volume 3425.681870
_symmetry_space_group_name_H-M "I M M M"
_symmetry_group_IT_number 71
_symmetry_cell_setting 'orthorhombic'
loop_
_space_group_symop_operation_xyz
x,y,z
-x,-y,z
x,-y,-z
-x,y,-z
-x,-y,-z
x,y,-z
-x,y,z
x,-y,z
1/2+x,1/2+y,1/2+z
1/2-x,1/2-y,1/2+z
1/2+x,1/2-y,1/2-z
1/2-x,1/2+y,1/2-z
1/2-x,1/2-y,1/2-z
1/2+x,1/2+y,1/2-z
1/2-x,1/2+y,1/2+z
1/2+x,1/2-y,1/2+z
loop_
_atom_site_type_symbol
_atom_site_label
_atom_site_fract_x
_atom_site_fract_y
_atom_site_fract_z
Si Si1 0.295137 0.500000 0.055143
Si Si2 0.205392 0.823044 0.945531
Si Si3 0.793681 0.338817 0.774319
Si Si4 0.789871 0.500000 0.713182
Si Si5 0.294485 0.834483 0.616145
Si Si6 0.795259 0.500000 0.397256
O O1 0.500000 0.500000 0.053085
O O2 0.239995 0.583177 0.084160
O O3 0.228901 0.500000 0.000000
O O4 0.272856 0.749072 0.910802
O O5 0.239519 0.915350 0.924377
O O6 0.000000 0.812655 0.947920
O O7 0.273044 0.815201 0.000000
O O8 0.750000 0.250000 0.750000
O O9 0.732443 0.416705 0.741737
O O10 0.728197 0.343076 0.829262
O O11 0.000000 0.345815 0.776128
O O12 0.731416 0.500000 0.657894
O O13 0.000000 0.500000 0.712631
O O14 0.500000 0.825650 0.619989
O O15 0.000000 0.500000 0.395836
#
# Coordination Sequence:
#
# PCOD9522271 Si02
#       6
#     8  16  16   8  16   8
#     4  11  24  39  57  85 118 149 184 233 291 343
#     4  10  21  37  56  79 108 141 179 226 275 320
#     4  10  20  36  58  83 111 144 183 226 273 326
#     4   9  19  35  53  76 110 145 172 210 267 321
#     4  10  21  38  61  85 110 147 191 230 274 336
#     4  11  22  35  54  79 108 145 184 221 268 325
#
# _framework density 21.017713000000001
#
# number of rings (size 3 to 8) (size 9 to 14) (size 15 to 20)
#    0.000    1.889    0.000    3.667    0.000    7.111 
#    0.000    1.667    0.000    0.000    0.000    0.000 
#    0.000    0.000    0.000    0.000    0.000    0.000 
#
# Total GULP energy -201254.551941 kJ/mol
# GULP energy per Si atom -5590.404221 kJ/mol
# Density = 2.096988 g / cm^3
# Si number density = 21.017713 Si / 1000 Ang^3
#
#
#
# Elastic Constant Matrix: (Units=GPa)
#
#
# Indices 1 2 3 4 5 6 
#
# 1 22.3666 -19.0930 -2.5004 0.0000 0.0000 0.0000
# 2 -19.0930 87.6815 5.7044 0.0000 0.0000 0.0000
# 3 -2.5004 5.7044 121.3724 0.0000 0.0000 0.0000
# 4 0.0000 0.0000 0.0000 50.2393 0.0000 0.0000
# 5 0.0000 0.0000 0.0000 0.0000 18.0247 0.0000
# 6 0.0000 0.0000 0.0000 0.0000 0.0000 -87.8949
#
#
#
# Elastic Compliance Matrix: (Units=1/GPa)
#
#
# Indices 1 2 3 4 5 6 
#
# 1 0.054957 0.011930 0.000571 0.000000 0.000000 0.000000
# 2 0.011930 0.014030 -0.000414 0.000000 0.000000 0.000000
# 3 0.000571 -0.000414 0.008270 0.000000 0.000000 0.000000
# 4 0.000000 0.000000 0.000000 0.019905 0.000000 0.000000
# 5 0.000000 0.000000 0.000000 0.000000 0.055479 0.000000
# 6 0.000000 0.000000 0.000000 0.000000 0.000000 -0.011377
#
#
# Mechanical properties :
#
#
# Convention : Reuss Voigt Hill
#
# Bulk Modulus (GPa) = 9.85876 22.18252 16.02064
# Shear Modulus (GPa) = 33.13468 12.56112 22.84790
#
# Velocity S-wave (km/s) = 3.97484 2.44733 3.30066
# Velocity P-wave (km/s) = 5.07609 4.30848 4.70795
#
# Compressibility (1/GPa) = 0.10143261
#
# Stress axis : x y z
#
# Youngs Moduli (GPa) = 18.19600 71.27777 120.91429
#
# Poissons Ratio (x) = -0.85034 -0.06910
# Poissons Ratio (y) = -0.21708 0.05001
# Poissons Ratio (z) = -0.01040 0.02948
#
# Static dielectric constant tensor:
#      x y z
#    x 1.779690 0.000000 0.000000 
#    y 0.000000 1.697550 0.000000 
#    z 0.000000 0.000000 1.748640 
# 
# From -- ./inp_files/6116.got.cif
#   From: 2010.05.17/outbox.cif.g08.bks.cpg/sg71_4_cif.got.tgz:6116.got - 2010.06.03 16:22:01.
