data_PCOD9522575
_publ_section_title
;
Structure prediction by ZEFSAII (Michael W. Deem and Ramdas Pophale) SiO2 
 PCOD9522575
Probable space group: I M M M
;
_chemical_formula_sum "Si O2"
_cell_formula_units_Z 104
_cell_length_a 20.382356
_cell_length_b 30.519669
_cell_length_c 9.079843
_cell_angle_alpha 90.000000
_cell_angle_beta 90.000000
_cell_angle_gamma 90.000000
_cell_volume 5648.232184
_symmetry_space_group_name_H-M "I M M M"
_symmetry_group_IT_number 71
_symmetry_cell_setting 'orthorhombic'
loop_
_space_group_symop_operation_xyz
x,y,z
-x,-y,z
x,-y,-z
-x,y,-z
-x,-y,-z
x,y,-z
-x,y,z
x,-y,z
1/2+x,1/2+y,1/2+z
1/2-x,1/2-y,1/2+z
1/2+x,1/2-y,1/2-z
1/2-x,1/2+y,1/2-z
1/2-x,1/2-y,1/2-z
1/2+x,1/2+y,1/2-z
1/2-x,1/2+y,1/2+z
1/2+x,1/2-y,1/2+z
loop_
_atom_site_type_symbol
_atom_site_label
_atom_site_fract_x
_atom_site_fract_y
_atom_site_fract_z
Si Si1 0.500000 0.665782 0.321597
Si Si2 0.243296 0.796020 0.169054
Si Si3 0.922575 0.500000 0.334504
Si Si4 0.358941 0.629015 0.321239
Si Si5 0.500000 0.767996 0.322318
Si Si6 0.635293 0.082955 0.324489
Si Si7 0.607164 0.827801 0.829560
Si Si8 0.282699 0.551691 0.823074
O O1 0.500000 0.665406 0.500000
O O2 0.432594 0.642328 0.275835
O O3 0.500000 0.716904 0.278566
O O4 0.250000 0.750000 0.250000
O O5 0.190993 0.831821 0.226410
O O6 0.316080 0.815780 0.172279
O O7 0.224054 0.787174 0.000000
O O8 0.893747 0.500000 0.500000
O O9 0.900773 0.541799 0.243768
O O10 0.000000 0.500000 0.347151
O O11 0.355618 0.626610 0.500000
O O12 0.335541 0.582897 0.254695
O O13 0.500000 0.770910 0.500000
O O14 0.436785 0.792521 0.255645
O O15 0.628782 0.085202 0.500000
O O16 0.604918 0.125799 0.250984
O O17 0.712134 0.073994 0.290361
O O18 0.586034 0.830582 0.000000
O O19 0.282930 0.500000 0.779532
O O20 0.291390 0.552837 0.000000
#
# Coordination Sequence:
#
# PCOD9522575 Si02
#       8
#     8  16   8  16   8  16  16  16
#     4   9  20  39  64  88 120 155 198 250 296 359
#     4  10  21  35  56  85 118 154 197 246 297 354
#     4  11  25  41  59  85 119 158 197 244 300 352
#     4  10  20  38  61  89 118 155 200 246 302 364
#     4  11  23  41  63  85 115 165 208 246 302 365
#     4  11  22  39  61  85 115 155 202 248 294 353
#     4  11  23  39  57  85 121 155 197 252 300 349
#     4  10  21  39  61  89 120 152 195 250 304 356
#
# _framework density 18.412841
#
# number of rings (size 3 to 8) (size 9 to 14) (size 15 to 20)
#    0.000    1.615    2.308    2.308    1.077    4.615 
#    0.000    2.308    0.000    2.308    0.000    0.000 
#    0.000    0.000    0.000    0.000    0.000    0.000 
#
# Total GULP energy -290315.560396 kJ/mol
# GULP energy per Si atom -5582.991546 kJ/mol
# Density = 1.837093 g / cm^3
# Si number density = 18.412841 Si / 1000 Ang^3
#
#
#
# Elastic Constant Matrix: (Units=GPa)
#
#
# Indices 1 2 3 4 5 6 
#
# 1 103.0644 31.9651 30.9481 0.0000 0.0000 0.0000
# 2 31.9651 98.0009 35.1810 0.0000 0.0000 0.0000
# 3 30.9481 35.1810 51.6460 0.0001 0.0001 0.0000
# 4 0.0000 0.0000 0.0001 38.0134 0.0000 0.0000
# 5 0.0000 0.0000 0.0001 0.0000 23.2497 0.0000
# 6 0.0000 0.0000 0.0000 0.0000 0.0000 16.7009
#
#
#
# Elastic Compliance Matrix: (Units=1/GPa)
#
#
# Indices 1 2 3 4 5 6 
#
# 1 0.012060 -0.001773 -0.006019 0.000000 0.000000 0.000000
# 2 -0.001773 0.013768 -0.008316 0.000000 0.000000 0.000000
# 3 -0.006019 -0.008316 0.028634 0.000000 0.000000 0.000000
# 4 0.000000 0.000000 0.000000 0.026307 0.000000 0.000000
# 5 0.000000 0.000000 0.000000 0.000000 0.043011 0.000000
# 6 0.000000 0.000000 0.000000 0.000000 0.000000 0.059877
#
#
# Mechanical properties :
#
#
# Convention : Reuss Voigt Hill
#
# Bulk Modulus (GPa) = 44.95225 49.87776 47.41500
# Shear Modulus (GPa) = 22.39261 25.90061 24.14661
#
# Velocity S-wave (km/s) = 3.49110 3.75462 3.62525
# Velocity P-wave (km/s) = 6.38098 6.77817 6.58257
#
# Compressibility (1/GPa) = 0.02224583
#
# Stress axis : x y z
#
# Youngs Moduli (GPa) = 82.91931 72.63430 34.92312
#
# Poissons Ratio (x) = 0.12877 0.21021
# Poissons Ratio (y) = 0.14700 0.29042
# Poissons Ratio (z) = 0.49910 0.60403
#
# Static dielectric constant tensor:
#      x y z
#    x 1.643110 0.000000 0.000000 
#    y 0.000000 1.615400 0.000000 
#    z 0.000000 0.000000 1.631530 
# 
# From -- ./inp_files/11203.got.cif
#   From: 2010.05.17/outbox.cif.g08.bks.cpg/sg71_6_cif.got.tgz:11203.got - 2010.06.03 16:22:01.
