data_PCOD9522340
_publ_section_title
;
Structure prediction by ZEFSAII (Michael W. Deem and Ramdas Pophale) SiO2 
 PCOD9522340
Probable space group: I M M M
;
_chemical_formula_sum "Si O2"
_cell_formula_units_Z 72
_cell_length_a 8.430309
_cell_length_b 15.915571
_cell_length_c 27.582017
_cell_angle_alpha 90.000000
_cell_angle_beta 90.000000
_cell_angle_gamma 90.000000
_cell_volume 3700.766971
_symmetry_space_group_name_H-M "I M M M"
_symmetry_group_IT_number 71
_symmetry_cell_setting 'orthorhombic'
loop_
_space_group_symop_operation_xyz
x,y,z
-x,-y,z
x,-y,-z
-x,y,-z
-x,-y,-z
x,y,-z
-x,y,z
x,-y,z
1/2+x,1/2+y,1/2+z
1/2-x,1/2-y,1/2+z
1/2+x,1/2-y,1/2-z
1/2-x,1/2+y,1/2-z
1/2-x,1/2-y,1/2-z
1/2+x,1/2+y,1/2-z
1/2-x,1/2+y,1/2+z
1/2+x,1/2-y,1/2+z
loop_
_atom_site_type_symbol
_atom_site_label
_atom_site_fract_x
_atom_site_fract_y
_atom_site_fract_z
Si Si1 0.688577 0.500000 0.275882
Si Si2 0.188514 0.500000 0.385768
Si Si3 0.806057 0.500000 0.944107
Si Si4 0.190328 0.667154 0.222799
Si Si5 0.193620 0.331679 0.889049
Si Si6 0.192239 0.162067 0.056277
O O1 0.500000 0.500000 0.273443
O O2 0.740324 0.500000 0.331880
O O3 0.752341 0.416741 0.249500
O O4 0.244530 0.582045 0.414897
O O5 0.000000 0.500000 0.381934
O O6 0.754571 0.584009 0.916426
O O7 0.000000 0.500000 0.943930
O O8 0.755747 0.500000 0.000000
O O9 0.250000 0.750000 0.250000
O O10 0.244885 0.668462 0.166823
O O11 0.000000 0.667506 0.222899
O O12 0.243415 0.247983 0.917427
O O13 0.000000 0.331976 0.889209
O O14 0.000000 0.159450 0.057361
O O15 0.241338 0.160720 0.000000
#
# Coordination Sequence:
#
# PCOD9522340 Si02
#       6
#     8   8   8  16  16  16
#     4  12  25  42  62  85 116 154 200 254 310 363
#     4  12  25  40  59  83 112 149 196 247 302 361
#     4   9  15  26  48  79 112 143 178 221 268 320
#     4  11  22  38  60  87 120 157 198 243 294 354
#     4   9  18  32  53  82 115 150 186 228 278 334
#     4  10  20  36  59  87 119 155 194 235 284 346
#
# _framework density 19.455425000000002
#
# number of rings (size 3 to 8) (size 9 to 14) (size 15 to 20)
#    0.000    1.667    0.000    5.667    0.000    8.000 
#    0.000    1.111    0.000    0.000    0.000    0.000 
#    0.000    8.000    0.000    0.000    0.000    0.000 
#
# Total GULP energy -201280.609381 kJ/mol
# GULP energy per Si atom -5591.128038 kJ/mol
# Density = 1.941114 g / cm^3
# Si number density = 19.455425 Si / 1000 Ang^3
#
#
#
# Elastic Constant Matrix: (Units=GPa)
#
#
# Indices 1 2 3 4 5 6 
#
# 1 45.1318 31.0648 34.1971 0.0000 0.0000 0.0000
# 2 31.0648 209.2151 105.7559 0.0000 0.0000 0.0000
# 3 34.1971 105.7559 187.0383 0.0000 0.0000 0.0000
# 4 0.0000 0.0000 0.0000 46.6788 0.0000 0.0000
# 5 0.0000 0.0000 0.0000 0.0000 25.1271 0.0000
# 6 0.0000 0.0000 0.0000 0.0000 0.0000 16.7755
#
#
#
# Elastic Compliance Matrix: (Units=1/GPa)
#
#
# Indices 1 2 3 4 5 6 
#
# 1 0.026344 -0.002068 -0.003647 0.000000 0.000000 0.000000
# 2 -0.002068 0.006855 -0.003498 0.000000 0.000000 0.000000
# 3 -0.003647 -0.003498 0.007991 0.000000 0.000000 0.000000
# 4 0.000000 0.000000 0.000000 0.021423 0.000000 0.000000
# 5 0.000000 0.000000 0.000000 0.000000 0.039798 0.000000
# 6 0.000000 0.000000 0.000000 0.000000 0.000000 0.059611
#
#
# Mechanical properties :
#
#
# Convention : Reuss Voigt Hill
#
# Bulk Modulus (GPa) = 43.92888 87.04676 65.48782
# Shear Modulus (GPa) = 26.59059 35.74077 31.16568
#
# Velocity S-wave (km/s) = 3.70096 4.29074 4.00672
# Velocity P-wave (km/s) = 6.39461 8.32983 7.42554
#
# Compressibility (1/GPa) = 0.02276407
#
# Stress axis : x y z
#
# Youngs Moduli (GPa) = 37.95870 145.87991 125.13854
#
# Poissons Ratio (x) = 0.30167 0.45643
# Poissons Ratio (y) = 0.07850 0.43772
# Poissons Ratio (z) = 0.13845 0.51027
#
# Static dielectric constant tensor:
#      x y z
#    x 1.673580 0.000000 0.000000 
#    y 0.000000 1.627320 0.000000 
#    z 0.000000 0.000000 1.656180 
# 
# From -- ./inp_files/6166.got.cif
#   From: 2010.05.17/outbox.cif.g08.bks.cpg/sg71_4_cif.got.tgz:6166.got - 2010.06.03 16:22:01.
