data_PCOD9522813
_publ_section_title
;
Structure prediction by ZEFSAII (Michael W. Deem and Ramdas Pophale) SiO2 
 PCOD9522813
Probable space group: I M M M
;
_chemical_formula_sum "Si O2"
_cell_formula_units_Z 64
_cell_length_a 9.551449
_cell_length_b 41.908546
_cell_length_c 9.160088
_cell_angle_alpha 90.000000
_cell_angle_beta 90.000000
_cell_angle_gamma 90.000000
_cell_volume 3666.667258
_symmetry_space_group_name_H-M "I M M M"
_symmetry_group_IT_number 71
_symmetry_cell_setting 'orthorhombic'
loop_
_space_group_symop_operation_xyz
x,y,z
-x,-y,z
x,-y,-z
-x,y,-z
-x,-y,-z
x,y,-z
-x,y,z
x,-y,z
1/2+x,1/2+y,1/2+z
1/2-x,1/2-y,1/2+z
1/2+x,1/2-y,1/2-z
1/2-x,1/2+y,1/2-z
1/2-x,1/2-y,1/2-z
1/2+x,1/2+y,1/2-z
1/2-x,1/2+y,1/2+z
1/2+x,1/2-y,1/2+z
loop_
_atom_site_type_symbol
_atom_site_label
_atom_site_fract_x
_atom_site_fract_y
_atom_site_fract_z
Si Si1 0.335263 0.155207 0.174366
Si Si2 0.336785 0.592347 0.675784
Si Si3 0.336519 0.963297 0.675393
Si Si4 0.333051 0.221687 0.327290
O O1 0.500000 0.148705 0.202321
O O2 0.243251 0.124839 0.218234
O O3 0.295664 0.187511 0.257533
O O4 0.319057 0.160159 0.000000
O O5 0.326776 0.589740 0.500000
O O6 0.500000 0.593762 0.715595
O O7 0.261080 0.562246 0.747576
O O8 0.324097 0.960659 0.500000
O O9 0.500000 0.957602 0.712653
O O10 0.302954 0.000000 0.715053
O O11 0.305703 0.221641 0.500000
O O12 0.500000 0.226034 0.304958
O O13 0.250000 0.250000 0.250000
#
# Coordination Sequence:
#
# PCOD9522813 Si02
#       4
#    16  16  16  16
#     4   9  18  34  54  74 101 139 179 216 255 303
#     4  10  21  35  52  78 110 140 171 211 260 311
#     4   9  19  36  56  77 102 135 176 219 261 307
#     4  10  21  36  55  80 108 138 173 214 260 308
#
# _framework density 17.454542
#
# number of rings (size 3 to 8) (size 9 to 14) (size 15 to 20)
#    0.000    2.500    0.000    2.250    0.000    6.500 
#    0.000    8.750    0.000    0.000    0.000    0.000 
#    0.000    0.000    0.000    0.000    0.000    0.000 
#
# Total GULP energy -178598.037015 kJ/mol
# GULP energy per Si atom -5581.188657 kJ/mol
# Density = 1.741481 g / cm^3
# Si number density = 17.454542 Si / 1000 Ang^3
#
#
#
# Elastic Constant Matrix: (Units=GPa)
#
#
# Indices 1 2 3 4 5 6 
#
# 1 108.0546 126.1847 60.7966 0.0010 -0.0002 -0.0001
# 2 126.1847 200.5366 77.2916 0.0107 0.0018 0.0017
# 3 60.7966 77.2916 44.2794 0.0069 0.0010 0.0008
# 4 0.0010 0.0107 0.0069 39.5799 0.0015 0.0016
# 5 -0.0002 0.0018 0.0010 0.0015 27.4753 0.0018
# 6 -0.0001 0.0017 0.0008 0.0016 0.0018 36.1977
#
#
#
# Elastic Compliance Matrix: (Units=1/GPa)
#
#
# Indices 1 2 3 4 5 6 
#
# 1 0.054212 -0.016574 -0.045504 0.000011 0.000003 0.000002
# 2 -0.016574 0.020306 -0.012689 -0.000003 -0.000001 -0.000001
# 3 -0.045504 -0.012689 0.107211 -0.000014 -0.000004 -0.000002
# 4 0.000011 -0.000003 -0.000014 0.025265 -0.000001 -0.000001
# 5 0.000003 -0.000001 -0.000004 -0.000001 0.036396 -0.000002
# 6 0.000002 -0.000001 -0.000002 -0.000001 -0.000002 0.027626
#
#
# Mechanical properties :
#
#
# Convention : Reuss Voigt Hill
#
# Bulk Modulus (GPa) = 31.06024 97.93518 64.49771
# Shear Modulus (GPa) = 11.59337 26.55707 19.07522
#
# Velocity S-wave (km/s) = 2.58001 3.90487 3.30942
# Velocity P-wave (km/s) = 5.16806 8.74993 7.18575
#
# Compressibility (1/GPa) = 0.03219550
#
# Stress axis : x y z
#
# Youngs Moduli (GPa) = 18.44621 49.24666 9.32742
#
# Poissons Ratio (x) = 0.81619 0.42443
# Poissons Ratio (y) = 0.30572 0.11836
# Poissons Ratio (z) = 0.83937 0.62489
#
# Static dielectric constant tensor:
#      x y z
#    x 1.580440 0.000000 0.000000 
#    y 0.000000 1.560420 0.000000 
#    z 0.000000 0.000000 1.581250 
# 
# From -- ./inp_files/18471.got.cif
#   From: 2010.05.17/outbox.cif.g08.bks.cpg/sg71_10_cif.got.tgz:18471.got - 2010.06.03 16:22:01.
