data_PCOD9522818
_publ_section_title
;
Structure prediction by ZEFSAII (Michael W. Deem and Ramdas Pophale) SiO2 
 PCOD9522818
Probable space group: I M M M
;
_chemical_formula_sum "Si O2"
_cell_formula_units_Z 104
_cell_length_a 8.922121
_cell_length_b 23.836572
_cell_length_c 27.002574
_cell_angle_alpha 90.000000
_cell_angle_beta 90.000000
_cell_angle_gamma 90.000000
_cell_volume 5742.712469
_symmetry_space_group_name_H-M "I M M M"
_symmetry_group_IT_number 71
_symmetry_cell_setting 'orthorhombic'
loop_
_space_group_symop_operation_xyz
x,y,z
-x,-y,z
x,-y,-z
-x,y,-z
-x,-y,-z
x,y,-z
-x,y,z
x,-y,z
1/2+x,1/2+y,1/2+z
1/2-x,1/2-y,1/2+z
1/2+x,1/2-y,1/2-z
1/2-x,1/2+y,1/2-z
1/2-x,1/2-y,1/2-z
1/2+x,1/2+y,1/2-z
1/2-x,1/2+y,1/2+z
1/2+x,1/2-y,1/2+z
loop_
_atom_site_type_symbol
_atom_site_label
_atom_site_fract_x
_atom_site_fract_y
_atom_site_fract_z
Si Si1 0.168007 0.712967 0.290245
Si Si2 0.682184 0.000000 0.555988
Si Si3 0.319818 0.907915 0.635245
Si Si4 0.679562 0.500000 0.326256
Si Si5 0.681777 0.116112 0.857536
Si Si6 0.321477 0.307329 0.557684
Si Si7 0.830035 0.209620 0.612317
Si Si8 0.819453 0.500000 0.217427
O O1 0.250000 0.750000 0.250000
O O2 0.230747 0.653826 0.309812
O O3 0.163011 0.750350 0.339701
O O4 0.000000 0.702267 0.271808
O O5 0.724683 0.945863 0.588039
O O6 0.500000 0.000000 0.554685
O O7 0.737981 0.000000 0.500000
O O8 0.500000 0.901125 0.634906
O O9 0.242604 0.848275 0.629737
O O10 0.283748 0.945302 0.683734
O O11 0.500000 0.500000 0.328869
O O12 0.747960 0.444802 0.351867
O O13 0.734972 0.500000 0.269228
O O14 0.500000 0.114619 0.857622
O O15 0.739333 0.148579 0.906222
O O16 0.289691 0.318006 0.500000
O O17 0.500000 0.310851 0.565738
O O18 0.264956 0.245251 0.572897
O O19 0.000000 0.200868 0.594542
O O20 0.000000 0.500000 0.225789
#
# Coordination Sequence:
#
# PCOD9522818 Si02
#       8
#    16   8  16   8  16  16  16   8
#     4   9  20  35  53  78 109 146 184 224 273 329
#     4   8  15  30  51  73  99 134 181 236 286 329
#     4   9  18  33  53  77 107 146 192 239 285 336
#     4  12  25  39  60  87 116 153 196 242 288 338
#     4  10  22  41  61  86 118 152 190 235 289 345
#     4  10  21  39  63  89 116 148 188 234 285 342
#     4  10  21  35  52  80 115 148 186 229 279 338
#     4   9  20  37  54  76 110 155 200 243 294 345
#
# _framework density 18.109909999999999
#
# number of rings (size 3 to 8) (size 9 to 14) (size 15 to 20)
#    0.000    2.385    0.000    3.923    2.154    6.154 
#    0.000    3.077    0.000    2.769    0.000    0.000 
#    0.000    0.000    0.000    0.000    0.000    0.000 
#
# Total GULP energy -290042.940506 kJ/mol
# GULP energy per Si atom -5577.748856 kJ/mol
# Density = 1.806869 g / cm^3
# Si number density = 18.109910 Si / 1000 Ang^3
#
#
#
# Elastic Constant Matrix: (Units=GPa)
#
#
# Indices 1 2 3 4 5 6 
#
# 1 76.3226 53.3946 47.4892 0.0000 0.0000 0.0000
# 2 53.3946 150.5130 35.8080 0.0000 0.0000 0.0000
# 3 47.4892 35.8080 80.3433 0.0000 0.0000 0.0000
# 4 0.0000 0.0000 0.0000 12.6758 0.0000 0.0000
# 5 0.0000 0.0000 0.0000 0.0000 25.7467 0.0000
# 6 0.0000 0.0000 0.0000 0.0000 0.0000 25.7536
#
#
#
# Elastic Compliance Matrix: (Units=1/GPa)
#
#
# Indices 1 2 3 4 5 6 
#
# 1 0.024671 -0.005909 -0.011949 0.000000 0.000000 0.000000
# 2 -0.005909 0.008847 -0.000450 0.000000 0.000000 0.000000
# 3 -0.011949 -0.000450 0.019710 0.000000 0.000000 0.000000
# 4 0.000000 0.000000 0.000000 0.078891 0.000000 0.000000
# 5 0.000000 0.000000 0.000000 0.000000 0.038840 0.000000
# 6 0.000000 0.000000 0.000000 0.000000 0.000000 0.038830
#
#
# Mechanical properties :
#
#
# Convention : Reuss Voigt Hill
#
# Bulk Modulus (GPa) = 60.19913 64.50694 62.35304
# Shear Modulus (GPa) = 19.84573 24.20100 22.02336
#
# Velocity S-wave (km/s) = 3.31395 3.65956 3.49104
# Velocity P-wave (km/s) = 6.92504 7.31803 7.12425
#
# Compressibility (1/GPa) = 0.01661154
#
# Stress axis : x y z
#
# Youngs Moduli (GPa) = 40.53288 113.02704 50.73558
#
# Poissons Ratio (x) = 0.66793 0.60624
# Poissons Ratio (y) = 0.23953 0.02284
# Poissons Ratio (z) = 0.48433 0.05089
#
# Static dielectric constant tensor:
#      x y z
#    x 1.622400 0.000000 0.000000 
#    y 0.000000 1.616800 0.000000 
#    z 0.000000 0.000000 1.614180 
# 
# From -- ./inp_files/63385.got.cif
#   From: 2010.05.17/outbox.cif.g08.bks.cpg/sg71_32_cif.got.tgz:63385.got - 2010.06.03 16:22:01.
