data_PCOD9522793
_publ_section_title
;
Structure prediction by ZEFSAII (Michael W. Deem and Ramdas Pophale) SiO2 
 PCOD9522793
Probable space group: I M M M
;
_chemical_formula_sum "Si O2"
_cell_formula_units_Z 104
_cell_length_a 21.147864
_cell_length_b 8.757059
_cell_length_c 32.701984
_cell_angle_alpha 90.000000
_cell_angle_beta 90.000000
_cell_angle_gamma 90.000000
_cell_volume 6056.181557
_symmetry_space_group_name_H-M "I M M M"
_symmetry_group_IT_number 71
_symmetry_cell_setting 'orthorhombic'
loop_
_space_group_symop_operation_xyz
x,y,z
-x,-y,z
x,-y,-z
-x,y,-z
-x,-y,-z
x,y,-z
-x,y,z
x,-y,z
1/2+x,1/2+y,1/2+z
1/2-x,1/2-y,1/2+z
1/2+x,1/2-y,1/2-z
1/2-x,1/2+y,1/2-z
1/2-x,1/2-y,1/2-z
1/2+x,1/2+y,1/2-z
1/2-x,1/2+y,1/2+z
1/2+x,1/2-y,1/2+z
loop_
_atom_site_type_symbol
_atom_site_label
_atom_site_fract_x
_atom_site_fract_y
_atom_site_fract_z
Si Si1 0.820574 0.819623 0.341583
Si Si2 0.072440 0.182377 0.807870
Si Si3 0.842487 0.679394 0.427019
Si Si4 0.698399 0.679497 0.546043
Si Si5 0.429465 0.813660 0.000000
Si Si6 0.320409 0.183108 0.634385
Si Si7 0.427656 0.183160 0.217052
O O1 0.844414 0.780429 0.386903
O O2 0.746839 0.766328 0.344971
O O3 0.869813 0.742543 0.310565
O O4 0.820124 0.000000 0.333547
O O5 0.122599 0.251512 0.839068
O O6 0.080856 0.252696 0.762786
O O7 0.000000 0.215175 0.820590
O O8 0.080132 0.000000 0.805554
O O9 0.852151 0.500000 0.416180
O O10 0.774291 0.688828 0.448720
O O11 0.893384 0.732169 0.459483
O O12 0.681321 0.734682 0.500000
O O13 0.681194 0.500000 0.548311
O O14 0.674563 0.761836 0.587185
O O15 0.500000 0.758363 0.000000
O O16 0.428525 0.000000 0.000000
O O17 0.320523 0.000000 0.634738
O O18 0.500000 0.227837 0.203702
O O19 0.425734 0.000000 0.217714
#
# Coordination Sequence:
#
# PCOD9522793 Si02
#       7
#    16  16  16  16   8  16  16
#     4  10  21  35  51  76 108 141 177 220 266 312
#     4  10  21  38  60  83 107 137 172 212 262 320
#     4   9  16  29  47  68  96 132 173 218 264 309
#     4   9  16  29  51  75 101 136 176 217 262 311
#     4   9  16  26  43  67  93 125 170 219 262 307
#     4  10  21  35  53  81 112 142 178 217 262 315
#     4  10  21  37  57  79 103 138 182 222 265 317
#
# _framework density 17.172536999999998
#
# number of rings (size 3 to 8) (size 9 to 14) (size 15 to 20)
#    0.000    2.385    0.769    1.846    0.000    5.231 
#    0.000    1.923    0.000    0.923    0.000    3.231 
#    0.000    0.000    0.000    0.000    0.000    0.000 
#
# Total GULP energy -289783.424320 kJ/mol
# GULP energy per Si atom -5572.758160 kJ/mol
# Density = 1.713345 g / cm^3
# Si number density = 17.172537 Si / 1000 Ang^3
#
#
#
# Elastic Constant Matrix: (Units=GPa)
#
#
# Indices 1 2 3 4 5 6 
#
# 1 116.7057 44.9489 90.3997 0.0000 0.0000 0.0000
# 2 44.9489 45.4090 43.0510 0.0000 0.0000 0.0000
# 3 90.3997 43.0510 116.9370 0.0000 0.0000 0.0000
# 4 0.0000 0.0000 0.0000 26.3989 0.0000 0.0000
# 5 0.0000 0.0000 0.0000 0.0000 38.3914 0.0000
# 6 0.0000 0.0000 0.0000 0.0000 0.0000 22.3456
#
#
#
# Elastic Compliance Matrix: (Units=1/GPa)
#
#
# Indices 1 2 3 4 5 6 
#
# 1 0.023688 -0.009350 -0.014870 0.000000 0.000000 0.000000
# 2 -0.009350 0.037521 -0.006585 0.000000 0.000000 0.000000
# 3 -0.014870 -0.006585 0.022471 0.000000 0.000000 0.000000
# 4 0.000000 0.000000 0.000000 0.037880 0.000000 0.000000
# 5 0.000000 0.000000 0.000000 0.000000 0.026048 0.000000
# 6 0.000000 0.000000 0.000000 0.000000 0.000000 0.044752
#
#
# Mechanical properties :
#
#
# Convention : Reuss Voigt Hill
#
# Bulk Modulus (GPa) = 45.31150 70.65009 57.98079
# Shear Modulus (GPa) = 19.13313 24.13730 21.63522
#
# Velocity S-wave (km/s) = 3.34154 3.75317 3.55332
# Velocity P-wave (km/s) = 6.42893 7.74676 7.11841
#
# Compressibility (1/GPa) = 0.02206945
#
# Stress axis : x y z
#
# Youngs Moduli (GPa) = 42.21554 26.65196 44.50089
#
# Poissons Ratio (x) = 0.24920 0.66173
# Poissons Ratio (y) = 0.39472 0.29305
# Poissons Ratio (z) = 0.62775 0.17551
#
# Static dielectric constant tensor:
#      x y z
#    x 1.585840 0.000000 0.000000 
#    y 0.000000 1.587130 0.000000 
#    z 0.000000 0.000000 1.566470 
# 
# From -- ./inp_files/15055.got.cif
#   From: 2010.05.17/outbox.cif.g08.bks.cpg/sg71_8_cif.got.tgz:15055.got - 2010.06.03 16:22:01.
