data_PCOD9522888
_publ_section_title
;
Structure prediction by ZEFSAII (Michael W. Deem and Ramdas Pophale) SiO2 
 PCOD9522888
Probable space group: I M M M
;
_chemical_formula_sum "Si O2"
_cell_formula_units_Z 56
_cell_length_a 7.830823
_cell_length_b 9.997997
_cell_length_c 37.747059
_cell_angle_alpha 90.000000
_cell_angle_beta 90.000000
_cell_angle_gamma 90.000000
_cell_volume 2955.313310
_symmetry_space_group_name_H-M "I M M M"
_symmetry_group_IT_number 71
_symmetry_cell_setting 'orthorhombic'
loop_
_space_group_symop_operation_xyz
x,y,z
-x,-y,z
x,-y,-z
-x,y,-z
-x,-y,-z
x,y,-z
-x,y,z
x,-y,z
1/2+x,1/2+y,1/2+z
1/2-x,1/2-y,1/2+z
1/2+x,1/2-y,1/2-z
1/2-x,1/2+y,1/2-z
1/2-x,1/2-y,1/2-z
1/2+x,1/2+y,1/2-z
1/2-x,1/2+y,1/2+z
1/2+x,1/2-y,1/2+z
loop_
_atom_site_type_symbol
_atom_site_label
_atom_site_fract_x
_atom_site_fract_y
_atom_site_fract_z
Si Si1 0.296849 0.848387 0.281640
Si Si2 0.790090 0.654792 0.422593
Si Si3 0.295696 0.651976 0.139575
Si Si4 0.302142 0.162645 0.000000
O O1 0.500000 0.856473 0.282725
O O2 0.250000 0.750000 0.250000
O O3 0.238199 0.800812 0.320409
O O4 0.228173 0.000000 0.276348
O O5 0.740599 0.500000 0.417151
O O6 0.731305 0.749422 0.390873
O O7 0.729506 0.700901 0.461687
O O8 0.000000 0.656030 0.423484
O O9 0.500000 0.645556 0.135299
O O10 0.227954 0.500000 0.136494
O O11 0.500000 0.206913 0.000000
O O12 0.302607 0.000000 0.000000
#
# Coordination Sequence:
#
# PCOD9522888 Si02
#       4
#    16  16  16   8
#     4  10  21  36  53  72  94 122 155 191 233 280
#     4   8  13  22  38  60  86 117 151 184 220 265
#     4   9  17  29  44  64  92 121 147 182 229 274
#     4   7  10  18  33  55  84 115 146 182 222 261
#
# _framework density 18.948922
#
# number of rings (size 3 to 8) (size 9 to 14) (size 15 to 20)
#    0.000    3.286    0.000    2.571    0.000    2.857 
#    0.000    3.571    0.000    4.286    0.000    1.000 
#    0.000    8.000    0.000    0.000    0.000    0.000 
#
# Total GULP energy -155950.353245 kJ/mol
# GULP energy per Si atom -5569.655473 kJ/mol
# Density = 1.890579 g / cm^3
# Si number density = 18.948922 Si / 1000 Ang^3
#
#
#
# Elastic Constant Matrix: (Units=GPa)
#
#
# Indices 1 2 3 4 5 6 
#
# 1 22.1883 4.4441 2.9335 0.0000 0.0000 0.0000
# 2 4.4441 73.4763 108.5983 0.0000 0.0000 0.0000
# 3 2.9335 108.5983 230.4586 0.0000 0.0000 0.0000
# 4 0.0000 0.0000 0.0000 37.6937 0.0000 0.0000
# 5 0.0000 0.0000 0.0000 0.0000 11.0574 0.0000
# 6 0.0000 0.0000 0.0000 0.0000 0.0000 7.4172
#
#
#
# Elastic Compliance Matrix: (Units=1/GPa)
#
#
# Indices 1 2 3 4 5 6 
#
# 1 0.046018 -0.006318 0.002391 0.000000 0.000000 0.000000
# 2 -0.006318 0.045707 -0.021458 0.000000 0.000000 0.000000
# 3 0.002391 -0.021458 0.014420 0.000000 0.000000 0.000000
# 4 0.000000 0.000000 0.000000 0.026530 0.000000 0.000000
# 5 0.000000 0.000000 0.000000 0.000000 0.090437 0.000000
# 6 0.000000 0.000000 0.000000 0.000000 0.000000 0.134823
#
#
# Mechanical properties :
#
#
# Convention : Reuss Voigt Hill
#
# Bulk Modulus (GPa) = 18.05816 62.00833 40.03325
# Shear Modulus (GPa) = 11.70517 25.24347 18.47432
#
# Velocity S-wave (km/s) = 2.48810 3.65387 3.12581
# Velocity P-wave (km/s) = 4.21957 7.11309 5.84811
#
# Compressibility (1/GPa) = 0.05537662
#
# Stress axis : x y z
#
# Youngs Moduli (GPa) = 21.73060 21.87857 69.34683
#
# Poissons Ratio (x) = 0.13822 -0.16583
# Poissons Ratio (y) = 0.13729 1.48804
# Poissons Ratio (z) = -0.05196 0.46947
#
# Static dielectric constant tensor:
#      x y z
#    x 1.714980 0.000000 0.000000 
#    y 0.000000 1.648690 0.000000 
#    z 0.000000 0.000000 1.673450 
# 
# From -- ./inp_files/3568.got.cif
#   From: 2010.05.17/outbox.cif.g08.bks.cpg/sg71_2_cif.got.tgz:3568.got - 2010.06.03 16:22:01.
