data_PCOD9522461
_publ_section_title
;
Structure prediction by ZEFSAII (Michael W. Deem and Ramdas Pophale) SiO2 
 PCOD9522461
Probable space group: I M M M
;
_chemical_formula_sum "Si O2"
_cell_formula_units_Z 96
_cell_length_a 22.602306
_cell_length_b 11.428269
_cell_length_c 21.313554
_cell_angle_alpha 90.000000
_cell_angle_beta 90.000000
_cell_angle_gamma 90.000000
_cell_volume 5505.402532
_symmetry_space_group_name_H-M "I M M M"
_symmetry_group_IT_number 71
_symmetry_cell_setting 'orthorhombic'
loop_
_space_group_symop_operation_xyz
x,y,z
-x,-y,z
x,-y,-z
-x,y,-z
-x,-y,-z
x,y,-z
-x,y,z
x,-y,z
1/2+x,1/2+y,1/2+z
1/2-x,1/2-y,1/2+z
1/2+x,1/2-y,1/2-z
1/2-x,1/2+y,1/2-z
1/2-x,1/2-y,1/2-z
1/2+x,1/2+y,1/2-z
1/2-x,1/2+y,1/2+z
1/2+x,1/2-y,1/2+z
loop_
_atom_site_type_symbol
_atom_site_label
_atom_site_fract_x
_atom_site_fract_y
_atom_site_fract_z
Si Si1 0.568790 0.128133 0.575286
Si Si2 0.874299 0.738281 0.382652
Si Si3 0.930494 0.864010 0.265647
Si Si4 0.623672 0.366688 0.373076
Si Si5 0.745033 0.863826 0.925704
Si Si6 0.067172 0.861277 0.500000
Si Si7 0.929425 0.500000 0.427070
O O1 0.571463 0.125901 0.500000
O O2 0.500000 0.130786 0.594210
O O3 0.596629 0.250542 0.595948
O O4 0.593236 0.000000 0.597102
O O5 0.894969 0.790584 0.316925
O O6 0.804925 0.716136 0.394293
O O7 0.899276 0.818408 0.438483
O O8 0.905458 0.614181 0.393430
O O9 0.897310 0.859226 0.198952
O O10 0.000000 0.828187 0.260108
O O11 0.930800 0.000000 0.285742
O O12 0.605575 0.500000 0.394839
O O13 0.693248 0.358273 0.388622
O O14 0.725366 0.000000 0.923564
O O15 0.752960 0.834897 0.000000
O O16 0.000000 0.812344 0.500000
O O17 0.063893 0.000000 0.500000
O O18 0.909294 0.500000 0.500000
O O19 0.000000 0.500000 0.426971
#
# Coordination Sequence:
#
# PCOD9522461 Si02
#       7
#    16  16  16  16  16   8   8
#     4   9  18  34  56  84 119 153 189 247 316 362
#     4  12  21  36  57  81 117 154 190 237 302 357
#     4  10  22  40  59  83 118 155 194 246 299 346
#     4  10  21  38  62  86 114 159 207 244 286 349
#     4  10  20  37  59  87 120 153 192 245 299 344
#     4  11  22  35  55  83 113 150 198 247 296 351
#     4  11  20  32  54  84 112 144 190 244 296 353
#
# _framework density 17.437418000000001
#
# number of rings (size 3 to 8) (size 9 to 14) (size 15 to 20)
#    0.000    1.667    2.500    3.500    0.000    4.000 
#    1.500    2.500    0.000    0.000    0.000    0.000 
#    0.000    0.000    0.000    0.000    0.000    0.000 
#
# Total GULP energy -267579.536732 kJ/mol
# GULP energy per Si atom -5574.573682 kJ/mol
# Density = 1.739773 g / cm^3
# Si number density = 17.437418 Si / 1000 Ang^3
#
#
#
# Elastic Constant Matrix: (Units=GPa)
#
#
# Indices 1 2 3 4 5 6 
#
# 1 107.8341 59.2108 54.7346 0.0000 0.0000 0.0000
# 2 59.2108 130.7138 46.3071 0.0000 0.0000 0.0000
# 3 54.7346 46.3071 70.8191 0.0000 0.0000 0.0000
# 4 0.0000 0.0000 0.0000 34.6019 0.0000 0.0000
# 5 0.0000 0.0000 0.0000 0.0000 29.5871 0.0000
# 6 0.0000 0.0000 0.0000 0.0000 0.0000 28.9121
#
#
#
# Elastic Compliance Matrix: (Units=1/GPa)
#
#
# Indices 1 2 3 4 5 6 
#
# 1 0.016647 -0.003882 -0.010328 0.000000 0.000000 0.000000
# 2 -0.003882 0.010862 -0.004102 0.000000 0.000000 0.000000
# 3 -0.010328 -0.004102 0.024785 0.000000 0.000000 0.000000
# 4 0.000000 0.000000 0.000000 0.028900 0.000000 0.000000
# 5 0.000000 0.000000 0.000000 0.000000 0.033799 0.000000
# 6 0.000000 0.000000 0.000000 0.000000 0.000000 0.034588
#
#
# Mechanical properties :
#
#
# Convention : Reuss Voigt Hill
#
# Bulk Modulus (GPa) = 63.81566 69.98578 66.90072
# Shear Modulus (GPa) = 26.11939 28.56118 27.34028
#
# Velocity S-wave (km/s) = 3.87446 4.05152 3.96398
# Velocity P-wave (km/s) = 7.52939 7.88092 7.70716
#
# Compressibility (1/GPa) = 0.01567014
#
# Stress axis : x y z
#
# Youngs Moduli (GPa) = 60.06915 92.06382 40.34686
#
# Poissons Ratio (x) = 0.35740 0.41670
# Poissons Ratio (y) = 0.23320 0.16550
# Poissons Ratio (z) = 0.62040 0.37765
#
# Static dielectric constant tensor:
#      x y z
#    x 1.600670 0.000000 0.000000 
#    y 0.000000 1.611190 0.000000 
#    z 0.000000 0.000000 1.580660 
# 
# From -- ./inp_files/54899.got.cif
#   From: 2010.05.17/outbox.cif.g08.bks.cpg/sg71_28_cif.got.tgz:54899.got - 2010.06.03 16:22:01.
