data_PCOD9522671
_publ_section_title
;
Structure prediction by ZEFSAII (Michael W. Deem and Ramdas Pophale) SiO2 
 PCOD9522671
Probable space group: I M M M
;
_chemical_formula_sum "Si O2"
_cell_formula_units_Z 112
_cell_length_a 14.215058
_cell_length_b 29.245312
_cell_length_c 15.921490
_cell_angle_alpha 90.000000
_cell_angle_beta 90.000000
_cell_angle_gamma 90.000000
_cell_volume 6618.942425
_symmetry_space_group_name_H-M "I M M M"
_symmetry_group_IT_number 71
_symmetry_cell_setting 'orthorhombic'
loop_
_space_group_symop_operation_xyz
x,y,z
-x,-y,z
x,-y,-z
-x,y,-z
-x,-y,-z
x,y,-z
-x,y,z
x,-y,z
1/2+x,1/2+y,1/2+z
1/2-x,1/2-y,1/2+z
1/2+x,1/2-y,1/2-z
1/2-x,1/2+y,1/2-z
1/2-x,1/2-y,1/2-z
1/2+x,1/2+y,1/2-z
1/2-x,1/2+y,1/2+z
1/2+x,1/2-y,1/2+z
loop_
_atom_site_type_symbol
_atom_site_label
_atom_site_fract_x
_atom_site_fract_y
_atom_site_fract_z
Si Si1 0.113138 0.553406 0.905279
Si Si2 0.391244 0.944832 0.096288
Si Si3 0.711174 0.100804 0.749720
Si Si4 0.885509 0.826149 0.500000
Si Si5 0.395463 0.722248 0.283211
Si Si6 0.887897 0.281095 0.500000
Si Si7 0.694054 0.800615 0.827870
Si Si8 0.393932 0.370526 0.825173
O O1 0.139467 0.500000 0.892580
O O2 0.153434 0.583474 0.830444
O O3 0.000000 0.555475 0.903114
O O4 0.143210 0.566767 0.000000
O O5 0.500000 0.930745 0.113743
O O6 0.322505 0.925806 0.167390
O O7 0.389391 0.000000 0.099112
O O8 0.368597 0.931166 0.000000
O O9 0.694446 0.153874 0.772274
O O10 0.820122 0.097267 0.721999
O O11 0.855669 0.772708 0.500000
O O12 0.857693 0.853417 0.416115
O O13 0.000000 0.824962 0.500000
O O14 0.500000 0.729767 0.320167
O O15 0.367456 0.762683 0.219923
O O16 0.302040 0.716399 0.339250
O O17 0.400201 0.675800 0.229373
O O18 0.851038 0.306491 0.581856
O O19 0.000000 0.280258 0.500000
O O20 0.500000 0.389099 0.833713
#
# Coordination Sequence:
#
# PCOD9522671 Si02
#       8
#    16  16  16   8  16   8  16  16
#     4   9  19  36  55  74  99 134 172 202 240 312
#     4   9  19  36  56  78 105 137 171 206 251 313
#     4  11  21  31  52  80 107 132 164 213 268 303
#     4   9  16  30  52  71  92 135 183 216 250 294
#     4   9  17  34  50  65  97 139 173 205 251 305
#     4  11  20  32  51  71  98 134 176 221 257 295
#     4  10  21  31  47  78 100 130 173 216 257 305
#     4   9  18  32  51  74  99 132 176 216 252 296
#
# _framework density 16.921133000000001
#
# number of rings (size 3 to 8) (size 9 to 14) (size 15 to 20)
#    0.000    2.429    1.429    2.143    2.000    3.429 
#    0.000    0.357    0.000    2.143    0.000    2.000 
#    0.000    0.000    0.000    0.000    0.000    0.000 
#
# Total GULP energy -311953.902039 kJ/mol
# GULP energy per Si atom -5570.605394 kJ/mol
# Density = 1.688262 g / cm^3
# Si number density = 16.921133 Si / 1000 Ang^3
#
#
#
# Elastic Constant Matrix: (Units=GPa)
#
#
# Indices 1 2 3 4 5 6 
#
# 1 89.5375 26.3067 49.3504 -0.0002 0.0000 0.0000
# 2 26.3067 28.0615 22.9861 -0.0001 0.0000 0.0000
# 3 49.3504 22.9861 92.8715 -0.0009 0.0001 0.0000
# 4 -0.0002 -0.0001 -0.0009 -28.1590 -0.0001 -0.0001
# 5 0.0000 0.0000 0.0001 -0.0001 17.6276 0.0000
# 6 0.0000 0.0000 0.0000 -0.0001 0.0000 24.1689
#
#
#
# Elastic Compliance Matrix: (Units=1/GPa)
#
#
# Indices 1 2 3 4 5 6 
#
# 1 0.018370 -0.011571 -0.006898 0.000000 0.000000 0.000000
# 2 -0.011571 0.051987 -0.006718 0.000000 0.000000 0.000000
# 3 -0.006898 -0.006718 0.016096 0.000000 0.000000 0.000000
# 4 0.000000 0.000000 0.000000 -0.035513 0.000000 0.000000
# 5 0.000000 0.000000 0.000000 0.000000 0.056729 0.000000
# 6 0.000000 0.000000 0.000000 0.000000 0.000000 0.041375
#
#
# Mechanical properties :
#
#
# Convention : Reuss Voigt Hill
#
# Bulk Modulus (GPa) = 27.71741 45.30633 36.51187
# Shear Modulus (GPa) = 23.64686 10.18265 16.91475
#
# Velocity S-wave (km/s) = 3.74234 2.45576 3.16511
# Velocity P-wave (km/s) = 5.92363 5.90543 5.91454
#
# Compressibility (1/GPa) = 0.03607841
#
# Stress axis : x y z
#
# Youngs Moduli (GPa) = 54.43669 19.23564 62.12879
#
# Poissons Ratio (x) = 0.22258 0.42854
# Poissons Ratio (y) = 0.62990 0.41739
# Poissons Ratio (z) = 0.37548 0.12923
#
# Static dielectric constant tensor:
#      x y z
#    x 1.600800 0.000000 0.000000 
#    y 0.000000 1.572750 0.000000 
#    z 0.000000 0.000000 1.588190 
# 
# From -- ./inp_files/35175.got.cif
#   From: 2010.05.17/outbox.cif.g08.bks.cpg/sg71_18_cif.got.tgz:35175.got - 2010.06.03 16:22:01.
