data_PCOD9522655
_publ_section_title
;
Structure prediction by ZEFSAII (Michael W. Deem and Ramdas Pophale) SiO2 
 PCOD9522655
Probable space group: I M M M
;
_chemical_formula_sum "Si O2"
_cell_formula_units_Z 72
_cell_length_a 13.701666
_cell_length_b 25.939558
_cell_length_c 11.901392
_cell_angle_alpha 90.000000
_cell_angle_beta 90.000000
_cell_angle_gamma 90.000000
_cell_volume 4229.935141
_symmetry_space_group_name_H-M "I M M M"
_symmetry_group_IT_number 71
_symmetry_cell_setting 'orthorhombic'
loop_
_space_group_symop_operation_xyz
x,y,z
-x,-y,z
x,-y,-z
-x,y,-z
-x,-y,-z
x,y,-z
-x,y,z
x,-y,z
1/2+x,1/2+y,1/2+z
1/2-x,1/2-y,1/2+z
1/2+x,1/2-y,1/2-z
1/2-x,1/2+y,1/2-z
1/2-x,1/2-y,1/2-z
1/2+x,1/2+y,1/2-z
1/2-x,1/2+y,1/2+z
1/2+x,1/2-y,1/2+z
loop_
_atom_site_type_symbol
_atom_site_label
_atom_site_fract_x
_atom_site_fract_y
_atom_site_fract_z
Si Si1 0.384882 0.294255 0.692816
Si Si2 0.116744 0.398735 0.263704
Si Si3 0.693647 0.061755 0.000000
Si Si4 0.273721 0.190548 0.630416
Si Si5 0.381550 0.000000 0.627156
Si Si6 0.112409 0.879425 0.000000
O O1 0.500000 0.283888 0.703386
O O2 0.329342 0.245168 0.640446
O O3 0.331928 0.304280 0.811341
O O4 0.372939 0.342601 0.608640
O O5 0.147511 0.411533 0.390424
O O6 0.167321 0.349735 0.207397
O O7 0.147734 0.448768 0.192115
O O8 0.000000 0.393000 0.257501
O O9 0.808205 0.075673 0.000000
O O10 0.676085 0.000000 0.000000
O O11 0.270108 0.175076 0.500000
O O12 0.500000 0.000000 0.625179
O O13 0.346018 0.000000 0.500000
O O14 0.000000 0.897058 0.000000
#
# Coordination Sequence:
#
# PCOD9522655 Si02
#       6
#    16  16   8  16   8   8
#     4  10  21  38  59  83 114 149 187 236 292 345
#     4  11  22  35  54  82 114 151 191 233 286 343
#     4  12  23  39  60  85 115 150 198 250 299 344
#     4  11  22  36  58  86 116 151 194 236 283 347
#     4   9  18  33  51  73 105 145 186 226 271 331
#     4  10  20  40  65  84 110 148 191 241 296 345
#
# _framework density 17.021536999999999
#
# number of rings (size 3 to 8) (size 9 to 14) (size 15 to 20)
#    0.000    1.444    4.444    1.667    0.000    3.333 
#    0.000    0.000    0.000    0.000    0.000    0.000 
#    0.000    7.111    0.000    0.000    0.000    0.000 
#
# Total GULP energy -200932.852620 kJ/mol
# GULP energy per Si atom -5581.468128 kJ/mol
# Density = 1.698280 g / cm^3
# Si number density = 17.021537 Si / 1000 Ang^3
#
#
#
# Elastic Constant Matrix: (Units=GPa)
#
#
# Indices 1 2 3 4 5 6 
#
# 1 64.8983 -10.8753 22.3258 0.0000 0.0000 0.0000
# 2 -10.8753 20.5023 12.2931 0.0000 0.0000 0.0000
# 3 22.3258 12.2931 139.5956 0.0000 0.0000 0.0000
# 4 0.0000 0.0000 0.0000 26.1402 0.0000 0.0000
# 5 0.0000 0.0000 0.0000 0.0000 17.7588 0.0000
# 6 0.0000 0.0000 0.0000 0.0000 0.0000 21.4537
#
#
#
# Elastic Compliance Matrix: (Units=1/GPa)
#
#
# Indices 1 2 3 4 5 6 
#
# 1 0.018926 0.012515 -0.004129 0.000000 0.000000 0.000000
# 2 0.012515 0.059770 -0.007265 0.000000 0.000000 0.000000
# 3 -0.004129 -0.007265 0.008464 0.000000 0.000000 0.000000
# 4 0.000000 0.000000 0.000000 0.038255 0.000000 0.000000
# 5 0.000000 0.000000 0.000000 0.000000 0.056310 0.000000
# 6 0.000000 0.000000 0.000000 0.000000 0.000000 0.046612
#
#
# Mechanical properties :
#
#
# Convention : Reuss Voigt Hill
#
# Bulk Modulus (GPa) = 11.18543 30.27592 20.73068
# Shear Modulus (GPa) = 19.53921 26.48739 23.01330
#
# Velocity S-wave (km/s) = 3.39176 3.94904 3.68096
# Velocity P-wave (km/s) = 4.68234 6.21439 5.50195
#
# Compressibility (1/GPa) = 0.08940201
#
# Stress axis : x y z
#
# Youngs Moduli (GPa) = 52.83631 16.73087 118.15187
#
# Poissons Ratio (x) = -0.20939 0.48785
# Poissons Ratio (y) = -0.66125 0.85838
# Poissons Ratio (z) = 0.21816 0.12155
#
# Static dielectric constant tensor:
#      x y z
#    x 1.557220 0.000000 0.000000 
#    y 0.000000 1.565120 0.000000 
#    z 0.000000 0.000000 1.577640 
# 
# From -- ./inp_files/6159.got.cif
#   From: 2010.05.17/outbox.cif.g08.bks.cpg/sg71_4_cif.got.tgz:6159.got - 2010.06.03 16:22:01.
