data_PCOD9522384
_publ_section_title
;
Structure prediction by ZEFSAII (Michael W. Deem and Ramdas Pophale) SiO2 
 PCOD9522384
Probable space group: I M M M
;
_chemical_formula_sum "Si O2"
_cell_formula_units_Z 64
_cell_length_a 11.020584
_cell_length_b 34.325789
_cell_length_c 8.069499
_cell_angle_alpha 90.000000
_cell_angle_beta 90.000000
_cell_angle_gamma 90.000000
_cell_volume 3052.612722
_symmetry_space_group_name_H-M "I M M M"
_symmetry_group_IT_number 71
_symmetry_cell_setting 'orthorhombic'
loop_
_space_group_symop_operation_xyz
x,y,z
-x,-y,z
x,-y,-z
-x,y,-z
-x,-y,-z
x,y,-z
-x,y,z
x,-y,z
1/2+x,1/2+y,1/2+z
1/2-x,1/2-y,1/2+z
1/2+x,1/2-y,1/2-z
1/2-x,1/2+y,1/2-z
1/2-x,1/2-y,1/2-z
1/2+x,1/2+y,1/2-z
1/2-x,1/2+y,1/2+z
1/2+x,1/2-y,1/2+z
loop_
_atom_site_type_symbol
_atom_site_label
_atom_site_fract_x
_atom_site_fract_y
_atom_site_fract_z
Si Si1 0.142287 0.000000 0.182454
Si Si2 0.250044 0.420748 0.802550
Si Si3 0.000000 0.454576 0.203423
Si Si4 0.732813 0.334789 0.200125
Si Si5 0.000000 0.215127 0.702884
Si Si6 0.500000 0.805154 0.801492
O O1 0.176076 0.040165 0.269605
O O2 0.000000 0.000000 0.167047
O O3 0.200313 0.000000 0.000000
O O4 0.293413 0.378964 0.739406
O O5 0.117175 0.431610 0.738207
O O6 0.241685 0.416433 0.000000
O O7 0.000000 0.500000 0.252934
O O8 0.000000 0.454975 0.000000
O O9 0.624310 0.306357 0.258256
O O10 0.871742 0.323876 0.245078
O O11 0.726805 0.333958 0.000000
O O12 0.000000 0.260070 0.755414
O O13 0.000000 0.214532 0.500000
O O14 0.500000 0.806013 0.000000
#
# Coordination Sequence:
#
# PCOD9522384 Si02
#       6
#     8  16   8  16   8   8
#     4  11  25  40  53  76 118 161 190 229 284 343
#     4  10  20  36  61  86 109 145 194 242 287 336
#     4   9  15  28  50  80 109 130 168 231 284 325
#     4  10  21  38  62  90 119 152 199 256 300 343
#     4   9  20  38  60  89 120 152 198 253 301 351
#     4  11  22  38  60  87 123 162 195 234 298 374
#
# _framework density 20.965647000000001
#
# number of rings (size 3 to 8) (size 9 to 14) (size 15 to 20)
#    0.000    2.000    1.250    2.250    1.750    4.000 
#    0.000    3.125    0.000    0.000    0.000    0.000 
#    0.000    0.000    0.000    0.000    0.000    0.000 
#
# Total GULP energy -178484.992912 kJ/mol
# GULP energy per Si atom -5577.656029 kJ/mol
# Density = 2.091793 g / cm^3
# Si number density = 20.965647 Si / 1000 Ang^3
#
#
#
# Elastic Constant Matrix: (Units=GPa)
#
#
# Indices 1 2 3 4 5 6 
#
# 1 111.1410 48.6832 -0.2191 0.0013 -0.0001 0.0070
# 2 48.6832 161.8796 2.3432 0.0005 0.0001 0.0055
# 3 -0.2191 2.3432 6.3651 0.0147 -0.0094 0.0130
# 4 0.0013 0.0005 0.0147 -29.0280 -0.0030 -0.0020
# 5 -0.0001 0.0001 -0.0094 -0.0030 14.2146 0.0007
# 6 0.0070 0.0055 0.0130 -0.0020 0.0007 135.1592
#
#
#
# Elastic Compliance Matrix: (Units=1/GPa)
#
#
# Indices 1 2 3 4 5 6 
#
# 1 0.010377 -0.003143 0.001514 0.000001 0.000001 -0.000001
# 2 -0.003143 0.007162 -0.002745 -0.000001 -0.000002 0.000000
# 3 0.001514 -0.002745 0.158171 0.000080 0.000104 -0.000015
# 4 0.000001 -0.000001 0.000080 -0.034449 -0.000007 -0.000001
# 5 0.000001 -0.000002 0.000104 -0.000007 0.070350 0.000000
# 6 -0.000001 0.000000 -0.000015 -0.000001 0.000000 0.007399
#
#
# Mechanical properties :
#
#
# Convention : Reuss Voigt Hill
#
# Bulk Modulus (GPa) = 5.98934 42.33335 24.16135
# Shear Modulus (GPa) = 17.64225 39.30773 28.47499
#
# Velocity S-wave (km/s) = 2.90398 4.33467 3.68934
# Velocity P-wave (km/s) = 3.75594 6.72964 5.44955
#
# Compressibility (1/GPa) = 0.16696322
#
# Stress axis : x y z
#
# Youngs Moduli (GPa) = 96.36538 139.62008 6.32229
#
# Poissons Ratio (x) = 0.43879 -0.00957
# Poissons Ratio (y) = 0.30285 0.01735
# Poissons Ratio (z) = -0.14592 0.38324
#
# Static dielectric constant tensor:
#      x y z
#    x 1.722880 0.000000 0.000000 
#    y 0.000000 1.862650 -0.000010 
#    z 0.000000 -0.000010 1.764500 
# 
# From -- ./inp_files/3828.got.cif
#   From: 2010.05.17/outbox.cif.g08.bks.cpg/sg71_2_cif.got.tgz:3828.got - 2010.06.03 16:22:01.
