data_PCOD9522552
_publ_section_title
;
Structure prediction by ZEFSAII (Michael W. Deem and Ramdas Pophale) SiO2 
 PCOD9522552
Probable space group: I M M M
;
_chemical_formula_sum "Si O2"
_cell_formula_units_Z 92
_cell_length_a 27.336645
_cell_length_b 17.432730
_cell_length_c 9.504300
_cell_angle_alpha 90.000000
_cell_angle_beta 90.000000
_cell_angle_gamma 90.000000
_cell_volume 4529.296513
_symmetry_space_group_name_H-M "I M M M"
_symmetry_group_IT_number 71
_symmetry_cell_setting 'orthorhombic'
loop_
_space_group_symop_operation_xyz
x,y,z
-x,-y,z
x,-y,-z
-x,y,-z
-x,-y,-z
x,y,-z
-x,y,z
x,-y,z
1/2+x,1/2+y,1/2+z
1/2-x,1/2-y,1/2+z
1/2+x,1/2-y,1/2-z
1/2-x,1/2+y,1/2-z
1/2-x,1/2-y,1/2-z
1/2+x,1/2+y,1/2-z
1/2-x,1/2+y,1/2+z
1/2+x,1/2-y,1/2+z
loop_
_atom_site_type_symbol
_atom_site_label
_atom_site_fract_x
_atom_site_fract_y
_atom_site_fract_z
Si Si1 0.652515 0.589962 0.835421
Si Si2 0.735876 0.327888 0.331494
Si Si3 0.056107 0.408869 0.500000
Si Si4 0.000000 0.621634 0.000000
Si Si5 0.443616 0.678185 0.833974
Si Si6 0.585768 0.838708 0.714035
Si Si7 0.186431 0.411286 0.155605
O O1 0.661591 0.500000 0.812707
O O2 0.685096 0.640679 0.731588
O O3 0.595528 0.610885 0.815022
O O4 0.663983 0.607633 0.000000
O O5 0.735091 0.318824 0.500000
O O6 0.750000 0.250000 0.250000
O O7 0.776672 0.388210 0.278147
O O8 0.054590 0.500000 0.500000
O O9 0.083040 0.378655 0.364224
O O10 0.000000 0.379447 0.500000
O O11 0.043146 0.625013 0.120383
O O12 0.500000 0.658504 0.803698
O O13 0.427062 0.749771 0.738913
O O14 0.441171 0.700915 0.000000
O O15 0.639506 0.856208 0.657861
O O16 0.170635 0.500000 0.169820
O O17 0.210235 0.403930 0.000000
#
# Coordination Sequence:
#
# PCOD9522552 Si02
#       7
#    16  16   8   4  16  16  16
#     4  10  22  42  68  99 135 173 212 264 333 399
#     4  12  26  45  70  98 127 167 218 271 326 393
#     4  11  22  36  56  82 116 164 216 268 320 379
#     4  12  24  38  63  88 127 170 232 276 332 382
#     4  10  20  37  65  94 126 169 217 268 318 382
#     4  12  22  41  60  90 126 173 221 270 325 385
#     4  11  25  43  63  92 132 173 214 266 326 387
#
# _framework density 20.312206
#
# number of rings (size 3 to 8) (size 9 to 14) (size 15 to 20)
#    0.000    0.957    3.478    3.652    1.217    4.522 
#    1.565    3.478    0.000    0.000    0.000    1.826 
#    0.000    0.000    0.000    0.000    0.000    0.000 
#
# Total GULP energy -256590.197694 kJ/mol
# GULP energy per Si atom -5578.047776 kJ/mol
# Density = 2.026597 g / cm^3
# Si number density = 20.312206 Si / 1000 Ang^3
#
#
#
# Elastic Constant Matrix: (Units=GPa)
#
#
# Indices 1 2 3 4 5 6 
#
# 1 118.4497 28.4583 40.2334 0.0000 0.0000 0.0000
# 2 28.4583 62.7423 44.1069 0.0000 0.0000 0.0000
# 3 40.2334 44.1069 149.1321 0.0000 0.0000 0.0000
# 4 0.0000 0.0000 0.0000 9.5498 0.0000 0.0000
# 5 0.0000 0.0000 0.0000 0.0000 60.0412 0.0000
# 6 0.0000 0.0000 0.0000 0.0000 0.0000 26.5338
#
#
#
# Elastic Compliance Matrix: (Units=1/GPa)
#
#
# Indices 1 2 3 4 5 6 
#
# 1 0.009796 -0.003264 -0.001678 0.000000 0.000000 0.000000
# 2 -0.003264 0.021209 -0.005392 0.000000 0.000000 0.000000
# 3 -0.001678 -0.005392 0.008753 0.000000 0.000000 0.000000
# 4 0.000000 0.000000 0.000000 0.104714 0.000000 0.000000
# 5 0.000000 0.000000 0.000000 0.000000 0.016655 0.000000
# 6 0.000000 0.000000 0.000000 0.000000 0.000000 0.037688
#
#
# Mechanical properties :
#
#
# Convention : Reuss Voigt Hill
#
# Bulk Modulus (GPa) = 52.38102 61.76903 57.07503
# Shear Modulus (GPa) = 22.13888 33.72667 27.93277
#
# Velocity S-wave (km/s) = 3.30499 4.07924 3.71235
# Velocity P-wave (km/s) = 6.35672 7.25691 6.82168
#
# Compressibility (1/GPa) = 0.01909088
#
# Stress axis : x y z
#
# Youngs Moduli (GPa) = 102.07807 47.14890 114.24884
#
# Poissons Ratio (x) = 0.15390 0.19165
# Poissons Ratio (y) = 0.33320 0.61606
# Poissons Ratio (z) = 0.17124 0.25424
#
# Static dielectric constant tensor:
#      x y z
#    x 1.729980 0.000000 0.000000 
#    y 0.000000 1.732090 0.000000 
#    z 0.000000 0.000000 1.697320 
# 
# From -- ./inp_files/14897.got.cif
#   From: 2010.05.17/outbox.cif.g08.bks.cpg/sg71_8_cif.got.tgz:14897.got - 2010.06.03 16:22:01.
