data_PCOD9522498
_publ_section_title
;
Structure prediction by ZEFSAII (Michael W. Deem and Ramdas Pophale) SiO2 
 PCOD9522498
Probable space group: I M M M
;
_chemical_formula_sum "Si O2"
_cell_formula_units_Z 72
_cell_length_a 19.658127
_cell_length_b 25.744732
_cell_length_c 7.397792
_cell_angle_alpha 90.000000
_cell_angle_beta 90.000000
_cell_angle_gamma 90.000000
_cell_volume 3743.972309
_symmetry_space_group_name_H-M "I M M M"
_symmetry_group_IT_number 71
_symmetry_cell_setting 'orthorhombic'
loop_
_space_group_symop_operation_xyz
x,y,z
-x,-y,z
x,-y,-z
-x,y,-z
-x,-y,-z
x,y,-z
-x,y,z
x,-y,z
1/2+x,1/2+y,1/2+z
1/2-x,1/2-y,1/2+z
1/2+x,1/2-y,1/2-z
1/2-x,1/2+y,1/2-z
1/2-x,1/2-y,1/2-z
1/2+x,1/2+y,1/2-z
1/2-x,1/2+y,1/2+z
1/2+x,1/2-y,1/2+z
loop_
_atom_site_type_symbol
_atom_site_label
_atom_site_fract_x
_atom_site_fract_y
_atom_site_fract_z
Si Si1 0.075393 0.940726 0.720257
Si Si2 0.839011 0.630286 0.207344
Si Si3 0.331104 0.245331 0.786304
Si Si4 0.582069 0.937633 0.000000
Si Si5 0.817759 0.142763 0.720987
O O1 0.076458 0.940402 0.500000
O O2 0.135006 0.903756 0.781225
O O3 0.000000 0.923408 0.774956
O O4 0.084833 0.000000 0.777240
O O5 0.859452 0.691552 0.209469
O O6 0.884456 0.592891 0.330210
O O7 0.760500 0.633463 0.275814
O O8 0.839335 0.612239 0.000000
O O9 0.250000 0.250000 0.750000
O O10 0.351610 0.302602 0.721258
O O11 0.342373 0.241831 0.000000
O O12 0.500000 0.932065 0.000000
O O13 0.597032 0.000000 0.000000
O O14 0.815355 0.144781 0.500000
#
# Coordination Sequence:
#
# PCOD9522498 Si02
#       5
#    16  16  16   8  16
#     4   8  13  22  37  62 103 149 186 223 266 313
#     4  10  20  37  61  87 114 146 187 240 297 352
#     4   9  15  27  49  80 118 148 183 230 282 338
#     4  11  26  46  64  84 113 149 192 244 307 376
#     4   8  15  26  47  80 114 148 194 232 274 332
#
# _framework density 19.230913000000001
#
# number of rings (size 3 to 8) (size 9 to 14) (size 15 to 20)
#    0.000    3.000    1.111    2.667    0.000    1.778 
#    0.000    4.444    0.000    0.000    0.000    0.778 
#    0.000    2.667    0.000    0.222    0.000    0.000 
#
# Total GULP energy -200490.461998 kJ/mol
# GULP energy per Si atom -5569.179500 kJ/mol
# Density = 1.918714 g / cm^3
# Si number density = 19.230913 Si / 1000 Ang^3
#
#
#
# Elastic Constant Matrix: (Units=GPa)
#
#
# Indices 1 2 3 4 5 6 
#
# 1 86.4535 82.4434 25.8189 0.0000 0.0000 0.0000
# 2 82.4434 133.5448 34.7373 0.0000 0.0000 0.0000
# 3 25.8189 34.7373 95.7687 0.0000 0.0000 0.0000
# 4 0.0000 0.0000 0.0000 10.2255 0.0000 0.0000
# 5 0.0000 0.0000 0.0000 0.0000 12.8068 0.0000
# 6 0.0000 0.0000 0.0000 0.0000 0.0000 -34.0272
#
#
#
# Elastic Compliance Matrix: (Units=1/GPa)
#
#
# Indices 1 2 3 4 5 6 
#
# 1 0.028299 -0.017099 -0.001427 0.000000 0.000000 0.000000
# 2 -0.017099 0.018600 -0.002137 0.000000 0.000000 0.000000
# 3 -0.001427 -0.002137 0.011602 0.000000 0.000000 0.000000
# 4 0.000000 0.000000 0.000000 0.097794 0.000000 0.000000
# 5 0.000000 0.000000 0.000000 0.000000 0.078084 0.000000
# 6 0.000000 0.000000 0.000000 0.000000 0.000000 -0.029388
#
#
# Mechanical properties :
#
#
# Convention : Reuss Voigt Hill
#
# Bulk Modulus (GPa) = 58.22506 66.86289 62.54398
# Shear Modulus (GPa) = 19.83799 9.31884 14.57842
#
# Velocity S-wave (km/s) = 3.21529 2.20370 2.75630
# Velocity P-wave (km/s) = 6.64279 6.42798 6.53627
#
# Compressibility (1/GPa) = 0.01717474
#
# Stress axis : x y z
#
# Youngs Moduli (GPa) = 35.33677 53.76336 86.19487
#
# Poissons Ratio (x) = 0.91931 0.12301
# Poissons Ratio (y) = 0.60423 0.18418
# Poissons Ratio (z) = 0.05043 0.11488
#
# Static dielectric constant tensor:
#      x y z
#    x 1.636210 0.000000 0.000000 
#    y 0.000000 1.700710 0.000000 
#    z 0.000000 0.000000 1.730490 
# 
# From -- ./inp_files/6072.got.cif
#   From: 2010.05.17/outbox.cif.g08.bks.cpg/sg71_4_cif.got.tgz:6072.got - 2010.06.03 16:22:01.
