data_PCOD9522628
_publ_section_title
;
Structure prediction by ZEFSAII (Michael W. Deem and Ramdas Pophale) SiO2 
 PCOD9522628
Probable space group: I M M M
;
_chemical_formula_sum "Si O2"
_cell_formula_units_Z 88
_cell_length_a 20.253898
_cell_length_b 25.521828
_cell_length_c 9.226212
_cell_angle_alpha 90.000000
_cell_angle_beta 90.000000
_cell_angle_gamma 90.000000
_cell_volume 4769.181225
_symmetry_space_group_name_H-M "I M M M"
_symmetry_group_IT_number 71
_symmetry_cell_setting 'orthorhombic'
loop_
_space_group_symop_operation_xyz
x,y,z
-x,-y,z
x,-y,-z
-x,y,-z
-x,-y,-z
x,y,-z
-x,y,z
x,-y,z
1/2+x,1/2+y,1/2+z
1/2-x,1/2-y,1/2+z
1/2+x,1/2-y,1/2-z
1/2-x,1/2+y,1/2-z
1/2-x,1/2-y,1/2-z
1/2+x,1/2+y,1/2-z
1/2-x,1/2+y,1/2+z
1/2+x,1/2-y,1/2+z
loop_
_atom_site_type_symbol
_atom_site_label
_atom_site_fract_x
_atom_site_fract_y
_atom_site_fract_z
Si Si1 0.000000 0.329104 0.325487
Si Si2 0.387073 0.652038 0.338635
Si Si3 0.580884 0.000000 0.676152
Si Si4 0.000000 0.789153 0.327177
Si Si5 0.630835 0.892754 0.823625
Si Si6 0.739843 0.804977 0.165963
Si Si7 0.420737 0.561088 0.840472
O O1 0.934790 0.360153 0.285536
O O2 0.000000 0.325816 0.500000
O O3 0.000000 0.270104 0.270418
O O4 0.413939 0.657965 0.500000
O O5 0.435084 0.682321 0.230568
O O6 0.313053 0.671791 0.335291
O O7 0.388206 0.592430 0.287569
O O8 0.617728 0.948623 0.744435
O O9 0.500000 0.000000 0.710286
O O10 0.586012 0.000000 0.500000
O O11 0.000000 0.789943 0.500000
O O12 0.690532 0.852120 0.783450
O O13 0.634457 0.900993 0.000000
O O14 0.750000 0.750000 0.250000
O O15 0.718464 0.792834 0.000000
O O16 0.500000 0.567104 0.830835
O O17 0.406209 0.500000 0.834118
O O18 0.400516 0.581003 0.000000
#
# Coordination Sequence:
#
# PCOD9522628 Si02
#       7
#     8  16   8   8  16  16  16
#     4   9  18  32  58  88 107 138 196 245 281 340
#     4  11  22  36  54  83 118 150 188 240 298 350
#     4  11  23  39  61  95 131 158 195 254 319 371
#     4  11  21  35  57  85 115 152 196 244 287 348
#     4  10  20  39  64  88 116 159 207 247 296 366
#     4  10  23  41  61  87 122 160 201 249 302 361
#     4   9  18  34  56  80 106 140 185 232 276 332
#
# _framework density 18.451803999999999
#
# number of rings (size 3 to 8) (size 9 to 14) (size 15 to 20)
#    0.000    1.909    1.818    2.727    0.000    4.364 
#    1.636    2.727    0.000    0.000    0.000    0.000 
#    0.000    0.000    0.000    0.000    0.000    0.000 
#
# Total GULP energy -245136.818196 kJ/mol
# GULP energy per Si atom -5571.291323 kJ/mol
# Density = 1.840981 g / cm^3
# Si number density = 18.451804 Si / 1000 Ang^3
#
#
#
# Elastic Constant Matrix: (Units=GPa)
#
#
# Indices 1 2 3 4 5 6 
#
# 1 84.1848 50.9326 36.8727 0.0000 0.0000 0.0000
# 2 50.9326 139.3193 59.8752 0.0000 0.0000 0.0000
# 3 36.8727 59.8752 76.9211 0.0000 0.0000 0.0000
# 4 0.0000 0.0000 0.0000 28.2134 0.0000 0.0000
# 5 0.0000 0.0000 0.0000 0.0000 -1.8375 0.0000
# 6 0.0000 0.0000 0.0000 0.0000 0.0000 57.1635
#
#
#
# Elastic Compliance Matrix: (Units=1/GPa)
#
#
# Indices 1 2 3 4 5 6 
#
# 1 0.016345 -0.003919 -0.004785 0.000000 0.000000 0.000000
# 2 -0.003919 0.011726 -0.007249 0.000000 0.000000 0.000000
# 3 -0.004785 -0.007249 0.020936 0.000000 0.000000 0.000000
# 4 0.000000 0.000000 0.000000 0.035444 0.000000 0.000000
# 5 0.000000 0.000000 0.000000 0.000000 -0.544211 0.000000
# 6 0.000000 0.000000 0.000000 0.000000 0.000000 0.017494
#
#
# Mechanical properties :
#
#
# Convention : Reuss Voigt Hill
#
# Bulk Modulus (GPa) = 58.47096 66.19848 62.33472
# Shear Modulus (GPa) = -12.35605 26.89085 7.26740
#
# Velocity S-wave (km/s) = -2.59055 3.82167 1.98674
# Velocity P-wave (km/s) = 4.77592 7.44499 6.25449
#
# Compressibility (1/GPa) = 0.01710251
#
# Stress axis : x y z
#
# Youngs Moduli (GPa) = 61.17893 85.28180 47.76436
#
# Poissons Ratio (x) = 0.33425 0.22853
# Poissons Ratio (y) = 0.23978 0.34622
# Poissons Ratio (z) = 0.29271 0.61817
#
# Static dielectric constant tensor:
#      x y z
#    x 1.591010 0.000000 0.000000 
#    y 0.000000 1.663730 0.000000 
#    z 0.000000 0.000000 1.667900 
# 
# From -- ./inp_files/10544.got.cif
#   From: 2010.05.17/outbox.cif.g08.bks.cpg/sg71_6_cif.got.tgz:10544.got - 2010.06.03 16:22:01.
