data_PCOD9522663
_publ_section_title
;
Structure prediction by ZEFSAII (Michael W. Deem and Ramdas Pophale) SiO2 
 PCOD9522663
Probable space group: I M M M
;
_chemical_formula_sum "Si O2"
_cell_formula_units_Z 74
_cell_length_a 13.938491
_cell_length_b 17.052477
_cell_length_c 16.634571
_cell_angle_alpha 90.000000
_cell_angle_beta 90.000000
_cell_angle_gamma 90.000000
_cell_volume 3953.801269
_symmetry_space_group_name_H-M "I M M M"
_symmetry_group_IT_number 71
_symmetry_cell_setting 'orthorhombic'
loop_
_space_group_symop_operation_xyz
x,y,z
-x,-y,z
x,-y,-z
-x,y,-z
-x,-y,-z
x,y,-z
-x,y,z
x,-y,z
1/2+x,1/2+y,1/2+z
1/2-x,1/2-y,1/2+z
1/2+x,1/2-y,1/2-z
1/2-x,1/2+y,1/2-z
1/2-x,1/2-y,1/2-z
1/2+x,1/2+y,1/2-z
1/2-x,1/2+y,1/2+z
1/2+x,1/2-y,1/2+z
loop_
_atom_site_type_symbol
_atom_site_label
_atom_site_fract_x
_atom_site_fract_y
_atom_site_fract_z
Si Si1 0.239345 0.405828 0.652874
Si Si2 0.198033 0.000000 0.588115
Si Si3 0.112821 0.205955 0.096473
Si Si4 0.804887 0.641825 0.169554
Si Si5 0.000000 0.591353 0.910308
Si Si6 0.609453 0.905056 0.000000
Si Si7 0.000000 0.000000 0.500000
O O1 0.236112 0.500000 0.663334
O O2 0.344712 0.376037 0.627752
O O3 0.207811 0.364933 0.735440
O O4 0.168222 0.383256 0.579799
O O5 0.229394 0.080051 0.631861
O O6 0.085867 0.000000 0.568409
O O7 0.248921 0.000000 0.500000
O O8 0.185672 0.270478 0.134420
O O9 0.000000 0.218049 0.118575
O O10 0.119072 0.209142 0.000000
O O11 0.907170 0.610553 0.140398
O O12 0.000000 0.500000 0.921795
O O13 0.000000 0.628957 0.000000
O O14 0.500000 0.875691 0.000000
O O15 0.605741 0.000000 0.000000
#
# Coordination Sequence:
#
# PCOD9522663 Si02
#       7
#    16   8  16  16   8   8   2
#     4  11  23  43  64  93 127 177 224 271 322 384
#     4  10  20  41  64  91 129 174 209 258 317 395
#     4  11  24  42  65  96 134 174 216 271 330 389
#     4  12  22  38  65  97 131 165 213 274 331 385
#     4  11  20  32  58 100 130 165 210 258 331 401
#     4   9  20  38  64  85 119 165 214 267 322 378
#     4   8  24  40  64  86 136 186 218 244 312 410
#
# _framework density 18.716166000000001
#
# number of rings (size 3 to 8) (size 9 to 14) (size 15 to 20)
#    0.324    0.865    4.324    2.595    1.514    0.432 
#    1.946    1.081    4.757    0.000    0.000    0.000 
#    0.000    0.000    0.000    0.000    0.000    0.000 
#
# Total GULP energy -205986.210927 kJ/mol
# GULP energy per Si atom -5567.194890 kJ/mol
# Density = 1.867357 g / cm^3
# Si number density = 18.716166 Si / 1000 Ang^3
#
#
#
# Elastic Constant Matrix: (Units=GPa)
#
#
# Indices 1 2 3 4 5 6 
#
# 1 131.8975 29.2327 54.2388 0.0000 0.0000 0.0000
# 2 29.2327 38.7130 22.4332 0.0000 0.0000 0.0000
# 3 54.2388 22.4332 153.0290 0.0000 0.0000 0.0000
# 4 0.0000 0.0000 0.0000 27.3995 0.0000 0.0000
# 5 0.0000 0.0000 0.0000 0.0000 29.7447 0.0000
# 6 0.0000 0.0000 0.0000 0.0000 0.0000 20.0931
#
#
#
# Elastic Compliance Matrix: (Units=1/GPa)
#
#
# Indices 1 2 3 4 5 6 
#
# 1 0.010011 -0.006014 -0.002667 0.000000 0.000000 0.000000
# 2 -0.006014 0.031842 -0.002536 0.000000 0.000000 0.000000
# 3 -0.002667 -0.002536 0.007852 0.000000 0.000000 0.000000
# 4 0.000000 0.000000 0.000000 0.036497 0.000000 0.000000
# 5 0.000000 0.000000 0.000000 0.000000 0.033619 0.000000
# 6 0.000000 0.000000 0.000000 0.000000 0.000000 0.049768
#
#
# Mechanical properties :
#
#
# Convention : Reuss Voigt Hill
#
# Bulk Modulus (GPa) = 36.66929 59.49432 48.08180
# Shear Modulus (GPa) = 24.86143 29.96310 27.41226
#
# Velocity S-wave (km/s) = 3.64859 4.00549 3.83120
# Velocity P-wave (km/s) = 6.11429 7.29717 6.73176
#
# Compressibility (1/GPa) = 0.02727078
#
# Stress axis : x y z
#
# Youngs Moduli (GPa) = 99.88821 31.40473 127.36166
#
# Poissons Ratio (x) = 0.18888 0.33963
# Poissons Ratio (y) = 0.60076 0.32302
# Poissons Ratio (z) = 0.26637 0.07965
#
# Static dielectric constant tensor:
#      x y z
#    x 1.631710 0.000000 0.000000 
#    y 0.000000 1.723370 0.000000 
#    z 0.000000 0.000000 1.646670 
# 
# From -- ./inp_files/34160.got.cif
#   From: 2010.05.17/outbox.cif.g08.bks.cpg/sg71_18_cif.got.tgz:34160.got - 2010.06.03 16:22:01.
