data_PCOD9522221
_publ_section_title
;
Structure prediction by ZEFSAII (Michael W. Deem and Ramdas Pophale) SiO2 
 PCOD9522221
Probable space group: I M M M
;
_chemical_formula_sum "Si O2"
_cell_formula_units_Z 58
_cell_length_a 14.814197
_cell_length_b 8.729537
_cell_length_c 26.454725
_cell_angle_alpha 90.000000
_cell_angle_beta 90.000000
_cell_angle_gamma 90.000000
_cell_volume 3421.153630
_symmetry_space_group_name_H-M "I M M M"
_symmetry_group_IT_number 71
_symmetry_cell_setting 'orthorhombic'
loop_
_space_group_symop_operation_xyz
x,y,z
-x,-y,z
x,-y,-z
-x,y,-z
-x,-y,-z
x,y,-z
-x,y,z
x,-y,z
1/2+x,1/2+y,1/2+z
1/2-x,1/2-y,1/2+z
1/2+x,1/2-y,1/2-z
1/2-x,1/2+y,1/2-z
1/2-x,1/2-y,1/2-z
1/2+x,1/2+y,1/2-z
1/2-x,1/2+y,1/2+z
1/2+x,1/2-y,1/2+z
loop_
_atom_site_type_symbol
_atom_site_label
_atom_site_fract_x
_atom_site_fract_y
_atom_site_fract_z
Si Si1 0.000000 0.313838 0.650183
Si Si2 0.000000 0.315663 0.231335
Si Si3 0.000000 0.000000 0.500000
Si Si4 0.309057 0.815589 0.106563
Si Si5 0.188951 0.167279 0.500000
Si Si6 0.308440 0.315569 0.296563
O O1 0.000000 0.271947 0.709136
O O2 0.091181 0.259662 0.623343
O O3 0.000000 0.500000 0.648494
O O4 0.909105 0.249261 0.207395
O O5 0.000000 0.500000 0.228454
O O6 0.918725 0.131039 0.500000
O O7 0.240063 0.771512 0.150961
O O8 0.311639 0.000000 0.105053
O O9 0.287365 0.753556 0.051388
O O10 0.233590 0.000000 0.500000
O O11 0.309020 0.500000 0.293116
O O12 0.250000 0.250000 0.250000
#
# Coordination Sequence:
#
# PCOD9522221 Si02
#       6
#     8   8   2  16   8  16
#     4   9  17  31  52  79 110 150 185 223 267 335
#     4  11  21  38  57  81 119 151 190 236 289 342
#     4   8  20  36  50  80 124 138 182 236 280 334
#     4  10  20  36  57  78 110 152 195 228 273 340
#     4  10  21  35  51  78 114 145 184 234 281 329
#     4  11  22  37  57  85 114 150 194 237 287 343
#
# _framework density 16.953344999999999
#
# number of rings (size 3 to 8) (size 9 to 14) (size 15 to 20)
#    0.414    1.379    2.759    2.483    0.000    2.207 
#    0.000    2.759    0.000    0.828    0.000    5.793 
#    0.000    0.000    0.000    0.000    0.000    0.000 
#
# Total GULP energy -161538.458222 kJ/mol
# GULP energy per Si atom -5570.291663 kJ/mol
# Density = 1.691476 g / cm^3
# Si number density = 16.953345 Si / 1000 Ang^3
#
#
#
# Elastic Constant Matrix: (Units=GPa)
#
#
# Indices 1 2 3 4 5 6 
#
# 1 129.5112 38.5491 80.8426 0.0000 0.0000 0.0000
# 2 38.5491 42.6003 49.0730 0.0000 0.0000 0.0000
# 3 80.8426 49.0730 179.5920 0.0000 0.0000 0.0000
# 4 0.0000 0.0000 0.0000 27.8999 0.0000 0.0000
# 5 0.0000 0.0000 0.0000 0.0000 11.3389 0.0000
# 6 0.0000 0.0000 0.0000 0.0000 0.0000 25.4346
#
#
#
# Elastic Compliance Matrix: (Units=1/GPa)
#
#
# Indices 1 2 3 4 5 6 
#
# 1 0.011927 -0.006725 -0.003531 0.000000 0.000000 0.000000
# 2 -0.006725 0.038049 -0.007369 0.000000 0.000000 0.000000
# 3 -0.003531 -0.007369 0.009172 0.000000 0.000000 0.000000
# 4 0.000000 0.000000 0.000000 0.035842 0.000000 0.000000
# 5 0.000000 0.000000 0.000000 0.000000 0.088192 0.000000
# 6 0.000000 0.000000 0.000000 0.000000 0.000000 0.039317
#
#
# Mechanical properties :
#
#
# Convention : Reuss Voigt Hill
#
# Bulk Modulus (GPa) = 41.84854 76.51476 59.18165
# Shear Modulus (GPa) = 18.81708 25.15059 21.98384
#
# Velocity S-wave (km/s) = 3.33518 3.85582 3.60491
# Velocity P-wave (km/s) = 6.29042 8.06559 7.23267
#
# Compressibility (1/GPa) = 0.02389570
#
# Stress axis : x y z
#
# Youngs Moduli (GPa) = 83.83994 26.28201 109.03301
#
# Poissons Ratio (x) = 0.17675 0.38505
# Poissons Ratio (y) = 0.56384 0.80351
# Poissons Ratio (z) = 0.29608 0.19368
#
# Static dielectric constant tensor:
#      x y z
#    x 1.557440 0.000000 0.000000 
#    y 0.000000 1.585800 0.000000 
#    z 0.000000 0.000000 1.561180 
# 
# From -- ./inp_files/11949.got.cif
#   From: 2010.05.17/outbox.cif.g08.bks.cpg/sg71_6_cif.got.tgz:11949.got - 2010.06.03 16:22:01.
