data_PCOD9522373
_publ_section_title
;
Structure prediction by ZEFSAII (Michael W. Deem and Ramdas Pophale) SiO2 
 PCOD9522373
Probable space group: I M M M
;
_chemical_formula_sum "Si O2"
_cell_formula_units_Z 104
_cell_length_a 28.421214
_cell_length_b 8.675597
_cell_length_c 22.386734
_cell_angle_alpha 90.000000
_cell_angle_beta 90.000000
_cell_angle_gamma 90.000000
_cell_volume 5519.919365
_symmetry_space_group_name_H-M "I M M M"
_symmetry_group_IT_number 71
_symmetry_cell_setting 'orthorhombic'
loop_
_space_group_symop_operation_xyz
x,y,z
-x,-y,z
x,-y,-z
-x,y,-z
-x,-y,-z
x,y,-z
-x,y,z
x,-y,z
1/2+x,1/2+y,1/2+z
1/2-x,1/2-y,1/2+z
1/2+x,1/2-y,1/2-z
1/2-x,1/2+y,1/2-z
1/2-x,1/2-y,1/2-z
1/2+x,1/2+y,1/2-z
1/2-x,1/2+y,1/2+z
1/2+x,1/2-y,1/2+z
loop_
_atom_site_type_symbol
_atom_site_label
_atom_site_fract_x
_atom_site_fract_y
_atom_site_fract_z
Si Si1 0.000000 0.177194 0.072487
Si Si2 0.362276 0.185751 0.200481
Si Si3 0.326657 0.186406 0.669209
Si Si4 0.707874 0.684916 0.000000
Si Si5 0.400186 0.814264 0.431268
Si Si6 0.770007 0.315429 0.373316
Si Si7 0.901679 0.187388 0.500000
Si Si8 0.053682 0.186316 0.625543
O O1 0.951349 0.257608 0.090311
O O2 0.000000 0.000000 0.091509
O O3 0.000000 0.182457 0.000000
O O4 0.350500 0.230830 0.268256
O O5 0.318477 0.234571 0.158639
O O6 0.410106 0.254106 0.174710
O O7 0.364988 0.000000 0.198295
O O8 0.359309 0.235802 0.613663
O O9 0.275022 0.256064 0.662571
O O10 0.322927 0.000000 0.668019
O O11 0.731068 0.747962 0.060079
O O12 0.652919 0.734504 0.000000
O O13 0.709893 0.500000 0.000000
O O14 0.392737 0.761862 0.500000
O O15 0.400777 0.000000 0.431872
O O16 0.769569 0.500000 0.375485
O O17 0.927498 0.238064 0.439597
O O18 0.902321 0.000000 0.500000
O O19 0.000000 0.236746 0.634781
O O20 0.054408 0.000000 0.625651
#
# Coordination Sequence:
#
# PCOD9522373 Si02
#       8
#     8  16  16   8  16  16   8  16
#     4   9  17  31  53  79 107 139 171 212 275 336
#     4  10  22  40  58  80 116 156 194 235 285 350
#     4  10  22  39  59  84 112 151 196 234 282 348
#     4  11  21  36  61  87 114 157 199 237 290 353
#     4   9  18  34  56  80 105 137 183 232 273 325
#     4  11  23  38  58  86 118 150 188 241 295 341
#     4   9  17  33  58  87 115 149 194 242 290 341
#     4  10  20  36  60  88 117 151 197 249 295 345
#
# _framework density 18.840855999999999
#
# number of rings (size 3 to 8) (size 9 to 14) (size 15 to 20)
#    0.000    2.077    1.538    1.615    1.077    4.000 
#    1.385    0.385    0.000    0.923    0.000    0.000 
#    0.000    0.000    0.000    0.000    0.000    0.000 
#
# Total GULP energy -290365.601720 kJ/mol
# GULP energy per Si atom -5583.953879 kJ/mol
# Density = 1.879797 g / cm^3
# Si number density = 18.840856 Si / 1000 Ang^3
#
#
#
# Elastic Constant Matrix: (Units=GPa)
#
#
# Indices 1 2 3 4 5 6 
#
# 1 116.9428 19.1685 54.6453 0.0000 0.0000 0.0000
# 2 19.1685 12.7860 21.8631 0.0000 0.0000 0.0000
# 3 54.6453 21.8631 114.8280 0.0000 0.0000 0.0000
# 4 0.0000 0.0000 0.0000 15.1789 0.0000 0.0000
# 5 0.0000 0.0000 0.0000 0.0000 14.3375 0.0000
# 6 0.0000 0.0000 0.0000 0.0000 0.0000 23.9299
#
#
#
# Elastic Compliance Matrix: (Units=1/GPa)
#
#
# Indices 1 2 3 4 5 6 
#
# 1 0.012191 -0.012390 -0.003442 0.000000 0.000000 0.000000
# 2 -0.012390 0.128557 -0.018581 0.000000 0.000000 0.000000
# 3 -0.003442 -0.018581 0.013885 0.000000 0.000000 0.000000
# 4 0.000000 0.000000 0.000000 0.065881 0.000000 0.000000
# 5 0.000000 0.000000 0.000000 0.000000 0.069747 0.000000
# 6 0.000000 0.000000 0.000000 0.000000 0.000000 0.041789
#
#
# Mechanical properties :
#
#
# Convention : Reuss Voigt Hill
#
# Bulk Modulus (GPa) = 11.65417 48.43452 30.04434
# Shear Modulus (GPa) = 11.64205 20.61457 16.12831
#
# Velocity S-wave (km/s) = 2.48849 3.31137 2.92897
# Velocity P-wave (km/s) = 3.80207 6.35478 5.23636
#
# Compressibility (1/GPa) = 0.08580622
#
# Stress axis : x y z
#
# Youngs Moduli (GPa) = 82.03042 7.77864 72.02193
#
# Poissons Ratio (x) = 0.09638 0.24793
# Poissons Ratio (y) = 1.01633 1.33824
# Poissons Ratio (z) = 0.28238 0.14453
#
# Static dielectric constant tensor:
#      x y z
#    x 1.632420 0.000000 0.000000 
#    y 0.000000 1.638740 0.000000 
#    z 0.000000 0.000000 1.642190 
# 
# From -- ./inp_files/11176.got.cif
#   From: 2010.05.17/outbox.cif.g08.bks.cpg/sg71_6_cif.got.tgz:11176.got - 2010.06.03 16:22:01.
