data_PCOD9522199
_publ_section_title
;
Structure prediction by ZEFSAII (Michael W. Deem and Ramdas Pophale) SiO2 
 PCOD9522199
Probable space group: I M M M
;
_chemical_formula_sum "Si O2"
_cell_formula_units_Z 104
_cell_length_a 26.846562
_cell_length_b 8.232766
_cell_length_c 24.492787
_cell_angle_alpha 90.000000
_cell_angle_beta 90.000000
_cell_angle_gamma 90.000000
_cell_volume 5413.431612
_symmetry_space_group_name_H-M "I M M M"
_symmetry_group_IT_number 71
_symmetry_cell_setting 'orthorhombic'
loop_
_space_group_symop_operation_xyz
x,y,z
-x,-y,z
x,-y,-z
-x,y,-z
-x,-y,-z
x,y,-z
-x,y,z
x,-y,z
1/2+x,1/2+y,1/2+z
1/2-x,1/2-y,1/2+z
1/2+x,1/2-y,1/2-z
1/2-x,1/2+y,1/2-z
1/2-x,1/2-y,1/2-z
1/2+x,1/2+y,1/2-z
1/2-x,1/2+y,1/2+z
1/2+x,1/2-y,1/2+z
loop_
_atom_site_type_symbol
_atom_site_label
_atom_site_fract_x
_atom_site_fract_y
_atom_site_fract_z
Si Si1 0.500000 0.693664 0.436593
Si Si2 0.709813 0.812221 0.842863
Si Si3 0.443165 0.301871 0.146565
Si Si4 0.606060 0.804458 0.562415
Si Si5 0.142831 0.803118 0.563123
Si Si6 0.820279 0.690832 0.154190
Si Si7 0.130374 0.189047 0.739610
O O1 0.500000 0.500000 0.435901
O O2 0.500000 0.751618 0.500000
O O3 0.447721 0.755117 0.413740
O O4 0.689084 0.766839 0.902710
O O5 0.768094 0.779632 0.837344
O O6 0.677871 0.706198 0.800557
O O7 0.698855 0.000000 0.831242
O O8 0.500000 0.246088 0.141728
O O9 0.443542 0.500000 0.146862
O O10 0.406894 0.254000 0.096676
O O11 0.415946 0.251894 0.202781
O O12 0.610022 0.743495 0.500000
O O13 0.650558 0.747944 0.600876
O O14 0.607703 0.000000 0.560943
O O15 0.141733 0.753313 0.500000
O O16 0.145702 0.000000 0.564944
O O17 0.809438 0.500000 0.147761
O O18 0.856175 0.716341 0.205857
O O19 0.122714 0.000000 0.753113
#
# Coordination Sequence:
#
# PCOD9522199 Si02
#       7
#     8  16  16  16  16  16  16
#     4   9  17  31  53  77 101 131 167 209 252 295
#     4  11  22  36  55  77 106 142 181 224 272 320
#     4   8  15  30  53  80 109 141 179 223 268 314
#     4   9  19  36  56  76 102 138 175 211 258 319
#     4   9  18  33  54  81 112 146 184 224 269 324
#     4  11  22  36  55  80 107 136 178 225 272 325
#     4  10  20  36  56  78 107 141 180 221 270 326
#
# _framework density 19.211475
#
# number of rings (size 3 to 8) (size 9 to 14) (size 15 to 20)
#    0.000    2.385    0.000    3.923    0.000    3.385 
#    1.385    3.077    0.000   11.077    0.000    4.308 
#    0.000    0.000    0.000    0.000    0.000    0.000 
#
# Total GULP energy -290126.635989 kJ/mol
# GULP energy per Si atom -5579.358384 kJ/mol
# Density = 1.916775 g / cm^3
# Si number density = 19.211475 Si / 1000 Ang^3
#
#
#
# Elastic Constant Matrix: (Units=GPa)
#
#
# Indices 1 2 3 4 5 6 
#
# 1 16.1111 -2.3794 9.3797 0.0000 0.0000 0.0000
# 2 -2.3794 18.5187 -3.6798 0.0000 0.0000 0.0000
# 3 9.3797 -3.6798 76.4049 0.0000 0.0000 0.0000
# 4 0.0000 0.0000 0.0000 19.6488 0.0000 0.0000
# 5 0.0000 0.0000 0.0000 0.0000 10.0791 0.0000
# 6 0.0000 0.0000 0.0000 0.0000 0.0000 9.1301
#
#
#
# Elastic Compliance Matrix: (Units=1/GPa)
#
#
# Indices 1 2 3 4 5 6 
#
# 1 0.067764 0.007122 -0.007976 0.000000 0.000000 0.000000
# 2 0.007122 0.055270 0.001788 0.000000 0.000000 0.000000
# 3 -0.007976 0.001788 0.014153 0.000000 0.000000 0.000000
# 4 0.000000 0.000000 0.000000 0.050894 0.000000 0.000000
# 5 0.000000 0.000000 0.000000 0.000000 0.099215 0.000000
# 6 0.000000 0.000000 0.000000 0.000000 0.000000 0.109528
#
#
# Mechanical properties :
#
#
# Convention : Reuss Voigt Hill
#
# Bulk Modulus (GPa) = 7.19142 13.07508 10.13325
# Shear Modulus (GPa) = 11.32993 14.95254 13.14124
#
# Velocity S-wave (km/s) = 2.43111 2.79285 2.61824
# Velocity P-wave (km/s) = 3.41054 4.14978 3.79819
#
# Compressibility (1/GPa) = 0.13905455
#
# Stress axis : x y z
#
# Youngs Moduli (GPa) = 14.75700 18.09309 70.65435
#
# Poissons Ratio (x) = -0.12886 0.56354
# Poissons Ratio (y) = -0.10510 -0.12630
# Poissons Ratio (z) = 0.11770 -0.03234
#
# Static dielectric constant tensor:
#      x y z
#    x 1.657740 0.000000 0.000000 
#    y 0.000000 1.668340 0.000000 
#    z 0.000000 0.000000 1.674030 
# 
# From -- ./inp_files/61979.got.cif
#   From: 2010.05.17/outbox.cif.g08.bks.cpg/sg71_31_cif.got.tgz:61979.got - 2010.06.03 16:22:01.
