data_PCOD9522838
_publ_section_title
;
Structure prediction by ZEFSAII (Michael W. Deem and Ramdas Pophale) SiO2 
 PCOD9522838
Probable space group: I M M M
;
_chemical_formula_sum "Si O2"
_cell_formula_units_Z 116
_cell_length_a 22.475304
_cell_length_b 31.770619
_cell_length_c 7.478071
_cell_angle_alpha 90.000000
_cell_angle_beta 90.000000
_cell_angle_gamma 90.000000
_cell_volume 5339.748905
_symmetry_space_group_name_H-M "I M M M"
_symmetry_group_IT_number 71
_symmetry_cell_setting 'orthorhombic'
loop_
_space_group_symop_operation_xyz
x,y,z
-x,-y,z
x,-y,-z
-x,y,-z
-x,-y,-z
x,y,-z
-x,y,z
x,-y,z
1/2+x,1/2+y,1/2+z
1/2-x,1/2-y,1/2+z
1/2+x,1/2-y,1/2-z
1/2-x,1/2+y,1/2-z
1/2-x,1/2-y,1/2-z
1/2+x,1/2+y,1/2-z
1/2-x,1/2+y,1/2+z
1/2+x,1/2-y,1/2+z
loop_
_atom_site_type_symbol
_atom_site_label
_atom_site_fract_x
_atom_site_fract_y
_atom_site_fract_z
Si Si1 0.876211 0.169411 0.216785
Si Si2 0.691236 0.453149 0.783483
Si Si3 0.112915 0.500000 0.000000
Si Si4 0.377797 0.154415 0.214513
Si Si5 0.252054 0.366582 0.289718
Si Si6 0.933169 0.744751 0.212628
Si Si7 0.430299 0.934217 0.213637
Si Si8 0.934606 0.082212 0.711059
O O1 0.810839 0.156204 0.284331
O O2 0.897019 0.214927 0.281356
O O3 0.920921 0.131819 0.267870
O O4 0.874182 0.169371 0.000000
O O5 0.707624 0.500000 0.725449
O O6 0.735525 0.416267 0.727578
O O7 0.624479 0.441127 0.718836
O O8 0.690262 0.452716 0.000000
O O9 0.107903 0.536463 0.842190
O O10 0.311180 0.146949 0.286103
O O11 0.402977 0.199775 0.262060
O O12 0.418287 0.114482 0.262959
O O13 0.374988 0.153301 0.000000
O O14 0.250630 0.356575 0.500000
O O15 0.000000 0.744143 0.286128
O O16 0.937309 0.751284 0.000000
O O17 0.500000 0.944673 0.243247
O O18 0.418187 0.939648 0.000000
O O19 0.936476 0.072596 0.500000
O O20 0.000000 0.071950 0.785411
#
# Coordination Sequence:
#
# PCOD9522838 Si02
#       8
#    16  16   4  16  16  16  16  16
#     4   9  18  34  55  78 107 142 180 221 265 318
#     4   9  18  33  51  74 105 138 176 224 271 316
#     4  12  23  38  64  90 114 152 198 238 293 358
#     4  10  22  39  56  78 110 144 180 224 276 331
#     4   9  19  37  57  76 103 142 182 221 270 322
#     4  10  21  35  54  82 112 141 176 219 269 327
#     4  10  21  38  59  85 118 151 188 241 296 348
#     4   9  17  29  48  75 106 141 179 219 266 318
#
# _framework density 21.723866999999998
#
# number of rings (size 3 to 8) (size 9 to 14) (size 15 to 20)
#    0.000    2.483    0.000    1.655    0.966    4.414 
#    1.241    1.379    0.000    0.000    0.000    3.862 
#    0.000    0.000    0.000    0.000    0.000    0.000 
#
# Total GULP energy -323331.356196 kJ/mol
# GULP energy per Si atom -5574.678555 kJ/mol
# Density = 2.167442 g / cm^3
# Si number density = 21.723867 Si / 1000 Ang^3
#
#
#
# Elastic Constant Matrix: (Units=GPa)
#
#
# Indices 1 2 3 4 5 6 
#
# 1 67.0611 45.7700 5.6647 0.0000 0.0000 0.0000
# 2 45.7700 107.1278 -18.9365 0.0000 0.0000 0.0000
# 3 5.6647 -18.9365 61.8751 0.0000 0.0000 0.0000
# 4 0.0000 0.0000 0.0000 17.3252 0.0000 0.0000
# 5 0.0000 0.0000 0.0000 0.0000 11.8718 0.0000
# 6 0.0000 0.0000 0.0000 0.0000 0.0000 -2.2550
#
#
#
# Elastic Compliance Matrix: (Units=1/GPa)
#
#
# Indices 1 2 3 4 5 6 
#
# 1 0.022587 -0.010589 -0.005308 0.000000 0.000000 0.000000
# 2 -0.010589 0.014832 0.005509 0.000000 0.000000 0.000000
# 3 -0.005308 0.005509 0.018334 0.000000 0.000000 0.000000
# 4 0.000000 0.000000 0.000000 0.057719 0.000000 0.000000
# 5 0.000000 0.000000 0.000000 0.000000 0.084233 0.000000
# 6 0.000000 0.000000 0.000000 0.000000 0.000000 -0.443454
#
#
# Mechanical properties :
#
#
# Convention : Reuss Voigt Hill
#
# Bulk Modulus (GPa) = 28.59075 33.45114 31.02094
# Shear Modulus (GPa) = -23.43967 18.95946 -2.24010
#
# Velocity S-wave (km/s) = -3.28835 2.95744 -1.01657
# Velocity P-wave (km/s) = 1.10820 5.20516 3.59622
#
# Compressibility (1/GPa) = 0.03497635
#
# Stress axis : x y z
#
# Youngs Moduli (GPa) = 44.27328 67.42031 54.54493
#
# Poissons Ratio (x) = 0.71388 0.28955
# Poissons Ratio (y) = 0.46879 -0.30047
# Poissons Ratio (z) = 0.23502 -0.37140
#
# Static dielectric constant tensor:
#      x y z
#    x 1.814440 0.000000 0.000000 
#    y 0.000000 1.758020 0.000000 
#    z 0.000000 0.000000 1.830690 
# 
# From -- ./inp_files/13729.got.cif
#   From: 2010.05.17/outbox.cif.g08.bks.cpg/sg71_7_cif.got.tgz:13729.got - 2010.06.03 16:22:01.
