data_PCOD9522146
_publ_section_title
;
Structure prediction by ZEFSAII (Michael W. Deem and Ramdas Pophale) SiO2 
 PCOD9522146
Probable space group: I M M M
;
_chemical_formula_sum "Si O2"
_cell_formula_units_Z 100
_cell_length_a 27.225579
_cell_length_b 8.440501
_cell_length_c 21.920434
_cell_angle_alpha 90.000000
_cell_angle_beta 90.000000
_cell_angle_gamma 90.000000
_cell_volume 5037.261519
_symmetry_space_group_name_H-M "I M M M"
_symmetry_group_IT_number 71
_symmetry_cell_setting 'orthorhombic'
loop_
_space_group_symop_operation_xyz
x,y,z
-x,-y,z
x,-y,-z
-x,y,-z
-x,-y,-z
x,y,-z
-x,y,z
x,-y,z
1/2+x,1/2+y,1/2+z
1/2-x,1/2-y,1/2+z
1/2+x,1/2-y,1/2-z
1/2-x,1/2+y,1/2-z
1/2-x,1/2-y,1/2-z
1/2+x,1/2+y,1/2-z
1/2-x,1/2+y,1/2+z
1/2+x,1/2-y,1/2+z
loop_
_atom_site_type_symbol
_atom_site_label
_atom_site_fract_x
_atom_site_fract_y
_atom_site_fract_z
Si Si1 0.085416 0.189557 0.593692
Si Si2 0.871549 0.821377 0.828544
Si Si3 0.800105 0.311341 0.067478
Si Si4 0.309708 0.182053 0.090508
Si Si5 0.796741 0.179025 0.717277
Si Si6 0.500000 0.221339 0.000000
Si Si7 0.556756 0.306757 0.768457
O O1 0.140664 0.227593 0.571412
O O2 0.079970 0.234905 0.665465
O O3 0.043468 0.270258 0.553069
O O4 0.076850 0.000000 0.588909
O O5 0.838327 0.742776 0.880682
O O6 0.837110 0.832036 0.769047
O O7 0.918687 0.746050 0.794618
O O8 0.883278 0.000000 0.849864
O O9 0.796152 0.500000 0.070927
O O10 0.744511 0.244636 0.073302
O O11 0.818266 0.265385 0.000000
O O12 0.310023 0.204819 0.163231
O O13 0.313710 0.000000 0.072673
O O14 0.750000 0.250000 0.750000
O O15 0.788504 0.000000 0.692792
O O16 0.500000 0.262655 0.770993
O O17 0.560312 0.500000 0.765425
#
# Coordination Sequence:
#
# PCOD9522146 Si02
#       7
#    16  16  16  16  16   4  16
#     4  11  21  38  60  89 122 160 216 263 299 349
#     4  10  20  35  59  90 120 155 193 243 309 362
#     4  11  25  43  62  85 115 156 202 251 307 374
#     4  12  25  39  57  85 122 164 204 250 307 360
#     4  11  20  33  56  88 121 154 195 246 302 360
#     4  12  25  40  69  94 117 172 227 266 303 350
#     4   9  17  33  59  88 121 153 193 250 298 344
#
# _framework density 19.852055
#
# number of rings (size 3 to 8) (size 9 to 14) (size 15 to 20)
#    0.000    1.280    4.000    3.120    1.120    1.920 
#    0.000    0.800    0.000    1.920    0.000    3.360 
#    0.000    0.000    0.000    0.000    0.000    0.000 
#
# Total GULP energy -278348.254108 kJ/mol
# GULP energy per Si atom -5566.965082 kJ/mol
# Density = 1.980687 g / cm^3
# Si number density = 19.852055 Si / 1000 Ang^3
#
#
#
# Elastic Constant Matrix: (Units=GPa)
#
#
# Indices 1 2 3 4 5 6 
#
# 1 111.2554 10.8608 55.6615 0.0000 0.0000 0.0000
# 2 10.8608 34.9249 17.1142 0.0000 0.0000 0.0000
# 3 55.6615 17.1142 137.8212 0.0000 0.0000 0.0000
# 4 0.0000 0.0000 0.0000 -7.5563 0.0000 0.0000
# 5 0.0000 0.0000 0.0000 0.0000 27.8280 0.0000
# 6 0.0000 0.0000 0.0000 0.0000 0.0000 6.8464
#
#
#
# Elastic Compliance Matrix: (Units=1/GPa)
#
#
# Indices 1 2 3 4 5 6 
#
# 1 0.011325 -0.001363 -0.004404 0.000000 0.000000 0.000000
# 2 -0.001363 0.030652 -0.003256 0.000000 0.000000 0.000000
# 3 -0.004404 -0.003256 0.009439 0.000000 0.000000 0.000000
# 4 0.000000 0.000000 0.000000 -0.132340 0.000000 0.000000
# 5 0.000000 0.000000 0.000000 0.000000 0.035935 0.000000
# 6 0.000000 0.000000 0.000000 0.000000 0.000000 0.146063
#
#
# Mechanical properties :
#
#
# Convention : Reuss Voigt Hill
#
# Bulk Modulus (GPa) = 29.96804 50.14161 40.05483
# Shear Modulus (GPa) = 38.38944 18.78128 28.58536
#
# Velocity S-wave (km/s) = 4.40224 3.07915 3.79874
# Velocity P-wave (km/s) = 6.40063 6.16068 6.28180
#
# Compressibility (1/GPa) = 0.03336888
#
# Stress axis : x y z
#
# Youngs Moduli (GPa) = 88.30016 32.62411 105.94483
#
# Poissons Ratio (x) = 0.04448 0.46663
# Poissons Ratio (y) = 0.12040 0.34492
# Poissons Ratio (z) = 0.38892 0.10621
#
# Static dielectric constant tensor:
#      x y z
#    x 1.746940 0.000000 0.000000 
#    y 0.000000 1.718800 0.000000 
#    z 0.000000 0.000000 1.715530 
# 
# From -- ./inp_files/56242.got.cif
#   From: 2010.05.17/outbox.cif.g08.bks.cpg/sg71_29_cif.got.tgz:56242.got - 2010.06.03 16:22:01.
