data_PCOD9522946
_publ_section_title
;
Structure prediction by ZEFSAII (Michael W. Deem and Ramdas Pophale) SiO2 
 PCOD9522946
Probable space group: I M M M
;
_chemical_formula_sum "Si O2"
_cell_formula_units_Z 116
_cell_length_a 18.539579
_cell_length_b 27.066129
_cell_length_c 12.602536
_cell_angle_alpha 90.000000
_cell_angle_beta 90.000000
_cell_angle_gamma 90.000000
_cell_volume 6323.884975
_symmetry_space_group_name_H-M "I M M M"
_symmetry_group_IT_number 71
_symmetry_cell_setting 'orthorhombic'
loop_
_space_group_symop_operation_xyz
x,y,z
-x,-y,z
x,-y,-z
-x,y,-z
-x,-y,-z
x,y,-z
-x,y,z
x,-y,z
1/2+x,1/2+y,1/2+z
1/2-x,1/2-y,1/2+z
1/2+x,1/2-y,1/2-z
1/2-x,1/2+y,1/2-z
1/2-x,1/2-y,1/2-z
1/2+x,1/2+y,1/2-z
1/2-x,1/2+y,1/2+z
1/2+x,1/2-y,1/2+z
loop_
_atom_site_type_symbol
_atom_site_label
_atom_site_fract_x
_atom_site_fract_y
_atom_site_fract_z
Si Si1 0.086680 0.268044 0.621085
Si Si2 0.291308 0.831542 0.380399
Si Si3 0.084330 0.631299 0.255105
Si Si4 0.414336 0.557495 0.376857
Si Si5 0.362137 0.730017 0.341034
Si Si6 0.698487 0.372446 0.309160
Si Si7 0.326551 0.943080 0.121948
Si Si8 0.000000 0.760552 0.000000
O O1 0.112474 0.260173 0.500000
O O2 0.100245 0.324562 0.660055
O O3 0.119672 0.234952 0.715212
O O4 0.000000 0.261385 0.621339
O O5 0.272065 0.842664 0.500000
O O6 0.368249 0.855212 0.346935
O O7 0.305307 0.773292 0.366022
O O8 0.234699 0.853850 0.298686
O O9 0.112188 0.580437 0.304385
O O10 0.000000 0.631662 0.232861
O O11 0.396185 0.569904 0.500000
O O12 0.500000 0.563071 0.366202
O O13 0.396245 0.500000 0.361097
O O14 0.371265 0.593093 0.300223
O O15 0.327581 0.677226 0.366544
O O16 0.435438 0.738473 0.407550
O O17 0.757844 0.407122 0.364896
O O18 0.309013 0.000000 0.148788
O O19 0.350156 0.941759 0.000000
#
# Coordination Sequence:
#
# PCOD9522946 Si02
#       8
#    16  16  16  16  16  16  16   4
#     4   9  17  32  52  78 115 149 180 218 274 337
#     4  10  22  39  57  80 115 156 194 236 281 342
#     4   9  19  34  57  87 112 142 187 235 290 339
#     4   9  19  35  59  90 119 147 182 233 297 354
#     4  11  23  36  56  87 117 153 193 238 288 333
#     4  11  23  36  55  82 114 150 193 230 286 344
#     4  10  21  36  54  79 111 149 187 227 287 351
#     4  12  24  36  58  92 121 152 191 250 288 340
#
# _framework density 18.343154999999999
#
# number of rings (size 3 to 8) (size 9 to 14) (size 15 to 20)
#    0.000    2.069    1.379    2.069    3.862    3.034 
#    0.000    1.379    0.000   10.759    0.000    4.828 
#    0.000    0.000    0.000    0.000    0.000    0.000 
#
# Total GULP energy -323170.403319 kJ/mol
# GULP energy per Si atom -5571.903505 kJ/mol
# Density = 1.830140 g / cm^3
# Si number density = 18.343155 Si / 1000 Ang^3
#
#
#
# Elastic Constant Matrix: (Units=GPa)
#
#
# Indices 1 2 3 4 5 6 
#
# 1 64.5135 52.7061 26.6683 0.0000 0.0000 0.0000
# 2 52.7061 100.1990 18.5676 0.0000 0.0000 0.0000
# 3 26.6683 18.5676 69.0552 0.0001 0.0000 0.0000
# 4 0.0000 0.0000 0.0001 -0.4857 0.0000 0.0000
# 5 0.0000 0.0000 0.0000 0.0000 15.7329 0.0000
# 6 0.0000 0.0000 0.0000 0.0000 0.0000 22.8064
#
#
#
# Elastic Compliance Matrix: (Units=1/GPa)
#
#
# Indices 1 2 3 4 5 6 
#
# 1 0.030830 -0.014745 -0.007941 -0.000001 0.000000 0.000000
# 2 -0.014745 0.017556 0.000974 0.000001 0.000000 0.000000
# 3 -0.007941 0.000974 0.017286 0.000002 0.000000 0.000000
# 4 -0.000001 0.000001 0.000002 -2.058749 0.000000 0.000000
# 5 0.000000 0.000000 0.000000 0.000000 0.063561 0.000000
# 6 0.000000 0.000000 0.000000 0.000000 0.000000 0.043847
#
#
# Mechanical properties :
#
#
# Convention : Reuss Voigt Hill
#
# Bulk Modulus (GPa) = 44.95083 47.73908 46.34496
# Shear Modulus (GPa) = -2.72505 16.66576 6.97036
#
# Velocity S-wave (km/s) = -1.22017 3.01749 1.95147
# Velocity P-wave (km/s) = 4.75117 6.18243 5.51344
#
# Compressibility (1/GPa) = 0.02224653
#
# Stress axis : x y z
#
# Youngs Moduli (GPa) = 32.43580 56.96070 57.84975
#
# Poissons Ratio (x) = 0.83991 0.45941
# Poissons Ratio (y) = 0.47828 -0.05635
# Poissons Ratio (z) = 0.25759 -0.05548
#
# Static dielectric constant tensor:
#      x y z
#    x 1.653000 0.000000 0.000000 
#    y 0.000000 1.646260 0.000000 
#    z 0.000000 0.000000 1.634230 
# 
# From -- ./inp_files/24655.got.cif
#   From: 2010.05.17/outbox.cif.g08.bks.cpg/sg71_13_cif.got.tgz:24655.got - 2010.06.03 16:22:01.
