data_PCOD9522979
_publ_section_title
;
Structure prediction by ZEFSAII (Michael W. Deem and Ramdas Pophale) SiO2 
 PCOD9522979
Probable space group: I M M M
;
_chemical_formula_sum "Si O2"
_cell_formula_units_Z 88
_cell_length_a 7.638102
_cell_length_b 32.781606
_cell_length_c 18.708563
_cell_angle_alpha 90.000000
_cell_angle_beta 90.000000
_cell_angle_gamma 90.000000
_cell_volume 4684.423065
_symmetry_space_group_name_H-M "I M M M"
_symmetry_group_IT_number 71
_symmetry_cell_setting 'orthorhombic'
loop_
_space_group_symop_operation_xyz
x,y,z
-x,-y,z
x,-y,-z
-x,y,-z
-x,-y,-z
x,y,-z
-x,y,z
x,-y,z
1/2+x,1/2+y,1/2+z
1/2-x,1/2-y,1/2+z
1/2+x,1/2-y,1/2-z
1/2-x,1/2+y,1/2-z
1/2-x,1/2-y,1/2-z
1/2+x,1/2+y,1/2-z
1/2-x,1/2+y,1/2+z
1/2+x,1/2-y,1/2+z
loop_
_atom_site_type_symbol
_atom_site_label
_atom_site_fract_x
_atom_site_fract_y
_atom_site_fract_z
Si Si1 0.500000 0.221779 0.586359
Si Si2 0.295011 0.122510 0.085785
Si Si3 0.210800 0.500000 0.082147
Si Si4 0.790836 0.156846 0.415165
Si Si5 0.000000 0.814450 0.087125
Si Si6 0.203031 0.454108 0.327579
Si Si7 0.203105 0.077974 0.674458
O O1 0.500000 0.224474 0.500000
O O2 0.327733 0.195561 0.604842
O O3 0.500000 0.268027 0.613671
O O4 0.500000 0.128504 0.105817
O O5 0.171553 0.159876 0.108534
O O6 0.224866 0.080643 0.120361
O O7 0.287750 0.119342 0.000000
O O8 0.278477 0.459835 0.120975
O O9 0.000000 0.500000 0.086853
O O10 0.263471 0.500000 0.000000
O O11 0.761414 0.147879 0.500000
O O12 0.735651 0.118466 0.366537
O O13 0.000000 0.163674 0.406805
O O14 0.000000 0.813357 0.000000
O O15 0.279598 0.500000 0.328599
O O16 0.208940 0.435813 0.247877
O O17 0.000000 0.458075 0.348410
O O18 0.000000 0.084412 0.691942
#
# Coordination Sequence:
#
# PCOD9522979 Si02
#       7
#     8  16   8  16   8  16  16
#     4   9  18  32  56  84 110 140 175 225 285 332
#     4   9  19  36  58  84 112 145 180 223 279 332
#     4  11  23  35  51  75 106 147 190 235 275 318
#     4   9  19  34  52  78 108 142 185 229 272 321
#     4   9  18  34  57  88 114 136 175 226 277 340
#     4  10  21  36  55  80 110 145 187 226 268 329
#     4  11  22  35  52  76 107 146 188 229 275 326
#
# _framework density 18.785664000000001
#
# number of rings (size 3 to 8) (size 9 to 14) (size 15 to 20)
#    0.000    2.273    0.909    1.364    3.818    2.545 
#    0.000    5.455    0.000    2.727    0.000    0.000 
#    0.000    0.000    0.000    0.000    0.000    0.000 
#
# Total GULP energy -245364.203199 kJ/mol
# GULP energy per Si atom -5576.459164 kJ/mol
# Density = 1.874291 g / cm^3
# Si number density = 18.785664 Si / 1000 Ang^3
#
#
#
# Elastic Constant Matrix: (Units=GPa)
#
#
# Indices 1 2 3 4 5 6 
#
# 1 67.2357 59.3992 11.1328 0.0000 0.0000 0.0000
# 2 59.3992 200.2396 40.0043 0.0000 0.0000 0.0000
# 3 11.1328 40.0043 21.4306 0.0000 0.0000 0.0000
# 4 0.0000 0.0000 0.0000 54.9029 0.0000 0.0000
# 5 0.0000 0.0000 0.0000 0.0000 -0.9836 0.0000
# 6 0.0000 0.0000 0.0000 0.0000 0.0000 21.9639
#
#
#
# Elastic Compliance Matrix: (Units=1/GPa)
#
#
# Indices 1 2 3 4 5 6 
#
# 1 0.020171 -0.006204 0.001102 0.000000 0.000000 0.000000
# 2 -0.006204 0.009872 -0.015205 0.000000 0.000000 0.000000
# 3 0.001102 -0.015205 0.074474 0.000000 0.000001 0.000000
# 4 0.000000 0.000000 0.000000 0.018214 -0.000001 0.000000
# 5 0.000000 0.000000 0.000001 -0.000001 -1.016646 0.000000
# 6 0.000000 0.000000 0.000000 0.000000 0.000000 0.045529
#
#
# Mechanical properties :
#
#
# Convention : Reuss Voigt Hill
#
# Bulk Modulus (GPa) = 15.64881 56.66426 36.15653
# Shear Modulus (GPa) = -6.35752 27.06793 10.35521
#
# Velocity S-wave (km/s) = -1.84163 3.80001 2.35037
# Velocity P-wave (km/s) = 1.95606 7.03438 5.16278
#
# Compressibility (1/GPa) = 0.06390262
#
# Stress axis : x y z
#
# Youngs Moduli (GPa) = 49.57538 101.29580 13.42756
#
# Poissons Ratio (x) = 0.62842 -0.01480
# Poissons Ratio (y) = 0.30755 0.20417
# Poissons Ratio (z) = -0.05463 1.54024
#
# Static dielectric constant tensor:
#      x y z
#    x 1.693130 0.000000 0.000000 
#    y 0.000000 1.646530 0.000000 
#    z 0.000000 0.000000 1.639390 
# 
# From -- ./inp_files/50569.got.cif
#   From: 2010.05.17/outbox.cif.g08.bks.cpg/sg71_26_cif.got.tgz:50569.got - 2010.06.03 16:22:01.
