data_PCOD9522585
_publ_section_title
;
Structure prediction by ZEFSAII (Michael W. Deem and Ramdas Pophale) SiO2 
 PCOD9522585
Probable space group: I M M M
;
_chemical_formula_sum "Si O2"
_cell_formula_units_Z 104
_cell_length_a 22.625040
_cell_length_b 8.755329
_cell_length_c 28.089058
_cell_angle_alpha 90.000000
_cell_angle_beta 90.000000
_cell_angle_gamma 90.000000
_cell_volume 5564.152197
_symmetry_space_group_name_H-M "I M M M"
_symmetry_group_IT_number 71
_symmetry_cell_setting 'orthorhombic'
loop_
_space_group_symop_operation_xyz
x,y,z
-x,-y,z
x,-y,-z
-x,y,-z
-x,-y,-z
x,y,-z
-x,y,z
x,-y,z
1/2+x,1/2+y,1/2+z
1/2-x,1/2-y,1/2+z
1/2+x,1/2-y,1/2-z
1/2-x,1/2+y,1/2-z
1/2-x,1/2-y,1/2-z
1/2+x,1/2+y,1/2-z
1/2-x,1/2+y,1/2+z
1/2+x,1/2-y,1/2+z
loop_
_atom_site_type_symbol
_atom_site_label
_atom_site_fract_x
_atom_site_fract_y
_atom_site_fract_z
Si Si1 0.500000 0.813727 0.683896
Si Si2 0.799875 0.184129 0.053406
Si Si3 0.619640 0.318538 0.175777
Si Si4 0.569665 0.185857 0.000000
Si Si5 0.875031 0.683199 0.138928
Si Si6 0.000000 0.316961 0.703920
Si Si7 0.334405 0.184608 0.079802
Si Si8 0.687243 0.182653 0.263119
O O1 0.559526 0.765626 0.656096
O O2 0.500000 0.767032 0.739931
O O3 0.500000 0.000000 0.684983
O O4 0.845335 0.246741 0.092336
O O5 0.731160 0.230002 0.062042
O O6 0.800778 0.000000 0.055760
O O7 0.816547 0.231700 0.000000
O O8 0.619152 0.500000 0.173719
O O9 0.555252 0.246853 0.175437
O O10 0.656521 0.252152 0.132024
O O11 0.643910 0.260878 0.226046
O O12 0.610872 0.231403 0.954680
O O13 0.500000 0.236124 0.000000
O O14 0.567815 0.000000 0.000000
O O15 0.877775 0.500000 0.133260
O O16 0.831996 0.717286 0.183311
O O17 0.000000 0.500000 0.704258
O O18 0.335495 0.000000 0.081531
O O19 0.750000 0.250000 0.250000
O O20 0.685410 0.000000 0.257025
#
# Coordination Sequence:
#
# PCOD9522585 Si02
#       8
#     8  16  16   8  16   8  16  16
#     4   9  18  39  64  86 114 151 198 251 302 360
#     4  10  21  39  61  87 120 156 200 252 305 364
#     4  12  25  38  55  88 126 156 195 244 295 360
#     4   9  18  34  59  89 111 144 208 263 297 356
#     4  10  21  38  62  88 114 151 200 251 306 366
#     4  11  21  41  65  83 113 163 208 247 300 361
#     4  10  20  38  62  86 116 159 207 252 304 361
#     4  11  22  38  59  86 120 158 199 243 298 360
#
# _framework density 18.691078000000001
#
# number of rings (size 3 to 8) (size 9 to 14) (size 15 to 20)
#    0.000    1.615    2.308    3.000    1.077    4.615 
#    0.000    1.154    0.000    2.769    0.000    0.000 
#    0.000    0.000    0.000    0.000    0.000    0.000 
#
# Total GULP energy -290241.426137 kJ/mol
# GULP energy per Si atom -5581.565887 kJ/mol
# Density = 1.864854 g / cm^3
# Si number density = 18.691078 Si / 1000 Ang^3
#
#
#
# Elastic Constant Matrix: (Units=GPa)
#
#
# Indices 1 2 3 4 5 6 
#
# 1 86.1592 22.5241 29.8117 0.0000 0.0000 0.0000
# 2 22.5241 27.4823 39.2743 0.0000 0.0000 0.0000
# 3 29.8117 39.2743 121.1112 0.0000 0.0000 0.0000
# 4 0.0000 0.0000 0.0000 22.4438 0.0000 0.0000
# 5 0.0000 0.0000 0.0000 0.0000 37.5917 0.0000
# 6 0.0000 0.0000 0.0000 0.0000 0.0000 24.7670
#
#
#
# Elastic Compliance Matrix: (Units=1/GPa)
#
#
# Indices 1 2 3 4 5 6 
#
# 1 0.014790 -0.012895 0.000541 0.000000 0.000000 0.000000
# 2 -0.012895 0.079056 -0.022462 0.000000 0.000000 0.000000
# 3 0.000541 -0.022462 0.015408 0.000000 0.000000 0.000000
# 4 0.000000 0.000000 0.000000 0.044556 0.000000 0.000000
# 5 0.000000 0.000000 0.000000 0.000000 0.026602 0.000000
# 6 0.000000 0.000000 0.000000 0.000000 0.000000 0.040376
#
#
# Mechanical properties :
#
#
# Convention : Reuss Voigt Hill
#
# Bulk Modulus (GPa) = 25.23886 46.44145 35.84015
# Shear Modulus (GPa) = 16.46750 26.50332 21.48541
#
# Velocity S-wave (km/s) = 2.97144 3.76967 3.39411
# Velocity P-wave (km/s) = 5.03042 6.62179 5.88019
#
# Compressibility (1/GPa) = 0.03962145
#
# Stress axis : x y z
#
# Youngs Moduli (GPa) = 67.61188 12.64923 64.90172
#
# Poissons Ratio (x) = 0.16311 -0.03511
# Poissons Ratio (y) = 0.87185 1.45785
# Poissons Ratio (z) = -0.03658 0.28413
#
# Static dielectric constant tensor:
#      x y z
#    x 1.600620 0.000000 0.000000 
#    y 0.000000 1.638420 0.000000 
#    z 0.000000 0.000000 1.609540 
# 
# From -- ./inp_files/66482.got.cif
#   From: 2010.05.17/outbox.cif.g08.bks.cpg/sg71_34_cif.got.tgz:66482.got - 2010.06.03 16:22:01.
