data_PCOD9522525
_publ_section_title
;
Structure prediction by ZEFSAII (Michael W. Deem and Ramdas Pophale) SiO2 
 PCOD9522525
Probable space group: I M M M
;
_chemical_formula_sum "Si O2"
_cell_formula_units_Z 112
_cell_length_a 20.279405
_cell_length_b 11.097330
_cell_length_c 24.985721
_cell_angle_alpha 90.000000
_cell_angle_beta 90.000000
_cell_angle_gamma 90.000000
_cell_volume 5622.967788
_symmetry_space_group_name_H-M "I M M M"
_symmetry_group_IT_number 71
_symmetry_cell_setting 'orthorhombic'
loop_
_space_group_symop_operation_xyz
x,y,z
-x,-y,z
x,-y,-z
-x,y,-z
-x,-y,-z
x,y,-z
-x,y,z
x,-y,z
1/2+x,1/2+y,1/2+z
1/2-x,1/2-y,1/2+z
1/2+x,1/2-y,1/2-z
1/2-x,1/2+y,1/2-z
1/2-x,1/2-y,1/2-z
1/2+x,1/2+y,1/2-z
1/2-x,1/2+y,1/2+z
1/2+x,1/2-y,1/2+z
loop_
_atom_site_type_symbol
_atom_site_label
_atom_site_fract_x
_atom_site_fract_y
_atom_site_fract_z
Si Si1 0.424206 0.730638 0.275542
Si Si2 0.293639 0.135034 0.896586
Si Si3 0.280473 0.635436 0.717285
Si Si4 0.261599 0.129064 0.440406
Si Si5 0.109182 0.369407 0.123961
Si Si6 0.572762 0.137836 0.835809
Si Si7 0.078474 0.128866 0.939556
O O1 0.500000 0.687177 0.286262
O O2 0.360103 0.647484 0.284512
O O3 0.409724 0.842655 0.315166
O O4 0.421053 0.774736 0.214604
O O5 0.249523 0.141435 0.842421
O O6 0.276015 0.246640 0.933666
O O7 0.368356 0.151819 0.876895
O O8 0.285135 0.000000 0.919140
O O9 0.263415 0.500000 0.738435
O O10 0.250000 0.750000 0.750000
O O11 0.293301 0.129692 0.500000
O O12 0.314398 0.125681 0.392570
O O13 0.224549 0.000000 0.437209
O O14 0.081499 0.500000 0.107284
O O15 0.088653 0.248734 0.093459
O O16 0.500000 0.153669 0.859657
O O17 0.577251 0.000000 0.815393
O O18 0.000000 0.118824 0.943395
O O19 0.103534 0.000000 0.917085
O O20 0.104966 0.140633 0.000000
#
# Coordination Sequence:
#
# PCOD9522525 Si02
#       7
#    16  16  16  16  16  16  16
#     4  11  22  36  55  84 125 167 201 240 292 350
#     4  10  20  37  62  89 114 150 199 244 292 349
#     4  11  23  39  60  88 121 158 205 252 297 350
#     4  10  22  39  59  85 117 152 192 245 308 361
#     4  11  22  35  54  80 110 146 194 246 293 341
#     4   9  18  34  57  87 123 156 187 230 287 352
#     4   9  19  35  51  66  90 131 182 236 297 355
#
# _framework density 19.918308
#
# number of rings (size 3 to 8) (size 9 to 14) (size 15 to 20)
#    0.000    1.857    2.857    1.714    0.000    5.429 
#    0.000    0.714    0.000    0.857    0.000    3.000 
#    0.000    0.000    0.000    0.000    0.000    0.000 
#
# Total GULP energy -311942.609623 kJ/mol
# GULP energy per Si atom -5570.403743 kJ/mol
# Density = 1.987297 g / cm^3
# Si number density = 19.918308 Si / 1000 Ang^3
#
#
#
# Elastic Constant Matrix: (Units=GPa)
#
#
# Indices 1 2 3 4 5 6 
#
# 1 96.3713 32.3649 6.3828 0.0000 0.0000 0.0000
# 2 32.3649 179.4924 34.7856 0.0000 0.0000 0.0000
# 3 6.3828 34.7856 24.4470 0.0000 0.0000 0.0000
# 4 0.0000 0.0000 0.0000 -1.9042 0.0000 0.0000
# 5 0.0000 0.0000 0.0000 0.0000 17.9616 0.0000
# 6 0.0000 0.0000 0.0000 0.0000 0.0000 111.8166
#
#
#
# Elastic Compliance Matrix: (Units=1/GPa)
#
#
# Indices 1 2 3 4 5 6 
#
# 1 0.011045 -0.001978 -0.000069 0.000000 0.000000 0.000000
# 2 -0.001978 0.008047 -0.010933 0.000000 0.000000 0.000000
# 3 -0.000069 -0.010933 0.056480 0.000000 0.000000 0.000000
# 4 0.000000 0.000000 0.000000 -0.525154 0.000000 0.000000
# 5 0.000000 0.000000 0.000000 0.000000 0.055674 0.000000
# 6 0.000000 0.000000 0.000000 0.000000 0.000000 0.008943
#
#
# Mechanical properties :
#
#
# Convention : Reuss Voigt Hill
#
# Bulk Modulus (GPa) = 20.15678 49.70858 34.93268
# Shear Modulus (GPa) = -14.60000 40.69328 13.04664
#
# Velocity S-wave (km/s) = -2.71032 4.52487 2.56209
# Velocity P-wave (km/s) = 0.58926 7.23254 5.13112
#
# Compressibility (1/GPa) = 0.04961109
#
# Stress axis : x y z
#
# Youngs Moduli (GPa) = 90.53475 124.27186 17.70541
#
# Poissons Ratio (x) = 0.24585 0.00122
# Poissons Ratio (y) = 0.17910 0.19358
# Poissons Ratio (z) = 0.00624 1.35871
#
# Static dielectric constant tensor:
#      x y z
#    x 1.740490 0.000000 0.000000 
#    y 0.000000 1.778300 0.000000 
#    z 0.000000 0.000000 1.696460 
# 
# From -- ./inp_files/61304.got.cif
#   From: 2010.05.17/outbox.cif.g08.bks.cpg/sg71_31_cif.got.tgz:61304.got - 2010.06.03 16:22:01.
