data_PCOD9522769
_publ_section_title
;
Structure prediction by ZEFSAII (Michael W. Deem and Ramdas Pophale) SiO2 
 PCOD9522769
Probable space group: I M M M
;
_chemical_formula_sum "Si O2"
_cell_formula_units_Z 96
_cell_length_a 17.587022
_cell_length_b 10.662948
_cell_length_c 30.148845
_cell_angle_alpha 90.000000
_cell_angle_beta 90.000000
_cell_angle_gamma 90.000000
_cell_volume 5653.797860
_symmetry_space_group_name_H-M "I M M M"
_symmetry_group_IT_number 71
_symmetry_cell_setting 'orthorhombic'
loop_
_space_group_symop_operation_xyz
x,y,z
-x,-y,z
x,-y,-z
-x,y,-z
-x,-y,-z
x,y,-z
-x,y,z
x,-y,z
1/2+x,1/2+y,1/2+z
1/2-x,1/2-y,1/2+z
1/2+x,1/2-y,1/2-z
1/2-x,1/2+y,1/2-z
1/2-x,1/2-y,1/2-z
1/2+x,1/2+y,1/2-z
1/2-x,1/2+y,1/2+z
1/2+x,1/2-y,1/2+z
loop_
_atom_site_type_symbol
_atom_site_label
_atom_site_fract_x
_atom_site_fract_y
_atom_site_fract_z
Si Si1 0.293489 0.857931 0.884451
Si Si2 0.853053 0.139689 0.270056
Si Si3 0.198564 0.720270 0.812739
Si Si4 0.413070 0.860772 0.611179
Si Si5 0.347921 0.642471 0.552675
Si Si6 0.587205 0.647348 0.864654
O O1 0.241712 0.829173 0.840871
O O2 0.236151 0.849158 0.925878
O O3 0.356276 0.748474 0.886071
O O4 0.323974 0.000000 0.881925
O O5 0.851010 0.229039 0.227927
O O6 0.767978 0.143746 0.291154
O O7 0.906093 0.171436 0.311677
O O8 0.871362 0.000000 0.255010
O O9 0.145984 0.652276 0.848399
O O10 0.500000 0.849595 0.626868
O O11 0.395820 0.749964 0.576765
O O12 0.403681 0.000000 0.591269
O O13 0.346599 0.659039 0.500000
O O14 0.375505 0.500000 0.562260
O O15 0.500000 0.661595 0.878924
O O16 0.609567 0.500000 0.871264
#
# Coordination Sequence:
#
# PCOD9522769 Si02
#       6
#    16  16  16  16  16  16
#     4   9  17  30  50  73  94 120 156 196 238 285
#     4   9  16  27  45  66  89 124 168 206 239 279
#     4   9  17  29  46  66  94 127 162 203 246 281
#     4  10  21  35  50  71 100 132 164 197 236 284
#     4   9  19  36  56  77  99 122 153 195 240 287
#     4   9  18  31  46  68  99 131 161 195 237 284
#
# _framework density 16.979735999999999
#
# number of rings (size 3 to 8) (size 9 to 14) (size 15 to 20)
#    0.000    2.833    0.000    1.000    0.000    6.667 
#    0.000    2.500    0.000    0.500    0.000    3.500 
#    0.000    0.000    0.000    0.000    0.000    0.000 
#
# Total GULP energy -267232.165606 kJ/mol
# GULP energy per Si atom -5567.336783 kJ/mol
# Density = 1.694109 g / cm^3
# Si number density = 16.979736 Si / 1000 Ang^3
#
#
#
# Elastic Constant Matrix: (Units=GPa)
#
#
# Indices 1 2 3 4 5 6 
#
# 1 52.1308 41.0052 7.2347 0.0000 0.0000 0.0000
# 2 41.0052 107.9542 32.0803 0.0000 0.0000 0.0000
# 3 7.2347 32.0803 49.8967 0.0000 0.0000 0.0000
# 4 0.0000 0.0000 0.0000 14.4998 0.0000 0.0000
# 5 0.0000 0.0000 0.0000 0.0000 9.3586 0.0000
# 6 0.0000 0.0000 0.0000 0.0000 0.0000 23.0154
#
#
#
# Elastic Compliance Matrix: (Units=1/GPa)
#
#
# Indices 1 2 3 4 5 6 
#
# 1 0.027818 -0.011580 0.003412 0.000000 0.000000 0.000000
# 2 -0.011580 0.016272 -0.008783 0.000000 0.000000 0.000000
# 3 0.003412 -0.008783 0.025193 0.000000 0.000000 0.000000
# 4 0.000000 0.000000 0.000000 0.068966 0.000000 0.000000
# 5 0.000000 0.000000 0.000000 0.000000 0.106854 0.000000
# 6 0.000000 0.000000 0.000000 0.000000 0.000000 0.043449
#
#
# Mechanical properties :
#
#
# Convention : Reuss Voigt Hill
#
# Bulk Modulus (GPa) = 28.26364 41.18021 34.72193
# Shear Modulus (GPa) = 14.95898 18.01886 16.48892
#
# Velocity S-wave (km/s) = 2.97137 3.26114 3.11962
# Velocity P-wave (km/s) = 5.33420 6.20365 5.78528
#
# Compressibility (1/GPa) = 0.03538114
#
# Stress axis : x y z
#
# Youngs Moduli (GPa) = 35.94816 61.45643 39.69302
#
# Poissons Ratio (x) = 0.71168 -0.13543
# Poissons Ratio (y) = 0.41629 0.34861
# Poissons Ratio (z) = -0.12265 0.53975
#
# Static dielectric constant tensor:
#      x y z
#    x 1.571040 0.000000 0.000000 
#    y 0.000000 1.587020 0.000000 
#    z 0.000000 0.000000 1.551990 
# 
# From -- ./inp_files/64598.got.cif
#   From: 2010.05.17/outbox.cif.g08.bks.cpg/sg71_33_cif.got.tgz:64598.got - 2010.06.03 16:22:01.
