data_PCOD9522379
_publ_section_title
;
Structure prediction by ZEFSAII (Michael W. Deem and Ramdas Pophale) SiO2 
 PCOD9522379
Probable space group: I M M M
;
_chemical_formula_sum "Si O2"
_cell_formula_units_Z 58
_cell_length_a 7.731056
_cell_length_b 17.117597
_cell_length_c 19.870009
_cell_angle_alpha 90.000000
_cell_angle_beta 90.000000
_cell_angle_gamma 90.000000
_cell_volume 2629.539388
_symmetry_space_group_name_H-M "I M M M"
_symmetry_group_IT_number 71
_symmetry_cell_setting 'orthorhombic'
loop_
_space_group_symop_operation_xyz
x,y,z
-x,-y,z
x,-y,-z
-x,y,-z
-x,-y,-z
x,y,-z
-x,y,z
x,-y,z
1/2+x,1/2+y,1/2+z
1/2-x,1/2-y,1/2+z
1/2+x,1/2-y,1/2-z
1/2-x,1/2+y,1/2-z
1/2-x,1/2-y,1/2-z
1/2+x,1/2+y,1/2-z
1/2-x,1/2+y,1/2+z
1/2+x,1/2-y,1/2+z
loop_
_atom_site_type_symbol
_atom_site_label
_atom_site_fract_x
_atom_site_fract_y
_atom_site_fract_z
Si Si1 0.788843 0.792981 0.922880
Si Si2 0.000000 0.500000 0.000000
Si Si3 0.812500 0.000000 0.606043
Si Si4 0.291521 0.588860 0.684585
Si Si5 0.293781 0.154280 0.322711
O O1 0.737920 0.873673 0.886626
O O2 0.734838 0.724140 0.871599
O O3 0.000000 0.790946 0.924833
O O4 0.729554 0.783398 0.000000
O O5 0.848664 0.500000 0.057117
O O6 0.795902 0.923752 0.651318
O O7 0.000000 0.000000 0.573306
O O8 0.500000 0.585549 0.685289
O O9 0.226644 0.500000 0.695294
O O10 0.240679 0.650213 0.743061
O O11 0.500000 0.148552 0.331678
#
# Coordination Sequence:
#
# PCOD9522379 Si02
#       5
#    16   2   8  16  16
#     4   9  20  36  58  87 123 167 213 269 331 393
#     4  12  26  44  60  98 140 176 218 260 344 382
#     4  12  25  41  65  96 132 176 223 267 318 391
#     4  10  20  36  60  90 122 160 214 272 329 392
#     4  11  21  37  62  88 124 169 218 265 323 385
#
# _framework density 22.057095
#
# number of rings (size 3 to 8) (size 9 to 14) (size 15 to 20)
#    0.000    1.655    2.759    1.862    1.931    0.552 
#    0.000    4.138    0.000    4.138    0.000    1.931 
#    0.000    0.000    0.000    0.000    0.000    0.000 
#
# Total GULP energy -161637.824825 kJ/mol
# GULP energy per Si atom -5573.718097 kJ/mol
# Density = 2.200689 g / cm^3
# Si number density = 22.057095 Si / 1000 Ang^3
#
#
#
# Elastic Constant Matrix: (Units=GPa)
#
#
# Indices 1 2 3 4 5 6 
#
# 1 85.4818 2.8529 12.2621 0.0000 0.0000 0.0000
# 2 2.8529 112.2203 82.0173 0.0000 0.0000 0.0000
# 3 12.2621 82.0173 181.2023 0.0000 0.0000 0.0000
# 4 0.0000 0.0000 0.0000 27.0264 0.0000 0.0000
# 5 0.0000 0.0000 0.0000 0.0000 28.0331 0.0000
# 6 0.0000 0.0000 0.0000 0.0000 0.0000 6.4409
#
#
#
# Elastic Compliance Matrix: (Units=1/GPa)
#
#
# Indices 1 2 3 4 5 6 
#
# 1 0.011827 0.000425 -0.000993 0.000000 0.000000 0.000000
# 2 0.000425 0.013331 -0.006063 0.000000 0.000000 0.000000
# 3 -0.000993 -0.006063 0.008330 0.000000 0.000000 0.000000
# 4 0.000000 0.000000 0.000000 0.037001 0.000000 0.000000
# 5 0.000000 0.000000 0.000000 0.000000 0.035672 0.000000
# 6 0.000000 0.000000 0.000000 0.000000 0.000000 0.155257
#
#
# Mechanical properties :
#
#
# Convention : Reuss Voigt Hill
#
# Bulk Modulus (GPa) = 49.43970 63.68544 56.56257
# Shear Modulus (GPa) = 17.76695 31.08489 24.42592
#
# Velocity S-wave (km/s) = 2.84121 3.75813 3.33136
# Velocity P-wave (km/s) = 5.76423 6.91137 6.36370
#
# Compressibility (1/GPa) = 0.02022666
#
# Stress axis : x y z
#
# Youngs Moduli (GPa) = 84.55517 75.01103 120.04654
#
# Poissons Ratio (x) = -0.03186 0.11916
# Poissons Ratio (y) = -0.03592 0.72783
# Poissons Ratio (z) = 0.08393 0.45478
#
# Static dielectric constant tensor:
#      x y z
#    x 1.806230 0.000000 0.000000 
#    y 0.000000 1.807690 0.000000 
#    z 0.000000 0.000000 1.819420 
# 
# From -- ./inp_files/7274.got.cif
#   From: 2010.05.17/outbox.cif.g08.bks.cpg/sg71_4_cif.got.tgz:7274.got - 2010.06.03 16:22:01.
