data_PCOD9522951
_publ_section_title
;
Structure prediction by ZEFSAII (Michael W. Deem and Ramdas Pophale) SiO2 
 PCOD9522951
Probable space group: I M M M
;
_chemical_formula_sum "Si O2"
_cell_formula_units_Z 104
_cell_length_a 21.967946
_cell_length_b 26.949284
_cell_length_c 7.762463
_cell_angle_alpha 90.000000
_cell_angle_beta 90.000000
_cell_angle_gamma 90.000000
_cell_volume 4595.536572
_symmetry_space_group_name_H-M "I M M M"
_symmetry_group_IT_number 71
_symmetry_cell_setting 'orthorhombic'
loop_
_space_group_symop_operation_xyz
x,y,z
-x,-y,z
x,-y,-z
-x,y,-z
-x,-y,-z
x,y,-z
-x,y,z
x,-y,z
1/2+x,1/2+y,1/2+z
1/2-x,1/2-y,1/2+z
1/2+x,1/2-y,1/2-z
1/2-x,1/2+y,1/2-z
1/2-x,1/2-y,1/2-z
1/2+x,1/2+y,1/2-z
1/2-x,1/2+y,1/2+z
1/2+x,1/2-y,1/2+z
loop_
_atom_site_type_symbol
_atom_site_label
_atom_site_fract_x
_atom_site_fract_y
_atom_site_fract_z
Si Si1 0.837699 0.284439 0.799909
Si Si2 0.433732 0.708104 0.287702
Si Si3 0.569415 0.870154 0.207962
Si Si4 0.761769 0.142870 0.701613
Si Si5 0.169989 0.443861 0.292047
Si Si6 0.568094 0.500000 0.201580
Si Si7 0.891191 0.106602 0.194655
O O1 0.874254 0.237820 0.724600
O O2 0.888790 0.327567 0.788627
O O3 0.776271 0.309698 0.727523
O O4 0.824733 0.274000 0.000000
O O5 0.431241 0.708979 0.500000
O O6 0.500000 0.729551 0.239455
O O7 0.429553 0.651460 0.224800
O O8 0.500000 0.868295 0.265663
O O9 0.603104 0.922011 0.245262
O O10 0.571028 0.863287 0.000000
O O11 0.775307 0.151090 0.500000
O O12 0.717081 0.095593 0.716358
O O13 0.822831 0.127408 0.796555
O O14 0.177713 0.442987 0.500000
O O15 0.178593 0.500000 0.232296
O O16 0.500000 0.500000 0.282245
O O17 0.602914 0.550984 0.239749
O O18 0.560129 0.500000 0.000000
O O19 0.912803 0.103227 0.000000
#
# Coordination Sequence:
#
# PCOD9522951 Si02
#       7
#    16  16  16  16  16   8  16
#     4   9  18  34  56  80 109 149 191 230 277 334
#     4   9  18  34  58  87 115 145 188 238 283 334
#     4   9  17  29  46  72 105 139 179 229 285 340
#     4  10  21  36  54  80 114 149 188 235 287 337
#     4   9  18  32  50  71  99 138 185 235 283 339
#     4  11  25  45  67  91 121 153 186 233 292 347
#     4  11  23  39  62  89 116 151 193 236 284 342
#
# _framework density 22.630654
#
# number of rings (size 3 to 8) (size 9 to 14) (size 15 to 20)
#    0.000    2.385    0.000    2.077    1.077    4.000 
#    0.000    3.077    0.000    3.692    0.000    4.308 
#    0.000    0.000    0.000    0.000    0.000    0.000 
#
# Total GULP energy -290240.130758 kJ/mol
# GULP energy per Si atom -5581.540976 kJ/mol
# Density = 2.257915 g / cm^3
# Si number density = 22.630654 Si / 1000 Ang^3
#
#
#
# Elastic Constant Matrix: (Units=GPa)
#
#
# Indices 1 2 3 4 5 6 
#
# 1 105.7238 37.1752 -3.3557 0.0000 0.0000 0.0000
# 2 37.1752 146.6150 10.5078 0.0000 0.0000 0.0000
# 3 -3.3557 10.5078 36.2647 0.0000 0.0000 0.0000
# 4 0.0000 0.0000 0.0000 -433.9457 0.0000 0.0000
# 5 0.0000 0.0000 0.0000 0.0000 2.1224 0.0000
# 6 0.0000 0.0000 0.0000 0.0000 0.0000 42.6546
#
#
#
# Elastic Compliance Matrix: (Units=1/GPa)
#
#
# Indices 1 2 3 4 5 6 
#
# 1 0.010496 -0.002789 0.001779 0.000000 0.000000 0.000000
# 2 -0.002789 0.007706 -0.002491 0.000000 0.000000 0.000000
# 3 0.001779 -0.002491 0.028461 0.000000 0.000000 0.000000
# 4 0.000000 0.000000 0.000000 -0.002304 0.000000 0.000000
# 5 0.000000 0.000000 0.000000 0.000000 0.471155 0.000000
# 6 0.000000 0.000000 0.000000 0.000000 0.000000 0.023444
#
#
# Mechanical properties :
#
#
# Convention : Reuss Voigt Hill
#
# Bulk Modulus (GPa) = 25.21281 41.91758 33.56519
# Shear Modulus (GPa) = 8.94167 -61.54866 -26.30349
#
# Velocity S-wave (km/s) = 1.98990 -5.22073 -3.41294
# Velocity P-wave (km/s) = 4.05522 4.21648 0.81668
#
# Compressibility (1/GPa) = 0.03966238
#
# Stress axis : x y z
#
# Youngs Moduli (GPa) = 95.27720 129.76525 35.13531
#
# Poissons Ratio (x) = 0.36189 -0.06252
# Poissons Ratio (y) = 0.26571 0.08752
# Poissons Ratio (z) = -0.16952 0.32324
#
# Static dielectric constant tensor:
#      x y z
#    x 1.845310 0.000000 0.000000 
#    y 0.000000 1.896300 0.000000 
#    z 0.000000 0.000000 1.836130 
# 
# From -- ./inp_files/11068.got.cif
#   From: 2010.05.17/outbox.cif.g08.bks.cpg/sg71_6_cif.got.tgz:11068.got - 2010.06.03 16:22:01.
