data_PCOD9522761
_publ_section_title
;
Structure prediction by ZEFSAII (Michael W. Deem and Ramdas Pophale) SiO2 
 PCOD9522761
Probable space group: I M M M
;
_chemical_formula_sum "Si O2"
_cell_formula_units_Z 80
_cell_length_a 18.353029
_cell_length_b 23.232482
_cell_length_c 11.607864
_cell_angle_alpha 90.000000
_cell_angle_beta 90.000000
_cell_angle_gamma 90.000000
_cell_volume 4949.435527
_symmetry_space_group_name_H-M "I M M M"
_symmetry_group_IT_number 71
_symmetry_cell_setting 'orthorhombic'
loop_
_space_group_symop_operation_xyz
x,y,z
-x,-y,z
x,-y,-z
-x,y,-z
-x,-y,-z
x,y,-z
-x,y,z
x,-y,z
1/2+x,1/2+y,1/2+z
1/2-x,1/2-y,1/2+z
1/2+x,1/2-y,1/2-z
1/2-x,1/2+y,1/2-z
1/2-x,1/2-y,1/2-z
1/2+x,1/2+y,1/2-z
1/2-x,1/2+y,1/2+z
1/2+x,1/2-y,1/2+z
loop_
_atom_site_type_symbol
_atom_site_label
_atom_site_fract_x
_atom_site_fract_y
_atom_site_fract_z
Si Si1 0.081748 0.869877 0.360332
Si Si2 0.914502 0.431171 0.500000
Si Si3 0.772189 0.932299 0.361588
Si Si4 0.636719 0.122835 0.236937
Si Si5 0.500000 0.066808 0.362334
Si Si6 0.412977 0.237129 0.864268
O O1 0.078742 0.871117 0.500000
O O2 0.147097 0.911579 0.326316
O O3 0.098802 0.803501 0.330131
O O4 0.000000 0.884503 0.319123
O O5 0.912907 0.500000 0.500000
O O6 0.876234 0.407029 0.613424
O O7 0.000000 0.412841 0.500000
O O8 0.764868 0.923710 0.500000
O O9 0.711598 0.895984 0.295155
O O10 0.761867 0.000000 0.338939
O O11 0.571034 0.098872 0.315321
O O12 0.627999 0.190566 0.212679
O O13 0.500000 0.066434 0.500000
O O14 0.500000 0.000000 0.321505
O O15 0.500000 0.226125 0.855731
O O16 0.393790 0.230607 0.000000
#
# Coordination Sequence:
#
# PCOD9522761 Si02
#       6
#    16   8  16  16   8  16
#     4   8  16  32  55  77  98 126 164 210 259 307
#     4  11  20  30  46  70  97 131 178 220 243 274
#     4  10  21  35  49  72 106 137 166 205 253 305
#     4  12  20  31  49  71 102 137 169 205 252 291
#     4  11  22  33  45  65  99 144 182 201 230 290
#     4   9  16  30  50  76 102 126 164 210 253 292
#
# _framework density 16.163460000000001
#
# number of rings (size 3 to 8) (size 9 to 14) (size 15 to 20)
#    0.000    2.000    3.000    3.600    0.000    2.800 
#    0.000    2.000    0.000    0.000    0.000    0.700 
#    0.000    2.400    0.000    0.000    0.000    0.000 
#
# Total GULP energy -223108.699287 kJ/mol
# GULP energy per Si atom -5577.717482 kJ/mol
# Density = 1.612667 g / cm^3
# Si number density = 16.163460 Si / 1000 Ang^3
#
#
#
# Elastic Constant Matrix: (Units=GPa)
#
#
# Indices 1 2 3 4 5 6 
#
# 1 86.6118 19.4466 21.4178 0.0000 0.0000 0.0000
# 2 19.4466 23.1461 10.3628 0.0000 0.0000 0.0000
# 3 21.4178 10.3628 42.0562 0.0000 0.0000 0.0000
# 4 0.0000 0.0000 0.0000 13.7262 0.0000 0.0000
# 5 0.0000 0.0000 0.0000 0.0000 15.7495 0.0000
# 6 0.0000 0.0000 0.0000 0.0000 0.0000 28.3999
#
#
#
# Elastic Compliance Matrix: (Units=1/GPa)
#
#
# Indices 1 2 3 4 5 6 
#
# 1 0.015162 -0.010432 -0.005151 0.000000 0.000000 0.000000
# 2 -0.010432 0.055739 -0.008421 0.000000 0.000000 0.000000
# 3 -0.005151 -0.008421 0.028476 0.000000 0.000000 0.000000
# 4 0.000000 0.000000 0.000000 0.072854 0.000000 0.000000
# 5 0.000000 0.000000 0.000000 0.000000 0.063494 0.000000
# 6 0.000000 0.000000 0.000000 0.000000 0.000000 0.035211
#
#
# Mechanical properties :
#
#
# Convention : Reuss Voigt Hill
#
# Bulk Modulus (GPa) = 19.46756 28.25207 23.85982
# Shear Modulus (GPa) = 14.87796 18.28091 16.57943
#
# Velocity S-wave (km/s) = 3.03721 3.36669 3.20618
# Velocity P-wave (km/s) = 4.93659 5.71224 5.33852
#
# Compressibility (1/GPa) = 0.05136750
#
# Stress axis : x y z
#
# Youngs Moduli (GPa) = 65.95508 17.94074 35.11744
#
# Poissons Ratio (x) = 0.18717 0.18088
# Poissons Ratio (y) = 0.68807 0.29574
# Poissons Ratio (z) = 0.33972 0.15109
#
# Static dielectric constant tensor:
#      x y z
#    x 1.537780 0.000000 0.000000 
#    y 0.000000 1.554550 0.000000 
#    z 0.000000 0.000000 1.520690 
# 
# From -- ./inp_files/23839.got.cif
#   From: 2010.05.17/outbox.cif.g08.bks.cpg/sg71_12_cif.got.tgz:23839.got - 2010.06.03 16:22:01.
