data_PCOD9522576
_publ_section_title
;
Structure prediction by ZEFSAII (Michael W. Deem and Ramdas Pophale) SiO2 
 PCOD9522576
Probable space group: I M M M
;
_chemical_formula_sum "Si O2"
_cell_formula_units_Z 50
_cell_length_a 18.039824
_cell_length_b 7.855685
_cell_length_c 17.543131
_cell_angle_alpha 90.000000
_cell_angle_beta 90.000000
_cell_angle_gamma 90.000000
_cell_volume 2486.127876
_symmetry_space_group_name_H-M "I M M M"
_symmetry_group_IT_number 71
_symmetry_cell_setting 'orthorhombic'
loop_
_space_group_symop_operation_xyz
x,y,z
-x,-y,z
x,-y,-z
-x,y,-z
-x,-y,-z
x,y,-z
-x,y,z
x,-y,z
1/2+x,1/2+y,1/2+z
1/2-x,1/2-y,1/2+z
1/2+x,1/2-y,1/2-z
1/2-x,1/2+y,1/2-z
1/2-x,1/2-y,1/2-z
1/2+x,1/2+y,1/2-z
1/2-x,1/2+y,1/2+z
1/2+x,1/2-y,1/2+z
loop_
_atom_site_type_symbol
_atom_site_label
_atom_site_fract_x
_atom_site_fract_y
_atom_site_fract_z
Si Si1 0.306417 0.798519 0.147454
Si Si2 0.500000 0.708196 0.589272
Si Si3 0.385408 0.314446 0.000000
Si Si4 0.140125 0.794287 0.192319
Si Si5 0.500000 0.000000 0.000000
O O1 0.336362 0.701619 0.075231
O O2 0.222097 0.742297 0.164351
O O3 0.359491 0.767924 0.220407
O O4 0.304410 0.000000 0.132283
O O5 0.500000 0.500000 0.588216
O O6 0.500000 0.762070 0.500000
O O7 0.426831 0.761763 0.637233
O O8 0.421152 0.500000 0.000000
O O9 0.437238 0.150735 0.000000
O O10 0.137937 0.000000 0.193989
#
# Coordination Sequence:
#
# PCOD9522576 Si02
#       5
#    16   8   8  16   2
#     4  10  20  38  61  90 127 172 217 265 322 388
#     4   9  18  33  57  92 121 161 212 265 322 378
#     4  12  25  43  69  95 130 170 213 269 328 390
#     4   9  19  35  60  90 127 168 219 267 323 385
#     4  12  26  48  60  98 128 158 220 260 324 382
#
# _framework density 20.111597
#
# number of rings (size 3 to 8) (size 9 to 14) (size 15 to 20)
#    0.000    2.080    1.600    1.200    2.240    2.560 
#    0.000    3.200    0.000    0.960    0.000    0.000 
#    0.000    0.000    0.000    0.000    0.000    0.000 
#
# Total GULP energy -139224.117293 kJ/mol
# GULP energy per Si atom -5568.964692 kJ/mol
# Density = 2.006582 g / cm^3
# Si number density = 20.111597 Si / 1000 Ang^3
#
#
#
# Elastic Constant Matrix: (Units=GPa)
#
#
# Indices 1 2 3 4 5 6 
#
# 1 109.3544 26.1213 86.6853 0.0000 0.0000 0.0000
# 2 26.1213 83.6729 34.8316 0.0000 0.0000 0.0000
# 3 86.6853 34.8316 171.7371 0.0000 0.0000 0.0000
# 4 0.0000 0.0000 0.0000 29.4046 0.0000 0.0000
# 5 0.0000 0.0000 0.0000 0.0000 48.8486 0.0000
# 6 0.0000 0.0000 0.0000 0.0000 0.0000 174.8418
#
#
#
# Elastic Compliance Matrix: (Units=1/GPa)
#
#
# Indices 1 2 3 4 5 6 
#
# 1 0.015469 -0.001724 -0.007458 0.000000 0.000000 0.000000
# 2 -0.001724 0.013246 -0.001816 0.000000 0.000000 0.000000
# 3 -0.007458 -0.001816 0.009956 0.000000 0.000000 0.000000
# 4 0.000000 0.000000 0.000000 0.034008 0.000000 0.000000
# 5 0.000000 0.000000 0.000000 0.000000 0.020471 0.000000
# 6 0.000000 0.000000 0.000000 0.000000 0.000000 0.005719
#
#
# Mechanical properties :
#
#
# Convention : Reuss Voigt Hill
#
# Bulk Modulus (GPa) = 59.97798 73.33786 66.65792
# Shear Modulus (GPa) = 39.54955 65.09408 52.32182
#
# Velocity S-wave (km/s) = 4.43934 5.69532 5.10610
# Velocity P-wave (km/s) = 7.49429 8.93272 8.24493
#
# Compressibility (1/GPa) = 0.01667279
#
# Stress axis : x y z
#
# Youngs Moduli (GPa) = 64.64743 75.49661 100.44484
#
# Poissons Ratio (x) = 0.13018 0.74913
# Poissons Ratio (y) = 0.11147 0.18242
# Poissons Ratio (z) = 0.48215 0.13711
#
# Static dielectric constant tensor:
#      x y z
#    x 1.690300 0.000000 0.000000 
#    y 0.000000 1.707040 0.000000 
#    z 0.000000 0.000000 1.705680 
# 
# From -- ./inp_files/7166.got.cif
#   From: 2010.05.17/outbox.cif.g08.bks.cpg/sg71_4_cif.got.tgz:7166.got - 2010.06.03 16:22:01.
