data_PCOD9522989
_publ_section_title
;
Structure prediction by ZEFSAII (Michael W. Deem and Ramdas Pophale) SiO2 
 PCOD9522989
Probable space group: I M M M
;
_chemical_formula_sum "Si O2"
_cell_formula_units_Z 104
_cell_length_a 20.840980
_cell_length_b 8.218439
_cell_length_c 25.834835
_cell_angle_alpha 90.000000
_cell_angle_beta 90.000000
_cell_angle_gamma 90.000000
_cell_volume 4424.998879
_symmetry_space_group_name_H-M "I M M M"
_symmetry_group_IT_number 71
_symmetry_cell_setting 'orthorhombic'
loop_
_space_group_symop_operation_xyz
x,y,z
-x,-y,z
x,-y,-z
-x,y,-z
-x,-y,-z
x,y,-z
-x,y,z
x,-y,z
1/2+x,1/2+y,1/2+z
1/2-x,1/2-y,1/2+z
1/2+x,1/2-y,1/2-z
1/2-x,1/2+y,1/2-z
1/2-x,1/2-y,1/2-z
1/2+x,1/2+y,1/2-z
1/2-x,1/2+y,1/2+z
1/2+x,1/2-y,1/2+z
loop_
_atom_site_type_symbol
_atom_site_label
_atom_site_fract_x
_atom_site_fract_y
_atom_site_fract_z
Si Si1 0.576235 0.315290 0.332160
Si Si2 0.609639 0.310684 0.444421
Si Si3 0.635502 0.185018 0.061980
Si Si4 0.000000 0.301188 0.440796
Si Si5 0.925722 0.690495 0.281456
Si Si6 0.784940 0.806021 0.301882
Si Si7 0.766464 0.312928 0.091893
O O1 0.500000 0.330903 0.332758
O O2 0.603688 0.500000 0.328310
O O3 0.591986 0.239675 0.388250
O O4 0.589849 0.218470 0.279787
O O5 0.587189 0.242722 0.500000
O O6 0.589441 0.500000 0.442983
O O7 0.686331 0.294770 0.441970
O O8 0.567299 0.243663 0.084281
O O9 0.694241 0.300379 0.072188
O O10 0.649009 0.000000 0.080179
O O11 0.626708 0.174377 0.000000
O O12 0.000000 0.500000 0.442644
O O13 0.000000 0.239317 0.500000
O O14 0.929004 0.500000 0.292958
O O15 0.859729 0.755032 0.307110
O O16 0.000000 0.754962 0.290347
O O17 0.750000 0.750000 0.250000
O O18 0.740582 0.749209 0.349638
O O19 0.784359 0.000000 0.303856
O O20 0.788215 0.500000 0.090017
#
# Coordination Sequence:
#
# PCOD9522989 Si02
#       7
#    16  16  16   8  16  16  16
#     4   9  18  34  58  86 115 149 186 226 279 338
#     4  10  21  36  55  81 113 150 191 232 274 327
#     4   9  17  32  55  79 104 137 177 218 260 312
#     4   7  12  26  49  75  99 127 167 211 251 293
#     4  10  21  38  61  89 119 151 191 239 290 349
#     4  11  24  41  61  84 112 148 191 240 292 347
#     4  11  24  38  52  77 109 142 180 226 281 331
#
# _framework density 23.502829999999999
#
# number of rings (size 3 to 8) (size 9 to 14) (size 15 to 20)
#    0.000    2.231    0.000    3.692    0.000    9.231 
#    1.385    1.923    0.000    1.385    0.000    3.231 
#    0.000    0.000    0.000    0.000    0.000    0.000 
#
# Total GULP energy -290091.245903 kJ/mol
# GULP energy per Si atom -5578.677806 kJ/mol
# Density = 2.344934 g / cm^3
# Si number density = 23.502830 Si / 1000 Ang^3
#
#
#
# Elastic Constant Matrix: (Units=GPa)
#
#
# Indices 1 2 3 4 5 6 
#
# 1 54.0070 9.1616 0.9605 0.0000 0.0000 0.0000
# 2 9.1616 30.8301 3.7163 0.0000 0.0000 0.0000
# 3 0.9605 3.7163 72.6331 0.0000 0.0000 0.0000
# 4 0.0000 0.0000 0.0000 11.0866 0.0000 0.0000
# 5 0.0000 0.0000 0.0000 0.0000 22.3143 0.0000
# 6 0.0000 0.0000 0.0000 0.0000 0.0000 24.3471
#
#
#
# Elastic Compliance Matrix: (Units=1/GPa)
#
#
# Indices 1 2 3 4 5 6 
#
# 1 0.019499 -0.005799 0.000039 0.000000 0.000000 0.000000
# 2 -0.005799 0.034362 -0.001681 0.000000 0.000000 0.000000
# 3 0.000039 -0.001681 0.013853 0.000000 0.000000 0.000000
# 4 0.000000 0.000000 0.000000 0.090199 0.000000 0.000000
# 5 0.000000 0.000000 0.000000 0.000000 0.044814 0.000000
# 6 0.000000 0.000000 0.000000 0.000000 0.000000 0.041073
#
#
# Mechanical properties :
#
#
# Convention : Reuss Voigt Hill
#
# Bulk Modulus (GPa) = 18.92834 20.57190 19.75012
# Shear Modulus (GPa) = 18.09666 21.12506 19.61086
#
# Velocity S-wave (km/s) = 2.77786 3.00130 2.89174
# Velocity P-wave (km/s) = 4.28483 4.55877 4.42392
#
# Compressibility (1/GPa) = 0.05283082
#
# Stress axis : x y z
#
# Youngs Moduli (GPa) = 51.28416 29.10208 72.18475
#
# Poissons Ratio (x) = 0.16877 -0.00281
# Poissons Ratio (y) = 0.29741 0.12138
# Poissons Ratio (z) = -0.00199 0.04893
#
# Static dielectric constant tensor:
#      x y z
#    x 1.942430 0.000000 0.000000 
#    y 0.000000 1.860070 0.000000 
#    z 0.000000 0.000000 2.009930 
# 
# From -- ./inp_files/66427.got.cif
#   From: 2010.05.17/outbox.cif.g08.bks.cpg/sg71_34_cif.got.tgz:66427.got - 2010.06.03 16:22:01.
