data_PCOD9522354
_publ_section_title
;
Structure prediction by ZEFSAII (Michael W. Deem and Ramdas Pophale) SiO2 
 PCOD9522354
Probable space group: I M M M
;
_chemical_formula_sum "Si O2"
_cell_formula_units_Z 82
_cell_length_a 21.814013
_cell_length_b 8.160761
_cell_length_c 22.357864
_cell_angle_alpha 90.000000
_cell_angle_beta 90.000000
_cell_angle_gamma 90.000000
_cell_volume 3980.123396
_symmetry_space_group_name_H-M "I M M M"
_symmetry_group_IT_number 71
_symmetry_cell_setting 'orthorhombic'
loop_
_space_group_symop_operation_xyz
x,y,z
-x,-y,z
x,-y,-z
-x,y,-z
-x,-y,-z
x,y,-z
-x,y,z
x,-y,z
1/2+x,1/2+y,1/2+z
1/2-x,1/2-y,1/2+z
1/2+x,1/2-y,1/2-z
1/2-x,1/2+y,1/2-z
1/2-x,1/2-y,1/2-z
1/2+x,1/2+y,1/2-z
1/2-x,1/2+y,1/2+z
1/2+x,1/2-y,1/2+z
loop_
_atom_site_type_symbol
_atom_site_label
_atom_site_fract_x
_atom_site_fract_y
_atom_site_fract_z
Si Si1 0.376072 0.186714 0.308005
Si Si2 0.573570 0.695253 0.433778
Si Si3 0.606189 0.319122 0.184937
Si Si4 0.000000 0.500000 0.500000
Si Si5 0.230386 0.500000 0.429239
Si Si6 0.910748 0.500000 0.387302
Si Si7 0.747658 0.683830 0.143868
O O1 0.397805 0.224970 0.375036
O O2 0.402616 0.298956 0.255862
O O3 0.302256 0.200187 0.308588
O O4 0.392214 0.000000 0.292956
O O5 0.594303 0.753377 0.500000
O O6 0.500000 0.718411 0.431348
O O7 0.585350 0.500000 0.431084
O O8 0.585634 0.500000 0.165057
O O9 0.577744 0.165070 0.150535
O O10 0.679512 0.307645 0.171283
O O11 0.948050 0.500000 0.447579
O O12 0.235157 0.500000 0.500000
O O13 0.160272 0.500000 0.406876
O O14 0.257124 0.667090 0.401833
O O15 0.753921 0.500000 0.117313
#
# Coordination Sequence:
#
# PCOD9522354 Si02
#       7
#    16  16  16   2   8   8  16
#     4  11  21  35  57  90 123 158 205 257 306 368
#     4   9  20  39  58  77 110 158 211 256 301 355
#     4  10  20  39  63  89 129 162 198 252 310 373
#     4  12  24  48  82  88 136 166 210 280 316 368
#     4  10  20  36  60  84 123 165 206 244 304 373
#     4  10  22  44  64  98 117 160 206 256 315 370
#     4   9  21  35  54  88 125 159 200 247 305 370
#
# _framework density 20.602376
#
# number of rings (size 3 to 8) (size 9 to 14) (size 15 to 20)
#    0.000    2.146    1.463    1.756    2.732    1.951 
#    1.756    4.390    0.000    0.000    0.000    0.000 
#    0.000    0.000    0.000    0.000    0.000    0.000 
#
# Total GULP energy -228588.767921 kJ/mol
# GULP energy per Si atom -5575.335803 kJ/mol
# Density = 2.055548 g / cm^3
# Si number density = 20.602376 Si / 1000 Ang^3
#
#
#
# Elastic Constant Matrix: (Units=GPa)
#
#
# Indices 1 2 3 4 5 6 
#
# 1 27.8744 22.0397 10.7779 0.0000 0.0000 0.0000
# 2 22.0397 149.0140 74.0857 0.0000 0.0000 0.0000
# 3 10.7779 74.0857 128.1536 0.0000 0.0000 0.0000
# 4 0.0000 0.0000 0.0000 4.9649 0.0000 0.0000
# 5 0.0000 0.0000 0.0000 0.0000 24.2302 0.0000
# 6 0.0000 0.0000 0.0000 0.0000 0.0000 -9.0571
#
#
#
# Elastic Compliance Matrix: (Units=1/GPa)
#
#
# Indices 1 2 3 4 5 6 
#
# 1 0.040627 -0.006049 0.000080 0.000000 0.000000 0.000000
# 2 -0.006049 0.010318 -0.005456 0.000000 0.000000 0.000000
# 3 0.000080 -0.005456 0.010951 0.000000 0.000000 0.000000
# 4 0.000000 0.000000 0.000000 0.201414 0.000000 0.000000
# 5 0.000000 0.000000 0.000000 0.000000 0.041271 0.000000
# 6 0.000000 0.000000 0.000000 0.000000 0.000000 -0.110410
#
#
# Mechanical properties :
#
#
# Convention : Reuss Voigt Hill
#
# Bulk Modulus (GPa) = 25.61094 57.64983 41.63038
# Shear Modulus (GPa) = 21.73583 17.23683 19.48633
#
# Velocity S-wave (km/s) = 3.25162 2.89562 3.07877
# Velocity P-wave (km/s) = 5.15320 6.26277 5.73488
#
# Compressibility (1/GPa) = 0.03904582
#
# Stress axis : x y z
#
# Youngs Moduli (GPa) = 24.61428 96.91760 91.31886
#
# Poissons Ratio (x) = 0.58621 -0.00730
# Poissons Ratio (y) = 0.14888 0.49825
# Poissons Ratio (z) = -0.00197 0.52880
#
# Static dielectric constant tensor:
#      x y z
#    x 1.742690 0.000000 0.000000 
#    y 0.000000 1.747780 0.000000 
#    z 0.000000 0.000000 1.687830 
# 
# From -- ./inp_files/55489.got.cif
#   From: 2010.05.17/outbox.cif.g08.bks.cpg/sg71_28_cif.got.tgz:55489.got - 2010.06.03 16:22:01.
