data_PCOD9522672
_publ_section_title
;
Structure prediction by ZEFSAII (Michael W. Deem and Ramdas Pophale) SiO2 
 PCOD9522672
Probable space group: I M M M
;
_chemical_formula_sum "Si O2"
_cell_formula_units_Z 120
_cell_length_a 32.910074
_cell_length_b 14.731713
_cell_length_c 13.957750
_cell_angle_alpha 90.000000
_cell_angle_beta 90.000000
_cell_angle_gamma 90.000000
_cell_volume 6767.020990
_symmetry_space_group_name_H-M "I M M M"
_symmetry_group_IT_number 71
_symmetry_cell_setting 'orthorhombic'
loop_
_space_group_symop_operation_xyz
x,y,z
-x,-y,z
x,-y,-z
-x,y,-z
-x,-y,-z
x,y,-z
-x,y,z
x,-y,z
1/2+x,1/2+y,1/2+z
1/2-x,1/2-y,1/2+z
1/2+x,1/2-y,1/2-z
1/2-x,1/2+y,1/2-z
1/2-x,1/2-y,1/2-z
1/2+x,1/2+y,1/2-z
1/2-x,1/2+y,1/2+z
1/2+x,1/2-y,1/2+z
loop_
_atom_site_type_symbol
_atom_site_label
_atom_site_fract_x
_atom_site_fract_y
_atom_site_fract_z
Si Si1 0.547716 0.608345 0.000000
Si Si2 0.747379 0.103980 0.384077
Si Si3 0.813611 0.104016 0.885091
Si Si4 0.325532 0.274251 0.113603
Si Si5 0.548968 0.608453 0.784095
Si Si6 0.154625 0.391456 0.115705
Si Si7 0.723560 0.898774 0.884372
Si Si8 0.618417 0.277332 0.711492
O O1 0.561002 0.635828 0.893693
O O2 0.552906 0.500000 0.000000
O O3 0.500000 0.628466 0.000000
O O4 0.745525 0.105006 0.500000
O O5 0.786426 0.164119 0.360734
O O6 0.701613 0.131994 0.354950
O O7 0.754161 0.000000 0.354132
O O8 0.768330 0.132358 0.852155
O O9 0.849878 0.166001 0.852003
O O10 0.819436 0.000000 0.853312
O O11 0.812851 0.104781 0.000000
O O12 0.310957 0.172427 0.134697
O O13 0.362892 0.289631 0.182569
O O14 0.333774 0.285894 0.000000
O O15 0.500000 0.617836 0.774236
O O16 0.558080 0.500000 0.771153
O O17 0.574796 0.673546 0.714609
O O18 0.149276 0.500000 0.132093
O O19 0.123887 0.325297 0.172192
O O20 0.151180 0.376991 0.000000
O O21 0.715550 0.000000 0.849064
O O22 0.726109 0.903062 0.000000
#
# Coordination Sequence:
#
# PCOD9522672 Si02
#       8
#     8  16  16  16  16  16  16  16
#     4   7  12  28  54  76  95 129 169 193 220 278
#     4   8  15  30  48  64  94 141 179 208 249 296
#     4   9  18  32  49  71  99 131 170 211 249 296
#     4  10  21  32  42  67 106 137 166 209 256 300
#     4   9  19  36  56  78 105 135 165 198 242 305
#     4   9  19  36  55  74  98 134 182 224 252 289
#     4   8  15  30  48  62  88 135 177 206 242 290
#     4  12  22  30  51  79 102 128 168 214 264 303
#
# _framework density 17.733060999999999
#
# number of rings (size 3 to 8) (size 9 to 14) (size 15 to 20)
#    0.000    2.867    0.000    4.000    0.933    5.867 
#    0.000    2.667    0.000    2.000    0.000    5.600 
#    0.000    1.600    0.000    0.000    0.000    0.000 
#
# Total GULP energy -334354.702806 kJ/mol
# GULP energy per Si atom -5572.578380 kJ/mol
# Density = 1.769270 g / cm^3
# Si number density = 17.733061 Si / 1000 Ang^3
#
#
#
# Elastic Constant Matrix: (Units=GPa)
#
#
# Indices 1 2 3 4 5 6 
#
# 1 73.0807 47.0248 15.9541 0.0000 0.0000 0.0000
# 2 47.0248 62.0892 20.7598 0.0000 0.0000 0.0000
# 3 15.9541 20.7598 52.8100 0.0000 0.0000 0.0000
# 4 0.0000 0.0000 0.0000 15.0677 0.0000 0.0000
# 5 0.0000 0.0000 0.0000 0.0000 24.6331 0.0000
# 6 0.0000 0.0000 0.0000 0.0000 0.0000 1237.9150
#
#
#
# Elastic Compliance Matrix: (Units=1/GPa)
#
#
# Indices 1 2 3 4 5 6 
#
# 1 0.026692 -0.020171 -0.000134 0.000000 0.000000 0.000000
# 2 -0.020171 0.033786 -0.007188 0.000000 0.000000 0.000000
# 3 -0.000134 -0.007188 0.021802 0.000000 0.000000 0.000000
# 4 0.000000 0.000000 0.000000 0.066367 0.000000 0.000000
# 5 0.000000 0.000000 0.000000 0.000000 0.040596 0.000000
# 6 0.000000 0.000000 0.000000 0.000000 0.000000 0.000808
#
#
# Mechanical properties :
#
#
# Convention : Reuss Voigt Hill
#
# Bulk Modulus (GPa) = 36.63835 39.49524 38.06680
# Shear Modulus (GPa) = 19.67453 262.47256 141.07354
#
# Velocity S-wave (km/s) = 3.33450 12.17926 8.92898
# Velocity P-wave (km/s) = 5.96080 14.83576 11.30555
#
# Compressibility (1/GPa) = 0.02729380
#
# Stress axis : x y z
#
# Youngs Moduli (GPa) = 37.46409 29.59789 45.86741
#
# Poissons Ratio (x) = 0.59702 0.00617
# Poissons Ratio (y) = 0.75569 0.32968
# Poissons Ratio (z) = 0.00504 0.21274
#
# Static dielectric constant tensor:
#      x y z
#    x 1.577770 0.000000 0.000000 
#    y 0.000000 1.627990 0.000000 
#    z 0.000000 0.000000 1.557270 
# 
# From -- ./inp_files/41151.got.cif
#   From: 2010.05.17/outbox.cif.g08.bks.cpg/sg71_21_cif.got.tgz:41151.got - 2010.06.03 16:22:01.
