data_PCOD9522240
_publ_section_title
;
Structure prediction by ZEFSAII (Michael W. Deem and Ramdas Pophale) SiO2 
 PCOD9522240
Probable space group: I M M M
;
_chemical_formula_sum "Si O2"
_cell_formula_units_Z 88
_cell_length_a 8.485663
_cell_length_b 19.775348
_cell_length_c 27.864110
_cell_angle_alpha 90.000000
_cell_angle_beta 90.000000
_cell_angle_gamma 90.000000
_cell_volume 4675.791002
_symmetry_space_group_name_H-M "I M M M"
_symmetry_group_IT_number 71
_symmetry_cell_setting 'orthorhombic'
loop_
_space_group_symop_operation_xyz
x,y,z
-x,-y,z
x,-y,-z
-x,y,-z
-x,-y,-z
x,y,-z
-x,y,z
x,-y,z
1/2+x,1/2+y,1/2+z
1/2-x,1/2-y,1/2+z
1/2+x,1/2-y,1/2-z
1/2-x,1/2+y,1/2-z
1/2-x,1/2-y,1/2-z
1/2+x,1/2+y,1/2-z
1/2-x,1/2+y,1/2+z
1/2+x,1/2-y,1/2+z
loop_
_atom_site_type_symbol
_atom_site_label
_atom_site_fract_x
_atom_site_fract_y
_atom_site_fract_z
Si Si1 0.809507 0.680893 0.773210
Si Si2 0.307618 0.922412 0.807751
Si Si3 0.811250 0.078317 0.000000
Si Si4 0.312538 0.198652 0.382258
Si Si5 0.310963 0.575364 0.943224
Si Si6 0.188563 0.653502 0.594857
O O1 0.750000 0.750000 0.750000
O O2 0.756457 0.619487 0.739098
O O3 0.756620 0.680804 0.828355
O O4 0.000000 0.680422 0.772951
O O5 0.500000 0.922421 0.807907
O O6 0.257204 0.884576 0.856485
O O7 0.255199 0.000000 0.807193
O O8 0.754332 0.117129 0.047605
O O9 0.000000 0.077746 0.000000
O O10 0.755261 0.000000 0.000000
O O11 0.500000 0.208585 0.380898
O O12 0.270549 0.135873 0.415709
O O13 0.237485 0.268329 0.400704
O O14 0.500000 0.580381 0.937051
O O15 0.261845 0.500000 0.927004
O O16 0.279229 0.580122 0.000000
O O17 0.000000 0.649426 0.593057
#
# Coordination Sequence:
#
# PCOD9522240 Si02
#       6
#    16  16   8  16  16  16
#     4  10  20  36  57  82 115 153 191 235 288 344
#     4   9  18  34  58  86 113 147 194 242 285 336
#     4  11  25  43  61  85 122 157 188 243 307 355
#     4  11  23  36  57  89 123 157 193 242 297 350
#     4   9  20  40  63  85 113 152 197 243 291 346
#     4  11  22  38  62  87 115 157 203 244 284 343
#
# _framework density 18.820345
#
# number of rings (size 3 to 8) (size 9 to 14) (size 15 to 20)
#    0.000    1.909    1.818    2.455    1.273    3.636 
#    0.000    2.727    0.000    1.636    0.000    0.000 
#    0.000    0.000    0.000    0.000    0.000    0.000 
#
# Total GULP energy -245716.436157 kJ/mol
# GULP energy per Si atom -5584.464458 kJ/mol
# Density = 1.877751 g / cm^3
# Si number density = 18.820345 Si / 1000 Ang^3
#
#
#
# Elastic Constant Matrix: (Units=GPa)
#
#
# Indices 1 2 3 4 5 6 
#
# 1 22.9347 26.6651 31.7013 0.0000 0.0000 0.0000
# 2 26.6651 170.5886 83.5977 0.0000 0.0000 0.0000
# 3 31.7013 83.5977 121.5757 0.0000 0.0000 0.0000
# 4 0.0000 0.0000 0.0000 37.8534 0.0000 0.0000
# 5 0.0000 0.0000 0.0000 0.0000 12.3177 0.0000
# 6 0.0000 0.0000 0.0000 0.0000 0.0000 23.9698
#
#
#
# Elastic Compliance Matrix: (Units=1/GPa)
#
#
# Indices 1 2 3 4 5 6 
#
# 1 0.069160 -0.002976 -0.015988 0.000000 0.000000 0.000000
# 2 -0.002976 0.008969 -0.005392 0.000000 0.000000 0.000000
# 3 -0.015988 -0.005392 0.016101 0.000000 0.000000 0.000000
# 4 0.000000 0.000000 0.000000 0.026418 0.000000 0.000000
# 5 0.000000 0.000000 0.000000 0.000000 0.081184 0.000000
# 6 0.000000 0.000000 0.000000 0.000000 0.000000 0.041719
#
#
# Mechanical properties :
#
#
# Convention : Reuss Voigt Hill
#
# Bulk Modulus (GPa) = 21.96769 66.55857 44.26313
# Shear Modulus (GPa) = 16.26354 26.37050 21.31702
#
# Velocity S-wave (km/s) = 2.94283 3.74728 3.36915
# Velocity P-wave (km/s) = 4.82127 7.35968 6.22131
#
# Compressibility (1/GPa) = 0.04552139
#
# Stress axis : x y z
#
# Youngs Moduli (GPa) = 14.45912 111.49065 62.10616
#
# Poissons Ratio (x) = 0.33178 0.99293
# Poissons Ratio (y) = 0.04303 0.33485
# Poissons Ratio (z) = 0.23117 0.60111
#
# Static dielectric constant tensor:
#      x y z
#    x 1.642200 0.000000 0.000000 
#    y 0.000000 1.521880 0.000000 
#    z 0.000000 0.000000 1.656430 
# 
# From -- ./inp_files/50527.got.cif
#   From: 2010.05.17/outbox.cif.g08.bks.cpg/sg71_26_cif.got.tgz:50527.got - 2010.06.03 16:22:01.
