data_PCOD9522817
_publ_section_title
;
Structure prediction by ZEFSAII (Michael W. Deem and Ramdas Pophale) SiO2 
 PCOD9522817
Probable space group: I M M M
;
_chemical_formula_sum "Si O2"
_cell_formula_units_Z 104
_cell_length_a 31.960556
_cell_length_b 8.822142
_cell_length_c 19.811341
_cell_angle_alpha 90.000000
_cell_angle_beta 90.000000
_cell_angle_gamma 90.000000
_cell_volume 5586.016871
_symmetry_space_group_name_H-M "I M M M"
_symmetry_group_IT_number 71
_symmetry_cell_setting 'orthorhombic'
loop_
_space_group_symop_operation_xyz
x,y,z
-x,-y,z
x,-y,-z
-x,y,-z
-x,-y,-z
x,y,-z
-x,y,z
x,-y,z
1/2+x,1/2+y,1/2+z
1/2-x,1/2-y,1/2+z
1/2+x,1/2-y,1/2-z
1/2-x,1/2+y,1/2-z
1/2-x,1/2-y,1/2-z
1/2+x,1/2+y,1/2-z
1/2-x,1/2+y,1/2+z
1/2+x,1/2-y,1/2+z
loop_
_atom_site_type_symbol
_atom_site_label
_atom_site_fract_x
_atom_site_fract_y
_atom_site_fract_z
Si Si1 0.673160 0.317074 0.075425
Si Si2 0.546180 0.816988 0.782077
Si Si3 0.419607 0.182325 0.925101
Si Si4 0.290956 0.682792 0.215896
Si Si5 0.588468 0.180861 0.421331
Si Si6 0.125177 0.181224 0.796045
Si Si7 0.500000 0.673056 0.417966
O O1 0.670428 0.500000 0.077492
O O2 0.626443 0.252488 0.084594
O O3 0.701683 0.268676 0.138180
O O4 0.687554 0.272813 0.000000
O O5 0.500000 0.768402 0.758840
O O6 0.552047 0.778068 0.861279
O O7 0.584847 0.744738 0.743155
O O8 0.548581 0.000000 0.775320
O O9 0.415596 0.000000 0.924837
O O10 0.434828 0.227595 0.000000
O O11 0.288229 0.500000 0.217022
O O12 0.250000 0.750000 0.250000
O O13 0.332603 0.726909 0.257418
O O14 0.594868 0.220968 0.500000
O O15 0.621880 0.253923 0.371412
O O16 0.542620 0.241480 0.399922
O O17 0.588858 0.000000 0.415355
O O18 0.123165 0.000000 0.797349
O O19 0.500000 0.500000 0.393280
O O20 0.500000 0.668786 0.500000
#
# Coordination Sequence:
#
# PCOD9522817 Si02
#       7
#    16  16  16  16  16  16   8
#     4   9  17  33  57  82 110 143 181 226 273 326
#     4  10  21  35  52  78 114 155 194 233 279 330
#     4   9  17  30  51  79 110 147 190 233 276 322
#     4  10  22  39  60  87 113 144 184 229 286 345
#     4  10  21  37  57  81 110 147 190 234 282 338
#     4  11  23  39  58  82 113 148 187 233 287 342
#     4   9  17  31  53  81 111 145 186 231 278 329
#
# _framework density 18.617918
#
# number of rings (size 3 to 8) (size 9 to 14) (size 15 to 20)
#    0.000    2.231    1.538    1.154    1.077    4.308 
#    0.000    2.308    0.000    2.769    0.000    3.231 
#    0.000    0.000    0.000    0.000    0.000    0.000 
#
# Total GULP energy -290220.799917 kJ/mol
# GULP energy per Si atom -5581.169229 kJ/mol
# Density = 1.857554 g / cm^3
# Si number density = 18.617918 Si / 1000 Ang^3
#
#
#
# Elastic Constant Matrix: (Units=GPa)
#
#
# Indices 1 2 3 4 5 6 
#
# 1 118.2621 32.2746 77.0949 0.0000 0.0000 0.0000
# 2 32.2746 24.8814 35.6673 0.0000 0.0000 0.0000
# 3 77.0949 35.6673 132.1476 0.0000 0.0000 0.0000
# 4 0.0000 0.0000 0.0000 25.6252 0.0000 0.0000
# 5 0.0000 0.0000 0.0000 0.0000 27.2818 0.0000
# 6 0.0000 0.0000 0.0000 0.0000 0.0000 27.2925
#
#
#
# Elastic Compliance Matrix: (Units=1/GPa)
#
#
# Indices 1 2 3 4 5 6 
#
# 1 0.015464 -0.011624 -0.005884 0.000000 0.000000 0.000000
# 2 -0.011624 0.074291 -0.013270 0.000000 0.000000 0.000000
# 3 -0.005884 -0.013270 0.014582 0.000000 0.000000 0.000000
# 4 0.000000 0.000000 0.000000 0.039024 0.000000 0.000000
# 5 0.000000 0.000000 0.000000 0.000000 0.036655 0.000000
# 6 0.000000 0.000000 0.000000 0.000000 0.000000 0.036640
#
#
# Mechanical properties :
#
#
# Convention : Reuss Voigt Hill
#
# Bulk Modulus (GPa) = 23.37526 62.81830 43.09678
# Shear Modulus (GPa) = 17.09562 24.72352 20.90957
#
# Velocity S-wave (km/s) = 3.03353 3.64805 3.35489
# Velocity P-wave (km/s) = 4.98520 7.18042 6.18104
#
# Compressibility (1/GPa) = 0.04278027
#
# Stress axis : x y z
#
# Youngs Moduli (GPa) = 64.66608 13.46058 68.57789
#
# Poissons Ratio (x) = 0.15646 0.40354
# Poissons Ratio (y) = 0.75166 0.91004
# Poissons Ratio (z) = 0.38052 0.17862
#
# Static dielectric constant tensor:
#      x y z
#    x 1.600810 0.000000 0.000000 
#    y 0.000000 1.628910 0.000000 
#    z 0.000000 0.000000 1.698070 
# 
# From -- ./inp_files/50930.got.cif
#   From: 2010.05.17/outbox.cif.g08.bks.cpg/sg71_26_cif.got.tgz:50930.got - 2010.06.03 16:22:01.
