data_PCOD9522231
_publ_section_title
;
Structure prediction by ZEFSAII (Michael W. Deem and Ramdas Pophale) SiO2 
 PCOD9522231
Probable space group: I M M M
;
_chemical_formula_sum "Si O2"
_cell_formula_units_Z 72
_cell_length_a 8.552382
_cell_length_b 28.057884
_cell_length_c 16.585776
_cell_angle_alpha 90.000000
_cell_angle_beta 90.000000
_cell_angle_gamma 90.000000
_cell_volume 3979.951703
_symmetry_space_group_name_H-M "I M M M"
_symmetry_group_IT_number 71
_symmetry_cell_setting 'orthorhombic'
loop_
_space_group_symop_operation_xyz
x,y,z
-x,-y,z
x,-y,-z
-x,y,-z
-x,-y,-z
x,y,-z
-x,y,z
x,-y,z
1/2+x,1/2+y,1/2+z
1/2-x,1/2-y,1/2+z
1/2+x,1/2-y,1/2-z
1/2-x,1/2+y,1/2-z
1/2-x,1/2-y,1/2-z
1/2+x,1/2+y,1/2-z
1/2-x,1/2+y,1/2+z
1/2+x,1/2-y,1/2+z
loop_
_atom_site_type_symbol
_atom_site_label
_atom_site_fract_x
_atom_site_fract_y
_atom_site_fract_z
Si Si1 0.688011 0.358076 0.911631
Si Si2 0.688451 0.054292 0.676248
Si Si3 0.811948 0.196483 0.748636
Si Si4 0.312334 0.444149 0.500000
Si Si5 0.312478 0.891603 0.840840
O O1 0.500000 0.356207 0.911687
O O2 0.741083 0.411368 0.890914
O O3 0.742386 0.326290 0.836583
O O4 0.744546 0.343168 0.000000
O O5 0.500000 0.055846 0.671071
O O6 0.732194 0.075834 0.763597
O O7 0.740237 0.000000 0.669123
O O8 0.750000 0.250000 0.750000
O O9 0.749792 0.161147 0.818532
O O10 0.000000 0.196282 0.751438
O O11 0.259864 0.500000 0.500000
O O12 0.500000 0.444193 0.500000
O O13 0.253074 0.416051 0.578925
O O14 0.500000 0.889906 0.846027
#
# Coordination Sequence:
#
# PCOD9522231 Si02
#       5
#    16  16  16   8  16
#     4   9  19  35  53  75 103 136 174 216 260 313
#     4   9  18  32  51  76 106 140 177 216 260 312
#     4  10  20  37  59  80 107 141 181 229 280 333
#     4  11  23  37  55  83 119 153 187 233 286 339
#     4  10  20  36  57  80 108 145 188 230 275 331
#
# _framework density 18.090669999999999
#
# number of rings (size 3 to 8) (size 9 to 14) (size 15 to 20)
#    0.000    2.333    0.000    2.333    0.000    4.889 
#    2.000    2.222    0.000    0.000    0.000    0.000 
#    0.000    0.000    0.000    0.000    0.000    0.000 
#
# Total GULP energy -200829.921344 kJ/mol
# GULP energy per Si atom -5578.608926 kJ/mol
# Density = 1.804950 g / cm^3
# Si number density = 18.090670 Si / 1000 Ang^3
#
#
#
# Elastic Constant Matrix: (Units=GPa)
#
#
# Indices 1 2 3 4 5 6 
#
# 1 31.9500 28.2110 25.8674 0.0000 0.0000 0.0000
# 2 28.2110 160.2839 60.9940 0.0000 0.0000 0.0000
# 3 25.8674 60.9940 119.8245 -0.0001 0.0000 0.0000
# 4 0.0000 0.0000 -0.0001 15.3802 0.0000 0.0000
# 5 0.0000 0.0000 0.0000 0.0000 25.2268 0.0000
# 6 0.0000 0.0000 0.0000 0.0000 0.0000 30.9628
#
#
#
# Elastic Compliance Matrix: (Units=1/GPa)
#
#
# Indices 1 2 3 4 5 6 
#
# 1 0.040626 -0.004729 -0.006363 0.000000 0.000000 0.000000
# 2 -0.004729 0.008288 -0.003198 0.000000 0.000000 0.000000
# 3 -0.006363 -0.003198 0.011347 0.000000 0.000000 0.000000
# 4 0.000000 0.000000 0.000000 0.065019 0.000000 0.000000
# 5 0.000000 0.000000 0.000000 0.000000 0.039640 0.000000
# 6 0.000000 0.000000 0.000000 0.000000 0.000000 0.032297
#
#
# Mechanical properties :
#
#
# Convention : Reuss Voigt Hill
#
# Bulk Modulus (GPa) = 31.56446 60.24478 45.90462
# Shear Modulus (GPa) = 21.15434 27.44638 24.30036
#
# Velocity S-wave (km/s) = 3.42329 3.89929 3.66902
# Velocity P-wave (km/s) = 5.75422 7.32438 6.58626
#
# Compressibility (1/GPa) = 0.03168120
#
# Stress axis : x y z
#
# Youngs Moduli (GPa) = 24.61464 120.65262 88.12852
#
# Poissons Ratio (x) = 0.57058 0.56076
# Poissons Ratio (y) = 0.11641 0.28184
# Poissons Ratio (z) = 0.15662 0.38585
#
# Static dielectric constant tensor:
#      x y z
#    x 1.615770 0.000000 0.000000 
#    y 0.000000 1.603520 0.000000 
#    z 0.000000 0.000000 1.620630 
# 
# From -- ./inp_files/5999.got.cif
#   From: 2010.05.17/outbox.cif.g08.bks.cpg/sg71_3_cif.got.tgz:5999.got - 2010.06.03 16:22:01.
