data_PCOD9522837
_publ_section_title
;
Structure prediction by ZEFSAII (Michael W. Deem and Ramdas Pophale) SiO2 
 PCOD9522837
Probable space group: I M M M
;
_chemical_formula_sum "Si O2"
_cell_formula_units_Z 96
_cell_length_a 25.479701
_cell_length_b 21.575231
_cell_length_c 8.427174
_cell_angle_alpha 90.000000
_cell_angle_beta 90.000000
_cell_angle_gamma 90.000000
_cell_volume 4632.674028
_symmetry_space_group_name_H-M "I M M M"
_symmetry_group_IT_number 71
_symmetry_cell_setting 'orthorhombic'
loop_
_space_group_symop_operation_xyz
x,y,z
-x,-y,z
x,-y,-z
-x,y,-z
-x,-y,-z
x,y,-z
-x,y,z
x,-y,z
1/2+x,1/2+y,1/2+z
1/2-x,1/2-y,1/2+z
1/2+x,1/2-y,1/2-z
1/2-x,1/2+y,1/2-z
1/2-x,1/2-y,1/2-z
1/2+x,1/2+y,1/2-z
1/2-x,1/2+y,1/2+z
1/2+x,1/2-y,1/2+z
loop_
_atom_site_type_symbol
_atom_site_label
_atom_site_fract_x
_atom_site_fract_y
_atom_site_fract_z
Si Si1 0.672481 0.431824 0.188787
Si Si2 0.057910 0.426162 0.184443
Si Si3 0.745926 0.321356 0.309401
Si Si4 0.558467 0.404795 0.312222
Si Si5 0.860935 0.336928 0.686716
Si Si6 0.441171 0.734097 0.191195
O O1 0.692814 0.500000 0.245680
O O2 0.701561 0.369977 0.252907
O O3 0.610724 0.430126 0.231267
O O4 0.678122 0.429983 0.000000
O O5 0.060849 0.500000 0.188545
O O6 0.103181 0.395651 0.283769
O O7 0.000000 0.408113 0.242295
O O8 0.062716 0.407001 0.000000
O O9 0.742014 0.319540 0.500000
O O10 0.750000 0.250000 0.250000
O O11 0.802550 0.346711 0.252258
O O12 0.561448 0.416973 0.500000
O O13 0.500000 0.425268 0.256906
O O14 0.560767 0.331333 0.277935
O O15 0.855629 0.325187 0.500000
O O16 0.894886 0.278871 0.749458
O O17 0.500000 0.760408 0.216592
O O18 0.435747 0.724369 0.000000
#
# Coordination Sequence:
#
# PCOD9522837 Si02
#       6
#    16  16  16  16  16  16
#     4  11  25  44  65  89 120 161 208 255 304 361
#     4   9  19  35  53  76 109 148 189 234 284 339
#     4  11  24  42  65  92 123 159 202 254 309 366
#     4  10  21  37  60  91 123 154 190 236 295 361
#     4  10  21  35  54  82 111 143 187 237 289 345
#     4   9  17  31  53  82 118 155 190 234 287 346
#
# _framework density 20.722373000000001
#
# number of rings (size 3 to 8) (size 9 to 14) (size 15 to 20)
#    0.000    2.000    0.000    3.500    0.000    8.000 
#    0.000    7.500    0.000    0.000    0.000    0.000 
#    0.000    0.000    0.000    0.000    0.000    0.000 
#
# Total GULP energy -267748.608282 kJ/mol
# GULP energy per Si atom -5578.096006 kJ/mol
# Density = 2.067521 g / cm^3
# Si number density = 20.722373 Si / 1000 Ang^3
#
#
#
# Elastic Constant Matrix: (Units=GPa)
#
#
# Indices 1 2 3 4 5 6 
#
# 1 133.5881 53.3041 23.0918 0.0000 0.0000 0.0000
# 2 53.3041 107.5718 27.0798 0.0000 0.0000 0.0000
# 3 23.0918 27.0798 29.4594 0.0000 0.0000 0.0000
# 4 0.0000 0.0000 0.0000 17.1466 0.0000 0.0000
# 5 0.0000 0.0000 0.0000 0.0000 20.3735 0.0000
# 6 0.0000 0.0000 0.0000 0.0000 0.0000 26.1558
#
#
#
# Elastic Compliance Matrix: (Units=1/GPa)
#
#
# Indices 1 2 3 4 5 6 
#
# 1 0.009705 -0.003765 -0.004146 0.000000 0.000000 0.000000
# 2 -0.003765 0.013556 -0.009509 0.000000 0.000000 0.000000
# 3 -0.004146 -0.009509 0.045936 0.000000 0.000000 0.000000
# 4 0.000000 0.000000 0.000000 0.058321 0.000000 0.000000
# 5 0.000000 0.000000 0.000000 0.000000 0.049083 0.000000
# 6 0.000000 0.000000 0.000000 0.000000 0.000000 0.038232
#
#
# Mechanical properties :
#
#
# Convention : Reuss Voigt Hill
#
# Bulk Modulus (GPa) = 29.10751 53.06342 41.08547
# Shear Modulus (GPa) = 19.14783 23.87808 21.51296
#
# Velocity S-wave (km/s) = 3.04306 3.39821 3.22553
# Velocity P-wave (km/s) = 5.14042 6.40777 5.80876
#
# Compressibility (1/GPa) = 0.03435540
#
# Stress axis : x y z
#
# Youngs Moduli (GPa) = 103.04221 73.76960 21.76935
#
# Poissons Ratio (x) = 0.27776 0.09026
# Poissons Ratio (y) = 0.38798 0.20701
# Poissons Ratio (z) = 0.42722 0.70150
#
# Static dielectric constant tensor:
#      x y z
#    x 1.765180 0.000000 0.000000 
#    y 0.000000 1.763590 0.000000 
#    z 0.000000 0.000000 1.727050 
# 
# From -- ./inp_files/12850.got.cif
#   From: 2010.05.17/outbox.cif.g08.bks.cpg/sg71_7_cif.got.tgz:12850.got - 2010.06.03 16:22:01.
