data_PCOD9522032
_publ_section_title
;
Structure prediction by ZEFSAII (Michael W. Deem and Ramdas Pophale) SiO2 
 PCOD9522032
Probable space group: I M M M
;
_chemical_formula_sum "Si O2"
_cell_formula_units_Z 74
_cell_length_a 8.988700
_cell_length_b 27.142999
_cell_length_c 17.385239
_cell_angle_alpha 90.000000
_cell_angle_beta 90.000000
_cell_angle_gamma 90.000000
_cell_volume 4241.655394
_symmetry_space_group_name_H-M "I M M M"
_symmetry_group_IT_number 71
_symmetry_cell_setting 'orthorhombic'
loop_
_space_group_symop_operation_xyz
x,y,z
-x,-y,z
x,-y,-z
-x,y,-z
-x,-y,-z
x,y,-z
-x,y,z
x,-y,z
1/2+x,1/2+y,1/2+z
1/2-x,1/2-y,1/2+z
1/2+x,1/2-y,1/2-z
1/2-x,1/2+y,1/2-z
1/2-x,1/2-y,1/2-z
1/2+x,1/2+y,1/2-z
1/2-x,1/2+y,1/2+z
1/2+x,1/2-y,1/2+z
loop_
_atom_site_type_symbol
_atom_site_label
_atom_site_fract_x
_atom_site_fract_y
_atom_site_fract_z
Si Si1 0.335848 0.102107 0.500000
Si Si2 0.178335 0.158405 0.364837
Si Si3 0.000000 0.500000 0.000000
Si Si4 0.322065 0.738014 0.410020
Si Si5 0.679132 0.943221 0.088696
Si Si6 0.320966 0.357730 0.312286
O O1 0.500000 0.127323 0.500000
O O2 0.249223 0.120403 0.425027
O O3 0.372879 0.044325 0.500000
O O4 0.238517 0.212458 0.386000
O O5 0.220671 0.146018 0.277147
O O6 0.000000 0.157761 0.371130
O O7 0.293842 0.727526 0.500000
O O8 0.500000 0.745087 0.400558
O O9 0.275990 0.691834 0.357660
O O10 0.500000 0.940118 0.093037
O O11 0.751139 0.904630 0.146021
O O12 0.720699 0.000000 0.105234
O O13 0.721974 0.932470 0.000000
O O14 0.500000 0.361020 0.316952
#
# Coordination Sequence:
#
# PCOD9522032 Si02
#       6
#     8  16   2  16  16  16
#     4  10  21  43  65  85 109 148 199 242 294 354
#     4  11  22  37  59  87 119 151 189 240 297 354
#     4   8  24  44  70  88 104 148 208 256 286 372
#     4  10  20  35  57  84 116 158 196 231 281 348
#     4   9  19  37  58  81 111 150 195 240 287 339
#     4  10  22  37  54  85 122 153 190 239 290 349
#
# _framework density 17.446019
#
# number of rings (size 3 to 8) (size 9 to 14) (size 15 to 20)
#    0.324    1.730    1.081    2.919    0.000    4.324 
#    1.946    2.162    0.000    0.000    0.000    0.000 
#    0.000    0.000    0.000    0.000    0.000    0.000 
#
# Total GULP energy -206237.287373 kJ/mol
# GULP energy per Si atom -5573.980740 kJ/mol
# Density = 1.740631 g / cm^3
# Si number density = 17.446019 Si / 1000 Ang^3
#
#
#
# Elastic Constant Matrix: (Units=GPa)
#
#
# Indices 1 2 3 4 5 6 
#
# 1 39.8967 49.3257 63.5524 0.0000 0.0000 0.0000
# 2 49.3257 151.4494 112.9097 0.0000 0.0000 0.0000
# 3 63.5524 112.9097 172.8529 0.0000 0.0000 0.0000
# 4 0.0000 0.0000 0.0000 7.3846 0.0000 0.0000
# 5 0.0000 0.0000 0.0000 0.0000 19.6440 0.0000
# 6 0.0000 0.0000 0.0000 0.0000 0.0000 23.2880
#
#
#
# Elastic Compliance Matrix: (Units=1/GPa)
#
#
# Indices 1 2 3 4 5 6 
#
# 1 0.063512 -0.006386 -0.019180 0.000000 0.000000 0.000000
# 2 -0.006386 0.013513 -0.006479 0.000000 0.000000 0.000000
# 3 -0.019180 -0.006479 0.017069 0.000000 0.000000 0.000000
# 4 0.000000 0.000000 0.000000 0.135416 0.000000 0.000000
# 5 0.000000 0.000000 0.000000 0.000000 0.050906 0.000000
# 6 0.000000 0.000000 0.000000 0.000000 0.000000 0.042941
#
#
# Mechanical properties :
#
#
# Convention : Reuss Voigt Hill
#
# Bulk Modulus (GPa) = 33.32827 90.64162 61.98494
# Shear Modulus (GPa) = 12.58024 19.29074 15.93549
#
# Velocity S-wave (km/s) = 2.68823 3.32887 3.02556
# Velocity P-wave (km/s) = 5.36476 8.17578 6.91462
#
# Compressibility (1/GPa) = 0.03000456
#
# Stress axis : x y z
#
# Youngs Moduli (GPa) = 15.74497 74.00307 58.58554
#
# Poissons Ratio (x) = 0.47261 1.12366
# Poissons Ratio (y) = 0.10055 0.37956
# Poissons Ratio (z) = 0.30198 0.47945
#
# Static dielectric constant tensor:
#      x y z
#    x 1.588810 0.000000 0.000000 
#    y 0.000000 1.558510 0.000000 
#    z 0.000000 0.000000 1.584100 
# 
# From -- ./inp_files/31692.got.cif
#   From: 2010.05.17/outbox.cif.g08.bks.cpg/sg71_16_cif.got.tgz:31692.got - 2010.06.03 16:22:01.
