data_PCOD9522514
_publ_section_title
;
Structure prediction by ZEFSAII (Michael W. Deem and Ramdas Pophale) SiO2 
 PCOD9522514
Probable space group: I M M M
;
_chemical_formula_sum "Si O2"
_cell_formula_units_Z 68
_cell_length_a 11.308241
_cell_length_b 17.640460
_cell_length_c 18.064639
_cell_angle_alpha 90.000000
_cell_angle_beta 90.000000
_cell_angle_gamma 90.000000
_cell_volume 3603.580669
_symmetry_space_group_name_H-M "I M M M"
_symmetry_group_IT_number 71
_symmetry_cell_setting 'orthorhombic'
loop_
_space_group_symop_operation_xyz
x,y,z
-x,-y,z
x,-y,-z
-x,y,-z
-x,-y,-z
x,y,-z
-x,y,z
x,-y,z
1/2+x,1/2+y,1/2+z
1/2-x,1/2-y,1/2+z
1/2+x,1/2-y,1/2-z
1/2-x,1/2+y,1/2-z
1/2-x,1/2-y,1/2-z
1/2+x,1/2+y,1/2-z
1/2-x,1/2+y,1/2+z
1/2+x,1/2-y,1/2+z
loop_
_atom_site_type_symbol
_atom_site_label
_atom_site_fract_x
_atom_site_fract_y
_atom_site_fract_z
Si Si1 0.773457 0.000000 0.500000
Si Si2 0.000000 0.087808 0.757481
Si Si3 0.264419 0.143598 0.741414
Si Si4 0.361058 0.673754 0.000000
Si Si5 0.138131 0.500000 0.842923
Si Si6 0.500000 0.642306 0.420185
Si Si7 0.228696 0.231225 0.125235
O O1 0.837622 0.917261 0.500000
O O2 0.701717 0.000000 0.422745
O O3 0.121840 0.129065 0.734042
O O4 0.000000 0.090880 0.847076
O O5 0.000000 0.000000 0.732100
O O6 0.289759 0.163830 0.827158
O O7 0.309075 0.212552 0.691068
O O8 0.324752 0.071021 0.706680
O O9 0.304412 0.717407 0.070111
O O10 0.500000 0.685049 0.000000
O O11 0.000000 0.500000 0.857322
O O12 0.500000 0.603334 0.500000
O O13 0.384354 0.695113 0.413882
#
# Coordination Sequence:
#
# PCOD9522514 Si02
#       7
#     4   8  16   8   8   8  16
#     4  12  26  44  56  94 128 158 200 244 290 364
#     4  10  20  37  62  86 114 152 195 251 303 349
#     4  10  22  39  60  86 116 157 204 246 291 350
#     4  12  25  40  62  89 123 164 196 242 305 356
#     4  12  25  40  62  89 123 164 196 242 305 356
#     4  10  20  37  62  86 114 152 195 251 303 349
#     4  10  22  39  60  86 116 157 204 246 291 350
#
# _framework density 18.870118999999999
#
# number of rings (size 3 to 8) (size 9 to 14) (size 15 to 20)
#    0.000    1.412    4.706    0.353    3.294    1.176 
#    4.235    0.000    0.000    0.706    0.000    1.647 
#    0.000    0.000    0.000    0.000    0.000    0.000 
#
# Total GULP energy -189532.689336 kJ/mol
# GULP energy per Si atom -5574.490863 kJ/mol
# Density = 1.882717 g / cm^3
# Si number density = 18.870119 Si / 1000 Ang^3
#
#
#
# Elastic Constant Matrix: (Units=GPa)
#
#
# Indices 1 2 3 4 5 6 
#
# 1 58.9392 13.1507 17.9609 0.0000 0.0000 0.0000
# 2 13.1507 83.1277 25.1774 0.0000 0.0000 0.0000
# 3 17.9609 25.1774 106.2540 0.0000 0.0000 0.0000
# 4 0.0000 0.0000 0.0000 23.6347 0.0000 0.0000
# 5 0.0000 0.0000 0.0000 0.0000 -6.7440 0.0000
# 6 0.0000 0.0000 0.0000 0.0000 0.0000 1.0364
#
#
#
# Elastic Compliance Matrix: (Units=1/GPa)
#
#
# Indices 1 2 3 4 5 6 
#
# 1 0.018222 -0.002101 -0.002583 0.000000 0.000000 0.000000
# 2 -0.002101 0.013202 -0.002773 0.000000 0.000000 0.000000
# 3 -0.002583 -0.002773 0.010505 0.000000 0.000000 0.000000
# 4 0.000000 0.000000 0.000000 0.042311 0.000000 0.000000
# 5 0.000000 0.000000 0.000000 0.000000 -0.148280 0.000000
# 6 0.000000 0.000000 0.000000 0.000000 0.000000 0.964842
#
#
# Mechanical properties :
#
#
# Convention : Reuss Voigt Hill
#
# Bulk Modulus (GPa) = 37.01405 40.09989 38.55697
# Shear Modulus (GPa) = 5.40704 16.38757 10.89731
#
# Velocity S-wave (km/s) = 1.69459 2.95013 2.40571
# Velocity P-wave (km/s) = 4.84629 5.73593 5.30978
#
# Compressibility (1/GPa) = 0.02701677
#
# Stress axis : x y z
#
# Youngs Moduli (GPa) = 54.87784 75.74654 95.19214
#
# Poissons Ratio (x) = 0.15911 0.24583
# Poissons Ratio (y) = 0.11527 0.26399
# Poissons Ratio (z) = 0.14172 0.21006
#
# Static dielectric constant tensor:
#      x y z
#    x 1.631870 0.000000 0.000000 
#    y 0.000000 1.713100 0.000000 
#    z 0.000000 0.000000 1.691210 
# 
# From -- ./inp_files/23577.got.cif
#   From: 2010.05.17/outbox.cif.g08.bks.cpg/sg71_12_cif.got.tgz:23577.got - 2010.06.03 16:22:01.
