data_PCOD9522756
_publ_section_title
;
Structure prediction by ZEFSAII (Michael W. Deem and Ramdas Pophale) SiO2 
 PCOD9522756
Probable space group: I M M M
;
_chemical_formula_sum "Si O2"
_cell_formula_units_Z 80
_cell_length_a 31.582407
_cell_length_b 15.050951
_cell_length_c 7.480733
_cell_angle_alpha 90.000000
_cell_angle_beta 90.000000
_cell_angle_gamma 90.000000
_cell_volume 3555.930975
_symmetry_space_group_name_H-M "I M M M"
_symmetry_group_IT_number 71
_symmetry_cell_setting 'orthorhombic'
loop_
_space_group_symop_operation_xyz
x,y,z
-x,-y,z
x,-y,-z
-x,y,-z
-x,-y,-z
x,y,-z
-x,y,z
x,-y,z
1/2+x,1/2+y,1/2+z
1/2-x,1/2-y,1/2+z
1/2+x,1/2-y,1/2-z
1/2-x,1/2+y,1/2-z
1/2-x,1/2-y,1/2-z
1/2+x,1/2+y,1/2-z
1/2-x,1/2+y,1/2+z
1/2+x,1/2-y,1/2+z
loop_
_atom_site_type_symbol
_atom_site_label
_atom_site_fract_x
_atom_site_fract_y
_atom_site_fract_z
Si Si1 0.862849 0.602260 0.781001
Si Si2 0.545193 0.107769 0.712413
Si Si3 0.861786 0.100233 0.788684
Si Si4 0.700416 0.749046 0.285780
Si Si5 0.045404 0.104452 0.285321
O O1 0.857584 0.500000 0.726402
O O2 0.909030 0.636811 0.718812
O O3 0.824723 0.664230 0.721250
O O4 0.864092 0.602305 0.000000
O O5 0.544522 0.126541 0.500000
O O6 0.500000 0.139268 0.788013
O O7 0.545652 0.000000 0.729796
O O8 0.825313 0.163707 0.715678
O O9 0.909064 0.140701 0.770656
O O10 0.861630 0.000000 0.712717
O O11 0.854544 0.092235 0.000000
O O12 0.695729 0.748487 0.500000
O O13 0.750000 0.750000 0.250000
O O14 0.044835 0.106834 0.500000
O O15 0.000000 0.141867 0.221444
O O16 0.045908 0.000000 0.230669
#
# Coordination Sequence:
#
# PCOD9522756 Si02
#       5
#    16  16  16  16  16
#     4   8  14  26  44  65  89 115 144 182 226 269
#     4   7   9  15  31  56  84 111 134 159 202 258
#     4   9  18  32  48  67  95 129 159 188 228 281
#     4  10  21  35  49  67  90 117 154 199 241 280
#     4   8  14  26  46  72  99 126 158 194 228 266
#
# _framework density 22.497624999999999
#
# number of rings (size 3 to 8) (size 9 to 14) (size 15 to 20)
#    0.000    3.600    0.000    2.400    0.000    2.000 
#    0.000    3.000    0.000    3.600    0.000    0.000 
#    0.000    0.000    0.000    7.200    0.000    5.800 
#
# Total GULP energy -222976.234058 kJ/mol
# GULP energy per Si atom -5574.405851 kJ/mol
# Density = 2.244642 g / cm^3
# Si number density = 22.497625 Si / 1000 Ang^3
#
#
#
# Elastic Constant Matrix: (Units=GPa)
#
#
# Indices 1 2 3 4 5 6 
#
# 1 267.7500 95.5545 0.7722 0.0000 0.0000 0.0000
# 2 95.5545 99.3323 5.2967 0.0000 0.0000 0.0000
# 3 0.7722 5.2967 60.7889 0.0000 0.0000 0.0000
# 4 0.0000 0.0000 0.0000 -5.6851 0.0000 0.0000
# 5 0.0000 0.0000 0.0000 0.0000 17.9734 0.0000
# 6 0.0000 0.0000 0.0000 0.0000 0.0000 44.7563
#
#
#
# Elastic Compliance Matrix: (Units=1/GPa)
#
#
# Indices 1 2 3 4 5 6 
#
# 1 0.005697 -0.005502 0.000407 0.000000 0.000000 0.000000
# 2 -0.005502 0.015428 -0.001274 0.000000 0.000000 0.000000
# 3 0.000407 -0.001274 0.016556 0.000000 0.000000 0.000000
# 4 0.000000 0.000000 0.000000 -0.175898 0.000000 0.000000
# 5 0.000000 0.000000 0.000000 0.000000 0.055638 0.000000
# 6 0.000000 0.000000 0.000000 0.000000 0.000000 0.022343
#
#
# Mechanical properties :
#
#
# Convention : Reuss Voigt Hill
#
# Bulk Modulus (GPa) = 40.09230 70.12422 55.10826
# Shear Modulus (GPa) = -127.61058 33.15876 -47.22591
#
# Velocity S-wave (km/s) = -7.53956 3.84328 -4.58662
# Velocity P-wave (km/s) = 7.61143 7.13664 1.87113
#
# Compressibility (1/GPa) = 0.02494244
#
# Stress axis : x y z
#
# Youngs Moduli (GPa) = 175.52072 64.81605 60.40017
#
# Poissons Ratio (x) = 0.35664 -0.02459
# Poissons Ratio (y) = 0.96578 0.07697
# Poissons Ratio (z) = -0.07145 0.08260
#
# Static dielectric constant tensor:
#      x y z
#    x 1.844990 0.000000 0.000000 
#    y 0.000000 1.866180 0.000000 
#    z 0.000000 0.000000 1.882300 
# 
# From -- ./inp_files/16535.got.cif
#   From: 2010.05.17/outbox.cif.g08.bks.cpg/sg71_9_cif.got.tgz:16535.got - 2010.06.03 16:22:01.
