data_PCOD9522908
_publ_section_title
;
Structure prediction by ZEFSAII (Michael W. Deem and Ramdas Pophale) SiO2 
 PCOD9522908
Probable space group: I M M M
;
_chemical_formula_sum "Si O2"
_cell_formula_units_Z 120
_cell_length_a 8.998647
_cell_length_b 27.137958
_cell_length_c 28.553354
_cell_angle_alpha 90.000000
_cell_angle_beta 90.000000
_cell_angle_gamma 90.000000
_cell_volume 6972.869082
_symmetry_space_group_name_H-M "I M M M"
_symmetry_group_IT_number 71
_symmetry_cell_setting 'orthorhombic'
loop_
_space_group_symop_operation_xyz
x,y,z
-x,-y,z
x,-y,-z
-x,y,-z
-x,-y,-z
x,y,-z
-x,y,z
x,-y,z
1/2+x,1/2+y,1/2+z
1/2-x,1/2-y,1/2+z
1/2+x,1/2-y,1/2-z
1/2-x,1/2+y,1/2-z
1/2-x,1/2-y,1/2-z
1/2+x,1/2+y,1/2-z
1/2-x,1/2+y,1/2+z
1/2+x,1/2-y,1/2+z
loop_
_atom_site_type_symbol
_atom_site_label
_atom_site_fract_x
_atom_site_fract_y
_atom_site_fract_z
Si Si1 0.176115 0.910632 0.389126
Si Si2 0.821483 0.787739 0.054098
Si Si3 0.321682 0.744625 0.300992
Si Si4 0.177950 0.798207 0.612455
Si Si5 0.672159 0.059411 0.704451
Si Si6 0.677281 0.000000 0.555062
Si Si7 0.179060 0.556392 0.689219
Si Si8 0.176918 0.853562 0.859867
O O1 0.212849 0.854284 0.401482
O O2 0.226482 0.918326 0.335566
O O3 0.257624 0.951583 0.420034
O O4 0.000000 0.917830 0.393427
O O5 0.739883 0.739843 0.074278
O O6 0.782296 0.832282 0.089126
O O7 0.000000 0.780250 0.058536
O O8 0.786504 0.796817 0.000000
O O9 0.250000 0.750000 0.250000
O O10 0.253709 0.783161 0.338285
O O11 0.289218 0.690734 0.323343
O O12 0.000000 0.749606 0.201254
O O13 0.000000 0.793564 0.617103
O O14 0.500000 0.075056 0.698304
O O15 0.721288 0.070500 0.757385
O O16 0.674561 0.000000 0.699881
O O17 0.500000 0.000000 0.560822
O O18 0.713245 0.000000 0.500000
O O19 0.227919 0.500000 0.680360
O O20 0.242531 0.596677 0.654449
O O21 0.000000 0.556530 0.688093
O O22 0.000000 0.861393 0.858696
#
# Coordination Sequence:
#
# PCOD9522908 Si02
#       8
#    16  16  16  16  16   8  16  16
#     4  11  23  37  55  79 108 140 176 227 281 328
#     4   9  19  38  61  82 106 139 181 228 277 328
#     4  10  21  36  53  77 111 150 187 225 273 326
#     4  10  22  37  53  80 112 141 180 226 275 331
#     4   9  18  33  52  74 102 140 183 222 259 311
#     4  11  25  43  61  79 101 137 185 233 282 339
#     4   9  19  34  52  79 112 147 184 219 260 313
#     4   9  19  34  53  80 110 140 178 224 270 320
#
# _framework density 17.209558000000001
#
# number of rings (size 3 to 8) (size 9 to 14) (size 15 to 20)
#    0.000    2.333    0.667    3.000    1.867    6.933 
#    0.000    4.000    0.000    0.400    0.000    2.800 
#    0.000    0.000    0.000    0.000    0.000    0.000 
#
# Total GULP energy -334839.862250 kJ/mol
# GULP energy per Si atom -5580.664371 kJ/mol
# Density = 1.717039 g / cm^3
# Si number density = 17.209558 Si / 1000 Ang^3
#
#
#
# Elastic Constant Matrix: (Units=GPa)
#
#
# Indices 1 2 3 4 5 6 
#
# 1 40.7232 53.0612 52.0561 0.0000 0.0000 0.0000
# 2 53.0612 122.5053 82.9818 0.0000 0.0000 0.0000
# 3 52.0561 82.9818 138.9851 0.0000 0.0000 0.0000
# 4 0.0000 0.0000 0.0000 10.8174 0.0000 0.0000
# 5 0.0000 0.0000 0.0000 0.0000 23.1658 0.0000
# 6 0.0000 0.0000 0.0000 0.0000 0.0000 27.6394
#
#
#
# Elastic Compliance Matrix: (Units=1/GPa)
#
#
# Indices 1 2 3 4 5 6 
#
# 1 0.068476 -0.020630 -0.013330 0.000000 0.000000 0.000000
# 2 -0.020630 0.019921 -0.004167 0.000000 0.000000 0.000000
# 3 -0.013330 -0.004167 0.014676 0.000000 0.000000 0.000000
# 4 0.000000 0.000000 0.000000 0.092444 0.000000 0.000000
# 5 0.000000 0.000000 0.000000 0.000000 0.043167 0.000000
# 6 0.000000 0.000000 0.000000 0.000000 0.000000 0.036180
#
#
# Mechanical properties :
#
#
# Convention : Reuss Voigt Hill
#
# Bulk Modulus (GPa) = 37.28771 75.37908 56.33340
# Shear Modulus (GPa) = 13.88668 19.93215 16.90942
#
# Velocity S-wave (km/s) = 2.84371 3.40693 3.13798
# Velocity P-wave (km/s) = 5.70054 7.70532 6.77747
#
# Compressibility (1/GPa) = 0.02681849
#
# Stress axis : x y z
#
# Youngs Moduli (GPa) = 14.60373 50.19807 68.13906
#
# Poissons Ratio (x) = 1.03557 0.90831
# Poissons Ratio (y) = 0.30127 0.28396
# Poissons Ratio (z) = 0.19467 0.20919
#
# Static dielectric constant tensor:
#      x y z
#    x 1.575100 0.000000 0.000000 
#    y 0.000000 1.575330 0.000000 
#    z 0.000000 0.000000 1.572090 
# 
# From -- ./inp_files/63811.got.cif
#   From: 2010.05.17/outbox.cif.g08.bks.cpg/sg71_32_cif.got.tgz:63811.got - 2010.06.03 16:22:01.
