data_PCOD9522571
_publ_section_title
;
Structure prediction by ZEFSAII (Michael W. Deem and Ramdas Pophale) SiO2 
 PCOD9522571
Probable space group: I M M M
;
_chemical_formula_sum "Si O2"
_cell_formula_units_Z 74
_cell_length_a 29.117793
_cell_length_b 15.990977
_cell_length_c 7.744080
_cell_angle_alpha 90.000000
_cell_angle_beta 90.000000
_cell_angle_gamma 90.000000
_cell_volume 3605.813694
_symmetry_space_group_name_H-M "I M M M"
_symmetry_group_IT_number 71
_symmetry_cell_setting 'orthorhombic'
loop_
_space_group_symop_operation_xyz
x,y,z
-x,-y,z
x,-y,-z
-x,y,-z
-x,-y,-z
x,y,-z
-x,y,z
x,-y,z
1/2+x,1/2+y,1/2+z
1/2-x,1/2-y,1/2+z
1/2+x,1/2-y,1/2-z
1/2-x,1/2+y,1/2-z
1/2-x,1/2-y,1/2-z
1/2+x,1/2+y,1/2-z
1/2-x,1/2+y,1/2+z
1/2+x,1/2-y,1/2+z
loop_
_atom_site_type_symbol
_atom_site_label
_atom_site_fract_x
_atom_site_fract_y
_atom_site_fract_z
Si Si1 0.337473 0.909083 0.211234
Si Si2 0.500000 0.824965 0.689389
Si Si3 0.760473 0.153630 0.206088
Si Si4 0.000000 0.500000 0.000000
Si Si5 0.097875 0.738318 0.296307
Si Si6 0.861094 0.092961 0.296937
O O1 0.284666 0.896736 0.262953
O O2 0.368147 0.832692 0.276601
O O3 0.354941 0.000000 0.266726
O O4 0.338391 0.907618 0.000000
O O5 0.500000 0.784012 0.500000
O O6 0.453612 0.794252 0.777515
O O7 0.500000 0.924287 0.648638
O O8 0.750000 0.250000 0.250000
O O9 0.807963 0.121098 0.282791
O O10 0.764447 0.145599 0.000000
O O11 0.108630 0.743341 0.500000
O O12 0.109133 0.830058 0.223273
O O13 0.872324 0.086524 0.500000
O O14 0.866924 0.000000 0.221058
#
# Coordination Sequence:
#
# PCOD9522571 Si02
#       6
#    16   8  16   2  16  16
#     4   9  18  31  51  79 110 144 187 235 280 334
#     4  10  23  41  60  84 118 147 182 236 293 356
#     4  11  20  34  54  80 118 158 198 243 291 345
#     4   8  24  44  62  84 126 152 174 232 316 356
#     4  10  20  38  61  85 112 151 195 239 286 349
#     4  10  21  38  60  86 119 155 199 247 294 346
#
# _framework density 20.522413
#
# number of rings (size 3 to 8) (size 9 to 14) (size 15 to 20)
#    0.324    1.730    2.162    1.622    1.514    2.162 
#    0.000    1.081    0.000    4.541    0.000    0.000 
#    0.000    0.000    0.000    0.000    0.000    0.000 
#
# Total GULP energy -206159.970465 kJ/mol
# GULP energy per Si atom -5571.891094 kJ/mol
# Density = 2.047570 g / cm^3
# Si number density = 20.522413 Si / 1000 Ang^3
#
#
#
# Elastic Constant Matrix: (Units=GPa)
#
#
# Indices 1 2 3 4 5 6 
#
# 1 99.8235 75.8373 -10.9611 0.0000 0.0000 0.0000
# 2 75.8373 224.5257 5.8356 0.0000 0.0000 0.0000
# 3 -10.9611 5.8356 30.2544 0.0000 0.0000 0.0000
# 4 0.0000 0.0000 0.0000 7.4641 0.0000 0.0000
# 5 0.0000 0.0000 0.0000 0.0000 21.2610 0.0000
# 6 0.0000 0.0000 0.0000 0.0000 0.0000 3.3953
#
#
#
# Elastic Compliance Matrix: (Units=1/GPa)
#
#
# Indices 1 2 3 4 5 6 
#
# 1 0.014566 -0.005083 0.006258 0.000000 0.000000 0.000000
# 2 -0.005083 0.006250 -0.003047 0.000000 0.000000 0.000000
# 3 0.006258 -0.003047 0.035908 0.000000 0.000000 0.000000
# 4 0.000000 0.000000 0.000000 0.133974 0.000000 0.000000
# 5 0.000000 0.000000 0.000000 0.000000 0.047035 0.000000
# 6 0.000000 0.000000 0.000000 0.000000 0.000000 0.294524
#
#
# Mechanical properties :
#
#
# Convention : Reuss Voigt Hill
#
# Bulk Modulus (GPa) = 18.87506 55.11413 36.99460
# Shear Modulus (GPa) = 9.03081 25.35021 17.19051
#
# Velocity S-wave (km/s) = 2.10000 3.51842 2.89735
# Velocity P-wave (km/s) = 3.88552 6.58935 5.40911
#
# Compressibility (1/GPa) = 0.05297996
#
# Stress axis : x y z
#
# Youngs Moduli (GPa) = 68.65262 160.00647 27.84907
#
# Poissons Ratio (x) = 0.81325 -0.17427
# Poissons Ratio (y) = 0.34893 0.08485
# Poissons Ratio (z) = -0.42960 0.48752
#
# Static dielectric constant tensor:
#      x y z
#    x 1.744740 0.000000 0.000000 
#    y 0.000000 1.774040 0.000000 
#    z 0.000000 0.000000 1.762250 
# 
# From -- ./inp_files/16428.got.cif
#   From: 2010.05.17/outbox.cif.g08.bks.cpg/sg71_9_cif.got.tgz:16428.got - 2010.06.03 16:22:01.
