data_PCOD9522050
_publ_section_title
;
Structure prediction by ZEFSAII (Michael W. Deem and Ramdas Pophale) SiO2 
 PCOD9522050
Probable space group: I M M M
;
_chemical_formula_sum "Si O2"
_cell_formula_units_Z 88
_cell_length_a 8.927448
_cell_length_b 19.000919
_cell_length_c 27.983148
_cell_angle_alpha 90.000000
_cell_angle_beta 90.000000
_cell_angle_gamma 90.000000
_cell_volume 4746.773457
_symmetry_space_group_name_H-M "I M M M"
_symmetry_group_IT_number 71
_symmetry_cell_setting 'orthorhombic'
loop_
_space_group_symop_operation_xyz
x,y,z
-x,-y,z
x,-y,-z
-x,y,-z
-x,-y,-z
x,y,-z
-x,y,z
x,-y,z
1/2+x,1/2+y,1/2+z
1/2-x,1/2-y,1/2+z
1/2+x,1/2-y,1/2-z
1/2-x,1/2+y,1/2-z
1/2-x,1/2-y,1/2-z
1/2+x,1/2+y,1/2-z
1/2-x,1/2+y,1/2+z
1/2+x,1/2-y,1/2+z
loop_
_atom_site_type_symbol
_atom_site_label
_atom_site_fract_x
_atom_site_fract_y
_atom_site_fract_z
Si Si1 0.322165 0.416354 0.383039
Si Si2 0.177861 0.915573 0.683389
Si Si3 0.827596 0.414489 0.283162
Si Si4 0.178234 0.298563 0.556453
Si Si5 0.678965 0.842771 0.408348
Si Si6 0.325567 0.415704 0.000000
O O1 0.500000 0.404450 0.385072
O O2 0.295369 0.500000 0.388286
O O3 0.258589 0.393745 0.331260
O O4 0.238464 0.371898 0.423201
O O5 0.245259 0.893162 0.734482
O O6 0.258300 0.876179 0.640196
O O7 0.000000 0.903072 0.682037
O O8 0.201476 0.000000 0.678296
O O9 0.828168 0.500000 0.282912
O O10 0.000000 0.390726 0.284093
O O11 0.209336 0.291490 0.500000
O O12 0.261562 0.236157 0.584179
O O13 0.000000 0.292980 0.563453
O O14 0.500000 0.844808 0.409022
O O15 0.745454 0.886282 0.453017
O O16 0.321612 0.500000 0.000000
O O17 0.500000 0.392716 0.000000
#
# Coordination Sequence:
#
# PCOD9522050 Si02
#       6
#    16  16  16  16  16   8
#     4  10  21  38  62  91 121 152 190 237 290 350
#     4  10  20  35  57  85 119 158 198 241 290 344
#     4   9  17  32  56  86 119 153 192 238 288 343
#     4  11  24  42  63  84 114 155 196 241 296 354
#     4  12  24  38  58  84 116 154 197 244 294 347
#     4  11  23  39  59  83 114 153 198 245 291 341
#
# _framework density 18.538909
#
# number of rings (size 3 to 8) (size 9 to 14) (size 15 to 20)
#    0.000    1.545    0.909    4.636    0.000    8.727 
#    0.000    2.727    0.000    0.000    0.000    0.000 
#    0.000    0.000    0.000    0.000    0.000    0.000 
#
# Total GULP energy -245917.374953 kJ/mol
# GULP energy per Si atom -5589.031249 kJ/mol
# Density = 1.849671 g / cm^3
# Si number density = 18.538909 Si / 1000 Ang^3
#
#
#
# Elastic Constant Matrix: (Units=GPa)
#
#
# Indices 1 2 3 4 5 6 
#
# 1 130.7100 46.6021 44.1699 0.0000 0.0000 0.0000
# 2 46.6021 46.8925 25.9725 0.0000 0.0000 0.0000
# 3 44.1699 25.9725 53.5033 0.0000 0.0000 0.0000
# 4 0.0000 0.0000 0.0000 500.2171 0.0000 0.0000
# 5 0.0000 0.0000 0.0000 0.0000 38.3143 0.0000
# 6 0.0000 0.0000 0.0000 0.0000 0.0000 27.9220
#
#
#
# Elastic Compliance Matrix: (Units=1/GPa)
#
#
# Indices 1 2 3 4 5 6 
#
# 1 0.013196 -0.009684 -0.006193 0.000000 0.000000 0.000000
# 2 -0.009684 0.036275 -0.009614 0.000000 0.000000 0.000000
# 3 -0.006193 -0.009614 0.028470 0.000000 0.000000 0.000000
# 4 0.000000 0.000000 0.000000 0.001999 0.000000 0.000000
# 5 0.000000 0.000000 0.000000 0.000000 0.026100 0.000000
# 6 0.000000 0.000000 0.000000 0.000000 0.000000 0.035814
#
#
# Mechanical properties :
#
#
# Convention : Reuss Voigt Hill
#
# Bulk Modulus (GPa) = 37.09466 51.62164 44.35815
# Shear Modulus (GPa) = 24.77424 120.91475 72.84450
#
# Velocity S-wave (km/s) = 3.65956 8.08478 6.27519
# Velocity P-wave (km/s) = 6.15703 10.72647 8.74546
#
# Compressibility (1/GPa) = 0.02695806
#
# Stress axis : x y z
#
# Youngs Moduli (GPa) = 75.78084 27.56752 35.12445
#
# Poissons Ratio (x) = 0.26697 0.21752
# Poissons Ratio (y) = 0.73387 0.33770
# Poissons Ratio (z) = 0.46931 0.26504
#
# Static dielectric constant tensor:
#      x y z
#    x 1.615610 0.000000 0.000000 
#    y 0.000000 1.638240 0.000000 
#    z 0.000000 0.000000 1.608850 
# 
# From -- ./inp_files/10395.got.cif
#   From: 2010.05.17/outbox.cif.g08.bks.cpg/sg71_6_cif.got.tgz:10395.got - 2010.06.03 16:22:01.
