data_PCOD9522380
_publ_section_title
;
Structure prediction by ZEFSAII (Michael W. Deem and Ramdas Pophale) SiO2 
 PCOD9522380
Probable space group: I M M M
;
_chemical_formula_sum "Si O2"
_cell_formula_units_Z 96
_cell_length_a 8.891814
_cell_length_b 25.500412
_cell_length_c 21.749635
_cell_angle_alpha 90.000000
_cell_angle_beta 90.000000
_cell_angle_gamma 90.000000
_cell_volume 4931.619257
_symmetry_space_group_name_H-M "I M M M"
_symmetry_group_IT_number 71
_symmetry_cell_setting 'orthorhombic'
loop_
_space_group_symop_operation_xyz
x,y,z
-x,-y,z
x,-y,-z
-x,y,-z
-x,-y,-z
x,y,-z
-x,y,z
x,-y,z
1/2+x,1/2+y,1/2+z
1/2-x,1/2-y,1/2+z
1/2+x,1/2-y,1/2-z
1/2-x,1/2+y,1/2-z
1/2-x,1/2-y,1/2-z
1/2+x,1/2+y,1/2-z
1/2-x,1/2+y,1/2+z
1/2+x,1/2-y,1/2+z
loop_
_atom_site_type_symbol
_atom_site_label
_atom_site_fract_x
_atom_site_fract_y
_atom_site_fract_z
Si Si1 0.679675 0.057863 0.603156
Si Si2 0.179829 0.558861 0.363345
Si Si3 0.328723 0.695969 0.738655
Si Si4 0.181749 0.915780 0.268896
Si Si5 0.320409 0.241670 0.000000
Si Si6 0.826027 0.163527 0.096034
Si Si7 0.682204 0.858434 0.500000
O O1 0.500000 0.062490 0.613268
O O2 0.762383 0.059128 0.668458
O O3 0.725035 0.105733 0.558897
O O4 0.705794 0.000000 0.575056
O O5 0.210470 0.500000 0.386866
O O6 0.247814 0.562474 0.294182
O O7 0.251373 0.605896 0.402993
O O8 0.000000 0.566172 0.359971
O O9 0.500000 0.701758 0.758647
O O10 0.250000 0.750000 0.750000
O O11 0.266250 0.644961 0.772489
O O12 0.324797 0.681527 0.666913
O O13 0.000000 0.918025 0.263351
O O14 0.261629 0.206943 0.942799
O O15 0.252710 0.300478 0.000000
O O16 0.500000 0.244759 0.000000
O O17 0.000000 0.160556 0.076122
O O18 0.500000 0.853373 0.500000
#
# Coordination Sequence:
#
# PCOD9522380 Si02
#       7
#    16  16  16  16   8  16   8
#     4  10  21  38  60  85 114 152 199 248 297 351
#     4  10  20  36  60  91 124 157 195 238 289 350
#     4   9  20  35  54  81 114 150 190 236 287 344
#     4  10  21  35  53  84 121 157 196 239 292 352
#     4  12  26  43  64  88 118 156 199 247 295 350
#     4  10  22  41  62  87 118 156 198 242 295 349
#     4  10  23  42  62  83 111 152 199 250 301 353
#
# _framework density 19.466221999999998
#
# number of rings (size 3 to 8) (size 9 to 14) (size 15 to 20)
#    0.000    2.000    0.000    4.000    2.333    9.333 
#    0.000    0.417    0.000    4.000    0.000    0.000 
#    0.000    0.000    0.000    0.000    0.000    0.000 
#
# Total GULP energy -267885.947792 kJ/mol
# GULP energy per Si atom -5580.957246 kJ/mol
# Density = 1.942192 g / cm^3
# Si number density = 19.466222 Si / 1000 Ang^3
#
#
#
# Elastic Constant Matrix: (Units=GPa)
#
#
# Indices 1 2 3 4 5 6 
#
# 1 78.4177 68.1451 22.4420 0.0000 0.0000 0.0000
# 2 68.1451 197.5150 41.9662 0.0000 0.0000 0.0000
# 3 22.4420 41.9662 52.8667 0.0000 0.0000 0.0000
# 4 0.0000 0.0000 0.0000 8.4830 0.0000 0.0000
# 5 0.0000 0.0000 0.0000 0.0000 24.2012 0.0000
# 6 0.0000 0.0000 0.0000 0.0000 0.0000 34.2755
#
#
#
# Elastic Compliance Matrix: (Units=1/GPa)
#
#
# Indices 1 2 3 4 5 6 
#
# 1 0.018704 -0.005733 -0.003389 0.000000 0.000000 0.000000
# 2 -0.005733 0.007847 -0.003796 0.000000 0.000000 0.000000
# 3 -0.003389 -0.003796 0.023367 0.000000 0.000000 0.000000
# 4 0.000000 0.000000 0.000000 0.117883 0.000000 0.000000
# 5 0.000000 0.000000 0.000000 0.000000 0.041320 0.000000
# 6 0.000000 0.000000 0.000000 0.000000 0.000000 0.029175
#
#
# Mechanical properties :
#
#
# Convention : Reuss Voigt Hill
#
# Bulk Modulus (GPa) = 41.52256 65.98956 53.75606
# Shear Modulus (GPa) = 18.37153 26.47501 22.42327
#
# Velocity S-wave (km/s) = 3.07541 3.69188 3.39766
# Velocity P-wave (km/s) = 5.82990 7.22125 6.56255
#
# Compressibility (1/GPa) = 0.02408330
#
# Stress axis : x y z
#
# Youngs Moduli (GPa) = 53.46394 127.43145 42.79524
#
# Poissons Ratio (x) = 0.73058 0.14503
# Poissons Ratio (y) = 0.30652 0.16243
# Poissons Ratio (z) = 0.18119 0.48368
#
# Static dielectric constant tensor:
#      x y z
#    x 1.664940 0.000000 0.000000 
#    y 0.000000 1.702100 0.000000 
#    z 0.000000 0.000000 1.681580 
# 
# From -- ./inp_files/57750.got.cif
#   From: 2010.05.17/outbox.cif.g08.bks.cpg/sg71_29_cif.got.tgz:57750.got - 2010.06.03 16:22:01.
