data_PCOD9522652
_publ_section_title
;
Structure prediction by ZEFSAII (Michael W. Deem and Ramdas Pophale) SiO2 
 PCOD9522652
Probable space group: I M M M
;
_chemical_formula_sum "Si O2"
_cell_formula_units_Z 80
_cell_length_a 14.999987
_cell_length_b 23.229511
_cell_length_c 12.406685
_cell_angle_alpha 90.000000
_cell_angle_beta 90.000000
_cell_angle_gamma 90.000000
_cell_volume 4323.014639
_symmetry_space_group_name_H-M "I M M M"
_symmetry_group_IT_number 71
_symmetry_cell_setting 'orthorhombic'
loop_
_space_group_symop_operation_xyz
x,y,z
-x,-y,z
x,-y,-z
-x,y,-z
-x,-y,-z
x,y,-z
-x,y,z
x,-y,z
1/2+x,1/2+y,1/2+z
1/2-x,1/2-y,1/2+z
1/2+x,1/2-y,1/2-z
1/2-x,1/2+y,1/2-z
1/2-x,1/2-y,1/2-z
1/2+x,1/2+y,1/2-z
1/2-x,1/2+y,1/2+z
1/2+x,1/2-y,1/2+z
loop_
_atom_site_type_symbol
_atom_site_label
_atom_site_fract_x
_atom_site_fract_y
_atom_site_fract_z
Si Si1 0.845346 0.622907 0.783954
Si Si2 0.398288 0.500000 0.190762
Si Si3 0.500000 0.833027 0.128910
Si Si4 0.394932 0.319541 0.500000
Si Si5 0.640187 0.626199 0.728848
Si Si6 0.393103 0.809031 0.500000
Si Si7 0.000000 0.194534 0.628262
Si Si8 0.192788 0.500000 0.124752
O O1 0.743924 0.633826 0.751555
O O2 0.845759 0.555880 0.816240
O O3 0.914361 0.640897 0.690962
O O4 0.865236 0.658463 0.892007
O O5 0.500000 0.500000 0.141366
O O6 0.390225 0.559990 0.255373
O O7 0.302587 0.500000 0.127270
O O8 0.500000 0.763501 0.143372
O O9 0.500000 0.844530 0.000000
O O10 0.500000 0.310574 0.500000
O O11 0.374102 0.353517 0.607765
O O12 0.354396 0.255557 0.500000
O O13 0.583759 0.665242 0.811818
O O14 0.500000 0.807862 0.500000
O O15 0.000000 0.182351 0.500000
O O16 0.166343 0.500000 0.000000
#
# Coordination Sequence:
#
# PCOD9522652 Si02
#       8
#    16   8   8   8  16   8   8   8
#     4  11  24  43  65  95 130 162 215 263 320 379
#     4  10  20  40  63  90 130 171 203 252 316 370
#     4  11  26  46  65  89 130 174 214 264 317 380
#     4  11  22  39  63  90 128 167 213 262 309 371
#     4  11  24  41  63  96 129 167 214 259 313 382
#     4  11  22  39  65  92 123 166 207 272 322 362
#     4  11  24  42  64  94 132 170 211 262 320 382
#     4  10  22  40  65  99 127 160 206 265 319 373
#
# _framework density 18.505604000000002
#
# number of rings (size 3 to 8) (size 9 to 14) (size 15 to 20)
#    0.000    1.200    4.000    1.200    2.800    5.000 
#    0.000    3.000    0.000    0.000    0.000    0.000 
#    0.000    0.000    0.000    0.000    0.000    0.000 
#
# Total GULP energy -223250.461782 kJ/mol
# GULP energy per Si atom -5581.261545 kJ/mol
# Density = 1.846348 g / cm^3
# Si number density = 18.505604 Si / 1000 Ang^3
#
#
#
# Elastic Constant Matrix: (Units=GPa)
#
#
# Indices 1 2 3 4 5 6 
#
# 1 132.2434 65.1643 72.6720 0.0000 0.0000 0.0000
# 2 65.1643 150.2302 98.6563 -0.0001 0.0001 0.0000
# 3 72.6720 98.6563 181.0064 -0.0003 0.0002 0.0001
# 4 0.0000 -0.0001 -0.0003 16.5349 0.0001 0.0002
# 5 0.0000 0.0001 0.0002 0.0001 24.2957 -0.0001
# 6 0.0000 0.0000 0.0001 0.0002 -0.0001 22.5690
#
#
#
# Elastic Compliance Matrix: (Units=1/GPa)
#
#
# Indices 1 2 3 4 5 6 
#
# 1 0.010385 -0.002751 -0.002670 0.000000 0.000000 0.000000
# 2 -0.002751 0.011096 -0.004943 0.000000 0.000000 0.000000
# 3 -0.002670 -0.004943 0.009291 0.000000 0.000000 0.000000
# 4 0.000000 0.000000 0.000000 0.060478 0.000000 0.000000
# 5 0.000000 0.000000 0.000000 0.000000 0.041160 0.000000
# 6 0.000000 0.000000 0.000000 0.000000 0.000000 0.044309
#
#
# Mechanical properties :
#
#
# Convention : Reuss Voigt Hill
#
# Bulk Modulus (GPa) = 99.57149 104.05170 101.81160
# Shear Modulus (GPa) = 24.90115 27.81241 26.35678
#
# Velocity S-wave (km/s) = 3.67222 3.88096 3.77803
# Velocity P-wave (km/s) = 8.47958 8.74252 8.61205
#
# Compressibility (1/GPa) = 0.01004303
#
# Stress axis : x y z
#
# Youngs Moduli (GPa) = 96.29609 90.12204 107.63289
#
# Poissons Ratio (x) = 0.24795 0.28736
# Poissons Ratio (y) = 0.26493 0.53206
# Poissons Ratio (z) = 0.25709 0.44550
#
# Static dielectric constant tensor:
#      x y z
#    x 1.636890 0.000000 0.000000 
#    y 0.000000 1.648280 0.000000 
#    z 0.000000 0.000000 1.438700 
# 
# From -- ./inp_files/21977.got.cif
#   From: 2010.05.17/outbox.cif.g08.bks.cpg/sg71_11_cif.got.tgz:21977.got - 2010.06.03 16:22:01.
