data_PCOD9522205
_publ_section_title
;
Structure prediction by ZEFSAII (Michael W. Deem and Ramdas Pophale) SiO2 
 PCOD9522205
Probable space group: I M M M
;
_chemical_formula_sum "Si O2"
_cell_formula_units_Z 120
_cell_length_a 25.488643
_cell_length_b 28.578074
_cell_length_c 8.786790
_cell_angle_alpha 90.000000
_cell_angle_beta 90.000000
_cell_angle_gamma 90.000000
_cell_volume 6400.441287
_symmetry_space_group_name_H-M "I M M M"
_symmetry_group_IT_number 71
_symmetry_cell_setting 'orthorhombic'
loop_
_space_group_symop_operation_xyz
x,y,z
-x,-y,z
x,-y,-z
-x,y,-z
-x,-y,-z
x,y,-z
-x,y,z
x,-y,z
1/2+x,1/2+y,1/2+z
1/2-x,1/2-y,1/2+z
1/2+x,1/2-y,1/2-z
1/2-x,1/2+y,1/2-z
1/2-x,1/2-y,1/2-z
1/2+x,1/2+y,1/2-z
1/2-x,1/2+y,1/2+z
1/2+x,1/2-y,1/2+z
loop_
_atom_site_type_symbol
_atom_site_label
_atom_site_fract_x
_atom_site_fract_y
_atom_site_fract_z
Si Si1 0.937078 0.352979 0.172217
Si Si2 0.500000 0.554401 0.314518
Si Si3 0.640421 0.790143 0.177680
Si Si4 0.111151 0.095447 0.817709
Si Si5 0.834481 0.191184 0.180451
Si Si6 0.563857 0.948286 0.822685
Si Si7 0.269141 0.852591 0.681669
Si Si8 0.283433 0.552585 0.816386
O O1 0.914682 0.314207 0.284046
O O2 0.918457 0.404476 0.223858
O O3 0.000000 0.353234 0.175082
O O4 0.919491 0.343240 0.000000
O O5 0.500000 0.500000 0.269678
O O6 0.500000 0.556008 0.500000
O O7 0.553950 0.578967 0.264255
O O8 0.647325 0.741988 0.267964
O O9 0.682859 0.827848 0.235643
O O10 0.647229 0.781368 0.000000
O O11 0.123214 0.150159 0.789560
O O12 0.158989 0.066736 0.744004
O O13 0.113816 0.088067 0.000000
O O14 0.782654 0.176527 0.272408
O O15 0.822858 0.190901 0.000000
O O16 0.500000 0.948656 0.817438
O O17 0.581496 0.000000 0.772396
O O18 0.578150 0.941806 0.000000
O O19 0.276680 0.851266 0.500000
O O20 0.256370 0.906012 0.730292
O O21 0.269711 0.500000 0.766503
O O22 0.285135 0.553344 0.000000
#
# Coordination Sequence:
#
# PCOD9522205 Si02
#       8
#    16   8  16  16  16  16  16  16
#     4  10  21  37  56  79 107 139 178 221 265 318
#     4   9  16  28  49  79 113 147 185 225 264 307
#     4  12  24  38  57  79 106 140 179 224 278 332
#     4   9  18  32  52  78 108 145 187 229 268 317
#     4  10  20  36  56  80 108 138 180 228 278 328
#     4   8  14  27  49  75 102 133 168 207 252 302
#     4  10  20  36  58  82 109 139 177 223 271 326
#     4   9  18  33  54  80 111 145 178 217 270 326
#
# _framework density 18.748708000000001
#
# number of rings (size 3 to 8) (size 9 to 14) (size 15 to 20)
#    0.000    2.333    0.000    3.600    0.000    2.933 
#    1.200    2.333    0.000    3.600    0.000    0.000 
#    0.000    0.000    0.000    0.000    0.000    0.000 
#
# Total GULP energy -334795.695825 kJ/mol
# GULP energy per Si atom -5579.928264 kJ/mol
# Density = 1.870603 g / cm^3
# Si number density = 18.748708 Si / 1000 Ang^3
#
#
#
# Elastic Constant Matrix: (Units=GPa)
#
#
# Indices 1 2 3 4 5 6 
#
# 1 40.6608 24.2568 8.5551 0.0000 0.0000 0.0000
# 2 24.2568 112.3530 13.2857 0.0000 0.0000 0.0000
# 3 8.5551 13.2857 26.8339 0.0000 0.0000 0.0000
# 4 0.0000 0.0000 0.0000 20.4528 0.0000 0.0000
# 5 0.0000 0.0000 0.0000 0.0000 22.4818 0.0000
# 6 0.0000 0.0000 0.0000 0.0000 0.0000 13.9146
#
#
#
# Elastic Compliance Matrix: (Units=1/GPa)
#
#
# Indices 1 2 3 4 5 6 
#
# 1 0.029288 -0.005544 -0.006593 0.000000 0.000000 0.000000
# 2 -0.005544 0.010503 -0.003433 0.000000 0.000000 0.000000
# 3 -0.006593 -0.003433 0.041068 0.000000 0.000000 0.000000
# 4 0.000000 0.000000 0.000000 0.048893 0.000000 0.000000
# 5 0.000000 0.000000 0.000000 0.000000 0.044480 0.000000
# 6 0.000000 0.000000 0.000000 0.000000 0.000000 0.071867
#
#
# Mechanical properties :
#
#
# Convention : Reuss Voigt Hill
#
# Bulk Modulus (GPa) = 20.11241 30.22698 25.16970
# Shear Modulus (GPa) = 17.01772 20.28653 18.65212
#
# Velocity S-wave (km/s) = 3.01603 3.29298 3.15754
# Velocity P-wave (km/s) = 4.78322 5.53312 5.17178
#
# Compressibility (1/GPa) = 0.04972056
#
# Stress axis : x y z
#
# Youngs Moduli (GPa) = 34.14372 95.20799 24.34991
#
# Poissons Ratio (x) = 0.52780 0.16053
# Poissons Ratio (y) = 0.18928 0.08359
# Poissons Ratio (z) = 0.22510 0.32684
#
# Static dielectric constant tensor:
#      x y z
#    x 1.653020 0.000000 0.000000 
#    y 0.000000 1.648170 0.000000 
#    z 0.000000 0.000000 1.634960 
# 
# From -- ./inp_files/15614.got.cif
#   From: 2010.05.17/outbox.cif.g08.bks.cpg/sg71_8_cif.got.tgz:15614.got - 2010.06.03 16:22:01.
