data_PCOD9522972
_publ_section_title
;
Structure prediction by ZEFSAII (Michael W. Deem and Ramdas Pophale) SiO2 
 PCOD9522972
Probable space group: I M M M
;
_chemical_formula_sum "Si O2"
_cell_formula_units_Z 96
_cell_length_a 9.913253
_cell_length_b 20.352072
_cell_length_c 23.539777
_cell_angle_alpha 90.000000
_cell_angle_beta 90.000000
_cell_angle_gamma 90.000000
_cell_volume 4749.273330
_symmetry_space_group_name_H-M "I M M M"
_symmetry_group_IT_number 71
_symmetry_cell_setting 'orthorhombic'
loop_
_space_group_symop_operation_xyz
x,y,z
-x,-y,z
x,-y,-z
-x,y,-z
-x,-y,-z
x,y,-z
-x,y,z
x,-y,z
1/2+x,1/2+y,1/2+z
1/2-x,1/2-y,1/2+z
1/2+x,1/2-y,1/2-z
1/2-x,1/2+y,1/2-z
1/2-x,1/2-y,1/2-z
1/2+x,1/2+y,1/2-z
1/2-x,1/2+y,1/2+z
1/2+x,1/2-y,1/2+z
loop_
_atom_site_type_symbol
_atom_site_label
_atom_site_fract_x
_atom_site_fract_y
_atom_site_fract_z
Si Si1 0.840558 0.712582 0.596352
Si Si2 0.157491 0.858629 0.437959
Si Si3 0.150504 0.422379 0.153525
Si Si4 0.342648 0.070463 0.092814
Si Si5 0.240951 0.926411 0.220852
Si Si6 0.152804 0.784551 0.204912
O O1 0.835393 0.779438 0.561550
O O2 0.800176 0.641852 0.570104
O O3 0.734469 0.723076 0.646737
O O4 0.000000 0.706226 0.614865
O O5 0.203254 0.883426 0.500000
O O6 0.242210 0.885368 0.385288
O O7 0.000000 0.876213 0.430607
O O8 0.159297 0.500000 0.140708
O O9 0.175633 0.416823 0.221153
O O10 0.000000 0.398876 0.140350
O O11 0.500000 0.066267 0.079232
O O12 0.324059 0.074655 0.161579
O O13 0.279799 0.000000 0.075274
O O14 0.148167 0.862617 0.217381
O O15 0.179801 0.000000 0.224108
O O16 0.250000 0.750000 0.250000
O O17 0.000000 0.758620 0.204557
#
# Coordination Sequence:
#
# PCOD9522972 Si02
#       6
#    16  16  16  16  16  16
#     4   9  18  33  52  73  98 130 168 208 250 298
#     4  10  22  39  56  73  96 130 172 218 268 317
#     4  10  21  36  55  79 104 131 168 215 261 304
#     4   8  13  24  46  75 105 135 163 191 230 285
#     4   9  18  32  50  74 106 140 169 198 238 291
#     4  11  22  33  48  73 105 137 168 204 245 293
#
# _framework density 20.213619999999999
#
# number of rings (size 3 to 8) (size 9 to 14) (size 15 to 20)
#    0.000    2.500    0.000    2.000    0.000    9.333 
#    0.000    3.333    0.000    0.500    0.000    3.500 
#    0.000    0.000    0.000    9.833    0.000    5.000 
#
# Total GULP energy -267311.062180 kJ/mol
# GULP energy per Si atom -5568.980462 kJ/mol
# Density = 2.016761 g / cm^3
# Si number density = 20.213620 Si / 1000 Ang^3
#
#
#
# Elastic Constant Matrix: (Units=GPa)
#
#
# Indices 1 2 3 4 5 6 
#
# 1 89.1230 24.4517 31.9243 0.0000 0.0000 0.0000
# 2 24.4517 65.7006 21.2189 0.0000 0.0000 0.0000
# 3 31.9243 21.2189 65.8462 0.0000 0.0000 0.0000
# 4 0.0000 0.0000 0.0000 -7.7520 0.0000 0.0000
# 5 0.0000 0.0000 0.0000 0.0000 -5.2722 0.0000
# 6 0.0000 0.0000 0.0000 0.0000 0.0000 19.1285
#
#
#
# Elastic Compliance Matrix: (Units=1/GPa)
#
#
# Indices 1 2 3 4 5 6 
#
# 1 0.014238 -0.003426 -0.005799 0.000000 0.000000 0.000000
# 2 -0.003426 0.017813 -0.004079 0.000000 0.000000 0.000000
# 3 -0.005799 -0.004079 0.019313 0.000000 0.000000 0.000000
# 4 0.000000 0.000000 0.000000 -0.129000 0.000000 0.000000
# 5 0.000000 0.000000 0.000000 0.000000 -0.189672 0.000000
# 6 0.000000 0.000000 0.000000 0.000000 0.000000 0.052278
#
#
# Mechanical properties :
#
#
# Convention : Reuss Voigt Hill
#
# Bulk Modulus (GPa) = 40.39508 41.76218 41.07863
# Shear Modulus (GPa) = -27.75143 10.75919 -8.49612
#
# Velocity S-wave (km/s) = -3.70930 2.30961 -2.05239
# Velocity P-wave (km/s) = 1.29704 5.27425 3.84057
#
# Compressibility (1/GPa) = 0.02475549
#
# Stress axis : x y z
#
# Youngs Moduli (GPa) = 70.23676 56.13865 51.77891
#
# Poissons Ratio (x) = 0.19233 0.30026
# Poissons Ratio (y) = 0.24063 0.21122
# Poissons Ratio (z) = 0.40729 0.22900
#
# Static dielectric constant tensor:
#      x y z
#    x 1.686060 0.000000 0.000000 
#    y 0.000000 1.800260 0.000000 
#    z 0.000000 0.000000 1.716360 
# 
# From -- ./inp_files/52021.got.cif
#   From: 2010.05.17/outbox.cif.g08.bks.cpg/sg71_27_cif.got.tgz:52021.got - 2010.06.03 16:22:01.
