data_PCOD9522580
_publ_section_title
;
Structure prediction by ZEFSAII (Michael W. Deem and Ramdas Pophale) SiO2 
 PCOD9522580
Probable space group: I M M M
;
_chemical_formula_sum "Si O2"
_cell_formula_units_Z 104
_cell_length_a 16.216547
_cell_length_b 17.608723
_cell_length_c 20.142882
_cell_angle_alpha 90.000000
_cell_angle_beta 90.000000
_cell_angle_gamma 90.000000
_cell_volume 5751.854021
_symmetry_space_group_name_H-M "I M M M"
_symmetry_group_IT_number 71
_symmetry_cell_setting 'orthorhombic'
loop_
_space_group_symop_operation_xyz
x,y,z
-x,-y,z
x,-y,-z
-x,y,-z
-x,-y,-z
x,y,-z
-x,y,z
x,-y,z
1/2+x,1/2+y,1/2+z
1/2-x,1/2-y,1/2+z
1/2+x,1/2-y,1/2-z
1/2-x,1/2+y,1/2-z
1/2-x,1/2-y,1/2-z
1/2+x,1/2+y,1/2-z
1/2-x,1/2+y,1/2+z
1/2+x,1/2-y,1/2+z
loop_
_atom_site_type_symbol
_atom_site_label
_atom_site_fract_x
_atom_site_fract_y
_atom_site_fract_z
Si Si1 0.596515 0.818857 0.810694
Si Si2 0.262618 0.084244 0.620777
Si Si3 0.596292 0.297881 0.313186
Si Si4 0.138350 0.201345 0.423158
Si Si5 0.902576 0.326753 0.077205
Si Si6 0.000000 0.915498 0.580518
Si Si7 0.257850 0.412681 0.721572
O O1 0.500000 0.843803 0.814481
O O2 0.602077 0.759428 0.749502
O O3 0.621579 0.772219 0.876562
O O4 0.668214 0.880468 0.799537
O O5 0.223733 0.157222 0.584630
O O6 0.358295 0.100046 0.608454
O O7 0.241160 0.089697 0.698120
O O8 0.237796 0.000000 0.596179
O O9 0.500000 0.324371 0.316150
O O10 0.615479 0.247188 0.377934
O O11 0.666190 0.361550 0.304080
O O12 0.122038 0.219168 0.500000
O O13 0.077412 0.134163 0.399645
O O14 0.000000 0.337452 0.081542
O O15 0.881080 0.317022 0.000000
O O16 0.000000 0.920157 0.500000
O O17 0.000000 0.000000 0.607690
O O18 0.267036 0.500000 0.700719
#
# Coordination Sequence:
#
# PCOD9522580 Si02
#       7
#    16  16  16  16  16   8  16
#     4  11  21  37  61  83 109 152 199 240 280 333
#     4  11  22  35  52  80 118 156 188 224 275 339
#     4  10  20  38  62  85 110 147 191 236 287 344
#     4  11  21  34  54  82 112 149 189 227 275 335
#     4  10  21  37  58  84 111 144 188 237 286 338
#     4   9  18  32  48  74 115 149 174 214 266 327
#     4  11  23  38  58  85 118 151 191 243 290 334
#
# _framework density 18.081126999999999
#
# number of rings (size 3 to 8) (size 9 to 14) (size 15 to 20)
#    0.000    1.462    3.846    2.308    0.000    2.769 
#    0.000    2.308    0.000    1.846    0.000    3.231 
#    0.000    0.000    0.000    0.000    0.000    0.000 
#
# Total GULP energy -290042.038937 kJ/mol
# GULP energy per Si atom -5577.731518 kJ/mol
# Density = 1.803997 g / cm^3
# Si number density = 18.081127 Si / 1000 Ang^3
#
#
#
# Elastic Constant Matrix: (Units=GPa)
#
#
# Indices 1 2 3 4 5 6 
#
# 1 104.3110 45.4756 13.4140 0.0000 0.0000 0.0000
# 2 45.4756 40.2497 -3.2139 0.0000 0.0000 0.0000
# 3 13.4140 -3.2139 41.2056 0.0000 0.0000 0.0000
# 4 0.0000 0.0000 0.0000 18.6427 0.0000 0.0000
# 5 0.0000 0.0000 0.0000 0.0000 23.8339 0.0000
# 6 0.0000 0.0000 0.0000 0.0000 0.0000 11.6484
#
#
#
# Elastic Compliance Matrix: (Units=1/GPa)
#
#
# Indices 1 2 3 4 5 6 
#
# 1 0.021817 -0.025375 -0.009081 0.000000 0.000000 0.000000
# 2 -0.025375 0.054514 0.012512 0.000000 0.000000 0.000000
# 3 -0.009081 0.012512 0.028201 0.000000 0.000000 0.000000
# 4 0.000000 0.000000 0.000000 0.053640 0.000000 0.000000
# 5 0.000000 0.000000 0.000000 0.000000 0.041957 0.000000
# 6 0.000000 0.000000 0.000000 0.000000 0.000000 0.085849
#
#
# Mechanical properties :
#
#
# Convention : Reuss Voigt Hill
#
# Bulk Modulus (GPa) = 16.48977 33.01307 24.75142
# Shear Modulus (GPa) = 14.28245 19.49770 16.89007
#
# Velocity S-wave (km/s) = 2.81358 3.28738 3.05967
# Velocity P-wave (km/s) = 4.43787 5.71901 5.11868
#
# Compressibility (1/GPa) = 0.06064364
#
# Stress axis : x y z
#
# Youngs Moduli (GPa) = 45.83576 18.34407 35.45990
#
# Poissons Ratio (x) = 0.46548 0.32203
# Poissons Ratio (y) = 1.16308 -0.44369
# Poissons Ratio (z) = 0.41626 -0.22953
#
# Static dielectric constant tensor:
#      x y z
#    x 1.599510 0.000000 0.000000 
#    y 0.000000 1.602540 0.000000 
#    z 0.000000 0.000000 1.612580 
# 
# From -- ./inp_files/54139.got.cif
#   From: 2010.05.17/outbox.cif.g08.bks.cpg/sg71_28_cif.got.tgz:54139.got - 2010.06.03 16:22:01.
