data_PCOD9522556
_publ_section_title
;
Structure prediction by ZEFSAII (Michael W. Deem and Ramdas Pophale) SiO2 
 PCOD9522556
Probable space group: I M M M
;
_chemical_formula_sum "Si O2"
_cell_formula_units_Z 96
_cell_length_a 8.867535
_cell_length_b 24.197834
_cell_length_c 25.881862
_cell_angle_alpha 90.000000
_cell_angle_beta 90.000000
_cell_angle_gamma 90.000000
_cell_volume 5553.604160
_symmetry_space_group_name_H-M "I M M M"
_symmetry_group_IT_number 71
_symmetry_cell_setting 'orthorhombic'
loop_
_space_group_symop_operation_xyz
x,y,z
-x,-y,z
x,-y,-z
-x,y,-z
-x,-y,-z
x,y,-z
-x,y,z
x,-y,z
1/2+x,1/2+y,1/2+z
1/2-x,1/2-y,1/2+z
1/2+x,1/2-y,1/2-z
1/2-x,1/2+y,1/2-z
1/2-x,1/2-y,1/2-z
1/2+x,1/2+y,1/2-z
1/2-x,1/2+y,1/2+z
1/2+x,1/2-y,1/2+z
loop_
_atom_site_type_symbol
_atom_site_label
_atom_site_fract_x
_atom_site_fract_y
_atom_site_fract_z
Si Si1 0.818973 0.689140 0.747221
Si Si2 0.318799 0.182789 0.939707
Si Si3 0.182414 0.500000 0.810636
Si Si4 0.818697 0.000000 0.195997
Si Si5 0.818293 0.809980 0.440587
Si Si6 0.180607 0.119174 0.153711
Si Si7 0.318760 0.880738 0.349747
O O1 0.750000 0.750000 0.750000
O O2 0.753655 0.656886 0.698158
O O3 0.779445 0.655058 0.798976
O O4 0.000000 0.692128 0.743418
O O5 0.500000 0.178985 0.933677
O O6 0.274880 0.246503 0.927757
O O7 0.239067 0.141322 0.900899
O O8 0.283997 0.172751 0.000000
O O9 0.245174 0.500000 0.752554
O O10 0.229560 0.556171 0.839389
O O11 0.000000 0.500000 0.807548
O O12 0.776827 0.944181 0.165835
O O13 0.000000 0.000000 0.202358
O O14 0.772507 0.820924 0.500000
O O15 0.751162 0.852325 0.399814
O O16 0.000000 0.812178 0.438745
O O17 0.000000 0.123861 0.156212
O O18 0.500000 0.880139 0.354557
#
# Coordination Sequence:
#
# PCOD9522556 Si02
#       7
#    16  16   8   8  16  16  16
#     4  11  22  35  53  80 112 143 178 224 278 332
#     4   9  19  37  59  82 109 144 185 227 275 330
#     4  10  20  38  57  76 105 143 186 228 268 317
#     4  10  22  38  55  78 109 147 188 226 270 327
#     4   9  19  36  57  80 108 142 178 219 269 324
#     4  11  22  36  55  81 111 144 185 227 274 330
#     4  10  21  35  54  79 106 139 180 223 269 320
#
# _framework density 17.286072000000001
#
# number of rings (size 3 to 8) (size 9 to 14) (size 15 to 20)
#    0.000    2.000    1.667    3.000    0.000    6.667 
#    0.000    2.500    0.000    5.000    0.000    0.000 
#    0.000    0.000    0.000    0.000    0.000    0.000 
#
# Total GULP energy -268017.346272 kJ/mol
# GULP energy per Si atom -5583.694714 kJ/mol
# Density = 1.724673 g / cm^3
# Si number density = 17.286072 Si / 1000 Ang^3
#
#
#
# Elastic Constant Matrix: (Units=GPa)
#
#
# Indices 1 2 3 4 5 6 
#
# 1 27.7444 49.3496 41.4164 0.0000 0.0000 0.0000
# 2 49.3496 176.2143 95.7214 0.0000 0.0000 0.0000
# 3 41.4164 95.7214 117.5423 0.0000 0.0000 0.0000
# 4 0.0000 0.0000 0.0000 17.8832 0.0000 0.0000
# 5 0.0000 0.0000 0.0000 0.0000 35.5484 0.0000
# 6 0.0000 0.0000 0.0000 0.0000 0.0000 26.9935
#
#
#
# Elastic Compliance Matrix: (Units=1/GPa)
#
#
# Indices 1 2 3 4 5 6 
#
# 1 0.093741 -0.014903 -0.020894 0.000000 0.000000 0.000000
# 2 -0.014903 0.012546 -0.004966 0.000000 0.000000 0.000000
# 3 -0.020894 -0.004966 0.019913 0.000000 0.000000 0.000000
# 4 0.000000 0.000000 0.000000 0.055918 0.000000 0.000000
# 5 0.000000 0.000000 0.000000 0.000000 0.028131 0.000000
# 6 0.000000 0.000000 0.000000 0.000000 0.000000 0.037046
#
#
# Mechanical properties :
#
#
# Convention : Reuss Voigt Hill
#
# Bulk Modulus (GPa) = 22.38352 77.16400 49.77376
# Shear Modulus (GPa) = 14.54704 25.08594 19.81649
#
# Velocity S-wave (km/s) = 2.90409 3.81362 3.38950
# Velocity P-wave (km/s) = 4.92158 8.00799 6.64642
#
# Compressibility (1/GPa) = 0.04467572
#
# Stress axis : x y z
#
# Youngs Moduli (GPa) = 10.66768 79.70634 50.21720
#
# Poissons Ratio (x) = 1.18786 1.04922
# Poissons Ratio (y) = 0.15898 0.24937
# Poissons Ratio (z) = 0.22289 0.39581
#
# Static dielectric constant tensor:
#      x y z
#    x 1.580880 0.000000 0.000000 
#    y 0.000000 1.577740 0.000000 
#    z 0.000000 0.000000 1.558890 
# 
# From -- ./inp_files/57757.got.cif
#   From: 2010.05.17/outbox.cif.g08.bks.cpg/sg71_29_cif.got.tgz:57757.got - 2010.06.03 16:22:01.
