data_PCOD9522496
_publ_section_title
;
Structure prediction by ZEFSAII (Michael W. Deem and Ramdas Pophale) SiO2 
 PCOD9522496
Probable space group: I M M M
;
_chemical_formula_sum "Si O2"
_cell_formula_units_Z 60
_cell_length_a 18.415335
_cell_length_b 13.245428
_cell_length_c 14.310576
_cell_angle_alpha 90.000000
_cell_angle_beta 90.000000
_cell_angle_gamma 90.000000
_cell_volume 3490.621299
_symmetry_space_group_name_H-M "I M M M"
_symmetry_group_IT_number 71
_symmetry_cell_setting 'orthorhombic'
loop_
_space_group_symop_operation_xyz
x,y,z
-x,-y,z
x,-y,-z
-x,y,-z
-x,-y,-z
x,y,-z
-x,y,z
x,-y,z
1/2+x,1/2+y,1/2+z
1/2-x,1/2-y,1/2+z
1/2+x,1/2-y,1/2-z
1/2-x,1/2+y,1/2-z
1/2-x,1/2-y,1/2-z
1/2+x,1/2+y,1/2-z
1/2-x,1/2+y,1/2+z
1/2+x,1/2-y,1/2+z
loop_
_atom_site_type_symbol
_atom_site_label
_atom_site_fract_x
_atom_site_fract_y
_atom_site_fract_z
Si Si1 0.639094 0.190771 0.799587
Si Si2 0.000000 0.381517 0.815905
Si Si3 0.087789 0.379437 0.500000
Si Si4 0.799182 0.117084 0.206276
Si Si5 0.646898 0.620123 0.500000
Si Si6 0.500000 0.746963 0.500000
O O1 0.571316 0.147105 0.742852
O O2 0.714110 0.134325 0.774486
O O3 0.654275 0.306336 0.769371
O O4 0.620711 0.171243 0.907667
O O5 0.000000 0.500000 0.835502
O O6 0.000000 0.316664 0.909328
O O7 0.104721 0.500000 0.500000
O O8 0.000000 0.370049 0.500000
O O9 0.818553 0.000000 0.219971
O O10 0.811984 0.143888 0.096750
O O11 0.634667 0.500000 0.500000
O O12 0.571274 0.678174 0.500000
#
# Coordination Sequence:
#
# PCOD9522496 Si02
#       6
#    16   8   8  16   8   4
#     4  11  22  38  61  86 118 149 195 243 288 344
#     4  12  23  38  59  85 118 154 190 240 293 347
#     4  11  21  35  59  86 112 148 194 244 290 335
#     4  10  21  38  61  87 116 154 194 238 291 343
#     4  10  20  37  61  86 116 152 195 241 284 337
#     4  12  22  38  54  90 120 154 192 232 286 354
#
# _framework density 17.188917
#
# number of rings (size 3 to 8) (size 9 to 14) (size 15 to 20)
#    0.000    1.200    4.000    3.600    0.000    1.067 
#    0.000    1.333    0.000    0.800    0.000    0.000 
#    0.000    0.000    0.000    0.000    0.000    0.000 
#
# Total GULP energy -167550.823567 kJ/mol
# GULP energy per Si atom -5585.027452 kJ/mol
# Density = 1.714979 g / cm^3
# Si number density = 17.188917 Si / 1000 Ang^3
#
#
#
# Elastic Constant Matrix: (Units=GPa)
#
#
# Indices 1 2 3 4 5 6 
#
# 1 98.8003 27.1268 26.0866 0.0000 0.0000 0.0000
# 2 27.1268 73.4936 40.2919 0.0000 0.0000 0.0000
# 3 26.0866 40.2919 115.1038 0.0000 0.0000 0.0000
# 4 0.0000 0.0000 0.0000 33.3957 0.0000 0.0000
# 5 0.0000 0.0000 0.0000 0.0000 28.4651 0.0000
# 6 0.0000 0.0000 0.0000 0.0000 0.0000 -0.3760
#
#
#
# Elastic Compliance Matrix: (Units=1/GPa)
#
#
# Indices 1 2 3 4 5 6 
#
# 1 0.011437 -0.003465 -0.001379 0.000000 0.000000 0.000000
# 2 -0.003465 0.017888 -0.005476 0.000000 0.000000 0.000000
# 3 -0.001379 -0.005476 0.010917 0.000000 0.000000 0.000000
# 4 0.000000 0.000000 0.000000 0.029944 0.000000 0.000000
# 5 0.000000 0.000000 0.000000 0.000000 0.035131 0.000000
# 6 0.000000 0.000000 0.000000 0.000000 0.000000 -2.659328
#
#
# Mechanical properties :
#
#
# Convention : Reuss Voigt Hill
#
# Bulk Modulus (GPa) = 51.01792 52.71203 51.86498
# Shear Modulus (GPa) = -1.97876 25.22312 11.62218
#
# Velocity S-wave (km/s) = -1.07410 3.83483 2.60310
# Velocity P-wave (km/s) = 5.31102 7.09512 6.26688
#
# Compressibility (1/GPa) = 0.01960095
#
# Stress axis : x y z
#
# Youngs Moduli (GPa) = 87.43561 55.90328 91.59781
#
# Poissons Ratio (x) = 0.19373 0.12631
# Poissons Ratio (y) = 0.30300 0.50162
# Poissons Ratio (z) = 0.12057 0.30614
#
# Static dielectric constant tensor:
#      x y z
#    x 1.572800 0.000000 0.000000 
#    y 0.000000 1.567720 0.000000 
#    z 0.000000 0.000000 1.577810 
# 
# From -- ./inp_files/21517.got.cif
#   From: 2010.05.17/outbox.cif.g08.bks.cpg/sg71_11_cif.got.tgz:21517.got - 2010.06.03 16:22:01.
