data_PCOD9522560
_publ_section_title
;
Structure prediction by ZEFSAII (Michael W. Deem and Ramdas Pophale) SiO2 
 PCOD9522560
Probable space group: I M M M
;
_chemical_formula_sum "Si O2"
_cell_formula_units_Z 88
_cell_length_a 21.241331
_cell_length_b 25.126345
_cell_length_c 8.035152
_cell_angle_alpha 90.000000
_cell_angle_beta 90.000000
_cell_angle_gamma 90.000000
_cell_volume 4288.497308
_symmetry_space_group_name_H-M "I M M M"
_symmetry_group_IT_number 71
_symmetry_cell_setting 'orthorhombic'
loop_
_space_group_symop_operation_xyz
x,y,z
-x,-y,z
x,-y,-z
-x,y,-z
-x,-y,-z
x,y,-z
-x,y,z
x,-y,z
1/2+x,1/2+y,1/2+z
1/2-x,1/2-y,1/2+z
1/2+x,1/2-y,1/2-z
1/2-x,1/2+y,1/2-z
1/2-x,1/2-y,1/2-z
1/2+x,1/2+y,1/2-z
1/2-x,1/2+y,1/2+z
1/2+x,1/2-y,1/2+z
loop_
_atom_site_type_symbol
_atom_site_label
_atom_site_fract_x
_atom_site_fract_y
_atom_site_fract_z
Si Si1 0.135223 0.606469 0.295390
Si Si2 0.199786 0.500000 0.309468
Si Si3 0.333978 0.500000 0.813643
Si Si4 0.929304 0.787629 0.799144
Si Si5 0.928971 0.087689 0.799562
Si Si6 0.687948 0.781806 0.806396
Si Si7 0.000000 0.437202 0.297471
O O1 0.135599 0.608971 0.500000
O O2 0.173637 0.554707 0.237337
O O3 0.168599 0.660433 0.233195
O O4 0.062991 0.594446 0.246233
O O5 0.176451 0.500000 0.500000
O O6 0.274527 0.500000 0.305494
O O7 0.377496 0.449055 0.783060
O O8 0.308855 0.500000 0.000000
O O9 0.921652 0.850114 0.759610
O O10 0.873457 0.754302 0.721492
O O11 0.000000 0.771215 0.746986
O O12 0.926130 0.782905 0.000000
O O13 0.000000 0.071554 0.752252
O O14 0.924093 0.082046 0.000000
O O15 0.750000 0.750000 0.750000
O O16 0.698659 0.791031 0.000000
O O17 0.000000 0.500000 0.244604
O O18 0.000000 0.438853 0.500000
#
# Coordination Sequence:
#
# PCOD9522560 Si02
#       7
#    16   8   8  16  16  16   8
#     4   9  19  34  57  87 116 147 189 237 288 349
#     4  10  20  38  59  82 110 152 198 233 280 343
#     4  12  25  35  51  84 119 149 184 235 294 344
#     4   9  20  40  63  86 114 151 196 243 291 349
#     4   9  19  38  62  83 106 144 193 237 280 341
#     4  11  24  39  58  87 121 159 200 245 297 354
#     4   9  14  28  56  90 120 140 174 239 300 341
#
# _framework density 20.520009999999999
#
# number of rings (size 3 to 8) (size 9 to 14) (size 15 to 20)
#    0.000    2.273    0.909    2.727    3.818    2.545 
#    0.000    2.727    0.000    0.000    0.000    0.636 
#    0.000    0.000    0.000    0.000    0.000    0.000 
#
# Total GULP energy -245551.431252 kJ/mol
# GULP energy per Si atom -5580.714347 kJ/mol
# Density = 2.047331 g / cm^3
# Si number density = 20.520010 Si / 1000 Ang^3
#
#
#
# Elastic Constant Matrix: (Units=GPa)
#
#
# Indices 1 2 3 4 5 6 
#
# 1 144.5203 92.8925 5.0669 0.0000 0.0000 0.0000
# 2 92.8925 133.3099 14.4529 0.0000 0.0000 0.0000
# 3 5.0669 14.4529 12.0942 0.0000 0.0000 0.0000
# 4 0.0000 0.0000 0.0000 16.5664 0.0000 0.0000
# 5 0.0000 0.0000 0.0000 0.0000 15.4795 0.0000
# 6 0.0000 0.0000 0.0000 0.0000 0.0000 28.0109
#
#
#
# Elastic Compliance Matrix: (Units=1/GPa)
#
#
# Indices 1 2 3 4 5 6 
#
# 1 0.012918 -0.009667 0.006140 0.000000 0.000000 0.000000
# 2 -0.009667 0.015852 -0.014894 0.000000 0.000000 0.000000
# 3 0.006140 -0.014894 0.097910 0.000000 0.000000 0.000000
# 4 0.000000 0.000000 0.000000 0.060363 0.000000 0.000000
# 5 0.000000 0.000000 0.000000 0.000000 0.064602 0.000000
# 6 0.000000 0.000000 0.000000 0.000000 0.000000 0.035700
#
#
# Mechanical properties :
#
#
# Convention : Reuss Voigt Hill
#
# Bulk Modulus (GPa) = 11.13100 57.19433 34.16267
# Shear Modulus (GPa) = 14.11902 23.84548 18.98225
#
# Velocity S-wave (km/s) = 2.62594 3.41260 3.04478
# Velocity P-wave (km/s) = 3.82496 6.59248 5.38939
#
# Compressibility (1/GPa) = 0.08983922
#
# Stress axis : x y z
#
# Youngs Moduli (GPa) = 77.41262 63.08282 10.21347
#
# Poissons Ratio (x) = 0.60982 -0.06271
# Poissons Ratio (y) = 0.74835 0.15212
# Poissons Ratio (z) = -0.47534 0.93953
#
# Static dielectric constant tensor:
#      x y z
#    x 1.704890 0.000000 0.000000 
#    y 0.000000 1.735440 0.000000 
#    z 0.000000 0.000000 1.772650 
# 
# From -- ./inp_files/10514.got.cif
#   From: 2010.05.17/outbox.cif.g08.bks.cpg/sg71_6_cif.got.tgz:10514.got - 2010.06.03 16:22:01.
