data_PCOD9522614
_publ_section_title
;
Structure prediction by ZEFSAII (Michael W. Deem and Ramdas Pophale) SiO2 
 PCOD9522614
Probable space group: I M M M
;
_chemical_formula_sum "Si O2"
_cell_formula_units_Z 72
_cell_length_a 8.036845
_cell_length_b 30.730616
_cell_length_c 14.762421
_cell_angle_alpha 90.000000
_cell_angle_beta 90.000000
_cell_angle_gamma 90.000000
_cell_volume 3645.981368
_symmetry_space_group_name_H-M "I M M M"
_symmetry_group_IT_number 71
_symmetry_cell_setting 'orthorhombic'
loop_
_space_group_symop_operation_xyz
x,y,z
-x,-y,z
x,-y,-z
-x,y,-z
-x,-y,-z
x,y,-z
-x,y,z
x,-y,z
1/2+x,1/2+y,1/2+z
1/2-x,1/2-y,1/2+z
1/2+x,1/2-y,1/2-z
1/2-x,1/2+y,1/2-z
1/2-x,1/2-y,1/2-z
1/2+x,1/2+y,1/2-z
1/2-x,1/2+y,1/2+z
1/2+x,1/2-y,1/2+z
loop_
_atom_site_type_symbol
_atom_site_label
_atom_site_fract_x
_atom_site_fract_y
_atom_site_fract_z
Si Si1 0.312331 0.213400 0.369418
Si Si2 0.811435 0.694297 0.654460
Si Si3 0.500000 0.948255 0.107038
Si Si4 0.807424 0.879152 0.403486
Si Si5 0.804600 0.101612 0.198326
O O1 0.500000 0.206296 0.400418
O O2 0.255873 0.262087 0.392020
O O3 0.314579 0.207533 0.260629
O O4 0.203073 0.173320 0.402231
O O5 0.708918 0.649756 0.653221
O O6 0.000000 0.685197 0.625015
O O7 0.332140 0.928102 0.149966
O O8 0.500000 0.000000 0.120682
O O9 0.500000 0.938988 0.000000
O O10 0.730387 0.893735 0.500000
O O11 0.747234 0.894047 0.304321
O O12 0.000000 0.892080 0.404865
O O13 0.000000 0.088201 0.194755
#
# Coordination Sequence:
#
# PCOD9522614 Si02
#       5
#    16  16   8  16  16
#     4   9  16  24  40  72 112 160 211 250 285 323
#     4   9  15  27  48  74 111 158 203 247 293 337
#     4  11  26  48  71  95 119 141 182 250 321 385
#     4   9  18  32  52  83 124 168 210 245 282 337
#     4  10  20  38  65  93 121 158 198 241 300 365
#
# _framework density 19.747771
#
# number of rings (size 3 to 8) (size 9 to 14) (size 15 to 20)
#    0.000    2.556    1.111    1.333    1.556    6.667 
#    0.000    2.222    0.000    4.000    0.000    3.111 
#    0.000    0.000    0.000    0.000    0.000    0.000 
#
# Total GULP energy -200503.675332 kJ/mol
# GULP energy per Si atom -5569.546537 kJ/mol
# Density = 1.970282 g / cm^3
# Si number density = 19.747771 Si / 1000 Ang^3
#
#
#
# Elastic Constant Matrix: (Units=GPa)
#
#
# Indices 1 2 3 4 5 6 
#
# 1 101.2101 42.7529 40.2332 0.0000 0.0000 0.0000
# 2 42.7529 71.5318 61.2293 0.0001 0.0000 0.0000
# 3 40.2332 61.2293 109.8962 0.0002 0.0000 0.0000
# 4 0.0000 0.0001 0.0002 65.6262 0.0000 0.0000
# 5 0.0000 0.0000 0.0000 0.0000 5.1574 0.0000
# 6 0.0000 0.0000 0.0000 0.0000 0.0000 19.0967
#
#
#
# Elastic Compliance Matrix: (Units=1/GPa)
#
#
# Indices 1 2 3 4 5 6 
#
# 1 0.013258 -0.007206 -0.000839 0.000000 0.000000 0.000000
# 2 -0.007206 0.030642 -0.014434 0.000000 0.000000 0.000000
# 3 -0.000839 -0.014434 0.017449 0.000000 0.000000 0.000000
# 4 0.000000 0.000000 0.000000 0.015238 0.000000 0.000000
# 5 0.000000 0.000000 0.000000 0.000000 0.193898 0.000000
# 6 0.000000 0.000000 0.000000 0.000000 0.000000 0.052365
#
#
# Mechanical properties :
#
#
# Convention : Reuss Voigt Hill
#
# Bulk Modulus (GPa) = 61.01104 63.45211 62.23157
# Shear Modulus (GPa) = 13.39512 27.20423 20.29968
#
# Velocity S-wave (km/s) = 2.60727 3.71561 3.20964
# Velocity P-wave (km/s) = 6.32661 7.11398 6.73182
#
# Compressibility (1/GPa) = 0.01639048
#
# Stress axis : x y z
#
# Youngs Moduli (GPa) = 75.42749 32.63512 57.31059
#
# Poissons Ratio (x) = 0.23516 0.04808
# Poissons Ratio (y) = 0.54351 0.82724
# Poissons Ratio (z) = 0.06328 0.47106
#
# Static dielectric constant tensor:
#      x y z
#    x 1.714840 0.000000 0.000000 
#    y 0.000000 1.668200 0.000000 
#    z 0.000000 0.000000 1.830430 
# 
# From -- ./inp_files/31435.got.cif
#   From: 2010.05.17/outbox.cif.g08.bks.cpg/sg71_16_cif.got.tgz:31435.got - 2010.06.03 16:22:01.
