data_PCOD9522211
_publ_section_title
;
Structure prediction by ZEFSAII (Michael W. Deem and Ramdas Pophale) SiO2 
 PCOD9522211
Probable space group: I M M M
;
_chemical_formula_sum "Si O2"
_cell_formula_units_Z 104
_cell_length_a 15.677819
_cell_length_b 16.197057
_cell_length_c 22.305576
_cell_angle_alpha 90.000000
_cell_angle_beta 90.000000
_cell_angle_gamma 90.000000
_cell_volume 5664.155913
_symmetry_space_group_name_H-M "I M M M"
_symmetry_group_IT_number 71
_symmetry_cell_setting 'orthorhombic'
loop_
_space_group_symop_operation_xyz
x,y,z
-x,-y,z
x,-y,-z
-x,y,-z
-x,-y,-z
x,y,-z
-x,y,z
x,-y,z
1/2+x,1/2+y,1/2+z
1/2-x,1/2-y,1/2+z
1/2+x,1/2-y,1/2-z
1/2-x,1/2+y,1/2-z
1/2-x,1/2-y,1/2-z
1/2+x,1/2+y,1/2-z
1/2-x,1/2+y,1/2+z
1/2+x,1/2-y,1/2+z
loop_
_atom_site_type_symbol
_atom_site_label
_atom_site_fract_x
_atom_site_fract_y
_atom_site_fract_z
Si Si1 0.833118 0.665910 0.864452
Si Si2 0.097121 0.912400 0.427512
Si Si3 0.246913 0.094312 0.248405
Si Si4 0.602756 0.000000 0.430343
Si Si5 0.092516 0.789107 0.224283
Si Si6 0.192719 0.256553 0.429172
Si Si7 0.400739 0.844309 0.173257
O O1 0.769333 0.633336 0.812727
O O2 0.865226 0.584369 0.898837
O O3 0.901328 0.718239 0.826427
O O4 0.787090 0.732457 0.907247
O O5 0.094136 0.915598 0.500000
O O6 0.144776 0.829252 0.414549
O O7 0.000000 0.908175 0.405599
O O8 0.135768 0.000000 0.407119
O O9 0.172891 0.150417 0.219814
O O10 0.334484 0.099291 0.210025
O O11 0.219784 0.000000 0.254038
O O12 0.500000 0.000000 0.428261
O O13 0.630904 0.000000 0.500000
O O14 0.098864 0.739781 0.287101
O O15 0.000000 0.830558 0.221320
O O16 0.189254 0.272637 0.500000
O O17 0.143707 0.324519 0.390085
O O18 0.500000 0.871331 0.168838
#
# Coordination Sequence:
#
# PCOD9522211 Si02
#       7
#    16  16  16   8  16  16  16
#     4  11  20  38  56  83 119 154 193 235 288 346
#     4   8  15  26  38  59  95 138 182 219 250 302
#     4  11  21  38  60  84 115 145 192 253 297 346
#     4  11  24  38  54  86 127 163 202 240 278 343
#     4  10  20  38  62  82 109 150 193 248 305 342
#     4  11  20  31  53  79 111 153 191 225 275 346
#     4  10  20  36  56  83 116 147 188 239 289 346
#
# _framework density 18.361076000000001
#
# number of rings (size 3 to 8) (size 9 to 14) (size 15 to 20)
#    0.000    1.769    3.846    2.769    1.077    2.154 
#    0.000    0.000    0.000    0.462    0.000    1.077 
#    0.000    1.231    0.000    0.000    0.000    0.000 
#
# Total GULP energy -289880.410909 kJ/mol
# GULP energy per Si atom -5574.623287 kJ/mol
# Density = 1.831929 g / cm^3
# Si number density = 18.361076 Si / 1000 Ang^3
#
#
#
# Elastic Constant Matrix: (Units=GPa)
#
#
# Indices 1 2 3 4 5 6 
#
# 1 89.4802 26.0871 36.8509 0.0000 0.0000 0.0000
# 2 26.0871 39.6119 16.5972 0.0000 0.0000 0.0000
# 3 36.8509 16.5972 106.4911 0.0000 0.0000 0.0000
# 4 0.0000 0.0000 0.0000 22.0743 0.0000 0.0000
# 5 0.0000 0.0000 0.0000 0.0000 15.9295 0.0000
# 6 0.0000 0.0000 0.0000 0.0000 0.0000 5.0563
#
#
#
# Elastic Compliance Matrix: (Units=1/GPa)
#
#
# Indices 1 2 3 4 5 6 
#
# 1 0.015256 -0.008382 -0.003973 0.000000 0.000000 0.000000
# 2 -0.008382 0.031614 -0.002027 0.000000 0.000000 0.000000
# 3 -0.003973 -0.002027 0.011081 0.000000 0.000000 0.000000
# 4 0.000000 0.000000 0.000000 0.045302 0.000000 0.000000
# 5 0.000000 0.000000 0.000000 0.000000 0.062777 0.000000
# 6 0.000000 0.000000 0.000000 0.000000 0.000000 0.197772
#
#
# Mechanical properties :
#
#
# Convention : Reuss Voigt Hill
#
# Bulk Modulus (GPa) = 34.26088 43.85041 39.05565
# Shear Modulus (GPa) = 12.42874 19.01522 15.72198
#
# Velocity S-wave (km/s) = 2.60457 3.22161 2.92938
# Velocity P-wave (km/s) = 5.26736 6.14593 5.72353
#
# Compressibility (1/GPa) = 0.02918781
#
# Stress axis : x y z
#
# Youngs Moduli (GPa) = 65.55005 31.63118 90.24414
#
# Poissons Ratio (x) = 0.26514 0.35851
# Poissons Ratio (y) = 0.54946 0.18289
# Poissons Ratio (z) = 0.26041 0.06410
#
# Static dielectric constant tensor:
#      x y z
#    x 1.696580 0.000000 0.000000 
#    y 0.000000 1.605870 0.000000 
#    z 0.000000 0.000000 1.638660 
# 
# From -- ./inp_files/60737.got.cif
#   From: 2010.05.17/outbox.cif.g08.bks.cpg/sg71_31_cif.got.tgz:60737.got - 2010.06.03 16:22:01.
