data_PCOD9522542
_publ_section_title
;
Structure prediction by ZEFSAII (Michael W. Deem and Ramdas Pophale) SiO2 
 PCOD9522542
Probable space group: I M M M
;
_chemical_formula_sum "Si O2"
_cell_formula_units_Z 72
_cell_length_a 8.565118
_cell_length_b 24.409597
_cell_length_c 18.181483
_cell_angle_alpha 90.000000
_cell_angle_beta 90.000000
_cell_angle_gamma 90.000000
_cell_volume 3801.222262
_symmetry_space_group_name_H-M "I M M M"
_symmetry_group_IT_number 71
_symmetry_cell_setting 'orthorhombic'
loop_
_space_group_symop_operation_xyz
x,y,z
-x,-y,z
x,-y,-z
-x,y,-z
-x,-y,-z
x,y,-z
-x,y,z
x,-y,z
1/2+x,1/2+y,1/2+z
1/2-x,1/2-y,1/2+z
1/2+x,1/2-y,1/2-z
1/2-x,1/2+y,1/2-z
1/2-x,1/2-y,1/2-z
1/2+x,1/2+y,1/2-z
1/2-x,1/2+y,1/2+z
1/2+x,1/2-y,1/2+z
loop_
_atom_site_type_symbol
_atom_site_label
_atom_site_fract_x
_atom_site_fract_y
_atom_site_fract_z
Si Si1 0.821411 0.000000 0.780787
Si Si2 0.315884 0.893647 0.149277
Si Si3 0.815016 0.936295 0.000000
Si Si4 0.688417 0.809587 0.273262
Si Si5 0.310879 0.375709 0.083373
Si Si6 0.178412 0.000000 0.393618
O O1 0.727281 0.051742 0.807530
O O2 0.829290 0.000000 0.693908
O O3 0.000000 0.000000 0.810539
O O4 0.500000 0.887689 0.138658
O O5 0.238379 0.902718 0.070862
O O6 0.260350 0.846456 0.203738
O O7 0.000000 0.940534 0.000000
O O8 0.753361 0.000000 0.000000
O O9 0.500000 0.809032 0.277095
O O10 0.750000 0.750000 0.250000
O O11 0.747956 0.838110 0.349440
O O12 0.500000 0.377176 0.091264
O O13 0.254509 0.439761 0.086930
O O14 0.275111 0.355635 0.000000
O O15 0.000000 0.000000 0.421853
#
# Coordination Sequence:
#
# PCOD9522542 Si02
#       6
#     8  16   8  16  16   8
#     4  11  19  31  58  89 119 160 202 242 294 361
#     4  11  23  39  60  87 120 158 199 249 306 360
#     4  11  23  37  59  93 126 158 198 241 296 365
#     4  11  25  44  65  87 116 158 208 254 302 357
#     4  10  20  37  63  94 127 162 199 243 293 350
#     4   9  17  31  57  92 126 159 196 235 285 352
#
# _framework density 18.941276999999999
#
# number of rings (size 3 to 8) (size 9 to 14) (size 15 to 20)
#    0.000    1.444    3.333    2.333    0.000    4.889 
#    2.000    0.556    0.000    1.333    0.000    0.000 
#    0.000    0.000    0.000    0.000    0.000    0.000 
#
# Total GULP energy -200700.789533 kJ/mol
# GULP energy per Si atom -5575.021931 kJ/mol
# Density = 1.889817 g / cm^3
# Si number density = 18.941277 Si / 1000 Ang^3
#
#
#
# Elastic Constant Matrix: (Units=GPa)
#
#
# Indices 1 2 3 4 5 6 
#
# 1 21.6633 23.8030 40.5745 0.0000 0.0000 0.0000
# 2 23.8030 164.1734 89.6552 0.0000 0.0000 0.0000
# 3 40.5745 89.6552 202.3351 0.0001 0.0000 0.0000
# 4 0.0000 0.0000 0.0001 6.1333 0.0000 0.0000
# 5 0.0000 0.0000 0.0000 0.0000 27.2605 0.0000
# 6 0.0000 0.0000 0.0000 0.0000 0.0000 18.7915
#
#
#
# Elastic Compliance Matrix: (Units=1/GPa)
#
#
# Indices 1 2 3 4 5 6 
#
# 1 0.075448 -0.003531 -0.013565 0.000000 0.000000 0.000000
# 2 -0.003531 0.008201 -0.002926 0.000000 0.000000 0.000000
# 3 -0.013565 -0.002926 0.008959 0.000000 0.000000 0.000000
# 4 0.000000 0.000000 0.000000 0.163044 0.000000 0.000000
# 5 0.000000 0.000000 0.000000 0.000000 0.036683 0.000000
# 6 0.000000 0.000000 0.000000 0.000000 0.000000 0.053216
#
#
# Mechanical properties :
#
#
# Convention : Reuss Voigt Hill
#
# Bulk Modulus (GPa) = 19.02448 77.35968 48.19208
# Shear Modulus (GPa) = 12.40341 26.04632 19.22487
#
# Velocity S-wave (km/s) = 2.56175 3.71227 3.18932
# Velocity P-wave (km/s) = 4.33772 7.70098 6.24984
#
# Compressibility (1/GPa) = 0.05256387
#
# Stress axis : x y z
#
# Youngs Moduli (GPa) = 13.25420 121.93909 111.62089
#
# Poissons Ratio (x) = 0.43058 1.51414
# Poissons Ratio (y) = 0.04680 0.32657
# Poissons Ratio (z) = 0.17979 0.35676
#
# Static dielectric constant tensor:
#      x y z
#    x 1.659060 0.000000 0.000000 
#    y 0.000000 1.632550 0.000000 
#    z 0.000000 0.000000 1.711610 
# 
# From -- ./inp_files/42114.got.cif
#   From: 2010.05.17/outbox.cif.g08.bks.cpg/sg71_22_cif.got.tgz:42114.got - 2010.06.03 16:22:01.
