data_PCOD9522670
_publ_section_title
;
Structure prediction by ZEFSAII (Michael W. Deem and Ramdas Pophale) SiO2 
 PCOD9522670
Probable space group: I M M M
;
_chemical_formula_sum "Si O2"
_cell_formula_units_Z 68
_cell_length_a 15.458942
_cell_length_b 20.919433
_cell_length_c 9.370029
_cell_angle_alpha 90.000000
_cell_angle_beta 90.000000
_cell_angle_gamma 90.000000
_cell_volume 3030.195243
_symmetry_space_group_name_H-M "I M M M"
_symmetry_group_IT_number 71
_symmetry_cell_setting 'orthorhombic'
loop_
_space_group_symop_operation_xyz
x,y,z
-x,-y,z
x,-y,-z
-x,y,-z
-x,-y,-z
x,y,-z
-x,y,z
x,-y,z
1/2+x,1/2+y,1/2+z
1/2-x,1/2-y,1/2+z
1/2+x,1/2-y,1/2-z
1/2-x,1/2+y,1/2-z
1/2-x,1/2-y,1/2-z
1/2+x,1/2+y,1/2-z
1/2-x,1/2+y,1/2+z
1/2+x,1/2-y,1/2+z
loop_
_atom_site_type_symbol
_atom_site_label
_atom_site_fract_x
_atom_site_fract_y
_atom_site_fract_z
Si Si1 0.689363 0.862253 0.000000
Si Si2 0.659042 0.500000 0.171354
Si Si3 0.500000 0.891735 0.677709
Si Si4 0.000000 0.634070 0.500000
Si Si5 0.663775 0.366013 0.728277
Si Si6 0.221156 0.785965 0.500000
Si Si7 0.139789 0.500000 0.169552
Si Si8 0.593813 0.726295 0.500000
O O1 0.750459 0.876517 0.866498
O O2 0.596178 0.894169 0.000000
O O3 0.677973 0.784527 0.000000
O O4 0.623021 0.566276 0.231528
O O5 0.760791 0.500000 0.215854
O O6 0.652368 0.500000 0.000000
O O7 0.500000 0.880774 0.500000
O O8 0.416752 0.937352 0.702444
O O9 0.500000 0.844418 0.821735
O O10 0.693369 0.326711 0.865133
O O11 0.604583 0.319757 0.635215
O O12 0.324456 0.773595 0.500000
O O13 0.147325 0.500000 0.000000
O O14 0.500000 0.755723 0.500000
#
# Coordination Sequence:
#
# PCOD9522670 Si02
#       8
#     8   8   8   4  16   8   8   8
#     4  10  22  38  58  91 128 165 213 260 318 385
#     4  11  19  33  63  93 118 165 217 254 329 394
#     4   9  18  34  50  72 124 168 199 255 308 361
#     4  12  22  35  54  88 124 159 212 256 306 386
#     4  10  21  41  66  92 131 164 209 275 324 392
#     4  10  20  45  68  90 129 167 206 278 334 376
#     4   8  16  29  50  76 115 160 208 247 294 377
#     4  10  22  42  69  96 127 171 222 268 332 390
#
# _framework density 22.440798000000001
#
# number of rings (size 3 to 8) (size 9 to 14) (size 15 to 20)
#    0.000    2.353    1.176    4.941    0.000    2.824 
#   10.588    5.882    0.000    0.706    0.000    0.000 
#    0.000    0.000    0.000    0.000    0.000    0.000 
#
# Total GULP energy -189348.625147 kJ/mol
# GULP energy per Si atom -5569.077210 kJ/mol
# Density = 2.238972 g / cm^3
# Si number density = 22.440798 Si / 1000 Ang^3
#
#
#
# Elastic Constant Matrix: (Units=GPa)
#
#
# Indices 1 2 3 4 5 6 
#
# 1 62.5129 -6.5046 12.0202 0.0000 0.0000 0.0000
# 2 -6.5046 117.9206 62.7658 0.0000 0.0000 0.0000
# 3 12.0202 62.7658 178.4079 0.0000 0.0000 0.0000
# 4 0.0000 0.0000 0.0000 -434.5652 0.0000 0.0000
# 5 0.0000 0.0000 0.0000 0.0000 4.5977 0.0000
# 6 0.0000 0.0000 0.0000 0.0000 0.0000 -3.8011
#
#
#
# Elastic Compliance Matrix: (Units=1/GPa)
#
#
# Indices 1 2 3 4 5 6 
#
# 1 0.016529 0.001851 -0.001765 0.000000 0.000000 0.000000
# 2 0.001851 0.010641 -0.003869 0.000000 0.000000 0.000000
# 3 -0.001765 -0.003869 0.007085 0.000000 0.000000 0.000000
# 4 0.000000 0.000000 0.000000 -0.002301 0.000000 0.000000
# 5 0.000000 0.000000 0.000000 0.000000 0.217502 0.000000
# 6 0.000000 0.000000 0.000000 0.000000 0.000000 -0.263083
#
#
# Mechanical properties :
#
#
# Convention : Reuss Voigt Hill
#
# Bulk Modulus (GPa) = 37.46625 55.04491 46.25558
# Shear Modulus (GPa) = 1764.15457 -67.38305 848.38576
#
# Velocity S-wave (km/s) = 28.06856 -5.48564 19.46473
# Velocity P-wave (km/s) = 32.66788 3.94218 22.93087
#
# Compressibility (1/GPa) = 0.02669068
#
# Stress axis : x y z
#
# Youngs Moduli (GPa) = 60.50091 93.97187 141.14280
#
# Poissons Ratio (x) = -0.17395 0.24910
# Poissons Ratio (y) = -0.11199 0.54601
# Poissons Ratio (z) = 0.10678 0.36353
#
# Static dielectric constant tensor:
#      x y z
#    x 1.832330 0.000000 0.000000 
#    y 0.000000 1.863050 0.000000 
#    z 0.000000 0.000000 1.828040 
# 
# From -- ./inp_files/7734.got.cif
#   From: 2010.05.17/outbox.cif.g08.bks.cpg/sg71_4_cif.got.tgz:7734.got - 2010.06.03 16:22:01.
