data_PCOD9522393
_publ_section_title
;
Structure prediction by ZEFSAII (Michael W. Deem and Ramdas Pophale) SiO2 
 PCOD9522393
Probable space group: I M M M
;
_chemical_formula_sum "Si O2"
_cell_formula_units_Z 64
_cell_length_a 23.533661
_cell_length_b 17.622178
_cell_length_c 7.729884
_cell_angle_alpha 90.000000
_cell_angle_beta 90.000000
_cell_angle_gamma 90.000000
_cell_volume 3205.693920
_symmetry_space_group_name_H-M "I M M M"
_symmetry_group_IT_number 71
_symmetry_cell_setting 'orthorhombic'
loop_
_space_group_symop_operation_xyz
x,y,z
-x,-y,z
x,-y,-z
-x,y,-z
-x,-y,-z
x,y,-z
-x,y,z
x,-y,z
1/2+x,1/2+y,1/2+z
1/2-x,1/2-y,1/2+z
1/2+x,1/2-y,1/2-z
1/2-x,1/2+y,1/2-z
1/2-x,1/2-y,1/2-z
1/2+x,1/2+y,1/2-z
1/2-x,1/2+y,1/2+z
1/2+x,1/2-y,1/2+z
loop_
_atom_site_type_symbol
_atom_site_label
_atom_site_fract_x
_atom_site_fract_y
_atom_site_fract_z
Si Si1 0.939188 0.910959 0.000000
Si Si2 0.000000 0.411323 0.788877
Si Si3 0.116510 0.673637 0.211027
Si Si4 0.635995 0.650173 0.201189
Si Si5 0.240224 0.338721 0.206894
O O1 0.907178 0.888679 0.172346
O O2 0.000000 0.871060 0.000000
O O3 0.944764 0.000000 0.000000
O O4 0.058438 0.368473 0.734744
O O5 0.000000 0.500000 0.735659
O O6 0.000000 0.410632 0.000000
O O7 0.123261 0.759637 0.278114
O O8 0.177377 0.636492 0.265720
O O9 0.115728 0.676838 0.000000
O O10 0.699670 0.627662 0.264535
O O11 0.630537 0.630552 0.000000
O O12 0.250000 0.250000 0.250000
O O13 0.239887 0.345999 0.000000
#
# Coordination Sequence:
#
# PCOD9522393 Si02
#       5
#     8   8  16  16  16
#     4  11  26  44  60  82 116 151 185 237 301 359
#     4   9  18  30  49  81 119 159 199 232 275 336
#     4   9  16  30  54  83 119 157 195 239 283 329
#     4  10  20  36  61  89 114 145 193 242 287 345
#     4   8  15  27  48  82 113 143 185 238 284 323
#
# _framework density 19.964476999999999
#
# number of rings (size 3 to 8) (size 9 to 14) (size 15 to 20)
#    0.000    2.750    1.250    0.000    3.500    1.000 
#    0.000    2.500    0.000    6.000    0.000    0.000 
#    0.000    0.000    0.000    0.000    0.000    0.000 
#
# Total GULP energy -178144.709385 kJ/mol
# GULP energy per Si atom -5567.022168 kJ/mol
# Density = 1.991904 g / cm^3
# Si number density = 19.964477 Si / 1000 Ang^3
#
#
#
# Elastic Constant Matrix: (Units=GPa)
#
#
# Indices 1 2 3 4 5 6 
#
# 1 236.3037 49.0748 52.2700 0.0000 0.0000 0.0000
# 2 49.0748 37.6583 14.1988 0.0000 0.0000 0.0000
# 3 52.2700 14.1988 63.3722 0.0000 0.0000 0.0000
# 4 0.0000 0.0000 0.0000 -12.5082 0.0000 0.0000
# 5 0.0000 0.0000 0.0000 0.0000 20.5758 0.0000
# 6 0.0000 0.0000 0.0000 0.0000 0.0000 143.7124
#
#
#
# Elastic Compliance Matrix: (Units=1/GPa)
#
#
# Indices 1 2 3 4 5 6 
#
# 1 0.006549 -0.007097 -0.003811 0.000000 0.000000 0.000000
# 2 -0.007097 0.036696 -0.002368 0.000000 0.000000 0.000000
# 3 -0.003811 -0.002368 0.019454 0.000000 0.000000 0.000000
# 4 0.000000 0.000000 0.000000 -0.079948 0.000000 0.000000
# 5 0.000000 0.000000 0.000000 0.000000 0.048601 0.000000
# 6 0.000000 0.000000 0.000000 0.000000 0.000000 0.006958
#
#
# Mechanical properties :
#
#
# Convention : Reuss Voigt Hill
#
# Bulk Modulus (GPa) = 27.66581 63.15791 45.41186
# Shear Modulus (GPa) = 65.00920 45.14206 55.07563
#
# Velocity S-wave (km/s) = 5.71254 4.76028 5.25801
# Velocity P-wave (km/s) = 7.57618 7.86877 7.72386
#
# Compressibility (1/GPa) = 0.03614569
#
# Stress axis : x y z
#
# Youngs Moduli (GPa) = 152.69931 27.25088 51.40315
#
# Poissons Ratio (x) = 0.19340 0.19592
# Poissons Ratio (y) = 1.08372 0.12173
# Poissons Ratio (z) = 0.58200 0.06453
#
# Static dielectric constant tensor:
#      x y z
#    x 1.824600 0.000000 0.000000 
#    y 0.000000 1.675070 0.000000 
#    z 0.000000 0.000000 1.694960 
# 
# From -- ./inp_files/9550.got.cif
#   From: 2010.05.17/outbox.cif.g08.bks.cpg/sg71_5_cif.got.tgz:9550.got - 2010.06.03 16:22:01.
