data_PCOD9522969
_publ_section_title
;
Structure prediction by ZEFSAII (Michael W. Deem and Ramdas Pophale) SiO2 
 PCOD9522969
Probable space group: I M M M
;
_chemical_formula_sum "Si O2"
_cell_formula_units_Z 96
_cell_length_a 20.997397
_cell_length_b 8.497243
_cell_length_c 28.617690
_cell_angle_alpha 90.000000
_cell_angle_beta 90.000000
_cell_angle_gamma 90.000000
_cell_volume 5105.967811
_symmetry_space_group_name_H-M "I M M M"
_symmetry_group_IT_number 71
_symmetry_cell_setting 'orthorhombic'
loop_
_space_group_symop_operation_xyz
x,y,z
-x,-y,z
x,-y,-z
-x,y,-z
-x,-y,-z
x,y,-z
-x,y,z
x,-y,z
1/2+x,1/2+y,1/2+z
1/2-x,1/2-y,1/2+z
1/2+x,1/2-y,1/2-z
1/2-x,1/2+y,1/2-z
1/2-x,1/2-y,1/2-z
1/2+x,1/2+y,1/2-z
1/2-x,1/2+y,1/2+z
1/2+x,1/2-y,1/2+z
loop_
_atom_site_type_symbol
_atom_site_label
_atom_site_fract_x
_atom_site_fract_y
_atom_site_fract_z
Si Si1 0.072889 0.310030 0.781980
Si Si2 0.428217 0.691752 0.053737
Si Si3 0.309099 0.690438 0.114531
Si Si4 0.073120 0.310034 0.109987
Si Si5 0.691835 0.311913 0.553566
Si Si6 0.310664 0.311653 0.778266
O O1 0.075495 0.500000 0.780119
O O2 0.086488 0.264803 0.835969
O O3 0.125028 0.241847 0.747359
O O4 0.000000 0.262475 0.771191
O O5 0.500000 0.741938 0.066375
O O6 0.428077 0.500000 0.054343
O O7 0.372907 0.745843 0.088096
O O8 0.415587 0.738895 0.000000
O O9 0.309753 0.500000 0.114802
O O10 0.247822 0.743926 0.085651
O O11 0.307814 0.744695 0.168113
O O12 0.077052 0.500000 0.107676
O O13 0.124571 0.238086 0.075560
O O14 0.000000 0.265470 0.099417
O O15 0.697884 0.255772 0.500000
O O16 0.696395 0.500000 0.553712
O O17 0.308481 0.500000 0.778681
O O18 0.250000 0.250000 0.750000
#
# Coordination Sequence:
#
# PCOD9522969 Si02
#       6
#    16  16  16  16  16  16
#     4   9  19  37  59  82 110 143 179 221 269 322
#     4   8  14  27  50  78 103 127 160 206 257 303
#     4  10  21  36  55  78 104 139 182 223 261 309
#     4   9  19  37  60  83 106 137 180 224 263 312
#     4  11  24  38  53  78 111 143 176 219 271 325
#     4  11  23  36  53  79 109 142 182 227 272 319
#
# _framework density 18.80153
#
# number of rings (size 3 to 8) (size 9 to 14) (size 15 to 20)
#    0.000    2.333    0.000    4.000    0.000    9.667 
#    0.000    5.000    0.000    0.500    0.000    2.333 
#    0.000    0.000    0.000    0.000    0.000    0.000 
#
# Total GULP energy -267996.994526 kJ/mol
# GULP energy per Si atom -5583.270719 kJ/mol
# Density = 1.875874 g / cm^3
# Si number density = 18.801530 Si / 1000 Ang^3
#
#
#
# Elastic Constant Matrix: (Units=GPa)
#
#
# Indices 1 2 3 4 5 6 
#
# 1 120.0026 14.8883 88.5634 0.0000 0.0000 0.0000
# 2 14.8883 11.3350 18.6933 0.0000 0.0000 0.0000
# 3 88.5634 18.6933 130.7030 0.0000 0.0000 0.0000
# 4 0.0000 0.0000 0.0000 25.4187 0.0000 0.0000
# 5 0.0000 0.0000 0.0000 0.0000 42.2682 0.0000
# 6 0.0000 0.0000 0.0000 0.0000 0.0000 23.0565
#
#
#
# Elastic Compliance Matrix: (Units=1/GPa)
#
#
# Indices 1 2 3 4 5 6 
#
# 1 0.016829 -0.004317 -0.010786 0.000000 0.000000 0.000000
# 2 -0.004317 0.116561 -0.013746 0.000000 0.000000 0.000000
# 3 -0.010786 -0.013746 0.016925 0.000000 0.000000 0.000000
# 4 0.000000 0.000000 0.000000 0.039341 0.000000 0.000000
# 5 0.000000 0.000000 0.000000 0.000000 0.023658 0.000000
# 6 0.000000 0.000000 0.000000 0.000000 0.000000 0.043372
#
#
# Mechanical properties :
#
#
# Convention : Reuss Voigt Hill
#
# Bulk Modulus (GPa) = 10.79700 56.25896 33.52798
# Shear Modulus (GPa) = 14.48209 27.47506 20.97857
#
# Velocity S-wave (km/s) = 2.77837 3.82687 3.34397
# Velocity P-wave (km/s) = 4.00594 7.03662 5.72545
#
# Compressibility (1/GPa) = 0.09261836
#
# Stress axis : x y z
#
# Youngs Moduli (GPa) = 59.42267 8.57923 59.08409
#
# Poissons Ratio (x) = 0.03704 0.63725
# Poissons Ratio (y) = 0.25652 0.81214
# Poissons Ratio (z) = 0.64091 0.11793
#
# Static dielectric constant tensor:
#      x y z
#    x 1.629050 0.000000 0.000000 
#    y 0.000000 1.650250 0.000000 
#    z 0.000000 0.000000 1.639310 
# 
# From -- ./inp_files/10947.got.cif
#   From: 2010.05.17/outbox.cif.g08.bks.cpg/sg71_6_cif.got.tgz:10947.got - 2010.06.03 16:22:01.
