data_PCOD9522047
_publ_section_title
;
Structure prediction by ZEFSAII (Michael W. Deem and Ramdas Pophale) SiO2 
 PCOD9522047
Probable space group: I M M M
;
_chemical_formula_sum "Si O2"
_cell_formula_units_Z 88
_cell_length_a 27.682792
_cell_length_b 7.926924
_cell_length_c 19.847452
_cell_angle_alpha 90.000000
_cell_angle_beta 90.000000
_cell_angle_gamma 90.000000
_cell_volume 4355.312726
_symmetry_space_group_name_H-M "I M M M"
_symmetry_group_IT_number 71
_symmetry_cell_setting 'orthorhombic'
loop_
_space_group_symop_operation_xyz
x,y,z
-x,-y,z
x,-y,-z
-x,y,-z
-x,-y,-z
x,y,-z
-x,y,z
x,-y,z
1/2+x,1/2+y,1/2+z
1/2-x,1/2-y,1/2+z
1/2+x,1/2-y,1/2-z
1/2-x,1/2+y,1/2-z
1/2-x,1/2-y,1/2-z
1/2+x,1/2+y,1/2-z
1/2-x,1/2+y,1/2+z
1/2+x,1/2-y,1/2+z
loop_
_atom_site_type_symbol
_atom_site_label
_atom_site_fract_x
_atom_site_fract_y
_atom_site_fract_z
Si Si1 0.943545 0.294353 0.426185
Si Si2 0.801705 0.795304 0.921982
Si Si3 0.500000 0.293323 0.421210
Si Si4 0.778782 0.802638 0.316749
Si Si5 0.599254 0.300716 0.646259
Si Si6 0.114076 0.695614 0.701842
O O1 0.925739 0.237726 0.500000
O O2 0.940201 0.500000 0.426031
O O3 0.915080 0.231023 0.361421
O O4 0.000000 0.251913 0.420954
O O5 0.755893 0.733904 0.879584
O O6 0.851654 0.732962 0.887949
O O7 0.801409 0.000000 0.918806
O O8 0.799772 0.745423 0.000000
O O9 0.500000 0.500000 0.418351
O O10 0.500000 0.246852 0.500000
O O11 0.450939 0.233767 0.384474
O O12 0.750000 0.750000 0.250000
O O13 0.829565 0.708019 0.316127
O O14 0.789771 0.000000 0.313026
O O15 0.599169 0.500000 0.631274
O O16 0.603304 0.278283 0.726322
O O17 0.100447 0.500000 0.709630
#
# Coordination Sequence:
#
# PCOD9522047 Si02
#       6
#    16  16   8  16  16  16
#     4   8  16  33  56  82 113 150 191 232 276 331
#     4  10  21  38  61  87 116 154 198 238 283 343
#     4   9  18  34  57  85 116 153 198 240 281 339
#     4  12  24  40  60  83 115 153 194 241 292 346
#     4  10  20  35  57  85 118 156 194 237 284 341
#     4  11  22  35  58  88 117 150 190 242 293 347
#
# _framework density 20.205207999999999
#
# number of rings (size 3 to 8) (size 9 to 14) (size 15 to 20)
#    0.000    1.909    1.818    3.273    1.273    3.273 
#    0.000    1.818    0.000    3.818    0.000    5.091 
#    0.000    0.000    0.000    0.000    0.000    0.000 
#
# Total GULP energy -245728.259560 kJ/mol
# GULP energy per Si atom -5584.733172 kJ/mol
# Density = 2.015922 g / cm^3
# Si number density = 20.205208 Si / 1000 Ang^3
#
#
#
# Elastic Constant Matrix: (Units=GPa)
#
#
# Indices 1 2 3 4 5 6 
#
# 1 102.8171 -17.7052 69.4533 0.0000 0.0000 0.0000
# 2 -17.7052 22.4038 -13.1144 0.0000 0.0000 0.0000
# 3 69.4533 -13.1144 160.2316 0.0000 0.0000 0.0000
# 4 0.0000 0.0000 0.0000 24.6353 0.0000 0.0000
# 5 0.0000 0.0000 0.0000 0.0000 42.3776 0.0000
# 6 0.0000 0.0000 0.0000 0.0000 0.0000 9.4668
#
#
#
# Elastic Compliance Matrix: (Units=1/GPa)
#
#
# Indices 1 2 3 4 5 6 
#
# 1 0.015166 0.008547 -0.005874 0.000000 0.000000 0.000000
# 2 0.008547 0.051698 0.000527 0.000000 0.000000 0.000000
# 3 -0.005874 0.000527 0.008830 0.000000 0.000000 0.000000
# 4 0.000000 0.000000 0.000000 0.040592 0.000000 0.000000
# 5 0.000000 0.000000 0.000000 0.000000 0.023597 0.000000
# 6 0.000000 0.000000 0.000000 0.000000 0.000000 0.105632
#
#
# Mechanical properties :
#
#
# Convention : Reuss Voigt Hill
#
# Bulk Modulus (GPa) = 12.18141 40.30221 26.24181
# Shear Modulus (GPa) = 18.76305 31.75054 25.25680
#
# Velocity S-wave (km/s) = 3.05064 3.96839 3.53939
# Velocity P-wave (km/s) = 4.29540 6.40213 5.45150
#
# Compressibility (1/GPa) = 0.08209229
#
# Stress axis : x y z
#
# Youngs Moduli (GPa) = 65.93793 19.34315 113.24675
#
# Poissons Ratio (x) = -0.16532 0.66523
# Poissons Ratio (y) = -0.56355 -0.05965
# Poissons Ratio (z) = 0.38733 -0.01019
#
# Static dielectric constant tensor:
#      x y z
#    x 1.658760 0.000000 0.000000 
#    y 0.000000 1.743820 0.000000 
#    z 0.000000 0.000000 1.687700 
# 
# From -- ./inp_files/49216.got.cif
#   From: 2010.05.17/outbox.cif.g08.bks.cpg/sg71_25_cif.got.tgz:49216.got - 2010.06.03 16:22:01.
