data_PCOD9522272
_publ_section_title
;
Structure prediction by ZEFSAII (Michael W. Deem and Ramdas Pophale) SiO2 
 PCOD9522272
Probable space group: I M M M
;
_chemical_formula_sum "Si O2"
_cell_formula_units_Z 64
_cell_length_a 10.956978
_cell_length_b 17.127876
_cell_length_c 16.898171
_cell_angle_alpha 90.000000
_cell_angle_beta 90.000000
_cell_angle_gamma 90.000000
_cell_volume 3171.275705
_symmetry_space_group_name_H-M "I M M M"
_symmetry_group_IT_number 71
_symmetry_cell_setting 'orthorhombic'
loop_
_space_group_symop_operation_xyz
x,y,z
-x,-y,z
x,-y,-z
-x,y,-z
-x,-y,-z
x,y,-z
-x,y,z
x,-y,z
1/2+x,1/2+y,1/2+z
1/2-x,1/2-y,1/2+z
1/2+x,1/2-y,1/2-z
1/2-x,1/2+y,1/2-z
1/2-x,1/2-y,1/2-z
1/2+x,1/2+y,1/2-z
1/2-x,1/2+y,1/2+z
1/2+x,1/2-y,1/2+z
loop_
_atom_site_type_symbol
_atom_site_label
_atom_site_fract_x
_atom_site_fract_y
_atom_site_fract_z
Si Si1 0.365262 0.326261 0.329295
Si Si2 0.365080 0.161112 0.408810
Si Si3 0.865202 0.910280 0.336056
Si Si4 0.633713 0.908043 0.905052
O O1 0.500000 0.353423 0.358590
O O2 0.359656 0.235055 0.350217
O O3 0.360249 0.351332 0.237935
O O4 0.249371 0.365336 0.369831
O O5 0.357612 0.188980 0.500000
O O6 0.500000 0.124229 0.398905
O O7 0.250080 0.107114 0.390723
O O8 0.000000 0.900974 0.373830
O O9 0.857803 0.000000 0.307068
O O10 0.500000 0.878757 0.877447
O O11 0.640364 0.000000 0.885964
O O12 0.636240 0.900884 0.000000
#
# Coordination Sequence:
#
# PCOD9522272 Si02
#       4
#    16  16  16  16
#     4  10  20  36  58  83 112 144 182 231 284 336
#     4  10  22  39  59  85 115 148 189 234 280 334
#     4  10  22  39  59  85 115 148 189 234 280 334
#     4   9  18  31  47  73 111 151 189 228 272 328
#
# _framework density 20.181153999999999
#
# number of rings (size 3 to 8) (size 9 to 14) (size 15 to 20)
#    0.000    2.250    0.000    3.000    0.000    6.500 
#    0.000    3.750    0.000    0.000    0.000    0.000 
#    0.000    0.000    0.000    0.000    0.000    0.000 
#
# Total GULP energy -178449.570882 kJ/mol
# GULP energy per Si atom -5576.549090 kJ/mol
# Density = 2.013522 g / cm^3
# Si number density = 20.181154 Si / 1000 Ang^3
#
#
#
# Elastic Constant Matrix: (Units=GPa)
#
#
# Indices 1 2 3 4 5 6 
#
# 1 213.5368 42.6471 32.6402 0.0000 0.0000 0.0000
# 2 42.6471 27.4654 17.8582 0.0000 0.0000 0.0000
# 3 32.6402 17.8582 26.2394 0.0000 0.0000 0.0000
# 4 0.0000 0.0000 0.0000 27.2271 0.0000 0.0000
# 5 0.0000 0.0000 0.0000 0.0000 34.9354 0.0000
# 6 0.0000 0.0000 0.0000 0.0000 0.0000 35.1768
#
#
#
# Elastic Compliance Matrix: (Units=1/GPa)
#
#
# Indices 1 2 3 4 5 6 
#
# 1 0.006865 -0.009161 -0.002305 0.000000 0.000000 0.000000
# 2 -0.009161 0.077536 -0.041374 0.000000 0.000000 0.000000
# 3 -0.002305 -0.041374 0.069136 0.000000 0.000000 0.000000
# 4 0.000000 0.000000 0.000000 0.036728 0.000000 0.000000
# 5 0.000000 0.000000 0.000000 0.000000 0.028624 0.000000
# 6 0.000000 0.000000 0.000000 0.000000 0.000000 0.028428
#
#
# Mechanical properties :
#
#
# Convention : Reuss Voigt Hill
#
# Bulk Modulus (GPa) = 20.89545 50.39251 35.64398
# Shear Modulus (GPa) = 13.55196 31.07427 22.31311
#
# Velocity S-wave (km/s) = 2.59417 3.92824 3.32873
# Velocity P-wave (km/s) = 4.39879 6.75271 5.69862
#
# Compressibility (1/GPa) = 0.04785732
#
# Stress axis : x y z
#
# Youngs Moduli (GPa) = 145.66780 12.89721 14.46416
#
# Poissons Ratio (x) = 0.11815 0.03334
# Poissons Ratio (y) = 1.33447 0.59845
# Poissons Ratio (z) = 0.33572 0.53361
#
# Static dielectric constant tensor:
#      x y z
#    x 1.746590 0.000000 0.000000 
#    y 0.000000 1.692240 0.000000 
#    z 0.000000 0.000000 1.694760 
# 
# From -- ./inp_files/7474.got.cif
#   From: 2010.05.17/outbox.cif.g08.bks.cpg/sg71_4_cif.got.tgz:7474.got - 2010.06.03 16:22:01.
