data_PCOD9522809
_publ_section_title
;
Structure prediction by ZEFSAII (Michael W. Deem and Ramdas Pophale) SiO2 
 PCOD9522809
Probable space group: I M M M
;
_chemical_formula_sum "Si O2"
_cell_formula_units_Z 96
_cell_length_a 30.604516
_cell_length_b 8.088300
_cell_length_c 17.959752
_cell_angle_alpha 90.000000
_cell_angle_beta 90.000000
_cell_angle_gamma 90.000000
_cell_volume 4445.730192
_symmetry_space_group_name_H-M "I M M M"
_symmetry_group_IT_number 71
_symmetry_cell_setting 'orthorhombic'
loop_
_space_group_symop_operation_xyz
x,y,z
-x,-y,z
x,-y,-z
-x,y,-z
-x,-y,-z
x,y,-z
-x,y,z
x,-y,z
1/2+x,1/2+y,1/2+z
1/2-x,1/2-y,1/2+z
1/2+x,1/2-y,1/2-z
1/2-x,1/2+y,1/2-z
1/2-x,1/2-y,1/2-z
1/2+x,1/2+y,1/2-z
1/2-x,1/2+y,1/2+z
1/2+x,1/2-y,1/2+z
loop_
_atom_site_type_symbol
_atom_site_label
_atom_site_fract_x
_atom_site_fract_y
_atom_site_fract_z
Si Si1 0.625929 0.694186 0.585890
Si Si2 0.856969 0.702952 0.582892
Si Si3 0.216329 0.682232 0.311664
Si Si4 0.451004 0.800698 0.691630
Si Si5 0.951460 0.298829 0.634488
Si Si6 0.217821 0.316528 0.088300
O O1 0.617356 0.746754 0.500000
O O2 0.636200 0.500000 0.584565
O O3 0.585132 0.726736 0.638240
O O4 0.668837 0.785756 0.616301
O O5 0.841535 0.753776 0.500000
O O6 0.855237 0.500000 0.584987
O O7 0.827247 0.762546 0.652594
O O8 0.907529 0.753629 0.592823
O O9 0.203638 0.500000 0.286430
O O10 0.250000 0.750000 0.250000
O O11 0.248299 0.684460 0.382620
O O12 0.500000 0.753013 0.668195
O O13 0.446125 0.754484 0.778358
O O14 0.447823 0.000000 0.688274
O O15 0.952261 0.500000 0.630369
O O16 0.000000 0.242600 0.609573
O O17 0.233238 0.500000 0.109805
O O18 0.214821 0.308049 0.000000
#
# Coordination Sequence:
#
# PCOD9522809 Si02
#       6
#    16  16  16  16  16  16
#     4  10  21  35  52  77 107 141 184 235 289 341
#     4   9  18  32  52  80 113 148 184 229 285 336
#     4  11  23  37  55  83 116 151 192 236 283 336
#     4   9  18  32  51  75 106 146 188 232 281 333
#     4   8  15  29  50  78 110 144 183 227 276 331
#     4  10  21  38  59  80 106 144 187 231 283 343
#
# _framework density 21.593751999999999
#
# number of rings (size 3 to 8) (size 9 to 14) (size 15 to 20)
#    0.000    2.500    0.000    3.000    2.333    3.667 
#    0.000    3.333    0.000    0.000    0.000    0.000 
#    0.000    0.000    0.000   11.833    0.000   12.333 
#
# Total GULP energy -267616.323607 kJ/mol
# GULP energy per Si atom -5575.340075 kJ/mol
# Density = 2.154460 g / cm^3
# Si number density = 21.593752 Si / 1000 Ang^3
#
#
#
# Elastic Constant Matrix: (Units=GPa)
#
#
# Indices 1 2 3 4 5 6 
#
# 1 115.6514 1.6546 41.4910 0.0000 0.0000 0.0000
# 2 1.6546 23.2059 4.0290 0.0000 0.0000 0.0000
# 3 41.4910 4.0290 52.3487 0.0000 0.0000 0.0000
# 4 0.0000 0.0000 0.0000 13.5038 0.0000 0.0000
# 5 0.0000 0.0000 0.0000 0.0000 40.7749 0.0000
# 6 0.0000 0.0000 0.0000 0.0000 0.0000 17.1194
#
#
#
# Elastic Compliance Matrix: (Units=1/GPa)
#
#
# Indices 1 2 3 4 5 6 
#
# 1 0.012097 0.000813 -0.009651 0.000000 0.000000 0.000000
# 2 0.000813 0.043731 -0.004010 0.000000 0.000000 0.000000
# 3 -0.009651 -0.004010 0.027060 0.000000 0.000000 0.000000
# 4 0.000000 0.000000 0.000000 0.074053 0.000000 0.000000
# 5 0.000000 0.000000 0.000000 0.000000 0.024525 0.000000
# 6 0.000000 0.000000 0.000000 0.000000 0.000000 0.058413
#
#
# Mechanical properties :
#
#
# Convention : Reuss Voigt Hill
#
# Bulk Modulus (GPa) = 17.48474 31.72837 24.60655
# Shear Modulus (GPa) = 17.56606 23.88172 20.72389
#
# Velocity S-wave (km/s) = 2.85525 3.32920 3.10129
# Velocity P-wave (km/s) = 4.35714 5.43169 4.92382
#
# Compressibility (1/GPa) = 0.05719274
#
# Stress axis : x y z
#
# Youngs Moduli (GPa) = 82.66268 22.86719 36.95431
#
# Poissons Ratio (x) = -0.01859 0.35664
# Poissons Ratio (y) = -0.06721 0.14819
# Poissons Ratio (z) = 0.79776 0.09170
#
# Static dielectric constant tensor:
#      x y z
#    x 1.784920 0.000000 0.000000 
#    y 0.000000 1.827130 0.000000 
#    z 0.000000 0.000000 1.801460 
# 
# From -- ./inp_files/56155.got.cif
#   From: 2010.05.17/outbox.cif.g08.bks.cpg/sg71_29_cif.got.tgz:56155.got - 2010.06.03 16:22:01.
