data_PCOD9522431
_publ_section_title
;
Structure prediction by ZEFSAII (Michael W. Deem and Ramdas Pophale) SiO2 
 PCOD9522431
Probable space group: I M M M
;
_chemical_formula_sum "Si O2"
_cell_formula_units_Z 88
_cell_length_a 7.428179
_cell_length_b 19.549019
_cell_length_c 28.461111
_cell_angle_alpha 90.000000
_cell_angle_beta 90.000000
_cell_angle_gamma 90.000000
_cell_volume 4132.940741
_symmetry_space_group_name_H-M "I M M M"
_symmetry_group_IT_number 71
_symmetry_cell_setting 'orthorhombic'
loop_
_space_group_symop_operation_xyz
x,y,z
-x,-y,z
x,-y,-z
-x,y,-z
-x,-y,-z
x,y,-z
-x,y,z
x,-y,z
1/2+x,1/2+y,1/2+z
1/2-x,1/2-y,1/2+z
1/2+x,1/2-y,1/2-z
1/2-x,1/2+y,1/2-z
1/2-x,1/2-y,1/2-z
1/2+x,1/2+y,1/2-z
1/2-x,1/2+y,1/2+z
1/2+x,1/2-y,1/2+z
loop_
_atom_site_type_symbol
_atom_site_label
_atom_site_fract_x
_atom_site_fract_y
_atom_site_fract_z
Si Si1 0.204778 0.917471 0.810101
Si Si2 0.280789 0.781007 0.052087
Si Si3 0.719347 0.579501 0.792008
Si Si4 0.283366 0.344120 0.885877
Si Si5 0.000000 0.419079 0.052874
Si Si6 0.206212 0.576419 0.584706
O O1 0.281967 0.896341 0.759633
O O2 0.296200 0.904862 0.859823
O O3 0.000000 0.892117 0.814295
O O4 0.199142 0.000000 0.805932
O O5 0.500000 0.783401 0.053007
O O6 0.230362 0.730740 0.094670
O O7 0.212714 0.858172 0.059251
O O8 0.229301 0.755891 0.000000
O O9 0.500000 0.577710 0.789607
O O10 0.775605 0.500000 0.801059
O O11 0.768057 0.631142 0.833639
O O12 0.500000 0.350461 0.889736
O O13 0.177013 0.393927 0.920384
O O14 0.000000 0.500000 0.052262
O O15 0.000000 0.392735 0.000000
O O16 0.286500 0.500000 0.579778
O O17 0.000000 0.571157 0.568533
#
# Coordination Sequence:
#
# PCOD9522431 Si02
#       6
#    16  16  16  16   8  16
#     4   8  14  27  47  71 101 134 167 206 258 319
#     4   9  18  33  53  74  98 137 182 220 270 330
#     4   8  14  27  50  76 100 133 174 211 253 312
#     4  10  20  37  58  78 108 145 183 223 272 320
#     4  11  24  38  54  82 113 141 183 231 271 317
#     4   9  17  30  49  75 105 133 170 223 273 320
#
# _framework density 21.292344
#
# number of rings (size 3 to 8) (size 9 to 14) (size 15 to 20)
#    0.000    3.000    0.000    2.182    0.000    2.545 
#    3.273    3.636    0.000    0.000    0.000    2.545 
#    0.000    0.000    0.000    0.000    0.000    0.000 
#
# Total GULP energy -245166.998777 kJ/mol
# GULP energy per Si atom -5571.977245 kJ/mol
# Density = 2.124388 g / cm^3
# Si number density = 21.292344 Si / 1000 Ang^3
#
#
#
# Elastic Constant Matrix: (Units=GPa)
#
#
# Indices 1 2 3 4 5 6 
#
# 1 65.1219 4.7102 -5.3900 0.0000 0.0000 0.0000
# 2 4.7102 97.3366 23.8900 0.0000 0.0000 0.0000
# 3 -5.3900 23.8900 53.4572 0.0000 0.0000 0.0000
# 4 0.0000 0.0000 0.0000 46.4214 0.0000 0.0000
# 5 0.0000 0.0000 0.0000 0.0000 134.9161 0.0000
# 6 0.0000 0.0000 0.0000 0.0000 0.0000 -13.3412
#
#
#
# Elastic Compliance Matrix: (Units=1/GPa)
#
#
# Indices 1 2 3 4 5 6 
#
# 1 0.015627 -0.001284 0.002149 0.000000 0.000000 0.000000
# 2 -0.001284 0.011645 -0.005333 0.000000 0.000000 0.000000
# 3 0.002149 -0.005333 0.021307 0.000000 0.000000 0.000000
# 4 0.000000 0.000000 0.000000 0.021542 0.000000 0.000000
# 5 0.000000 0.000000 0.000000 0.000000 0.007412 0.000000
# 6 0.000000 0.000000 0.000000 0.000000 0.000000 -0.074956
#
#
# Mechanical properties :
#
#
# Convention : Reuss Voigt Hill
#
# Bulk Modulus (GPa) = 25.22554 29.14845 27.18699
# Shear Modulus (GPa) = 202.21659 46.44631 124.33145
#
# Velocity S-wave (km/s) = 9.75590 4.67557 7.64979
# Velocity P-wave (km/s) = 11.78034 6.54731 9.53005
#
# Compressibility (1/GPa) = 0.03964237
#
# Stress axis : x y z
#
# Youngs Moduli (GPa) = 63.99361 85.87532 46.93337
#
# Poissons Ratio (x) = 0.11024 -0.10087
# Poissons Ratio (y) = 0.08215 0.25032
# Poissons Ratio (z) = -0.13754 0.45802
#
# Static dielectric constant tensor:
#      x y z
#    x 1.658690 0.000000 0.000000 
#    y 0.000000 1.764390 0.000000 
#    z 0.000000 0.000000 1.784210 
# 
# From -- ./inp_files/16607.got.cif
#   From: 2010.05.17/outbox.cif.g08.bks.cpg/sg71_9_cif.got.tgz:16607.got - 2010.06.03 16:22:01.
