data_PCOD9522728
_publ_section_title
;
Structure prediction by ZEFSAII (Michael W. Deem and Ramdas Pophale) SiO2 
 PCOD9522728
Probable space group: I M M M
;
_chemical_formula_sum "Si O2"
_cell_formula_units_Z 88
_cell_length_a 9.172685
_cell_length_b 35.928133
_cell_length_c 14.886627
_cell_angle_alpha 90.000000
_cell_angle_beta 90.000000
_cell_angle_gamma 90.000000
_cell_volume 4905.998783
_symmetry_space_group_name_H-M "I M M M"
_symmetry_group_IT_number 71
_symmetry_cell_setting 'orthorhombic'
loop_
_space_group_symop_operation_xyz
x,y,z
-x,-y,z
x,-y,-z
-x,y,-z
-x,-y,-z
x,y,-z
-x,y,z
x,-y,z
1/2+x,1/2+y,1/2+z
1/2-x,1/2-y,1/2+z
1/2+x,1/2-y,1/2-z
1/2-x,1/2+y,1/2-z
1/2-x,1/2-y,1/2-z
1/2+x,1/2+y,1/2-z
1/2-x,1/2+y,1/2+z
1/2+x,1/2-y,1/2+z
loop_
_atom_site_type_symbol
_atom_site_label
_atom_site_fract_x
_atom_site_fract_y
_atom_site_fract_z
Si Si1 0.335839 0.455035 0.000000
Si Si2 0.326550 0.668413 0.105932
Si Si3 0.666436 0.244730 0.609414
Si Si4 0.326316 0.819741 0.894224
Si Si5 0.674871 0.042405 0.684362
Si Si6 0.825187 0.381159 0.251869
O O1 0.249244 0.446195 0.909539
O O2 0.346125 0.500000 0.000000
O O3 0.500000 0.439380 0.000000
O O4 0.500000 0.669120 0.117768
O O5 0.257802 0.708176 0.132900
O O6 0.253317 0.637319 0.167044
O O7 0.295838 0.662378 0.000000
O O8 0.664527 0.245794 0.500000
O O9 0.500000 0.241815 0.641174
O O10 0.741622 0.283080 0.638315
O O11 0.500000 0.813254 0.884771
O O12 0.286002 0.856121 0.837534
O O13 0.296330 0.825023 0.000000
O O14 0.500000 0.041896 0.671939
O O15 0.710369 0.075011 0.754607
O O16 0.719830 0.000000 0.707221
O O17 0.000000 0.378086 0.240050
#
# Coordination Sequence:
#
# PCOD9522728 Si02
#       6
#     8  16  16  16  16  16
#     4   9  17  29  47  71  97 127 163 199 237 285
#     4  10  21  35  50  72 104 138 168 202 246 294
#     4   9  17  31  52  75  99 131 169 206 246 294
#     4   9  18  34  54  74  98 128 166 212 256 297
#     4   9  18  33  51  71  98 132 168 203 242 294
#     4  10  21  34  51  75  99 131 170 207 251 298
#
# _framework density 17.937224000000001
#
# number of rings (size 3 to 8) (size 9 to 14) (size 15 to 20)
#    0.000    2.636    0.000    1.364    1.273    6.545 
#    0.000    0.000    0.000    0.545    0.000    3.818 
#    0.000    0.000    0.000   10.727    0.000   11.273 
#
# Total GULP energy -245454.277575 kJ/mol
# GULP energy per Si atom -5578.506309 kJ/mol
# Density = 1.789640 g / cm^3
# Si number density = 17.937224 Si / 1000 Ang^3
#
#
#
# Elastic Constant Matrix: (Units=GPa)
#
#
# Indices 1 2 3 4 5 6 
#
# 1 27.2400 36.3521 23.5139 0.0000 0.0000 0.0000
# 2 36.3521 140.4567 44.5180 0.0000 0.0000 0.0000
# 3 23.5139 44.5180 43.5987 0.0001 0.0000 0.0000
# 4 0.0000 0.0000 0.0001 29.7054 0.0000 0.0000
# 5 0.0000 0.0000 0.0000 0.0000 14.1577 0.0000
# 6 0.0000 0.0000 0.0000 0.0000 0.0000 20.4288
#
#
#
# Elastic Compliance Matrix: (Units=1/GPa)
#
#
# Indices 1 2 3 4 5 6 
#
# 1 0.077191 -0.010029 -0.031391 0.000000 0.000000 0.000000
# 2 -0.010029 0.011829 -0.006670 0.000000 0.000000 0.000000
# 3 -0.031391 -0.006670 0.046677 0.000000 0.000000 0.000000
# 4 0.000000 0.000000 0.000000 0.033664 0.000000 0.000000
# 5 0.000000 0.000000 0.000000 0.000000 0.070633 0.000000
# 6 0.000000 0.000000 0.000000 0.000000 0.000000 0.048951
#
#
# Mechanical properties :
#
#
# Convention : Reuss Voigt Hill
#
# Bulk Modulus (GPa) = 25.30481 46.67372 35.98926
# Shear Modulus (GPa) = 12.55345 19.98581 16.26963
#
# Velocity S-wave (km/s) = 2.64835 3.34160 3.01496
# Velocity P-wave (km/s) = 4.84662 6.40043 5.67693
#
# Compressibility (1/GPa) = 0.03951818
#
# Stress axis : x y z
#
# Youngs Moduli (GPa) = 12.95483 84.53622 21.42383
#
# Poissons Ratio (x) = 0.84779 0.67252
# Poissons Ratio (y) = 0.12992 0.14290
# Poissons Ratio (z) = 0.40667 0.56385
#
# Static dielectric constant tensor:
#      x y z
#    x 1.606660 0.000000 0.000000 
#    y 0.000000 1.630630 0.000000 
#    z 0.000000 0.000000 1.615130 
# 
# From -- ./inp_files/42476.got.cif
#   From: 2010.05.17/outbox.cif.g08.bks.cpg/sg71_22_cif.got.tgz:42476.got - 2010.06.03 16:22:01.
