data_PCOD9522705
_publ_section_title
;
Structure prediction by ZEFSAII (Michael W. Deem and Ramdas Pophale) SiO2 
 PCOD9522705
Probable space group: I M M M
;
_chemical_formula_sum "Si O2"
_cell_formula_units_Z 104
_cell_length_a 9.068254
_cell_length_b 32.610826
_cell_length_c 20.763802
_cell_angle_alpha 90.000000
_cell_angle_beta 90.000000
_cell_angle_gamma 90.000000
_cell_volume 6140.339079
_symmetry_space_group_name_H-M "I M M M"
_symmetry_group_IT_number 71
_symmetry_cell_setting 'orthorhombic'
loop_
_space_group_symop_operation_xyz
x,y,z
-x,-y,z
x,-y,-z
-x,y,-z
-x,-y,-z
x,y,-z
-x,y,z
x,-y,z
1/2+x,1/2+y,1/2+z
1/2-x,1/2-y,1/2+z
1/2+x,1/2-y,1/2-z
1/2-x,1/2+y,1/2-z
1/2-x,1/2-y,1/2-z
1/2+x,1/2+y,1/2-z
1/2-x,1/2+y,1/2+z
1/2+x,1/2-y,1/2+z
loop_
_atom_site_type_symbol
_atom_site_label
_atom_site_fract_x
_atom_site_fract_y
_atom_site_fract_z
Si Si1 0.676286 0.312971 0.426925
Si Si2 0.823413 0.224452 0.425962
Si Si3 0.669892 0.071441 0.630636
Si Si4 0.822436 0.955088 0.240000
Si Si5 0.170554 0.334788 0.823365
Si Si6 0.677655 0.365704 0.696025
Si Si7 0.331960 0.450848 0.000000
O O1 0.705530 0.327410 0.500000
O O2 0.500000 0.305144 0.421939
O O3 0.761522 0.270370 0.417474
O O4 0.716425 0.345476 0.372062
O O5 0.785710 0.211790 0.500000
O O6 0.751829 0.195571 0.372239
O O7 0.000000 0.224016 0.420158
O O8 0.500000 0.057987 0.628602
O O9 0.754406 0.049589 0.689022
O O10 0.673555 0.119797 0.645935
O O11 0.748661 0.063312 0.563635
O O12 0.777711 0.913641 0.202408
O O13 0.000000 0.954213 0.244783
O O14 0.780232 0.000000 0.213315
O O15 0.249210 0.340426 0.754411
O O16 0.000000 0.322407 0.815018
O O17 0.500000 0.363888 0.703434
O O18 0.334906 0.500000 0.000000
O O19 0.500000 0.435453 0.000000
#
# Coordination Sequence:
#
# PCOD9522705 Si02
#       7
#    16  16  16  16  16  16   8
#     4   9  18  34  55  77 101 132 167 204 249 299
#     4  10  21  35  52  75 101 133 172 210 250 298
#     4  10  21  34  48  69  95 126 165 210 254 295
#     4   9  17  31  51  73  98 129 164 202 246 297
#     4  10  21  35  51  73 101 132 168 209 254 298
#     4   9  18  33  53  76 102 132 168 207 248 298
#     4  11  23  35  47  65  91 127 169 209 253 303
#
# _framework density 16.937175
#
# number of rings (size 3 to 8) (size 9 to 14) (size 15 to 20)
#    0.000    2.385    0.000    2.077    1.077    6.769 
#    0.000    0.000    0.000    0.462    0.000    3.231 
#    0.000    0.000    0.000   11.538    0.000   12.000 
#
# Total GULP energy -290031.207318 kJ/mol
# GULP energy per Si atom -5577.523218 kJ/mol
# Density = 1.689863 g / cm^3
# Si number density = 16.937175 Si / 1000 Ang^3
#
#
#
# Elastic Constant Matrix: (Units=GPa)
#
#
# Indices 1 2 3 4 5 6 
#
# 1 43.0406 38.7778 47.7565 0.0000 0.0000 0.0000
# 2 38.7778 93.0027 81.0389 0.0000 0.0000 0.0000
# 3 47.7565 81.0389 126.1400 0.0000 0.0000 0.0000
# 4 0.0000 0.0000 0.0000 11.5679 0.0000 0.0000
# 5 0.0000 0.0000 0.0000 0.0000 34.1535 0.0000
# 6 0.0000 0.0000 0.0000 0.0000 0.0000 20.5517
#
#
#
# Elastic Compliance Matrix: (Units=1/GPa)
#
#
# Indices 1 2 3 4 5 6 
#
# 1 0.042810 -0.008467 -0.010769 0.000000 0.000000 0.000000
# 2 -0.008467 0.026101 -0.013563 0.000000 0.000000 0.000000
# 3 -0.010769 -0.013563 0.020718 0.000000 0.000000 0.000000
# 4 0.000000 0.000000 0.000000 0.086446 0.000000 0.000000
# 5 0.000000 0.000000 0.000000 0.000000 0.029280 0.000000
# 6 0.000000 0.000000 0.000000 0.000000 0.000000 0.048658
#
#
# Mechanical properties :
#
#
# Convention : Reuss Voigt Hill
#
# Bulk Modulus (GPa) = 41.60951 66.36997 53.98974
# Shear Modulus (GPa) = 15.26155 19.56197 17.41176
#
# Velocity S-wave (km/s) = 3.00504 3.40218 3.20975
# Velocity P-wave (km/s) = 6.05480 7.39622 6.75887
#
# Compressibility (1/GPa) = 0.02403297
#
# Stress axis : x y z
#
# Youngs Moduli (GPa) = 23.35882 38.31273 48.26645
#
# Poissons Ratio (x) = 0.32438 0.51976
# Poissons Ratio (y) = 0.19777 0.65465
# Poissons Ratio (z) = 0.25154 0.51964
#
# Static dielectric constant tensor:
#      x y z
#    x 1.572460 0.000000 0.000000 
#    y 0.000000 1.576630 0.000000 
#    z 0.000000 0.000000 1.546750 
# 
# From -- ./inp_files/51179.got.cif
#   From: 2010.05.17/outbox.cif.g08.bks.cpg/sg71_26_cif.got.tgz:51179.got - 2010.06.03 16:22:01.
