data_PCOD9522151
_publ_section_title
;
Structure prediction by ZEFSAII (Michael W. Deem and Ramdas Pophale) SiO2 
 PCOD9522151
Probable space group: I M M M
;
_chemical_formula_sum "Si O2"
_cell_formula_units_Z 80
_cell_length_a 9.905470
_cell_length_b 24.654932
_cell_length_c 17.661864
_cell_angle_alpha 90.000000
_cell_angle_beta 90.000000
_cell_angle_gamma 90.000000
_cell_volume 4313.357276
_symmetry_space_group_name_H-M "I M M M"
_symmetry_group_IT_number 71
_symmetry_cell_setting 'orthorhombic'
loop_
_space_group_symop_operation_xyz
x,y,z
-x,-y,z
x,-y,-z
-x,y,-z
-x,-y,-z
x,y,-z
-x,y,z
x,-y,z
1/2+x,1/2+y,1/2+z
1/2-x,1/2-y,1/2+z
1/2+x,1/2-y,1/2-z
1/2-x,1/2+y,1/2-z
1/2-x,1/2-y,1/2-z
1/2+x,1/2+y,1/2-z
1/2-x,1/2+y,1/2+z
1/2+x,1/2-y,1/2+z
loop_
_atom_site_type_symbol
_atom_site_label
_atom_site_fract_x
_atom_site_fract_y
_atom_site_fract_z
Si Si1 0.500000 0.208166 0.190286
Si Si2 0.500000 0.811704 0.635769
Si Si3 0.500000 0.335880 0.194554
Si Si4 0.704745 0.849323 0.086902
Si Si5 0.237314 0.120529 0.410483
Si Si6 0.000000 0.821320 0.130601
Si Si7 0.000000 0.559458 0.408988
Si Si8 0.342137 0.500000 0.909327
O O1 0.500000 0.182208 0.273172
O O2 0.500000 0.271635 0.195379
O O3 0.368002 0.191584 0.143538
O O4 0.370958 0.843488 0.602397
O O5 0.500000 0.745496 0.624425
O O6 0.627377 0.356560 0.147512
O O7 0.500000 0.346058 0.284245
O O8 0.633893 0.906100 0.109115
O O9 0.863600 0.843440 0.093673
O O10 0.665364 0.838157 0.000000
O O11 0.199305 0.125288 0.500000
O O12 0.237410 0.055811 0.391825
O O13 0.000000 0.500000 0.374922
O O14 0.000000 0.554857 0.500000
O O15 0.500000 0.500000 0.880328
O O16 0.354789 0.500000 0.000000
#
# Coordination Sequence:
#
# PCOD9522151 Si02
#       8
#     8   8   8  16  16   8   8   8
#     4  10  21  38  56  80 115 154 197 229 282 349
#     4  11  24  38  55  83 123 160 180 231 296 343
#     4  11  22  36  59  80 110 162 194 230 281 345
#     4  10  20  35  60  84 110 149 187 238 286 330
#     4  11  22  37  61  87 113 151 198 242 285 338
#     4  11  23  38  54  83 127 156 181 229 296 349
#     4   8  16  34  60  84 105 138 185 229 277 334
#     4   9  18  37  61  85 113 147 190 246 297 330
#
# _framework density 18.547037
#
# number of rings (size 3 to 8) (size 9 to 14) (size 15 to 20)
#    0.000    1.800    1.000    4.200    0.000    8.400 
#    0.000    2.000   22.000    2.400    0.000    0.000 
#    0.000    0.000    0.000    0.000    0.000    0.000 
#
# Total GULP energy -222868.853596 kJ/mol
# GULP energy per Si atom -5571.721340 kJ/mol
# Density = 1.850482 g / cm^3
# Si number density = 18.547037 Si / 1000 Ang^3
#
#
#
# Elastic Constant Matrix: (Units=GPa)
#
#
# Indices 1 2 3 4 5 6 
#
# 1 120.0412 41.3503 10.1058 0.0000 0.0000 0.0000
# 2 41.3503 78.4487 29.9524 0.0000 0.0000 0.0000
# 3 10.1058 29.9524 81.9082 0.0000 0.0000 0.0000
# 4 0.0000 0.0000 0.0000 88.8517 0.0001 0.0000
# 5 0.0000 0.0000 0.0000 0.0001 -4.7338 0.0000
# 6 0.0000 0.0000 0.0000 0.0000 0.0000 86.1956
#
#
#
# Elastic Compliance Matrix: (Units=1/GPa)
#
#
# Indices 1 2 3 4 5 6 
#
# 1 0.010226 -0.005705 0.000825 0.000000 0.000000 0.000000
# 2 -0.005705 0.017999 -0.005878 0.000000 0.000000 0.000000
# 3 0.000825 -0.005878 0.014256 0.000000 0.000000 0.000000
# 4 0.000000 0.000000 0.000000 0.011255 0.000000 0.000000
# 5 0.000000 0.000000 0.000000 0.000000 -0.211246 0.000000
# 6 0.000000 0.000000 0.000000 0.000000 0.000000 0.011602
#
#
# Mechanical properties :
#
#
# Convention : Reuss Voigt Hill
#
# Bulk Modulus (GPa) = 47.69970 49.24612 48.47291
# Shear Modulus (GPa) = -42.58830 47.32866 2.37018
#
# Velocity S-wave (km/s) = -4.79710 5.05703 1.13168
# Velocity P-wave (km/s) = 2.21559 7.79152 5.28199
#
# Compressibility (1/GPa) = 0.02096449
#
# Stress axis : x y z
#
# Youngs Moduli (GPa) = 97.78722 55.55997 70.14354
#
# Poissons Ratio (x) = 0.31698 -0.05784
# Poissons Ratio (y) = 0.55789 0.41229
# Poissons Ratio (z) = -0.08063 0.32657
#
# Static dielectric constant tensor:
#      x y z
#    x 1.637550 0.000000 0.000000 
#    y 0.000000 1.656270 0.000000 
#    z 0.000000 0.000000 1.641530 
# 
# From -- ./inp_files/50464.got.cif
#   From: 2010.05.17/outbox.cif.g08.bks.cpg/sg71_26_cif.got.tgz:50464.got - 2010.06.03 16:22:01.
