data_PCOD9522860
_publ_section_title
;
Structure prediction by ZEFSAII (Michael W. Deem and Ramdas Pophale) SiO2 
 PCOD9522860
Probable space group: I M M M
;
_chemical_formula_sum "Si O2"
_cell_formula_units_Z 88
_cell_length_a 27.994774
_cell_length_b 8.416376
_cell_length_c 19.846219
_cell_angle_alpha 90.000000
_cell_angle_beta 90.000000
_cell_angle_gamma 90.000000
_cell_volume 4676.057840
_symmetry_space_group_name_H-M "I M M M"
_symmetry_group_IT_number 71
_symmetry_cell_setting 'orthorhombic'
loop_
_space_group_symop_operation_xyz
x,y,z
-x,-y,z
x,-y,-z
-x,y,-z
-x,-y,-z
x,y,-z
-x,y,z
x,-y,z
1/2+x,1/2+y,1/2+z
1/2-x,1/2-y,1/2+z
1/2+x,1/2-y,1/2-z
1/2-x,1/2+y,1/2-z
1/2-x,1/2-y,1/2-z
1/2+x,1/2+y,1/2-z
1/2-x,1/2+y,1/2+z
1/2+x,1/2-y,1/2+z
loop_
_atom_site_type_symbol
_atom_site_label
_atom_site_fract_x
_atom_site_fract_y
_atom_site_fract_z
Si Si1 0.728796 0.190463 0.320346
Si Si2 0.055278 0.306363 0.074223
Si Si3 0.380422 0.807458 0.302404
Si Si4 0.000000 0.806045 0.578478
Si Si5 0.902528 0.809584 0.652775
Si Si6 0.192351 0.690423 0.577403
O O1 0.750000 0.250000 0.250000
O O2 0.673593 0.241507 0.320178
O O3 0.761907 0.254016 0.380084
O O4 0.730261 0.000000 0.322090
O O5 0.056539 0.500000 0.074832
O O6 0.085575 0.250979 0.137459
O O7 0.000000 0.259754 0.080593
O O8 0.072803 0.256220 0.000000
O O9 0.396942 0.747617 0.229561
O O10 0.381314 0.000000 0.300132
O O11 0.951759 0.754575 0.617151
O O12 0.000000 0.755845 0.500000
O O13 0.000000 0.000000 0.578507
O O14 0.856046 0.751925 0.612144
O O15 0.902769 0.000000 0.652228
O O16 0.194772 0.745008 0.500000
O O17 0.191034 0.500000 0.578636
#
# Coordination Sequence:
#
# PCOD9522860 Si02
#       6
#    16  16  16   8  16  16
#     4  11  22  37  58  83 117 155 194 239 287 341
#     4   8  15  30  53  81 112 146 184 228 279 332
#     4  10  21  35  56  86 117 148 188 240 287 339
#     4   9  20  38  57  81 114 149 190 238 285 345
#     4  11  22  37  60  86 115 154 194 235 287 353
#     4  11  24  41  61  86 117 151 194 246 294 345
#
# _framework density 18.819271000000001
#
# number of rings (size 3 to 8) (size 9 to 14) (size 15 to 20)
#    0.000    1.909    1.818    2.727    1.273    3.636 
#    0.000    3.182    0.000    3.818    0.000    1.273 
#    0.000    0.000    0.000    0.000    0.000    0.000 
#
# Total GULP energy -245689.239034 kJ/mol
# GULP energy per Si atom -5583.846342 kJ/mol
# Density = 1.877644 g / cm^3
# Si number density = 18.819271 Si / 1000 Ang^3
#
#
#
# Elastic Constant Matrix: (Units=GPa)
#
#
# Indices 1 2 3 4 5 6 
#
# 1 161.0638 26.0456 130.0298 0.0000 0.0000 0.0000
# 2 26.0456 21.5931 27.6040 0.0000 0.0000 0.0000
# 3 130.0298 27.6040 230.1411 0.0000 0.0000 0.0000
# 4 0.0000 0.0000 0.0000 20.1561 0.0000 0.0000
# 5 0.0000 0.0000 0.0000 0.0000 41.0395 0.0000
# 6 0.0000 0.0000 0.0000 0.0000 0.0000 17.4803
#
#
#
# Elastic Compliance Matrix: (Units=1/GPa)
#
#
# Indices 1 2 3 4 5 6 
#
# 1 0.012251 -0.007002 -0.006082 0.000000 0.000000 0.000000
# 2 -0.007002 0.058700 -0.003084 0.000000 0.000000 0.000000
# 3 -0.006082 -0.003084 0.008151 0.000000 0.000000 0.000000
# 4 0.000000 0.000000 0.000000 0.049613 0.000000 0.000000
# 5 0.000000 0.000000 0.000000 0.000000 0.024367 0.000000
# 6 0.000000 0.000000 0.000000 0.000000 0.000000 0.057207
#
#
# Mechanical properties :
#
#
# Convention : Reuss Voigt Hill
#
# Bulk Modulus (GPa) = 21.38333 86.68410 54.03371
# Shear Modulus (GPa) = 19.36366 31.00977 25.18672
#
# Velocity S-wave (km/s) = 3.21117 4.06367 3.66231
# Velocity P-wave (km/s) = 5.01358 8.25707 6.83064
#
# Compressibility (1/GPa) = 0.04676541
#
# Stress axis : x y z
#
# Youngs Moduli (GPa) = 81.62448 17.03570 122.67697
#
# Poissons Ratio (x) = 0.11929 0.74613
# Poissons Ratio (y) = 0.57156 0.37839
# Poissons Ratio (z) = 0.49645 0.05255
#
# Static dielectric constant tensor:
#      x y z
#    x 1.746290 0.000000 0.000000 
#    y 0.000000 1.656410 0.000000 
#    z 0.000000 0.000000 1.628650 
# 
# From -- ./inp_files/49228.got.cif
#   From: 2010.05.17/outbox.cif.g08.bks.cpg/sg71_25_cif.got.tgz:49228.got - 2010.06.03 16:22:01.
