data_PCOD9522102
_publ_section_title
;
Structure prediction by ZEFSAII (Michael W. Deem and Ramdas Pophale) SiO2 
 PCOD9522102
Probable space group: I M M M
;
_chemical_formula_sum "Si O2"
_cell_formula_units_Z 104
_cell_length_a 28.951501
_cell_length_b 21.620823
_cell_length_c 8.737447
_cell_angle_alpha 90.000000
_cell_angle_beta 90.000000
_cell_angle_gamma 90.000000
_cell_volume 5469.251072
_symmetry_space_group_name_H-M "I M M M"
_symmetry_group_IT_number 71
_symmetry_cell_setting 'orthorhombic'
loop_
_space_group_symop_operation_xyz
x,y,z
-x,-y,z
x,-y,-z
-x,y,-z
-x,-y,-z
x,y,-z
-x,y,z
x,-y,z
1/2+x,1/2+y,1/2+z
1/2-x,1/2-y,1/2+z
1/2+x,1/2-y,1/2-z
1/2-x,1/2+y,1/2-z
1/2-x,1/2-y,1/2-z
1/2+x,1/2+y,1/2-z
1/2-x,1/2+y,1/2+z
1/2+x,1/2-y,1/2+z
loop_
_atom_site_type_symbol
_atom_site_label
_atom_site_fract_x
_atom_site_fract_y
_atom_site_fract_z
Si Si1 0.055124 0.255366 0.322165
Si Si2 0.892839 0.380909 0.316355
Si Si3 0.692553 0.182476 0.317440
Si Si4 0.554386 0.000000 0.683991
Si Si5 0.359306 0.567414 0.815983
Si Si6 0.553114 0.624010 0.681548
Si Si7 0.199061 0.815348 0.315591
O O1 0.067631 0.242964 0.500000
O O2 0.079895 0.318038 0.272936
O O3 0.065965 0.194472 0.225771
O O4 0.000000 0.265088 0.314824
O O5 0.893407 0.386425 0.500000
O O6 0.841017 0.367889 0.257918
O O7 0.918818 0.439635 0.245618
O O8 0.687252 0.180112 0.500000
O O9 0.746804 0.174756 0.279656
O O10 0.681490 0.251453 0.256759
O O11 0.500000 0.000000 0.731353
O O12 0.555594 0.000000 0.500000
O O13 0.343114 0.500000 0.762726
O O14 0.411418 0.579211 0.763900
O O15 0.329207 0.625258 0.761112
O O16 0.357159 0.568199 0.000000
O O17 0.555839 0.616025 0.500000
O O18 0.500000 0.614704 0.730456
O O19 0.194997 0.809578 0.500000
#
# Coordination Sequence:
#
# PCOD9522102 Si02
#       7
#    16  16  16   8  16  16  16
#     4   9  18  33  54  79 106 140 182 225 270 321
#     4  11  22  37  58  84 115 151 190 234 285 343
#     4  10  20  35  58  87 115 145 184 233 288 341
#     4  11  25  43  61  83 115 155 199 245 292 349
#     4  10  21  37  56  77 103 140 186 226 266 321
#     4  10  21  35  52  78 111 143 176 221 275 326
#     4   9  19  37  58  83 113 147 186 232 287 342
#
# _framework density 19.0154
#
# number of rings (size 3 to 8) (size 9 to 14) (size 15 to 20)
#    0.000    2.077    0.000    3.000    0.000    8.923 
#    1.385    3.077    0.000    0.000    0.000    0.000 
#    0.000    0.000    0.000    0.000    0.000    0.000 
#
# Total GULP energy -290406.168871 kJ/mol
# GULP energy per Si atom -5584.734017 kJ/mol
# Density = 1.897212 g / cm^3
# Si number density = 19.015400 Si / 1000 Ang^3
#
#
#
# Elastic Constant Matrix: (Units=GPa)
#
#
# Indices 1 2 3 4 5 6 
#
# 1 90.1710 65.0344 24.5019 0.0000 0.0000 0.0000
# 2 65.0344 109.5783 25.2457 0.0000 0.0000 0.0000
# 3 24.5019 25.2457 22.4658 0.0000 0.0000 0.0000
# 4 0.0000 0.0000 0.0000 20.4549 0.0000 0.0000
# 5 0.0000 0.0000 0.0000 0.0000 24.2688 0.0000
# 6 0.0000 0.0000 0.0000 0.0000 0.0000 25.8312
#
#
#
# Elastic Compliance Matrix: (Units=1/GPa)
#
#
# Indices 1 2 3 4 5 6 
#
# 1 0.021677 -0.010010 -0.012393 0.000000 0.000000 0.000000
# 2 -0.010010 0.016936 -0.008115 0.000000 0.000000 0.000000
# 3 -0.012393 -0.008115 0.067147 0.000000 0.000000 0.000000
# 4 0.000000 0.000000 0.000000 0.048888 0.000000 0.000000
# 5 0.000000 0.000000 0.000000 0.000000 0.041205 0.000000
# 6 0.000000 0.000000 0.000000 0.000000 0.000000 0.038713
#
#
# Mechanical properties :
#
#
# Convention : Reuss Voigt Hill
#
# Bulk Modulus (GPa) = 22.35889 50.19769 36.27829
# Shear Modulus (GPa) = 16.10247 21.27319 18.68783
#
# Velocity S-wave (km/s) = 2.91316 3.34838 3.13832
# Velocity P-wave (km/s) = 4.80616 6.43464 5.67907
#
# Compressibility (1/GPa) = 0.04472493
#
# Stress axis : x y z
#
# Youngs Moduli (GPa) = 46.13136 59.04425 14.89263
#
# Poissons Ratio (x) = 0.59104 0.18457
# Poissons Ratio (y) = 0.46178 0.12085
# Poissons Ratio (z) = 0.57171 0.47913
#
# Static dielectric constant tensor:
#      x y z
#    x 1.674670 0.000000 0.000000 
#    y 0.000000 1.643790 0.000000 
#    z 0.000000 0.000000 1.642090 
# 
# From -- ./inp_files/11113.got.cif
#   From: 2010.05.17/outbox.cif.g08.bks.cpg/sg71_6_cif.got.tgz:11113.got - 2010.06.03 16:22:01.
