data_PCOD9522086
_publ_section_title
;
Structure prediction by ZEFSAII (Michael W. Deem and Ramdas Pophale) SiO2 
 PCOD9522086
Probable space group: I M M M
;
_chemical_formula_sum "Si O2"
_cell_formula_units_Z 104
_cell_length_a 17.356851
_cell_length_b 28.432726
_cell_length_c 12.736254
_cell_angle_alpha 90.000000
_cell_angle_beta 90.000000
_cell_angle_gamma 90.000000
_cell_volume 6285.374319
_symmetry_space_group_name_H-M "I M M M"
_symmetry_group_IT_number 71
_symmetry_cell_setting 'orthorhombic'
loop_
_space_group_symop_operation_xyz
x,y,z
-x,-y,z
x,-y,-z
-x,y,-z
-x,-y,-z
x,y,-z
-x,y,z
x,-y,z
1/2+x,1/2+y,1/2+z
1/2-x,1/2-y,1/2+z
1/2+x,1/2-y,1/2-z
1/2-x,1/2+y,1/2-z
1/2-x,1/2-y,1/2-z
1/2+x,1/2+y,1/2-z
1/2-x,1/2+y,1/2+z
1/2+x,1/2-y,1/2+z
loop_
_atom_site_type_symbol
_atom_site_label
_atom_site_fract_x
_atom_site_fract_y
_atom_site_fract_z
Si Si1 0.588476 0.385228 0.625858
Si Si2 0.738011 0.443948 0.624988
Si Si3 0.500000 0.055996 0.620585
Si Si4 0.357460 0.709700 0.262053
Si Si5 0.297178 0.199158 0.625344
Si Si6 0.132748 0.390026 0.240047
Si Si7 0.000000 0.651399 0.382368
Si Si8 0.500000 0.736162 0.118908
O O1 0.586391 0.380767 0.500000
O O2 0.500000 0.394040 0.661204
O O3 0.651757 0.425305 0.649673
O O4 0.620631 0.336820 0.673702
O O5 0.752351 0.434388 0.500000
O O6 0.743875 0.500000 0.640417
O O7 0.798806 0.416457 0.698229
O O8 0.500000 0.072073 0.500000
O O9 0.423489 0.075115 0.677140
O O10 0.500000 0.000000 0.623967
O O11 0.344663 0.754661 0.337737
O O12 0.281444 0.702197 0.192137
O O13 0.425818 0.720151 0.182164
O O14 0.285622 0.199817 0.500000
O O15 0.337184 0.151025 0.663335
O O16 0.076274 0.365680 0.323959
O O17 0.000000 0.632562 0.500000
O O18 0.000000 0.707489 0.384154
O O19 0.500000 0.718212 0.000000
#
# Coordination Sequence:
#
# PCOD9522086 Si02
#       8
#    16  16   8  16  16  16   8   8
#     4  10  20  35  58  85 114 146 181 225 280 337
#     4  10  21  37  58  84 111 143 185 231 281 336
#     4  10  22  38  57  80 107 141 183 230 278 327
#     4  11  21  38  54  80 114 147 181 230 265 323
#     4  11  23  36  54  82 112 147 185 225 272 325
#     4  11  20  37  57  80 110 147 182 231 273 329
#     4  10  21  35  52  79 112 147 185 222 269 321
#     4  11  21  35  55  80 110 150 187 218 265 319
#
# _framework density 16.546348999999999
#
# number of rings (size 3 to 8) (size 9 to 14) (size 15 to 20)
#    0.000    1.462    3.846    2.308    0.000    0.308 
#    0.000    2.308    0.000    3.692    0.000    0.000 
#    0.000    1.846    0.000    0.000    0.000    0.000 
#
# Total GULP energy -290147.340991 kJ/mol
# GULP energy per Si atom -5579.756558 kJ/mol
# Density = 1.650869 g / cm^3
# Si number density = 16.546349 Si / 1000 Ang^3
#
#
#
# Elastic Constant Matrix: (Units=GPa)
#
#
# Indices 1 2 3 4 5 6 
#
# 1 103.6183 36.6404 33.6404 0.0000 0.0000 0.0000
# 2 36.6404 80.4174 32.0084 0.0000 0.0000 0.0000
# 3 33.6404 32.0084 74.3078 -0.0002 0.0000 -0.0001
# 4 0.0000 0.0000 -0.0002 23.4672 0.0000 0.0000
# 5 0.0000 0.0000 0.0000 0.0000 -58.5177 0.0000
# 6 0.0000 0.0000 -0.0001 0.0000 0.0000 18.2372
#
#
#
# Elastic Compliance Matrix: (Units=1/GPa)
#
#
# Indices 1 2 3 4 5 6 
#
# 1 0.012342 -0.004103 -0.003820 0.000000 0.000000 0.000000
# 2 -0.004103 0.016372 -0.005195 0.000000 0.000000 0.000000
# 3 -0.003820 -0.005195 0.017425 0.000000 0.000000 0.000000
# 4 0.000000 0.000000 0.000000 0.042613 0.000000 0.000000
# 5 0.000000 0.000000 0.000000 0.000000 -0.017089 0.000000
# 6 0.000000 0.000000 0.000000 0.000000 0.000000 0.054833
#
#
# Mechanical properties :
#
#
# Convention : Reuss Voigt Hill
#
# Bulk Modulus (GPa) = 50.24354 51.43576 50.83965
# Shear Modulus (GPa) = 31.37439 7.04095 19.20767
#
# Velocity S-wave (km/s) = 4.35921 2.06507 3.41081
# Velocity P-wave (km/s) = 7.46781 6.06955 6.80469
#
# Compressibility (1/GPa) = 0.01990306
#
# Stress axis : x y z
#
# Youngs Moduli (GPa) = 81.02559 61.07905 57.38971
#
# Poissons Ratio (x) = 0.25059 0.21923
# Poissons Ratio (y) = 0.33243 0.29814
# Poissons Ratio (z) = 0.30952 0.31731
#
# Static dielectric constant tensor:
#      x y z
#    x 1.554840 0.000000 0.000000 
#    y 0.000000 1.537090 0.000000 
#    z 0.000000 0.000000 1.538980 
# 
# From -- ./inp_files/24597.got.cif
#   From: 2010.05.17/outbox.cif.g08.bks.cpg/sg71_13_cif.got.tgz:24597.got - 2010.06.03 16:22:01.
