data_PCOD9522584
_publ_section_title
;
Structure prediction by ZEFSAII (Michael W. Deem and Ramdas Pophale) SiO2 
 PCOD9522584
Probable space group: I M M M
;
_chemical_formula_sum "Si O2"
_cell_formula_units_Z 64
_cell_length_a 11.577068
_cell_length_b 33.985708
_cell_length_c 7.933629
_cell_angle_alpha 90.000000
_cell_angle_beta 90.000000
_cell_angle_gamma 90.000000
_cell_volume 3121.524828
_symmetry_space_group_name_H-M "I M M M"
_symmetry_group_IT_number 71
_symmetry_cell_setting 'orthorhombic'
loop_
_space_group_symop_operation_xyz
x,y,z
-x,-y,z
x,-y,-z
-x,y,-z
-x,-y,-z
x,y,-z
-x,y,z
x,-y,z
1/2+x,1/2+y,1/2+z
1/2-x,1/2-y,1/2+z
1/2+x,1/2-y,1/2-z
1/2-x,1/2+y,1/2-z
1/2-x,1/2-y,1/2-z
1/2+x,1/2+y,1/2-z
1/2-x,1/2+y,1/2+z
1/2+x,1/2-y,1/2+z
loop_
_atom_site_type_symbol
_atom_site_label
_atom_site_fract_x
_atom_site_fract_y
_atom_site_fract_z
Si Si1 0.126619 0.230522 0.297877
Si Si2 0.870275 0.631228 0.000000
Si Si3 0.797659 0.542364 0.000000
Si Si4 0.708781 0.648298 0.689045
Si Si5 0.868327 0.059830 0.192283
O O1 0.126266 0.228589 0.500000
O O2 0.250000 0.250000 0.250000
O O3 0.133653 0.186662 0.223237
O O4 0.000000 0.247977 0.246785
O O5 0.866285 0.583391 0.000000
O O6 0.804125 0.645893 0.165518
O O7 0.000000 0.645256 0.000000
O O8 0.716818 0.544334 0.165557
O O9 0.858829 0.500000 0.000000
O O10 0.758282 0.650668 0.500000
O O11 0.639618 0.607385 0.700731
O O12 0.000000 0.047780 0.223564
O O13 0.836849 0.048737 0.000000
#
# Coordination Sequence:
#
# PCOD9522584 Si02
#       5
#    16   8   8  16  16
#     4  11  24  41  62  91 127 168 210 255 310 370
#     4  10  22  40  61  86 114 151 200 255 306 362
#     4  10  21  35  52  79 113 150 191 239 293 357
#     4  10  20  38  62  86 115 152 196 247 306 364
#     4   9  18  32  53  81 111 147 188 233 290 356
#
# _framework density 20.502799
#
# number of rings (size 3 to 8) (size 9 to 14) (size 15 to 20)
#    0.000    2.000    1.250    1.875    0.000    6.250 
#    0.000    1.250    0.000    0.000    0.000    7.000 
#    0.000    0.000    0.000    0.000    0.000    0.000 
#
# Total GULP energy -178572.402813 kJ/mol
# GULP energy per Si atom -5580.387588 kJ/mol
# Density = 2.045613 g / cm^3
# Si number density = 20.502799 Si / 1000 Ang^3
#
#
#
# Elastic Constant Matrix: (Units=GPa)
#
#
# Indices 1 2 3 4 5 6 
#
# 1 132.2987 26.3960 62.8658 0.0033 -0.0006 0.0004
# 2 26.3960 81.1951 7.5907 -0.0016 0.0003 -0.0002
# 3 62.8658 7.5907 127.5522 0.0011 0.0081 -0.0004
# 4 0.0033 -0.0016 0.0011 -3.8187 -0.0004 0.0003
# 5 -0.0006 0.0003 0.0081 -0.0004 9.5414 0.0003
# 6 0.0004 -0.0002 -0.0004 0.0003 0.0003 -12.1008
#
#
#
# Elastic Compliance Matrix: (Units=1/GPa)
#
#
# Indices 1 2 3 4 5 6 
#
# 1 0.010531 -0.002955 -0.005014 0.000009 0.000005 0.000001
# 2 -0.002955 0.013214 0.000670 -0.000008 -0.000001 0.000000
# 3 -0.005014 0.000670 0.010272 -0.000002 -0.000009 -0.000001
# 4 0.000009 -0.000008 -0.000002 -0.261866 -0.000012 -0.000005
# 5 0.000005 -0.000001 -0.000009 -0.000012 0.104807 0.000003
# 6 0.000001 0.000000 -0.000001 -0.000005 0.000003 -0.082639
#
#
# Mechanical properties :
#
#
# Convention : Reuss Voigt Hill
#
# Bulk Modulus (GPa) = 51.49914 59.41677 55.45796
# Shear Modulus (GPa) = -27.08394 15.00393 -6.04001
#
# Velocity S-wave (km/s) = -3.63848 2.70811 -1.71824
# Velocity P-wave (km/s) = 2.74249 6.23067 4.81365
#
# Compressibility (1/GPa) = 0.01941780
#
# Stress axis : x y z
#
# Youngs Moduli (GPa) = 94.95799 75.67752 97.35651
#
# Poissons Ratio (x) = 0.22361 0.48819
# Poissons Ratio (y) = 0.28058 -0.06522
# Poissons Ratio (z) = 0.47617 -0.05070
#
# Static dielectric constant tensor:
#      x y z
#    x 1.709960 0.000000 0.000000 
#    y 0.000000 1.758120 0.000000 
#    z 0.000000 0.000000 1.707850 
# 
# From -- ./inp_files/3764.got.cif
#   From: 2010.05.17/outbox.cif.g08.bks.cpg/sg71_2_cif.got.tgz:3764.got - 2010.06.03 16:22:01.
