data_PCOD9522280
_publ_section_title
;
Structure prediction by ZEFSAII (Michael W. Deem and Ramdas Pophale) SiO2 
 PCOD9522280
Probable space group: I M M M
;
_chemical_formula_sum "Si O2"
_cell_formula_units_Z 120
_cell_length_a 26.202315
_cell_length_b 12.727415
_cell_length_c 18.410992
_cell_angle_alpha 90.000000
_cell_angle_beta 90.000000
_cell_angle_gamma 90.000000
_cell_volume 6139.840057
_symmetry_space_group_name_H-M "I M M M"
_symmetry_group_IT_number 71
_symmetry_cell_setting 'orthorhombic'
loop_
_space_group_symop_operation_xyz
x,y,z
-x,-y,z
x,-y,-z
-x,y,-z
-x,-y,-z
x,y,-z
-x,y,z
x,-y,z
1/2+x,1/2+y,1/2+z
1/2-x,1/2-y,1/2+z
1/2+x,1/2-y,1/2-z
1/2-x,1/2+y,1/2-z
1/2-x,1/2-y,1/2-z
1/2+x,1/2+y,1/2-z
1/2-x,1/2+y,1/2+z
1/2+x,1/2-y,1/2+z
loop_
_atom_site_type_symbol
_atom_site_label
_atom_site_fract_x
_atom_site_fract_y
_atom_site_fract_z
Si Si1 0.424191 0.616430 0.415899
Si Si2 0.190746 0.184514 0.083513
Si Si3 0.212949 0.621777 0.673601
Si Si4 0.441983 0.000000 0.911619
Si Si5 0.662625 0.878401 0.675558
Si Si6 0.876927 0.703634 0.415600
Si Si7 0.943492 0.726145 0.790026
Si Si8 0.059658 0.122245 0.652059
O O1 0.438520 0.631018 0.500000
O O2 0.440367 0.500000 0.392252
O O3 0.362641 0.623033 0.412594
O O4 0.443952 0.707322 0.364336
O O5 0.231521 0.140167 0.140387
O O6 0.176968 0.301915 0.109795
O O7 0.209212 0.180230 0.000000
O O8 0.198656 0.500000 0.659015
O O9 0.202958 0.638918 0.758800
O O10 0.174154 0.696262 0.630708
O O11 0.413071 0.106695 0.890303
O O12 0.500000 0.000000 0.885179
O O13 0.443378 0.000000 0.000000
O O14 0.606051 0.847920 0.705155
O O15 0.663311 0.000000 0.655315
O O16 0.865419 0.686785 0.500000
O O17 0.906149 0.812426 0.403659
O O18 0.935270 0.812335 0.726770
O O19 0.000000 0.677660 0.779194
O O20 0.000000 0.126862 0.630833
O O21 0.073759 0.000000 0.659989
#
# Coordination Sequence:
#
# PCOD9522280 Si02
#       8
#    16  16  16   8  16  16  16  16
#     4   9  18  33  54  84 117 146 185 239 297 353
#     4  10  21  37  60  87 117 155 196 239 292 357
#     4  11  21  37  61  89 119 152 193 245 301 352
#     4   9  18  32  50  76 112 150 189 241 302 352
#     4  10  22  40  61  87 120 155 195 242 294 352
#     4  11  21  34  53  81 113 149 195 248 301 352
#     4  10  20  36  58  84 116 153 196 239 290 354
#     4  10  21  37  55  76 108 154 201 243 292 352
#
# _framework density 19.544483
#
# number of rings (size 3 to 8) (size 9 to 14) (size 15 to 20)
#    0.000    1.933    2.000    2.000    0.000    4.000 
#    0.000    2.000    0.000    1.600    0.000    3.733 
#    0.000    0.000    0.000    0.000    0.000    0.000 
#
# Total GULP energy -334996.485925 kJ/mol
# GULP energy per Si atom -5583.274765 kJ/mol
# Density = 1.950000 g / cm^3
# Si number density = 19.544483 Si / 1000 Ang^3
#
#
#
# Elastic Constant Matrix: (Units=GPa)
#
#
# Indices 1 2 3 4 5 6 
#
# 1 63.2804 0.4475 2.5228 0.0000 0.0000 0.0000
# 2 0.4475 70.9797 6.0403 0.0000 0.0000 0.0000
# 3 2.5228 6.0403 38.7921 0.0000 0.0000 0.0000
# 4 0.0000 0.0000 0.0000 21.9702 0.0000 0.0000
# 5 0.0000 0.0000 0.0000 0.0000 18.4035 0.0000
# 6 0.0000 0.0000 0.0000 0.0000 0.0000 16.5690
#
#
#
# Elastic Compliance Matrix: (Units=1/GPa)
#
#
# Indices 1 2 3 4 5 6 
#
# 1 0.015844 -0.000012 -0.001028 0.000000 0.000000 0.000000
# 2 -0.000012 0.014278 -0.002222 0.000000 0.000000 0.000000
# 3 -0.001028 -0.002222 0.026191 0.000000 0.000000 0.000000
# 4 0.000000 0.000000 0.000000 0.045516 0.000000 0.000000
# 5 0.000000 0.000000 0.000000 0.000000 0.054337 0.000000
# 6 0.000000 0.000000 0.000000 0.000000 0.000000 0.060354
#
#
# Mechanical properties :
#
#
# Convention : Reuss Voigt Hill
#
# Bulk Modulus (GPa) = 20.08577 21.23038 20.65807
# Shear Modulus (GPa) = 20.86446 22.32465 21.59455
#
# Velocity S-wave (km/s) = 3.27086 3.38338 3.32760
# Velocity P-wave (km/s) = 4.95621 5.11363 5.03553
#
# Compressibility (1/GPa) = 0.04978649
#
# Stress axis : x y z
#
# Youngs Moduli (GPa) = 63.11624 70.03912 38.18046
#
# Poissons Ratio (x) = 0.00087 0.03927
# Poissons Ratio (y) = 0.00078 0.08485
# Poissons Ratio (z) = 0.06491 0.15565
#
# Static dielectric constant tensor:
#      x y z
#    x 1.707530 0.000000 0.000000 
#    y 0.000000 1.659460 0.000000 
#    z 0.000000 0.000000 1.684510 
# 
# From -- ./inp_files/55844.got.cif
#   From: 2010.05.17/outbox.cif.g08.bks.cpg/sg71_28_cif.got.tgz:55844.got - 2010.06.03 16:22:01.
