data_PCOD9522460
_publ_section_title
;
Structure prediction by ZEFSAII (Michael W. Deem and Ramdas Pophale) SiO2 
 PCOD9522460
Probable space group: I M M M
;
_chemical_formula_sum "Si O2"
_cell_formula_units_Z 80
_cell_length_a 23.461262
_cell_length_b 7.872146
_cell_length_c 22.410558
_cell_angle_alpha 90.000000
_cell_angle_beta 90.000000
_cell_angle_gamma 90.000000
_cell_volume 4139.016710
_symmetry_space_group_name_H-M "I M M M"
_symmetry_group_IT_number 71
_symmetry_cell_setting 'orthorhombic'
loop_
_space_group_symop_operation_xyz
x,y,z
-x,-y,z
x,-y,-z
-x,y,-z
-x,-y,-z
x,y,-z
-x,y,z
x,-y,z
1/2+x,1/2+y,1/2+z
1/2-x,1/2-y,1/2+z
1/2+x,1/2-y,1/2-z
1/2-x,1/2+y,1/2-z
1/2-x,1/2-y,1/2-z
1/2+x,1/2+y,1/2-z
1/2-x,1/2+y,1/2+z
1/2+x,1/2-y,1/2+z
loop_
_atom_site_type_symbol
_atom_site_label
_atom_site_fract_x
_atom_site_fract_y
_atom_site_fract_z
Si Si1 0.432776 0.000000 0.189642
Si Si2 0.869900 0.500000 0.565034
Si Si3 0.436259 0.794747 0.430197
Si Si4 0.854995 0.198808 0.268005
Si Si5 0.204108 0.811560 0.605466
Si Si6 0.822249 0.802097 0.136280
O O1 0.405122 0.831965 0.218927
O O2 0.500000 0.000000 0.195730
O O3 0.413149 0.000000 0.120423
O O4 0.897418 0.500000 0.500000
O O5 0.829514 0.335632 0.571984
O O6 0.429891 0.748456 0.500000
O O7 0.500000 0.740939 0.410789
O O8 0.384103 0.724160 0.392463
O O9 0.434409 0.000000 0.426623
O O10 0.812960 0.210135 0.324641
O O11 0.826036 0.248159 0.205669
O O12 0.873021 0.000000 0.263222
O O13 0.272040 0.793795 0.602112
O O14 0.186209 0.000000 0.586650
O O15 0.806681 0.000000 0.134106
#
# Coordination Sequence:
#
# PCOD9522460 Si02
#       6
#     8   8  16  16  16  16
#     4  10  22  39  62  88 115 157 197 235 296 346
#     4  10  22  41  60  86 121 151 195 247 288 344
#     4   9  20  38  54  70 100 144 193 240 278 320
#     4   9  21  37  56  86 121 150 183 234 288 345
#     4  10  20  37  59  84 118 154 184 231 291 344
#     4  11  21  34  55  85 114 147 192 233 284 341
#
# _framework density 19.328263
#
# number of rings (size 3 to 8) (size 9 to 14) (size 15 to 20)
#    0.000    2.200    1.000    1.800    2.800    3.400 
#    0.000    3.000    0.000    0.000    0.000    5.600 
#    0.000    0.000    0.000    0.000    0.000    0.000 
#
# Total GULP energy -223326.967156 kJ/mol
# GULP energy per Si atom -5583.174179 kJ/mol
# Density = 1.928427 g / cm^3
# Si number density = 19.328263 Si / 1000 Ang^3
#
#
#
# Elastic Constant Matrix: (Units=GPa)
#
#
# Indices 1 2 3 4 5 6 
#
# 1 75.1072 19.4294 -17.5013 0.0000 0.0000 0.0000
# 2 19.4294 69.2563 7.1001 0.0000 0.0000 0.0000
# 3 -17.5013 7.1001 19.4694 0.0000 0.0000 0.0000
# 4 0.0000 0.0000 0.0000 -28.0911 0.0000 0.0000
# 5 0.0000 0.0000 0.0000 0.0000 0.2984 0.0000
# 6 0.0000 0.0000 0.0000 0.0000 0.0000 20.0366
#
#
#
# Elastic Compliance Matrix: (Units=1/GPa)
#
#
# Indices 1 2 3 4 5 6 
#
# 1 0.020251 -0.007841 0.021063 0.000000 0.000000 0.000000
# 2 -0.007841 0.018036 -0.013625 0.000000 0.000000 0.000000
# 3 0.021063 -0.013625 0.075265 0.000000 0.000000 0.000000
# 4 0.000000 0.000000 0.000000 -0.035598 0.000000 0.000000
# 5 0.000000 0.000000 0.000000 0.000000 3.351686 0.000000
# 6 0.000000 0.000000 0.000000 0.000000 0.000000 0.049909
#
#
# Mechanical properties :
#
#
# Convention : Reuss Voigt Hill
#
# Bulk Modulus (GPa) = 8.86956 20.20994 14.53975
# Shear Modulus (GPa) = 1.42129 8.76909 5.09519
#
# Velocity S-wave (km/s) = 0.85845 2.13232 1.62538
# Velocity P-wave (km/s) = 2.36251 4.06709 3.32586
#
# Compressibility (1/GPa) = 0.11274517
#
# Stress axis : x y z
#
# Youngs Moduli (GPa) = 49.38138 55.44602 13.28640
#
# Poissons Ratio (x) = 0.43472 -0.27985
# Poissons Ratio (y) = 0.38717 0.18103
# Poissons Ratio (z) = -1.04011 0.75546
#
# Static dielectric constant tensor:
#      x y z
#    x 1.636360 0.000000 0.000000 
#    y 0.000000 1.692690 0.000000 
#    z 0.000000 0.000000 1.667100 
# 
# From -- ./inp_files/10306.got.cif
#   From: 2010.05.17/outbox.cif.g08.bks.cpg/sg71_6_cif.got.tgz:10306.got - 2010.06.03 16:22:01.
