data_PCOD9522303
_publ_section_title
;
Structure prediction by ZEFSAII (Michael W. Deem and Ramdas Pophale) SiO2 
 PCOD9522303
Probable space group: I M M M
;
_chemical_formula_sum "Si O2"
_cell_formula_units_Z 74
_cell_length_a 9.407010
_cell_length_b 26.693832
_cell_length_c 17.185676
_cell_angle_alpha 90.000000
_cell_angle_beta 90.000000
_cell_angle_gamma 90.000000
_cell_volume 4315.480399
_symmetry_space_group_name_H-M "I M M M"
_symmetry_group_IT_number 71
_symmetry_cell_setting 'orthorhombic'
loop_
_space_group_symop_operation_xyz
x,y,z
-x,-y,z
x,-y,-z
-x,y,-z
-x,-y,-z
x,y,-z
-x,y,z
x,-y,z
1/2+x,1/2+y,1/2+z
1/2-x,1/2-y,1/2+z
1/2+x,1/2-y,1/2-z
1/2-x,1/2+y,1/2-z
1/2-x,1/2-y,1/2-z
1/2+x,1/2+y,1/2-z
1/2-x,1/2+y,1/2+z
1/2+x,1/2-y,1/2+z
loop_
_atom_site_type_symbol
_atom_site_label
_atom_site_fract_x
_atom_site_fract_y
_atom_site_fract_z
Si Si1 0.656571 0.103713 0.500000
Si Si2 0.831382 0.155899 0.366799
Si Si3 0.000000 0.500000 0.000000
Si Si4 0.168457 0.728367 0.408186
Si Si5 0.668016 0.940789 0.091199
Si Si6 0.330393 0.357164 0.315312
O O1 0.500000 0.128881 0.500000
O O2 0.742107 0.121479 0.424552
O O3 0.621530 0.044904 0.500000
O O4 0.801551 0.214094 0.386103
O O5 0.800265 0.145224 0.276683
O O6 0.000000 0.148295 0.380253
O O7 0.195281 0.721085 0.500000
O O8 0.260079 0.690371 0.357611
O O9 0.000000 0.719363 0.394624
O O10 0.500000 0.931139 0.104237
O O11 0.761881 0.906068 0.145601
O O12 0.692505 0.000000 0.103613
O O13 0.696735 0.929929 0.000000
O O14 0.500000 0.356646 0.325845
#
# Coordination Sequence:
#
# PCOD9522303 Si02
#       6
#     8  16   2  16  16  16
#     4  10  21  41  65  87 117 146 191 246 298 346
#     4  10  21  40  61  83 116 157 195 234 290 357
#     4   8  24  44  62  96 120 140 192 264 302 348
#     4  10  20  36  59  82 113 157 200 236 284 347
#     4   9  19  38  60  79 105 150 200 238 284 346
#     4  11  23  35  53  87 123 150 188 242 293 349
#
# _framework density 17.147569000000001
#
# number of rings (size 3 to 8) (size 9 to 14) (size 15 to 20)
#    0.324    1.730    1.081    2.919    0.000    6.486 
#    1.946    2.162    0.000    0.000    0.000    0.000 
#    0.000    0.000    0.000    0.000    0.000    0.000 
#
# Total GULP energy -206256.574620 kJ/mol
# GULP energy per Si atom -5574.502017 kJ/mol
# Density = 1.710854 g / cm^3
# Si number density = 17.147569 Si / 1000 Ang^3
#
#
#
# Elastic Constant Matrix: (Units=GPa)
#
#
# Indices 1 2 3 4 5 6 
#
# 1 89.4677 84.5893 101.5845 0.0000 0.0000 0.0000
# 2 84.5893 119.4311 99.3326 0.0000 0.0000 0.0000
# 3 101.5845 99.3326 149.6878 -0.0001 0.0000 0.0000
# 4 0.0000 0.0000 -0.0001 5.9854 0.0000 0.0000
# 5 0.0000 0.0000 0.0000 0.0000 29.2579 0.0000
# 6 0.0000 0.0000 0.0000 0.0000 0.0000 40.0074
#
#
#
# Elastic Compliance Matrix: (Units=1/GPa)
#
#
# Indices 1 2 3 4 5 6 
#
# 1 0.066605 -0.021380 -0.031013 0.000000 0.000000 0.000000
# 2 -0.021380 0.025550 -0.002445 0.000000 0.000000 0.000000
# 3 -0.031013 -0.002445 0.029350 0.000000 0.000000 0.000000
# 4 0.000000 0.000000 0.000000 0.167074 0.000000 0.000000
# 5 0.000000 0.000000 0.000000 0.000000 0.034179 0.000000
# 6 0.000000 0.000000 0.000000 0.000000 0.000000 0.024995
#
#
# Mechanical properties :
#
#
# Convention : Reuss Voigt Hill
#
# Bulk Modulus (GPa) = 84.54775 103.28880 93.91827
# Shear Modulus (GPa) = 10.83726 19.92217 15.37971
#
# Velocity S-wave (km/s) = 2.51669 3.41223 2.99808
# Velocity P-wave (km/s) = 7.60644 8.71151 8.17766
#
# Compressibility (1/GPa) = 0.01182764
#
# Stress axis : x y z
#
# Youngs Moduli (GPa) = 15.01399 39.13955 34.07158
#
# Poissons Ratio (x) = 0.83680 1.05666
# Poissons Ratio (y) = 0.32100 0.08332
# Poissons Ratio (z) = 0.46563 0.09571
#
# Static dielectric constant tensor:
#      x y z
#    x 1.569800 0.000000 0.000000 
#    y 0.000000 1.559440 0.000000 
#    z 0.000000 0.000000 1.561930 
# 
# From -- ./inp_files/31693.got.cif
#   From: 2010.05.17/outbox.cif.g08.bks.cpg/sg71_16_cif.got.tgz:31693.got - 2010.06.03 16:22:01.
