data_PCOD9522387
_publ_section_title
;
Structure prediction by ZEFSAII (Michael W. Deem and Ramdas Pophale) SiO2 
 PCOD9522387
Probable space group: I M M M
;
_chemical_formula_sum "Si O2"
_cell_formula_units_Z 72
_cell_length_a 13.999653
_cell_length_b 7.579281
_cell_length_c 32.907421
_cell_angle_alpha 90.000000
_cell_angle_beta 90.000000
_cell_angle_gamma 90.000000
_cell_volume 3491.717724
_symmetry_space_group_name_H-M "I M M M"
_symmetry_group_IT_number 71
_symmetry_cell_setting 'orthorhombic'
loop_
_space_group_symop_operation_xyz
x,y,z
-x,-y,z
x,-y,-z
-x,y,-z
-x,-y,-z
x,y,-z
-x,y,z
x,-y,z
1/2+x,1/2+y,1/2+z
1/2-x,1/2-y,1/2+z
1/2+x,1/2-y,1/2-z
1/2-x,1/2+y,1/2-z
1/2-x,1/2-y,1/2-z
1/2+x,1/2+y,1/2-z
1/2-x,1/2+y,1/2+z
1/2+x,1/2-y,1/2+z
loop_
_atom_site_type_symbol
_atom_site_label
_atom_site_fract_x
_atom_site_fract_y
_atom_site_fract_z
Si Si1 0.388941 0.794299 0.128798
Si Si2 0.163989 0.209894 0.720183
Si Si3 0.111770 0.288647 0.000000
Si Si4 0.500000 0.283593 0.370770
Si Si5 0.000000 0.784087 0.222012
Si Si6 0.803941 0.208697 0.087023
O O1 0.500000 0.722996 0.126907
O O2 0.349449 0.784426 0.175084
O O3 0.299993 0.720031 0.101597
O O4 0.397818 0.000000 0.117638
O O5 0.250000 0.250000 0.750000
O O6 0.084368 0.277889 0.750262
O O7 0.155916 0.000000 0.714503
O O8 0.169655 0.231014 0.039860
O O9 0.106976 0.500000 0.000000
O O10 0.000000 0.224320 0.000000
O O11 0.500000 0.500000 0.373503
O O12 0.500000 0.228046 0.324114
O O13 0.400223 0.221934 0.390661
O O14 0.000000 0.000000 0.220644
O O15 0.800518 0.000000 0.096526
#
# Coordination Sequence:
#
# PCOD9522387 Si02
#       6
#    16  16   8   8   8  16
#     4  10  21  38  59  85 119 156 198 246 294 345
#     4  11  21  35  55  80 113 155 200 246 293 341
#     4  11  23  39  60  89 124 148 175 236 305 358
#     4   9  16  29  52  81 110 142 191 241 278 332
#     4   9  18  32  50  76 111 149 191 234 282 334
#     4  10  20  36  61  87 113 153 195 234 287 355
#
# _framework density 20.620222999999999
#
# number of rings (size 3 to 8) (size 9 to 14) (size 15 to 20)
#    0.000    1.889    2.222    2.333    0.000    4.889 
#    0.000    0.556    0.000    4.667    0.000    0.000 
#    0.000    0.000    0.000    0.000    0.000    0.000 
#
# Total GULP energy -200421.569076 kJ/mol
# GULP energy per Si atom -5567.265808 kJ/mol
# Density = 2.057329 g / cm^3
# Si number density = 20.620223 Si / 1000 Ang^3
#
#
#
# Elastic Constant Matrix: (Units=GPa)
#
#
# Indices 1 2 3 4 5 6 
#
# 1 231.8987 1.4953 94.3391 0.0000 0.0000 0.0000
# 2 1.4953 48.9140 -14.2033 0.0000 0.0000 0.0000
# 3 94.3391 -14.2033 155.2588 0.0000 0.0000 0.0000
# 4 0.0000 0.0000 0.0000 16.5022 0.0000 0.0000
# 5 0.0000 0.0000 0.0000 0.0000 41.3348 0.0000
# 6 0.0000 0.0000 0.0000 0.0000 0.0000 -18.8035
#
#
#
# Elastic Compliance Matrix: (Units=1/GPa)
#
#
# Indices 1 2 3 4 5 6 
#
# 1 0.005800 -0.001233 -0.003637 0.000000 0.000000 0.000000
# 2 -0.001233 0.021264 0.002695 0.000000 0.000000 0.000000
# 3 -0.003637 0.002695 0.008897 0.000000 0.000000 0.000000
# 4 0.000000 0.000000 0.000000 0.060598 0.000000 0.000000
# 5 0.000000 0.000000 0.000000 0.000000 0.024193 0.000000
# 6 0.000000 0.000000 0.000000 0.000000 0.000000 -0.053182
#
#
# Mechanical properties :
#
#
# Convention : Reuss Voigt Hill
#
# Bulk Modulus (GPa) = 31.63543 66.59262 49.11402
# Shear Modulus (GPa) = 60.63705 31.43607 46.03656
#
# Velocity S-wave (km/s) = 5.42867 3.90875 4.73016
# Velocity P-wave (km/s) = 7.39386 7.26196 7.32821
#
# Compressibility (1/GPa) = 0.03161013
#
# Stress axis : x y z
#
# Youngs Moduli (GPa) = 172.42264 47.02732 112.39454
#
# Poissons Ratio (x) = 0.05800 0.40876
# Poissons Ratio (y) = 0.21266 -0.30287
# Poissons Ratio (z) = 0.62708 -0.12672
#
# Static dielectric constant tensor:
#      x y z
#    x 1.753510 0.000000 0.000000 
#    y 0.000000 1.776510 0.000000 
#    z 0.000000 0.000000 -1.260700 
# 
# From -- ./inp_files/65190.got.cif
#   From: 2010.05.17/outbox.cif.g08.bks.cpg/sg71_33_cif.got.tgz:65190.got - 2010.06.03 16:22:01.
