data_PCOD9522924
_publ_section_title
;
Structure prediction by ZEFSAII (Michael W. Deem and Ramdas Pophale) SiO2 
 PCOD9522924
Probable space group: I M M M
;
_chemical_formula_sum "Si O2"
_cell_formula_units_Z 56
_cell_length_a 37.066501
_cell_length_b 9.622609
_cell_length_c 7.579926
_cell_angle_alpha 90.000000
_cell_angle_beta 90.000000
_cell_angle_gamma 90.000000
_cell_volume 2703.581068
_symmetry_space_group_name_H-M "I M M M"
_symmetry_group_IT_number 71
_symmetry_cell_setting 'orthorhombic'
loop_
_space_group_symop_operation_xyz
x,y,z
-x,-y,z
x,-y,-z
-x,y,-z
-x,-y,-z
x,y,-z
-x,y,z
x,-y,z
1/2+x,1/2+y,1/2+z
1/2-x,1/2-y,1/2+z
1/2+x,1/2-y,1/2-z
1/2-x,1/2+y,1/2-z
1/2-x,1/2-y,1/2-z
1/2+x,1/2+y,1/2-z
1/2-x,1/2+y,1/2+z
1/2+x,1/2-y,1/2+z
loop_
_atom_site_type_symbol
_atom_site_label
_atom_site_fract_x
_atom_site_fract_y
_atom_site_fract_z
Si Si1 0.851185 0.658502 0.288606
Si Si2 0.000000 0.840628 0.216369
Si Si3 0.432723 0.158254 0.711685
Si Si4 0.714983 0.657781 0.787981
O O1 0.847221 0.651691 0.500000
O O2 0.846994 0.500000 0.220456
O O3 0.892045 0.704825 0.251858
O O4 0.820474 0.761645 0.220759
O O5 0.035706 0.758592 0.275243
O O6 0.000000 0.000000 0.273107
O O7 0.000000 0.840498 0.000000
O O8 0.435985 0.152119 0.500000
O O9 0.436881 0.000000 0.779118
O O10 0.718274 0.500000 0.720615
O O11 0.750000 0.750000 0.750000
O O12 0.711808 0.649246 0.000000
#
# Coordination Sequence:
#
# PCOD9522924 Si02
#       4
#    16   8  16  16
#     4   9  18  33  51  71  98 130 161 197 244 294
#     4   9  17  29  46  69  96 124 156 197 242 284
#     4   9  17  30  49  71  94 123 160 199 238 284
#     4  10  21  36  54  76 102 133 168 206 249 297
#
# _framework density 20.713270000000001
#
# number of rings (size 3 to 8) (size 9 to 14) (size 15 to 20)
#    0.000    2.714    0.000    1.286    0.000    5.714 
#    0.000    3.571    0.000    4.286    0.000    0.000 
#    0.000    0.000    0.000    0.000    0.000    0.000 
#
# Total GULP energy -156315.153648 kJ/mol
# GULP energy per Si atom -5582.684059 kJ/mol
# Density = 2.066613 g / cm^3
# Si number density = 20.713270 Si / 1000 Ang^3
#
#
#
# Elastic Constant Matrix: (Units=GPa)
#
#
# Indices 1 2 3 4 5 6 
#
# 1 229.2283 157.4118 -1.7340 0.0000 0.0000 0.0000
# 2 157.4118 169.3692 6.6091 0.0000 0.0000 0.0000
# 3 -1.7340 6.6091 46.0424 0.0000 0.0000 0.0000
# 4 0.0000 0.0000 0.0000 10.4888 0.0000 0.0000
# 5 0.0000 0.0000 0.0000 0.0000 23.8007 0.0000
# 6 0.0000 0.0000 0.0000 0.0000 0.0000 39.1265
#
#
#
# Elastic Compliance Matrix: (Units=1/GPa)
#
#
# Indices 1 2 3 4 5 6 
#
# 1 0.012259 -0.011476 0.002109 0.000000 0.000000 0.000000
# 2 -0.011476 0.016680 -0.002826 0.000000 0.000000 0.000000
# 3 0.002109 -0.002826 0.022204 0.000000 0.000000 0.000000
# 4 0.000000 0.000000 0.000000 0.095340 0.000000 0.000000
# 5 0.000000 0.000000 0.000000 0.000000 0.042016 0.000000
# 6 0.000000 0.000000 0.000000 0.000000 0.000000 0.025558
#
#
# Mechanical properties :
#
#
# Convention : Reuss Voigt Hill
#
# Bulk Modulus (GPa) = 37.37386 85.46819 61.42103
# Shear Modulus (GPa) = 20.21335 33.50673 26.86004
#
# Velocity S-wave (km/s) = 3.12727 4.02636 3.60496
# Velocity P-wave (km/s) = 5.57874 7.93521 6.85893
#
# Compressibility (1/GPa) = 0.02675667
#
# Stress axis : x y z
#
# Youngs Moduli (GPa) = 81.57470 59.95232 45.03646
#
# Poissons Ratio (x) = 0.68798 -0.09498
# Poissons Ratio (y) = 0.93611 0.12729
# Poissons Ratio (z) = -0.17203 0.16945
#
# Static dielectric constant tensor:
#      x y z
#    x 1.702540 0.000000 0.000000 
#    y 0.000000 1.733660 0.000000 
#    z 0.000000 0.000000 1.785380 
# 
# From -- ./inp_files/3303.got.cif
#   From: 2010.05.17/outbox.cif.g08.bks.cpg/sg71_2_cif.got.tgz:3303.got - 2010.06.03 16:22:01.
