data_PCOD9522229
_publ_section_title
;
Structure prediction by ZEFSAII (Michael W. Deem and Ramdas Pophale) SiO2 
 PCOD9522229
Probable space group: I M M M
;
_chemical_formula_sum "Si O2"
_cell_formula_units_Z 64
_cell_length_a 7.571848
_cell_length_b 12.479429
_cell_length_c 31.797374
_cell_angle_alpha 90.000000
_cell_angle_beta 90.000000
_cell_angle_gamma 90.000000
_cell_volume 3004.608260
_symmetry_space_group_name_H-M "I M M M"
_symmetry_group_IT_number 71
_symmetry_cell_setting 'orthorhombic'
loop_
_space_group_symop_operation_xyz
x,y,z
-x,-y,z
x,-y,-z
-x,y,-z
-x,-y,-z
x,y,-z
-x,y,z
x,-y,z
1/2+x,1/2+y,1/2+z
1/2-x,1/2-y,1/2+z
1/2+x,1/2-y,1/2-z
1/2-x,1/2+y,1/2-z
1/2-x,1/2-y,1/2-z
1/2+x,1/2+y,1/2-z
1/2-x,1/2+y,1/2+z
1/2+x,1/2-y,1/2+z
loop_
_atom_site_type_symbol
_atom_site_label
_atom_site_fract_x
_atom_site_fract_y
_atom_site_fract_z
Si Si1 0.704334 0.115233 0.615285
Si Si2 0.500000 0.657327 0.047728
Si Si3 0.296990 0.879113 0.757268
Si Si4 0.291135 0.341204 0.648025
Si Si5 0.500000 0.112435 0.920835
O O1 0.500000 0.123327 0.602052
O O2 0.830852 0.123278 0.575116
O O3 0.738417 0.212747 0.646412
O O4 0.732785 0.000000 0.635616
O O5 0.500000 0.785680 0.049678
O O6 0.500000 0.620181 0.000000
O O7 0.500000 0.882747 0.743933
O O8 0.250000 0.750000 0.750000
O O9 0.272095 0.883884 0.807615
O O10 0.222671 0.000000 0.743061
O O11 0.500000 0.362369 0.642392
O O12 0.169970 0.381012 0.609901
O O13 0.500000 0.000000 0.943601
#
# Coordination Sequence:
#
# PCOD9522229 Si02
#       5
#    16   8  16  16   8
#     4   9  19  35  55  81 112 147 188 231 279 339
#     4  10  21  35  52  79 113 146 185 235 288 343
#     4  11  24  41  60  87 122 157 199 248 298 358
#     4  10  20  36  59  84 112 146 186 236 288 341
#     4  10  20  36  57  80 106 143 191 235 283 346
#
# _framework density 21.300612999999998
#
# number of rings (size 3 to 8) (size 9 to 14) (size 15 to 20)
#    0.000    2.000    1.250    1.875    0.000    6.250 
#    0.000    3.750    0.000    0.000    0.000    7.000 
#    0.000    0.000    0.000    0.000    0.000    0.000 
#
# Total GULP energy -178142.051036 kJ/mol
# GULP energy per Si atom -5566.939095 kJ/mol
# Density = 2.125213 g / cm^3
# Si number density = 21.300613 Si / 1000 Ang^3
#
#
#
# Elastic Constant Matrix: (Units=GPa)
#
#
# Indices 1 2 3 4 5 6 
#
# 1 43.7526 29.1358 -2.3526 0.0000 0.0000 0.0000
# 2 29.1358 227.9209 21.6206 0.0000 0.0000 0.0000
# 3 -2.3526 21.6206 61.6540 0.0000 0.0000 0.0000
# 4 0.0000 0.0000 0.0000 -10.7270 0.0000 0.0000
# 5 0.0000 0.0000 0.0000 0.0000 8.3484 0.0000
# 6 0.0000 0.0000 0.0000 0.0000 0.0000 607.2599
#
#
#
# Elastic Compliance Matrix: (Units=1/GPa)
#
#
# Indices 1 2 3 4 5 6 
#
# 1 0.025260 -0.003435 0.002168 0.000000 0.000000 0.000000
# 2 -0.003435 0.005005 -0.001886 0.000000 0.000000 0.000000
# 3 0.002168 -0.001886 0.016964 0.000000 0.000000 0.000000
# 4 0.000000 0.000000 0.000000 -0.093223 0.000000 0.000000
# 5 0.000000 0.000000 0.000000 0.000000 0.119784 0.000000
# 6 0.000000 0.000000 0.000000 0.000000 0.000000 0.001647
#
#
# Mechanical properties :
#
#
# Convention : Reuss Voigt Hill
#
# Bulk Modulus (GPa) = 24.43590 47.79278 36.11434
# Shear Modulus (GPa) = 52.42015 139.97118 96.19567
#
# Velocity S-wave (km/s) = 4.96620 8.11511 6.72748
# Velocity P-wave (km/s) = 6.66191 10.50203 8.79413
#
# Compressibility (1/GPa) = 0.04092339
#
# Stress axis : x y z
#
# Youngs Moduli (GPa) = 39.58887 199.78049 58.94914
#
# Poissons Ratio (x) = 0.68618 -0.12782
# Poissons Ratio (y) = 0.13598 0.11120
# Poissons Ratio (z) = -0.08584 0.37686
#
# Static dielectric constant tensor:
#      x y z
#    x 2.263090 0.000000 0.000000 
#    y 0.000000 1.945120 0.000000 
#    z 0.000000 0.000000 1.678530 
# 
# From -- ./inp_files/67728.got.cif
#   From: 2010.05.17/outbox.cif.g08.bks.cpg/sg71_34_cif.got.tgz:67728.got - 2010.06.03 16:22:01.
