data_PCOD9522594
_publ_section_title
;
Structure prediction by ZEFSAII (Michael W. Deem and Ramdas Pophale) SiO2 
 PCOD9522594
Probable space group: I M M M
;
_chemical_formula_sum "Si O2"
_cell_formula_units_Z 88
_cell_length_a 28.436327
_cell_length_b 13.054655
_cell_length_c 12.669983
_cell_angle_alpha 90.000000
_cell_angle_beta 90.000000
_cell_angle_gamma 90.000000
_cell_volume 4703.432664
_symmetry_space_group_name_H-M "I M M M"
_symmetry_group_IT_number 71
_symmetry_cell_setting 'orthorhombic'
loop_
_space_group_symop_operation_xyz
x,y,z
-x,-y,z
x,-y,-z
-x,y,-z
-x,-y,-z
x,y,-z
-x,y,z
x,-y,z
1/2+x,1/2+y,1/2+z
1/2-x,1/2-y,1/2+z
1/2+x,1/2-y,1/2-z
1/2-x,1/2+y,1/2-z
1/2-x,1/2-y,1/2-z
1/2+x,1/2+y,1/2-z
1/2-x,1/2+y,1/2+z
1/2+x,1/2-y,1/2+z
loop_
_atom_site_type_symbol
_atom_site_label
_atom_site_fract_x
_atom_site_fract_y
_atom_site_fract_z
Si Si1 0.859210 0.379979 0.000000
Si Si2 0.709635 0.191172 0.885327
Si Si3 0.274872 0.883850 0.342938
Si Si4 0.055076 0.776342 0.000000
Si Si5 0.054421 0.500000 0.371799
Si Si6 0.444080 0.616716 0.275674
Si Si7 0.401863 0.215237 0.121927
O O1 0.824902 0.360637 0.100649
O O2 0.905874 0.312381 0.000000
O O3 0.871361 0.500000 0.000000
O O4 0.721971 0.125210 0.783184
O O5 0.738155 0.297536 0.877810
O O6 0.654272 0.212458 0.879286
O O7 0.719770 0.143627 0.000000
O O8 0.262134 0.000000 0.373025
O O9 0.062349 0.843664 0.104969
O O10 0.000000 0.741547 0.000000
O O11 0.056472 0.500000 0.500000
O O12 0.079293 0.604995 0.337990
O O13 0.000000 0.500000 0.339624
O O14 0.500000 0.618291 0.255015
O O15 0.427224 0.500000 0.264522
O O16 0.419931 0.694462 0.195427
O O17 0.418160 0.228230 0.000000
#
# Coordination Sequence:
#
# PCOD9522594 Si02
#       7
#     8  16  16   8   8  16  16
#     4  10  20  38  63  86 116 159 198 242 306 360
#     4  10  21  37  57  84 116 146 194 243 288 349
#     4  10  21  37  59  83 111 154 195 238 296 354
#     4  10  21  39  60  85 117 155 204 251 292 352
#     4   9  18  34  56  85 121 159 197 230 287 359
#     4  10  21  38  59  84 116 158 202 245 296 349
#     4  10  21  36  59  89 119 156 192 246 299 357
#
# _framework density 18.70974
#
# number of rings (size 3 to 8) (size 9 to 14) (size 15 to 20)
#    0.000    2.091    0.909    1.909    1.273    3.818 
#    1.636    2.727    0.000    1.091    0.000    0.000 
#    0.000    0.000    0.000    0.000    0.000    0.000 
#
# Total GULP energy -245576.998524 kJ/mol
# GULP energy per Si atom -5581.295421 kJ/mol
# Density = 1.866716 g / cm^3
# Si number density = 18.709740 Si / 1000 Ang^3
#
#
#
# Elastic Constant Matrix: (Units=GPa)
#
#
# Indices 1 2 3 4 5 6 
#
# 1 83.0423 73.4287 23.4300 0.0000 0.0000 0.0000
# 2 73.4287 144.4828 42.0379 0.0000 0.0000 0.0000
# 3 23.4300 42.0379 112.5171 0.0000 0.0000 0.0000
# 4 0.0000 0.0000 0.0000 3.5648 0.0000 0.0000
# 5 0.0000 0.0000 0.0000 0.0000 26.0563 0.0000
# 6 0.0000 0.0000 0.0000 0.0000 0.0000 26.2412
#
#
#
# Elastic Compliance Matrix: (Units=1/GPa)
#
#
# Indices 1 2 3 4 5 6 
#
# 1 0.021890 -0.010994 -0.000451 0.000000 0.000000 0.000000
# 2 -0.010994 0.013287 -0.002675 0.000000 0.000000 0.000000
# 3 -0.000451 -0.002675 0.009981 0.000000 0.000000 0.000000
# 4 0.000000 0.000000 0.000000 0.280524 0.000000 0.000000
# 5 0.000000 0.000000 0.000000 0.000000 0.038378 0.000000
# 6 0.000000 0.000000 0.000000 0.000000 0.000000 0.038108
#
#
# Mechanical properties :
#
#
# Convention : Reuss Voigt Hill
#
# Bulk Modulus (GPa) = 59.10589 68.64838 63.87714
# Shear Modulus (GPa) = 11.46665 24.58216 18.02441
#
# Velocity S-wave (km/s) = 2.47831 3.62867 3.10719
# Velocity P-wave (km/s) = 6.31260 7.37070 6.86207
#
# Compressibility (1/GPa) = 0.01691879
#
# Stress axis : x y z
#
# Youngs Moduli (GPa) = 45.68204 75.26274 100.19264
#
# Poissons Ratio (x) = 0.82743 0.04518
# Poissons Ratio (y) = 0.50222 0.26800
# Poissons Ratio (z) = 0.02060 0.20131
#
# Static dielectric constant tensor:
#      x y z
#    x 1.616890 0.000000 0.000000 
#    y 0.000000 1.611270 0.000000 
#    z 0.000000 0.000000 1.681510 
# 
# From -- ./inp_files/29796.got.cif
#   From: 2010.05.17/outbox.cif.g08.bks.cpg/sg71_15_cif.got.tgz:29796.got - 2010.06.03 16:22:01.
