data_PCOD9522676
_publ_section_title
;
Structure prediction by ZEFSAII (Michael W. Deem and Ramdas Pophale) SiO2 
 PCOD9522676
Probable space group: I M M M
;
_chemical_formula_sum "Si O2"
_cell_formula_units_Z 120
_cell_length_a 15.210686
_cell_length_b 23.085311
_cell_length_c 22.272304
_cell_angle_alpha 90.000000
_cell_angle_beta 90.000000
_cell_angle_gamma 90.000000
_cell_volume 7820.772927
_symmetry_space_group_name_H-M "I M M M"
_symmetry_group_IT_number 71
_symmetry_cell_setting 'orthorhombic'
loop_
_space_group_symop_operation_xyz
x,y,z
-x,-y,z
x,-y,-z
-x,y,-z
-x,-y,-z
x,y,-z
-x,y,z
x,-y,z
1/2+x,1/2+y,1/2+z
1/2-x,1/2-y,1/2+z
1/2+x,1/2-y,1/2-z
1/2-x,1/2+y,1/2-z
1/2-x,1/2-y,1/2-z
1/2+x,1/2+y,1/2-z
1/2-x,1/2+y,1/2+z
1/2+x,1/2-y,1/2+z
loop_
_atom_site_type_symbol
_atom_site_label
_atom_site_fract_x
_atom_site_fract_y
_atom_site_fract_z
Si Si1 0.254908 0.433214 0.244533
Si Si2 0.897398 0.847446 0.289065
Si Si3 0.000000 0.930281 0.931323
Si Si4 0.896820 0.772981 0.832293
Si Si5 0.396803 0.159168 0.256989
Si Si6 0.602628 0.766267 0.864103
Si Si7 0.808868 0.066660 0.115506
Si Si8 0.760441 0.184384 0.931541
O O1 0.242773 0.500000 0.227532
O O2 0.332159 0.401078 0.208448
O O3 0.167626 0.394808 0.237880
O O4 0.284550 0.431923 0.314536
O O5 0.883102 0.815173 0.224983
O O6 0.880558 0.798262 0.338887
O O7 0.000000 0.863910 0.291796
O O8 0.910707 0.915922 0.896482
O O9 0.000000 0.000000 0.935467
O O10 0.000000 0.907509 0.000000
O O11 0.878923 0.708470 0.806950
O O12 0.832237 0.790617 0.885229
O O13 0.000000 0.776556 0.848827
O O14 0.500000 0.143899 0.260405
O O15 0.382325 0.191122 0.193000
O O16 0.500000 0.770310 0.880342
O O17 0.668907 0.785242 0.915309
O O18 0.754164 0.115497 0.081248
O O19 0.797433 0.000000 0.094441
O O20 0.786243 0.193813 0.000000
#
# Coordination Sequence:
#
# PCOD9522676 Si02
#       8
#    16  16   8  16  16  16  16  16
#     4  11  20  28  45  72 101 126 152 194 235 278
#     4   9  17  31  52  70  90 122 155 193 241 293
#     4   9  18  32  44  52  74 124 178 206 222 260
#     4   9  18  32  50  71  92 118 156 196 241 294
#     4   9  17  33  54  68  86 121 160 200 241 283
#     4   9  18  34  52  68  86 117 164 206 242 282
#     4  10  21  33  43  60  91 133 170 199 232 268
#     4  12  22  30  47  69  95 128 160 204 242 272
#
# _framework density 15.343752
#
# number of rings (size 3 to 8) (size 9 to 14) (size 15 to 20)
#    0.000    2.200    2.667    2.800    1.867    4.000 
#    0.000    0.000    0.000    0.400    0.000    0.933 
#    0.000    8.533    0.000   23.467    0.000    0.000 
#
# Total GULP energy -334669.908599 kJ/mol
# GULP energy per Si atom -5577.831810 kJ/mol
# Density = 1.530883 g / cm^3
# Si number density = 15.343752 Si / 1000 Ang^3
#
#
#
# Elastic Constant Matrix: (Units=GPa)
#
#
# Indices 1 2 3 4 5 6 
#
# 1 48.0493 51.1057 14.8690 0.0000 0.0000 0.0000
# 2 51.1057 98.2900 11.5644 0.0000 0.0000 0.0000
# 3 14.8690 11.5644 32.9266 0.0000 0.0000 0.0000
# 4 0.0000 0.0000 0.0000 5.9808 0.0000 0.0000
# 5 0.0000 0.0000 0.0000 0.0000 1.1758 0.0000
# 6 0.0000 0.0000 0.0000 0.0000 0.0000 20.9941
#
#
#
# Elastic Compliance Matrix: (Units=1/GPa)
#
#
# Indices 1 2 3 4 5 6 
#
# 1 0.052653 -0.025639 -0.014772 0.000000 0.000000 0.000000
# 2 -0.025639 0.023097 0.003466 0.000000 0.000000 0.000000
# 3 -0.014772 0.003466 0.035824 0.000000 0.000000 0.000000
# 4 0.000000 0.000000 0.000000 0.167201 0.000000 0.000000
# 5 0.000000 0.000000 0.000000 0.000000 0.850484 0.000000
# 6 0.000000 0.000000 0.000000 0.000000 0.000000 0.047632
#
#
# Mechanical properties :
#
#
# Convention : Reuss Voigt Hill
#
# Bulk Modulus (GPa) = 26.53656 37.14934 31.84295
# Shear Modulus (GPa) = 3.95776 12.41193 8.18484
#
# Velocity S-wave (km/s) = 1.60779 2.84724 2.31212
# Velocity P-wave (km/s) = 4.55839 5.92225 5.28450
#
# Compressibility (1/GPa) = 0.03768386
#
# Stress axis : x y z
#
# Youngs Moduli (GPa) = 18.99238 43.29577 27.91416
#
# Poissons Ratio (x) = 1.11004 0.41235
# Poissons Ratio (y) = 0.48694 -0.09675
# Poissons Ratio (z) = 0.28056 -0.15006
#
# Static dielectric constant tensor:
#      x y z
#    x 1.523850 0.000000 0.000000 
#    y 0.000000 1.516430 0.000000 
#    z 0.000000 0.000000 1.488470 
# 
# From -- ./inp_files/38401.got.cif
#   From: 2010.05.17/outbox.cif.g08.bks.cpg/sg71_20_cif.got.tgz:38401.got - 2010.06.03 16:22:01.
