data_PCOD9522867
_publ_section_title
;
Structure prediction by ZEFSAII (Michael W. Deem and Ramdas Pophale) SiO2 
 PCOD9522867
Probable space group: I M M M
;
_chemical_formula_sum "Si O2"
_cell_formula_units_Z 88
_cell_length_a 7.314816
_cell_length_b 20.601329
_cell_length_c 27.132845
_cell_angle_alpha 90.000000
_cell_angle_beta 90.000000
_cell_angle_gamma 90.000000
_cell_volume 4088.782205
_symmetry_space_group_name_H-M "I M M M"
_symmetry_group_IT_number 71
_symmetry_cell_setting 'orthorhombic'
loop_
_space_group_symop_operation_xyz
x,y,z
-x,-y,z
x,-y,-z
-x,y,-z
-x,-y,-z
x,y,-z
-x,y,z
x,-y,z
1/2+x,1/2+y,1/2+z
1/2-x,1/2-y,1/2+z
1/2+x,1/2-y,1/2-z
1/2-x,1/2+y,1/2-z
1/2-x,1/2-y,1/2-z
1/2+x,1/2+y,1/2-z
1/2-x,1/2+y,1/2+z
1/2+x,1/2-y,1/2+z
loop_
_atom_site_type_symbol
_atom_site_label
_atom_site_fract_x
_atom_site_fract_y
_atom_site_fract_z
Si Si1 0.000000 0.922210 0.559010
Si Si2 0.289709 0.428863 0.577888
Si Si3 0.721658 0.287547 0.445981
Si Si4 0.721971 0.834398 0.617539
Si Si5 0.279293 0.928128 0.192927
Si Si6 0.282447 0.822282 0.730506
O O1 0.825980 0.888299 0.585418
O O2 0.000000 0.910097 0.500000
O O3 0.000000 0.000000 0.566428
O O4 0.500000 0.430712 0.560897
O O5 0.209667 0.500000 0.565732
O O6 0.209429 0.361136 0.559478
O O7 0.288939 0.422783 0.637161
O O8 0.771922 0.262278 0.500000
O O9 0.500000 0.291310 0.443594
O O10 0.774287 0.236048 0.404739
O O11 0.500000 0.841234 0.614135
O O12 0.779748 0.834814 0.674744
O O13 0.500000 0.924122 0.189638
O O14 0.211068 0.873057 0.229391
O O15 0.232338 0.000000 0.211527
O O16 0.500000 0.831477 0.728517
O O17 0.250000 0.750000 0.750000
#
# Coordination Sequence:
#
# PCOD9522867 Si02
#       6
#     8  16  16  16  16  16
#     4  11  26  46  68  96 125 159 213 275 339 406
#     4   9  17  30  49  76 110 146 188 236 282 334
#     4   9  17  31  53  79 108 146 190 235 289 352
#     4  10  22  41  64  91 125 164 206 260 321 384
#     4   9  18  33  51  72 103 144 184 220 269 337
#     4  10  21  35  57  87 119 157 198 244 300 364
#
# _framework density 21.522300000000001
#
# number of rings (size 3 to 8) (size 9 to 14) (size 15 to 20)
#    0.000    2.455    0.000    1.636    1.273    4.727 
#    1.636    4.545    0.000    0.000    0.000    2.545 
#    0.000    0.000    0.000    0.000    0.000    0.000 
#
# Total GULP energy -245696.006057 kJ/mol
# GULP energy per Si atom -5584.000138 kJ/mol
# Density = 2.147331 g / cm^3
# Si number density = 21.522300 Si / 1000 Ang^3
#
#
#
# Elastic Constant Matrix: (Units=GPa)
#
#
# Indices 1 2 3 4 5 6 
#
# 1 100.3647 16.0896 13.4970 0.0000 0.0000 0.0000
# 2 16.0896 129.8175 53.8275 0.0000 0.0000 0.0000
# 3 13.4970 53.8275 119.0657 0.0000 0.0000 0.0000
# 4 0.0000 0.0000 0.0000 41.3970 0.0000 0.0000
# 5 0.0000 0.0000 0.0000 0.0000 4.9116 0.0000
# 6 0.0000 0.0000 0.0000 0.0000 0.0000 17.5153
#
#
#
# Elastic Compliance Matrix: (Units=1/GPa)
#
#
# Indices 1 2 3 4 5 6 
#
# 1 0.010216 -0.000967 -0.000721 0.000000 0.000000 0.000000
# 2 -0.000967 0.009572 -0.004218 0.000000 0.000000 0.000000
# 3 -0.000721 -0.004218 0.010387 0.000000 0.000000 0.000000
# 4 0.000000 0.000000 0.000000 0.024156 0.000000 0.000000
# 5 0.000000 0.000000 0.000000 0.000000 0.203599 0.000000
# 6 0.000000 0.000000 0.000000 0.000000 0.000000 0.057093
#
#
# Mechanical properties :
#
#
# Convention : Reuss Voigt Hill
#
# Bulk Modulus (GPa) = 54.45628 57.34178 55.89903
# Shear Modulus (GPa) = 15.01706 30.48705 22.75205
#
# Velocity S-wave (km/s) = 2.64435 3.76777 3.25489
# Velocity P-wave (km/s) = 5.88903 6.75492 6.33678
#
# Compressibility (1/GPa) = 0.01836336
#
# Stress axis : x y z
#
# Youngs Moduli (GPa) = 97.88902 104.47377 96.27314
#
# Poissons Ratio (x) = 0.10106 0.06939
# Poissons Ratio (y) = 0.09469 0.40604
# Poissons Ratio (z) = 0.07055 0.44063
#
# Static dielectric constant tensor:
#      x y z
#    x 1.837630 0.000000 0.000000 
#    y 0.000000 1.775850 0.000000 
#    z 0.000000 0.000000 1.730620 
# 
# From -- ./inp_files/57531.got.cif
#   From: 2010.05.17/outbox.cif.g08.bks.cpg/sg71_29_cif.got.tgz:57531.got - 2010.06.03 16:22:01.
