data_PCOD9522312
_publ_section_title
;
Structure prediction by ZEFSAII (Michael W. Deem and Ramdas Pophale) SiO2 
 PCOD9522312
Probable space group: I M M M
;
_chemical_formula_sum "Si O2"
_cell_formula_units_Z 88
_cell_length_a 21.207522
_cell_length_b 8.222357
_cell_length_c 26.454447
_cell_angle_alpha 90.000000
_cell_angle_beta 90.000000
_cell_angle_gamma 90.000000
_cell_volume 4613.015808
_symmetry_space_group_name_H-M "I M M M"
_symmetry_group_IT_number 71
_symmetry_cell_setting 'orthorhombic'
loop_
_space_group_symop_operation_xyz
x,y,z
-x,-y,z
x,-y,-z
-x,y,-z
-x,-y,-z
x,y,-z
-x,y,z
x,-y,z
1/2+x,1/2+y,1/2+z
1/2-x,1/2-y,1/2+z
1/2+x,1/2-y,1/2-z
1/2-x,1/2+y,1/2-z
1/2-x,1/2-y,1/2-z
1/2+x,1/2+y,1/2-z
1/2-x,1/2+y,1/2+z
1/2+x,1/2-y,1/2+z
loop_
_atom_site_type_symbol
_atom_site_label
_atom_site_fract_x
_atom_site_fract_y
_atom_site_fract_z
Si Si1 0.662992 0.809110 0.195643
Si Si2 0.781761 0.304144 0.000000
Si Si3 0.364357 0.694971 0.595221
Si Si4 0.000000 0.198043 0.942747
Si Si5 0.196356 0.691164 0.804588
Si Si6 0.572185 0.695430 0.105829
Si Si7 0.634872 0.301244 0.000000
O O1 0.737050 0.778747 0.185261
O O2 0.660511 0.748484 0.254005
O O3 0.617831 0.734658 0.153062
O O4 0.649285 0.000000 0.195400
O O5 0.818172 0.240419 0.950746
O O6 0.783563 0.500000 0.000000
O O7 0.708422 0.253284 0.000000
O O8 0.362692 0.500000 0.601681
O O9 0.435132 0.747605 0.582382
O O10 0.343858 0.781211 0.646078
O O11 0.000000 0.000000 0.943756
O O12 0.000000 0.256486 0.000000
O O13 0.210202 0.500000 0.796821
O O14 0.500000 0.754738 0.112692
O O15 0.569561 0.500000 0.102437
O O16 0.601132 0.753216 0.052024
O O17 0.633181 0.500000 0.000000
#
# Coordination Sequence:
#
# PCOD9522312 Si02
#       7
#    16   8  16   8  16  16   8
#     4  10  21  38  60  84 113 149 186 231 286 338
#     4  11  21  33  54  84 117 150 188 237 287 333
#     4  11  21  36  58  82 111 149 193 236 281 338
#     4   9  18  36  56  76 110 152 188 227 280 333
#     4  10  21  38  59  84 113 144 185 237 288 338
#     4  10  20  36  59  84 113 151 191 229 275 333
#     4   9  19  35  55  81 112 146 182 226 273 322
#
# _framework density 19.076457000000001
#
# number of rings (size 3 to 8) (size 9 to 14) (size 15 to 20)
#    0.000    1.909    0.909    3.273    0.000    5.091 
#    1.636    3.636    0.000    1.091    0.000    0.000 
#    0.000    0.000    0.000    0.000    0.000    0.000 
#
# Total GULP energy -245530.080003 kJ/mol
# GULP energy per Si atom -5580.229091 kJ/mol
# Density = 1.903304 g / cm^3
# Si number density = 19.076457 Si / 1000 Ang^3
#
#
#
# Elastic Constant Matrix: (Units=GPa)
#
#
# Indices 1 2 3 4 5 6 
#
# 1 137.4278 5.7125 101.0335 0.0000 0.0000 0.0000
# 2 5.7125 15.8706 -0.2316 0.0000 0.0000 0.0000
# 3 101.0335 -0.2316 163.2523 0.0000 0.0000 0.0000
# 4 0.0000 0.0000 0.0000 27.6812 0.0000 0.0000
# 5 0.0000 0.0000 0.0000 0.0000 -168.3482 0.0000
# 6 0.0000 0.0000 0.0000 0.0000 0.0000 22.2416
#
#
#
# Elastic Compliance Matrix: (Units=1/GPa)
#
#
# Indices 1 2 3 4 5 6 
#
# 1 0.013748 -0.005073 -0.008515 0.000000 0.000000 0.000000
# 2 -0.005073 0.064883 0.003231 0.000000 0.000000 0.000000
# 3 -0.008515 0.003231 0.011400 0.000000 0.000000 0.000000
# 4 0.000000 0.000000 0.000000 0.036126 0.000000 0.000000
# 5 0.000000 0.000000 0.000000 0.000000 -0.005940 0.000000
# 6 0.000000 0.000000 0.000000 0.000000 0.000000 0.044961
#
#
# Mechanical properties :
#
#
# Convention : Reuss Voigt Hill
#
# Bulk Modulus (GPa) = 14.42646 58.84218 36.63432
# Shear Modulus (GPa) = 23.92396 -9.68267 7.12065
#
# Velocity S-wave (km/s) = 3.54518 -2.25538 1.93411
# Velocity P-wave (km/s) = 4.93322 4.91224 4.92274
#
# Compressibility (1/GPa) = 0.06931705
#
# Stress axis : x y z
#
# Youngs Moduli (GPa) = 72.73953 15.41247 87.71892
#
# Poissons Ratio (x) = 0.07818 0.74696
# Poissons Ratio (y) = 0.36898 -0.28346
# Poissons Ratio (z) = 0.61940 -0.04980
#
# Static dielectric constant tensor:
#      x y z
#    x 1.626020 0.000000 0.000000 
#    y 0.000000 1.683820 0.000000 
#    z 0.000000 0.000000 1.658740 
# 
# From -- ./inp_files/61176.got.cif
#   From: 2010.05.17/outbox.cif.g08.bks.cpg/sg71_31_cif.got.tgz:61176.got - 2010.06.03 16:22:01.
