data_PCOD9522320
_publ_section_title
;
Structure prediction by ZEFSAII (Michael W. Deem and Ramdas Pophale) SiO2 
 PCOD9522320
Probable space group: I M M M
;
_chemical_formula_sum "Si O2"
_cell_formula_units_Z 104
_cell_length_a 27.899350
_cell_length_b 11.809272
_cell_length_c 17.899315
_cell_angle_alpha 90.000000
_cell_angle_beta 90.000000
_cell_angle_gamma 90.000000
_cell_volume 5897.305441
_symmetry_space_group_name_H-M "I M M M"
_symmetry_group_IT_number 71
_symmetry_cell_setting 'orthorhombic'
loop_
_space_group_symop_operation_xyz
x,y,z
-x,-y,z
x,-y,-z
-x,y,-z
-x,-y,-z
x,y,-z
-x,y,z
x,-y,z
1/2+x,1/2+y,1/2+z
1/2-x,1/2-y,1/2+z
1/2+x,1/2-y,1/2-z
1/2-x,1/2+y,1/2-z
1/2-x,1/2-y,1/2-z
1/2+x,1/2+y,1/2-z
1/2-x,1/2+y,1/2+z
1/2+x,1/2-y,1/2+z
loop_
_atom_site_type_symbol
_atom_site_label
_atom_site_fract_x
_atom_site_fract_y
_atom_site_fract_z
Si Si1 0.220664 0.754961 0.409487
Si Si2 0.840066 0.000000 0.087011
Si Si3 0.551419 0.362655 0.914361
Si Si4 0.000000 0.862092 0.091076
Si Si5 0.396520 0.290418 0.349500
Si Si6 0.266273 0.000000 0.909541
Si Si7 0.361331 0.636256 0.812945
Si Si8 0.821996 0.371043 0.910739
O O1 0.212011 0.773766 0.500000
O O2 0.212299 0.622434 0.391038
O O3 0.187280 0.825833 0.353710
O O4 0.275956 0.791037 0.395351
O O5 0.870134 0.890356 0.105814
O O6 0.787680 0.000000 0.123322
O O7 0.831069 0.000000 0.000000
O O8 0.500000 0.327147 0.882135
O O9 0.551810 0.500000 0.914453
O O10 0.597138 0.326380 0.869746
O O11 0.553954 0.326086 0.000000
O O12 0.952420 0.808563 0.129899
O O13 0.000000 0.000000 0.102464
O O14 0.000000 0.844103 0.000000
O O15 0.378736 0.312001 0.265145
O O16 0.370937 0.175757 0.375893
O O17 0.265281 0.000000 0.000000
O O18 0.361070 0.500000 0.804244
O O19 0.811420 0.500000 0.887282
O O20 0.827670 0.369771 0.000000
#
# Coordination Sequence:
#
# PCOD9522320 Si02
#       8
#    16   8  16   8  16   8  16  16
#     4  10  20  36  59  85 114 151 191 231 275 333
#     4  11  18  35  60  79 109 147 184 226 279 338
#     4   8  15  29  50  73 102 144 184 219 268 330
#     4  11  22  36  59  87 112 144 190 236 283 341
#     4  12  23  37  55  86 117 147 183 237 291 334
#     4   9  18  34  59  86 110 145 190 235 276 325
#     4  11  22  34  50  81 121 151 183 229 282 335
#     4  10  21  39  61  83 110 149 193 232 276 339
#
# _framework density 17.635173000000002
#
# number of rings (size 3 to 8) (size 9 to 14) (size 15 to 20)
#    0.000    1.769    3.077    2.769    1.077    2.154 
#    1.385    0.385    0.000    1.385    0.000    0.538 
#    0.000    3.077    0.000    0.000    0.000    0.000 
#
# Total GULP energy -289637.303820 kJ/mol
# GULP energy per Si atom -5569.948150 kJ/mol
# Density = 1.759503 g / cm^3
# Si number density = 17.635173 Si / 1000 Ang^3
#
#
#
# Elastic Constant Matrix: (Units=GPa)
#
#
# Indices 1 2 3 4 5 6 
#
# 1 107.2750 18.4312 45.9327 0.0000 0.0000 0.0000
# 2 18.4312 65.7021 23.3245 0.0000 0.0000 0.0000
# 3 45.9327 23.3245 54.5261 0.0000 0.0000 0.0000
# 4 0.0000 0.0000 0.0000 23.1381 0.0000 0.0000
# 5 0.0000 0.0000 0.0000 0.0000 42.6381 0.0000
# 6 0.0000 0.0000 0.0000 0.0000 0.0000 19.2739
#
#
#
# Elastic Compliance Matrix: (Units=1/GPa)
#
#
# Indices 1 2 3 4 5 6 
#
# 1 0.014587 0.000319 -0.012424 0.000000 0.000000 0.000000
# 2 0.000319 0.017952 -0.007948 0.000000 0.000000 0.000000
# 3 -0.012424 -0.007948 0.032206 0.000000 0.000000 0.000000
# 4 0.000000 0.000000 0.000000 0.043219 0.000000 0.000000
# 5 0.000000 0.000000 0.000000 0.000000 0.023453 0.000000
# 6 0.000000 0.000000 0.000000 0.000000 0.000000 0.051884
#
#
# Mechanical properties :
#
#
# Convention : Reuss Voigt Hill
#
# Bulk Modulus (GPa) = 40.58752 44.76444 42.67598
# Shear Modulus (GPa) = 21.58704 26.33101 23.95903
#
# Velocity S-wave (km/s) = 3.50250 3.86825 3.68991
# Velocity P-wave (km/s) = 6.27867 6.73720 6.51197
#
# Compressibility (1/GPa) = 0.02463812
#
# Stress axis : x y z
#
# Youngs Moduli (GPa) = 68.55477 55.70303 31.05023
#
# Poissons Ratio (x) = -0.01775 0.38578
# Poissons Ratio (y) = -0.02185 0.24678
# Poissons Ratio (z) = 0.85174 0.44272
#
# Static dielectric constant tensor:
#      x y z
#    x 1.623750 0.000000 0.000000 
#    y 0.000000 1.603590 0.000000 
#    z 0.000000 0.000000 1.646380 
# 
# From -- ./inp_files/48883.got.cif
#   From: 2010.05.17/outbox.cif.g08.bks.cpg/sg71_25_cif.got.tgz:48883.got - 2010.06.03 16:22:01.
