data_PCOD9522690
_publ_section_title
;
Structure prediction by ZEFSAII (Michael W. Deem and Ramdas Pophale) SiO2 
 PCOD9522690
Probable space group: I M M M
;
_chemical_formula_sum "Si O2"
_cell_formula_units_Z 116
_cell_length_a 25.671167
_cell_length_b 28.031978
_cell_length_c 7.417126
_cell_angle_alpha 90.000000
_cell_angle_beta 90.000000
_cell_angle_gamma 90.000000
_cell_volume 5337.464658
_symmetry_space_group_name_H-M "I M M M"
_symmetry_group_IT_number 71
_symmetry_cell_setting 'orthorhombic'
loop_
_space_group_symop_operation_xyz
x,y,z
-x,-y,z
x,-y,-z
-x,y,-z
-x,-y,-z
x,y,-z
-x,y,z
x,-y,z
1/2+x,1/2+y,1/2+z
1/2-x,1/2-y,1/2+z
1/2+x,1/2-y,1/2-z
1/2-x,1/2+y,1/2-z
1/2-x,1/2-y,1/2-z
1/2+x,1/2+y,1/2-z
1/2-x,1/2+y,1/2+z
1/2+x,1/2-y,1/2+z
loop_
_atom_site_type_symbol
_atom_site_label
_atom_site_fract_x
_atom_site_fract_y
_atom_site_fract_z
Si Si1 0.558730 0.765088 0.283593
Si Si2 0.253155 0.684284 0.702023
Si Si3 0.382719 0.570120 0.209344
Si Si4 0.356134 0.842460 0.214914
Si Si5 0.267234 0.424739 0.216961
Si Si6 0.134074 0.181841 0.219049
Si Si7 0.847771 0.449245 0.710569
Si Si8 0.076916 0.000000 0.000000
O O1 0.556277 0.761197 0.500000
O O2 0.500000 0.767585 0.214558
O O3 0.592957 0.811468 0.242796
O O4 0.590672 0.719021 0.219596
O O5 0.250442 0.704918 0.500000
O O6 0.195563 0.685007 0.787416
O O7 0.262859 0.627314 0.696553
O O8 0.308524 0.699260 0.785091
O O9 0.323496 0.554587 0.262910
O O10 0.380219 0.627787 0.226709
O O11 0.420026 0.541990 0.342402
O O12 0.391561 0.558760 0.000000
O O13 0.361378 0.896738 0.285918
O O14 0.346372 0.846744 0.000000
O O15 0.214955 0.450397 0.274959
O O16 0.266400 0.419704 0.000000
O O17 0.136910 0.182033 0.000000
O O18 0.862651 0.448672 0.500000
O O19 0.867223 0.500000 0.787272
#
# Coordination Sequence:
#
# PCOD9522690 Si02
#       8
#    16  16  16  16  16  16  16   4
#     4  10  22  38  58  83 108 140 185 233 285 347
#     4   8  15  29  50  72 101 143 183 221 273 344
#     4  10  21  33  49  79 113 153 201 240 278 342
#     4   9  18  33  51  78 110 139 181 231 280 342
#     4   9  17  26  39  67 105 141 189 234 266 315
#     4   9  17  35  57  77 109 151 189 232 291 341
#     4   9  18  30  48  69  99 145 188 226 277 340
#     4  12  22  32  52  74 117 170 190 230 299 330
#
# _framework density 21.733163999999999
#
# number of rings (size 3 to 8) (size 9 to 14) (size 15 to 20)
#    0.000    2.759    0.690    1.448    2.897    3.862 
#    0.000    0.000    0.000    0.414    0.000    3.862 
#    0.000    1.103    0.000    0.000    0.000    0.000 
#
# Total GULP energy -322872.359832 kJ/mol
# GULP energy per Si atom -5566.764825 kJ/mol
# Density = 2.168370 g / cm^3
# Si number density = 21.733164 Si / 1000 Ang^3
#
#
#
# Elastic Constant Matrix: (Units=GPa)
#
#
# Indices 1 2 3 4 5 6 
#
# 1 133.6406 71.4260 5.4784 0.0000 0.0000 0.0000
# 2 71.4260 169.9855 5.2932 0.0000 0.0000 0.0000
# 3 5.4784 5.2932 94.3663 0.0000 0.0000 0.0000
# 4 0.0000 0.0000 0.0000 -93.0618 0.0000 0.0000
# 5 0.0000 0.0000 0.0000 0.0000 -1.8410 0.0000
# 6 0.0000 0.0000 0.0000 0.0000 0.0000 -94.3479
#
#
#
# Elastic Compliance Matrix: (Units=1/GPa)
#
#
# Indices 1 2 3 4 5 6 
#
# 1 0.009660 -0.004049 -0.000334 0.000000 0.000000 0.000000
# 2 -0.004049 0.007590 -0.000191 0.000000 0.000000 0.000000
# 3 -0.000334 -0.000191 0.010627 0.000000 0.000000 0.000000
# 4 0.000000 0.000000 0.000000 -0.010746 0.000000 0.000000
# 5 0.000000 0.000000 0.000000 0.000000 -0.543168 0.000000
# 6 0.000000 0.000000 0.000000 0.000000 0.000000 -0.010599
#
#
# Mechanical properties :
#
#
# Convention : Reuss Voigt Hill
#
# Bulk Modulus (GPa) = 53.38721 62.48753 57.93737
# Shear Modulus (GPa) = -9.59241 -16.79716 -13.19479
#
# Velocity S-wave (km/s) = -2.10316 -2.78309 -2.46667
# Velocity P-wave (km/s) = 4.32671 4.29966 4.31321
#
# Compressibility (1/GPa) = 0.01873108
#
# Stress axis : x y z
#
# Youngs Moduli (GPa) = 103.51569 131.75141 94.09932
#
# Poissons Ratio (x) = 0.53343 0.03140
# Poissons Ratio (y) = 0.41911 0.01794
# Poissons Ratio (z) = 0.03455 0.02512
#
# Static dielectric constant tensor:
#      x y z
#    x 1.802920 0.000000 0.000000 
#    y 0.000000 1.808100 0.000000 
#    z 0.000000 0.000000 1.875990 
# 
# From -- ./inp_files/15840.got.cif
#   From: 2010.05.17/outbox.cif.g08.bks.cpg/sg71_8_cif.got.tgz:15840.got - 2010.06.03 16:22:01.
