data_PCOD9522201
_publ_section_title
;
Structure prediction by ZEFSAII (Michael W. Deem and Ramdas Pophale) SiO2 
 PCOD9522201
Probable space group: I M M M
;
_chemical_formula_sum "Si O2"
_cell_formula_units_Z 80
_cell_length_a 25.261494
_cell_length_b 20.205188
_cell_length_c 7.541853
_cell_angle_alpha 90.000000
_cell_angle_beta 90.000000
_cell_angle_gamma 90.000000
_cell_volume 3849.461591
_symmetry_space_group_name_H-M "I M M M"
_symmetry_group_IT_number 71
_symmetry_cell_setting 'orthorhombic'
loop_
_space_group_symop_operation_xyz
x,y,z
-x,-y,z
x,-y,-z
-x,y,-z
-x,-y,-z
x,y,-z
-x,y,z
x,-y,z
1/2+x,1/2+y,1/2+z
1/2-x,1/2-y,1/2+z
1/2+x,1/2-y,1/2-z
1/2-x,1/2+y,1/2-z
1/2-x,1/2-y,1/2-z
1/2+x,1/2+y,1/2-z
1/2-x,1/2+y,1/2+z
1/2+x,1/2-y,1/2+z
loop_
_atom_site_type_symbol
_atom_site_label
_atom_site_fract_x
_atom_site_fract_y
_atom_site_fract_z
Si Si1 0.640094 0.111651 0.792471
Si Si2 0.000000 0.921576 0.718331
Si Si3 0.313136 0.248918 0.786119
Si Si4 0.609575 0.636435 0.797719
Si Si5 0.157321 0.000000 0.798172
Si Si6 0.722819 0.000000 0.712476
Si Si7 0.060997 0.500000 0.717538
O O1 0.657959 0.182275 0.718551
O O2 0.592250 0.065952 0.720971
O O3 0.690387 0.063815 0.773508
O O4 0.628139 0.122242 0.000000
O O5 0.052043 0.881649 0.779354
O O6 0.000000 0.922875 0.500000
O O7 0.000000 0.000000 0.770258
O O8 0.250000 0.250000 0.750000
O O9 0.348545 0.310915 0.720680
O O10 0.315641 0.248973 0.000000
O O11 0.637835 0.565659 0.796231
O O12 0.599462 0.658279 0.000000
O O13 0.220024 0.000000 0.795116
O O14 0.137430 0.000000 0.000000
O O15 0.726581 0.000000 0.500000
O O16 0.063763 0.500000 0.500000
O O17 0.000000 0.500000 0.768949
#
# Coordination Sequence:
#
# PCOD9522201 Si02
#       7
#    16   8  16  16   8   8   8
#     4   9  18  34  52  76 110 140 172 217 269 316
#     4   9  16  32  58  80 106 141 176 225 271 310
#     4  10  21  35  53  78 109 143 177 218 266 321
#     4  10  20  36  56  79 107 143 183 220 266 320
#     4  12  23  34  51  78 106 138 179 225 273 317
#     4  11  21  33  53  79 103 137 181 222 267 326
#     4   8  14  28  52  77 104 137 170 210 259 311
#
# _framework density 20.782126000000002
#
# number of rings (size 3 to 8) (size 9 to 14) (size 15 to 20)
#    0.000    2.200    1.000    3.600    0.000    4.800 
#    1.800    1.000    0.000    4.800    0.000    0.000 
#    0.000    0.000    0.000    0.000    0.000    0.000 
#
# Total GULP energy -223046.209533 kJ/mol
# GULP energy per Si atom -5576.155238 kJ/mol
# Density = 2.073483 g / cm^3
# Si number density = 20.782126 Si / 1000 Ang^3
#
#
#
# Elastic Constant Matrix: (Units=GPa)
#
#
# Indices 1 2 3 4 5 6 
#
# 1 206.5984 101.1484 1.0456 0.0000 0.0000 0.0000
# 2 101.1484 186.6796 -2.8927 0.0000 0.0000 0.0000
# 3 1.0456 -2.8927 52.6112 0.0000 0.0000 0.0000
# 4 0.0000 0.0000 0.0000 7.9173 0.0000 0.0000
# 5 0.0000 0.0000 0.0000 0.0000 8.2584 0.0000
# 6 0.0000 0.0000 0.0000 0.0000 0.0000 25.9340
#
#
#
# Elastic Compliance Matrix: (Units=1/GPa)
#
#
# Indices 1 2 3 4 5 6 
#
# 1 0.006594 -0.003578 -0.000328 0.000000 0.000000 0.000000
# 2 -0.003578 0.007303 0.000473 0.000000 0.000000 0.000000
# 3 -0.000328 0.000473 0.019040 0.000000 0.000000 0.000000
# 4 0.000000 0.000000 0.000000 0.126306 0.000000 0.000000
# 5 0.000000 0.000000 0.000000 0.000000 0.121089 0.000000
# 6 0.000000 0.000000 0.000000 0.000000 0.000000 0.038559
#
#
# Mechanical properties :
#
#
# Convention : Reuss Voigt Hill
#
# Bulk Modulus (GPa) = 38.35766 71.61019 54.98392
# Shear Modulus (GPa) = 14.95009 31.52779 23.23894
#
# Velocity S-wave (km/s) = 2.68502 3.89917 3.34760
# Velocity P-wave (km/s) = 5.30185 7.40296 6.43869
#
# Compressibility (1/GPa) = 0.02607041
#
# Stress axis : x y z
#
# Youngs Moduli (GPa) = 151.66337 136.93808 52.52137
#
# Poissons Ratio (x) = 0.48992 0.01721
# Poissons Ratio (y) = 0.54260 -0.02482
# Poissons Ratio (z) = 0.04971 -0.06472
#
# Static dielectric constant tensor:
#      x y z
#    x 1.732740 0.000000 0.000000 
#    y 0.000000 1.761240 0.000000 
#    z 0.000000 0.000000 1.837560 
# 
# From -- ./inp_files/12435.got.cif
#   From: 2010.05.17/outbox.cif.g08.bks.cpg/sg71_7_cif.got.tgz:12435.got - 2010.06.03 16:22:01.
