data_PCOD9522957
_publ_section_title
;
Structure prediction by ZEFSAII (Michael W. Deem and Ramdas Pophale) SiO2 
 PCOD9522957
Probable space group: I M M M
;
_chemical_formula_sum "Si O2"
_cell_formula_units_Z 64
_cell_length_a 15.136295
_cell_length_b 8.618616
_cell_length_c 26.568471
_cell_angle_alpha 90.000000
_cell_angle_beta 90.000000
_cell_angle_gamma 90.000000
_cell_volume 3465.961038
_symmetry_space_group_name_H-M "I M M M"
_symmetry_group_IT_number 71
_symmetry_cell_setting 'orthorhombic'
loop_
_space_group_symop_operation_xyz
x,y,z
-x,-y,z
x,-y,-z
-x,y,-z
-x,-y,-z
x,y,-z
-x,y,z
x,-y,z
1/2+x,1/2+y,1/2+z
1/2-x,1/2-y,1/2+z
1/2+x,1/2-y,1/2-z
1/2-x,1/2+y,1/2-z
1/2-x,1/2-y,1/2-z
1/2+x,1/2+y,1/2-z
1/2-x,1/2+y,1/2+z
1/2+x,1/2-y,1/2+z
loop_
_atom_site_type_symbol
_atom_site_label
_atom_site_fract_x
_atom_site_fract_y
_atom_site_fract_z
Si Si1 0.500000 0.185011 0.785531
Si Si2 0.500000 0.315181 0.326989
Si Si3 0.397158 0.188672 0.500000
Si Si4 0.000000 0.314049 0.558719
Si Si5 0.637831 0.313706 0.863960
Si Si6 0.335774 0.187937 0.609848
O O1 0.500000 0.249482 0.729386
O O2 0.585289 0.244338 0.816588
O O3 0.500000 0.000000 0.785116
O O4 0.500000 0.500000 0.325539
O O5 0.585781 0.255222 0.356729
O O6 0.500000 0.238007 0.500000
O O7 0.350501 0.237525 0.551771
O O8 0.397279 0.000000 0.500000
O O9 0.915567 0.244340 0.587248
O O10 0.000000 0.500000 0.564885
O O11 0.000000 0.276280 0.500000
O O12 0.632644 0.500000 0.861413
O O13 0.739778 0.267268 0.869279
O O14 0.341385 0.000000 0.611076
#
# Coordination Sequence:
#
# PCOD9522957 Si02
#       6
#     8   8   8   8  16  16
#     4  11  23  42  65  83 115 156 195 243 301 354
#     4  12  25  40  61  87 118 152 197 246 293 349
#     4   9  16  32  60  85 116 155 193 234 276 342
#     4  10  21  36  54  80 120 163 198 238 291 348
#     4  10  21  37  61  89 118 150 196 248 293 346
#     4  10  21  38  61  89 120 156 197 239 291 348
#
# _framework density 18.465297
#
# number of rings (size 3 to 8) (size 9 to 14) (size 15 to 20)
#    0.000    1.750    1.250    4.875    1.750    4.000 
#    0.000    1.250    0.000    0.000    0.000    0.000 
#    0.000    0.000    0.000    0.000    0.000    0.000 
#
# Total GULP energy -178775.155400 kJ/mol
# GULP energy per Si atom -5586.723606 kJ/mol
# Density = 1.842327 g / cm^3
# Si number density = 18.465297 Si / 1000 Ang^3
#
#
#
# Elastic Constant Matrix: (Units=GPa)
#
#
# Indices 1 2 3 4 5 6 
#
# 1 200.6767 60.1309 108.0881 0.0000 0.0000 0.0000
# 2 60.1309 60.2254 51.6209 0.0000 0.0000 0.0000
# 3 108.0881 51.6209 187.2370 0.0000 0.0000 0.0000
# 4 0.0000 0.0000 0.0000 29.9258 0.0000 0.0000
# 5 0.0000 0.0000 0.0000 0.0000 -4.0999 0.0000
# 6 0.0000 0.0000 0.0000 0.0000 0.0000 183.5832
#
#
#
# Elastic Compliance Matrix: (Units=1/GPa)
#
#
# Indices 1 2 3 4 5 6 
#
# 1 0.008455 -0.005576 -0.003344 0.000000 0.000000 0.000000
# 2 -0.005576 0.025419 -0.003789 0.000000 0.000000 0.000000
# 3 -0.003344 -0.003789 0.008316 0.000000 0.000000 0.000000
# 4 0.000000 0.000000 0.000000 0.033416 0.000000 0.000000
# 5 0.000000 0.000000 0.000000 0.000000 -0.243908 0.000000
# 6 0.000000 0.000000 0.000000 0.000000 0.000000 0.005447
#
#
# Mechanical properties :
#
#
# Convention : Reuss Voigt Hill
#
# Bulk Modulus (GPa) = 59.62119 98.64655 79.13387
# Shear Modulus (GPa) = -37.92243 57.10176 9.58966
#
# Velocity S-wave (km/s) = -4.53671 5.56695 2.28136
# Velocity P-wave (km/s) = 2.21721 9.73961 7.06314
#
# Compressibility (1/GPa) = 0.01677256
#
# Stress axis : x y z
#
# Youngs Moduli (GPa) = 118.27719 39.34053 120.25447
#
# Poissons Ratio (x) = 0.21935 0.40208
# Poissons Ratio (y) = 0.65947 0.45568
# Poissons Ratio (z) = 0.39547 0.14907
#
# Static dielectric constant tensor:
#      x y z
#    x 1.618110 0.000000 0.000000 
#    y 0.000000 1.622730 0.000000 
#    z 0.000000 0.000000 1.612670 
# 
# From -- ./inp_files/59499.got.cif
#   From: 2010.05.17/outbox.cif.g08.bks.cpg/sg71_30_cif.got.tgz:59499.got - 2010.06.03 16:22:01.
