data_PCOD9522019
_publ_section_title
;
Structure prediction by ZEFSAII (Michael W. Deem and Ramdas Pophale) SiO2 
 PCOD9522019
Probable space group: I M M M
;
_chemical_formula_sum "Si O2"
_cell_formula_units_Z 88
_cell_length_a 16.154181
_cell_length_b 22.269492
_cell_length_c 12.876368
_cell_angle_alpha 90.000000
_cell_angle_beta 90.000000
_cell_angle_gamma 90.000000
_cell_volume 4632.214215
_symmetry_space_group_name_H-M "I M M M"
_symmetry_group_IT_number 71
_symmetry_cell_setting 'orthorhombic'
loop_
_space_group_symop_operation_xyz
x,y,z
-x,-y,z
x,-y,-z
-x,y,-z
-x,-y,-z
x,y,-z
-x,y,z
x,-y,z
1/2+x,1/2+y,1/2+z
1/2-x,1/2-y,1/2+z
1/2+x,1/2-y,1/2-z
1/2-x,1/2+y,1/2-z
1/2-x,1/2-y,1/2-z
1/2+x,1/2+y,1/2-z
1/2-x,1/2+y,1/2+z
1/2+x,1/2-y,1/2+z
loop_
_atom_site_type_symbol
_atom_site_label
_atom_site_fract_x
_atom_site_fract_y
_atom_site_fract_z
Si Si1 0.657584 0.070557 0.614532
Si Si2 0.325358 0.376379 0.811112
Si Si3 0.090054 0.429183 0.337724
Si Si4 0.901169 0.000000 0.378290
Si Si5 0.092648 0.243810 0.622926
Si Si6 0.271741 0.837280 0.117403
O O1 0.621728 0.080361 0.500000
O O2 0.737431 0.112426 0.631585
O O3 0.598703 0.078950 0.713143
O O4 0.683992 0.000000 0.619706
O O5 0.369411 0.440395 0.821285
O O6 0.381281 0.324980 0.861268
O O7 0.301057 0.354589 0.695741
O O8 0.095458 0.500000 0.359333
O O9 0.166034 0.393847 0.385288
O O10 0.000000 0.407182 0.372525
O O11 0.872978 0.000000 0.500000
O O12 0.000000 0.000000 0.379539
O O13 0.089467 0.256694 0.500000
O O14 0.168346 0.284916 0.662417
O O15 0.000000 0.255120 0.665561
O O16 0.244780 0.822476 0.000000
#
# Coordination Sequence:
#
# PCOD9522019 Si02
#       6
#    16  16  16   8  16  16
#     4   9  16  27  45  70 103 140 171 209 263 325
#     4  11  20  34  55  82 113 146 182 225 273 328
#     4   9  18  31  47  71 100 133 178 229 276 318
#     4  11  22  36  59  91 120 143 173 221 279 333
#     4  10  20  35  57  84 111 140 177 226 282 331
#     4  10  22  37  54  76 106 146 190 229 266 317
#
# _framework density 18.997395000000001
#
# number of rings (size 3 to 8) (size 9 to 14) (size 15 to 20)
#    0.000    2.091    0.909    3.273    1.273    3.273 
#    0.000    2.727    0.000    2.727    0.000    0.000 
#    0.000    0.000    0.000    0.000    0.000    0.000 
#
# Total GULP energy -245416.661070 kJ/mol
# GULP energy per Si atom -5577.651388 kJ/mol
# Density = 1.895416 g / cm^3
# Si number density = 18.997395 Si / 1000 Ang^3
#
#
#
# Elastic Constant Matrix: (Units=GPa)
#
#
# Indices 1 2 3 4 5 6 
#
# 1 56.7249 18.7968 12.7468 0.0000 0.0000 0.0000
# 2 18.7968 88.2567 9.9879 0.0000 0.0000 0.0000
# 3 12.7468 9.9879 79.0220 0.0000 0.0000 0.0000
# 4 0.0000 0.0000 0.0000 16.9946 0.0000 0.0000
# 5 0.0000 0.0000 0.0000 0.0000 7.1017 0.0000
# 6 0.0000 0.0000 0.0000 0.0000 0.0000 10.3333
#
#
#
# Elastic Compliance Matrix: (Units=1/GPa)
#
#
# Indices 1 2 3 4 5 6 
#
# 1 0.019503 -0.003853 -0.002659 0.000000 0.000000 0.000000
# 2 -0.003853 0.012256 -0.000928 0.000000 0.000000 0.000000
# 3 -0.002659 -0.000928 0.013201 0.000000 0.000000 0.000000
# 4 0.000000 0.000000 0.000000 0.058842 0.000000 0.000000
# 5 0.000000 0.000000 0.000000 0.000000 0.140811 0.000000
# 6 0.000000 0.000000 0.000000 0.000000 0.000000 0.096775
#
#
# Mechanical properties :
#
#
# Convention : Reuss Voigt Hill
#
# Bulk Modulus (GPa) = 33.24333 34.11851 33.68092
# Shear Modulus (GPa) = 13.65023 19.05072 16.35048
#
# Velocity S-wave (km/s) = 2.68345 3.17015 2.93690
# Velocity P-wave (km/s) = 5.20942 5.60342 5.41001
#
# Compressibility (1/GPa) = 0.03008123
#
# Stress axis : x y z
#
# Youngs Moduli (GPa) = 51.27376 81.59181 75.75258
#
# Poissons Ratio (x) = 0.31436 0.20143
# Poissons Ratio (y) = 0.19755 0.07027
# Poissons Ratio (z) = 0.13634 0.07569
#
# Static dielectric constant tensor:
#      x y z
#    x 1.669900 0.000000 0.000000 
#    y 0.000000 1.673420 0.000000 
#    z 0.000000 0.000000 1.684750 
# 
# From -- ./inp_files/23946.got.cif
#   From: 2010.05.17/outbox.cif.g08.bks.cpg/sg71_12_cif.got.tgz:23946.got - 2010.06.03 16:22:01.
