data_PCOD9522861
_publ_section_title
;
Structure prediction by ZEFSAII (Michael W. Deem and Ramdas Pophale) SiO2 
 PCOD9522861
Probable space group: I M M M
;
_chemical_formula_sum "Si O2"
_cell_formula_units_Z 116
_cell_length_a 7.597151
_cell_length_b 29.491991
_cell_length_c 25.258103
_cell_angle_alpha 90.000000
_cell_angle_beta 90.000000
_cell_angle_gamma 90.000000
_cell_volume 5659.207019
_symmetry_space_group_name_H-M "I M M M"
_symmetry_group_IT_number 71
_symmetry_cell_setting 'orthorhombic'
loop_
_space_group_symop_operation_xyz
x,y,z
-x,-y,z
x,-y,-z
-x,y,-z
-x,-y,-z
x,y,-z
-x,y,z
x,-y,z
1/2+x,1/2+y,1/2+z
1/2-x,1/2-y,1/2+z
1/2+x,1/2-y,1/2-z
1/2-x,1/2+y,1/2-z
1/2-x,1/2-y,1/2-z
1/2+x,1/2+y,1/2-z
1/2-x,1/2+y,1/2+z
1/2+x,1/2-y,1/2+z
loop_
_atom_site_type_symbol
_atom_site_label
_atom_site_fract_x
_atom_site_fract_y
_atom_site_fract_z
Si Si1 0.712405 0.948227 0.849423
Si Si2 0.296776 0.146673 0.302755
Si Si3 0.209929 0.292527 0.712264
Si Si4 0.704200 0.115557 0.057959
Si Si5 0.295073 0.449760 0.226794
Si Si6 0.799736 0.213723 0.090954
Si Si7 0.783234 0.683254 0.083697
Si Si8 0.000000 0.847634 0.500000
O O1 0.500000 0.944204 0.845396
O O2 0.779575 0.912262 0.892403
O O3 0.778937 0.941759 0.789824
O O4 0.754215 0.000000 0.865560
O O5 0.500000 0.160575 0.300358
O O6 0.221913 0.165385 0.247459
O O7 0.285760 0.092684 0.303316
O O8 0.232198 0.170002 0.356131
O O9 0.250000 0.250000 0.750000
O O10 0.293162 0.287716 0.654802
O O11 0.000000 0.296110 0.702396
O O12 0.500000 0.101418 0.055483
O O13 0.706718 0.169151 0.069345
O O14 0.783115 0.106652 0.000000
O O15 0.500000 0.450455 0.213091
O O16 0.220020 0.500000 0.216305
O O17 0.738379 0.263644 0.074187
O O18 0.000000 0.209694 0.072901
O O19 0.657861 0.655078 0.045530
O O20 0.000000 0.677986 0.077730
#
# Coordination Sequence:
#
# PCOD9522861 Si02
#       8
#    16  16  16  16  16  16  16   4
#     4   9  18  35  56  78 108 147 188 237 301 360
#     4  10  21  38  58  85 121 155 192 242 291 351
#     4  11  21  34  55  82 115 151 191 233 285 357
#     4  10  22  36  53  77 104 142 199 254 296 350
#     4  10  21  35  56  88 121 150 186 233 287 357
#     4  11  23  38  53  77 115 152 192 245 299 344
#     4  10  24  42  60  89 120 154 206 252 290 354
#     4  12  26  40  68  86 113 170 203 244 310 334
#
# _framework density 20.49757
#
# number of rings (size 3 to 8) (size 9 to 14) (size 15 to 20)
#    0.000    1.793    1.379    2.276    3.862    6.345 
#    0.000    1.379    0.000    0.000    0.000    3.862 
#    0.000    2.207    0.000    0.000    0.000    0.000 
#
# Total GULP energy -323198.726872 kJ/mol
# GULP energy per Si atom -5572.391843 kJ/mol
# Density = 2.045092 g / cm^3
# Si number density = 20.497570 Si / 1000 Ang^3
#
#
#
# Elastic Constant Matrix: (Units=GPa)
#
#
# Indices 1 2 3 4 5 6 
#
# 1 56.3547 -5.1102 0.1100 0.0000 0.0000 0.0000
# 2 -5.1102 68.5683 -6.2562 0.0000 0.0000 0.0000
# 3 0.1100 -6.2562 29.2490 0.0000 0.0000 0.0000
# 4 0.0000 0.0000 0.0000 -30.9409 0.0000 0.0000
# 5 0.0000 0.0000 0.0000 0.0000 73.3716 0.0000
# 6 0.0000 0.0000 0.0000 0.0000 0.0000 16.9832
#
#
#
# Elastic Compliance Matrix: (Units=1/GPa)
#
#
# Indices 1 2 3 4 5 6 
#
# 1 0.017867 0.001352 0.000222 0.000000 0.000000 0.000000
# 2 0.001352 0.014977 0.003198 0.000000 0.000000 0.000000
# 3 0.000222 0.003198 0.034873 0.000000 0.000000 0.000000
# 4 0.000000 0.000000 0.000000 -0.032320 0.000000 0.000000
# 5 0.000000 0.000000 0.000000 0.000000 0.013629 0.000000
# 6 0.000000 0.000000 0.000000 0.000000 0.000000 0.058882
#
#
# Mechanical properties :
#
#
# Convention : Reuss Voigt Hill
#
# Bulk Modulus (GPa) = 12.94327 14.62878 13.78603
# Shear Modulus (GPa) = 40.28471 22.91132 31.59802
#
# Velocity S-wave (km/s) = 4.43803 3.34692 3.93052
# Velocity P-wave (km/s) = 5.70874 4.69980 5.22866
#
# Compressibility (1/GPa) = 0.07726023
#
# Stress axis : x y z
#
# Youngs Moduli (GPa) = 55.96939 66.77095 28.67588
#
# Poissons Ratio (x) = -0.09026 -0.00637
# Poissons Ratio (y) = -0.07566 -0.09172
# Poissons Ratio (z) = -0.01242 -0.21356
#
# Static dielectric constant tensor:
#      x y z
#    x 1.776050 0.000000 0.000000 
#    y 0.000000 1.749590 0.000000 
#    z 0.000000 0.000000 1.742090 
# 
# From -- ./inp_files/13771.got.cif
#   From: 2010.05.17/outbox.cif.g08.bks.cpg/sg71_7_cif.got.tgz:13771.got - 2010.06.03 16:22:01.
