data_PCOD9522178
_publ_section_title
;
Structure prediction by ZEFSAII (Michael W. Deem and Ramdas Pophale) SiO2 
 PCOD9522178
Probable space group: I M M M
;
_chemical_formula_sum "Si O2"
_cell_formula_units_Z 88
_cell_length_a 13.378213
_cell_length_b 21.405268
_cell_length_c 13.975726
_cell_angle_alpha 90.000000
_cell_angle_beta 90.000000
_cell_angle_gamma 90.000000
_cell_volume 4002.148079
_symmetry_space_group_name_H-M "I M M M"
_symmetry_group_IT_number 71
_symmetry_cell_setting 'orthorhombic'
loop_
_space_group_symop_operation_xyz
x,y,z
-x,-y,z
x,-y,-z
-x,y,-z
-x,-y,-z
x,y,-z
-x,y,z
x,-y,z
1/2+x,1/2+y,1/2+z
1/2-x,1/2-y,1/2+z
1/2+x,1/2-y,1/2-z
1/2-x,1/2+y,1/2-z
1/2-x,1/2-y,1/2-z
1/2+x,1/2+y,1/2-z
1/2-x,1/2+y,1/2+z
1/2+x,1/2-y,1/2+z
loop_
_atom_site_type_symbol
_atom_site_label
_atom_site_fract_x
_atom_site_fract_y
_atom_site_fract_z
Si Si1 0.617030 0.093941 0.723094
Si Si2 0.381984 0.000000 0.106377
Si Si3 0.829889 0.069175 0.307399
Si Si4 0.883542 0.194717 0.602267
Si Si5 0.379036 0.365731 0.393412
Si Si6 0.620988 0.242162 0.291484
O O1 0.500000 0.080736 0.698151
O O2 0.633932 0.061538 0.827448
O O3 0.711955 0.067299 0.666902
O O4 0.633970 0.167978 0.710569
O O5 0.500000 0.000000 0.093060
O O6 0.335404 0.000000 0.000000
O O7 0.878703 0.121807 0.372733
O O8 0.843160 0.093955 0.197785
O O9 0.871865 0.000000 0.315414
O O10 0.836016 0.207523 0.500000
O O11 0.837667 0.230749 0.691481
O O12 0.000000 0.212810 0.597443
O O13 0.344116 0.383957 0.500000
O O14 0.500000 0.370730 0.392966
O O15 0.351409 0.293204 0.371823
O O16 0.500000 0.248979 0.288987
#
# Coordination Sequence:
#
# PCOD9522178 Si02
#       6
#    16   8  16  16  16  16
#     4  10  20  36  55  77 108 147 181 220 271 316
#     4   9  18  32  50  74 104 141 184 222 260 311
#     4  11  22  35  53  80 109 145 186 225 263 322
#     4   9  19  36  57  82 111 139 174 225 280 330
#     4   9  19  36  56  81 112 141 174 222 276 330
#     4   8  16  33  57  81 107 141 180 221 271 329
#
# _framework density 21.988192000000002
#
# number of rings (size 3 to 8) (size 9 to 14) (size 15 to 20)
#    0.000    2.636    0.909    1.636    0.000    6.545 
#    0.000    8.182    0.000    1.636    0.000    1.273 
#    0.000    0.000    0.000    0.000    0.000    0.000 
#
# Total GULP energy -245000.855084 kJ/mol
# GULP energy per Si atom -5568.201252 kJ/mol
# Density = 2.193815 g / cm^3
# Si number density = 21.988192 Si / 1000 Ang^3
#
#
#
# Elastic Constant Matrix: (Units=GPa)
#
#
# Indices 1 2 3 4 5 6 
#
# 1 72.2059 -8.4163 0.3750 0.0000 0.0000 0.0000
# 2 -8.4163 82.7362 -14.4107 -0.0001 0.0000 0.0000
# 3 0.3750 -14.4107 44.3699 -0.0001 0.0000 0.0001
# 4 0.0000 -0.0001 -0.0001 -2.7782 0.0000 0.0001
# 5 0.0000 0.0000 0.0000 0.0000 13.2562 0.0000
# 6 0.0000 0.0000 0.0001 0.0001 0.0000 -68.4329
#
#
#
# Elastic Compliance Matrix: (Units=1/GPa)
#
#
# Indices 1 2 3 4 5 6 
#
# 1 0.014021 0.001490 0.000365 0.000000 0.000000 0.000000
# 2 0.001490 0.012970 0.004200 -0.000001 0.000000 0.000000
# 3 0.000365 0.004200 0.023899 -0.000001 0.000000 0.000000
# 4 0.000000 -0.000001 -0.000001 -0.359941 0.000000 -0.000001
# 5 0.000000 0.000000 0.000000 0.000000 0.075436 0.000000
# 6 0.000000 0.000000 0.000000 -0.000001 0.000000 -0.014613
#
#
# Mechanical properties :
#
#
# Convention : Reuss Voigt Hill
#
# Bulk Modulus (GPa) = 15.87311 17.15646 16.51478
# Shear Modulus (GPa) = -20.89090 3.19327 -8.84882
#
# Velocity S-wave (km/s) = -3.08571 1.20641 -2.00825
# Velocity P-wave (km/s) = 2.33685 3.12411 1.46615
#
# Compressibility (1/GPa) = 0.06299962
#
# Stress axis : x y z
#
# Youngs Moduli (GPa) = 71.32128 77.10301 41.84321
#
# Poissons Ratio (x) = -0.11488 -0.01529
# Poissons Ratio (y) = -0.10626 -0.17573
# Poissons Ratio (z) = -0.02606 -0.32381
#
# Static dielectric constant tensor:
#      x y z
#    x 1.875230 0.000000 0.000000 
#    y 0.000000 1.846240 0.000000 
#    z 0.000000 0.000000 1.835100 
# 
# From -- ./inp_files/34418.got.cif
#   From: 2010.05.17/outbox.cif.g08.bks.cpg/sg71_18_cif.got.tgz:34418.got - 2010.06.03 16:22:01.
