data_PCOD9522806
_publ_section_title
;
Structure prediction by ZEFSAII (Michael W. Deem and Ramdas Pophale) SiO2 
 PCOD9522806
Probable space group: I M M M
;
_chemical_formula_sum "Si O2"
_cell_formula_units_Z 88
_cell_length_a 8.697013
_cell_length_b 18.209137
_cell_length_c 31.695150
_cell_angle_alpha 90.000000
_cell_angle_beta 90.000000
_cell_angle_gamma 90.000000
_cell_volume 5019.405638
_symmetry_space_group_name_H-M "I M M M"
_symmetry_group_IT_number 71
_symmetry_cell_setting 'orthorhombic'
loop_
_space_group_symop_operation_xyz
x,y,z
-x,-y,z
x,-y,-z
-x,y,-z
-x,-y,-z
x,y,-z
-x,y,z
x,-y,z
1/2+x,1/2+y,1/2+z
1/2-x,1/2-y,1/2+z
1/2+x,1/2-y,1/2-z
1/2-x,1/2+y,1/2-z
1/2-x,1/2-y,1/2-z
1/2+x,1/2+y,1/2-z
1/2-x,1/2+y,1/2+z
1/2+x,1/2-y,1/2+z
loop_
_atom_site_type_symbol
_atom_site_label
_atom_site_fract_x
_atom_site_fract_y
_atom_site_fract_z
Si Si1 0.183752 0.734372 0.295902
Si Si2 0.818215 0.918049 0.827699
Si Si3 0.314710 0.086207 0.452135
Si Si4 0.181794 0.193869 0.618507
Si Si5 0.681712 0.342892 0.414154
Si Si6 0.312531 0.582834 0.500000
O O1 0.250000 0.750000 0.250000
O O2 0.233940 0.651646 0.307831
O O3 0.237467 0.791248 0.332980
O O4 0.000000 0.738507 0.295086
O O5 0.805108 0.904014 0.877820
O O6 0.000000 0.913396 0.817184
O O7 0.763632 0.000000 0.816586
O O8 0.265191 0.110025 0.500000
O O9 0.500000 0.091115 0.451673
O O10 0.253402 0.133208 0.412708
O O11 0.273227 0.000000 0.447790
O O12 0.221048 0.272123 0.597739
O O13 0.000000 0.180878 0.620223
O O14 0.500000 0.322071 0.416062
O O15 0.733054 0.375063 0.458247
O O16 0.255985 0.500000 0.500000
O O17 0.500000 0.580420 0.500000
#
# Coordination Sequence:
#
# PCOD9522806 Si02
#       6
#    16  16  16  16  16   8
#     4  10  21  37  56  78 105 137 175 219 268 320
#     4   9  17  31  52  76 102 134 172 213 258 306
#     4   9  19  36  57  80 106 138 178 222 265 314
#     4  10  21  35  52  77 106 136 170 212 261 315
#     4   9  17  29  47  71 100 136 174 211 247 289
#     4   9  16  26  43  69  98 129 170 213 243 272
#
# _framework density 17.531956000000001
#
# number of rings (size 3 to 8) (size 9 to 14) (size 15 to 20)
#    0.000    2.636    0.000    2.182    1.273    5.455 
#    0.000    1.818    0.000    3.273    0.000    0.000 
#    0.000    0.000    0.000    0.000    0.000    0.000 
#
# Total GULP energy -245083.918536 kJ/mol
# GULP energy per Si atom -5570.089058 kJ/mol
# Density = 1.749205 g / cm^3
# Si number density = 17.531956 Si / 1000 Ang^3
#
#
#
# Elastic Constant Matrix: (Units=GPa)
#
#
# Indices 1 2 3 4 5 6 
#
# 1 23.4336 23.4213 34.5139 0.0000 0.0000 0.0000
# 2 23.4213 82.0957 65.5598 0.0000 0.0000 0.0000
# 3 34.5139 65.5598 160.2367 0.0000 0.0000 0.0000
# 4 0.0000 0.0000 0.0000 15.5650 0.0000 0.0000
# 5 0.0000 0.0000 0.0000 0.0000 22.8683 0.0000
# 6 0.0000 0.0000 0.0000 0.0000 0.0000 -5.4767
#
#
#
# Elastic Compliance Matrix: (Units=1/GPa)
#
#
# Indices 1 2 3 4 5 6 
#
# 1 0.069278 -0.011657 -0.010153 0.000000 0.000000 0.000000
# 2 -0.011657 0.020054 -0.005694 0.000000 0.000000 0.000000
# 3 -0.010153 -0.005694 0.010757 0.000000 0.000000 0.000000
# 4 0.000000 0.000000 0.000000 0.064247 0.000000 0.000000
# 5 0.000000 0.000000 0.000000 0.000000 0.043729 0.000000
# 6 0.000000 0.000000 0.000000 0.000000 0.000000 -0.182593
#
#
# Mechanical properties :
#
#
# Convention : Reuss Voigt Hill
#
# Bulk Modulus (GPa) = 22.18195 56.97287 39.57741
# Shear Modulus (GPa) = 52.35329 16.07607 34.21468
#
# Velocity S-wave (km/s) = 5.47051 3.03142 4.42244
# Velocity P-wave (km/s) = 7.25133 6.69476 6.97859
#
# Compressibility (1/GPa) = 0.04508170
#
# Stress axis : x y z
#
# Youngs Moduli (GPa) = 14.43466 49.86631 92.96062
#
# Poissons Ratio (x) = 0.58128 0.94380
# Poissons Ratio (y) = 0.16826 0.52932
# Poissons Ratio (z) = 0.14655 0.28394
#
# Static dielectric constant tensor:
#      x y z
#    x 1.603820 0.000000 0.000000 
#    y 0.000000 1.577370 0.000000 
#    z 0.000000 0.000000 1.613330 
# 
# From -- ./inp_files/8791.got.cif
#   From: 2010.05.17/outbox.cif.g08.bks.cpg/sg71_5_cif.got.tgz:8791.got - 2010.06.03 16:22:01.
