data_PCOD9522143
_publ_section_title
;
Structure prediction by ZEFSAII (Michael W. Deem and Ramdas Pophale) SiO2 
 PCOD9522143
Probable space group: I M M M
;
_chemical_formula_sum "Si O2"
_cell_formula_units_Z 72
_cell_length_a 8.597711
_cell_length_b 23.248357
_cell_length_c 19.526026
_cell_angle_alpha 90.000000
_cell_angle_beta 90.000000
_cell_angle_gamma 90.000000
_cell_volume 3902.913913
_symmetry_space_group_name_H-M "I M M M"
_symmetry_group_IT_number 71
_symmetry_cell_setting 'orthorhombic'
loop_
_space_group_symop_operation_xyz
x,y,z
-x,-y,z
x,-y,-z
-x,y,-z
-x,-y,-z
x,y,-z
-x,y,z
x,-y,z
1/2+x,1/2+y,1/2+z
1/2-x,1/2-y,1/2+z
1/2+x,1/2-y,1/2-z
1/2-x,1/2+y,1/2-z
1/2-x,1/2-y,1/2-z
1/2+x,1/2+y,1/2-z
1/2-x,1/2+y,1/2+z
1/2+x,1/2-y,1/2+z
loop_
_atom_site_type_symbol
_atom_site_label
_atom_site_fract_x
_atom_site_fract_y
_atom_site_fract_z
Si Si1 0.813391 0.394272 0.173832
Si Si2 0.312233 0.433974 0.679201
Si Si3 0.811883 0.831765 0.921033
Si Si4 0.185178 0.232155 0.675512
Si Si5 0.189625 0.500000 0.921508
O O1 0.761031 0.413884 0.249343
O O2 0.743074 0.331932 0.159149
O O3 0.762209 0.443213 0.120151
O O4 0.000000 0.390354 0.172003
O O5 0.500000 0.431394 0.686118
O O6 0.268969 0.500000 0.664849
O O7 0.266814 0.389618 0.619708
O O8 0.745255 0.777757 0.879843
O O9 0.000000 0.828261 0.919478
O O10 0.762175 0.832678 0.000000
O O11 0.250000 0.250000 0.750000
O O12 0.000000 0.233197 0.678564
O O13 0.000000 0.500000 0.921861
O O14 0.242446 0.500000 0.000000
#
# Coordination Sequence:
#
# PCOD9522143 Si02
#       5
#    16  16  16  16   8
#     4  11  21  36  61  90 117 155 202 248 298 354
#     4  10  20  35  59  89 121 158 199 245 295 352
#     4  10  22  40  61  88 123 162 201 244 298 357
#     4  12  24  39  61  89 120 157 203 250 302 357
#     4   9  20  38  59  87 122 157 196 242 294 352
#
# _framework density 18.447755000000001
#
# number of rings (size 3 to 8) (size 9 to 14) (size 15 to 20)
#    0.000    1.444    3.333    2.667    0.000    1.778 
#    0.000    4.444    0.000    4.667    0.000    3.111 
#    0.000    0.000    0.000    0.000    0.000    0.000 
#
# Total GULP energy -201190.572286 kJ/mol
# GULP energy per Si atom -5588.627008 kJ/mol
# Density = 1.840577 g / cm^3
# Si number density = 18.447755 Si / 1000 Ang^3
#
#
#
# Elastic Constant Matrix: (Units=GPa)
#
#
# Indices 1 2 3 4 5 6 
#
# 1 38.7065 50.1408 46.7888 0.0000 0.0000 0.0000
# 2 50.1408 210.7539 114.9191 0.0000 0.0000 0.0000
# 3 46.7888 114.9191 190.7456 0.0000 0.0000 0.0000
# 4 0.0000 0.0000 0.0000 33.7492 0.0000 0.0000
# 5 0.0000 0.0000 0.0000 0.0000 26.4796 0.0000
# 6 0.0000 0.0000 0.0000 0.0000 0.0000 27.3123
#
#
#
# Elastic Compliance Matrix: (Units=1/GPa)
#
#
# Indices 1 2 3 4 5 6 
#
# 1 0.041974 -0.006511 -0.006373 0.000000 0.000000 0.000000
# 2 -0.006511 0.008076 -0.003269 0.000000 0.000000 0.000000
# 3 -0.006373 -0.003269 0.008775 0.000000 0.000000 0.000000
# 4 0.000000 0.000000 0.000000 0.029630 0.000000 0.000000
# 5 0.000000 0.000000 0.000000 0.000000 0.037765 0.000000
# 6 0.000000 0.000000 0.000000 0.000000 0.000000 0.036614
#
#
# Mechanical properties :
#
#
# Convention : Reuss Voigt Hill
#
# Bulk Modulus (GPa) = 37.70801 95.98927 66.84864
# Shear Modulus (GPa) = 24.51231 32.73205 28.62218
#
# Velocity S-wave (km/s) = 3.64915 4.21683 3.94322
# Velocity P-wave (km/s) = 6.18384 8.70947 7.55297
#
# Compressibility (1/GPa) = 0.02651957
#
# Stress axis : x y z
#
# Youngs Moduli (GPa) = 23.82444 123.82114 113.95804
#
# Poissons Ratio (x) = 0.80618 0.72629
# Poissons Ratio (y) = 0.15512 0.37248
# Poissons Ratio (z) = 0.15184 0.40472
#
# Static dielectric constant tensor:
#      x y z
#    x 1.631580 0.000000 0.000000 
#    y 0.000000 1.620900 0.000000 
#    z 0.000000 0.000000 1.604770 
# 
# From -- ./inp_files/7920.got.cif
#   From: 2010.05.17/outbox.cif.g08.bks.cpg/sg71_4_cif.got.tgz:7920.got - 2010.06.03 16:22:01.
