data_PCOD9522555
_publ_section_title
;
Structure prediction by ZEFSAII (Michael W. Deem and Ramdas Pophale) SiO2 
 PCOD9522555
Probable space group: I M M M
;
_chemical_formula_sum "Si O2"
_cell_formula_units_Z 64
_cell_length_a 10.671079
_cell_length_b 13.745233
_cell_length_c 19.739606
_cell_angle_alpha 90.000000
_cell_angle_beta 90.000000
_cell_angle_gamma 90.000000
_cell_volume 2895.335672
_symmetry_space_group_name_H-M "I M M M"
_symmetry_group_IT_number 71
_symmetry_cell_setting 'orthorhombic'
loop_
_space_group_symop_operation_xyz
x,y,z
-x,-y,z
x,-y,-z
-x,y,-z
-x,-y,-z
x,y,-z
-x,y,z
x,-y,z
1/2+x,1/2+y,1/2+z
1/2-x,1/2-y,1/2+z
1/2+x,1/2-y,1/2-z
1/2-x,1/2+y,1/2-z
1/2-x,1/2-y,1/2-z
1/2+x,1/2+y,1/2-z
1/2-x,1/2+y,1/2+z
1/2+x,1/2-y,1/2+z
loop_
_atom_site_type_symbol
_atom_site_label
_atom_site_fract_x
_atom_site_fract_y
_atom_site_fract_z
Si Si1 0.859099 0.115177 0.500000
Si Si2 0.500000 0.883140 0.702436
Si Si3 0.726694 0.111342 0.076993
Si Si4 0.232820 0.186631 0.357523
Si Si5 0.000000 0.803178 0.268642
Si Si6 0.500000 0.606826 0.377417
O O1 0.790552 0.145202 0.568083
O O2 0.000000 0.157156 0.500000
O O3 0.868672 0.000000 0.500000
O O4 0.369344 0.850339 0.665801
O O5 0.500000 0.814534 0.768581
O O6 0.500000 0.000000 0.711357
O O7 0.705975 0.198021 0.130058
O O8 0.877756 0.114592 0.077296
O O9 0.689281 0.000000 0.095191
O O10 0.680851 0.130973 0.000000
O O11 0.124551 0.156690 0.304706
O O12 0.000000 0.827277 0.188981
O O13 0.500000 0.500000 0.346163
#
# Coordination Sequence:
#
# PCOD9522555 Si02
#       6
#     8   8  16  16   8   8
#     4  11  24  45  72 100 133 180 235 285 337 408
#     4  12  28  46  67 102 140 177 228 288 343 401
#     4  10  20  37  66  99 129 167 218 278 341 402
#     4  12  24  46  71  98 137 181 226 283 344 404
#     4  12  26  44  68  96 135 187 228 267 337 406
#     4  10  21  37  62  93 126 168 220 271 328 395
#
# _framework density 22.104519
#
# number of rings (size 3 to 8) (size 9 to 14) (size 15 to 20)
#    0.000    0.875    5.000    1.875    0.000    5.000 
#    0.000    1.250    0.000    2.250    0.000    0.000 
#    0.000    0.000    0.000    0.000    0.000    0.000 
#
# Total GULP energy -178411.580709 kJ/mol
# GULP energy per Si atom -5575.361897 kJ/mol
# Density = 2.205421 g / cm^3
# Si number density = 22.104519 Si / 1000 Ang^3
#
#
#
# Elastic Constant Matrix: (Units=GPa)
#
#
# Indices 1 2 3 4 5 6 
#
# 1 137.2607 28.7951 61.6947 0.0000 0.0000 0.0000
# 2 28.7951 98.0301 23.6409 0.0000 0.0000 0.0000
# 3 61.6947 23.6409 80.9954 0.0000 0.0000 0.0000
# 4 0.0000 0.0000 0.0000 -16.9286 0.0000 0.0000
# 5 0.0000 0.0000 0.0000 0.0000 83.1531 0.0000
# 6 0.0000 0.0000 0.0000 0.0000 0.0000 18.4217
#
#
#
# Elastic Compliance Matrix: (Units=1/GPa)
#
#
# Indices 1 2 3 4 5 6 
#
# 1 0.011237 -0.001330 -0.008171 0.000000 0.000000 0.000000
# 2 -0.001330 0.011131 -0.002236 0.000000 0.000000 0.000000
# 3 -0.008171 -0.002236 0.019223 0.000000 0.000000 0.000000
# 4 0.000000 0.000000 0.000000 -0.059072 0.000000 0.000000
# 5 0.000000 0.000000 0.000000 0.000000 0.012026 0.000000
# 6 0.000000 0.000000 0.000000 0.000000 0.000000 0.054284
#
#
# Mechanical properties :
#
#
# Convention : Reuss Voigt Hill
#
# Bulk Modulus (GPa) = 55.19701 60.50530 57.85115
# Shear Modulus (GPa) = 63.82273 30.40628 47.11451
#
# Velocity S-wave (km/s) = 5.37920 3.71289 4.62176
# Velocity P-wave (km/s) = 7.97535 6.76849 7.39658
#
# Compressibility (1/GPa) = 0.01811692
#
# Stress axis : x y z
#
# Youngs Moduli (GPa) = 88.99041 89.84063 52.02119
#
# Poissons Ratio (x) = 0.11951 0.42507
# Poissons Ratio (y) = 0.11838 0.11630
# Poissons Ratio (z) = 0.72715 0.20085
#
# Static dielectric constant tensor:
#      x y z
#    x 1.840660 0.000000 0.000000 
#    y 0.000000 1.913850 0.000000 
#    z 0.000000 0.000000 1.808710 
# 
# From -- ./inp_files/42939.got.cif
#   From: 2010.05.17/outbox.cif.g08.bks.cpg/sg71_22_cif.got.tgz:42939.got - 2010.06.03 16:22:01.
