data_PCOD9522990
_publ_section_title
;
Structure prediction by ZEFSAII (Michael W. Deem and Ramdas Pophale) SiO2 
 PCOD9522990
Probable space group: I M M M
;
_chemical_formula_sum "Si O2"
_cell_formula_units_Z 104
_cell_length_a 26.191918
_cell_length_b 9.532313
_cell_length_c 20.885996
_cell_angle_alpha 90.000000
_cell_angle_beta 90.000000
_cell_angle_gamma 90.000000
_cell_volume 5214.597441
_symmetry_space_group_name_H-M "I M M M"
_symmetry_group_IT_number 71
_symmetry_cell_setting 'orthorhombic'
loop_
_space_group_symop_operation_xyz
x,y,z
-x,-y,z
x,-y,-z
-x,y,-z
-x,-y,-z
x,y,-z
-x,y,z
x,-y,z
1/2+x,1/2+y,1/2+z
1/2-x,1/2-y,1/2+z
1/2+x,1/2-y,1/2-z
1/2-x,1/2+y,1/2-z
1/2-x,1/2-y,1/2-z
1/2+x,1/2+y,1/2-z
1/2-x,1/2+y,1/2+z
1/2+x,1/2-y,1/2+z
loop_
_atom_site_type_symbol
_atom_site_label
_atom_site_fract_x
_atom_site_fract_y
_atom_site_fract_z
Si Si1 0.162248 0.657530 0.923701
Si Si2 0.939992 0.845074 0.613174
Si Si3 0.736601 0.168159 0.074170
Si Si4 0.556428 0.834994 0.645090
Si Si5 0.392896 0.339481 0.252451
Si Si6 0.062658 0.657439 0.500000
Si Si7 0.296226 0.830864 0.784579
O O1 0.175618 0.500000 0.900151
O O2 0.208162 0.763797 0.910303
O O3 0.106254 0.693752 0.897687
O O4 0.158248 0.651905 0.000000
O O5 0.912709 0.844353 0.680302
O O6 0.919425 0.733986 0.563350
O O7 0.000000 0.817778 0.623930
O O8 0.935843 0.000000 0.583914
O O9 0.703722 0.201614 0.138338
O O10 0.740543 0.000000 0.072305
O O11 0.722193 0.212471 0.000000
O O12 0.500000 0.815309 0.615720
O O13 0.563889 0.730065 0.703933
O O14 0.559311 0.000000 0.664161
O O15 0.380197 0.500000 0.272195
O O16 0.345547 0.233292 0.250423
O O17 0.080072 0.500000 0.500000
O O18 0.000000 0.662345 0.500000
O O19 0.250000 0.750000 0.750000
O O20 0.292838 0.000000 0.777528
#
# Coordination Sequence:
#
# PCOD9522990 Si02
#       7
#    16  16  16  16  16   8  16
#     4   9  18  33  55  83 113 146 184 226 275 333
#     4   9  18  34  54  74 102 141 180 218 265 323
#     4   9  19  37  59  82 110 146 186 230 283 339
#     4  10  21  36  55  81 114 151 190 234 282 333
#     4  11  23  38  56  80 110 145 186 230 281 335
#     4   9  17  29  49  77 103 131 171 217 263 311
#     4  11  23  39  60  84 113 147 187 235 286 342
#
# _framework density 19.944013999999999
#
# number of rings (size 3 to 8) (size 9 to 14) (size 15 to 20)
#    0.000    2.231    0.000    2.538    0.000    7.692 
#    1.385    3.077    0.000    0.000    0.000    3.231 
#    0.000    0.000    0.000    0.000    0.000    0.000 
#
# Total GULP energy -289914.851974 kJ/mol
# GULP energy per Si atom -5575.285615 kJ/mol
# Density = 1.989862 g / cm^3
# Si number density = 19.944014 Si / 1000 Ang^3
#
#
#
# Elastic Constant Matrix: (Units=GPa)
#
#
# Indices 1 2 3 4 5 6 
#
# 1 40.0442 15.2871 -2.8647 0.0000 0.0000 0.0000
# 2 15.2871 55.2122 13.5951 0.0000 0.0000 0.0000
# 3 -2.8647 13.5951 35.2494 0.0000 0.0000 0.0000
# 4 0.0000 0.0000 0.0000 29.4852 0.0000 0.0000
# 5 0.0000 0.0000 0.0000 0.0000 27.0991 0.0000
# 6 0.0000 0.0000 0.0000 0.0000 0.0000 21.9698
#
#
#
# Elastic Compliance Matrix: (Units=1/GPa)
#
#
# Indices 1 2 3 4 5 6 
#
# 1 0.029041 -0.009527 0.006035 0.000000 0.000000 0.000000
# 2 -0.009527 0.023138 -0.009698 0.000000 0.000000 0.000000
# 3 0.006035 -0.009698 0.032600 0.000000 0.000000 0.000000
# 4 0.000000 0.000000 0.000000 0.033915 0.000000 0.000000
# 5 0.000000 0.000000 0.000000 0.000000 0.036902 0.000000
# 6 0.000000 0.000000 0.000000 0.000000 0.000000 0.045517
#
#
# Mechanical properties :
#
#
# Convention : Reuss Voigt Hill
#
# Bulk Modulus (GPa) = 17.12384 20.28232 18.70308
# Shear Modulus (GPa) = 20.24624 22.67672 21.46148
#
# Velocity S-wave (km/s) = 3.18960 3.37563 3.28393
# Velocity P-wave (km/s) = 4.70844 5.03834 4.87618
#
# Compressibility (1/GPa) = 0.05839811
#
# Stress axis : x y z
#
# Youngs Moduli (GPa) = 34.43402 43.21944 30.67477
#
# Poissons Ratio (x) = 0.41174 -0.18511
# Poissons Ratio (y) = 0.32805 0.29749
# Poissons Ratio (z) = -0.20779 0.41915
#
# Static dielectric constant tensor:
#      x y z
#    x 1.730850 0.000000 0.000000 
#    y 0.000000 1.697720 0.000000 
#    z 0.000000 0.000000 1.725140 
# 
# From -- ./inp_files/11151.got.cif
#   From: 2010.05.17/outbox.cif.g08.bks.cpg/sg71_6_cif.got.tgz:11151.got - 2010.06.03 16:22:01.
