data_PCOD9522413
_publ_section_title
;
Structure prediction by ZEFSAII (Michael W. Deem and Ramdas Pophale) SiO2 
 PCOD9522413
Probable space group: I M M M
;
_chemical_formula_sum "Si O2"
_cell_formula_units_Z 116
_cell_length_a 7.701734
_cell_length_b 26.952644
_cell_length_c 25.307316
_cell_angle_alpha 90.000000
_cell_angle_beta 90.000000
_cell_angle_gamma 90.000000
_cell_volume 5253.345666
_symmetry_space_group_name_H-M "I M M M"
_symmetry_group_IT_number 71
_symmetry_cell_setting 'orthorhombic'
loop_
_space_group_symop_operation_xyz
x,y,z
-x,-y,z
x,-y,-z
-x,y,-z
-x,-y,-z
x,y,-z
-x,y,z
x,-y,z
1/2+x,1/2+y,1/2+z
1/2-x,1/2-y,1/2+z
1/2+x,1/2-y,1/2-z
1/2-x,1/2+y,1/2-z
1/2-x,1/2-y,1/2-z
1/2+x,1/2+y,1/2-z
1/2-x,1/2+y,1/2+z
1/2+x,1/2-y,1/2+z
loop_
_atom_site_type_symbol
_atom_site_label
_atom_site_fract_x
_atom_site_fract_y
_atom_site_fract_z
Si Si1 0.290845 0.127318 0.439914
Si Si2 0.707581 0.893830 0.231289
Si Si3 0.789906 0.160081 0.057243
Si Si4 0.707420 0.784183 0.799260
Si Si5 0.794233 0.943801 0.657373
Si Si6 0.702592 0.236249 0.409628
Si Si7 0.299435 0.929279 0.877705
Si Si8 0.500000 0.500000 0.586002
O O1 0.229620 0.117050 0.500000
O O2 0.500000 0.129359 0.441917
O O3 0.250556 0.086539 0.395519
O O4 0.224665 0.181686 0.420906
O O5 0.500000 0.890531 0.227957
O O6 0.775486 0.839138 0.216016
O O7 0.747543 0.913576 0.289484
O O8 0.758326 0.930904 0.183730
O O9 0.725582 0.216549 0.059160
O O10 0.708630 0.127492 0.103094
O O11 0.000000 0.160554 0.063519
O O12 0.748956 0.137978 0.000000
O O13 0.500000 0.787096 0.807315
O O14 0.750000 0.750000 0.750000
O O15 0.784456 0.756010 0.849843
O O16 0.000000 0.948103 0.658178
O O17 0.720064 0.000000 0.658181
O O18 0.500000 0.232564 0.424355
O O19 0.500000 0.945485 0.882756
O O20 0.154974 0.957698 0.910980
#
# Coordination Sequence:
#
# PCOD9522413 Si02
#       8
#    16  16  16  16  16  16  16   4
#     4  10  22  42  66  94 130 171 219 273 330 396
#     4  10  23  41  62  90 129 165 212 269 325 394
#     4  10  20  38  65  96 131 171 215 266 329 398
#     4  11  22  36  55  86 127 168 206 253 313 384
#     4  11  26  43  64  93 125 167 220 277 339 403
#     4  10  20  36  62  95 130 168 214 261 320 395
#     4  11  24  43  67  98 129 173 225 279 337 404
#     4  12  26  44  69  96 132 174 223 282 344 392
#
# _framework density 22.081166
#
# number of rings (size 3 to 8) (size 9 to 14) (size 15 to 20)
#    0.000    1.517    2.069    2.276    1.931    8.552 
#    0.000    2.069    0.000    3.310    0.000    0.000 
#    0.000    0.000    0.000    0.000    0.000    0.000 
#
# Total GULP energy -323335.626641 kJ/mol
# GULP energy per Si atom -5574.752183 kJ/mol
# Density = 2.203091 g / cm^3
# Si number density = 22.081166 Si / 1000 Ang^3
#
#
#
# Elastic Constant Matrix: (Units=GPa)
#
#
# Indices 1 2 3 4 5 6 
#
# 1 65.1393 5.1995 -8.7014 0.0000 0.0000 0.0000
# 2 5.1995 109.2301 45.3659 0.0000 0.0000 0.0000
# 3 -8.7014 45.3659 140.0751 0.0000 0.0000 0.0000
# 4 0.0000 0.0000 0.0000 23.3864 0.0000 0.0000
# 5 0.0000 0.0000 0.0000 0.0000 14.8620 0.0000
# 6 0.0000 0.0000 0.0000 0.0000 0.0000 14.1523
#
#
#
# Elastic Compliance Matrix: (Units=1/GPa)
#
#
# Indices 1 2 3 4 5 6 
#
# 1 0.015645 -0.001327 0.001402 0.000000 0.000000 0.000000
# 2 -0.001327 0.010690 -0.003545 0.000000 0.000000 0.000000
# 3 0.001402 -0.003545 0.008374 0.000000 0.000000 0.000000
# 4 0.000000 0.000000 0.000000 0.042760 0.000000 0.000000
# 5 0.000000 0.000000 0.000000 0.000000 0.067286 0.000000
# 6 0.000000 0.000000 0.000000 0.000000 0.000000 0.070660
#
#
# Mechanical properties :
#
#
# Convention : Reuss Voigt Hill
#
# Bulk Modulus (GPa) = 36.01083 44.24138 40.12611
# Shear Modulus (GPa) = 21.58793 28.65218 25.12005
#
# Velocity S-wave (km/s) = 3.13015 3.60611 3.37653
# Velocity P-wave (km/s) = 5.42288 6.11702 5.78038
#
# Compressibility (1/GPa) = 0.02776942
#
# Stress axis : x y z
#
# Youngs Moduli (GPa) = 63.91878 93.54239 119.41568
#
# Poissons Ratio (x) = 0.12411 -0.16737
# Poissons Ratio (y) = 0.08481 0.42329
# Poissons Ratio (z) = -0.08959 0.33158
#
# Static dielectric constant tensor:
#      x y z
#    x 1.832780 0.000000 0.000000 
#    y 0.000000 2.224220 0.000000 
#    z 0.000000 0.000000 1.853310 
# 
# From -- ./inp_files/58103.got.cif
#   From: 2010.05.17/outbox.cif.g08.bks.cpg/sg71_30_cif.got.tgz:58103.got - 2010.06.03 16:22:01.
