data_PCOD9522931
_publ_section_title
;
Structure prediction by ZEFSAII (Michael W. Deem and Ramdas Pophale) SiO2 
 PCOD9522931
Probable space group: I M M M
;
_chemical_formula_sum "Si O2"
_cell_formula_units_Z 80
_cell_length_a 30.485210
_cell_length_b 7.414709
_cell_length_c 15.903442
_cell_angle_alpha 90.000000
_cell_angle_beta 90.000000
_cell_angle_gamma 90.000000
_cell_volume 3594.797505
_symmetry_space_group_name_H-M "I M M M"
_symmetry_group_IT_number 71
_symmetry_cell_setting 'orthorhombic'
loop_
_space_group_symop_operation_xyz
x,y,z
-x,-y,z
x,-y,-z
-x,y,-z
-x,-y,-z
x,y,-z
-x,y,z
x,-y,z
1/2+x,1/2+y,1/2+z
1/2-x,1/2-y,1/2+z
1/2+x,1/2-y,1/2-z
1/2-x,1/2+y,1/2-z
1/2-x,1/2-y,1/2-z
1/2+x,1/2+y,1/2-z
1/2-x,1/2+y,1/2+z
1/2+x,1/2-y,1/2+z
loop_
_atom_site_type_symbol
_atom_site_label
_atom_site_fract_x
_atom_site_fract_y
_atom_site_fract_z
Si Si1 0.606795 0.216961 0.907057
Si Si2 0.200242 0.719694 0.662190
Si Si3 0.049409 0.786099 0.755851
Si Si4 0.204915 0.791280 0.860249
Si Si5 0.389902 0.279389 0.592441
O O1 0.655911 0.278692 0.883136
O O2 0.573469 0.263195 0.833026
O O3 0.608656 0.000000 0.909537
O O4 0.594230 0.281250 0.000000
O O5 0.201105 0.500000 0.663160
O O6 0.199274 0.781193 0.759108
O O7 0.246435 0.782969 0.622928
O O8 0.080149 0.714867 0.830829
O O9 0.000000 0.712886 0.755620
O O10 0.046230 0.000000 0.770354
O O11 0.160253 0.714371 0.897621
O O12 0.206359 0.000000 0.886856
O O13 0.406814 0.231755 0.500000
O O14 0.388391 0.500000 0.597154
#
# Coordination Sequence:
#
# PCOD9522931 Si02
#       5
#    16  16  16  16  16
#     4  10  21  36  54  77 105 137 172 210 256 309
#     4   9  17  29  48  74 103 135 169 205 246 294
#     4  10  21  37  56  77 102 132 169 216 264 306
#     4   9  16  28  49  75 103 135 169 204 244 294
#     4   9  17  30  51  79 106 132 165 205 251 302
#
# _framework density 22.254382
#
# number of rings (size 3 to 8) (size 9 to 14) (size 15 to 20)
#    0.000    2.600    2.000    0.000    0.000    2.400 
#    0.000    8.000    0.000    2.400    0.000    7.000 
#    0.000    0.000    0.000    0.000    0.000    0.000 
#
# Total GULP energy -223331.617503 kJ/mol
# GULP energy per Si atom -5583.290438 kJ/mol
# Density = 2.220373 g / cm^3
# Si number density = 22.254382 Si / 1000 Ang^3
#
#
#
# Elastic Constant Matrix: (Units=GPa)
#
#
# Indices 1 2 3 4 5 6 
#
# 1 182.6436 4.3515 90.3231 0.0000 0.0000 0.0000
# 2 4.3515 75.3965 -8.0916 0.0000 0.0000 0.0000
# 3 90.3231 -8.0916 141.5606 0.0000 0.0000 0.0000
# 4 0.0000 0.0000 0.0000 21.3107 0.0000 0.0000
# 5 0.0000 0.0000 0.0000 0.0000 -7.6896 0.0000
# 6 0.0000 0.0000 0.0000 0.0000 0.0000 8.7268
#
#
#
# Elastic Compliance Matrix: (Units=1/GPa)
#
#
# Indices 1 2 3 4 5 6 
#
# 1 0.008077 -0.001026 -0.005212 0.000000 0.000000 0.000000
# 2 -0.001026 0.013475 0.001425 0.000000 0.000000 0.000000
# 3 -0.005212 0.001425 0.010471 0.000000 0.000000 0.000000
# 4 0.000000 0.000000 0.000000 0.046925 0.000000 0.000000
# 5 0.000000 0.000000 0.000000 0.000000 -0.130046 0.000000
# 6 0.000000 0.000000 0.000000 0.000000 0.000000 0.114590
#
#
# Mechanical properties :
#
#
# Convention : Reuss Voigt Hill
#
# Bulk Modulus (GPa) = 44.64833 63.64075 54.14454
# Shear Modulus (GPa) = 62.04647 25.33743 43.69195
#
# Velocity S-wave (km/s) = 5.28593 3.37788 4.43572
# Velocity P-wave (km/s) = 7.57371 6.62363 7.11455
#
# Compressibility (1/GPa) = 0.02239725
#
# Stress axis : x y z
#
# Youngs Moduli (GPa) = 123.80472 74.20987 95.49934
#
# Poissons Ratio (x) = 0.07611 0.49777
# Poissons Ratio (y) = 0.12697 -0.13605
# Poissons Ratio (z) = 0.64531 -0.10572
#
# Static dielectric constant tensor:
#      x y z
#    x 1.810350 0.000000 0.000000 
#    y 0.000000 2.070030 0.000000 
#    z 0.000000 0.000000 1.789050 
# 
# From -- ./inp_files/20121.got.cif
#   From: 2010.05.17/outbox.cif.g08.bks.cpg/sg71_11_cif.got.tgz:20121.got - 2010.06.03 16:22:01.
