data_PCOD9522505
_publ_section_title
;
Structure prediction by ZEFSAII (Michael W. Deem and Ramdas Pophale) SiO2 
 PCOD9522505
Probable space group: I M M M
;
_chemical_formula_sum "Si O2"
_cell_formula_units_Z 80
_cell_length_a 25.082742
_cell_length_b 18.361935
_cell_length_c 9.305962
_cell_angle_alpha 90.000000
_cell_angle_beta 90.000000
_cell_angle_gamma 90.000000
_cell_volume 4286.025312
_symmetry_space_group_name_H-M "I M M M"
_symmetry_group_IT_number 71
_symmetry_cell_setting 'orthorhombic'
loop_
_space_group_symop_operation_xyz
x,y,z
-x,-y,z
x,-y,-z
-x,y,-z
-x,-y,-z
x,y,-z
-x,y,z
x,-y,z
1/2+x,1/2+y,1/2+z
1/2-x,1/2-y,1/2+z
1/2+x,1/2-y,1/2-z
1/2-x,1/2+y,1/2-z
1/2-x,1/2-y,1/2-z
1/2+x,1/2+y,1/2-z
1/2-x,1/2+y,1/2+z
1/2+x,1/2-y,1/2+z
loop_
_atom_site_type_symbol
_atom_site_label
_atom_site_fract_x
_atom_site_fract_y
_atom_site_fract_z
Si Si1 0.217053 0.186659 0.668943
Si Si2 0.094709 0.171523 0.670085
Si Si3 0.000000 0.413633 0.161317
Si Si4 0.812729 0.584608 0.831916
Si Si5 0.905703 0.657938 0.667821
Si Si6 0.500000 0.587011 0.328287
O O1 0.212947 0.207836 0.500000
O O2 0.250000 0.250000 0.750000
O O3 0.156814 0.170005 0.718491
O O4 0.252800 0.114233 0.679015
O O5 0.092453 0.151991 0.500000
O O6 0.080750 0.257003 0.682951
O O7 0.052513 0.123609 0.757358
O O8 0.051272 0.387673 0.246393
O O9 0.000000 0.500000 0.153370
O O10 0.000000 0.383286 0.000000
O O11 0.817919 0.500000 0.791148
O O12 0.849315 0.636393 0.735896
O O13 0.828816 0.591380 0.000000
O O14 0.906026 0.640153 0.500000
O O15 0.500000 0.500000 0.302884
O O16 0.500000 0.599508 0.500000
#
# Coordination Sequence:
#
# PCOD9522505 Si02
#       6
#    16  16   8  16  16   8
#     4  10  20  37  61  89 121 158 202 250 298 358
#     4  10  22  40  64  92 120 157 202 247 300 365
#     4  11  24  39  54  76 110 153 198 239 288 352
#     4  10  21  36  56  85 120 158 198 241 295 359
#     4  11  22  37  58  86 117 149 195 247 294 352
#     4  11  26  45  64  92 126 159 204 261 316 368
#
# _framework density 18.665310999999999
#
# number of rings (size 3 to 8) (size 9 to 14) (size 15 to 20)
#    0.000    1.600    2.000    2.400    0.000   10.000 
#    0.000    2.000    0.000    0.000    0.000    0.000 
#    0.000    0.000    0.000    0.000    0.000    0.000 
#
# Total GULP energy -223340.961449 kJ/mol
# GULP energy per Si atom -5583.524036 kJ/mol
# Density = 1.862283 g / cm^3
# Si number density = 18.665311 Si / 1000 Ang^3
#
#
#
# Elastic Constant Matrix: (Units=GPa)
#
#
# Indices 1 2 3 4 5 6 
#
# 1 146.0263 49.7044 68.9603 0.0000 0.0000 0.0000
# 2 49.7044 82.1462 63.0162 0.0000 0.0000 0.0000
# 3 68.9603 63.0162 98.3405 0.0000 0.0000 0.0000
# 4 0.0000 0.0000 0.0000 25.2480 0.0000 0.0000
# 5 0.0000 0.0000 0.0000 0.0000 -229.9938 0.0000
# 6 0.0000 0.0000 0.0000 0.0000 0.0000 43.3489
#
#
#
# Elastic Compliance Matrix: (Units=1/GPa)
#
#
# Indices 1 2 3 4 5 6 
#
# 1 0.010316 -0.001362 -0.006361 0.000000 0.000000 0.000000
# 2 -0.001362 0.024123 -0.014503 0.000000 0.000000 0.000000
# 3 -0.006361 -0.014503 0.023923 0.000000 0.000000 0.000000
# 4 0.000000 0.000000 0.000000 0.039607 0.000000 0.000000
# 5 0.000000 0.000000 0.000000 0.000000 -0.004348 0.000000
# 6 0.000000 0.000000 0.000000 0.000000 0.000000 0.023069
#
#
# Mechanical properties :
#
#
# Convention : Reuss Voigt Hill
#
# Bulk Modulus (GPa) = 71.89242 76.65275 74.27259
# Shear Modulus (GPa) = 30.16101 -22.62390 3.76856
#
# Velocity S-wave (km/s) = 4.02417 -3.48527 1.42246
# Velocity P-wave (km/s) = 7.75836 4.99599 6.52503
#
# Compressibility (1/GPa) = 0.01390967
#
# Stress axis : x y z
#
# Youngs Moduli (GPa) = 96.94034 41.45433 41.80153
#
# Poissons Ratio (x) = 0.05646 0.26590
# Poissons Ratio (y) = 0.13204 0.60624
# Poissons Ratio (z) = 0.61663 0.60120
#
# Static dielectric constant tensor:
#      x y z
#    x 1.627140 0.000000 0.000000 
#    y 0.000000 1.625650 0.000000 
#    z 0.000000 0.000000 1.632670 
# 
# From -- ./inp_files/14567.got.cif
#   From: 2010.05.17/outbox.cif.g08.bks.cpg/sg71_8_cif.got.tgz:14567.got - 2010.06.03 16:22:01.
