data_PCOD9522804
_publ_section_title
;
Structure prediction by ZEFSAII (Michael W. Deem and Ramdas Pophale) SiO2 
 PCOD9522804
Probable space group: I M M M
;
_chemical_formula_sum "Si O2"
_cell_formula_units_Z 120
_cell_length_a 27.807445
_cell_length_b 9.144010
_cell_length_c 27.558753
_cell_angle_alpha 90.000000
_cell_angle_beta 90.000000
_cell_angle_gamma 90.000000
_cell_volume 7007.406983
_symmetry_space_group_name_H-M "I M M M"
_symmetry_group_IT_number 71
_symmetry_cell_setting 'orthorhombic'
loop_
_space_group_symop_operation_xyz
x,y,z
-x,-y,z
x,-y,-z
-x,y,-z
-x,-y,-z
x,y,-z
-x,y,z
x,-y,z
1/2+x,1/2+y,1/2+z
1/2-x,1/2-y,1/2+z
1/2+x,1/2-y,1/2-z
1/2-x,1/2+y,1/2-z
1/2-x,1/2-y,1/2-z
1/2+x,1/2+y,1/2-z
1/2-x,1/2+y,1/2+z
1/2+x,1/2-y,1/2+z
loop_
_atom_site_type_symbol
_atom_site_label
_atom_site_fract_x
_atom_site_fract_y
_atom_site_fract_z
Si Si1 0.443305 0.825977 0.209945
Si Si2 0.943665 0.674548 0.000000
Si Si3 0.109413 0.175158 0.911056
Si Si4 0.737425 0.673963 0.800433
Si Si5 0.363372 0.674246 0.852823
Si Si6 0.718450 0.326041 0.607940
Si Si7 0.556794 0.327134 0.311210
Si Si8 0.182368 0.324974 0.555738
O O1 0.500000 0.795118 0.201956
O O2 0.409739 0.748079 0.170833
O O3 0.431007 0.763709 0.263287
O O4 0.436299 0.000000 0.208620
O O5 0.918816 0.741757 0.952716
O O6 0.938837 0.500000 0.000000
O O7 0.000000 0.711966 0.000000
O O8 0.166017 0.209148 0.912390
O O9 0.087899 0.211909 0.858178
O O10 0.103517 0.000000 0.917598
O O11 0.743256 0.500000 0.796467
O O12 0.750000 0.750000 0.750000
O O13 0.682742 0.704071 0.818017
O O14 0.770547 0.738298 0.843135
O O15 0.369048 0.500000 0.856306
O O16 0.349908 0.741875 0.904955
O O17 0.719161 0.500000 0.618928
O O18 0.762112 0.296732 0.570915
O O19 0.500000 0.305676 0.321948
O O20 0.563970 0.500000 0.301034
O O21 0.173889 0.282738 0.500000
O O22 0.174774 0.500000 0.560188
#
# Coordination Sequence:
#
# PCOD9522804 Si02
#       8
#    16   8  16  16  16  16  16  16
#     4  10  21  36  56  83 113 145 180 220 268 321
#     4  11  25  41  55  75 105 141 183 235 290 337
#     4  10  21  36  58  81 104 137 181 230 278 332
#     4  10  21  35  52  76 110 147 183 220 264 317
#     4  10  21  36  55  80 110 145 184 222 266 319
#     4   9  19  34  53  80 110 139 178 222 268 320
#     4   9  18  33  52  76 106 140 179 223 271 323
#     4   9  18  34  57  81 109 143 178 219 268 323
#
# _framework density 17.124737
#
# number of rings (size 3 to 8) (size 9 to 14) (size 15 to 20)
#    0.000    2.333    0.000    1.800    2.800    4.800 
#    0.000    1.333    0.000    0.400    0.000    2.800 
#    0.000    0.000    0.000    0.000    0.000    0.000 
#
# Total GULP energy -334944.507048 kJ/mol
# GULP energy per Si atom -5582.408451 kJ/mol
# Density = 1.708576 g / cm^3
# Si number density = 17.124737 Si / 1000 Ang^3
#
#
#
# Elastic Constant Matrix: (Units=GPa)
#
#
# Indices 1 2 3 4 5 6 
#
# 1 105.8760 64.1877 84.3694 0.0000 0.0000 0.0000
# 2 64.1877 59.8901 75.2604 0.0000 0.0000 0.0000
# 3 84.3694 75.2604 153.6383 0.0000 0.0000 0.0000
# 4 0.0000 0.0000 0.0000 32.2805 0.0000 0.0000
# 5 0.0000 0.0000 0.0000 0.0000 15.6253 0.0000
# 6 0.0000 0.0000 0.0000 0.0000 0.0000 24.3572
#
#
#
# Elastic Compliance Matrix: (Units=1/GPa)
#
#
# Indices 1 2 3 4 5 6 
#
# 1 0.027137 -0.026944 -0.001704 0.000000 0.000000 0.000000
# 2 -0.026944 0.070185 -0.019585 0.000000 0.000000 0.000000
# 3 -0.001704 -0.019585 0.017038 0.000000 0.000000 0.000000
# 4 0.000000 0.000000 0.000000 0.030978 0.000000 0.000000
# 5 0.000000 0.000000 0.000000 0.000000 0.063999 0.000000
# 6 0.000000 0.000000 0.000000 0.000000 0.000000 0.041056
#
#
# Mechanical properties :
#
#
# Convention : Reuss Voigt Hill
#
# Bulk Modulus (GPa) = 55.87705 85.22661 70.55183
# Shear Modulus (GPa) = 14.17140 20.82507 17.49823
#
# Velocity S-wave (km/s) = 2.87982 3.49102 3.20004
# Velocity P-wave (km/s) = 6.61499 8.13178 7.41228
#
# Compressibility (1/GPa) = 0.01789644
#
# Stress axis : x y z
#
# Youngs Moduli (GPa) = 36.84947 14.24803 58.69203
#
# Poissons Ratio (x) = 0.38389 0.10000
# Poissons Ratio (y) = 0.99286 1.14946
# Poissons Ratio (z) = 0.06279 0.27904
#
# Static dielectric constant tensor:
#      x y z
#    x 1.574120 0.000000 0.000000 
#    y 0.000000 1.568440 0.000000 
#    z 0.000000 0.000000 1.547270 
# 
# From -- ./inp_files/67169.got.cif
#   From: 2010.05.17/outbox.cif.g08.bks.cpg/sg71_34_cif.got.tgz:67169.got - 2010.06.03 16:22:01.
