data_PCOD9522206
_publ_section_title
;
Structure prediction by ZEFSAII (Michael W. Deem and Ramdas Pophale) SiO2 
 PCOD9522206
Probable space group: I M M M
;
_chemical_formula_sum "Si O2"
_cell_formula_units_Z 120
_cell_length_a 26.733598
_cell_length_b 7.536975
_cell_length_c 28.813168
_cell_angle_alpha 90.000000
_cell_angle_beta 90.000000
_cell_angle_gamma 90.000000
_cell_volume 5805.578468
_symmetry_space_group_name_H-M "I M M M"
_symmetry_group_IT_number 71
_symmetry_cell_setting 'orthorhombic'
loop_
_space_group_symop_operation_xyz
x,y,z
-x,-y,z
x,-y,-z
-x,y,-z
-x,-y,-z
x,y,-z
-x,y,z
x,-y,z
1/2+x,1/2+y,1/2+z
1/2-x,1/2-y,1/2+z
1/2+x,1/2-y,1/2-z
1/2-x,1/2+y,1/2-z
1/2-x,1/2-y,1/2-z
1/2+x,1/2+y,1/2-z
1/2-x,1/2+y,1/2+z
1/2+x,1/2-y,1/2+z
loop_
_atom_site_type_symbol
_atom_site_label
_atom_site_fract_x
_atom_site_fract_y
_atom_site_fract_z
Si Si1 0.355066 0.214576 0.697215
Si Si2 0.439438 0.500000 0.552578
Si Si3 0.712422 0.213848 0.948183
Si Si4 0.754472 0.709090 0.149327
Si Si5 0.403182 0.785381 0.947928
Si Si6 0.445964 0.707350 0.148633
Si Si7 0.653415 0.708506 0.804991
Si Si8 0.441101 0.211278 0.627725
O O1 0.306693 0.280006 0.668627
O O2 0.350334 0.276132 0.749912
O O3 0.405676 0.265404 0.670403
O O4 0.355011 0.000000 0.698275
O O5 0.500000 0.500000 0.549571
O O6 0.419720 0.500000 0.500000
O O7 0.426195 0.327178 0.582943
O O8 0.746359 0.271121 0.905520
O O9 0.654694 0.270391 0.939924
O O10 0.712077 0.000000 0.948604
O O11 0.726995 0.273767 0.000000
O O12 0.755794 0.500000 0.160061
O O13 0.705154 0.784790 0.174814
O O14 0.436961 0.718211 0.906413
O O15 0.404254 0.000000 0.946814
O O16 0.417499 0.730059 0.000000
O O17 0.500000 0.785873 0.160665
O O18 0.447581 0.500000 0.161950
O O19 0.396692 0.787197 0.172300
O O20 0.654078 0.500000 0.817865
O O21 0.500000 0.243570 0.637252
O O22 0.434983 0.000000 0.619408
#
# Coordination Sequence:
#
# PCOD9522206 Si02
#       8
#    16   8  16  16  16  16  16  16
#     4  10  22  37  56  82 110 141 182 228 276 328
#     4   9  18  34  60  92 120 152 194 230 272 338
#     4   9  18  33  54  80 108 141 181 221 267 323
#     4  10  20  36  56  80 109 140 180 226 272 327
#     4   9  18  33  53  76 103 138 180 224 271 324
#     4  10  21  36  52  75 107 138 176 226 273 322
#     4  10  21  36  54  77 105 142 183 225 278 333
#     4   9  19  37  59  85 119 154 189 232 281 336
#
# _framework density 20.669775000000001
#
# number of rings (size 3 to 8) (size 9 to 14) (size 15 to 20)
#    0.000    2.467    1.333    1.200    0.933    3.467 
#    0.000    4.667    0.000    2.400    0.000    0.000 
#    0.000    0.000    0.000    0.000    0.000    0.000 
#
# Total GULP energy -334860.261899 kJ/mol
# GULP energy per Si atom -5581.004365 kJ/mol
# Density = 2.062273 g / cm^3
# Si number density = 20.669775 Si / 1000 Ang^3
#
#
#
# Elastic Constant Matrix: (Units=GPa)
#
#
# Indices 1 2 3 4 5 6 
#
# 1 120.8008 17.0568 64.3774 0.0000 0.0000 0.0000
# 2 17.0568 52.2590 -2.3522 0.0000 0.0000 0.0000
# 3 64.3774 -2.3522 113.3709 0.0000 0.0000 0.0000
# 4 0.0000 0.0000 0.0000 -5.3723 0.0000 0.0000
# 5 0.0000 0.0000 0.0000 0.0000 0.5926 0.0000
# 6 0.0000 0.0000 0.0000 0.0000 0.0000 2.3016
#
#
#
# Elastic Compliance Matrix: (Units=1/GPa)
#
#
# Indices 1 2 3 4 5 6 
#
# 1 0.012859 -0.004530 -0.007396 0.000000 0.000000 0.000000
# 2 -0.004530 0.020749 0.003003 0.000000 0.000000 0.000000
# 3 -0.007396 0.003003 0.013083 0.000000 0.000000 0.000000
# 4 0.000000 0.000000 0.000000 -0.186141 0.000000 0.000000
# 5 0.000000 0.000000 0.000000 0.000000 1.687381 0.000000
# 6 0.000000 0.000000 0.000000 0.000000 0.000000 0.434474
#
#
# Mechanical properties :
#
#
# Convention : Reuss Voigt Hill
#
# Bulk Modulus (GPa) = 34.66843 49.39941 42.03392
# Shear Modulus (GPa) = 2.48773 13.32765 7.90769
#
# Velocity S-wave (km/s) = 1.09826 2.54202 1.95807
# Velocity P-wave (km/s) = 4.29152 5.70676 5.04897
#
# Compressibility (1/GPa) = 0.02884469
#
# Stress axis : x y z
#
# Youngs Moduli (GPa) = 77.76503 48.19467 76.43657
#
# Poissons Ratio (x) = 0.21832 0.56533
# Poissons Ratio (y) = 0.35228 -0.22953
# Poissons Ratio (z) = 0.57516 -0.14472
#
# Static dielectric constant tensor:
#      x y z
#    x 1.752620 0.000000 0.000000 
#    y 0.000000 1.766800 0.000000 
#    z 0.000000 0.000000 1.702480 
# 
# From -- ./inp_files/67194.got.cif
#   From: 2010.05.17/outbox.cif.g08.bks.cpg/sg71_34_cif.got.tgz:67194.got - 2010.06.03 16:22:01.
