data_PCOD9522104
_publ_section_title
;
Structure prediction by ZEFSAII (Michael W. Deem and Ramdas Pophale) SiO2 
 PCOD9522104
Probable space group: I M M M
;
_chemical_formula_sum "Si O2"
_cell_formula_units_Z 104
_cell_length_a 14.285198
_cell_length_b 17.641677
_cell_length_c 21.725239
_cell_angle_alpha 90.000000
_cell_angle_beta 90.000000
_cell_angle_gamma 90.000000
_cell_volume 5475.082826
_symmetry_space_group_name_H-M "I M M M"
_symmetry_group_IT_number 71
_symmetry_cell_setting 'orthorhombic'
loop_
_space_group_symop_operation_xyz
x,y,z
-x,-y,z
x,-y,-z
-x,y,-z
-x,-y,-z
x,y,-z
-x,y,z
x,-y,z
1/2+x,1/2+y,1/2+z
1/2-x,1/2-y,1/2+z
1/2+x,1/2-y,1/2-z
1/2-x,1/2+y,1/2-z
1/2-x,1/2-y,1/2-z
1/2+x,1/2+y,1/2-z
1/2-x,1/2+y,1/2+z
1/2+x,1/2-y,1/2+z
loop_
_atom_site_type_symbol
_atom_site_label
_atom_site_fract_x
_atom_site_fract_y
_atom_site_fract_z
Si Si1 0.107657 0.166105 0.426478
Si Si2 0.281447 0.836802 0.749802
Si Si3 0.106495 0.407737 0.000000
Si Si4 0.894999 0.908748 0.810841
Si Si5 0.213787 0.410070 0.877015
Si Si6 0.211444 0.908766 0.068116
Si Si7 0.391298 0.163291 0.125374
O O1 0.126291 0.170516 0.500000
O O2 0.179313 0.110210 0.393531
O O3 0.117899 0.249280 0.396220
O O4 0.000000 0.142273 0.418699
O O5 0.250000 0.750000 0.750000
O O6 0.186834 0.883020 0.765474
O O7 0.315832 0.865245 0.683878
O O8 0.356430 0.846653 0.804432
O O9 0.157254 0.384376 0.937424
O O10 0.108862 0.500000 0.000000
O O11 0.000000 0.382606 0.000000
O O12 0.858991 0.882755 0.878282
O O13 0.000000 0.881005 0.797042
O O14 0.897564 0.000000 0.810993
O O15 0.201894 0.500000 0.868001
O O16 0.316116 0.883078 0.085486
O O17 0.208641 0.000000 0.068099
O O18 0.186575 0.881263 0.000000
O O19 0.500000 0.141446 0.117715
#
# Coordination Sequence:
#
# PCOD9522104 Si02
#       7
#    16  16   8  16  16  16  16
#     4  10  20  35  58  87 118 152 190 232 289 353
#     4  11  22  37  58  82 113 153 191 238 281 342
#     4   9  20  40  63  85 111 145 187 236 290 344
#     4   9  19  36  57  83 116 152 190 234 285 337
#     4  11  22  38  61  86 114 150 191 239 294 344
#     4   9  18  33  55  83 114 151 195 240 283 332
#     4  10  21  37  56  81 116 156 192 235 289 343
#
# _framework density 18.995146999999999
#
# number of rings (size 3 to 8) (size 9 to 14) (size 15 to 20)
#    0.000    2.077    2.308    0.923    0.000    4.308 
#    0.000    3.077    0.000    0.000    0.000    0.000 
#    0.000    0.000    0.000    0.000    0.000    0.000 
#
# Total GULP energy -290162.385194 kJ/mol
# GULP energy per Si atom -5580.045869 kJ/mol
# Density = 1.895191 g / cm^3
# Si number density = 18.995147 Si / 1000 Ang^3
#
#
#
# Elastic Constant Matrix: (Units=GPa)
#
#
# Indices 1 2 3 4 5 6 
#
# 1 42.6378 2.2802 -9.3066 0.0000 0.0000 0.0000
# 2 2.2802 24.0875 16.6495 0.0000 0.0000 0.0000
# 3 -9.3066 16.6495 99.2490 0.0000 0.0000 0.0000
# 4 0.0000 0.0000 0.0000 25.4040 0.0000 0.0000
# 5 0.0000 0.0000 0.0000 0.0000 11.2279 0.0000
# 6 0.0000 0.0000 0.0000 0.0000 0.0000 18.0483
#
#
#
# Elastic Compliance Matrix: (Units=1/GPa)
#
#
# Indices 1 2 3 4 5 6 
#
# 1 0.024347 -0.004392 0.003020 0.000000 0.000000 0.000000
# 2 -0.004392 0.047753 -0.008423 0.000000 0.000000 0.000000
# 3 0.003020 -0.008423 0.011772 0.000000 0.000000 0.000000
# 4 0.000000 0.000000 0.000000 0.039364 0.000000 0.000000
# 5 0.000000 0.000000 0.000000 0.000000 0.089064 0.000000
# 6 0.000000 0.000000 0.000000 0.000000 0.000000 0.055407
#
#
# Mechanical properties :
#
#
# Convention : Reuss Voigt Hill
#
# Bulk Modulus (GPa) = 15.55641 20.58006 18.06824
# Shear Modulus (GPa) = 16.19570 21.35946 18.77758
#
# Velocity S-wave (km/s) = 2.92314 3.35695 3.14753
# Velocity P-wave (km/s) = 4.42724 5.08757 4.76885
#
# Compressibility (1/GPa) = 0.06428218
#
# Stress axis : x y z
#
# Youngs Moduli (GPa) = 41.07215 20.94113 84.94893
#
# Poissons Ratio (x) = 0.09198 -0.25653
# Poissons Ratio (y) = 0.18040 0.71549
# Poissons Ratio (z) = -0.12403 0.17638
#
# Static dielectric constant tensor:
#      x y z
#    x 1.647940 0.000000 0.000000 
#    y 0.000000 1.667100 0.000000 
#    z 0.000000 0.000000 1.682640 
# 
# From -- ./inp_files/53205.got.cif
#   From: 2010.05.17/outbox.cif.g08.bks.cpg/sg71_27_cif.got.tgz:53205.got - 2010.06.03 16:22:01.
