data_PCOD9522965
_publ_section_title
;
Structure prediction by ZEFSAII (Michael W. Deem and Ramdas Pophale) SiO2 
 PCOD9522965
Probable space group: I M M M
;
_chemical_formula_sum "Si O2"
_cell_formula_units_Z 120
_cell_length_a 22.315785
_cell_length_b 23.054549
_cell_length_c 13.664590
_cell_angle_alpha 90.000000
_cell_angle_beta 90.000000
_cell_angle_gamma 90.000000
_cell_volume 7030.163165
_symmetry_space_group_name_H-M "I M M M"
_symmetry_group_IT_number 71
_symmetry_cell_setting 'orthorhombic'
loop_
_space_group_symop_operation_xyz
x,y,z
-x,-y,z
x,-y,-z
-x,y,-z
-x,-y,-z
x,y,-z
-x,y,z
x,-y,z
1/2+x,1/2+y,1/2+z
1/2-x,1/2-y,1/2+z
1/2+x,1/2-y,1/2-z
1/2-x,1/2+y,1/2-z
1/2-x,1/2-y,1/2-z
1/2+x,1/2+y,1/2-z
1/2-x,1/2+y,1/2+z
1/2+x,1/2-y,1/2+z
loop_
_atom_site_type_symbol
_atom_site_label
_atom_site_fract_x
_atom_site_fract_y
_atom_site_fract_z
Si Si1 0.186343 0.242786 0.617310
Si Si2 0.932598 0.857136 0.118753
Si Si3 0.381585 0.117777 0.715709
Si Si4 0.069141 0.316069 0.384155
Si Si5 0.927894 0.732296 0.110706
Si Si6 0.751005 0.343232 0.257994
Si Si7 0.323045 0.567435 0.616351
Si Si8 0.072123 0.500000 0.116507
O O1 0.195540 0.237913 0.500000
O O2 0.117565 0.264511 0.633531
O O3 0.226551 0.293660 0.666105
O O4 0.208232 0.186239 0.676685
O O5 0.907035 0.794529 0.151966
O O6 0.889694 0.910118 0.140391
O O7 0.000000 0.864963 0.155318
O O8 0.935584 0.852311 0.000000
O O9 0.406304 0.127985 0.825691
O O10 0.410102 0.174063 0.663747
O O11 0.310774 0.128842 0.712045
O O12 0.401981 0.058055 0.666977
O O13 0.069702 0.326738 0.500000
O O14 0.000000 0.302854 0.355080
O O15 0.000000 0.736479 0.108314
O O16 0.905109 0.727657 0.000000
O O17 0.719401 0.392539 0.320356
O O18 0.313465 0.576814 0.500000
O O19 0.315429 0.500000 0.636717
O O20 0.000000 0.500000 0.127187
O O21 0.085390 0.500000 0.000000
#
# Coordination Sequence:
#
# PCOD9522965 Si02
#       8
#    16  16  16  16  16  16  16   8
#     4   9  19  35  54  80 107 136 171 217 272 317
#     4   8  16  30  50  79 109 134 166 209 260 319
#     4  11  22  35  54  75 105 144 177 218 270 314
#     4   9  18  34  55  78 105 136 175 220 264 310
#     4   9  17  30  50  79 110 135 164 206 261 327
#     4  10  22  35  53  77 108 139 180 219 258 317
#     4  10  21  36  55  75 104 147 184 220 263 309
#     4  11  24  40  57  81 109 137 177 222 268 328
#
# _framework density 17.069305
#
# number of rings (size 3 to 8) (size 9 to 14) (size 15 to 20)
#    0.000    2.467    0.000    2.800    6.533    2.933 
#    0.000    1.667    0.000    1.200    0.000    0.000 
#    0.000    0.000    0.000    4.533    0.000    0.133 
#
# Total GULP energy -334389.506685 kJ/mol
# GULP energy per Si atom -5573.158445 kJ/mol
# Density = 1.703045 g / cm^3
# Si number density = 17.069305 Si / 1000 Ang^3
#
#
#
# Elastic Constant Matrix: (Units=GPa)
#
#
# Indices 1 2 3 4 5 6 
#
# 1 91.7538 60.8360 43.9700 0.0000 0.0000 0.0000
# 2 60.8360 127.4210 59.4345 0.0000 0.0000 0.0000
# 3 43.9700 59.4345 80.4207 0.0000 0.0000 0.0000
# 4 0.0000 0.0000 0.0000 29.4488 0.0000 0.0000
# 5 0.0000 0.0000 0.0000 0.0000 24.5298 0.0000
# 6 0.0000 0.0000 0.0000 0.0000 0.0000 43.7267
#
#
#
# Elastic Compliance Matrix: (Units=1/GPa)
#
#
# Indices 1 2 3 4 5 6 
#
# 1 0.017213 -0.005843 -0.005094 0.000000 0.000000 0.000000
# 2 -0.005843 0.013960 -0.007122 0.000000 0.000000 0.000000
# 3 -0.005094 -0.007122 0.020483 0.000000 0.000000 0.000000
# 4 0.000000 0.000000 0.000000 0.033957 0.000000 0.000000
# 5 0.000000 0.000000 0.000000 0.000000 0.040767 0.000000
# 6 0.000000 0.000000 0.000000 0.000000 0.000000 0.022869
#
#
# Mechanical properties :
#
#
# Convention : Reuss Voigt Hill
#
# Bulk Modulus (GPa) = 64.35256 69.78628 67.06942
# Shear Modulus (GPa) = 26.24031 28.56472 27.40252
#
# Velocity S-wave (km/s) = 3.92507 4.09523 4.01105
# Velocity P-wave (km/s) = 7.63703 7.95827 7.79930
#
# Compressibility (1/GPa) = 0.01553940
#
# Stress axis : x y z
#
# Youngs Moduli (GPa) = 58.09400 71.63491 48.82038
#
# Poissons Ratio (x) = 0.41853 0.24867
# Poissons Ratio (y) = 0.33942 0.34772
# Poissons Ratio (z) = 0.29590 0.51021
#
# Static dielectric constant tensor:
#      x y z
#    x 1.603520 0.000000 0.000000 
#    y 0.000000 1.552190 0.000000 
#    z 0.000000 0.000000 1.606800 
# 
# From -- ./inp_files/38422.got.cif
#   From: 2010.05.17/outbox.cif.g08.bks.cpg/sg71_20_cif.got.tgz:38422.got - 2010.06.03 16:22:01.
