data_PCOD9522081
_publ_section_title
;
Structure prediction by ZEFSAII (Michael W. Deem and Ramdas Pophale) SiO2 
 PCOD9522081
Probable space group: I M M M
;
_chemical_formula_sum "Si O2"
_cell_formula_units_Z 104
_cell_length_a 9.209389
_cell_length_b 24.464359
_cell_length_c 25.910168
_cell_angle_alpha 90.000000
_cell_angle_beta 90.000000
_cell_angle_gamma 90.000000
_cell_volume 5837.607454
_symmetry_space_group_name_H-M "I M M M"
_symmetry_group_IT_number 71
_symmetry_cell_setting 'orthorhombic'
loop_
_space_group_symop_operation_xyz
x,y,z
-x,-y,z
x,-y,-z
-x,y,-z
-x,-y,-z
x,y,-z
-x,y,z
x,-y,z
1/2+x,1/2+y,1/2+z
1/2-x,1/2-y,1/2+z
1/2+x,1/2-y,1/2-z
1/2-x,1/2+y,1/2-z
1/2-x,1/2-y,1/2-z
1/2+x,1/2+y,1/2-z
1/2-x,1/2+y,1/2+z
1/2+x,1/2-y,1/2+z
loop_
_atom_site_type_symbol
_atom_site_label
_atom_site_fract_x
_atom_site_fract_y
_atom_site_fract_z
Si Si1 0.824544 0.564488 0.770037
Si Si2 0.838028 0.102280 0.557586
Si Si3 0.842299 0.500000 0.937129
Si Si4 0.327490 0.262840 0.696338
Si Si5 0.832312 0.159248 0.338380
Si Si6 0.824761 0.110927 0.831521
Si Si7 0.323987 0.435886 0.557442
O O1 0.795038 0.500000 0.782713
O O2 0.745603 0.609530 0.807046
O O3 0.760438 0.577722 0.712872
O O4 0.000000 0.572200 0.771326
O O5 0.795414 0.120163 0.500000
O O6 0.839261 0.146506 0.601243
O O7 0.000000 0.078808 0.554083
O O8 0.737022 0.054489 0.577216
O O9 0.000000 0.500000 0.914443
O O10 0.846340 0.500000 0.000000
O O11 0.500000 0.256532 0.700354
O O12 0.250000 0.250000 0.750000
O O13 0.258368 0.214642 0.663396
O O14 0.298250 0.324629 0.678252
O O15 0.000000 0.164570 0.318828
O O16 0.779578 0.094327 0.889805
O O17 0.000000 0.101317 0.826325
O O18 0.274698 0.416636 0.500000
O O19 0.500000 0.432905 0.556678
O O20 0.285241 0.500000 0.561847
#
# Coordination Sequence:
#
# PCOD9522081 Si02
#       7
#    16  16   8  16  16  16  16
#     4  11  24  38  54  81 115 147 178 225 285 337
#     4   9  19  36  55  75 102 138 181 225 270 326
#     4   9  17  29  49  77 105 135 171 213 266 323
#     4  11  22  37  57  81 110 147 189 235 280 327
#     4  11  23  38  58  81 106 144 188 231 279 331
#     4  10  20  35  58  84 110 145 189 230 273 331
#     4   8  14  27  51  84 118 148 180 223 274 327
#
# _framework density 17.815518000000001
#
# number of rings (size 3 to 8) (size 9 to 14) (size 15 to 20)
#    0.000    2.077    1.538    2.538    1.077    4.615 
#    0.000    0.769    0.000    1.385    0.000    2.154 
#    0.000    0.000    0.000    0.000    0.000    0.000 
#
# Total GULP energy -289627.291752 kJ/mol
# GULP energy per Si atom -5569.755611 kJ/mol
# Density = 1.777497 g / cm^3
# Si number density = 17.815518 Si / 1000 Ang^3
#
#
#
# Elastic Constant Matrix: (Units=GPa)
#
#
# Indices 1 2 3 4 5 6 
#
# 1 69.8977 44.8405 23.7949 0.0000 0.0000 0.0000
# 2 44.8405 84.4175 29.8088 0.0000 0.0000 0.0000
# 3 23.7949 29.8088 97.2395 0.0000 0.0000 0.0000
# 4 0.0000 0.0000 0.0000 23.6716 0.0000 0.0000
# 5 0.0000 0.0000 0.0000 0.0000 15.3621 0.0000
# 6 0.0000 0.0000 0.0000 0.0000 0.0000 27.5483
#
#
#
# Elastic Compliance Matrix: (Units=1/GPa)
#
#
# Indices 1 2 3 4 5 6 
#
# 1 0.022051 -0.010998 -0.002025 0.000000 0.000000 0.000000
# 2 -0.010998 0.018769 -0.003062 0.000000 0.000000 0.000000
# 3 -0.002025 -0.003062 0.011718 0.000000 0.000000 0.000000
# 4 0.000000 0.000000 0.000000 0.042245 0.000000 0.000000
# 5 0.000000 0.000000 0.000000 0.000000 0.065095 0.000000
# 6 0.000000 0.000000 0.000000 0.000000 0.000000 0.036300
#
#
# Mechanical properties :
#
#
# Convention : Reuss Voigt Hill
#
# Bulk Modulus (GPa) = 49.09588 49.82703 49.46146
# Shear Modulus (GPa) = 21.26406 23.52377 22.39391
#
# Velocity S-wave (km/s) = 3.45856 3.63769 3.54925
# Velocity P-wave (km/s) = 6.60050 6.75816 6.67979
#
# Compressibility (1/GPa) = 0.02036831
#
# Stress axis : x y z
#
# Youngs Moduli (GPa) = 45.34862 53.27861 85.33818
#
# Poissons Ratio (x) = 0.58597 0.17277
# Poissons Ratio (y) = 0.49876 0.26134
# Poissons Ratio (z) = 0.09181 0.16316
#
# Static dielectric constant tensor:
#      x y z
#    x 1.639590 0.000000 0.000000 
#    y 0.000000 1.484540 0.000000 
#    z 0.000000 0.000000 -0.252470 
# 
# From -- ./inp_files/63559.got.cif
#   From: 2010.05.17/outbox.cif.g08.bks.cpg/sg71_32_cif.got.tgz:63559.got - 2010.06.03 16:22:01.
