data_PCOD9522305
_publ_section_title
;
Structure prediction by ZEFSAII (Michael W. Deem and Ramdas Pophale) SiO2 
 PCOD9522305
Probable space group: I M M M
;
_chemical_formula_sum "Si O2"
_cell_formula_units_Z 88
_cell_length_a 11.649684
_cell_length_b 22.666705
_cell_length_c 18.194456
_cell_angle_alpha 90.000000
_cell_angle_beta 90.000000
_cell_angle_gamma 90.000000
_cell_volume 4804.427152
_symmetry_space_group_name_H-M "I M M M"
_symmetry_group_IT_number 71
_symmetry_cell_setting 'orthorhombic'
loop_
_space_group_symop_operation_xyz
x,y,z
-x,-y,z
x,-y,-z
-x,y,-z
-x,-y,-z
x,y,-z
-x,y,z
x,-y,z
1/2+x,1/2+y,1/2+z
1/2-x,1/2-y,1/2+z
1/2+x,1/2-y,1/2-z
1/2-x,1/2+y,1/2-z
1/2-x,1/2-y,1/2-z
1/2+x,1/2+y,1/2-z
1/2-x,1/2+y,1/2+z
1/2+x,1/2-y,1/2+z
loop_
_atom_site_type_symbol
_atom_site_label
_atom_site_fract_x
_atom_site_fract_y
_atom_site_fract_z
Si Si1 0.131973 0.833361 0.500000
Si Si2 0.872730 0.296689 0.234661
Si Si3 0.702537 0.688361 0.350345
Si Si4 0.279740 0.609642 0.854643
Si Si5 0.133622 0.500000 0.088137
Si Si6 0.862500 0.749206 0.000000
Si Si7 0.133622 0.935058 0.797581
O O1 0.146287 0.869875 0.424354
O O2 0.253997 0.796456 0.500000
O O3 0.000000 0.807731 0.500000
O O4 0.829918 0.299715 0.318715
O O5 0.867147 0.229058 0.207862
O O6 0.790655 0.335658 0.181809
O O7 0.000000 0.319916 0.226771
O O8 0.661649 0.712253 0.427854
O O9 0.684912 0.619094 0.342586
O O10 0.193445 0.558772 0.881429
O O11 0.351059 0.582041 0.787715
O O12 0.000000 0.500000 0.107766
O O13 0.144256 0.500000 0.000000
O O14 0.000000 0.729604 0.000000
O O15 0.000000 0.937082 0.815071
O O16 0.184582 0.000000 0.810511
#
# Coordination Sequence:
#
# PCOD9522305 Si02
#       7
#     8  16  16  16   8   8  16
#     4  12  26  39  57  93 130 165 207 258 304 367
#     4  10  20  37  60  86 117 156 202 252 305 356
#     4  10  22  37  59  89 118 154 200 250 302 360
#     4  11  21  38  55  83 117 165 203 249 301 363
#     4  11  22  34  52  80 118 161 214 255 291 350
#     4  12  24  42  64  91 124 166 202 248 312 375
#     4  10  20  36  59  83 114 154 195 244 299 362
#
# _framework density 18.316438999999999
#
# number of rings (size 3 to 8) (size 9 to 14) (size 15 to 20)
#    0.000    1.364    3.636    2.727    0.000    1.455 
#    0.000    0.909    0.000    1.636    0.000    0.000 
#    0.000    4.000    0.000    0.000    0.000    0.000 
#
# Total GULP energy -245101.662773 kJ/mol
# GULP energy per Si atom -5570.492336 kJ/mol
# Density = 1.827475 g / cm^3
# Si number density = 18.316439 Si / 1000 Ang^3
#
#
#
# Elastic Constant Matrix: (Units=GPa)
#
#
# Indices 1 2 3 4 5 6 
#
# 1 76.1810 31.3244 28.9891 0.0000 0.0000 0.0000
# 2 31.3244 110.3535 20.2744 0.0000 0.0000 0.0000
# 3 28.9891 20.2744 60.7572 0.0000 0.0000 0.0000
# 4 0.0000 0.0000 0.0000 23.1961 0.0000 0.0000
# 5 0.0000 0.0000 0.0000 0.0000 14.7276 0.0000
# 6 0.0000 0.0000 0.0000 0.0000 0.0000 7.3338
#
#
#
# Elastic Compliance Matrix: (Units=1/GPa)
#
#
# Indices 1 2 3 4 5 6 
#
# 1 0.017294 -0.003615 -0.007045 0.000000 0.000000 0.000000
# 2 -0.003615 0.010409 -0.001749 0.000000 0.000000 0.000000
# 3 -0.007045 -0.001749 0.020404 0.000000 0.000000 0.000000
# 4 0.000000 0.000000 0.000000 0.043111 0.000000 0.000000
# 5 0.000000 0.000000 0.000000 0.000000 0.067900 0.000000
# 6 0.000000 0.000000 0.000000 0.000000 0.000000 0.136355
#
#
# Mechanical properties :
#
#
# Convention : Reuss Voigt Hill
#
# Bulk Modulus (GPa) = 42.93755 45.38528 44.16142
# Shear Modulus (GPa) = 15.24142 20.16508 17.70325
#
# Velocity S-wave (km/s) = 2.88777 3.32162 3.11227
# Velocity P-wave (km/s) = 5.88319 6.28833 6.08913
#
# Compressibility (1/GPa) = 0.02328964
#
# Stress axis : x y z
#
# Youngs Moduli (GPa) = 57.82421 96.06972 49.00988
#
# Poissons Ratio (x) = 0.34725 0.34529
# Poissons Ratio (y) = 0.20901 0.08571
# Poissons Ratio (z) = 0.40739 0.16801
#
# Static dielectric constant tensor:
#      x y z
#    x 1.666720 0.000000 0.000000 
#    y 0.000000 1.670080 0.000000 
#    z 0.000000 0.000000 1.632650 
# 
# From -- ./inp_files/43393.got.cif
#   From: 2010.05.17/outbox.cif.g08.bks.cpg/sg71_22_cif.got.tgz:43393.got - 2010.06.03 16:22:01.
