data_PCOD9522313
_publ_section_title
;
Structure prediction by ZEFSAII (Michael W. Deem and Ramdas Pophale) SiO2 
 PCOD9522313
Probable space group: I M M M
;
_chemical_formula_sum "Si O2"
_cell_formula_units_Z 104
_cell_length_a 28.597491
_cell_length_b 8.312068
_cell_length_c 22.524557
_cell_angle_alpha 90.000000
_cell_angle_beta 90.000000
_cell_angle_gamma 90.000000
_cell_volume 5354.183825
_symmetry_space_group_name_H-M "I M M M"
_symmetry_group_IT_number 71
_symmetry_cell_setting 'orthorhombic'
loop_
_space_group_symop_operation_xyz
x,y,z
-x,-y,z
x,-y,-z
-x,y,-z
-x,-y,-z
x,y,-z
-x,y,z
x,-y,z
1/2+x,1/2+y,1/2+z
1/2-x,1/2-y,1/2+z
1/2+x,1/2-y,1/2-z
1/2-x,1/2+y,1/2-z
1/2-x,1/2-y,1/2-z
1/2+x,1/2+y,1/2-z
1/2-x,1/2+y,1/2+z
1/2+x,1/2-y,1/2+z
loop_
_atom_site_type_symbol
_atom_site_label
_atom_site_fract_x
_atom_site_fract_y
_atom_site_fract_z
Si Si1 0.000000 0.186512 0.071837
Si Si2 0.360619 0.196585 0.201171
Si Si3 0.329538 0.194385 0.669158
Si Si4 0.705225 0.692449 0.000000
Si Si5 0.399162 0.806826 0.432246
Si Si6 0.769649 0.307817 0.372043
Si Si7 0.903167 0.193080 0.500000
Si Si8 0.052932 0.305482 0.623519
O O1 0.048780 0.265424 0.090419
O O2 0.000000 0.000000 0.088122
O O3 0.000000 0.199664 0.000000
O O4 0.351051 0.249418 0.268336
O O5 0.317212 0.248880 0.160010
O O6 0.409194 0.250408 0.171990
O O7 0.360864 0.000000 0.201091
O O8 0.360280 0.253354 0.613465
O O9 0.276147 0.245623 0.661201
O O10 0.331081 0.000000 0.668889
O O11 0.729485 0.751719 0.059928
O O12 0.651007 0.748867 0.000000
O O13 0.705443 0.500000 0.000000
O O14 0.393509 0.745097 0.500000
O O15 0.395590 0.000000 0.434986
O O16 0.769511 0.500000 0.370437
O O17 0.928754 0.254155 0.441075
O O18 0.903354 0.000000 0.500000
O O19 0.052409 0.500000 0.625043
O O20 0.000000 0.248207 0.633484
#
# Coordination Sequence:
#
# PCOD9522313 Si02
#       8
#     8  16  16   8  16  16   8  16
#     4   9  17  31  53  77 103 137 175 220 271 326
#     4   9  19  37  57  81 113 150 192 234 279 333
#     4  10  21  37  57  83 115 150 189 233 280 337
#     4  11  23  38  58  85 114 151 193 236 291 348
#     4   9  18  33  53  78 108 142 180 225 274 327
#     4  11  22  37  59  84 113 148 187 235 287 339
#     4  11  22  36  57  86 118 150 189 239 293 348
#     4  10  20  36  59  84 114 153 196 241 288 342
#
# _framework density 19.424061999999999
#
# number of rings (size 3 to 8) (size 9 to 14) (size 15 to 20)
#    0.000    2.077    1.538    1.846    1.077    3.385 
#    1.385    1.538    0.000    0.000    0.000    0.000 
#    0.000    0.000    0.000    0.000    0.000    0.000 
#
# Total GULP energy -290342.324705 kJ/mol
# GULP energy per Si atom -5583.506244 kJ/mol
# Density = 1.937985 g / cm^3
# Si number density = 19.424062 Si / 1000 Ang^3
#
#
#
# Elastic Constant Matrix: (Units=GPa)
#
#
# Indices 1 2 3 4 5 6 
#
# 1 138.7750 9.4515 79.4400 0.0000 0.0000 0.0000
# 2 9.4515 6.6083 10.6375 0.0000 0.0000 0.0000
# 3 79.4400 10.6375 128.8064 0.0000 0.0000 0.0000
# 4 0.0000 0.0000 0.0000 8.2812 0.0000 0.0000
# 5 0.0000 0.0000 0.0000 0.0000 8.5275 0.0000
# 6 0.0000 0.0000 0.0000 0.0000 0.0000 22.4058
#
#
#
# Elastic Compliance Matrix: (Units=1/GPa)
#
#
# Indices 1 2 3 4 5 6 
#
# 1 0.011322 -0.005713 -0.006511 0.000000 0.000000 0.000000
# 2 -0.005713 0.177408 -0.011128 0.000000 0.000000 0.000000
# 3 -0.006511 -0.011128 0.012698 0.000000 0.000000 0.000000
# 4 0.000000 0.000000 0.000000 0.120756 0.000000 0.000000
# 5 0.000000 0.000000 0.000000 0.000000 0.117268 0.000000
# 6 0.000000 0.000000 0.000000 0.000000 0.000000 0.044631
#
#
# Mechanical properties :
#
#
# Convention : Reuss Voigt Hill
#
# Bulk Modulus (GPa) = 6.46309 52.58307 29.52308
# Shear Modulus (GPa) = 8.58574 19.48694 14.03634
#
# Velocity S-wave (km/s) = 2.10470 3.17083 2.69109
# Velocity P-wave (km/s) = 3.03989 6.36674 4.98880
#
# Compressibility (1/GPa) = 0.15472465
#
# Stress axis : x y z
#
# Youngs Moduli (GPa) = 88.32254 5.63674 78.75119
#
# Poissons Ratio (x) = 0.03220 0.51275
# Poissons Ratio (y) = 0.50455 0.87635
# Poissons Ratio (z) = 0.57507 0.06273
#
# Static dielectric constant tensor:
#      x y z
#    x 1.674280 0.000000 0.000000 
#    y 0.000000 1.669300 0.000000 
#    z 0.000000 0.000000 1.625390 
# 
# From -- ./inp_files/56328.got.cif
#   From: 2010.05.17/outbox.cif.g08.bks.cpg/sg71_29_cif.got.tgz:56328.got - 2010.06.03 16:22:01.
