data_PCOD9522459
_publ_section_title
;
Structure prediction by ZEFSAII (Michael W. Deem and Ramdas Pophale) SiO2 
 PCOD9522459
Probable space group: I M M M
;
_chemical_formula_sum "Si O2"
_cell_formula_units_Z 90
_cell_length_a 20.753669
_cell_length_b 11.564180
_cell_length_c 19.835780
_cell_angle_alpha 90.000000
_cell_angle_beta 90.000000
_cell_angle_gamma 90.000000
_cell_volume 4760.570617
_symmetry_space_group_name_H-M "I M M M"
_symmetry_group_IT_number 71
_symmetry_cell_setting 'orthorhombic'
loop_
_space_group_symop_operation_xyz
x,y,z
-x,-y,z
x,-y,-z
-x,y,-z
-x,-y,-z
x,y,-z
-x,y,z
x,-y,z
1/2+x,1/2+y,1/2+z
1/2-x,1/2-y,1/2+z
1/2+x,1/2-y,1/2-z
1/2-x,1/2+y,1/2-z
1/2-x,1/2-y,1/2-z
1/2+x,1/2+y,1/2-z
1/2-x,1/2+y,1/2+z
1/2+x,1/2-y,1/2+z
loop_
_atom_site_type_symbol
_atom_site_label
_atom_site_fract_x
_atom_site_fract_y
_atom_site_fract_z
Si Si1 0.373964 0.138275 0.575734
Si Si2 0.362921 0.361606 0.185333
Si Si3 0.181496 0.500000 0.576956
Si Si4 0.000000 0.000000 0.500000
Si Si5 0.926479 0.724955 0.212723
Si Si6 0.000000 0.127408 0.637044
Si Si7 0.268182 0.254330 0.076531
Si Si8 0.573547 0.000000 0.807409
O O1 0.399661 0.157687 0.500000
O O2 0.416121 0.188523 0.635887
O O3 0.304219 0.198946 0.579916
O O4 0.366302 0.000000 0.584574
O O5 0.358635 0.500000 0.184054
O O6 0.371440 0.312473 0.260562
O O7 0.431617 0.319517 0.154330
O O8 0.308626 0.311785 0.136694
O O9 0.155209 0.500000 0.500000
O O10 0.223356 0.383403 0.583852
O O11 0.125520 0.500000 0.632953
O O12 0.000000 0.098064 0.558899
O O13 0.919083 0.610821 0.258890
O O14 0.000000 0.769916 0.220740
O O15 0.000000 0.000000 0.672460
O O16 0.292340 0.284830 0.000000
O O17 0.500000 0.000000 0.833763
#
# Coordination Sequence:
#
# PCOD9522459 Si02
#       8
#    16  16   8   2  16   8  16   8
#     4  10  22  42  64  90 116 144 193 251 307 362
#     4  11  21  35  56  85 120 157 199 237 288 343
#     4  10  20  39  58  84 121 165 207 235 279 355
#     4   8  16  32  48  72 116 162 198 244 274 312
#     4  11  22  39  62  87 118 156 190 245 302 355
#     4   8  18  30  48  77 113 155 194 235 271 328
#     4  10  22  38  60  85 120 160 196 245 294 350
#     4  10  20  37  59  83 117 157 197 241 295 348
#
# _framework density 18.905297000000001
#
# number of rings (size 3 to 8) (size 9 to 14) (size 15 to 20)
#    0.267    1.600    3.556    0.533    1.244    2.311 
#    1.600    0.889    0.000    0.000    0.000    1.244 
#    0.000    0.000    0.000    0.000    0.000    0.000 
#
# Total GULP energy -250544.652895 kJ/mol
# GULP energy per Si atom -5567.658953 kJ/mol
# Density = 1.886227 g / cm^3
# Si number density = 18.905297 Si / 1000 Ang^3
#
#
#
# Elastic Constant Matrix: (Units=GPa)
#
#
# Indices 1 2 3 4 5 6 
#
# 1 30.8078 11.5096 25.1780 0.0000 0.0000 0.0000
# 2 11.5096 87.7616 42.8169 0.0000 0.0000 0.0000
# 3 25.1780 42.8169 112.9352 0.0000 0.0000 0.0000
# 4 0.0000 0.0000 0.0000 26.8150 0.0000 0.0000
# 5 0.0000 0.0000 0.0000 0.0000 29.9028 0.0000
# 6 0.0000 0.0000 0.0000 0.0000 0.0000 18.2852
#
#
#
# Elastic Compliance Matrix: (Units=1/GPa)
#
#
# Indices 1 2 3 4 5 6 
#
# 1 0.039776 -0.001092 -0.008454 0.000000 0.000000 0.000000
# 2 -0.001092 0.014010 -0.005068 0.000000 0.000000 0.000000
# 3 -0.008454 -0.005068 0.012661 0.000000 0.000000 0.000000
# 4 0.000000 0.000000 0.000000 0.037293 0.000000 0.000000
# 5 0.000000 0.000000 0.000000 0.000000 0.033442 0.000000
# 6 0.000000 0.000000 0.000000 0.000000 0.000000 0.054689
#
#
# Mechanical properties :
#
#
# Convention : Reuss Voigt Hill
#
# Bulk Modulus (GPa) = 26.86778 43.39040 35.12909
# Shear Modulus (GPa) = 21.41275 25.13392 23.27334
#
# Velocity S-wave (km/s) = 3.36911 3.65014 3.51244
# Velocity P-wave (km/s) = 5.42007 6.38482 5.92212
#
# Compressibility (1/GPa) = 0.03721930
#
# Stress axis : x y z
#
# Youngs Moduli (GPa) = 25.14058 71.37547 78.98360
#
# Poissons Ratio (x) = 0.07795 0.66771
# Poissons Ratio (y) = 0.02746 0.40031
# Poissons Ratio (z) = 0.21253 0.36175
#
# Static dielectric constant tensor:
#      x y z
#    x 1.647920 0.000000 0.000000 
#    y 0.000000 1.687660 0.000000 
#    z 0.000000 0.000000 1.688670 
# 
# From -- ./inp_files/47173.got.cif
#   From: 2010.05.17/outbox.cif.g08.bks.cpg/sg71_24_cif.got.tgz:47173.got - 2010.06.03 16:22:01.
