data_PCOD9522778
_publ_section_title
;
Structure prediction by ZEFSAII (Michael W. Deem and Ramdas Pophale) SiO2 
 PCOD9522778
Probable space group: I M M M
;
_chemical_formula_sum "Si O2"
_cell_formula_units_Z 64
_cell_length_a 18.685845
_cell_length_b 7.504572
_cell_length_c 21.140252
_cell_angle_alpha 90.000000
_cell_angle_beta 90.000000
_cell_angle_gamma 90.000000
_cell_volume 2964.482088
_symmetry_space_group_name_H-M "I M M M"
_symmetry_group_IT_number 71
_symmetry_cell_setting 'orthorhombic'
loop_
_space_group_symop_operation_xyz
x,y,z
-x,-y,z
x,-y,-z
-x,y,-z
-x,-y,-z
x,y,-z
-x,y,z
x,-y,z
1/2+x,1/2+y,1/2+z
1/2-x,1/2-y,1/2+z
1/2+x,1/2-y,1/2-z
1/2-x,1/2+y,1/2-z
1/2-x,1/2-y,1/2-z
1/2+x,1/2+y,1/2-z
1/2-x,1/2+y,1/2+z
1/2+x,1/2-y,1/2+z
loop_
_atom_site_type_symbol
_atom_site_label
_atom_site_fract_x
_atom_site_fract_y
_atom_site_fract_z
Si Si1 0.158826 0.281615 0.073492
Si Si2 0.772872 0.214103 0.321109
Si Si3 0.913825 0.299760 0.500000
Si Si4 0.579735 0.295387 0.861056
Si Si5 0.500000 0.795573 0.576662
O O1 0.156956 0.500000 0.073453
O O2 0.217964 0.222936 0.124422
O O3 0.078336 0.219920 0.092851
O O4 0.173108 0.229690 0.000000
O O5 0.750000 0.250000 0.250000
O O6 0.852981 0.289992 0.327477
O O7 0.776869 0.000000 0.330043
O O8 0.884725 0.500000 0.500000
O O9 0.897034 0.205665 0.434734
O O10 0.000000 0.309605 0.500000
O O11 0.500000 0.215459 0.855512
O O12 0.573565 0.500000 0.840316
O O13 0.500000 0.799689 0.500000
O O14 0.500000 0.000000 0.599888
#
# Coordination Sequence:
#
# PCOD9522778 Si02
#       5
#    16  16   8  16   8
#     4   8  14  26  47  72  95 122 158 200 245 293
#     4  10  21  35  51  72 102 134 169 212 251 295
#     4   9  17  29  49  79 107 128 159 212 264 296
#     4   9  18  33  52  72  98 137 177 206 244 307
#     4   7  10  20  40  68  97 117 144 195 250 292
#
# _framework density 21.588930000000001
#
# number of rings (size 3 to 8) (size 9 to 14) (size 15 to 20)
#    0.000    3.250    0.000    1.875    1.750    2.500 
#    2.250    0.000    0.000    0.000    0.000    0.000 
#    0.000    3.000    0.000    0.000    0.000    0.000 
#
# Total GULP energy -178208.576597 kJ/mol
# GULP energy per Si atom -5569.018019 kJ/mol
# Density = 2.153979 g / cm^3
# Si number density = 21.588930 Si / 1000 Ang^3
#
#
#
# Elastic Constant Matrix: (Units=GPa)
#
#
# Indices 1 2 3 4 5 6 
#
# 1 205.6351 11.8993 105.1298 0.0000 0.0000 0.0000
# 2 11.8993 62.6892 -4.3382 0.0000 0.0000 0.0000
# 3 105.1298 -4.3382 111.8284 0.0000 0.0000 0.0000
# 4 0.0000 0.0000 0.0000 16.8662 0.0000 0.0000
# 5 0.0000 0.0000 0.0000 0.0000 32.9423 0.0000
# 6 0.0000 0.0000 0.0000 0.0000 0.0000 -7.9362
#
#
#
# Elastic Compliance Matrix: (Units=1/GPa)
#
#
# Indices 1 2 3 4 5 6 
#
# 1 0.009735 -0.002488 -0.009249 0.000000 0.000000 0.000000
# 2 -0.002488 0.016630 0.002984 0.000000 0.000000 0.000000
# 3 -0.009249 0.002984 0.017753 0.000000 0.000000 0.000000
# 4 0.000000 0.000000 0.000000 0.059290 0.000000 0.000000
# 5 0.000000 0.000000 0.000000 0.000000 0.030356 0.000000
# 6 0.000000 0.000000 0.000000 0.000000 0.000000 -0.126005
#
#
# Mechanical properties :
#
#
# Convention : Reuss Voigt Hill
#
# Bulk Modulus (GPa) = 37.57508 67.28159 52.42833
# Shear Modulus (GPa) = 146.47305 26.20524 86.33915
#
# Velocity S-wave (km/s) = 8.24583 3.48778 6.33081
# Velocity P-wave (km/s) = 10.39715 6.88854 8.81909
#
# Compressibility (1/GPa) = 0.02661339
#
# Stress axis : x y z
#
# Youngs Moduli (GPa) = 102.71944 60.13066 56.32956
#
# Poissons Ratio (x) = 0.14960 0.52097
# Poissons Ratio (y) = 0.25556 -0.16809
# Poissons Ratio (z) = 0.95001 -0.17943
#
# Static dielectric constant tensor:
#      x y z
#    x 1.851940 0.000000 0.000000 
#    y 0.000000 1.826070 0.000000 
#    z 0.000000 0.000000 1.731710 
# 
# From -- ./inp_files/53691.got.cif
#   From: 2010.05.17/outbox.cif.g08.bks.cpg/sg71_27_cif.got.tgz:53691.got - 2010.06.03 16:22:01.
