data_PCOD9522524
_publ_section_title
;
Structure prediction by ZEFSAII (Michael W. Deem and Ramdas Pophale) SiO2 
 PCOD9522524
Probable space group: I M M M
;
_chemical_formula_sum "Si O2"
_cell_formula_units_Z 72
_cell_length_a 7.531439
_cell_length_b 19.255284
_cell_length_c 26.493382
_cell_angle_alpha 90.000000
_cell_angle_beta 90.000000
_cell_angle_gamma 90.000000
_cell_volume 3842.070175
_symmetry_space_group_name_H-M "I M M M"
_symmetry_group_IT_number 71
_symmetry_cell_setting 'orthorhombic'
loop_
_space_group_symop_operation_xyz
x,y,z
-x,-y,z
x,-y,-z
-x,y,-z
-x,-y,-z
x,y,-z
-x,y,z
x,-y,z
1/2+x,1/2+y,1/2+z
1/2-x,1/2-y,1/2+z
1/2+x,1/2-y,1/2-z
1/2-x,1/2+y,1/2-z
1/2-x,1/2-y,1/2-z
1/2+x,1/2+y,1/2-z
1/2-x,1/2+y,1/2+z
1/2+x,1/2-y,1/2+z
loop_
_atom_site_type_symbol
_atom_site_label
_atom_site_fract_x
_atom_site_fract_y
_atom_site_fract_z
Si Si1 0.714152 0.701820 0.057671
Si Si2 0.785384 0.654019 0.604048
Si Si3 0.500000 0.584460 0.325331
Si Si4 0.703545 0.080357 0.630290
Si Si5 0.500000 0.416051 0.791343
Si Si6 0.284981 0.078297 0.000000
O O1 0.500000 0.702879 0.055750
O O2 0.764245 0.765763 0.093989
O O3 0.772237 0.629926 0.082437
O O4 0.777201 0.711116 0.000000
O O5 0.672177 0.616686 0.647077
O O6 0.736914 0.616959 0.551177
O O7 0.000000 0.648632 0.611580
O O8 0.500000 0.500000 0.329448
O O9 0.500000 0.605819 0.266553
O O10 0.500000 0.082379 0.646637
O O11 0.830582 0.104973 0.675395
O O12 0.748945 0.000000 0.618160
O O13 0.500000 0.500000 0.789610
O O14 0.500000 0.076658 0.000000
O O15 0.218029 0.000000 0.000000
#
# Coordination Sequence:
#
# PCOD9522524 Si02
#       6
#    16  16   8  16   8   8
#     4  10  20  37  62  88 122 163 193 235 297 357
#     4  10  21  38  57  84 122 159 194 240 296 352
#     4  11  24  39  62  90 115 153 206 254 295 345
#     4  10  21  38  63  89 116 155 198 241 298 359
#     4   9  20  42  62  84 118 151 197 256 300 342
#     4   9  16  31  55  79 111 153 192 233 284 344
#
# _framework density 18.739896999999999
#
# number of rings (size 3 to 8) (size 9 to 14) (size 15 to 20)
#    0.000    2.111    2.222    0.667    1.556    3.556 
#    0.000    6.667    0.000    0.000    0.000    0.000 
#    0.000    0.000    0.000    0.000    0.000    0.000 
#
# Total GULP energy -200889.087009 kJ/mol
# GULP energy per Si atom -5580.252417 kJ/mol
# Density = 1.869724 g / cm^3
# Si number density = 18.739897 Si / 1000 Ang^3
#
#
#
# Elastic Constant Matrix: (Units=GPa)
#
#
# Indices 1 2 3 4 5 6 
#
# 1 81.1902 31.8325 39.9822 0.0000 0.0000 0.0000
# 2 31.8325 103.8858 44.0327 0.0000 0.0000 0.0000
# 3 39.9822 44.0327 100.4602 0.0000 0.0000 0.0000
# 4 0.0000 0.0000 0.0000 -47.6989 0.0000 0.0000
# 5 0.0000 0.0000 0.0000 0.0000 -784.1220 0.0000
# 6 0.0000 0.0000 0.0000 0.0000 0.0000 19.8106
#
#
#
# Elastic Compliance Matrix: (Units=1/GPa)
#
#
# Indices 1 2 3 4 5 6 
#
# 1 0.015909 -0.002691 -0.005152 0.000000 0.000000 0.000000
# 2 -0.002691 0.012278 -0.004310 0.000000 0.000000 0.000000
# 3 -0.005152 -0.004310 0.013894 0.000000 0.000000 0.000000
# 4 0.000000 0.000000 0.000000 -0.020965 0.000000 0.000000
# 5 0.000000 0.000000 0.000000 0.000000 -0.001275 0.000000
# 6 0.000000 0.000000 0.000000 0.000000 0.000000 0.050478
#
#
# Mechanical properties :
#
#
# Convention : Reuss Voigt Hill
#
# Bulk Modulus (GPa) = 56.26368 57.47009 56.86689
# Shear Modulus (GPa) = 49.72655 -151.08948 -50.68146
#
# Velocity S-wave (km/s) = 5.15681 -8.98886 -5.20609
# Velocity P-wave (km/s) = 8.09603 8.77490 2.39304
#
# Compressibility (1/GPa) = 0.01777346
#
# Stress axis : x y z
#
# Youngs Moduli (GPa) = 62.85747 81.44980 71.97379
#
# Poissons Ratio (x) = 0.21918 0.37082
# Poissons Ratio (y) = 0.16915 0.31023
# Poissons Ratio (z) = 0.32385 0.35108
#
# Static dielectric constant tensor:
#      x y z
#    x 1.681830 0.000000 0.000000 
#    y 0.000000 1.661970 0.000000 
#    z 0.000000 0.000000 1.605850 
# 
# From -- ./inp_files/50243.got.cif
#   From: 2010.05.17/outbox.cif.g08.bks.cpg/sg71_26_cif.got.tgz:50243.got - 2010.06.03 16:22:01.
