data_PCOD9522067
_publ_section_title
;
Structure prediction by ZEFSAII (Michael W. Deem and Ramdas Pophale) SiO2 
 PCOD9522067
Probable space group: I M M M
;
_chemical_formula_sum "Si O2"
_cell_formula_units_Z 120
_cell_length_a 33.129956
_cell_length_b 14.137521
_cell_length_c 14.282292
_cell_angle_alpha 90.000000
_cell_angle_beta 90.000000
_cell_angle_gamma 90.000000
_cell_volume 6689.474924
_symmetry_space_group_name_H-M "I M M M"
_symmetry_group_IT_number 71
_symmetry_cell_setting 'orthorhombic'
loop_
_space_group_symop_operation_xyz
x,y,z
-x,-y,z
x,-y,-z
-x,y,-z
-x,-y,-z
x,y,-z
-x,y,z
x,-y,z
1/2+x,1/2+y,1/2+z
1/2-x,1/2-y,1/2+z
1/2+x,1/2-y,1/2-z
1/2-x,1/2+y,1/2-z
1/2-x,1/2-y,1/2-z
1/2+x,1/2+y,1/2-z
1/2-x,1/2+y,1/2+z
1/2+x,1/2-y,1/2+z
loop_
_atom_site_type_symbol
_atom_site_label
_atom_site_fract_x
_atom_site_fract_y
_atom_site_fract_z
Si Si1 0.322540 0.891838 0.391831
Si Si2 0.672218 0.609692 0.744086
Si Si3 0.169038 0.727335 0.609316
Si Si4 0.117076 0.216827 0.110413
Si Si5 0.048763 0.500000 0.895399
Si Si6 0.412257 0.112034 0.890437
Si Si7 0.266444 0.110137 0.214541
Si Si8 0.047486 0.691873 0.214275
O O1 0.308824 0.883239 0.500000
O O2 0.356531 0.813034 0.376109
O O3 0.287055 0.877459 0.316675
O O4 0.337714 0.000000 0.379114
O O5 0.668625 0.500000 0.770167
O O6 0.661207 0.680835 0.827738
O O7 0.644101 0.635472 0.656466
O O8 0.718987 0.628631 0.718910
O O9 0.170903 0.750298 0.500000
O O10 0.132742 0.652556 0.624614
O O11 0.209807 0.677647 0.644430
O O12 0.075839 0.229722 0.167768
O O13 0.110112 0.204884 0.000000
O O14 0.058562 0.404764 0.840999
O O15 0.000000 0.500000 0.902364
O O16 0.066184 0.500000 0.000000
O O17 0.441107 0.169430 0.821157
O O18 0.413931 0.000000 0.870029
O O19 0.422298 0.124852 0.000000
O O20 0.272383 0.000000 0.187995
O O21 0.000000 0.709985 0.203560
#
# Coordination Sequence:
#
# PCOD9522067 Si02
#       8
#    16  16  16  16   8  16  16  16
#     4   9  18  32  54  84 117 153 189 226 273 332
#     4  11  24  41  59  82 113 150 194 244 293 333
#     4  11  22  37  59  85 116 154 195 235 277 330
#     4  11  23  38  58  82 112 150 190 234 285 341
#     4   9  18  30  47  79 117 149 180 214 265 337
#     4  10  20  35  57  87 122 158 193 227 273 337
#     4  10  20  36  58  85 118 151 187 230 277 338
#     4  11  21  35  56  82 115 153 187 229 282 341
#
# _framework density 17.938628000000001
#
# number of rings (size 3 to 8) (size 9 to 14) (size 15 to 20)
#    0.000    1.667    3.333    1.200    0.933    4.533 
#    0.000    3.333    0.000    0.400    0.000    0.933 
#    0.000    2.133    0.000    0.000    0.000    0.000 
#
# Total GULP energy -335153.508327 kJ/mol
# GULP energy per Si atom -5585.891805 kJ/mol
# Density = 1.789780 g / cm^3
# Si number density = 17.938628 Si / 1000 Ang^3
#
#
#
# Elastic Constant Matrix: (Units=GPa)
#
#
# Indices 1 2 3 4 5 6 
#
# 1 89.3303 23.2918 41.8441 0.0000 0.0000 0.0000
# 2 23.2918 41.0804 26.4104 0.0000 0.0000 0.0000
# 3 41.8441 26.4104 90.3774 0.0000 0.0000 0.0000
# 4 0.0000 0.0000 0.0000 18.4709 0.0000 0.0000
# 5 0.0000 0.0000 0.0000 0.0000 14.8819 0.0000
# 6 0.0000 0.0000 0.0000 0.0000 0.0000 23.4041
#
#
#
# Elastic Compliance Matrix: (Units=1/GPa)
#
#
# Indices 1 2 3 4 5 6 
#
# 1 0.015086 -0.005003 -0.005523 0.000000 0.000000 0.000000
# 2 -0.005003 0.031633 -0.006928 0.000000 0.000000 0.000000
# 3 -0.005523 -0.006928 0.015646 0.000000 0.000000 0.000000
# 4 0.000000 0.000000 0.000000 0.054139 0.000000 0.000000
# 5 0.000000 0.000000 0.000000 0.000000 0.067196 0.000000
# 6 0.000000 0.000000 0.000000 0.000000 0.000000 0.042728
#
#
# Mechanical properties :
#
#
# Convention : Reuss Voigt Hill
#
# Bulk Modulus (GPa) = 36.41864 44.87563 40.64713
# Shear Modulus (GPa) = 18.48522 19.96747 19.22635
#
# Velocity S-wave (km/s) = 3.21358 3.33993 3.27736
# Velocity P-wave (km/s) = 5.84083 6.32013 6.08520
#
# Compressibility (1/GPa) = 0.02745847
#
# Stress axis : x y z
#
# Youngs Moduli (GPa) = 66.28760 31.61279 63.91378
#
# Poissons Ratio (x) = 0.15815 0.35297
# Poissons Ratio (y) = 0.33163 0.44277
# Poissons Ratio (z) = 0.36608 0.21900
#
# Static dielectric constant tensor:
#      x y z
#    x 1.605280 0.000000 0.000000 
#    y 0.000000 1.608020 0.000000 
#    z 0.000000 0.000000 1.619660 
# 
# From -- ./inp_files/41138.got.cif
#   From: 2010.05.17/outbox.cif.g08.bks.cpg/sg71_21_cif.got.tgz:41138.got - 2010.06.03 16:22:01.
