data_PCOD9522598
_publ_section_title
;
Structure prediction by ZEFSAII (Michael W. Deem and Ramdas Pophale) SiO2 
 PCOD9522598
Probable space group: I M M M
;
_chemical_formula_sum "Si O2"
_cell_formula_units_Z 64
_cell_length_a 16.891301
_cell_length_b 22.615502
_cell_length_c 8.955417
_cell_angle_alpha 90.000000
_cell_angle_beta 90.000000
_cell_angle_gamma 90.000000
_cell_volume 3421.016324
_symmetry_space_group_name_H-M "I M M M"
_symmetry_group_IT_number 71
_symmetry_cell_setting 'orthorhombic'
loop_
_space_group_symop_operation_xyz
x,y,z
-x,-y,z
x,-y,-z
-x,y,-z
-x,-y,-z
x,y,-z
-x,y,z
x,-y,z
1/2+x,1/2+y,1/2+z
1/2-x,1/2-y,1/2+z
1/2+x,1/2-y,1/2-z
1/2-x,1/2+y,1/2-z
1/2-x,1/2-y,1/2-z
1/2+x,1/2+y,1/2-z
1/2-x,1/2+y,1/2+z
1/2+x,1/2-y,1/2+z
loop_
_atom_site_type_symbol
_atom_site_label
_atom_site_fract_x
_atom_site_fract_y
_atom_site_fract_z
Si Si1 0.906720 0.000000 0.678847
Si Si2 0.094210 0.228150 0.321919
Si Si3 0.644308 0.859913 0.179443
Si Si4 0.825461 0.885616 0.178573
Si Si5 0.500000 0.931002 0.321265
O O1 0.865822 0.941889 0.745413
O O2 0.899305 0.000000 0.500000
O O3 0.000000 0.000000 0.716158
O O4 0.105977 0.219414 0.500000
O O5 0.132165 0.291086 0.279586
O O6 0.132418 0.173910 0.234904
O O7 0.000000 0.231154 0.295226
O O8 0.732439 0.881166 0.216715
O O9 0.577179 0.898710 0.256702
O O10 0.633761 0.863697 0.000000
O O11 0.832461 0.890290 0.000000
O O12 0.500000 0.926736 0.500000
O O13 0.500000 0.000000 0.278843
#
# Coordination Sequence:
#
# PCOD9522598 Si02
#       5
#     8  16  16  16   8
#     4  11  25  45  65  86 119 166 209 247 306 369
#     4  10  20  38  63  89 122 164 205 245 300 367
#     4  10  22  42  64  89 123 165 205 245 304 371
#     4  11  24  39  62  94 124 157 203 257 308 358
#     4  11  25  41  61  93 127 160 205 256 305 355
#
# _framework density 18.707891
#
# number of rings (size 3 to 8) (size 9 to 14) (size 15 to 20)
#    0.000    1.500    1.250    3.000    1.750    8.500 
#    0.000    0.000    0.000    0.000    0.000    0.000 
#    0.000    0.000    0.000    0.000    0.000    0.000 
#
# Total GULP energy -178948.614820 kJ/mol
# GULP energy per Si atom -5592.144213 kJ/mol
# Density = 1.866531 g / cm^3
# Si number density = 18.707891 Si / 1000 Ang^3
#
#
#
# Elastic Constant Matrix: (Units=GPa)
#
#
# Indices 1 2 3 4 5 6 
#
# 1 174.1969 119.9896 80.7487 0.0000 0.0000 0.0000
# 2 119.9896 200.9353 74.4402 0.0000 0.0000 0.0000
# 3 80.7487 74.4402 51.4447 0.0000 0.0000 0.0000
# 4 0.0000 0.0000 0.0000 -56.2517 0.0000 0.0000
# 5 0.0000 0.0000 0.0000 0.0000 29.2097 0.0000
# 6 0.0000 0.0000 0.0000 0.0000 0.0000 6.8622
#
#
#
# Elastic Compliance Matrix: (Units=1/GPa)
#
#
# Indices 1 2 3 4 5 6 
#
# 1 0.021121 -0.000713 -0.032121 0.000000 0.000000 0.000000
# 2 -0.000713 0.010751 -0.014438 0.000000 0.000000 0.000000
# 3 -0.032121 -0.014438 0.090747 0.000000 0.000000 0.000000
# 4 0.000000 0.000000 0.000000 -0.017777 0.000000 0.000000
# 5 0.000000 0.000000 0.000000 0.000000 0.034235 0.000000
# 6 0.000000 0.000000 0.000000 0.000000 0.000000 0.145726
#
#
# Mechanical properties :
#
#
# Convention : Reuss Voigt Hill
#
# Bulk Modulus (GPa) = 35.61684 108.54820 72.08252
# Shear Modulus (GPa) = 12.86321 6.05726 9.46024
#
# Velocity S-wave (km/s) = 2.62502 1.80134 2.25118
# Velocity P-wave (km/s) = 5.31671 7.90412 6.73582
#
# Compressibility (1/GPa) = 0.02807660
#
# Stress axis : x y z
#
# Youngs Moduli (GPa) = 47.34581 93.01217 11.01962
#
# Poissons Ratio (x) = 0.06631 0.35396
# Poissons Ratio (y) = 0.03376 0.15910
# Poissons Ratio (z) = 1.52078 1.34291
#
# Static dielectric constant tensor:
#      x y z
#    x 1.619890 0.000000 0.000000 
#    y 0.000000 1.610860 0.000000 
#    z 0.000000 0.000000 1.623870 
# 
# From -- ./inp_files/5521.got.cif
#   From: 2010.05.17/outbox.cif.g08.bks.cpg/sg71_3_cif.got.tgz:5521.got - 2010.06.03 16:22:01.
