data_PCOD9522980
_publ_section_title
;
Structure prediction by ZEFSAII (Michael W. Deem and Ramdas Pophale) SiO2 
 PCOD9522980
Probable space group: I M M M
;
_chemical_formula_sum "Si O2"
_cell_formula_units_Z 90
_cell_length_a 17.637253
_cell_length_b 13.175731
_cell_length_c 21.173689
_cell_angle_alpha 90.000000
_cell_angle_beta 90.000000
_cell_angle_gamma 90.000000
_cell_volume 4920.420216
_symmetry_space_group_name_H-M "I M M M"
_symmetry_group_IT_number 71
_symmetry_cell_setting 'orthorhombic'
loop_
_space_group_symop_operation_xyz
x,y,z
-x,-y,z
x,-y,-z
-x,y,-z
-x,-y,-z
x,y,-z
-x,y,z
x,-y,z
1/2+x,1/2+y,1/2+z
1/2-x,1/2-y,1/2+z
1/2+x,1/2-y,1/2-z
1/2-x,1/2+y,1/2-z
1/2-x,1/2-y,1/2-z
1/2+x,1/2+y,1/2-z
1/2-x,1/2+y,1/2+z
1/2+x,1/2-y,1/2+z
loop_
_atom_site_type_symbol
_atom_site_label
_atom_site_fract_x
_atom_site_fract_y
_atom_site_fract_z
Si Si1 0.196445 0.885786 0.182714
Si Si2 0.335606 0.113588 0.424257
Si Si3 0.305438 0.256080 0.881342
Si Si4 0.842087 0.386696 0.500000
Si Si5 0.000000 0.500000 0.500000
Si Si6 0.087164 0.819626 0.925244
Si Si7 0.912418 0.880261 0.301210
O O1 0.265195 0.808921 0.173606
O O2 0.145471 0.877592 0.119351
O O3 0.140773 0.862280 0.240593
O O4 0.224931 0.000000 0.190462
O O5 0.331344 0.108438 0.500000
O O6 0.256052 0.158490 0.400201
O O7 0.397724 0.200319 0.410492
O O8 0.350706 0.000000 0.400109
O O9 0.319453 0.179381 0.939147
O O10 0.380390 0.310696 0.856869
O O11 0.804998 0.500000 0.500000
O O12 0.931579 0.413190 0.500000
O O13 0.000000 0.847059 0.913038
O O14 0.102467 0.834938 0.000000
O O15 0.000000 0.858960 0.286701
O O16 0.906117 0.000000 0.317138
#
# Coordination Sequence:
#
# PCOD9522980 Si02
#       7
#    16  16  16   8   2  16  16
#     4  10  21  36  55  80 112 146 187 236 282 330
#     4   9  17  30  48  74 106 139 175 225 278 321
#     4  11  20  36  58  83 109 148 186 231 277 339
#     4  10  22  38  59  86 117 146 183 229 285 341
#     4   8  24  40  56  84 126 148 174 236 290 344
#     4   9  18  31  49  76 108 146 189 231 281 339
#     4  10  22  38  57  81 110 148 189 231 281 335
#
# _framework density 18.291121
#
# number of rings (size 3 to 8) (size 9 to 14) (size 15 to 20)
#    0.267    1.956    0.889    2.133    2.489    1.778 
#    0.000    2.667    0.000    2.133    0.000    0.000 
#    0.000    0.000    0.000    0.000    0.000    0.000 
#
# Total GULP energy -250668.475056 kJ/mol
# GULP energy per Si atom -5570.410557 kJ/mol
# Density = 1.824949 g / cm^3
# Si number density = 18.291121 Si / 1000 Ang^3
#
#
#
# Elastic Constant Matrix: (Units=GPa)
#
#
# Indices 1 2 3 4 5 6 
#
# 1 58.1022 21.4657 13.6975 0.0000 0.0000 0.0000
# 2 21.4657 64.2949 33.4914 0.0000 0.0000 0.0000
# 3 13.6975 33.4914 46.5226 0.0000 0.0000 0.0000
# 4 0.0000 0.0000 0.0000 23.4353 0.0000 0.0000
# 5 0.0000 0.0000 0.0000 0.0000 20.1336 0.0000
# 6 0.0000 0.0000 0.0000 0.0000 0.0000 19.5351
#
#
#
# Elastic Compliance Matrix: (Units=1/GPa)
#
#
# Indices 1 2 3 4 5 6 
#
# 1 0.019717 -0.005694 -0.001706 0.000000 0.000000 0.000000
# 2 -0.005694 0.026530 -0.017422 0.000000 0.000000 0.000000
# 3 -0.001706 -0.017422 0.034539 0.000000 0.000000 0.000000
# 4 0.000000 0.000000 0.000000 0.042671 0.000000 0.000000
# 5 0.000000 0.000000 0.000000 0.000000 0.049668 0.000000
# 6 0.000000 0.000000 0.000000 0.000000 0.000000 0.051190
#
#
# Mechanical properties :
#
#
# Convention : Reuss Voigt Hill
#
# Bulk Modulus (GPa) = 32.11154 34.02544 33.06849
# Shear Modulus (GPa) = 17.58461 19.30512 18.44487
#
# Velocity S-wave (km/s) = 3.10397 3.25227 3.17899
# Velocity P-wave (km/s) = 5.51725 5.72238 5.62075
#
# Compressibility (1/GPa) = 0.03114146
#
# Stress axis : x y z
#
# Youngs Moduli (GPa) = 50.71786 37.69381 28.95257
#
# Poissons Ratio (x) = 0.21463 0.04939
# Poissons Ratio (y) = 0.28879 0.50441
# Poissons Ratio (z) = 0.08653 0.65670
#
# Static dielectric constant tensor:
#      x y z
#    x 1.604160 0.000000 0.000000 
#    y 0.000000 1.656200 0.000000 
#    z 0.000000 0.000000 1.626870 
# 
# From -- ./inp_files/53980.got.cif
#   From: 2010.05.17/outbox.cif.g08.bks.cpg/sg71_27_cif.got.tgz:53980.got - 2010.06.03 16:22:01.
