data_PCOD9522234
_publ_section_title
;
Structure prediction by ZEFSAII (Michael W. Deem and Ramdas Pophale) SiO2 
 PCOD9522234
Probable space group: I M M M
;
_chemical_formula_sum "Si O2"
_cell_formula_units_Z 104
_cell_length_a 8.866980
_cell_length_b 21.090259
_cell_length_c 30.714215
_cell_angle_alpha 90.000000
_cell_angle_beta 90.000000
_cell_angle_gamma 90.000000
_cell_volume 5743.770279
_symmetry_space_group_name_H-M "I M M M"
_symmetry_group_IT_number 71
_symmetry_cell_setting 'orthorhombic'
loop_
_space_group_symop_operation_xyz
x,y,z
-x,-y,z
x,-y,-z
-x,y,-z
-x,-y,-z
x,y,-z
-x,y,z
x,-y,z
1/2+x,1/2+y,1/2+z
1/2-x,1/2-y,1/2+z
1/2+x,1/2-y,1/2-z
1/2-x,1/2+y,1/2-z
1/2-x,1/2-y,1/2-z
1/2+x,1/2+y,1/2-z
1/2-x,1/2+y,1/2+z
1/2+x,1/2-y,1/2+z
loop_
_atom_site_type_symbol
_atom_site_label
_atom_site_fract_x
_atom_site_fract_y
_atom_site_fract_z
Si Si1 0.318111 0.280777 0.126654
Si Si2 0.672041 0.500000 0.947385
Si Si3 0.819614 0.635226 0.631388
Si Si4 0.317123 0.073189 0.221758
Si Si5 0.680833 0.865735 0.550979
Si Si6 0.681112 0.311501 0.774731
Si Si7 0.176032 0.923888 0.047746
O O1 0.500000 0.282299 0.121298
O O2 0.267108 0.207804 0.130884
O O3 0.245174 0.315575 0.085452
O O4 0.282415 0.310342 0.173827
O O5 0.500000 0.500000 0.931007
O O6 0.756549 0.435122 0.935789
O O7 0.666953 0.500000 0.000000
O O8 0.768729 0.595592 0.673387
O O9 0.768832 0.603316 0.587115
O O10 0.000000 0.636773 0.633738
O O11 0.500000 0.077149 0.224243
O O12 0.245674 0.124508 0.253845
O O13 0.274618 0.000000 0.229558
O O14 0.724980 0.853806 0.500000
O O15 0.500000 0.866100 0.552489
O O16 0.500000 0.308284 0.770315
O O17 0.750000 0.250000 0.750000
O O18 0.000000 0.906414 0.052269
O O19 0.183830 0.000000 0.048499
O O20 0.228604 0.902194 0.000000
#
# Coordination Sequence:
#
# PCOD9522234 Si02
#       7
#    16   8  16  16  16  16  16
#     4  10  22  39  58  82 113 151 192 231 280 342
#     4   9  17  33  59  85 111 149 191 231 283 341
#     4  10  20  36  57  81 110 146 190 234 279 335
#     4  10  21  39  62  88 119 152 190 240 294 345
#     4  10  21  37  58  86 118 150 190 238 286 341
#     4  11  22  40  64  87 117 155 196 240 288 347
#     4   9  19  35  52  74 109 148 185 230 282 332
#
# _framework density 18.106572
#
# number of rings (size 3 to 8) (size 9 to 14) (size 15 to 20)
#    0.000    2.077    1.538    2.077    0.000    6.462 
#    1.385    3.846    0.000    0.000    0.000    0.000 
#    0.000    0.000    0.000    0.000    0.000    0.000 
#
# Total GULP energy -290131.131653 kJ/mol
# GULP energy per Si atom -5579.444839 kJ/mol
# Density = 1.806536 g / cm^3
# Si number density = 18.106572 Si / 1000 Ang^3
#
#
#
# Elastic Constant Matrix: (Units=GPa)
#
#
# Indices 1 2 3 4 5 6 
#
# 1 32.1166 40.9807 34.6295 0.0000 0.0000 0.0000
# 2 40.9807 129.4526 67.8597 0.0000 0.0000 0.0000
# 3 34.6295 67.8597 114.0777 0.0000 0.0000 0.0000
# 4 0.0000 0.0000 0.0000 40.3677 0.0000 0.0000
# 5 0.0000 0.0000 0.0000 0.0000 33.4827 0.0000
# 6 0.0000 0.0000 0.0000 0.0000 0.0000 24.9922
#
#
#
# Elastic Compliance Matrix: (Units=1/GPa)
#
#
# Indices 1 2 3 4 5 6 
#
# 1 0.059026 -0.013504 -0.009885 0.000000 0.000000 0.000000
# 2 -0.013504 0.014315 -0.004416 0.000000 0.000000 0.000000
# 3 -0.009885 -0.004416 0.014393 0.000000 0.000000 0.000000
# 4 0.000000 0.000000 0.000000 0.024772 0.000000 0.000000
# 5 0.000000 0.000000 0.000000 0.000000 0.029866 0.000000
# 6 0.000000 0.000000 0.000000 0.000000 0.000000 0.040012
#
#
# Mechanical properties :
#
#
# Convention : Reuss Voigt Hill
#
# Bulk Modulus (GPa) = 31.12907 62.50965 46.81936
# Shear Modulus (GPa) = 20.10429 28.58033 24.34231
#
# Velocity S-wave (km/s) = 3.33578 3.97728 3.67057
# Velocity P-wave (km/s) = 5.66269 7.46256 6.62404
#
# Compressibility (1/GPa) = 0.03212432
#
# Stress axis : x y z
#
# Youngs Moduli (GPa) = 16.94163 69.85874 69.47613
#
# Poissons Ratio (x) = 0.94338 0.68678
# Poissons Ratio (y) = 0.22878 0.30679
# Poissons Ratio (z) = 0.16747 0.30848
#
# Static dielectric constant tensor:
#      x y z
#    x 1.615510 0.000000 0.000000 
#    y 0.000000 1.607780 0.000000 
#    z 0.000000 0.000000 1.612340 
# 
# From -- ./inp_files/16969.got.cif
#   From: 2010.05.17/outbox.cif.g08.bks.cpg/sg71_9_cif.got.tgz:16969.got - 2010.06.03 16:22:01.
