data_PCOD9522695
_publ_section_title
;
Structure prediction by ZEFSAII (Michael W. Deem and Ramdas Pophale) SiO2 
 PCOD9522695
Probable space group: I M M M
;
_chemical_formula_sum "Si O2"
_cell_formula_units_Z 80
_cell_length_a 19.943019
_cell_length_b 26.142933
_cell_length_c 8.111782
_cell_angle_alpha 90.000000
_cell_angle_beta 90.000000
_cell_angle_gamma 90.000000
_cell_volume 4229.231747
_symmetry_space_group_name_H-M "I M M M"
_symmetry_group_IT_number 71
_symmetry_cell_setting 'orthorhombic'
loop_
_space_group_symop_operation_xyz
x,y,z
-x,-y,z
x,-y,-z
-x,y,-z
-x,-y,-z
x,y,-z
-x,y,z
x,-y,z
1/2+x,1/2+y,1/2+z
1/2-x,1/2-y,1/2+z
1/2+x,1/2-y,1/2-z
1/2-x,1/2+y,1/2-z
1/2-x,1/2-y,1/2-z
1/2+x,1/2+y,1/2-z
1/2-x,1/2+y,1/2+z
1/2+x,1/2-y,1/2+z
loop_
_atom_site_type_symbol
_atom_site_label
_atom_site_fract_x
_atom_site_fract_y
_atom_site_fract_z
Si Si1 0.500000 0.940936 0.697323
Si Si2 0.384455 0.863840 0.812450
Si Si3 0.000000 0.820583 0.183558
Si Si4 0.000000 0.719034 0.676565
Si Si5 0.751030 0.690224 0.807491
Si Si6 0.130076 0.877960 0.805183
Si Si7 0.079963 0.060764 0.500000
O O1 0.500000 0.941103 0.500000
O O2 0.432334 0.910375 0.751364
O O3 0.500000 0.000000 0.756304
O O4 0.436172 0.816802 0.815939
O O5 0.320848 0.840846 0.716861
O O6 0.363236 0.875551 0.000000
O O7 0.069416 0.840582 0.250482
O O8 0.000000 0.760300 0.184220
O O9 0.000000 0.841519 0.000000
O O10 0.000000 0.747140 0.500000
O O11 0.750000 0.750000 0.750000
O O12 0.696273 0.656021 0.713982
O O13 0.734109 0.690841 0.000000
O O14 0.119498 0.921115 0.665505
O O15 0.125150 0.893768 0.000000
O O16 0.000000 0.077277 0.500000
O O17 0.078297 0.000000 0.500000
#
# Coordination Sequence:
#
# PCOD9522695 Si02
#       7
#     8  16   8   8  16  16   8
#     4  10  21  39  64  91 119 157 206 263 323 374
#     4  10  21  38  57  86 122 160 208 258 309 372
#     4  10  21  33  54  85 118 158 203 250 308 371
#     4   9  19  31  52  80 116 159 200 249 303 371
#     4  12  24  39  61  92 132 175 211 254 316 386
#     4  11  23  41  62  92 129 165 211 266 318 382
#     4  11  24  44  70  96 122 163 215 273 331 377
#
# _framework density 18.915966000000001
#
# number of rings (size 3 to 8) (size 9 to 14) (size 15 to 20)
#    0.000    1.400    2.000    4.500    1.400    6.800 
#    0.000    2.000    0.000    2.400    0.000    0.000 
#    0.000    0.000    0.000    0.000    0.000    0.000 
#
# Total GULP energy -222671.956930 kJ/mol
# GULP energy per Si atom -5566.798923 kJ/mol
# Density = 1.887291 g / cm^3
# Si number density = 18.915966 Si / 1000 Ang^3
#
#
#
# Elastic Constant Matrix: (Units=GPa)
#
#
# Indices 1 2 3 4 5 6 
#
# 1 101.1452 36.6808 14.1885 0.0000 0.0000 0.0000
# 2 36.6808 103.4519 40.0910 0.0000 0.0000 0.0000
# 3 14.1885 40.0910 113.8469 0.0000 0.0000 0.0000
# 4 0.0000 0.0000 0.0000 27.2927 0.0000 0.0000
# 5 0.0000 0.0000 0.0000 0.0000 15.0132 0.0000
# 6 0.0000 0.0000 0.0000 0.0000 0.0000 7.1364
#
#
#
# Elastic Compliance Matrix: (Units=1/GPa)
#
#
# Indices 1 2 3 4 5 6 
#
# 1 0.011346 -0.004024 0.000003 0.000000 0.000000 0.000000
# 2 -0.004024 0.012621 -0.003943 0.000000 0.000000 0.000000
# 3 0.000003 -0.003943 0.010172 0.000000 0.000000 0.000000
# 4 0.000000 0.000000 0.000000 0.036640 0.000000 0.000000
# 5 0.000000 0.000000 0.000000 0.000000 0.066608 0.000000
# 6 0.000000 0.000000 0.000000 0.000000 0.000000 0.140126
#
#
# Mechanical properties :
#
#
# Convention : Reuss Voigt Hill
#
# Bulk Modulus (GPa) = 54.91253 55.59606 55.25429
# Shear Modulus (GPa) = 16.69388 25.05405 20.87397
#
# Velocity S-wave (km/s) = 2.97396 3.64331 3.32552
# Velocity P-wave (km/s) = 6.39416 6.86681 6.63470
#
# Compressibility (1/GPa) = 0.01821078
#
# Stress axis : x y z
#
# Youngs Moduli (GPa) = 88.13932 79.23199 98.31027
#
# Poissons Ratio (x) = 0.31883 -0.00030
# Poissons Ratio (y) = 0.35467 0.38764
# Poissons Ratio (z) = -0.00027 0.31241
#
# Static dielectric constant tensor:
#      x y z
#    x 1.695710 0.000000 0.000000 
#    y 0.000000 1.638330 0.000000 
#    z 0.000000 0.000000 1.763880 
# 
# From -- ./inp_files/10352.got.cif
#   From: 2010.05.17/outbox.cif.g08.bks.cpg/sg71_6_cif.got.tgz:10352.got - 2010.06.03 16:22:01.
