data_PCOD9522523
_publ_section_title
;
Structure prediction by ZEFSAII (Michael W. Deem and Ramdas Pophale) SiO2 
 PCOD9522523
Probable space group: I M M M
;
_chemical_formula_sum "Si O2"
_cell_formula_units_Z 64
_cell_length_a 24.517073
_cell_length_b 8.641511
_cell_length_c 15.842738
_cell_angle_alpha 90.000000
_cell_angle_beta 90.000000
_cell_angle_gamma 90.000000
_cell_volume 3356.514652
_symmetry_space_group_name_H-M "I M M M"
_symmetry_group_IT_number 71
_symmetry_cell_setting 'orthorhombic'
loop_
_space_group_symop_operation_xyz
x,y,z
-x,-y,z
x,-y,-z
-x,y,-z
-x,-y,-z
x,y,-z
-x,y,z
x,-y,z
1/2+x,1/2+y,1/2+z
1/2-x,1/2-y,1/2+z
1/2+x,1/2-y,1/2-z
1/2-x,1/2+y,1/2-z
1/2-x,1/2-y,1/2-z
1/2+x,1/2+y,1/2-z
1/2-x,1/2+y,1/2+z
1/2+x,1/2-y,1/2+z
loop_
_atom_site_type_symbol
_atom_site_label
_atom_site_fract_x
_atom_site_fract_y
_atom_site_fract_z
Si Si1 0.222416 0.314135 0.334094
Si Si2 0.612022 0.685498 0.098019
Si Si3 0.000000 0.314519 0.130204
Si Si4 0.500000 0.814362 0.827760
Si Si5 0.414708 0.686188 0.500000
Si Si6 0.711027 0.688168 0.500000
O O1 0.222242 0.500000 0.331777
O O2 0.250000 0.250000 0.250000
O O3 0.161140 0.254145 0.347085
O O4 0.257170 0.262147 0.416020
O O5 0.612686 0.500000 0.103425
O O6 0.554034 0.747607 0.129125
O O7 0.620563 0.730434 0.000000
O O8 0.000000 0.500000 0.122157
O O9 0.000000 0.273275 0.228463
O O10 0.947640 0.248067 0.080986
O O11 0.500000 0.000000 0.834946
O O12 0.416865 0.500000 0.500000
O O13 0.351950 0.737327 0.500000
O O14 0.711106 0.500000 0.500000
#
# Coordination Sequence:
#
# PCOD9522523 Si02
#       6
#    16  16   8   8   8   8
#     4  11  23  42  65  94 129 168 211 259 313 376
#     4  11  24  43  65  92 124 161 207 260 312 370
#     4  10  22  40  57  87 123 156 198 252 303 358
#     4  11  25  41  63  92 123 162 205 253 314 375
#     4  10  20  37  62  88 117 161 203 242 301 364
#     4   9  21  40  63  91 125 162 205 252 308 373
#
# _framework density 19.067398000000001
#
# number of rings (size 3 to 8) (size 9 to 14) (size 15 to 20)
#    0.000    1.500    1.250    3.750    3.500    5.000 
#    0.000    3.750    0.000    0.000    0.000    0.000 
#    0.000    0.000    0.000    0.000    0.000    0.000 
#
# Total GULP energy -178930.918092 kJ/mol
# GULP energy per Si atom -5591.591190 kJ/mol
# Density = 1.902400 g / cm^3
# Si number density = 19.067398 Si / 1000 Ang^3
#
#
#
# Elastic Constant Matrix: (Units=GPa)
#
#
# Indices 1 2 3 4 5 6 
#
# 1 189.3921 39.8783 77.9249 0.0000 0.0000 0.0000
# 2 39.8783 58.5061 45.6586 0.0000 0.0000 0.0000
# 3 77.9249 45.6586 143.8476 0.0000 0.0000 0.0000
# 4 0.0000 0.0000 0.0000 33.3359 0.0000 0.0000
# 5 0.0000 0.0000 0.0000 0.0000 2.4720 0.0000
# 6 0.0000 0.0000 0.0000 0.0000 0.0000 23.0784
#
#
#
# Elastic Compliance Matrix: (Units=1/GPa)
#
#
# Indices 1 2 3 4 5 6 
#
# 1 0.007044 -0.002424 -0.003046 0.000000 0.000000 0.000000
# 2 -0.002424 0.023554 -0.006163 0.000000 0.000000 0.000000
# 3 -0.003046 -0.006163 0.010558 0.000000 0.000000 0.000000
# 4 0.000000 0.000000 0.000000 0.029998 0.000000 0.000000
# 5 0.000000 0.000000 0.000000 0.000000 0.404539 0.000000
# 6 0.000000 0.000000 0.000000 0.000000 0.000000 0.043331
#
#
# Mechanical properties :
#
#
# Convention : Reuss Voigt Hill
#
# Bulk Modulus (GPa) = 55.89892 79.85216 67.87554
# Shear Modulus (GPa) = 9.11987 26.99616 18.05801
#
# Velocity S-wave (km/s) = 2.18937 3.76683 3.08078
# Velocity P-wave (km/s) = 5.98091 7.80311 6.95197
#
# Compressibility (1/GPa) = 0.01788943
#
# Stress axis : x y z
#
# Youngs Moduli (GPa) = 141.96786 42.45528 94.71071
#
# Poissons Ratio (x) = 0.10290 0.28854
# Poissons Ratio (y) = 0.34408 0.58374
# Poissons Ratio (z) = 0.43250 0.26167
#
# Static dielectric constant tensor:
#      x y z
#    x 1.630390 0.000000 0.000000 
#    y 0.000000 1.643170 0.000000 
#    z 0.000000 0.000000 1.644420 
# 
# From -- ./inp_files/38807.got.cif
#   From: 2010.05.17/outbox.cif.g08.bks.cpg/sg71_20_cif.got.tgz:38807.got - 2010.06.03 16:22:01.
