data_PCOD9522136
_publ_section_title
;
Structure prediction by ZEFSAII (Michael W. Deem and Ramdas Pophale) SiO2 
 PCOD9522136
Probable space group: I M M M
;
_chemical_formula_sum "Si O2"
_cell_formula_units_Z 104
_cell_length_a 17.978940
_cell_length_b 12.707424
_cell_length_c 26.988968
_cell_angle_alpha 90.000000
_cell_angle_beta 90.000000
_cell_angle_gamma 90.000000
_cell_volume 6166.061932
_symmetry_space_group_name_H-M "I M M M"
_symmetry_group_IT_number 71
_symmetry_cell_setting 'orthorhombic'
loop_
_space_group_symop_operation_xyz
x,y,z
-x,-y,z
x,-y,-z
-x,y,-z
-x,-y,-z
x,y,-z
-x,y,z
x,-y,z
1/2+x,1/2+y,1/2+z
1/2-x,1/2-y,1/2+z
1/2+x,1/2-y,1/2-z
1/2-x,1/2+y,1/2-z
1/2-x,1/2-y,1/2-z
1/2+x,1/2+y,1/2-z
1/2-x,1/2+y,1/2+z
1/2+x,1/2-y,1/2+z
loop_
_atom_site_type_symbol
_atom_site_label
_atom_site_fract_x
_atom_site_fract_y
_atom_site_fract_z
Si Si1 0.588679 0.374709 0.500000
Si Si2 0.500000 0.876833 0.630033
Si Si3 0.500000 0.121693 0.749226
Si Si4 0.228660 0.124441 0.442330
Si Si5 0.794422 0.873930 0.195481
Si Si6 0.358588 0.751364 0.788692
Si Si7 0.084632 0.874333 0.616164
Si Si8 0.141805 0.761713 0.900074
O O1 0.599611 0.500000 0.500000
O O2 0.500000 0.353384 0.500000
O O3 0.622993 0.325731 0.450018
O O4 0.500000 0.873314 0.689642
O O5 0.572621 0.814978 0.611336
O O6 0.500000 0.000000 0.614755
O O7 0.573607 0.178082 0.769272
O O8 0.500000 0.000000 0.764210
O O9 0.240917 0.146743 0.500000
O O10 0.144212 0.147966 0.426678
O O11 0.285853 0.190906 0.410207
O O12 0.241254 0.000000 0.434120
O O13 0.711941 0.822819 0.195942
O O14 0.833331 0.825849 0.244350
O O15 0.839411 0.834931 0.146996
O O16 0.791117 0.000000 0.197283
O O17 0.387146 0.684365 0.835057
O O18 0.000000 0.843884 0.604285
O O19 0.085755 0.000000 0.624789
#
# Coordination Sequence:
#
# PCOD9522136 Si02
#       8
#     8   8   8  16  16  16  16  16
#     4  11  24  40  60  82 111 148 193 245 292 339
#     4  11  24  39  57  86 117 152 191 236 290 339
#     4  11  22  38  59  83 113 152 191 227 283 339
#     4  10  21  37  59  85 113 149 189 234 287 340
#     4  11  24  38  57  85 114 151 192 232 283 341
#     4  11  21  39  58  83 118 146 186 237 281 331
#     4  10  20  35  59  88 117 148 184 231 287 343
#     4  12  21  41  59  82 114 150 191 241 283 340
#
# _framework density 16.866519
#
# number of rings (size 3 to 8) (size 9 to 14) (size 15 to 20)
#    0.000    1.154    5.385    1.846    0.000    0.308 
#    0.000    2.692    0.000    0.000    0.000    0.000 
#    0.000    2.462    0.000    0.000    0.000    0.000 
#
# Total GULP energy -290376.904982 kJ/mol
# GULP energy per Si atom -5584.171250 kJ/mol
# Density = 1.682813 g / cm^3
# Si number density = 16.866519 Si / 1000 Ang^3
#
#
#
# Elastic Constant Matrix: (Units=GPa)
#
#
# Indices 1 2 3 4 5 6 
#
# 1 111.4150 56.4327 13.0974 0.0000 0.0000 0.0000
# 2 56.4327 93.2770 41.5592 0.0000 0.0000 0.0000
# 3 13.0974 41.5592 53.7213 0.0000 0.0000 0.0000
# 4 0.0000 0.0000 0.0000 26.1518 0.0000 0.0000
# 5 0.0000 0.0000 0.0000 0.0000 32.0744 0.0000
# 6 0.0000 0.0000 0.0000 0.0000 0.0000 26.8227
#
#
#
# Elastic Compliance Matrix: (Units=1/GPa)
#
#
# Indices 1 2 3 4 5 6 
#
# 1 0.013670 -0.010355 0.004678 0.000000 0.000000 0.000000
# 2 -0.010355 0.024203 -0.016199 0.000000 0.000000 0.000000
# 3 0.004678 -0.016199 0.030006 0.000000 0.000000 0.000000
# 4 0.000000 0.000000 0.000000 0.038238 0.000000 0.000000
# 5 0.000000 0.000000 0.000000 0.000000 0.031177 0.000000
# 6 0.000000 0.000000 0.000000 0.000000 0.000000 0.037282
#
#
# Mechanical properties :
#
#
# Convention : Reuss Voigt Hill
#
# Bulk Modulus (GPa) = 41.44762 53.39909 47.42336
# Shear Modulus (GPa) = 22.08769 26.83138 24.45954
#
# Velocity S-wave (km/s) = 3.62271 3.99282 3.81226
# Velocity P-wave (km/s) = 6.49045 7.27910 6.89606
#
# Compressibility (1/GPa) = 0.02412684
#
# Stress axis : x y z
#
# Youngs Moduli (GPa) = 73.15141 41.31781 33.32693
#
# Poissons Ratio (x) = 0.42783 -0.15589
# Poissons Ratio (y) = 0.75745 0.53986
# Poissons Ratio (z) = -0.34217 0.66930
#
# Static dielectric constant tensor:
#      x y z
#    x 1.559950 0.000000 0.000000 
#    y 0.000000 1.538820 0.000000 
#    z 0.000000 0.000000 1.542280 
# 
# From -- ./inp_files/66057.got.cif
#   From: 2010.05.17/outbox.cif.g08.bks.cpg/sg71_34_cif.got.tgz:66057.got - 2010.06.03 16:22:01.
