data_PCOD9522390
_publ_section_title
;
Structure prediction by ZEFSAII (Michael W. Deem and Ramdas Pophale) SiO2 
 PCOD9522390
Probable space group: I M M M
;
_chemical_formula_sum "Si O2"
_cell_formula_units_Z 104
_cell_length_a 14.248025
_cell_length_b 14.771197
_cell_length_c 25.471787
_cell_angle_alpha 90.000000
_cell_angle_beta 90.000000
_cell_angle_gamma 90.000000
_cell_volume 5360.802077
_symmetry_space_group_name_H-M "I M M M"
_symmetry_group_IT_number 71
_symmetry_cell_setting 'orthorhombic'
loop_
_space_group_symop_operation_xyz
x,y,z
-x,-y,z
x,-y,-z
-x,y,-z
-x,-y,-z
x,y,-z
-x,y,z
x,-y,z
1/2+x,1/2+y,1/2+z
1/2-x,1/2-y,1/2+z
1/2+x,1/2-y,1/2-z
1/2-x,1/2+y,1/2-z
1/2-x,1/2-y,1/2-z
1/2+x,1/2+y,1/2-z
1/2-x,1/2+y,1/2+z
1/2+x,1/2-y,1/2+z
loop_
_atom_site_type_symbol
_atom_site_label
_atom_site_fract_x
_atom_site_fract_y
_atom_site_fract_z
Si Si1 0.695125 0.898282 0.890653
Si Si2 0.887826 0.103620 0.248987
Si Si3 0.394711 0.653042 0.370225
Si Si4 0.612560 0.725259 0.845803
Si Si5 0.103775 0.332034 0.939458
Si Si6 0.311353 0.396273 0.939365
Si Si7 0.105692 0.609878 0.500000
O O1 0.807185 0.899657 0.893702
O O2 0.660445 0.823474 0.849640
O O3 0.657127 0.865310 0.946769
O O4 0.660214 0.000000 0.879884
O O5 0.877262 0.149582 0.192215
O O6 0.852923 0.166510 0.296089
O O7 0.000000 0.096178 0.257361
O O8 0.850446 0.000000 0.248387
O O9 0.500000 0.616270 0.378937
O O10 0.391628 0.751029 0.397506
O O11 0.500000 0.736299 0.843509
O O12 0.640710 0.668922 0.897551
O O13 0.198030 0.389698 0.933131
O O14 0.000000 0.375830 0.933831
O O15 0.107190 0.296856 0.000000
O O16 0.340895 0.500000 0.930703
O O17 0.332490 0.371726 0.000000
O O18 0.102632 0.500000 0.500000
O O19 0.000000 0.644904 0.500000
#
# Coordination Sequence:
#
# PCOD9522390 Si02
#       7
#    16  16  16  16  16  16   8
#     4  11  23  38  58  87 118 152 198 242 287 353
#     4   9  19  37  59  83 114 153 196 237 289 358
#     4  10  20  36  61  87 116 152 190 239 295 348
#     4  11  23  38  59  83 112 154 198 243 293 342
#     4   9  18  34  57  85 117 152 188 229 284 351
#     4  10  21  37  58  87 119 149 188 238 290 345
#     4   9  20  38  57  79 114 158 194 227 275 341
#
# _framework density 19.400082000000001
#
# number of rings (size 3 to 8) (size 9 to 14) (size 15 to 20)
#    0.000    2.077    1.538    1.385    2.154    4.000 
#    0.000    2.308    0.000    1.385    0.000    4.308 
#    0.000    0.000    0.000    0.000    0.000    0.000 
#
# Total GULP energy -289967.740177 kJ/mol
# GULP energy per Si atom -5576.302696 kJ/mol
# Density = 1.935593 g / cm^3
# Si number density = 19.400082 Si / 1000 Ang^3
#
#
#
# Elastic Constant Matrix: (Units=GPa)
#
#
# Indices 1 2 3 4 5 6 
#
# 1 79.8367 16.0054 31.4872 0.0000 0.0000 0.0000
# 2 16.0054 93.7018 54.5963 0.0000 0.0000 0.0000
# 3 31.4872 54.5963 89.3112 0.0000 0.0000 0.0000
# 4 0.0000 0.0000 0.0000 33.8175 0.0000 0.0000
# 5 0.0000 0.0000 0.0000 0.0000 18.0130 0.0000
# 6 0.0000 0.0000 0.0000 0.0000 0.0000 18.9750
#
#
#
# Elastic Compliance Matrix: (Units=1/GPa)
#
#
# Indices 1 2 3 4 5 6 
#
# 1 0.014585 0.000784 -0.005621 0.000000 0.000000 0.000000
# 2 0.000784 0.016619 -0.010435 0.000000 0.000000 0.000000
# 3 -0.005621 -0.010435 0.019558 0.000000 0.000000 0.000000
# 4 0.000000 0.000000 0.000000 0.029570 0.000000 0.000000
# 5 0.000000 0.000000 0.000000 0.000000 0.055515 0.000000
# 6 0.000000 0.000000 0.000000 0.000000 0.000000 0.052701
#
#
# Mechanical properties :
#
#
# Convention : Reuss Voigt Hill
#
# Bulk Modulus (GPa) = 49.46523 51.89193 50.67858
# Shear Modulus (GPa) = 22.14025 24.87848 23.50937
#
# Velocity S-wave (km/s) = 3.38190 3.58493 3.48489
# Velocity P-wave (km/s) = 6.38768 6.62888 6.50940
#
# Compressibility (1/GPa) = 0.02021622
#
# Stress axis : x y z
#
# Youngs Moduli (GPa) = 68.56137 60.17387 51.13032
#
# Poissons Ratio (x) = -0.04718 0.28743
# Poissons Ratio (y) = -0.05375 0.53356
# Poissons Ratio (z) = 0.38542 0.62794
#
# Static dielectric constant tensor:
#      x y z
#    x 1.700260 0.000000 0.000000 
#    y 0.000000 1.692040 0.000000 
#    z 0.000000 0.000000 1.667690 
# 
# From -- ./inp_files/59940.got.cif
#   From: 2010.05.17/outbox.cif.g08.bks.cpg/sg71_30_cif.got.tgz:59940.got - 2010.06.03 16:22:01.
