data_PCOD9522487
_publ_section_title
;
Structure prediction by ZEFSAII (Michael W. Deem and Ramdas Pophale) SiO2 
 PCOD9522487
Probable space group: I M M M
;
_chemical_formula_sum "Si O2"
_cell_formula_units_Z 108
_cell_length_a 21.363323
_cell_length_b 12.920868
_cell_length_c 21.413629
_cell_angle_alpha 90.000000
_cell_angle_beta 90.000000
_cell_angle_gamma 90.000000
_cell_volume 5910.861327
_symmetry_space_group_name_H-M "I M M M"
_symmetry_group_IT_number 71
_symmetry_cell_setting 'orthorhombic'
loop_
_space_group_symop_operation_xyz
x,y,z
-x,-y,z
x,-y,-z
-x,y,-z
-x,-y,-z
x,y,-z
-x,y,z
x,-y,z
1/2+x,1/2+y,1/2+z
1/2-x,1/2-y,1/2+z
1/2+x,1/2-y,1/2-z
1/2-x,1/2+y,1/2-z
1/2-x,1/2-y,1/2-z
1/2+x,1/2+y,1/2-z
1/2-x,1/2+y,1/2+z
1/2+x,1/2-y,1/2+z
loop_
_atom_site_type_symbol
_atom_site_label
_atom_site_fract_x
_atom_site_fract_y
_atom_site_fract_z
Si Si1 0.194921 0.880755 0.229856
Si Si2 0.646607 0.298753 0.926039
Si Si3 0.569288 0.256637 0.740908
Si Si4 0.408140 0.120241 0.620126
Si Si5 0.000000 0.645964 0.000000
Si Si6 0.770711 0.688020 0.849845
Si Si7 0.926610 0.619523 0.638836
Si Si8 0.571208 0.500000 0.923663
O O1 0.126347 0.836325 0.247732
O O2 0.215920 0.804422 0.174397
O O3 0.243348 0.867436 0.287505
O O4 0.191662 0.000000 0.211969
O O5 0.715329 0.310267 0.898949
O O6 0.614669 0.193346 0.903792
O O7 0.605973 0.396430 0.902777
O O8 0.647559 0.302379 0.000000
O O9 0.500000 0.302108 0.750920
O O10 0.570786 0.200167 0.673887
O O11 0.579139 0.166639 0.791903
O O12 0.445120 0.141171 0.555699
O O13 0.333003 0.137726 0.621439
O O14 0.420746 0.000000 0.636675
O O15 0.907935 0.500000 0.636992
O O16 0.000000 0.626874 0.621042
O O17 0.500000 0.500000 0.902591
O O18 0.571244 0.500000 0.000000
#
# Coordination Sequence:
#
# PCOD9522487 Si02
#       8
#    16  16  16  16   4  16  16   8
#     4  10  21  40  62  88 121 155 203 255 312 377
#     4  11  23  39  58  86 123 162 212 252 306 370
#     4  10  20  37  60  90 120 159 202 248 312 370
#     4  11  22  37  60  87 123 157 198 251 312 373
#     4  12  25  40  60 100 125 162 207 256 318 382
#     4  10  23  39  58  91 117 161 199 250 316 372
#     4  10  21  37  59  87 121 161 208 254 298 359
#     4   9  20  38  60  84 120 166 202 246 300 364
#
# _framework density 18.271449
#
# number of rings (size 3 to 8) (size 9 to 14) (size 15 to 20)
#    0.000    1.704    2.222    2.000    3.111    2.667 
#    0.000    0.741    0.000    0.000    0.000    8.296 
#    0.000    0.000    0.000    0.000    0.000    0.000 
#
# Total GULP energy -300903.819339 kJ/mol
# GULP energy per Si atom -5572.292951 kJ/mol
# Density = 1.822986 g / cm^3
# Si number density = 18.271449 Si / 1000 Ang^3
#
#
#
# Elastic Constant Matrix: (Units=GPa)
#
#
# Indices 1 2 3 4 5 6 
#
# 1 143.2918 50.1836 42.2455 0.0000 0.0000 0.0000
# 2 50.1836 89.7007 11.4078 0.0000 0.0000 0.0000
# 3 42.2455 11.4078 75.2266 0.0000 0.0000 0.0000
# 4 0.0000 0.0000 0.0000 6.6469 0.0000 0.0000
# 5 0.0000 0.0000 0.0000 0.0000 40.0961 0.0000
# 6 0.0000 0.0000 0.0000 0.0000 0.0000 8.0334
#
#
#
# Elastic Compliance Matrix: (Units=1/GPa)
#
#
# Indices 1 2 3 4 5 6 
#
# 1 0.010227 -0.005089 -0.004971 0.000000 0.000000 0.000000
# 2 -0.005089 0.013900 0.000750 0.000000 0.000000 0.000000
# 3 -0.004971 0.000750 0.015971 0.000000 0.000000 0.000000
# 4 0.000000 0.000000 0.000000 0.150445 0.000000 0.000000
# 5 0.000000 0.000000 0.000000 0.000000 0.024940 0.000000
# 6 0.000000 0.000000 0.000000 0.000000 0.000000 0.124480
#
#
# Mechanical properties :
#
#
# Convention : Reuss Voigt Hill
#
# Bulk Modulus (GPa) = 46.56133 57.32145 51.94139
# Shear Modulus (GPa) = 13.67081 24.58077 19.12579
#
# Velocity S-wave (km/s) = 2.73830 3.67183 3.23887
# Velocity P-wave (km/s) = 5.96122 7.02970 6.51739
#
# Compressibility (1/GPa) = 0.02147705
#
# Stress axis : x y z
#
# Youngs Moduli (GPa) = 97.78257 71.94257 62.61262
#
# Poissons Ratio (x) = 0.36613 0.31127
# Poissons Ratio (y) = 0.49763 -0.04697
# Poissons Ratio (z) = 0.48611 -0.05396
#
# Static dielectric constant tensor:
#      x y z
#    x 1.651130 0.000000 0.000000 
#    y 0.000000 1.603680 0.000000 
#    z 0.000000 0.000000 1.619880 
# 
# From -- ./inp_files/61335.got.cif
#   From: 2010.05.17/outbox.cif.g08.bks.cpg/sg71_31_cif.got.tgz:61335.got - 2010.06.03 16:22:01.
