data_PCOD9522423
_publ_section_title
;
Structure prediction by ZEFSAII (Michael W. Deem and Ramdas Pophale) SiO2 
 PCOD9522423
Probable space group: I M M M
;
_chemical_formula_sum "Si O2"
_cell_formula_units_Z 84
_cell_length_a 28.377373
_cell_length_b 11.742959
_cell_length_c 13.971763
_cell_angle_alpha 90.000000
_cell_angle_beta 90.000000
_cell_angle_gamma 90.000000
_cell_volume 4655.871050
_symmetry_space_group_name_H-M "I M M M"
_symmetry_group_IT_number 71
_symmetry_cell_setting 'orthorhombic'
loop_
_space_group_symop_operation_xyz
x,y,z
-x,-y,z
x,-y,-z
-x,y,-z
-x,-y,-z
x,y,-z
-x,y,z
x,-y,z
1/2+x,1/2+y,1/2+z
1/2-x,1/2-y,1/2+z
1/2+x,1/2-y,1/2-z
1/2-x,1/2+y,1/2-z
1/2-x,1/2-y,1/2-z
1/2+x,1/2+y,1/2-z
1/2-x,1/2+y,1/2+z
1/2+x,1/2-y,1/2+z
loop_
_atom_site_type_symbol
_atom_site_label
_atom_site_fract_x
_atom_site_fract_y
_atom_site_fract_z
Si Si1 0.392334 0.363439 0.286624
Si Si2 0.157677 0.500000 0.293265
Si Si3 0.945255 0.243246 0.395060
Si Si4 0.700170 0.773369 0.704228
Si Si5 0.105110 0.129342 0.000000
Si Si6 0.212484 0.194680 0.000000
Si Si7 0.447484 0.000000 0.167193
Si Si8 0.707107 0.000000 0.000000
O O1 0.396949 0.500000 0.283811
O O2 0.419433 0.307114 0.197625
O O3 0.337990 0.325743 0.277180
O O4 0.407929 0.322501 0.394416
O O5 0.178751 0.388177 0.245352
O O6 0.101535 0.500000 0.276174
O O7 0.174326 0.500000 0.405021
O O8 0.925953 0.209039 0.500000
O O9 0.944718 0.380962 0.389461
O O10 0.000000 0.208166 0.390825
O O11 0.750000 0.750000 0.750000
O O12 0.710305 0.773034 0.592261
O O13 0.162356 0.128228 0.000000
O O14 0.087359 0.000000 0.000000
O O15 0.256975 0.108634 0.000000
O O16 0.500000 0.000000 0.213871
#
# Coordination Sequence:
#
# PCOD9522423 Si02
#       8
#    16   8  16  16   8   8   8   4
#     4  10  21  37  59  85 117 152 199 248 301 359
#     4  12  24  37  63  93 120 162 207 255 297 369
#     4  10  21  38  62  88 118 157 199 246 304 363
#     4  11  23  38  58  87 121 154 201 248 299 353
#     4   8  16  32  58  79 105 150 201 235 291 346
#     4  10  20  37  56  83 116 164 191 250 294 355
#     4  10  21  40  61  89 122 156 205 261 306 352
#     4  12  22  34  61  90 120 158 219 244 292 360
#
# _framework density 18.041737999999999
#
# number of rings (size 3 to 8) (size 9 to 14) (size 15 to 20)
#    0.000    1.714    4.286    0.286    4.000    2.286 
#    1.714    1.429    0.000    2.286    0.000    3.333 
#    0.000    0.000    0.000    0.000    0.000    0.000 
#
# Total GULP energy -233879.745502 kJ/mol
# GULP energy per Si atom -5568.565369 kJ/mol
# Density = 1.800067 g / cm^3
# Si number density = 18.041738 Si / 1000 Ang^3
#
#
#
# Elastic Constant Matrix: (Units=GPa)
#
#
# Indices 1 2 3 4 5 6 
#
# 1 97.7646 28.8103 66.7157 0.0000 0.0000 0.0000
# 2 28.8103 71.0965 55.3347 0.0000 0.0000 0.0000
# 3 66.7157 55.3347 186.6398 0.0000 0.0000 0.0000
# 4 0.0000 0.0000 0.0000 28.1086 0.0000 0.0000
# 5 0.0000 0.0000 0.0000 0.0000 23.8935 0.0000
# 6 0.0000 0.0000 0.0000 0.0000 0.0000 -4.7457
#
#
#
# Elastic Compliance Matrix: (Units=1/GPa)
#
#
# Indices 1 2 3 4 5 6 
#
# 1 0.013807 -0.002280 -0.004260 0.000000 0.000000 0.000000
# 2 -0.002280 0.018661 -0.004718 0.000000 0.000000 0.000000
# 3 -0.004260 -0.004718 0.008279 0.000000 0.000000 0.000000
# 4 0.000000 0.000000 0.000000 0.035576 0.000000 0.000000
# 5 0.000000 0.000000 0.000000 0.000000 0.041852 0.000000
# 6 0.000000 0.000000 0.000000 0.000000 0.000000 -0.210715
#
#
# Mechanical properties :
#
#
# Convention : Reuss Voigt Hill
#
# Bulk Modulus (GPa) = 54.84455 73.02472 63.93464
# Shear Modulus (GPa) = -78.19019 23.09394 -27.54812
#
# Velocity S-wave (km/s) = -6.59034 3.58163 -3.91181
# Velocity P-wave (km/s) = 5.23884 7.59391 3.88729
#
# Compressibility (1/GPa) = 0.01823335
#
# Stress axis : x y z
#
# Youngs Moduli (GPa) = 72.42553 53.58764 120.78446
#
# Poissons Ratio (x) = 0.12217 0.51449
# Poissons Ratio (y) = 0.16512 0.56982
# Poissons Ratio (z) = 0.30850 0.25281
#
# Static dielectric constant tensor:
#      x y z
#    x 1.625140 0.000000 0.000000 
#    y 0.000000 1.605860 0.000000 
#    z 0.000000 0.000000 1.629290 
# 
# From -- ./inp_files/29820.got.cif
#   From: 2010.05.17/outbox.cif.g08.bks.cpg/sg71_15_cif.got.tgz:29820.got - 2010.06.03 16:22:01.
