data_PCOD9522850
_publ_section_title
;
Structure prediction by ZEFSAII (Michael W. Deem and Ramdas Pophale) SiO2 
 PCOD9522850
Probable space group: I M M M
;
_chemical_formula_sum "Si O2"
_cell_formula_units_Z 88
_cell_length_a 12.521331
_cell_length_b 27.574209
_cell_length_c 13.976330
_cell_angle_alpha 90.000000
_cell_angle_beta 90.000000
_cell_angle_gamma 90.000000
_cell_volume 4825.548730
_symmetry_space_group_name_H-M "I M M M"
_symmetry_group_IT_number 71
_symmetry_cell_setting 'orthorhombic'
loop_
_space_group_symop_operation_xyz
x,y,z
-x,-y,z
x,-y,-z
-x,y,-z
-x,-y,-z
x,y,-z
-x,y,z
x,-y,z
1/2+x,1/2+y,1/2+z
1/2-x,1/2-y,1/2+z
1/2+x,1/2-y,1/2-z
1/2-x,1/2+y,1/2-z
1/2-x,1/2-y,1/2-z
1/2+x,1/2+y,1/2-z
1/2-x,1/2+y,1/2+z
1/2+x,1/2-y,1/2+z
loop_
_atom_site_type_symbol
_atom_site_label
_atom_site_fract_x
_atom_site_fract_y
_atom_site_fract_z
Si Si1 0.775108 0.748055 0.389737
Si Si2 0.120558 0.941440 0.610712
Si Si3 0.277891 0.908207 0.772821
Si Si4 0.128475 0.500000 0.613197
Si Si5 0.380581 0.809062 0.274256
Si Si6 0.618891 0.343334 0.388985
O O1 0.808747 0.753858 0.500000
O O2 0.715419 0.794611 0.346066
O O3 0.863201 0.726442 0.317497
O O4 0.683426 0.706756 0.384718
O O5 0.133743 0.926624 0.500000
O O6 0.217334 0.923834 0.676246
O O7 0.000000 0.925924 0.641747
O O8 0.120748 0.000000 0.613731
O O9 0.327507 0.952969 0.830749
O O10 0.361954 0.864812 0.755350
O O11 0.185093 0.883699 0.835204
O O12 0.159102 0.500000 0.500000
O O13 0.000000 0.500000 0.617105
O O14 0.500000 0.802318 0.313106
O O15 0.613237 0.356793 0.500000
O O16 0.500000 0.337198 0.350330
#
# Coordination Sequence:
#
# PCOD9522850 Si02
#       6
#    16  16  16   8  16  16
#     4   9  19  36  56  78 109 145 179 219 269 327
#     4   9  18  34  56  79 104 141 186 229 276 323
#     4  11  20  35  55  79 110 144 183 229 272 321
#     4  11  24  40  56  75 104 144 186 227 274 328
#     4  10  21  35  55  83 111 143 184 227 274 326
#     4   9  17  30  51  79 109 139 171 213 270 330
#
# _framework density 18.236267000000002
#
# number of rings (size 3 to 8) (size 9 to 14) (size 15 to 20)
#    0.000    2.273    0.909    2.727    0.000    2.909 
#    0.000    0.909    0.000    4.364    0.000    0.000 
#    0.000    0.000    0.000    0.000    0.000    0.000 
#
# Total GULP energy -245281.020604 kJ/mol
# GULP energy per Si atom -5574.568650 kJ/mol
# Density = 1.819476 g / cm^3
# Si number density = 18.236267 Si / 1000 Ang^3
#
#
#
# Elastic Constant Matrix: (Units=GPa)
#
#
# Indices 1 2 3 4 5 6 
#
# 1 58.9653 5.0628 10.0815 0.0001 -0.0001 0.0000
# 2 5.0628 71.6329 21.5930 0.0000 0.0000 0.0000
# 3 10.0815 21.5930 77.1339 0.0001 -0.0003 -0.0001
# 4 0.0001 0.0000 0.0001 21.5764 -0.0001 0.0000
# 5 -0.0001 0.0000 -0.0003 -0.0001 21.7148 0.0000
# 6 0.0000 0.0000 -0.0001 0.0000 0.0000 1.6050
#
#
#
# Elastic Compliance Matrix: (Units=1/GPa)
#
#
# Indices 1 2 3 4 5 6 
#
# 1 0.017370 -0.000593 -0.002104 0.000000 0.000000 0.000000
# 2 -0.000593 0.015267 -0.004196 0.000000 0.000000 0.000000
# 3 -0.002104 -0.004196 0.014414 0.000000 0.000000 0.000001
# 4 0.000000 0.000000 0.000000 0.046347 0.000000 0.000001
# 5 0.000000 0.000000 0.000000 0.000000 0.046052 -0.000001
# 6 0.000000 0.000000 0.000001 0.000001 -0.000001 0.623034
#
#
# Mechanical properties :
#
#
# Convention : Reuss Voigt Hill
#
# Bulk Modulus (GPa) = 30.06315 31.24520 30.65417
# Shear Modulus (GPa) = 6.35035 20.37890 13.36463
#
# Velocity S-wave (km/s) = 1.86811 3.34652 2.71008
# Velocity P-wave (km/s) = 4.60155 5.66595 5.16126
#
# Compressibility (1/GPa) = 0.03326331
#
# Stress axis : x y z
#
# Youngs Moduli (GPa) = 57.57110 65.50107 69.37605
#
# Poissons Ratio (x) = 0.03887 0.14598
# Poissons Ratio (y) = 0.03416 0.29112
# Poissons Ratio (z) = 0.12114 0.27486
#
# Static dielectric constant tensor:
#      x y z
#    x 1.621560 0.000000 0.000000 
#    y 0.000000 1.630750 0.000000 
#    z 0.000000 0.000000 1.646210 
# 
# From -- ./inp_files/32970.got.cif
#   From: 2010.05.17/outbox.cif.g08.bks.cpg/sg71_17_cif.got.tgz:32970.got - 2010.06.03 16:22:01.
