data_PCOD9522937
_publ_section_title
;
Structure prediction by ZEFSAII (Michael W. Deem and Ramdas Pophale) SiO2 
 PCOD9522937
Probable space group: I M M M
;
_chemical_formula_sum "Si O2"
_cell_formula_units_Z 80
_cell_length_a 9.148778
_cell_length_b 26.985367
_cell_length_c 18.920115
_cell_angle_alpha 90.000000
_cell_angle_beta 90.000000
_cell_angle_gamma 90.000000
_cell_volume 4671.057248
_symmetry_space_group_name_H-M "I M M M"
_symmetry_group_IT_number 71
_symmetry_cell_setting 'orthorhombic'
loop_
_space_group_symop_operation_xyz
x,y,z
-x,-y,z
x,-y,-z
-x,y,-z
-x,-y,-z
x,y,-z
-x,y,z
x,-y,z
1/2+x,1/2+y,1/2+z
1/2-x,1/2-y,1/2+z
1/2+x,1/2-y,1/2-z
1/2-x,1/2+y,1/2-z
1/2-x,1/2-y,1/2-z
1/2+x,1/2+y,1/2-z
1/2-x,1/2+y,1/2+z
1/2+x,1/2-y,1/2+z
loop_
_atom_site_type_symbol
_atom_site_label
_atom_site_fract_x
_atom_site_fract_y
_atom_site_fract_z
Si Si1 0.670981 0.900743 0.286474
Si Si2 0.326125 0.345968 0.418514
Si Si3 0.324423 0.557977 0.921396
Si Si4 0.675820 0.943690 0.863535
Si Si5 0.672993 0.795452 0.211145
O O1 0.500000 0.909123 0.300762
O O2 0.759288 0.912250 0.356524
O O3 0.711598 0.935131 0.219403
O O4 0.690012 0.844860 0.258749
O O5 0.301702 0.331933 0.500000
O O6 0.500000 0.346887 0.405005
O O7 0.259186 0.400696 0.405171
O O8 0.247622 0.309463 0.363318
O O9 0.500000 0.560601 0.919405
O O10 0.283833 0.500000 0.913754
O O11 0.276860 0.574430 0.000000
O O12 0.500000 0.936210 0.870701
O O13 0.710110 0.000000 0.884693
O O14 0.500000 0.786638 0.201812
O O15 0.750000 0.750000 0.250000
#
# Coordination Sequence:
#
# PCOD9522937 Si02
#       5
#    16  16  16  16  16
#     4   9  18  32  50  73  99 127 164 209 252 298
#     4  10  21  36  54  78 108 139 172 212 255 301
#     4   9  18  31  46  68 100 135 169 205 245 291
#     4   9  18  32  50  74 105 140 176 213 254 303
#     4  10  21  38  59  80 102 130 167 212 261 311
#
# _framework density 17.126743999999999
#
# number of rings (size 3 to 8) (size 9 to 14) (size 15 to 20)
#    0.000    2.600    0.000    3.600    0.000    8.000 
#    0.000    4.000    0.000    1.200    0.000    0.000 
#    0.000    0.000    0.000    0.000    0.000    0.000 
#
# Total GULP energy -223089.715066 kJ/mol
# GULP energy per Si atom -5577.242877 kJ/mol
# Density = 1.708776 g / cm^3
# Si number density = 17.126744 Si / 1000 Ang^3
#
#
#
# Elastic Constant Matrix: (Units=GPa)
#
#
# Indices 1 2 3 4 5 6 
#
# 1 78.3893 52.6271 73.8707 0.0000 0.0000 0.0000
# 2 52.6271 76.1396 44.9150 0.0000 0.0000 0.0000
# 3 73.8707 44.9150 126.1322 0.0000 0.0000 0.0000
# 4 0.0000 0.0000 0.0000 7.7305 0.0000 0.0000
# 5 0.0000 0.0000 0.0000 0.0000 31.8359 0.0000
# 6 0.0000 0.0000 0.0000 0.0000 0.0000 30.6279
#
#
#
# Elastic Compliance Matrix: (Units=1/GPa)
#
#
# Indices 1 2 3 4 5 6 
#
# 1 0.042361 -0.018539 -0.018208 0.000000 0.000000 0.000000
# 2 -0.018539 0.024740 0.002048 0.000000 0.000000 0.000000
# 3 -0.018208 0.002048 0.017862 0.000000 0.000000 0.000000
# 4 0.000000 0.000000 0.000000 0.129357 0.000000 0.000000
# 5 0.000000 0.000000 0.000000 0.000000 0.031411 0.000000
# 6 0.000000 0.000000 0.000000 0.000000 0.000000 0.032650
#
#
# Mechanical properties :
#
#
# Convention : Reuss Voigt Hill
#
# Bulk Modulus (GPa) = 64.24319 69.27628 66.75973
# Shear Modulus (GPa) = 14.16559 21.32209 17.74384
#
# Velocity S-wave (km/s) = 2.87906 3.53223 3.22224
# Velocity P-wave (km/s) = 6.97452 7.56125 7.27380
#
# Compressibility (1/GPa) = 0.01556585
#
# Stress axis : x y z
#
# Youngs Moduli (GPa) = 23.60649 40.42081 55.98328
#
# Poissons Ratio (x) = 0.74936 1.01933
# Poissons Ratio (y) = 0.43764 -0.11465
# Poissons Ratio (z) = 0.42982 -0.08278
#
# Static dielectric constant tensor:
#      x y z
#    x 1.573370 0.000000 0.000000 
#    y 0.000000 1.567370 0.000000 
#    z 0.000000 0.000000 1.574390 
# 
# From -- ./inp_files/8259.got.cif
#   From: 2010.05.17/outbox.cif.g08.bks.cpg/sg71_5_cif.got.tgz:8259.got - 2010.06.03 16:22:01.
