data_PCOD9522589
_publ_section_title
;
Structure prediction by ZEFSAII (Michael W. Deem and Ramdas Pophale) SiO2 
 PCOD9522589
Probable space group: I M M M
;
_chemical_formula_sum "Si O2"
_cell_formula_units_Z 96
_cell_length_a 14.380676
_cell_length_b 22.820140
_cell_length_c 14.627624
_cell_angle_alpha 90.000000
_cell_angle_beta 90.000000
_cell_angle_gamma 90.000000
_cell_volume 4800.333320
_symmetry_space_group_name_H-M "I M M M"
_symmetry_group_IT_number 71
_symmetry_cell_setting 'orthorhombic'
loop_
_space_group_symop_operation_xyz
x,y,z
-x,-y,z
x,-y,-z
-x,y,-z
-x,-y,-z
x,y,-z
-x,y,z
x,-y,z
1/2+x,1/2+y,1/2+z
1/2-x,1/2-y,1/2+z
1/2+x,1/2-y,1/2-z
1/2-x,1/2+y,1/2-z
1/2-x,1/2-y,1/2-z
1/2+x,1/2+y,1/2-z
1/2-x,1/2+y,1/2+z
1/2+x,1/2-y,1/2+z
loop_
_atom_site_type_symbol
_atom_site_label
_atom_site_fract_x
_atom_site_fract_y
_atom_site_fract_z
Si Si1 0.106768 0.669167 0.109726
Si Si2 0.606261 0.929173 0.100955
Si Si3 0.892697 0.133198 0.263317
Si Si4 0.104113 0.753010 0.391078
Si Si5 0.712309 0.931887 0.285636
Si Si6 0.200732 0.206360 0.891103
O O1 0.158107 0.613035 0.149911
O O2 0.159044 0.729509 0.132984
O O3 0.000000 0.672030 0.141463
O O4 0.106920 0.665332 0.000000
O O5 0.500000 0.910120 0.119482
O O6 0.674966 0.918045 0.183734
O O7 0.603184 0.000000 0.094680
O O8 0.633550 0.906471 0.000000
O O9 0.885279 0.186576 0.335920
O O10 0.821214 0.082656 0.290600
O O11 0.855713 0.160047 0.168102
O O12 0.000000 0.115561 0.257504
O O13 0.111136 0.764411 0.500000
O O14 0.189733 0.710804 0.367845
O O15 0.000000 0.730219 0.372385
O O16 0.693007 0.000000 0.305398
O O17 0.189896 0.197511 0.000000
#
# Coordination Sequence:
#
# PCOD9522589 Si02
#       6
#    16  16  16  16  16  16
#     4  10  21  37  59  88 121 154 189 236 294 354
#     4   8  15  31  54  76 100 135 181 232 283 332
#     4  11  23  38  59  83 112 153 198 243 290 342
#     4   9  18  34  58  86 115 147 184 230 287 347
#     4  11  23  37  56  82 115 156 200 241 284 340
#     4  10  20  38  62  88 118 151 190 239 299 358
#
# _framework density 19.998611
#
# number of rings (size 3 to 8) (size 9 to 14) (size 15 to 20)
#    0.000    2.167    1.667    2.000    0.000    3.333 
#    0.000    1.667    0.000    2.000    0.000    7.000 
#    0.000    0.000    0.000    0.000    0.000    0.000 
#
# Total GULP energy -268267.569761 kJ/mol
# GULP energy per Si atom -5588.907703 kJ/mol
# Density = 1.995309 g / cm^3
# Si number density = 19.998611 Si / 1000 Ang^3
#
#
#
# Elastic Constant Matrix: (Units=GPa)
#
#
# Indices 1 2 3 4 5 6 
#
# 1 125.1263 15.2274 15.2896 0.0005 -0.0001 0.0000
# 2 15.2274 75.9238 7.0427 0.0009 -0.0002 -0.0001
# 3 15.2896 7.0427 36.7768 0.0010 -0.0002 -0.0001
# 4 0.0005 0.0009 0.0010 19.4264 -0.0001 -0.0001
# 5 -0.0001 -0.0002 -0.0002 -0.0001 24.8606 0.0000
# 6 0.0000 -0.0001 -0.0001 -0.0001 0.0000 21.3078
#
#
#
# Elastic Compliance Matrix: (Units=1/GPa)
#
#
# Indices 1 2 3 4 5 6 
#
# 1 0.008566 -0.001413 -0.003291 0.000000 0.000000 0.000000
# 2 -0.001413 0.013642 -0.002025 0.000000 0.000000 0.000000
# 3 -0.003291 -0.002025 0.028947 -0.000001 0.000000 0.000000
# 4 0.000000 0.000000 -0.000001 0.051476 0.000000 0.000000
# 5 0.000000 0.000000 0.000000 0.000000 0.040224 0.000000
# 6 0.000000 0.000000 0.000000 0.000000 0.000000 0.046931
#
#
# Mechanical properties :
#
#
# Convention : Reuss Voigt Hill
#
# Bulk Modulus (GPa) = 26.52658 34.77181 30.64919
# Shear Modulus (GPa) = 23.16853 26.47012 24.81932
#
# Velocity S-wave (km/s) = 3.40738 3.64208 3.52668
# Velocity P-wave (km/s) = 5.36407 5.92547 5.65174
#
# Compressibility (1/GPa) = 0.03769804
#
# Stress axis : x y z
#
# Youngs Moduli (GPa) = 116.74124 73.30141 34.54600
#
# Poissons Ratio (x) = 0.10356 0.11368
# Poissons Ratio (y) = 0.16493 0.06996
# Poissons Ratio (z) = 0.38416 0.14844
#
# Static dielectric constant tensor:
#      x y z
#    x 1.717860 0.000000 0.000000 
#    y 0.000000 1.691920 0.000000 
#    z 0.000000 0.000000 1.711720 
# 
# From -- ./inp_files/34507.got.cif
#   From: 2010.05.17/outbox.cif.g08.bks.cpg/sg71_18_cif.got.tgz:34507.got - 2010.06.03 16:22:01.
