data_PCOD9522783
_publ_section_title
;
Structure prediction by ZEFSAII (Michael W. Deem and Ramdas Pophale) SiO2 
 PCOD9522783
Probable space group: I M M M
;
_chemical_formula_sum "Si O2"
_cell_formula_units_Z 120
_cell_length_a 8.450829
_cell_length_b 27.960898
_cell_length_c 28.404662
_cell_angle_alpha 90.000000
_cell_angle_beta 90.000000
_cell_angle_gamma 90.000000
_cell_volume 6711.816199
_symmetry_space_group_name_H-M "I M M M"
_symmetry_group_IT_number 71
_symmetry_cell_setting 'orthorhombic'
loop_
_space_group_symop_operation_xyz
x,y,z
-x,-y,z
x,-y,-z
-x,y,-z
-x,-y,-z
x,y,-z
-x,y,z
x,-y,z
1/2+x,1/2+y,1/2+z
1/2-x,1/2-y,1/2+z
1/2+x,1/2-y,1/2-z
1/2-x,1/2+y,1/2-z
1/2-x,1/2-y,1/2-z
1/2+x,1/2+y,1/2-z
1/2-x,1/2+y,1/2+z
1/2+x,1/2-y,1/2+z
loop_
_atom_site_type_symbol
_atom_site_label
_atom_site_fract_x
_atom_site_fract_y
_atom_site_fract_z
Si Si1 0.809047 0.396058 0.217955
Si Si2 0.691009 0.185730 0.554560
Si Si3 0.306461 0.000000 0.554032
Si Si4 0.689108 0.790858 0.053937
Si Si5 0.689109 0.648009 0.361009
Si Si6 0.189523 0.198249 0.235296
Si Si7 0.808659 0.554031 0.686128
Si Si8 0.193551 0.407119 0.887988
O O1 0.753040 0.342711 0.230010
O O2 0.756909 0.429541 0.261340
O O3 0.754758 0.410854 0.166122
O O4 0.000000 0.396696 0.217845
O O5 0.736977 0.176682 0.500000
O O6 0.500000 0.187439 0.556155
O O7 0.754522 0.237754 0.568312
O O8 0.744164 0.142482 0.587803
O O9 0.255737 0.952424 0.581336
O O10 0.500000 0.000000 0.553844
O O11 0.254715 0.000000 0.500000
O O12 0.500000 0.791656 0.053871
O O13 0.750700 0.829658 0.090630
O O14 0.745012 0.798708 0.000000
O O15 0.500000 0.647561 0.361235
O O16 0.741832 0.681570 0.317043
O O17 0.749282 0.594871 0.349152
O O18 0.250000 0.250000 0.250000
O O19 0.000000 0.198117 0.236134
O O20 0.755772 0.500000 0.676002
O O21 0.000000 0.554569 0.685526
O O22 0.000000 0.406962 0.888155
#
# Coordination Sequence:
#
# PCOD9522783 Si02
#       8
#    16  16   8  16  16  16  16  16
#     4   9  18  31  47  72 103 134 172 215 258 305
#     4   9  17  30  47  69 100 137 175 216 262 310
#     4   9  16  26  42  68 101 135 173 221 274 317
#     4  10  21  36  55  80 108 138 172 211 256 308
#     4  10  21  36  55  79 106 138 175 213 260 313
#     4  10  21  35  51  73 103 137 172 211 257 309
#     4   9  18  33  54  77 104 138 174 214 261 312
#     4   9  17  27  44  69  99 134 173 219 267 312
#
# _framework density 17.878916
#
# number of rings (size 3 to 8) (size 9 to 14) (size 15 to 20)
#    0.000    2.600    0.000    1.600    2.800    4.267 
#    0.000    0.000    0.000    0.400    0.000    4.200 
#    0.000    4.267    0.000    0.000    0.000    0.000 
#
# Total GULP energy -334730.413786 kJ/mol
# GULP energy per Si atom -5578.840230 kJ/mol
# Density = 1.783822 g / cm^3
# Si number density = 17.878916 Si / 1000 Ang^3
#
#
#
# Elastic Constant Matrix: (Units=GPa)
#
#
# Indices 1 2 3 4 5 6 
#
# 1 8.8112 21.2656 17.1960 0.0000 0.0000 0.0000
# 2 21.2656 168.7326 96.6699 0.0000 0.0000 0.0000
# 3 17.1960 96.6699 125.8853 0.0000 0.0000 0.0000
# 4 0.0000 0.0000 0.0000 18.6773 0.0000 0.0000
# 5 0.0000 0.0000 0.0000 0.0000 16.3177 0.0000
# 6 0.0000 0.0000 0.0000 0.0000 0.0000 17.1516
#
#
#
# Elastic Compliance Matrix: (Units=1/GPa)
#
#
# Indices 1 2 3 4 5 6 
#
# 1 0.173169 -0.014771 -0.012312 0.000000 0.000000 0.000000
# 2 -0.014771 0.011842 -0.007076 0.000000 0.000000 0.000000
# 3 -0.012312 -0.007076 0.015059 0.000000 0.000000 0.000000
# 4 0.000000 0.000000 0.000000 0.053541 0.000000 0.000000
# 5 0.000000 0.000000 0.000000 0.000000 0.061283 0.000000
# 6 0.000000 0.000000 0.000000 0.000000 0.000000 0.058304
#
#
# Mechanical properties :
#
#
# Convention : Reuss Voigt Hill
#
# Bulk Modulus (GPa) = 7.59001 63.74357 35.66679
# Shear Modulus (GPa) = 10.30008 21.64917 15.97462
#
# Velocity S-wave (km/s) = 2.40282 3.48354 2.99237
# Velocity P-wave (km/s) = 3.45724 7.20489 5.65079
#
# Compressibility (1/GPa) = 0.13175209
#
# Stress axis : x y z
#
# Youngs Moduli (GPa) = 5.77472 84.44401 66.40332
#
# Poissons Ratio (x) = 1.24731 0.81756
# Poissons Ratio (y) = 0.08530 0.46988
# Poissons Ratio (z) = 0.07110 0.59754
#
# Static dielectric constant tensor:
#      x y z
#    x 1.617300 0.000000 0.000000 
#    y 0.000000 1.583670 0.000000 
#    z 0.000000 0.000000 1.615160 
# 
# From -- ./inp_files/63765.got.cif
#   From: 2010.05.17/outbox.cif.g08.bks.cpg/sg71_32_cif.got.tgz:63765.got - 2010.06.03 16:22:01.
