data_PCOD9522502
_publ_section_title
;
Structure prediction by ZEFSAII (Michael W. Deem and Ramdas Pophale) SiO2 
 PCOD9522502
Probable space group: I M M M
;
_chemical_formula_sum "Si O2"
_cell_formula_units_Z 88
_cell_length_a 27.270304
_cell_length_b 15.784041
_cell_length_c 11.453925
_cell_angle_alpha 90.000000
_cell_angle_beta 90.000000
_cell_angle_gamma 90.000000
_cell_volume 4930.177039
_symmetry_space_group_name_H-M "I M M M"
_symmetry_group_IT_number 71
_symmetry_cell_setting 'orthorhombic'
loop_
_space_group_symop_operation_xyz
x,y,z
-x,-y,z
x,-y,-z
-x,y,-z
-x,-y,-z
x,y,-z
-x,y,z
x,-y,z
1/2+x,1/2+y,1/2+z
1/2-x,1/2-y,1/2+z
1/2+x,1/2-y,1/2-z
1/2-x,1/2+y,1/2-z
1/2-x,1/2-y,1/2-z
1/2+x,1/2+y,1/2-z
1/2-x,1/2+y,1/2+z
1/2+x,1/2-y,1/2+z
loop_
_atom_site_type_symbol
_atom_site_label
_atom_site_fract_x
_atom_site_fract_y
_atom_site_fract_z
Si Si1 0.122090 0.000000 0.365529
Si Si2 0.726358 0.900389 0.500000
Si Si3 0.889585 0.812724 0.636765
Si Si4 0.058518 0.334419 0.771749
Si Si5 0.440661 0.000000 0.871771
Si Si6 0.886592 0.604332 0.000000
Si Si7 0.803739 0.000000 0.859809
Si Si8 0.220116 0.164179 0.270735
O O1 0.094037 0.911163 0.360068
O O2 0.156395 0.000000 0.248888
O O3 0.145434 0.000000 0.500000
O O4 0.670354 0.869122 0.500000
O O5 0.756002 0.874373 0.386460
O O6 0.721850 0.000000 0.500000
O O7 0.885730 0.788233 0.500000
O O8 0.924380 0.750163 0.707143
O O9 0.836075 0.812827 0.697712
O O10 0.072878 0.414420 0.692180
O O11 0.086614 0.354564 0.890065
O O12 0.000000 0.334489 0.789486
O O13 0.500000 0.000000 0.877050
O O14 0.419651 0.000000 0.000000
O O15 0.891197 0.500000 0.000000
O O16 0.777607 0.909698 0.828626
O O17 0.816860 0.000000 0.000000
O O18 0.250000 0.250000 0.250000
#
# Coordination Sequence:
#
# PCOD9522502 Si02
#       8
#     8   8  16  16   8   8   8  16
#     4   8  18  38  63  82 116 164 206 251 306 371
#     4  11  22  39  64  88 114 166 214 260 305 376
#     4  10  20  37  61  88 117 157 204 253 305 374
#     4  11  22  38  60  87 122 161 199 254 316 375
#     4   9  18  33  55  82 114 152 190 238 310 375
#     4  11  23  40  61  87 122 159 220 257 302 368
#     4  10  22  36  56  88 123 160 210 256 308 373
#     4  11  22  38  60  84 124 161 206 253 314 369
#
# _framework density 17.849257000000001
#
# number of rings (size 3 to 8) (size 9 to 14) (size 15 to 20)
#    0.000    1.727    2.727    1.909    2.545    1.455 
#    6.545    0.455    0.000    3.818    0.000    1.273 
#    0.000    0.000    0.000    0.000    0.000    0.000 
#
# Total GULP energy -245078.430321 kJ/mol
# GULP energy per Si atom -5569.964325 kJ/mol
# Density = 1.780863 g / cm^3
# Si number density = 17.849257 Si / 1000 Ang^3
#
#
#
# Elastic Constant Matrix: (Units=GPa)
#
#
# Indices 1 2 3 4 5 6 
#
# 1 45.3175 -1.2134 7.3170 0.0000 0.0000 0.0000
# 2 -1.2134 76.3161 21.8253 0.0000 0.0000 0.0000
# 3 7.3170 21.8253 115.0113 0.0000 0.0000 0.0000
# 4 0.0000 0.0000 0.0000 63.8670 0.0000 0.0000
# 5 0.0000 0.0000 0.0000 0.0000 25.7442 0.0000
# 6 0.0000 0.0000 0.0000 0.0000 0.0000 33.2434
#
#
#
# Elastic Compliance Matrix: (Units=1/GPa)
#
#
# Indices 1 2 3 4 5 6 
#
# 1 0.022342 0.000805 -0.001574 0.000000 0.000000 0.000000
# 2 0.000805 0.013884 -0.002686 0.000000 0.000000 0.000000
# 3 -0.001574 -0.002686 0.009305 0.000000 0.000000 0.000000
# 4 0.000000 0.000000 0.000000 0.015658 0.000000 0.000000
# 5 0.000000 0.000000 0.000000 0.000000 0.038844 0.000000
# 6 0.000000 0.000000 0.000000 0.000000 0.000000 0.030081
#
#
# Mechanical properties :
#
#
# Convention : Reuss Voigt Hill
#
# Bulk Modulus (GPa) = 25.89223 32.50032 29.19627
# Shear Modulus (GPa) = 33.35616 38.48531 35.92073
#
# Velocity S-wave (km/s) = 4.32762 4.64845 4.49090
# Velocity P-wave (km/s) = 6.28558 6.85992 6.57902
#
# Compressibility (1/GPa) = 0.03862162
#
# Stress axis : x y z
#
# Youngs Moduli (GPa) = 44.75814 72.02348 107.47294
#
# Poissons Ratio (x) = -0.05801 0.16919
# Poissons Ratio (y) = -0.03605 0.28868
# Poissons Ratio (z) = 0.07046 0.19346
#
# Static dielectric constant tensor:
#      x y z
#    x 1.609610 0.000000 0.000000 
#    y 0.000000 1.632870 0.000000 
#    z 0.000000 0.000000 1.561150 
# 
# From -- ./inp_files/28690.got.cif
#   From: 2010.05.17/outbox.cif.g08.bks.cpg/sg71_15_cif.got.tgz:28690.got - 2010.06.03 16:22:01.
