data_PCOD9522279
_publ_section_title
;
Structure prediction by ZEFSAII (Michael W. Deem and Ramdas Pophale) SiO2 
 PCOD9522279
Probable space group: I M M M
;
_chemical_formula_sum "Si O2"
_cell_formula_units_Z 120
_cell_length_a 8.157062
_cell_length_b 28.040109
_cell_length_c 28.282541
_cell_angle_alpha 90.000000
_cell_angle_beta 90.000000
_cell_angle_gamma 90.000000
_cell_volume 6468.921577
_symmetry_space_group_name_H-M "I M M M"
_symmetry_group_IT_number 71
_symmetry_cell_setting 'orthorhombic'
loop_
_space_group_symop_operation_xyz
x,y,z
-x,-y,z
x,-y,-z
-x,y,-z
-x,-y,-z
x,y,-z
-x,y,z
x,-y,z
1/2+x,1/2+y,1/2+z
1/2-x,1/2-y,1/2+z
1/2+x,1/2-y,1/2-z
1/2-x,1/2+y,1/2-z
1/2-x,1/2-y,1/2-z
1/2+x,1/2+y,1/2-z
1/2-x,1/2+y,1/2+z
1/2+x,1/2-y,1/2+z
loop_
_atom_site_type_symbol
_atom_site_label
_atom_site_fract_x
_atom_site_fract_y
_atom_site_fract_z
Si Si1 0.802705 0.358049 0.355207
Si Si2 0.198666 0.698721 0.446320
Si Si3 0.807701 0.443687 0.807646
Si Si4 0.809290 0.706878 0.106255
Si Si5 0.000000 0.445357 0.943533
Si Si6 0.181635 0.103306 0.601197
Si Si7 0.194365 0.054303 0.203390
Si Si8 0.303421 0.761738 0.197178
O O1 0.749741 0.340208 0.407177
O O2 0.734722 0.407761 0.336843
O O3 0.756121 0.315169 0.319350
O O4 0.000000 0.361127 0.355207
O O5 0.249809 0.688774 0.500000
O O6 0.263631 0.749647 0.428323
O O7 0.000000 0.700839 0.444934
O O8 0.767149 0.500000 0.812945
O O9 0.704994 0.412741 0.844306
O O10 0.776711 0.431218 0.753027
O O11 0.000000 0.437275 0.818371
O O12 0.703981 0.659947 0.097155
O O13 0.775220 0.726218 0.159012
O O14 0.000000 0.694578 0.101170
O O15 0.833777 0.420859 0.925486
O O16 0.000000 0.500000 0.926431
O O17 0.000000 0.444585 0.000000
O O18 0.000000 0.088964 0.584825
O O19 0.000000 0.053693 0.211293
O O20 0.247638 0.000000 0.192224
O O21 0.500000 0.758079 0.192917
O O22 0.250000 0.750000 0.250000
#
# Coordination Sequence:
#
# PCOD9522279 Si02
#       8
#    16  16  16  16   8  16  16  16
#     4   9  19  35  55  81 113 150 193 239 293 355
#     4   9  19  38  62  86 114 148 189 241 298 359
#     4  10  20  36  58  84 115 152 196 244 294 350
#     4  11  22  38  57  85 120 153 196 245 293 351
#     4  11  26  48  68  90 120 154 200 256 310 368
#     4  12  24  41  65  91 121 157 198 251 307 363
#     4  10  21  35  53  82 118 157 201 245 291 349
#     4  10  21  36  54  80 116 158 198 237 289 353
#
# _framework density 18.550232000000001
#
# number of rings (size 3 to 8) (size 9 to 14) (size 15 to 20)
#    0.000    1.800    1.333    3.600    1.867    6.133 
#    0.000    0.667    0.000    0.400    0.000    2.800 
#    0.000    0.000    0.000    0.000    0.000    0.000 
#
# Total GULP energy -335162.712286 kJ/mol
# GULP energy per Si atom -5586.045205 kJ/mol
# Density = 1.850801 g / cm^3
# Si number density = 18.550232 Si / 1000 Ang^3
#
#
#
# Elastic Constant Matrix: (Units=GPa)
#
#
# Indices 1 2 3 4 5 6 
#
# 1 76.9375 30.7407 27.9471 0.0000 0.0000 0.0000
# 2 30.7407 79.2496 41.6544 0.0000 0.0000 0.0000
# 3 27.9471 41.6544 114.7640 0.0000 0.0000 0.0000
# 4 0.0000 0.0000 0.0000 12.4637 0.0000 0.0000
# 5 0.0000 0.0000 0.0000 0.0000 18.4237 0.0000
# 6 0.0000 0.0000 0.0000 0.0000 0.0000 25.8585
#
#
#
# Elastic Compliance Matrix: (Units=1/GPa)
#
#
# Indices 1 2 3 4 5 6 
#
# 1 0.015744 -0.005057 -0.001999 0.000000 0.000000 0.000000
# 2 -0.005057 0.017217 -0.005018 0.000000 0.000000 0.000000
# 3 -0.001999 -0.005018 0.011021 0.000000 0.000000 0.000000
# 4 0.000000 0.000000 0.000000 0.080233 0.000000 0.000000
# 5 0.000000 0.000000 0.000000 0.000000 0.054278 0.000000
# 6 0.000000 0.000000 0.000000 0.000000 0.000000 0.038672
#
#
# Mechanical properties :
#
#
# Convention : Reuss Voigt Hill
#
# Bulk Modulus (GPa) = 50.41147 52.40394 51.40770
# Shear Modulus (GPa) = 20.16754 22.72311 21.44533
#
# Velocity S-wave (km/s) = 3.30083 3.50373 3.40379
# Velocity P-wave (km/s) = 6.46235 6.68425 6.57423
#
# Compressibility (1/GPa) = 0.01983676
#
# Stress axis : x y z
#
# Youngs Moduli (GPa) = 63.51666 58.08171 90.73209
#
# Poissons Ratio (x) = 0.29369 0.18134
# Poissons Ratio (y) = 0.32117 0.45527
# Poissons Ratio (z) = 0.12695 0.29144
#
# Static dielectric constant tensor:
#      x y z
#    x 1.657460 0.000000 0.000000 
#    y 0.000000 1.624930 0.000000 
#    z 0.000000 0.000000 1.630490 
# 
# From -- ./inp_files/63749.got.cif
#   From: 2010.05.17/outbox.cif.g08.bks.cpg/sg71_32_cif.got.tgz:63749.got - 2010.06.03 16:22:01.
