data_PCOD9522786
_publ_section_title
;
Structure prediction by ZEFSAII (Michael W. Deem and Ramdas Pophale) SiO2 
 PCOD9522786
Probable space group: I M M M
;
_chemical_formula_sum "Si O2"
_cell_formula_units_Z 112
_cell_length_a 14.268328
_cell_length_b 32.193983
_cell_length_c 13.363009
_cell_angle_alpha 90.000000
_cell_angle_beta 90.000000
_cell_angle_gamma 90.000000
_cell_volume 6138.355766
_symmetry_space_group_name_H-M "I M M M"
_symmetry_group_IT_number 71
_symmetry_cell_setting 'orthorhombic'
loop_
_space_group_symop_operation_xyz
x,y,z
-x,-y,z
x,-y,-z
-x,y,-z
-x,-y,-z
x,y,-z
-x,y,z
x,-y,z
1/2+x,1/2+y,1/2+z
1/2-x,1/2-y,1/2+z
1/2+x,1/2-y,1/2-z
1/2-x,1/2+y,1/2-z
1/2-x,1/2-y,1/2-z
1/2+x,1/2+y,1/2-z
1/2-x,1/2+y,1/2+z
1/2+x,1/2-y,1/2+z
loop_
_atom_site_type_symbol
_atom_site_label
_atom_site_fract_x
_atom_site_fract_y
_atom_site_fract_z
Si Si1 0.749269 0.885838 0.386078
Si Si2 0.109488 0.650689 0.278169
Si Si3 0.606581 0.065273 0.116353
Si Si4 0.112512 0.176283 0.701252
Si Si5 0.114246 0.735241 0.384076
Si Si6 0.710876 0.546566 0.267779
Si Si7 0.612762 0.379483 0.386191
O O1 0.719212 0.889416 0.500000
O O2 0.670343 0.865490 0.314630
O O3 0.837835 0.855260 0.374545
O O4 0.777909 0.929791 0.337442
O O5 0.114735 0.614617 0.361940
O O6 0.142854 0.693966 0.324805
O O7 0.000000 0.654785 0.249768
O O8 0.500000 0.053250 0.142447
O O9 0.686005 0.045185 0.183385
O O10 0.621788 0.056371 0.000000
O O11 0.142135 0.222894 0.674034
O O12 0.137785 0.158210 0.811128
O O13 0.000000 0.174203 0.692336
O O14 0.145881 0.735711 0.500000
O O15 0.000000 0.734482 0.386706
O O16 0.672553 0.500000 0.261800
O O17 0.652798 0.578336 0.337771
O O18 0.646404 0.374111 0.500000
O O19 0.500000 0.381962 0.387810
#
# Coordination Sequence:
#
# PCOD9522786 Si02
#       7
#    16  16  16  16  16  16  16
#     4  10  21  36  53  71  94 129 168 203 248 300
#     4   9  18  32  49  72 102 132 165 203 240 286
#     4   9  17  30  49  72  99 129 156 189 241 297
#     4   9  18  33  52  75 102 130 165 206 242 282
#     4   9  16  28  50  77 103 133 168 206 246 284
#     4  10  21  35  51  73  98 122 158 207 249 293
#     4   9  18  33  52  73 101 136 165 192 237 296
#
# _framework density 18.245929
#
# number of rings (size 3 to 8) (size 9 to 14) (size 15 to 20)
#    0.000    2.714    0.000    1.286    0.000    5.429 
#    0.000    2.857    0.000    2.571    0.000    8.000 
#    0.000    0.000    0.000    0.000    0.000    0.000 
#
# Total GULP energy -312295.040311 kJ/mol
# GULP energy per Si atom -5576.697148 kJ/mol
# Density = 1.820440 g / cm^3
# Si number density = 18.245929 Si / 1000 Ang^3
#
#
#
# Elastic Constant Matrix: (Units=GPa)
#
#
# Indices 1 2 3 4 5 6 
#
# 1 31.9560 15.4086 16.2101 0.0001 0.0000 0.0000
# 2 15.4086 114.8014 51.6818 0.0002 -0.0001 0.0000
# 3 16.2101 51.6818 121.0141 0.0005 0.0003 0.0000
# 4 0.0001 0.0002 0.0005 1.1782 0.0000 0.0000
# 5 0.0000 -0.0001 0.0003 0.0000 18.8341 0.0000
# 6 0.0000 0.0000 0.0000 0.0000 0.0000 14.0824
#
#
#
# Elastic Compliance Matrix: (Units=1/GPa)
#
#
# Indices 1 2 3 4 5 6 
#
# 1 0.034473 -0.003155 -0.003270 -0.000001 0.000000 0.000000
# 2 -0.003155 0.011073 -0.004306 0.000000 0.000000 0.000000
# 3 -0.003270 -0.004306 0.010541 -0.000003 0.000000 0.000000
# 4 -0.000001 0.000000 -0.000003 0.848747 -0.000001 -0.000003
# 5 0.000000 0.000000 0.000000 -0.000001 0.053095 0.000000
# 6 0.000000 0.000000 0.000000 -0.000003 0.000000 0.071011
#
#
# Mechanical properties :
#
#
# Convention : Reuss Voigt Hill
#
# Bulk Modulus (GPa) = 28.88192 48.26361 38.57277
# Shear Modulus (GPa) = 4.70835 19.11701 11.91268
#
# Velocity S-wave (km/s) = 1.60813 3.24039 2.55795
# Velocity P-wave (km/s) = 4.39451 6.36470 5.46905
#
# Compressibility (1/GPa) = 0.03462373
#
# Stress axis : x y z
#
# Youngs Moduli (GPa) = 29.00808 90.31193 94.87045
#
# Poissons Ratio (x) = 0.28490 0.31027
# Poissons Ratio (y) = 0.09151 0.40854
# Poissons Ratio (z) = 0.09487 0.38891
#
# Static dielectric constant tensor:
#      x y z
#    x 1.651970 0.000000 0.000000 
#    y 0.000000 1.637350 0.000000 
#    z 0.000000 0.000000 1.606760 
# 
# From -- ./inp_files/22687.got.cif
#   From: 2010.05.17/outbox.cif.g08.bks.cpg/sg71_12_cif.got.tgz:22687.got - 2010.06.03 16:22:01.
