data_PCOD9522336
_publ_section_title
;
Structure prediction by ZEFSAII (Michael W. Deem and Ramdas Pophale) SiO2 
 PCOD9522336
Probable space group: I M M M
;
_chemical_formula_sum "Si O2"
_cell_formula_units_Z 72
_cell_length_a 15.907354
_cell_length_b 8.461691
_cell_length_c 27.585730
_cell_angle_alpha 90.000000
_cell_angle_beta 90.000000
_cell_angle_gamma 90.000000
_cell_volume 3713.125165
_symmetry_space_group_name_H-M "I M M M"
_symmetry_group_IT_number 71
_symmetry_cell_setting 'orthorhombic'
loop_
_space_group_symop_operation_xyz
x,y,z
-x,-y,z
x,-y,-z
-x,y,-z
-x,-y,-z
x,y,-z
-x,y,z
x,-y,z
1/2+x,1/2+y,1/2+z
1/2-x,1/2-y,1/2+z
1/2+x,1/2-y,1/2-z
1/2-x,1/2+y,1/2-z
1/2-x,1/2-y,1/2-z
1/2+x,1/2+y,1/2-z
1/2-x,1/2+y,1/2+z
1/2+x,1/2-y,1/2+z
loop_
_atom_site_type_symbol
_atom_site_label
_atom_site_fract_x
_atom_site_fract_y
_atom_site_fract_z
Si Si1 0.833936 0.689590 0.056093
Si Si2 0.332847 0.808973 0.776959
Si Si3 0.000000 0.692890 0.444193
Si Si4 0.500000 0.311905 0.390043
Si Si5 0.168832 0.691438 0.388965
Si Si6 0.000000 0.308568 0.780089
O O1 0.835538 0.500000 0.056812
O O2 0.751344 0.748021 0.083950
O O3 0.917147 0.751205 0.082581
O O4 0.832177 0.742574 0.000000
O O5 0.250000 0.750000 0.750000
O O6 0.333122 0.757113 0.832944
O O7 0.416499 0.756862 0.748579
O O8 0.332654 0.000000 0.776829
O O9 0.915686 0.743303 0.416562
O O10 0.000000 0.500000 0.444061
O O11 0.000000 0.744637 0.500000
O O12 0.500000 0.500000 0.390089
O O13 0.500000 0.251798 0.334842
O O14 0.170442 0.500000 0.389594
O O15 0.000000 0.500000 0.781164
#
# Coordination Sequence:
#
# PCOD9522336 Si02
#       6
#    16  16   8   8  16   8
#     4  11  24  41  60  84 116 153 191 234 290 351
#     4  10  21  36  56  82 112 148 188 230 276 330
#     4   9  17  31  55  85 114 145 182 227 279 330
#     4  12  25  40  61  88 114 145 192 243 289 343
#     4  10  20  36  59  87 117 150 192 238 282 332
#     4  10  21  39  60  83 118 158 190 228 286 345
#
# _framework density 19.390673
#
# number of rings (size 3 to 8) (size 9 to 14) (size 15 to 20)
#    0.000    1.667    0.000    4.667    0.000   12.000 
#    0.000    0.556    0.000    4.667    0.000    0.000 
#    0.000    0.000    0.000    0.000    0.000    0.000 
#
# Total GULP energy -201285.508884 kJ/mol
# GULP energy per Si atom -5591.264136 kJ/mol
# Density = 1.934654 g / cm^3
# Si number density = 19.390673 Si / 1000 Ang^3
#
#
#
# Elastic Constant Matrix: (Units=GPa)
#
#
# Indices 1 2 3 4 5 6 
#
# 1 206.4893 23.2896 118.8451 0.0000 0.0000 0.0000
# 2 23.2896 20.2028 28.6098 0.0000 0.0000 0.0000
# 3 118.8451 28.6098 219.3492 0.0000 0.0000 0.0000
# 4 0.0000 0.0000 0.0000 26.5971 0.0000 0.0000
# 5 0.0000 0.0000 0.0000 0.0000 46.8616 0.0000
# 6 0.0000 0.0000 0.0000 0.0000 0.0000 4.6807
#
#
#
# Elastic Compliance Matrix: (Units=1/GPa)
#
#
# Indices 1 2 3 4 5 6 
#
# 1 0.007225 -0.003416 -0.003469 0.000000 0.000000 0.000000
# 2 -0.003416 0.062327 -0.006278 0.000000 0.000000 0.000000
# 3 -0.003469 -0.006278 0.007257 0.000000 0.000000 0.000000
# 4 0.000000 0.000000 0.000000 0.037598 0.000000 0.000000
# 5 0.000000 0.000000 0.000000 0.000000 0.021339 0.000000
# 6 0.000000 0.000000 0.000000 0.000000 0.000000 0.213641
#
#
# Mechanical properties :
#
#
# Convention : Reuss Voigt Hill
#
# Bulk Modulus (GPa) = 19.80890 87.50337 53.65613
# Shear Modulus (GPa) = 12.73747 33.98100 23.35924
#
# Velocity S-wave (km/s) = 2.56576 4.19076 3.47459
# Velocity P-wave (km/s) = 4.36066 8.28499 6.62029
#
# Compressibility (1/GPa) = 0.05048237
#
# Stress axis : x y z
#
# Youngs Moduli (GPa) = 138.41516 16.04429 137.79314
#
# Poissons Ratio (x) = 0.05481 0.47797
# Poissons Ratio (y) = 0.47286 0.86513
# Poissons Ratio (z) = 0.48013 0.10073
#
# Static dielectric constant tensor:
#      x y z
#    x 1.632690 0.000000 0.000000 
#    y 0.000000 1.672270 0.000000 
#    z 0.000000 0.000000 1.654070 
# 
# From -- ./inp_files/14377.got.cif
#   From: 2010.05.17/outbox.cif.g08.bks.cpg/sg71_8_cif.got.tgz:14377.got - 2010.06.03 16:22:01.
