data_PCOD9522785
_publ_section_title
;
Structure prediction by ZEFSAII (Michael W. Deem and Ramdas Pophale) SiO2 
 PCOD9522785
Probable space group: I M M M
;
_chemical_formula_sum "Si O2"
_cell_formula_units_Z 80
_cell_length_a 15.330532
_cell_length_b 33.090347
_cell_length_c 8.737579
_cell_angle_alpha 90.000000
_cell_angle_beta 90.000000
_cell_angle_gamma 90.000000
_cell_volume 4432.509375
_symmetry_space_group_name_H-M "I M M M"
_symmetry_group_IT_number 71
_symmetry_cell_setting 'orthorhombic'
loop_
_space_group_symop_operation_xyz
x,y,z
-x,-y,z
x,-y,-z
-x,y,-z
-x,-y,-z
x,y,-z
-x,y,z
x,-y,z
1/2+x,1/2+y,1/2+z
1/2-x,1/2-y,1/2+z
1/2+x,1/2-y,1/2-z
1/2-x,1/2+y,1/2-z
1/2-x,1/2-y,1/2-z
1/2+x,1/2+y,1/2-z
1/2-x,1/2+y,1/2+z
1/2+x,1/2-y,1/2+z
loop_
_atom_site_type_symbol
_atom_site_label
_atom_site_fract_x
_atom_site_fract_y
_atom_site_fract_z
Si Si1 0.658066 0.236122 0.180775
Si Si2 0.730894 0.615552 0.317619
Si Si3 0.095629 0.824106 0.681598
Si Si4 0.098836 0.046545 0.813614
Si Si5 0.098917 0.650929 0.816872
O O1 0.750000 0.250000 0.250000
O O2 0.599427 0.275923 0.201258
O O3 0.621720 0.196088 0.259472
O O4 0.667073 0.228124 0.000000
O O5 0.739100 0.613378 0.500000
O O6 0.672384 0.654211 0.272036
O O7 0.673558 0.577329 0.262003
O O8 0.826070 0.621632 0.246755
O O9 0.107488 0.831946 0.500000
O O10 0.000000 0.839079 0.729308
O O11 0.000000 0.057562 0.764190
O O12 0.114851 0.000000 0.768973
O O13 0.098461 0.047757 0.000000
O O14 0.000000 0.640787 0.768462
O O15 0.102793 0.650665 0.000000
#
# Coordination Sequence:
#
# PCOD9522785 Si02
#       5
#    16  16  16  16  16
#     4  11  21  35  55  77 104 141 183 225 272 318
#     4  11  21  33  55  83 108 137 176 223 269 319
#     4  10  21  35  51  73 106 144 175 212 265 319
#     4   8  15  30  53  83 117 145 168 202 256 322
#     4  11  24  40  56  74 102 144 189 231 275 320
#
# _framework density 18.048466999999999
#
# number of rings (size 3 to 8) (size 9 to 14) (size 15 to 20)
#    0.000    1.800    2.000    3.600    0.000    4.400 
#    0.000    0.000    0.000    3.000    0.000   11.200 
#    0.000    0.000    0.000    0.000    0.000    0.000 
#
# Total GULP energy -223300.183726 kJ/mol
# GULP energy per Si atom -5582.504593 kJ/mol
# Density = 1.800739 g / cm^3
# Si number density = 18.048467 Si / 1000 Ang^3
#
#
#
# Elastic Constant Matrix: (Units=GPa)
#
#
# Indices 1 2 3 4 5 6 
#
# 1 177.8829 67.4633 46.8837 0.0000 -0.0012 -0.0003
# 2 67.4633 94.9399 25.0526 -0.0002 -0.0007 0.0000
# 3 46.8837 25.0526 37.3805 0.0051 -0.0098 -0.0005
# 4 0.0000 -0.0002 0.0051 14.2759 -0.0002 0.0000
# 5 -0.0012 -0.0007 -0.0098 -0.0002 22.8147 0.0006
# 6 -0.0003 0.0000 -0.0005 0.0000 0.0006 25.8908
#
#
#
# Elastic Compliance Matrix: (Units=1/GPa)
#
#
# Indices 1 2 3 4 5 6 
#
# 1 0.009760 -0.004501 -0.009225 0.000003 -0.000004 0.000000
# 2 -0.004501 0.014872 -0.004322 0.000002 -0.000002 0.000000
# 3 -0.009225 -0.004322 0.041218 -0.000015 0.000017 0.000001
# 4 0.000003 0.000002 -0.000015 0.070048 0.000001 0.000000
# 5 -0.000004 -0.000002 0.000017 0.000001 0.043831 -0.000001
# 6 0.000000 0.000000 0.000001 0.000000 -0.000001 0.038624
#
#
# Mechanical properties :
#
#
# Convention : Reuss Voigt Hill
#
# Bulk Modulus (GPa) = 33.60770 65.44474 49.52622
# Shear Modulus (GPa) = 18.91313 23.98320 21.44816
#
# Velocity S-wave (km/s) = 3.24065 3.64926 3.45101
# Velocity P-wave (km/s) = 5.71521 7.35496 6.58631
#
# Compressibility (1/GPa) = 0.02975508
#
# Stress axis : x y z
#
# Youngs Moduli (GPa) = 102.45795 67.24096 24.26117
#
# Poissons Ratio (x) = 0.30267 0.22380
# Poissons Ratio (y) = 0.46119 0.10485
# Poissons Ratio (z) = 0.94514 0.29059
#
# Static dielectric constant tensor:
#      x y z
#    x 1.629750 0.000000 0.000000 
#    y 0.000000 1.621110 0.000000 
#    z 0.000000 0.000000 1.615000 
# 
# From -- ./inp_files/8643.got.cif
#   From: 2010.05.17/outbox.cif.g08.bks.cpg/sg71_5_cif.got.tgz:8643.got - 2010.06.03 16:22:01.
