data_PCOD9522710
_publ_section_title
;
Structure prediction by ZEFSAII (Michael W. Deem and Ramdas Pophale) SiO2 
 PCOD9522710
Probable space group: I M M M
;
_chemical_formula_sum "Si O2"
_cell_formula_units_Z 96
_cell_length_a 11.203659
_cell_length_b 13.569246
_cell_length_c 37.801157
_cell_angle_alpha 90.000000
_cell_angle_beta 90.000000
_cell_angle_gamma 90.000000
_cell_volume 5746.728645
_symmetry_space_group_name_H-M "I M M M"
_symmetry_group_IT_number 71
_symmetry_cell_setting 'orthorhombic'
loop_
_space_group_symop_operation_xyz
x,y,z
-x,-y,z
x,-y,-z
-x,y,-z
-x,-y,-z
x,y,-z
-x,y,z
x,-y,z
1/2+x,1/2+y,1/2+z
1/2-x,1/2-y,1/2+z
1/2+x,1/2-y,1/2-z
1/2-x,1/2+y,1/2-z
1/2-x,1/2-y,1/2-z
1/2+x,1/2+y,1/2-z
1/2-x,1/2+y,1/2+z
1/2+x,1/2-y,1/2+z
loop_
_atom_site_type_symbol
_atom_site_label
_atom_site_fract_x
_atom_site_fract_y
_atom_site_fract_z
Si Si1 0.500000 0.881726 0.242286
Si Si2 0.858350 0.880935 0.909196
Si Si3 0.000000 0.383631 0.825187
Si Si4 0.640554 0.387153 0.804431
Si Si5 0.865390 0.380592 0.458788
Si Si6 0.738404 0.617253 0.274451
Si Si7 0.797591 0.242284 0.840072
O O1 0.500000 0.856424 0.283553
O O2 0.377452 0.852281 0.224260
O O3 0.500000 0.000000 0.241577
O O4 0.755175 0.852006 0.937674
O O5 0.815010 0.828295 0.873251
O O6 0.000000 0.856546 0.916407
O O7 0.854360 0.000000 0.905559
O O8 0.111807 0.332369 0.842637
O O9 0.000000 0.500000 0.827825
O O10 0.500000 0.388467 0.799603
O O11 0.678949 0.500000 0.814022
O O12 0.697885 0.366339 0.765865
O O13 0.677088 0.302834 0.832047
O O14 0.855454 0.351560 0.500000
O O15 0.867100 0.500000 0.457645
O O16 0.000000 0.349202 0.446143
O O17 0.726758 0.500000 0.280995
O O18 0.674318 0.678010 0.304948
#
# Coordination Sequence:
#
# PCOD9522710 Si02
#       7
#     8  16   8  16  16  16  16
#     4   9  18  34  50  67  89 118 165 218 252 296
#     4  10  21  35  50  78 114 140 173 213 249 299
#     4  11  22  36  53  69  86 120 174 222 256 307
#     4  10  22  36  50  70  93 121 169 226 268 310
#     4   8  15  31  55  79 107 146 180 201 233 287
#     4  10  21  34  49  70  95 124 165 211 259 316
#     4  12  22  33  52  69  96 135 166 203 268 313
#
# _framework density 16.705155999999999
#
# number of rings (size 3 to 8) (size 9 to 14) (size 15 to 20)
#    0.000    2.000    2.500    2.000    2.333    1.000 
#    0.000    1.667    0.000    0.000    0.000    0.000 
#    0.000    3.333    0.000    9.167    0.000    0.667 
#
# Total GULP energy -267326.204359 kJ/mol
# GULP energy per Si atom -5569.295924 kJ/mol
# Density = 1.666713 g / cm^3
# Si number density = 16.705156 Si / 1000 Ang^3
#
#
#
# Elastic Constant Matrix: (Units=GPa)
#
#
# Indices 1 2 3 4 5 6 
#
# 1 114.4576 33.9660 48.5690 0.0000 0.0000 0.0000
# 2 33.9660 62.7238 25.9179 0.0000 0.0000 0.0000
# 3 48.5690 25.9179 63.5330 0.0000 0.0000 0.0000
# 4 0.0000 0.0000 0.0000 15.1434 0.0000 0.0000
# 5 0.0000 0.0000 0.0000 0.0000 30.8851 0.0000
# 6 0.0000 0.0000 0.0000 0.0000 0.0000 25.4647
#
#
#
# Elastic Compliance Matrix: (Units=1/GPa)
#
#
# Indices 1 2 3 4 5 6 
#
# 1 0.013608 -0.003693 -0.008896 0.000000 0.000000 0.000000
# 2 -0.003693 0.020177 -0.005408 0.000000 0.000000 0.000000
# 3 -0.008896 -0.005408 0.024747 0.000000 0.000000 0.000000
# 4 0.000000 0.000000 0.000000 0.066035 0.000000 0.000000
# 5 0.000000 0.000000 0.000000 0.000000 0.032378 0.000000
# 6 0.000000 0.000000 0.000000 0.000000 0.000000 0.039270
#
#
# Mechanical properties :
#
#
# Convention : Reuss Voigt Hill
#
# Bulk Modulus (GPa) = 44.37030 50.84669 47.60849
# Shear Modulus (GPa) = 20.85747 23.11610 21.98678
#
# Velocity S-wave (km/s) = 3.53734 3.72394 3.63184
# Velocity P-wave (km/s) = 6.58044 6.99958 6.79324
#
# Compressibility (1/GPa) = 0.02253760
#
# Stress axis : x y z
#
# Youngs Moduli (GPa) = 73.48739 49.56061 40.40897
#
# Poissons Ratio (x) = 0.18302 0.35949
# Poissons Ratio (y) = 0.27138 0.21854
# Poissons Ratio (z) = 0.65376 0.26803
#
# Static dielectric constant tensor:
#      x y z
#    x 1.515410 0.000000 0.000000 
#    y 0.000000 1.583400 0.000000 
#    z 0.000000 0.000000 1.548680 
# 
# From -- ./inp_files/69265.got.cif
#   From: 2010.05.17/outbox.cif.g08.bks.cpg/sg71_35_cif.got.tgz:69265.got - 2010.06.03 16:22:01.
