data_PCOD9522935
_publ_section_title
;
Structure prediction by ZEFSAII (Michael W. Deem and Ramdas Pophale) SiO2 
 PCOD9522935
Probable space group: I M M M
;
_chemical_formula_sum "Si O2"
_cell_formula_units_Z 104
_cell_length_a 9.526584
_cell_length_b 29.135704
_cell_length_c 20.086197
_cell_angle_alpha 90.000000
_cell_angle_beta 90.000000
_cell_angle_gamma 90.000000
_cell_volume 5575.199792
_symmetry_space_group_name_H-M "I M M M"
_symmetry_group_IT_number 71
_symmetry_cell_setting 'orthorhombic'
loop_
_space_group_symop_operation_xyz
x,y,z
-x,-y,z
x,-y,-z
-x,y,-z
-x,-y,-z
x,y,-z
-x,y,z
x,-y,z
1/2+x,1/2+y,1/2+z
1/2-x,1/2-y,1/2+z
1/2+x,1/2-y,1/2-z
1/2-x,1/2+y,1/2-z
1/2-x,1/2-y,1/2-z
1/2+x,1/2+y,1/2-z
1/2-x,1/2+y,1/2+z
1/2+x,1/2-y,1/2+z
loop_
_atom_site_type_symbol
_atom_site_label
_atom_site_fract_x
_atom_site_fract_y
_atom_site_fract_z
Si Si1 0.656813 0.000000 0.919739
Si Si2 0.661035 0.226693 0.807053
Si Si3 0.829363 0.446682 0.805878
Si Si4 0.833211 0.727265 0.079473
Si Si5 0.170511 0.379336 0.076152
Si Si6 0.164413 0.089192 0.922163
Si Si7 0.839982 0.621850 0.687020
O O1 0.747303 0.955854 0.903261
O O2 0.500000 0.000000 0.890985
O O3 0.644662 0.000000 0.000000
O O4 0.500000 0.242815 0.810820
O O5 0.750000 0.250000 0.750000
O O6 0.739189 0.239351 0.875921
O O7 0.655764 0.173286 0.786500
O O8 0.781975 0.500000 0.803499
O O9 0.782123 0.417382 0.870502
O O10 0.794445 0.415894 0.741166
O O11 0.000000 0.447871 0.807794
O O12 0.794354 0.673640 0.093362
O O13 0.000000 0.732882 0.094361
O O14 0.815804 0.734501 0.000000
O O15 0.000000 0.380674 0.075940
O O16 0.216509 0.388589 0.000000
O O17 0.232874 0.125492 0.873941
O O18 0.000000 0.082328 0.911724
O O19 0.186232 0.098992 0.000000
O O20 0.000000 0.610386 0.664859
#
# Coordination Sequence:
#
# PCOD9522935 Si02
#       7
#     8  16  16  16  16  16  16
#     4   9  17  31  53  77 101 135 176 215 260 315
#     4  11  23  38  57  80 109 145 187 234 282 338
#     4   9  17  29  47  73 104 137 177 222 263 310
#     4   9  18  34  57  83 112 146 181 220 274 339
#     4   8  14  27  49  77 109 142 172 208 261 323
#     4  10  21  36  54  78 107 138 178 229 277 322
#     4  10  22  37  53  76 106 143 184 227 277 331
#
# _framework density 18.654039999999998
#
# number of rings (size 3 to 8) (size 9 to 14) (size 15 to 20)
#    0.000    2.538    0.000    3.000    1.077    6.769 
#    0.000    4.615    0.000    0.000    0.000    0.000 
#    0.000    0.000    0.000    9.385    0.000    9.231 
#
# Total GULP energy -289750.325302 kJ/mol
# GULP energy per Si atom -5572.121640 kJ/mol
# Density = 1.861158 g / cm^3
# Si number density = 18.654040 Si / 1000 Ang^3
#
#
#
# Elastic Constant Matrix: (Units=GPa)
#
#
# Indices 1 2 3 4 5 6 
#
# 1 56.2178 25.7426 46.7795 0.0000 0.0000 0.0000
# 2 25.7426 91.8928 46.8169 0.0000 0.0000 0.0000
# 3 46.7795 46.8169 84.3533 0.0000 0.0000 0.0000
# 4 0.0000 0.0000 0.0000 34.5769 0.0000 0.0000
# 5 0.0000 0.0000 0.0000 0.0000 21.6633 0.0000
# 6 0.0000 0.0000 0.0000 0.0000 0.0000 31.7697
#
#
#
# Elastic Compliance Matrix: (Units=1/GPa)
#
#
# Indices 1 2 3 4 5 6 
#
# 1 0.033031 0.000110 -0.018379 0.000000 0.000000 0.000000
# 2 0.000110 0.015173 -0.008482 0.000000 0.000000 0.000000
# 3 -0.018379 -0.008482 0.026755 0.000000 0.000000 0.000000
# 4 0.000000 0.000000 0.000000 0.028921 0.000000 0.000000
# 5 0.000000 0.000000 0.000000 0.000000 0.046161 0.000000
# 6 0.000000 0.000000 0.000000 0.000000 0.000000 0.031477
#
#
# Mechanical properties :
#
#
# Convention : Reuss Voigt Hill
#
# Bulk Modulus (GPa) = 46.60518 52.34912 49.47715
# Shear Modulus (GPa) = 20.64649 25.14361 22.89505
#
# Velocity S-wave (km/s) = 3.33049 3.67535 3.50716
# Velocity P-wave (km/s) = 6.31092 6.79227 6.55602
#
# Compressibility (1/GPa) = 0.02145684
#
# Stress axis : x y z
#
# Youngs Moduli (GPa) = 30.27471 65.90729 37.37595
#
# Poissons Ratio (x) = -0.00728 0.68694
# Poissons Ratio (y) = -0.00335 0.31704
# Poissons Ratio (z) = 0.55642 0.55905
#
# Static dielectric constant tensor:
#      x y z
#    x 1.624530 0.000000 0.000000 
#    y 0.000000 1.661010 0.000000 
#    z 0.000000 0.000000 1.694560 
# 
# From -- ./inp_files/50879.got.cif
#   From: 2010.05.17/outbox.cif.g08.bks.cpg/sg71_26_cif.got.tgz:50879.got - 2010.06.03 16:22:01.
