data_PCOD9522361
_publ_section_title
;
Structure prediction by ZEFSAII (Michael W. Deem and Ramdas Pophale) SiO2 
 PCOD9522361
Probable space group: I M M M
;
_chemical_formula_sum "Si O2"
_cell_formula_units_Z 96
_cell_length_a 12.864573
_cell_length_b 20.526845
_cell_length_c 19.999233
_cell_angle_alpha 90.000000
_cell_angle_beta 90.000000
_cell_angle_gamma 90.000000
_cell_volume 5281.179378
_symmetry_space_group_name_H-M "I M M M"
_symmetry_group_IT_number 71
_symmetry_cell_setting 'orthorhombic'
loop_
_space_group_symop_operation_xyz
x,y,z
-x,-y,z
x,-y,-z
-x,y,-z
-x,-y,-z
x,y,-z
-x,y,z
x,-y,z
1/2+x,1/2+y,1/2+z
1/2-x,1/2-y,1/2+z
1/2+x,1/2-y,1/2-z
1/2-x,1/2+y,1/2-z
1/2-x,1/2-y,1/2-z
1/2+x,1/2+y,1/2-z
1/2-x,1/2+y,1/2+z
1/2+x,1/2-y,1/2+z
loop_
_atom_site_type_symbol
_atom_site_label
_atom_site_fract_x
_atom_site_fract_y
_atom_site_fract_z
Si Si1 0.696599 0.076654 0.924875
Si Si2 0.811642 0.426924 0.824001
Si Si3 0.500000 0.165653 0.699659
Si Si4 0.166553 0.074510 0.197945
Si Si5 0.381225 0.595995 0.076884
Si Si6 0.500000 0.316182 0.730188
Si Si7 0.500000 0.143452 0.140168
Si Si8 0.000000 0.211033 0.388272
O O1 0.796427 0.083098 0.877874
O O2 0.601613 0.107758 0.885687
O O3 0.675016 0.000000 0.929224
O O4 0.708297 0.102485 0.000000
O O5 0.856678 0.500000 0.832087
O O6 0.762272 0.422788 0.749932
O O7 0.712745 0.421804 0.874496
O O8 0.898083 0.370634 0.830244
O O9 0.500000 0.244873 0.694950
O O10 0.500000 0.150871 0.779647
O O11 0.095517 0.135874 0.214970
O O12 0.123893 0.000000 0.205728
O O13 0.500000 0.572687 0.096080
O O14 0.400967 0.673684 0.081401
O O15 0.362621 0.577061 0.000000
O O16 0.500000 0.302615 0.809187
O O17 0.500000 0.213207 0.104413
#
# Coordination Sequence:
#
# PCOD9522361 Si02
#       8
#    16  16   8  16  16   8   8   8
#     4  10  21  35  53  82 115 146 188 240 289 344
#     4  11  22  38  60  86 118 156 199 244 291 348
#     4  11  25  38  57  87 121 163 201 240 285 349
#     4  10  20  36  60  86 113 148 193 243 296 347
#     4   9  19  38  61  89 120 146 184 243 307 352
#     4  11  21  38  60  87 117 151 197 247 292 342
#     4  11  20  33  55  80 114 156 191 227 287 348
#     4   9  19  34  54  85 118 146 182 238 294 351
#
# _framework density 18.177758000000001
#
# number of rings (size 3 to 8) (size 9 to 14) (size 15 to 20)
#    0.500    1.333    3.333    1.000    0.000    5.333 
#    0.000    1.667    0.000    4.000    0.000    0.000 
#    0.000    0.000    0.000    0.000    0.000    0.000 
#
# Total GULP energy -267274.744207 kJ/mol
# GULP energy per Si atom -5568.223838 kJ/mol
# Density = 1.813638 g / cm^3
# Si number density = 18.177758 Si / 1000 Ang^3
#
#
#
# Elastic Constant Matrix: (Units=GPa)
#
#
# Indices 1 2 3 4 5 6 
#
# 1 74.0173 52.1361 29.4094 0.0000 0.0000 0.0000
# 2 52.1361 92.4581 24.6395 0.0000 0.0000 0.0000
# 3 29.4094 24.6395 80.6790 0.0000 0.0000 0.0000
# 4 0.0000 0.0000 0.0000 8.0635 0.0000 0.0000
# 5 0.0000 0.0000 0.0000 0.0000 15.0712 0.0000
# 6 0.0000 0.0000 0.0000 0.0000 0.0000 30.4727
#
#
#
# Elastic Compliance Matrix: (Units=1/GPa)
#
#
# Indices 1 2 3 4 5 6 
#
# 1 0.024172 -0.012282 -0.005060 0.000000 0.000000 0.000000
# 2 -0.012282 0.018014 -0.001025 0.000000 0.000000 0.000000
# 3 -0.005060 -0.001025 0.014552 0.000000 0.000000 0.000000
# 4 0.000000 0.000000 0.000000 0.124016 0.000000 0.000000
# 5 0.000000 0.000000 0.000000 0.000000 0.066352 0.000000
# 6 0.000000 0.000000 0.000000 0.000000 0.000000 0.032816
#
#
# Mechanical properties :
#
#
# Convention : Reuss Voigt Hill
#
# Bulk Modulus (GPa) = 49.98717 51.05826 50.52271
# Shear Modulus (GPa) = 15.46435 20.11944 17.79189
#
# Velocity S-wave (km/s) = 2.91989 3.33049 3.13193
# Velocity P-wave (km/s) = 6.23911 6.55278 6.39786
#
# Compressibility (1/GPa) = 0.02000513
#
# Stress axis : x y z
#
# Youngs Moduli (GPa) = 41.37025 55.51152 68.71743
#
# Poissons Ratio (x) = 0.68178 0.34774
# Poissons Ratio (y) = 0.50810 0.07041
# Poissons Ratio (z) = 0.20935 0.05688
#
# Static dielectric constant tensor:
#      x y z
#    x 1.610000 0.000000 0.000000 
#    y 0.000000 1.656240 0.000000 
#    z 0.000000 0.000000 1.633940 
# 
# From -- ./inp_files/52077.got.cif
#   From: 2010.05.17/outbox.cif.g08.bks.cpg/sg71_27_cif.got.tgz:52077.got - 2010.06.03 16:22:01.
