data_PCOD9522743
_publ_section_title
;
Structure prediction by ZEFSAII (Michael W. Deem and Ramdas Pophale) SiO2 
 PCOD9522743
Probable space group: I M M M
;
_chemical_formula_sum "Si O2"
_cell_formula_units_Z 58
_cell_length_a 8.740898
_cell_length_b 14.710361
_cell_length_c 26.091003
_cell_angle_alpha 90.000000
_cell_angle_beta 90.000000
_cell_angle_gamma 90.000000
_cell_volume 3354.827218
_symmetry_space_group_name_H-M "I M M M"
_symmetry_group_IT_number 71
_symmetry_cell_setting 'orthorhombic'
loop_
_space_group_symop_operation_xyz
x,y,z
-x,-y,z
x,-y,-z
-x,y,-z
-x,-y,-z
x,y,-z
-x,y,z
x,-y,z
1/2+x,1/2+y,1/2+z
1/2-x,1/2-y,1/2+z
1/2+x,1/2-y,1/2-z
1/2-x,1/2+y,1/2-z
1/2-x,1/2-y,1/2-z
1/2+x,1/2+y,1/2-z
1/2-x,1/2+y,1/2+z
1/2+x,1/2-y,1/2+z
loop_
_atom_site_type_symbol
_atom_site_label
_atom_site_fract_x
_atom_site_fract_y
_atom_site_fract_z
Si Si1 0.500000 0.000000 0.000000
Si Si2 0.182569 0.195564 0.108689
Si Si3 0.682301 0.000000 0.730825
Si Si4 0.317176 0.692563 0.202362
Si Si5 0.682800 0.500000 0.344274
Si Si6 0.331286 0.810648 0.000000
O O1 0.630658 0.918534 0.000000
O O2 0.262758 0.259434 0.150365
O O3 0.219184 0.091256 0.124574
O O4 0.241925 0.212512 0.051637
O O5 0.000000 0.206741 0.111914
O O6 0.752749 0.909085 0.706775
O O7 0.500000 0.000000 0.725737
O O8 0.728337 0.000000 0.790809
O O9 0.500000 0.692143 0.206041
O O10 0.250000 0.750000 0.250000
O O11 0.500000 0.500000 0.333354
O O12 0.500000 0.766042 0.000000
#
# Coordination Sequence:
#
# PCOD9522743 Si02
#       6
#     2  16   8  16   8   8
#     4   8  20  36  58  84 128 154 210 240 300 358
#     4  11  22  38  60  86 120 160 207 249 299 358
#     4  12  24  39  60  87 121 159 199 249 306 359
#     4  12  24  40  60  88 120 158 202 250 303 363
#     4  10  21  34  55  84 121 162 198 246 297 354
#     4  10  21  37  55  84 118 161 198 250 294 356
#
# _framework density 17.288519999999998
#
# number of rings (size 3 to 8) (size 9 to 14) (size 15 to 20)
#    0.414    0.552    2.759    5.793    0.000    1.103 
#    0.000    2.759    0.000    0.828    0.000    5.793 
#    0.000    0.000    0.000    0.000    0.000    0.000 
#
# Total GULP energy -161802.514562 kJ/mol
# GULP energy per Si atom -5579.397054 kJ/mol
# Density = 1.724917 g / cm^3
# Si number density = 17.288520 Si / 1000 Ang^3
#
#
#
# Elastic Constant Matrix: (Units=GPa)
#
#
# Indices 1 2 3 4 5 6 
#
# 1 136.5312 71.5445 81.2271 0.0000 0.0000 0.0000
# 2 71.5445 129.7383 72.0385 0.0000 0.0000 0.0000
# 3 81.2271 72.0385 156.0157 0.0000 0.0000 0.0000
# 4 0.0000 0.0000 0.0000 9.3689 0.0000 0.0000
# 5 0.0000 0.0000 0.0000 0.0000 33.5315 0.0000
# 6 0.0000 0.0000 0.0000 0.0000 0.0000 27.5002
#
#
#
# Elastic Compliance Matrix: (Units=1/GPa)
#
#
# Indices 1 2 3 4 5 6 
#
# 1 0.012161 -0.004291 -0.004350 0.000000 0.000000 0.000000
# 2 -0.004291 0.011879 -0.003251 0.000000 0.000000 0.000000
# 3 -0.004350 -0.003251 0.010176 0.000000 0.000000 0.000000
# 4 0.000000 0.000000 0.000000 0.106736 0.000000 0.000000
# 5 0.000000 0.000000 0.000000 0.000000 0.029823 0.000000
# 6 0.000000 0.000000 0.000000 0.000000 0.000000 0.036363
#
#
# Mechanical properties :
#
#
# Convention : Reuss Voigt Hill
#
# Bulk Modulus (GPa) = 95.86270 96.87837 96.37053
# Shear Modulus (GPa) = 21.33119 27.24512 24.28816
#
# Velocity S-wave (km/s) = 3.51641 3.97408 3.75223
# Velocity P-wave (km/s) = 8.48858 8.78724 8.63920
#
# Compressibility (1/GPa) = 0.01043159
#
# Stress axis : x y z
#
# Youngs Moduli (GPa) = 82.23194 84.18094 98.27353
#
# Poissons Ratio (x) = 0.36119 0.42750
# Poissons Ratio (y) = 0.35282 0.31951
# Poissons Ratio (z) = 0.35772 0.27369
#
# Static dielectric constant tensor:
#      x y z
#    x 1.586210 0.000000 0.000000 
#    y 0.000000 1.570430 0.000000 
#    z 0.000000 0.000000 1.561940 
# 
# From -- ./inp_files/5420.got.cif
#   From: 2010.05.17/outbox.cif.g08.bks.cpg/sg71_3_cif.got.tgz:5420.got - 2010.06.03 16:22:01.
