data_PCOD9522684
_publ_section_title
;
Structure prediction by ZEFSAII (Michael W. Deem and Ramdas Pophale) SiO2 
 PCOD9522684
Probable space group: I M M M
;
_chemical_formula_sum "Si O2"
_cell_formula_units_Z 120
_cell_length_a 21.578409
_cell_length_b 23.537857
_cell_length_c 14.415512
_cell_angle_alpha 90.000000
_cell_angle_beta 90.000000
_cell_angle_gamma 90.000000
_cell_volume 7321.775569
_symmetry_space_group_name_H-M "I M M M"
_symmetry_group_IT_number 71
_symmetry_cell_setting 'orthorhombic'
loop_
_space_group_symop_operation_xyz
x,y,z
-x,-y,z
x,-y,-z
-x,y,-z
-x,-y,-z
x,y,-z
-x,y,z
x,-y,z
1/2+x,1/2+y,1/2+z
1/2-x,1/2-y,1/2+z
1/2+x,1/2-y,1/2-z
1/2-x,1/2+y,1/2-z
1/2-x,1/2-y,1/2-z
1/2+x,1/2+y,1/2-z
1/2-x,1/2+y,1/2+z
1/2+x,1/2-y,1/2+z
loop_
_atom_site_type_symbol
_atom_site_label
_atom_site_fract_x
_atom_site_fract_y
_atom_site_fract_z
Si Si1 0.000000 0.067903 0.108926
Si Si2 0.611847 0.621538 0.721329
Si Si3 0.068714 0.319010 0.387465
Si Si4 0.693369 0.121898 0.890803
Si Si5 0.754643 0.328482 0.891818
Si Si6 0.739537 0.563756 0.765611
Si Si7 0.693962 0.290409 0.610041
Si Si8 0.106987 0.191070 0.607419
O O1 0.939763 0.093685 0.157944
O O2 0.000000 0.000000 0.118889
O O3 0.000000 0.081703 0.000000
O O4 0.667987 0.578271 0.742582
O O5 0.643796 0.674978 0.668655
O O6 0.585389 0.644812 0.818461
O O7 0.068874 0.321841 0.500000
O O8 0.125905 0.357945 0.357586
O O9 0.082937 0.253297 0.365995
O O10 0.000000 0.334852 0.354499
O O11 0.721588 0.072526 0.828359
O O12 0.741624 0.174548 0.880950
O O13 0.691152 0.107778 0.000000
O O14 0.761431 0.385890 0.833902
O O15 0.794109 0.274201 0.858769
O O16 0.682094 0.310549 0.887175
O O17 0.768892 0.338041 0.000000
O O18 0.745647 0.500000 0.801843
O O19 0.678816 0.290278 0.500000
O O20 0.089881 0.179960 0.500000
#
# Coordination Sequence:
#
# PCOD9522684 Si02
#       8
#     8  16  16  16  16  16  16  16
#     4  11  24  42  57  69  95 135 175 213 251 292
#     4  10  21  33  53  73  97 129 168 209 251 291
#     4   9  16  26  43  69 102 130 153 181 225 289
#     4   9  17  29  47  70  99 125 152 195 242 290
#     4   9  17  30  49  71 100 131 158 200 253 297
#     4  10  21  33  48  70  95 127 171 207 237 288
#     4   9  16  29  49  74  98 122 159 204 255 302
#     4   9  17  29  46  73 106 133 158 191 239 296
#
# _framework density 16.389467
#
# number of rings (size 3 to 8) (size 9 to 14) (size 15 to 20)
#    0.000    2.600    1.333    0.800    2.800    2.667 
#    0.000    0.000    0.000    2.000    0.000    1.867 
#    0.000    0.000    0.000    1.200    0.000    0.133 
#
# Total GULP energy -334520.294411 kJ/mol
# GULP energy per Si atom -5575.338240 kJ/mol
# Density = 1.635216 g / cm^3
# Si number density = 16.389467 Si / 1000 Ang^3
#
#
#
# Elastic Constant Matrix: (Units=GPa)
#
#
# Indices 1 2 3 4 5 6 
#
# 1 57.3364 17.8929 19.5961 0.0000 0.0000 0.0000
# 2 17.8929 78.4747 27.0838 0.0000 0.0000 0.0000
# 3 19.5961 27.0838 57.6308 0.0000 0.0000 0.0000
# 4 0.0000 0.0000 0.0000 20.5706 0.0000 0.0000
# 5 0.0000 0.0000 0.0000 0.0000 15.8990 0.0000
# 6 0.0000 0.0000 0.0000 0.0000 0.0000 13.7922
#
#
#
# Elastic Compliance Matrix: (Units=1/GPa)
#
#
# Indices 1 2 3 4 5 6 
#
# 1 0.020191 -0.002667 -0.005612 0.000000 0.000000 0.000000
# 2 -0.002667 0.015562 -0.006407 0.000000 0.000000 0.000000
# 3 -0.005612 -0.006407 0.022271 0.000000 0.000000 0.000000
# 4 0.000000 0.000000 0.000000 0.048613 0.000000 0.000000
# 5 0.000000 0.000000 0.000000 0.000000 0.062897 0.000000
# 6 0.000000 0.000000 0.000000 0.000000 0.000000 0.072505
#
#
# Mechanical properties :
#
#
# Convention : Reuss Voigt Hill
#
# Bulk Modulus (GPa) = 34.90061 35.84306 35.37184
# Shear Modulus (GPa) = 17.79600 18.64364 18.21982
#
# Velocity S-wave (km/s) = 3.29875 3.37640 3.33780
# Velocity P-wave (km/s) = 5.98747 6.09238 6.04015
#
# Compressibility (1/GPa) = 0.02865279
#
# Stress axis : x y z
#
# Youngs Moduli (GPa) = 49.52624 64.25854 44.90131
#
# Poissons Ratio (x) = 0.17136 0.25200
# Poissons Ratio (y) = 0.13208 0.28767
# Poissons Ratio (z) = 0.27796 0.41168
#
# Static dielectric constant tensor:
#      x y z
#    x 1.551390 0.000000 0.000000 
#    y 0.000000 1.536240 0.000000 
#    z 0.000000 0.000000 1.580630 
# 
# From -- ./inp_files/38402.got.cif
#   From: 2010.05.17/outbox.cif.g08.bks.cpg/sg71_20_cif.got.tgz:38402.got - 2010.06.03 16:22:01.
