data_PCOD9522604
_publ_section_title
;
Structure prediction by ZEFSAII (Michael W. Deem and Ramdas Pophale) SiO2 
 PCOD9522604
Probable space group: I M M M
;
_chemical_formula_sum "Si O2"
_cell_formula_units_Z 80
_cell_length_a 7.821154
_cell_length_b 22.363304
_cell_length_c 22.434493
_cell_angle_alpha 90.000000
_cell_angle_beta 90.000000
_cell_angle_gamma 90.000000
_cell_volume 3923.946379
_symmetry_space_group_name_H-M "I M M M"
_symmetry_group_IT_number 71
_symmetry_cell_setting 'orthorhombic'
loop_
_space_group_symop_operation_xyz
x,y,z
-x,-y,z
x,-y,-z
-x,y,-z
-x,-y,-z
x,y,-z
-x,y,z
x,-y,z
1/2+x,1/2+y,1/2+z
1/2-x,1/2-y,1/2+z
1/2+x,1/2-y,1/2-z
1/2-x,1/2+y,1/2-z
1/2-x,1/2-y,1/2-z
1/2+x,1/2+y,1/2-z
1/2-x,1/2+y,1/2+z
1/2+x,1/2-y,1/2+z
loop_
_atom_site_type_symbol
_atom_site_label
_atom_site_fract_x
_atom_site_fract_y
_atom_site_fract_z
Si Si1 0.794239 0.500000 0.431459
Si Si2 0.709956 0.569706 0.766701
Si Si3 0.703311 0.765066 0.068016
Si Si4 0.297091 0.358837 0.117714
Si Si5 0.794332 0.431181 0.000000
Si Si6 0.299091 0.618139 0.359607
O O1 0.738704 0.500000 0.500000
O O2 0.730018 0.441083 0.398486
O O3 0.000000 0.500000 0.429807
O O4 0.500000 0.568894 0.766303
O O5 0.762996 0.500000 0.767328
O O6 0.770216 0.605821 0.824781
O O7 0.768108 0.602670 0.706371
O O8 0.500000 0.755432 0.062371
O O9 0.774103 0.706931 0.102419
O O10 0.726643 0.824976 0.105843
O O11 0.771366 0.769945 0.000000
O O12 0.500000 0.352346 0.128409
O O13 0.270631 0.398075 0.058759
O O14 0.738825 0.500000 0.000000
O O15 0.000000 0.429159 0.000000
O O16 0.500000 0.629106 0.353651
#
# Coordination Sequence:
#
# PCOD9522604 Si02
#       6
#     8  16  16  16   8  16
#     4  11  23  39  59  85 115 152 199 250 295 343
#     4   9  18  35  59  87 117 148 192 248 291 341
#     4  10  21  38  57  84 119 153 197 248 290 340
#     4  10  20  38  64  86 110 157 205 239 285 353
#     4  11  23  37  55  87 127 154 187 250 307 343
#     4  11  22  37  59  87 118 155 194 239 298 355
#
# _framework density 20.387637999999999
#
# number of rings (size 3 to 8) (size 9 to 14) (size 15 to 20)
#    0.000    1.800    2.000    2.400    0.000    6.800 
#    0.000    2.000    0.000    0.000    0.000    0.000 
#    0.000    0.000    0.000    0.000    0.000    0.000 
#
# Total GULP energy -223439.843418 kJ/mol
# GULP energy per Si atom -5585.996085 kJ/mol
# Density = 2.034123 g / cm^3
# Si number density = 20.387638 Si / 1000 Ang^3
#
#
#
# Elastic Constant Matrix: (Units=GPa)
#
#
# Indices 1 2 3 4 5 6 
#
# 1 20.4372 -8.9905 -5.9678 0.0001 0.0000 0.0000
# 2 -8.9905 181.6173 92.9848 0.0007 0.0001 0.0000
# 3 -5.9678 92.9848 196.3448 0.0013 0.0000 0.0000
# 4 0.0001 0.0007 0.0013********** 0.0034 -0.0001
# 5 0.0000 0.0001 0.0000 0.0034 474.7007 0.0000
# 6 0.0000 0.0000 0.0000 -0.0001 0.0000 19.6419
#
#
#
# Elastic Compliance Matrix: (Units=1/GPa)
#
#
# Indices 1 2 3 4 5 6 
#
# 1 0.050051 0.002243 0.000459 0.000000 0.000000 0.000000
# 2 0.002243 0.007369 -0.003422 0.000000 0.000000 0.000000
# 3 0.000459 -0.003422 0.006727 0.000000 0.000000 0.000000
# 4 0.000000 0.000000 0.000000 -0.000099 0.000000 0.000000
# 5 0.000000 0.000000 0.000000 0.000000 0.002107 0.000000
# 6 0.000000 0.000000 0.000000 0.000000 0.000000 0.050912
#
#
# Mechanical properties :
#
#
# Convention : Reuss Voigt Hill
#
# Bulk Modulus (GPa) = 15.94702 61.60579 38.77641
# Shear Modulus (GPa) = 35.86577 -1901.65476 -932.89450
#
# Velocity S-wave (km/s) = 4.19882 -30.57407 -21.41429
# Velocity P-wave (km/s) = 5.59872 34.87237 24.33862
#
# Compressibility (1/GPa) = 0.06270763
#
# Stress axis : x y z
#
# Youngs Moduli (GPa) = 19.97965 135.70569 148.64510
#
# Poissons Ratio (x) = -0.30432 -0.06827
# Poissons Ratio (y) = -0.04480 0.50860
# Poissons Ratio (z) = -0.00918 0.46433
#
# Static dielectric constant tensor:
#      x y z
#    x 1.762280 0.000000 0.000000 
#    y 0.000000 1.685630 0.000000 
#    z 0.000000 0.000000 1.703560 
# 
# From -- ./inp_files/50389.got.cif
#   From: 2010.05.17/outbox.cif.g08.bks.cpg/sg71_26_cif.got.tgz:50389.got - 2010.06.03 16:22:01.
