data_PCOD9522788
_publ_section_title
;
Structure prediction by ZEFSAII (Michael W. Deem and Ramdas Pophale) SiO2 
 PCOD9522788
Probable space group: I M M M
;
_chemical_formula_sum "Si O2"
_cell_formula_units_Z 104
_cell_length_a 7.481832
_cell_length_b 21.823001
_cell_length_c 29.105033
_cell_angle_alpha 90.000000
_cell_angle_beta 90.000000
_cell_angle_gamma 90.000000
_cell_volume 4752.154160
_symmetry_space_group_name_H-M "I M M M"
_symmetry_group_IT_number 71
_symmetry_cell_setting 'orthorhombic'
loop_
_space_group_symop_operation_xyz
x,y,z
-x,-y,z
x,-y,-z
-x,y,-z
-x,-y,-z
x,y,-z
-x,y,z
x,-y,z
1/2+x,1/2+y,1/2+z
1/2-x,1/2-y,1/2+z
1/2+x,1/2-y,1/2-z
1/2-x,1/2+y,1/2-z
1/2-x,1/2-y,1/2-z
1/2+x,1/2+y,1/2-z
1/2-x,1/2+y,1/2+z
1/2+x,1/2-y,1/2+z
loop_
_atom_site_type_symbol
_atom_site_label
_atom_site_fract_x
_atom_site_fract_y
_atom_site_fract_z
Si Si1 0.217507 0.179022 0.201040
Si Si2 0.291024 0.378693 0.947984
Si Si3 0.293341 0.816385 0.693282
Si Si4 0.718072 0.379046 0.609077
Si Si5 0.706192 0.066199 0.355713
Si Si6 0.718584 0.500000 0.446351
Si Si7 0.215656 0.239631 0.052704
O O1 0.285182 0.169226 0.252466
O O2 0.279214 0.247720 0.186968
O O3 0.270491 0.130316 0.162209
O O4 0.000000 0.180133 0.203402
O O5 0.500000 0.393309 0.949389
O O6 0.206192 0.421657 0.910055
O O7 0.271151 0.307675 0.932929
O O8 0.219144 0.383146 0.000000
O O9 0.500000 0.811762 0.677842
O O10 0.209591 0.873683 0.667087
O O11 0.500000 0.379936 0.608363
O O12 0.775791 0.439372 0.581563
O O13 0.776192 0.317320 0.582946
O O14 0.500000 0.064287 0.339865
O O15 0.787100 0.000000 0.345338
O O16 0.500000 0.500000 0.446952
O O17 0.774327 0.500000 0.500000
O O18 0.000000 0.239109 0.053493
O O19 0.274371 0.231238 0.000000
#
# Coordination Sequence:
#
# PCOD9522788 Si02
#       7
#    16  16  16  16  16   8  16
#     4   9  17  30  50  74 100 129 162 205 257 303
#     4  10  21  35  51  75 106 135 164 204 252 299
#     4   9  18  34  53  73  98 127 163 209 255 299
#     4   9  16  27  44  70 103 136 171 213 258 304
#     4  10  21  37  56  76  99 132 171 207 247 294
#     4   9  16  26  42  68 105 143 175 211 258 309
#     4   9  16  28  49  74  99 131 172 215 256 297
#
# _framework density 21.884812
#
# number of rings (size 3 to 8) (size 9 to 14) (size 15 to 20)
#    0.000    2.692    0.000    1.846    0.000    6.462 
#    1.385    5.385    0.000    0.000    0.000    1.615 
#    0.000    4.923    0.000    0.000    0.000    0.000 
#
# Total GULP energy -290262.888178 kJ/mol
# GULP energy per Si atom -5581.978619 kJ/mol
# Density = 2.183500 g / cm^3
# Si number density = 21.884812 Si / 1000 Ang^3
#
#
#
# Elastic Constant Matrix: (Units=GPa)
#
#
# Indices 1 2 3 4 5 6 
#
# 1 62.9566 -2.9971 -7.9494 0.0000 0.0000 0.0000
# 2 -2.9971 97.6963 68.5377 0.0000 0.0000 0.0000
# 3 -7.9494 68.5377 91.1185 0.0000 0.0000 0.0000
# 4 0.0000 0.0000 0.0000 28.8643 0.0000 0.0000
# 5 0.0000 0.0000 0.0000 0.0000 13.9317 0.0000
# 6 0.0000 0.0000 0.0000 0.0000 0.0000 -92.6787
#
#
#
# Elastic Compliance Matrix: (Units=1/GPa)
#
#
# Indices 1 2 3 4 5 6 
#
# 1 0.016111 -0.001041 0.002189 0.000000 0.000000 0.000000
# 2 -0.001041 0.021739 -0.016442 0.000000 0.000000 0.000000
# 3 0.002189 -0.016442 0.023533 0.000000 0.000000 0.000000
# 4 0.000000 0.000000 0.000000 0.034645 0.000000 0.000000
# 5 0.000000 0.000000 0.000000 0.000000 0.071779 0.000000
# 6 0.000000 0.000000 0.000000 0.000000 0.000000 -0.010790
#
#
# Mechanical properties :
#
#
# Convention : Reuss Voigt Hill
#
# Bulk Modulus (GPa) = 32.47475 40.77263 36.62369
# Shear Modulus (GPa) = 25.26903 2.96882 14.11892
#
# Velocity S-wave (km/s) = 3.40168 1.16598 2.54273
# Velocity P-wave (km/s) = 5.50452 4.52589 5.03902
#
# Compressibility (1/GPa) = 0.03079315
#
# Stress axis : x y z
#
# Youngs Moduli (GPa) = 62.07033 46.00066 42.49291
#
# Poissons Ratio (x) = 0.04790 -0.09301
# Poissons Ratio (y) = 0.06463 0.69868
# Poissons Ratio (z) = -0.13586 0.75636
#
# Static dielectric constant tensor:
#      x y z
#    x 1.838890 0.000000 0.000000 
#    y 0.000000 1.790730 0.000000 
#    z 0.000000 0.000000 1.788680 
# 
# From -- ./inp_files/68291.got.cif
#   From: 2010.05.17/outbox.cif.g08.bks.cpg/sg71_35_cif.got.tgz:68291.got - 2010.06.03 16:22:01.
