data_PCOD9522135
_publ_section_title
;
Structure prediction by ZEFSAII (Michael W. Deem and Ramdas Pophale) SiO2 
 PCOD9522135
Probable space group: I M M M
;
_chemical_formula_sum "Si O2"
_cell_formula_units_Z 112
_cell_length_a 15.184784
_cell_length_b 14.538969
_cell_length_c 26.275481
_cell_angle_alpha 90.000000
_cell_angle_beta 90.000000
_cell_angle_gamma 90.000000
_cell_volume 5800.866944
_symmetry_space_group_name_H-M "I M M M"
_symmetry_group_IT_number 71
_symmetry_cell_setting 'orthorhombic'
loop_
_space_group_symop_operation_xyz
x,y,z
-x,-y,z
x,-y,-z
-x,y,-z
-x,-y,-z
x,y,-z
-x,y,z
x,-y,z
1/2+x,1/2+y,1/2+z
1/2-x,1/2-y,1/2+z
1/2+x,1/2-y,1/2-z
1/2-x,1/2+y,1/2-z
1/2-x,1/2-y,1/2-z
1/2+x,1/2+y,1/2-z
1/2-x,1/2+y,1/2+z
1/2+x,1/2-y,1/2+z
loop_
_atom_site_type_symbol
_atom_site_label
_atom_site_fract_x
_atom_site_fract_y
_atom_site_fract_z
Si Si1 0.810172 0.396279 0.878250
Si Si2 0.900616 0.750081 0.943200
Si Si3 0.224768 0.890225 0.102358
Si Si4 0.692779 0.690378 0.211229
Si Si5 0.598592 0.391367 0.304104
Si Si6 0.134303 0.102396 0.439691
Si Si7 0.902208 0.285477 0.621481
O O1 0.842962 0.500000 0.870784
O O2 0.880346 0.324265 0.899481
O O3 0.757530 0.362159 0.828099
O O4 0.736068 0.396864 0.922566
O O5 0.831489 0.832814 0.938083
O O6 0.000000 0.785507 0.937505
O O7 0.893039 0.708921 0.000000
O O8 0.173106 0.863604 0.154877
O O9 0.324004 0.851940 0.103013
O O10 0.222755 0.000000 0.095929
O O11 0.750000 0.750000 0.250000
O O12 0.633504 0.627241 0.247521
O O13 0.628628 0.752742 0.177183
O O14 0.500000 0.351290 0.311859
O O15 0.591216 0.500000 0.311292
O O16 0.123502 0.110577 0.500000
O O17 0.096629 0.191585 0.411735
O O18 0.101227 0.000000 0.424246
O O19 0.000000 0.325929 0.621190
#
# Coordination Sequence:
#
# PCOD9522135 Si02
#       7
#    16  16  16  16  16  16  16
#     4  10  20  35  59  91 128 163 197 241 296 361
#     4  11  23  40  64  92 121 157 203 251 305 369
#     4  11  23  42  63  84 118 158 203 260 313 360
#     4  11  19  36  59  86 120 162 199 245 292 348
#     4  10  20  35  59  88 116 150 194 243 299 359
#     4   9  18  35  61  90 121 157 192 231 288 357
#     4  11  23  38  59  89 121 157 200 247 299 357
#
# _framework density 19.307459000000001
#
# number of rings (size 3 to 8) (size 9 to 14) (size 15 to 20)
#    0.000    1.571    4.286    1.714    0.000    3.714 
#    0.000    2.857    0.000    0.000    0.000    2.000 
#    0.000    0.000    0.000    0.000    0.000    0.000 
#
# Total GULP energy -312292.630523 kJ/mol
# GULP energy per Si atom -5576.654116 kJ/mol
# Density = 1.926351 g / cm^3
# Si number density = 19.307459 Si / 1000 Ang^3
#
#
#
# Elastic Constant Matrix: (Units=GPa)
#
#
# Indices 1 2 3 4 5 6 
#
# 1 136.9012 47.2152 37.8248 0.0000 0.0000 0.0000
# 2 47.2152 92.8232 24.8145 0.0000 0.0000 0.0000
# 3 37.8248 24.8145 76.5640 0.0000 0.0000 0.0000
# 4 0.0000 0.0000 0.0000 24.7780 0.0000 0.0000
# 5 0.0000 0.0000 0.0000 0.0000 11.1879 0.0000
# 6 0.0000 0.0000 0.0000 0.0000 0.0000 2.2983
#
#
#
# Elastic Compliance Matrix: (Units=1/GPa)
#
#
# Indices 1 2 3 4 5 6 
#
# 1 0.009634 -0.003972 -0.003472 0.000000 0.000000 0.000000
# 2 -0.003972 0.013433 -0.002391 0.000000 0.000000 0.000000
# 3 -0.003472 -0.002391 0.015551 0.000000 0.000000 0.000000
# 4 0.000000 0.000000 0.000000 0.040358 0.000000 0.000000
# 5 0.000000 0.000000 0.000000 0.000000 0.089382 0.000000
# 6 0.000000 0.000000 0.000000 0.000000 0.000000 0.435105
#
#
# Mechanical properties :
#
#
# Convention : Reuss Voigt Hill
#
# Bulk Modulus (GPa) = 52.77843 58.44414 55.61128
# Shear Modulus (GPa) = 7.94344 20.74843 14.34593
#
# Velocity S-wave (km/s) = 2.03055 3.28172 2.72881
# Velocity P-wave (km/s) = 5.73521 6.68547 6.22849
#
# Compressibility (1/GPa) = 0.01894713
#
# Stress axis : x y z
#
# Youngs Moduli (GPa) = 103.80186 74.44424 64.30357
#
# Poissons Ratio (x) = 0.29570 0.22326
# Poissons Ratio (y) = 0.41231 0.15377
# Poissons Ratio (z) = 0.36040 0.17802
#
# Static dielectric constant tensor:
#      x y z
#    x 1.716490 0.000000 0.000000 
#    y 0.000000 1.680870 0.000000 
#    z 0.000000 0.000000 1.676940 
# 
# From -- ./inp_files/59926.got.cif
#   From: 2010.05.17/outbox.cif.g08.bks.cpg/sg71_30_cif.got.tgz:59926.got - 2010.06.03 16:22:01.
