data_PCOD9522382
_publ_section_title
;
Structure prediction by ZEFSAII (Michael W. Deem and Ramdas Pophale) SiO2 
 PCOD9522382
Probable space group: I M M M
;
_chemical_formula_sum "Si O2"
_cell_formula_units_Z 88
_cell_length_a 13.837153
_cell_length_b 19.589871
_cell_length_c 15.834405
_cell_angle_alpha 90.000000
_cell_angle_beta 90.000000
_cell_angle_gamma 90.000000
_cell_volume 4292.201164
_symmetry_space_group_name_H-M "I M M M"
_symmetry_group_IT_number 71
_symmetry_cell_setting 'orthorhombic'
loop_
_space_group_symop_operation_xyz
x,y,z
-x,-y,z
x,-y,-z
-x,y,-z
-x,-y,-z
x,y,-z
-x,y,z
x,-y,z
1/2+x,1/2+y,1/2+z
1/2-x,1/2-y,1/2+z
1/2+x,1/2-y,1/2-z
1/2-x,1/2+y,1/2-z
1/2-x,1/2-y,1/2-z
1/2+x,1/2+y,1/2-z
1/2-x,1/2+y,1/2+z
1/2+x,1/2-y,1/2+z
loop_
_atom_site_type_symbol
_atom_site_label
_atom_site_fract_x
_atom_site_fract_y
_atom_site_fract_z
Si Si1 0.111396 0.500000 0.378017
Si Si2 0.886402 0.641447 0.906866
Si Si3 0.000000 0.118249 0.399297
Si Si4 0.150015 0.000000 0.398292
Si Si5 0.151239 0.500000 0.183566
Si Si6 0.500000 0.773923 0.895707
Si Si7 0.691784 0.148427 0.097011
Si Si8 0.111597 0.210121 0.103748
O O1 0.114069 0.500000 0.277307
O O2 0.164653 0.430972 0.403968
O O3 0.000000 0.500000 0.406519
O O4 0.879262 0.570719 0.859172
O O5 0.853273 0.713597 0.869762
O O6 0.000000 0.654244 0.916397
O O7 0.841378 0.632532 0.000000
O O8 0.909884 0.068975 0.381286
O O9 0.000000 0.195225 0.366110
O O10 0.000000 0.126889 0.500000
O O11 0.235557 0.000000 0.332497
O O12 0.174477 0.000000 0.500000
O O13 0.598102 0.812088 0.865889
O O14 0.500000 0.777236 0.000000
O O15 0.799764 0.161732 0.131845
O O16 0.697014 0.172851 0.000000
O O17 0.000000 0.195839 0.131609
O O18 0.106898 0.210146 0.000000
#
# Coordination Sequence:
#
# PCOD9522382 Si02
#       8
#     8  16   8   8   8   8  16  16
#     4  12  25  41  54  73 110 144 181 231 283 326
#     4   9  17  31  52  79 110 140 172 210 253 312
#     4   8  16  31  53  84 116 143 177 225 274 316
#     4   9  18  32  53  80 114 151 183 223 268 314
#     4  12  23  32  50  75 107 150 187 218 260 317
#     4   9  17  29  55  89 111 133 177 232 277 324
#     4  10  20  36  61  85 104 134 180 233 284 334
#     4   8  16  32  57  87 113 134 165 219 278 326
#
# _framework density 20.502300000000002
#
# number of rings (size 3 to 8) (size 9 to 14) (size 15 to 20)
#    0.000    2.545    0.909    3.545    2.545    1.091 
#    0.000    1.364    4.000    2.182    0.000    0.000 
#    0.000    0.000    0.000    0.000    0.000    0.000 
#
# Total GULP energy -244980.054795 kJ/mol
# GULP energy per Si atom -5567.728518 kJ/mol
# Density = 2.045564 g / cm^3
# Si number density = 20.502300 Si / 1000 Ang^3
#
#
#
# Elastic Constant Matrix: (Units=GPa)
#
#
# Indices 1 2 3 4 5 6 
#
# 1 139.0918 77.1504 13.2460 0.0000 0.0000 -0.0004
# 2 77.1504 144.3108 2.7874 0.0000 0.0000 0.0016
# 3 13.2460 2.7874 25.4369 0.0002 0.0000 0.0035
# 4 0.0000 0.0000 0.0002 -108.9202 0.0000 0.0055
# 5 0.0000 0.0000 0.0000 0.0000 11.5061 -0.0002
# 6 -0.0004 0.0016 0.0035 0.0055 -0.0002 5747.8312
#
#
#
# Elastic Compliance Matrix: (Units=1/GPa)
#
#
# Indices 1 2 3 4 5 6 
#
# 1 0.010822 -0.005689 -0.005012 0.000000 0.000000 0.000000
# 2 -0.005689 0.009935 0.001874 0.000000 0.000000 0.000000
# 3 -0.005012 0.001874 0.041718 0.000000 0.000000 0.000000
# 4 0.000000 0.000000 0.000000 -0.009181 0.000000 0.000000
# 5 0.000000 0.000000 0.000000 0.000000 0.086910 0.000000
# 6 0.000000 0.000000 0.000000 0.000000 0.000000 0.000174
#
#
# Mechanical properties :
#
#
# Convention : Reuss Voigt Hill
#
# Bulk Modulus (GPa) = 22.31149 55.02301 38.66725
# Shear Modulus (GPa) = 28.90633 1144.46046 586.68340
#
# Velocity S-wave (km/s) = 3.75895 23.65212 16.93447
# Velocity P-wave (km/s) = 5.45396 27.79915 20.03170
#
# Compressibility (1/GPa) = 0.04481996
#
# Stress axis : x y z
#
# Youngs Moduli (GPa) = 92.40162 100.65754 23.97066
#
# Poissons Ratio (x) = 0.57263 0.12015
# Poissons Ratio (y) = 0.52567 -0.04492
# Poissons Ratio (z) = 0.46314 -0.18861
#
# Static dielectric constant tensor:
#      x y z
#    x 1.642590 0.000000 0.000000 
#    y 0.000000 1.797930 0.000000 
#    z 0.000000 0.000000 1.741300 
# 
# From -- ./inp_files/44767.got.cif
#   From: 2010.05.17/outbox.cif.g08.bks.cpg/sg71_23_cif.got.tgz:44767.got - 2010.06.03 16:22:01.
