data_PCOD9522882
_publ_section_title
;
Structure prediction by ZEFSAII (Michael W. Deem and Ramdas Pophale) SiO2 
 PCOD9522882
Probable space group: I M M M
;
_chemical_formula_sum "Si O2"
_cell_formula_units_Z 72
_cell_length_a 15.931956
_cell_length_b 29.358109
_cell_length_c 8.771863
_cell_angle_alpha 90.000000
_cell_angle_beta 90.000000
_cell_angle_gamma 90.000000
_cell_volume 4102.881909
_symmetry_space_group_name_H-M "I M M M"
_symmetry_group_IT_number 71
_symmetry_cell_setting 'orthorhombic'
loop_
_space_group_symop_operation_xyz
x,y,z
-x,-y,z
x,-y,-z
-x,y,-z
-x,-y,-z
x,y,-z
-x,y,z
x,-y,z
1/2+x,1/2+y,1/2+z
1/2-x,1/2-y,1/2+z
1/2+x,1/2-y,1/2-z
1/2-x,1/2+y,1/2-z
1/2-x,1/2-y,1/2-z
1/2+x,1/2+y,1/2-z
1/2-x,1/2+y,1/2+z
1/2+x,1/2-y,1/2+z
loop_
_atom_site_type_symbol
_atom_site_label
_atom_site_fract_x
_atom_site_fract_y
_atom_site_fract_z
Si Si1 0.749727 0.638539 0.182619
Si Si2 0.595937 0.805520 0.816045
Si Si3 0.677761 0.947171 0.182014
Si Si4 0.500000 0.944732 0.326449
Si Si5 0.593915 0.300703 0.185240
O O1 0.832424 0.665001 0.238810
O O2 0.756345 0.587689 0.247416
O O3 0.668084 0.666395 0.237299
O O4 0.749133 0.637060 0.000000
O O5 0.500000 0.818212 0.774332
O O6 0.608266 0.752236 0.774493
O O7 0.602583 0.809494 0.000000
O O8 0.585400 0.932539 0.240686
O O9 0.690930 0.000000 0.226742
O O10 0.678707 0.944476 0.000000
O O11 0.500000 0.927669 0.500000
O O12 0.500000 0.000000 0.331440
O O13 0.500000 0.313629 0.236480
O O14 0.593667 0.301943 0.000000
#
# Coordination Sequence:
#
# PCOD9522882 Si02
#       5
#    16  16  16   8  16
#     4  11  21  31  51  79 104 131 168 218 261 297
#     4   9  18  33  52  73 103 141 173 202 244 305
#     4  10  21  36  52  70  98 137 174 205 246 306
#     4   9  17  31  51  73  97 125 161 207 251 289
#     4   8  16  33  54  75 100 133 172 212 258 306
#
# _framework density 17.548639999999999
#
# number of rings (size 3 to 8) (size 9 to 14) (size 15 to 20)
#    0.000    2.556    0.000    3.667    1.556    3.111 
#    0.000    1.111    0.000    6.000    0.000    4.667 
#    0.000    0.000    0.000    0.000    0.000    0.000 
#
# Total GULP energy -200876.840391 kJ/mol
# GULP energy per Si atom -5579.912233 kJ/mol
# Density = 1.750870 g / cm^3
# Si number density = 17.548640 Si / 1000 Ang^3
#
#
#
# Elastic Constant Matrix: (Units=GPa)
#
#
# Indices 1 2 3 4 5 6 
#
# 1 99.8708 78.9460 28.5268 0.0000 0.0000 0.0001
# 2 78.9460 103.5226 30.1561 -0.0006 0.0005 0.0002
# 3 28.5268 30.1561 35.5711 -0.0063 0.0009 0.0020
# 4 0.0000 -0.0006 -0.0063 26.4017 0.0005 0.0005
# 5 0.0000 0.0005 0.0009 0.0005 19.5468 -0.0002
# 6 0.0001 0.0002 0.0020 0.0005 -0.0002 25.8101
#
#
#
# Elastic Compliance Matrix: (Units=1/GPa)
#
#
# Indices 1 2 3 4 5 6 
#
# 1 0.025957 -0.018234 -0.005359 -0.000002 0.000001 0.000000
# 2 -0.018234 0.025636 -0.007111 -0.000001 0.000000 0.000000
# 3 -0.005359 -0.007111 0.038438 0.000009 -0.000002 -0.000003
# 4 -0.000002 -0.000001 0.000009 0.037876 -0.000001 -0.000001
# 5 0.000001 0.000000 -0.000002 -0.000001 0.051159 0.000000
# 6 0.000000 0.000000 -0.000003 -0.000001 0.000000 0.038745
#
#
# Mechanical properties :
#
#
# Convention : Reuss Voigt Hill
#
# Bulk Modulus (GPa) = 34.93405 57.13580 46.03493
# Shear Modulus (GPa) = 17.31548 21.10744 19.21146
#
# Velocity S-wave (km/s) = 3.14461 3.47190 3.31230
# Velocity P-wave (km/s) = 5.75630 6.97863 6.39673
#
# Compressibility (1/GPa) = 0.02862537
#
# Stress axis : x y z
#
# Youngs Moduli (GPa) = 38.52531 39.00760 26.01579
#
# Poissons Ratio (x) = 0.71125 0.13941
# Poissons Ratio (y) = 0.70246 0.18499
# Poissons Ratio (z) = 0.20644 0.27737
#
# Static dielectric constant tensor:
#      x y z
#    x 1.585980 0.000000 0.000000 
#    y 0.000000 1.619790 0.000000 
#    z 0.000000 0.000000 1.593650 
# 
# From -- ./inp_files/6415.got.cif
#   From: 2010.05.17/outbox.cif.g08.bks.cpg/sg71_4_cif.got.tgz:6415.got - 2010.06.03 16:22:01.
