data_PCOD9522307
_publ_section_title
;
Structure prediction by ZEFSAII (Michael W. Deem and Ramdas Pophale) SiO2 
 PCOD9522307
Probable space group: I M M M
;
_chemical_formula_sum "Si O2"
_cell_formula_units_Z 104
_cell_length_a 16.467745
_cell_length_b 17.247697
_cell_length_c 18.372663
_cell_angle_alpha 90.000000
_cell_angle_beta 90.000000
_cell_angle_gamma 90.000000
_cell_volume 5218.399892
_symmetry_space_group_name_H-M "I M M M"
_symmetry_group_IT_number 71
_symmetry_cell_setting 'orthorhombic'
loop_
_space_group_symop_operation_xyz
x,y,z
-x,-y,z
x,-y,-z
-x,y,-z
-x,-y,-z
x,y,-z
-x,y,z
x,-y,z
1/2+x,1/2+y,1/2+z
1/2-x,1/2-y,1/2+z
1/2+x,1/2-y,1/2-z
1/2-x,1/2+y,1/2-z
1/2-x,1/2-y,1/2-z
1/2+x,1/2+y,1/2-z
1/2-x,1/2+y,1/2+z
1/2+x,1/2-y,1/2+z
loop_
_atom_site_type_symbol
_atom_site_label
_atom_site_fract_x
_atom_site_fract_y
_atom_site_fract_z
Si Si1 0.261285 0.371439 0.917032
Si Si2 0.244119 0.185900 0.079900
Si Si3 0.905109 0.909601 0.304310
Si Si4 0.091131 0.187178 0.840585
Si Si5 0.000000 0.406193 0.419483
Si Si6 0.150541 0.410967 0.321880
Si Si7 0.093773 0.626469 0.838350
O O1 0.261318 0.277422 0.916893
O O2 0.335025 0.397297 0.864743
O O3 0.170211 0.394550 0.890089
O O4 0.273792 0.397780 0.000000
O O5 0.149200 0.171720 0.091746
O O6 0.279973 0.145596 0.151472
O O7 0.271593 0.156832 0.000000
O O8 0.887055 0.855208 0.235008
O O9 0.000000 0.893843 0.327536
O O10 0.901955 0.000000 0.282519
O O11 0.093699 0.280165 0.830200
O O12 0.000000 0.163120 0.857178
O O13 0.922099 0.384701 0.374131
O O14 0.000000 0.500000 0.423253
O O15 0.000000 0.373668 0.500000
O O16 0.172722 0.500000 0.337438
O O17 0.118689 0.405860 0.240316
O O18 0.000000 0.603866 0.857688
#
# Coordination Sequence:
#
# PCOD9522307 Si02
#       7
#    16  16  16  16   8  16  16
#     4  10  22  39  57  81 113 145 183 232 282 332
#     4  10  21  36  54  80 114 148 183 224 272 325
#     4  10  21  38  60  84 110 142 183 231 280 332
#     4   9  19  36  58  82 108 142 183 229 275 326
#     4   9  18  32  48  70 103 139 174 214 257 306
#     4  11  21  34  54  79 109 146 184 222 265 323
#     4  10  20  36  59  84 110 145 187 229 276 329
#
# _framework density 19.929480999999999
#
# number of rings (size 3 to 8) (size 9 to 14) (size 15 to 20)
#    0.000    2.077    0.769    2.308    0.000    7.077 
#    1.385    3.846    0.000    0.000    0.000    5.385 
#    0.000    0.000    0.000    0.000    0.000    0.000 
#
# Total GULP energy -289855.163660 kJ/mol
# GULP energy per Si atom -5574.137763 kJ/mol
# Density = 1.988412 g / cm^3
# Si number density = 19.929481 Si / 1000 Ang^3
#
#
#
# Elastic Constant Matrix: (Units=GPa)
#
#
# Indices 1 2 3 4 5 6 
#
# 1 98.0510 21.7248 32.7764 0.0000 0.0000 0.0000
# 2 21.7248 25.9745 7.6061 0.0000 0.0000 0.0000
# 3 32.7764 7.6061 43.6965 0.0000 0.0000 0.0000
# 4 0.0000 0.0000 0.0000 -3.9316 0.0000 0.0000
# 5 0.0000 0.0000 0.0000 0.0000 34.6663 0.0000
# 6 0.0000 0.0000 0.0000 0.0000 0.0000 15.4257
#
#
#
# Elastic Compliance Matrix: (Units=1/GPa)
#
#
# Indices 1 2 3 4 5 6 
#
# 1 0.015859 -0.010306 -0.010102 0.000000 0.000000 0.000000
# 2 -0.010306 0.047265 -0.000497 0.000000 0.000000 0.000000
# 3 -0.010102 -0.000497 0.030549 0.000000 0.000000 0.000000
# 4 0.000000 0.000000 0.000000 -0.254350 0.000000 0.000000
# 5 0.000000 0.000000 0.000000 0.000000 0.028846 0.000000
# 6 0.000000 0.000000 0.000000 0.000000 0.000000 0.064827
#
#
# Mechanical properties :
#
#
# Convention : Reuss Voigt Hill
#
# Bulk Modulus (GPa) = 19.28141 32.43740 25.85940
# Shear Modulus (GPa) = -632.38519 16.27306 -308.05607
#
# Velocity S-wave (km/s) = -17.83256 2.86060 -12.44623
# Velocity P-wave (km/s) = 20.35447 5.21748 13.91191
#
# Compressibility (1/GPa) = 0.05186343
#
# Stress axis : x y z
#
# Youngs Moduli (GPa) = 63.05517 21.15735 32.73450
#
# Poissons Ratio (x) = 0.21805 0.33068
# Poissons Ratio (y) = 0.64987 0.01626
# Poissons Ratio (z) = 0.63697 0.01051
#
# Static dielectric constant tensor:
#      x y z
#    x 1.814360 0.000000 0.000000 
#    y 0.000000 1.698610 0.000000 
#    z 0.000000 0.000000 1.686950 
# 
# From -- ./inp_files/44950.got.cif
#   From: 2010.05.17/outbox.cif.g08.bks.cpg/sg71_23_cif.got.tgz:44950.got - 2010.06.03 16:22:01.
