data_PCOD9522998
_publ_section_title
;
Structure prediction by ZEFSAII (Michael W. Deem and Ramdas Pophale) SiO2 
 PCOD9522998
Probable space group: I M M M
;
_chemical_formula_sum "Si O2"
_cell_formula_units_Z 104
_cell_length_a 27.562904
_cell_length_b 22.131977
_cell_length_c 8.994587
_cell_angle_alpha 90.000000
_cell_angle_beta 90.000000
_cell_angle_gamma 90.000000
_cell_volume 5486.891970
_symmetry_space_group_name_H-M "I M M M"
_symmetry_group_IT_number 71
_symmetry_cell_setting 'orthorhombic'
loop_
_space_group_symop_operation_xyz
x,y,z
-x,-y,z
x,-y,-z
-x,y,-z
-x,-y,-z
x,y,-z
-x,y,z
x,-y,z
1/2+x,1/2+y,1/2+z
1/2-x,1/2-y,1/2+z
1/2+x,1/2-y,1/2-z
1/2-x,1/2+y,1/2-z
1/2-x,1/2-y,1/2-z
1/2+x,1/2+y,1/2-z
1/2-x,1/2+y,1/2+z
1/2+x,1/2-y,1/2+z
loop_
_atom_site_type_symbol
_atom_site_label
_atom_site_fract_x
_atom_site_fract_y
_atom_site_fract_z
Si Si1 0.772252 0.071191 0.179902
Si Si2 0.614284 0.571533 0.671332
Si Si3 0.444875 0.669410 0.178585
Si Si4 0.374377 0.225889 0.172530
Si Si5 0.943155 0.500000 0.174583
Si Si6 0.945009 0.614110 0.330831
Si Si7 0.775777 0.309091 0.178012
O O1 0.829386 0.081757 0.215032
O O2 0.743092 0.126509 0.255647
O O3 0.760819 0.000000 0.219574
O O4 0.766717 0.075174 0.000000
O O5 0.608917 0.591811 0.500000
O O6 0.606917 0.500000 0.675840
O O7 0.575260 0.605125 0.771230
O O8 0.500000 0.681153 0.231607
O O9 0.402951 0.715549 0.229846
O O10 0.446009 0.674711 0.000000
O O11 0.414898 0.174398 0.169901
O O12 0.331120 0.202432 0.273628
O O13 0.357764 0.235610 0.000000
O O14 0.921345 0.561344 0.235476
O O15 0.000000 0.500000 0.226124
O O16 0.942988 0.500000 0.000000
O O17 0.947159 0.591614 0.500000
O O18 0.000000 0.626449 0.279478
O O19 0.750000 0.250000 0.250000
O O20 0.769536 0.309163 0.000000
#
# Coordination Sequence:
#
# PCOD9522998 Si02
#       7
#    16  16  16  16   8  16  16
#     4   9  19  39  65  90 118 153 194 242 295 352
#     4   9  19  36  58  84 113 147 187 228 274 334
#     4  10  21  36  55  82 115 149 188 236 284 331
#     4  10  21  38  58  81 109 144 186 232 285 337
#     4   9  17  29  47  73 105 139 175 219 267 311
#     4   9  17  32  55  79 104 139 183 224 266 325
#     4  12  25  40  60  86 117 151 192 241 292 350
#
# _framework density 18.954263000000001
#
# number of rings (size 3 to 8) (size 9 to 14) (size 15 to 20)
#    0.000    2.231    0.000    3.923    0.000    8.308 
#    1.385    3.077    0.000    2.769    0.000    0.000 
#    0.000    0.000    0.000    0.000    0.000    0.000 
#
# Total GULP energy -289824.906153 kJ/mol
# GULP energy per Si atom -5573.555888 kJ/mol
# Density = 1.891112 g / cm^3
# Si number density = 18.954263 Si / 1000 Ang^3
#
#
#
# Elastic Constant Matrix: (Units=GPa)
#
#
# Indices 1 2 3 4 5 6 
#
# 1 51.6930 37.8695 19.3991 0.0000 0.0000 0.0000
# 2 37.8695 83.2955 31.2070 0.0000 0.0000 0.0000
# 3 19.3991 31.2070 40.8745 0.0000 0.0000 0.0000
# 4 0.0000 0.0000 0.0000 7.8002 0.0000 0.0000
# 5 0.0000 0.0000 0.0000 0.0000 25.0672 0.0000
# 6 0.0000 0.0000 0.0000 0.0000 0.0000 24.3112
#
#
#
# Elastic Compliance Matrix: (Units=1/GPa)
#
#
# Indices 1 2 3 4 5 6 
#
# 1 0.029810 -0.011559 -0.005323 0.000000 0.000000 0.000000
# 2 -0.011559 0.021297 -0.010774 0.000000 0.000000 0.000000
# 3 -0.005323 -0.010774 0.035218 0.000000 0.000000 0.000000
# 4 0.000000 0.000000 0.000000 0.128202 0.000000 0.000000
# 5 0.000000 0.000000 0.000000 0.000000 0.039893 0.000000
# 6 0.000000 0.000000 0.000000 0.000000 0.000000 0.041133
#
#
# Mechanical properties :
#
#
# Convention : Reuss Voigt Hill
#
# Bulk Modulus (GPa) = 32.24479 39.20160 35.72320
# Shear Modulus (GPa) = 13.84264 17.26156 15.55210
#
# Velocity S-wave (km/s) = 2.70537 3.02105 2.86756
# Velocity P-wave (km/s) = 5.17760 5.73551 5.46368
#
# Compressibility (1/GPa) = 0.03101276
#
# Stress axis : x y z
#
# Youngs Moduli (GPa) = 33.54546 46.95478 28.39495
#
# Poissons Ratio (x) = 0.54273 0.15115
# Poissons Ratio (y) = 0.38774 0.30593
# Poissons Ratio (z) = 0.17857 0.50590
#
# Static dielectric constant tensor:
#      x y z
#    x 1.649480 0.000000 0.000000 
#    y 0.000000 1.724670 0.000000 
#    z 0.000000 0.000000 1.663150 
# 
# From -- ./inp_files/14989.got.cif
#   From: 2010.05.17/outbox.cif.g08.bks.cpg/sg71_8_cif.got.tgz:14989.got - 2010.06.03 16:22:01.
