data_PCOD9522401
_publ_section_title
;
Structure prediction by ZEFSAII (Michael W. Deem and Ramdas Pophale) SiO2 
 PCOD9522401
Probable space group: I M M M
;
_chemical_formula_sum "Si O2"
_cell_formula_units_Z 88
_cell_length_a 11.688994
_cell_length_b 22.228414
_cell_length_c 18.243256
_cell_angle_alpha 90.000000
_cell_angle_beta 90.000000
_cell_angle_gamma 90.000000
_cell_volume 4740.105033
_symmetry_space_group_name_H-M "I M M M"
_symmetry_group_IT_number 71
_symmetry_cell_setting 'orthorhombic'
loop_
_space_group_symop_operation_xyz
x,y,z
-x,-y,z
x,-y,-z
-x,y,-z
-x,-y,-z
x,y,-z
-x,y,z
x,-y,z
1/2+x,1/2+y,1/2+z
1/2-x,1/2-y,1/2+z
1/2+x,1/2-y,1/2-z
1/2-x,1/2+y,1/2-z
1/2-x,1/2-y,1/2-z
1/2+x,1/2+y,1/2-z
1/2-x,1/2+y,1/2+z
1/2+x,1/2-y,1/2+z
loop_
_atom_site_type_symbol
_atom_site_label
_atom_site_fract_x
_atom_site_fract_y
_atom_site_fract_z
Si Si1 0.125443 0.000000 0.586502
Si Si2 0.279279 0.657617 0.588005
Si Si3 0.500000 0.126376 0.410699
Si Si4 0.631966 0.268119 0.088375
Si Si5 0.000000 0.768288 0.912413
Si Si6 0.748147 0.885574 0.650084
Si Si7 0.137628 0.071692 0.203318
O O1 0.186907 0.060978 0.608427
O O2 0.115658 0.000000 0.500000
O O3 0.000000 0.000000 0.621991
O O4 0.280166 0.649846 0.500000
O O5 0.171980 0.700336 0.607228
O O6 0.386522 0.698732 0.613041
O O7 0.303555 0.595597 0.628953
O O8 0.500000 0.114828 0.500000
O O9 0.500000 0.198099 0.398944
O O10 0.615540 0.104970 0.370961
O O11 0.500000 0.278318 0.108483
O O12 0.710312 0.320232 0.122474
O O13 0.643241 0.273376 0.000000
O O14 0.000000 0.775098 0.000000
O O15 0.791708 0.894810 0.732802
O O16 0.000000 0.084452 0.204983
O O17 0.150357 0.000000 0.212023
#
# Coordination Sequence:
#
# PCOD9522401 Si02
#       7
#     8  16   8  16   8  16  16
#     4  11  22  37  59  83 114 161 207 244 287 350
#     4  10  20  38  65  93 120 156 200 251 310 366
#     4  11  22  39  64  92 125 161 199 250 302 360
#     4  10  20  36  61  93 124 156 199 250 299 363
#     4   9  16  34  60  90 122 149 186 244 309 363
#     4  12  23  39  59  88 123 162 202 247 304 361
#     4  11  24  42  62  86 123 163 203 255 308 361
#
# _framework density 18.564990000000002
#
# number of rings (size 3 to 8) (size 9 to 14) (size 15 to 20)
#    0.000    1.364    3.636    3.273    0.000    2.909 
#    1.636    1.818    0.000    0.000    0.000    2.545 
#    0.000    0.000    0.000    0.000    0.000    0.000 
#
# Total GULP energy -245376.332350 kJ/mol
# GULP energy per Si atom -5576.734826 kJ/mol
# Density = 1.852273 g / cm^3
# Si number density = 18.564990 Si / 1000 Ang^3
#
#
#
# Elastic Constant Matrix: (Units=GPa)
#
#
# Indices 1 2 3 4 5 6 
#
# 1 129.7042 31.4387 35.6589 0.0000 0.0000 0.0000
# 2 31.4387 53.8755 23.9435 0.0000 0.0000 0.0000
# 3 35.6589 23.9435 60.1569 0.0000 0.0000 0.0000
# 4 0.0000 0.0000 0.0000 41.4747 0.0000 0.0000
# 5 0.0000 0.0000 0.0000 0.0000 18.8227 0.0000
# 6 0.0000 0.0000 0.0000 0.0000 0.0000 29.3121
#
#
#
# Elastic Compliance Matrix: (Units=1/GPa)
#
#
# Indices 1 2 3 4 5 6 
#
# 1 0.009817 -0.003818 -0.004300 0.000000 0.000000 0.000000
# 2 -0.003818 0.024035 -0.007303 0.000000 0.000000 0.000000
# 3 -0.004300 -0.007303 0.022079 0.000000 0.000000 0.000000
# 4 0.000000 0.000000 0.000000 0.024111 0.000000 0.000000
# 5 0.000000 0.000000 0.000000 0.000000 0.053127 0.000000
# 6 0.000000 0.000000 0.000000 0.000000 0.000000 0.034116
#
#
# Mechanical properties :
#
#
# Convention : Reuss Voigt Hill
#
# Bulk Modulus (GPa) = 39.85770 47.31321 43.58546
# Shear Modulus (GPa) = 24.21424 28.10160 26.15792
#
# Velocity S-wave (km/s) = 3.61542 3.89483 3.75773
# Velocity P-wave (km/s) = 6.24053 6.76512 6.50811
#
# Compressibility (1/GPa) = 0.02508925
#
# Stress axis : x y z
#
# Youngs Moduli (GPa) = 101.85998 41.60605 45.29245
#
# Poissons Ratio (x) = 0.15885 0.19475
# Poissons Ratio (y) = 0.38890 0.33078
# Poissons Ratio (z) = 0.43798 0.30386
#
# Static dielectric constant tensor:
#      x y z
#    x 1.661120 0.000000 0.000000 
#    y 0.000000 1.631090 0.000000 
#    z 0.000000 0.000000 1.675340 
# 
# From -- ./inp_files/43387.got.cif
#   From: 2010.05.17/outbox.cif.g08.bks.cpg/sg71_22_cif.got.tgz:43387.got - 2010.06.03 16:22:01.
