data_PCOD9522308
_publ_section_title
;
Structure prediction by ZEFSAII (Michael W. Deem and Ramdas Pophale) SiO2 
 PCOD9522308
Probable space group: I M M M
;
_chemical_formula_sum "Si O2"
_cell_formula_units_Z 66
_cell_length_a 7.645107
_cell_length_b 25.679472
_cell_length_c 15.632589
_cell_angle_alpha 90.000000
_cell_angle_beta 90.000000
_cell_angle_gamma 90.000000
_cell_volume 3069.026002
_symmetry_space_group_name_H-M "I M M M"
_symmetry_group_IT_number 71
_symmetry_cell_setting 'orthorhombic'
loop_
_space_group_symop_operation_xyz
x,y,z
-x,-y,z
x,-y,-z
-x,y,-z
-x,-y,-z
x,y,-z
-x,y,z
x,-y,z
1/2+x,1/2+y,1/2+z
1/2-x,1/2-y,1/2+z
1/2+x,1/2-y,1/2-z
1/2-x,1/2+y,1/2-z
1/2-x,1/2-y,1/2-z
1/2+x,1/2+y,1/2-z
1/2-x,1/2+y,1/2+z
1/2+x,1/2-y,1/2+z
loop_
_atom_site_type_symbol
_atom_site_label
_atom_site_fract_x
_atom_site_fract_y
_atom_site_fract_z
Si Si1 0.285267 0.154051 0.000000
Si Si2 0.214492 0.440253 0.000000
Si Si3 0.500000 0.500000 0.500000
Si Si4 0.208748 0.642131 0.860895
Si Si5 0.308016 0.500000 0.322459
Si Si6 0.291969 0.273532 0.000000
Si Si7 0.797528 0.384889 0.681153
O O1 0.230306 0.214272 0.000000
O O2 0.220620 0.127568 0.912235
O O3 0.500000 0.150809 0.000000
O O4 0.272730 0.406637 0.082244
O O5 0.271019 0.500000 0.000000
O O6 0.000000 0.440062 0.000000
O O7 0.350522 0.500000 0.423724
O O8 0.281222 0.642627 0.764800
O O9 0.000000 0.635083 0.853375
O O10 0.237411 0.693566 0.916923
O O11 0.500000 0.500000 0.279714
O O12 0.213297 0.446459 0.301684
O O13 0.500000 0.271621 0.000000
O O14 0.000000 0.368654 0.675440
#
# Coordination Sequence:
#
# PCOD9522308 Si02
#       7
#     8   8   2  16   8   8  16
#     4   9  20  36  55  81 108 145 192 241 279 330
#     4   8  14  26  47  74 104 133 167 218 271 316
#     4   8  20  36  50  68 112 162 174 220 264 324
#     4   9  19  34  55  82 110 141 186 237 278 329
#     4  10  21  35  53  78 118 151 178 226 277 333
#     4  10  20  37  57  76 112 150 184 230 297 344
#     4  10  20  36  59  84 110 147 196 235 274 329
#
# _framework density 21.505195000000001
#
# number of rings (size 3 to 8) (size 9 to 14) (size 15 to 20)
#    0.364    2.303    0.000    2.182    1.697    1.939 
#    0.000    4.848    0.000    1.455    0.000    0.000 
#    0.000    0.000    0.000    0.000    0.000    0.000 
#
# Total GULP energy -183774.270084 kJ/mol
# GULP energy per Si atom -5568.917275 kJ/mol
# Density = 2.145625 g / cm^3
# Si number density = 21.505195 Si / 1000 Ang^3
#
#
#
# Elastic Constant Matrix: (Units=GPa)
#
#
# Indices 1 2 3 4 5 6 
#
# 1 39.0474 -13.5471 10.6124 0.0000 0.0000 0.0000
# 2 -13.5471 116.3346 58.2192 0.0000 0.0000 0.0000
# 3 10.6124 58.2192 178.7165 0.0002 0.0000 0.0000
# 4 0.0000 0.0000 0.0002 29.3453 0.0000 0.0000
# 5 0.0000 0.0000 0.0000 0.0000 -3.0073 0.0000
# 6 0.0000 0.0000 0.0000 0.0000 0.0000 19.0759
#
#
#
# Elastic Compliance Matrix: (Units=1/GPa)
#
#
# Indices 1 2 3 4 5 6 
#
# 1 0.028211 0.004927 -0.003280 0.000000 0.000000 0.000000
# 2 0.004927 0.011131 -0.003918 0.000000 0.000000 0.000000
# 3 -0.003280 -0.003918 0.007067 0.000000 0.000000 0.000000
# 4 0.000000 0.000000 0.000000 0.034077 0.000000 0.000000
# 5 0.000000 0.000000 0.000000 0.000000 -0.332525 0.000000
# 6 0.000000 0.000000 0.000000 0.000000 0.000000 0.052422
#
#
# Mechanical properties :
#
#
# Convention : Reuss Voigt Hill
#
# Bulk Modulus (GPa) = 23.88683 49.40749 36.64716
# Shear Modulus (GPa) = -27.60601 27.67040 0.03219
#
# Velocity S-wave (km/s) = -3.58675 3.59093 0.12248
# Velocity P-wave (km/s) = 2.45386 6.34173 4.13498
#
# Compressibility (1/GPa) = 0.04186407
#
# Stress axis : x y z
#
# Youngs Moduli (GPa) = 35.44761 89.84251 141.50825
#
# Poissons Ratio (x) = -0.44262 0.46416
# Poissons Ratio (y) = -0.17464 0.55450
# Poissons Ratio (z) = 0.11627 0.35205
#
# Static dielectric constant tensor:
#      x y z
#    x 1.799040 0.000000 0.000000 
#    y 0.000000 1.744770 0.000000 
#    z 0.000000 0.000000 1.786640 
# 
# From -- ./inp_files/31409.got.cif
#   From: 2010.05.17/outbox.cif.g08.bks.cpg/sg71_16_cif.got.tgz:31409.got - 2010.06.03 16:22:01.
