data_PCOD9522616
_publ_section_title
;
Structure prediction by ZEFSAII (Michael W. Deem and Ramdas Pophale) SiO2 
 PCOD9522616
Probable space group: I M M M
;
_chemical_formula_sum "Si O2"
_cell_formula_units_Z 88
_cell_length_a 21.699534
_cell_length_b 8.675731
_cell_length_c 23.675253
_cell_angle_alpha 90.000000
_cell_angle_beta 90.000000
_cell_angle_gamma 90.000000
_cell_volume 4457.087026
_symmetry_space_group_name_H-M "I M M M"
_symmetry_group_IT_number 71
_symmetry_cell_setting 'orthorhombic'
loop_
_space_group_symop_operation_xyz
x,y,z
-x,-y,z
x,-y,-z
-x,y,-z
-x,-y,-z
x,y,-z
-x,y,z
x,-y,z
1/2+x,1/2+y,1/2+z
1/2-x,1/2-y,1/2+z
1/2+x,1/2-y,1/2-z
1/2-x,1/2+y,1/2-z
1/2-x,1/2-y,1/2-z
1/2+x,1/2+y,1/2-z
1/2-x,1/2+y,1/2+z
1/2+x,1/2-y,1/2+z
loop_
_atom_site_type_symbol
_atom_site_label
_atom_site_fract_x
_atom_site_fract_y
_atom_site_fract_z
Si Si1 0.256886 0.184638 0.433433
Si Si2 0.377583 0.313473 0.371657
Si Si3 0.573184 0.314056 0.247988
Si Si4 0.573224 0.331186 0.063489
Si Si5 0.000000 0.812412 0.063255
Si Si6 0.149209 0.325988 0.644588
O O1 0.252566 0.237083 0.500000
O O2 0.319530 0.240837 0.403307
O O3 0.203611 0.244751 0.390990
O O4 0.254649 0.000000 0.434631
O O5 0.370850 0.500000 0.373471
O O6 0.393912 0.271071 0.307090
O O7 0.438488 0.266230 0.405373
O O8 0.500000 0.264276 0.244672
O O9 0.571132 0.500000 0.245168
O O10 0.618198 0.252847 0.198977
O O11 0.500000 0.334148 0.061105
O O12 0.592413 0.500000 0.087509
O O13 0.594429 0.188619 0.099424
O O14 0.597936 0.323490 0.000000
O O15 0.000000 0.000000 0.062835
O O16 0.000000 0.755114 0.000000
O O17 0.167298 0.500000 0.657883
#
# Coordination Sequence:
#
# PCOD9522616 Si02
#       6
#    16  16  16  16   8  16
#     4  11  25  44  64  88 122 164 207 252 309 374
#     4  10  20  38  65  96 125 159 203 251 303 360
#     4  10  21  40  65  92 126 166 208 250 299 366
#     4   9  18  34  56  81 111 150 196 247 307 371
#     4   9  16  30  59  97 129 155 190 243 304 359
#     4  12  25  38  57  86 119 160 208 256 308 358
#
# _framework density 19.743838
#
# number of rings (size 3 to 8) (size 9 to 14) (size 15 to 20)
#    0.000    1.727    0.909    4.364    0.000    9.091 
#    0.000    1.364    0.000    1.636    0.000    0.000 
#    0.000    0.000    0.000    0.000    0.000    0.000 
#
# Total GULP energy -245261.899193 kJ/mol
# GULP energy per Si atom -5574.134073 kJ/mol
# Density = 1.969890 g / cm^3
# Si number density = 19.743838 Si / 1000 Ang^3
#
#
#
# Elastic Constant Matrix: (Units=GPa)
#
#
# Indices 1 2 3 4 5 6 
#
# 1 143.9382 36.3068 95.5714 0.0000 0.0000 0.0000
# 2 36.3068 44.8281 45.8725 0.0000 0.0000 0.0000
# 3 95.5714 45.8725 182.9906 0.0000 0.0000 0.0000
# 4 0.0000 0.0000 0.0000 13.6443 0.0000 0.0000
# 5 0.0000 0.0000 0.0000 0.0000 17.9957 0.0000
# 6 0.0000 0.0000 0.0000 0.0000 0.0000 33.4560
#
#
#
# Elastic Compliance Matrix: (Units=1/GPa)
#
#
# Indices 1 2 3 4 5 6 
#
# 1 0.011180 -0.004142 -0.004800 0.000000 0.000000 0.000000
# 2 -0.004142 0.031539 -0.005743 0.000000 0.000000 0.000000
# 3 -0.004800 -0.005743 0.009412 0.000000 0.000000 0.000000
# 4 0.000000 0.000000 0.000000 0.073291 0.000000 0.000000
# 5 0.000000 0.000000 0.000000 0.000000 0.055569 0.000000
# 6 0.000000 0.000000 0.000000 0.000000 0.000000 0.029890
#
#
# Mechanical properties :
#
#
# Convention : Reuss Voigt Hill
#
# Bulk Modulus (GPa) = 43.93859 80.80646 62.37252
# Shear Modulus (GPa) = 20.17452 25.95294 23.06373
#
# Velocity S-wave (km/s) = 3.20005 3.62951 3.42153
# Velocity P-wave (km/s) = 5.99637 7.65381 6.87522
#
# Compressibility (1/GPa) = 0.02275904
#
# Stress axis : x y z
#
# Youngs Moduli (GPa) = 89.44831 31.70681 106.25233
#
# Poissons Ratio (x) = 0.13134 0.51006
# Poissons Ratio (y) = 0.37052 0.61019
# Poissons Ratio (z) = 0.42939 0.18209
#
# Static dielectric constant tensor:
#      x y z
#    x 1.724170 0.000000 0.000000 
#    y 0.000000 1.718670 0.000000 
#    z 0.000000 0.000000 1.724300 
# 
# From -- ./inp_files/12512.got.cif
#   From: 2010.05.17/outbox.cif.g08.bks.cpg/sg71_7_cif.got.tgz:12512.got - 2010.06.03 16:22:01.
