data_PCOD9522296
_publ_section_title
;
Structure prediction by ZEFSAII (Michael W. Deem and Ramdas Pophale) SiO2 
 PCOD9522296
Probable space group: I M M M
;
_chemical_formula_sum "Si O2"
_cell_formula_units_Z 64
_cell_length_a 24.529824
_cell_length_b 8.642068
_cell_length_c 15.871866
_cell_angle_alpha 90.000000
_cell_angle_beta 90.000000
_cell_angle_gamma 90.000000
_cell_volume 3364.651590
_symmetry_space_group_name_H-M "I M M M"
_symmetry_group_IT_number 71
_symmetry_cell_setting 'orthorhombic'
loop_
_space_group_symop_operation_xyz
x,y,z
-x,-y,z
x,-y,-z
-x,y,-z
-x,-y,-z
x,y,-z
-x,y,z
x,-y,z
1/2+x,1/2+y,1/2+z
1/2-x,1/2-y,1/2+z
1/2+x,1/2-y,1/2-z
1/2-x,1/2+y,1/2-z
1/2-x,1/2-y,1/2-z
1/2+x,1/2+y,1/2-z
1/2-x,1/2+y,1/2+z
1/2+x,1/2-y,1/2+z
loop_
_atom_site_type_symbol
_atom_site_label
_atom_site_fract_x
_atom_site_fract_y
_atom_site_fract_z
Si Si1 0.225657 0.684313 0.663661
Si Si2 0.615122 0.313010 0.098303
Si Si3 0.500000 0.313995 0.630286
Si Si4 0.287544 0.814079 0.500000
Si Si5 0.000000 0.811752 0.324918
Si Si6 0.915099 0.685443 0.000000
O O1 0.228795 0.500000 0.664143
O O2 0.250000 0.750000 0.750000
O O3 0.163415 0.738457 0.651548
O O4 0.258663 0.749210 0.583347
O O5 0.618579 0.500000 0.105808
O O6 0.555468 0.262776 0.129426
O O7 0.622526 0.273968 0.000000
O O8 0.500000 0.500000 0.626028
O O9 0.500000 0.265046 0.727334
O O10 0.447420 0.251471 0.580449
O O11 0.351578 0.773205 0.500000
O O12 0.282313 0.000000 0.500000
O O13 0.000000 0.000000 0.327147
O O14 0.919914 0.500000 0.000000
#
# Coordination Sequence:
#
# PCOD9522296 Si02
#       6
#    16  16   8   8   8   8
#     4  12  26  43  65  94 129 168 212 261 316 377
#     4  10  20  39  65  91 125 163 205 254 308 371
#     4  10  20  36  58  88 123 158 205 250 297 366
#     4  11  24  44  67  95 127 166 211 260 318 379
#     4   9  20  36  60  94 121 158 205 250 304 367
#     4  10  22  39  60  84 119 159 203 250 309 366
#
# _framework density 19.021286
#
# number of rings (size 3 to 8) (size 9 to 14) (size 15 to 20)
#    0.000    1.500    1.250    4.500    3.500    3.500 
#    0.000    1.875    0.000    1.500    0.000    0.000 
#    0.000    0.000    0.000    0.000    0.000    0.000 
#
# Total GULP energy -178911.389322 kJ/mol
# GULP energy per Si atom -5590.980916 kJ/mol
# Density = 1.897799 g / cm^3
# Si number density = 19.021286 Si / 1000 Ang^3
#
#
#
# Elastic Constant Matrix: (Units=GPa)
#
#
# Indices 1 2 3 4 5 6 
#
# 1 187.3444 57.1734 85.8854 0.0000 0.0000 0.0000
# 2 57.1734 66.4491 47.8132 0.0000 0.0000 0.0000
# 3 85.8854 47.8132 150.6935 0.0000 0.0000 0.0000
# 4 0.0000 0.0000 0.0000 22.0878 0.0000 0.0000
# 5 0.0000 0.0000 0.0000 0.0000 -3.2158 0.0000
# 6 0.0000 0.0000 0.0000 0.0000 0.0000 25.9513
#
#
#
# Elastic Compliance Matrix: (Units=1/GPa)
#
#
# Indices 1 2 3 4 5 6 
#
# 1 0.008269 -0.004825 -0.003182 0.000000 0.000000 0.000000
# 2 -0.004825 0.022317 -0.004331 0.000000 0.000000 0.000000
# 3 -0.003182 -0.004331 0.009824 0.000000 0.000000 0.000000
# 4 0.000000 0.000000 0.000000 0.045274 0.000000 0.000000
# 5 0.000000 0.000000 0.000000 0.000000 -0.310968 0.000000
# 6 0.000000 0.000000 0.000000 0.000000 0.000000 0.038534
#
#
# Mechanical properties :
#
#
# Convention : Reuss Voigt Hill
#
# Bulk Modulus (GPa) = 63.55751 87.35900 75.45826
# Shear Modulus (GPa) = -31.88153 23.20568 -4.33793
#
# Velocity S-wave (km/s) = -4.09846 3.49662 -1.51179
# Velocity P-wave (km/s) = 3.33016 7.89484 6.05881
#
# Compressibility (1/GPa) = 0.01573378
#
# Stress axis : x y z
#
# Youngs Moduli (GPa) = 120.93405 44.80874 101.79661
#
# Poissons Ratio (x) = 0.21621 0.32389
# Poissons Ratio (y) = 0.58354 0.44087
# Poissons Ratio (z) = 0.38478 0.19406
#
# Static dielectric constant tensor:
#      x y z
#    x 1.645750 0.000000 0.000000 
#    y 0.000000 1.646280 0.000000 
#    z 0.000000 0.000000 1.630010 
# 
# From -- ./inp_files/38804.got.cif
#   From: 2010.05.17/outbox.cif.g08.bks.cpg/sg71_20_cif.got.tgz:38804.got - 2010.06.03 16:22:01.
