data_PCOD9522954
_publ_section_title
;
Structure prediction by ZEFSAII (Michael W. Deem and Ramdas Pophale) SiO2 
 PCOD9522954
Probable space group: I M M M
;
_chemical_formula_sum "Si O2"
_cell_formula_units_Z 104
_cell_length_a 19.945824
_cell_length_b 32.360310
_cell_length_c 8.011045
_cell_angle_alpha 90.000000
_cell_angle_beta 90.000000
_cell_angle_gamma 90.000000
_cell_volume 5170.753412
_symmetry_space_group_name_H-M "I M M M"
_symmetry_group_IT_number 71
_symmetry_cell_setting 'orthorhombic'
loop_
_space_group_symop_operation_xyz
x,y,z
-x,-y,z
x,-y,-z
-x,y,-z
-x,-y,-z
x,y,-z
-x,y,z
x,-y,z
1/2+x,1/2+y,1/2+z
1/2-x,1/2-y,1/2+z
1/2+x,1/2-y,1/2-z
1/2-x,1/2+y,1/2-z
1/2-x,1/2-y,1/2-z
1/2+x,1/2+y,1/2-z
1/2-x,1/2+y,1/2+z
1/2+x,1/2-y,1/2+z
loop_
_atom_site_type_symbol
_atom_site_label
_atom_site_fract_x
_atom_site_fract_y
_atom_site_fract_z
Si Si1 0.783800 0.545782 0.199235
Si Si2 0.790305 0.290265 0.197616
Si Si3 0.210688 0.129677 0.296231
Si Si4 0.577455 0.397045 0.691060
Si Si5 0.576311 0.081870 0.797896
Si Si6 0.925871 0.322952 0.700410
Si Si7 0.419569 0.455130 0.000000
O O1 0.766037 0.500000 0.265395
O O2 0.742400 0.585818 0.261504
O O3 0.862375 0.554850 0.232277
O O4 0.773507 0.545161 0.000000
O O5 0.750000 0.250000 0.250000
O O6 0.756234 0.332422 0.262424
O O7 0.867469 0.292261 0.249318
O O8 0.787514 0.292639 0.000000
O O9 0.207957 0.129412 0.500000
O O10 0.136061 0.135523 0.224090
O O11 0.581046 0.411824 0.500000
O O12 0.500000 0.383965 0.720480
O O13 0.595372 0.431063 0.830636
O O14 0.500000 0.070085 0.748411
O O15 0.587329 0.129670 0.742804
O O16 0.578387 0.080749 0.000000
O O17 0.927472 0.324734 0.500000
O O18 0.000000 0.311190 0.760289
O O19 0.387643 0.500000 0.000000
O O20 0.500000 0.458811 0.000000
#
# Coordination Sequence:
#
# PCOD9522954 Si02
#       7
#    16  16  16  16  16  16   8
#     4  10  21  36  54  80 115 153 196 243 288 343
#     4  11  23  39  62  91 121 155 197 244 297 360
#     4  10  21  39  59  84 116 157 196 242 306 366
#     4  10  21  37  60  88 115 153 204 250 303 370
#     4   9  18  33  54  80 112 153 197 242 289 338
#     4   9  18  35  60  87 117 155 198 243 294 350
#     4   9  18  34  56  82 118 158 195 249 305 351
#
# _framework density 20.113122000000001
#
# number of rings (size 3 to 8) (size 9 to 14) (size 15 to 20)
#    0.000    2.231    2.308    1.385    0.000    4.000 
#    0.000    5.385    0.000    0.923    0.000    0.000 
#    0.000    0.000    0.000    0.000    0.000    0.000 
#
# Total GULP energy -290054.071023 kJ/mol
# GULP energy per Si atom -5577.962904 kJ/mol
# Density = 2.006734 g / cm^3
# Si number density = 20.113122 Si / 1000 Ang^3
#
#
#
# Elastic Constant Matrix: (Units=GPa)
#
#
# Indices 1 2 3 4 5 6 
#
# 1 130.5783 65.0455 13.4101 -0.0002 -0.0001 0.0000
# 2 65.0455 99.3900 14.0531 0.0001 -0.0002 0.0000
# 3 13.4101 14.0531 39.0124 0.0002 -0.0044 -0.0001
# 4 -0.0002 0.0001 0.0002 10.2401 -0.0005 0.0000
# 5 -0.0001 -0.0002 -0.0044 -0.0005 27.7229 -0.0002
# 6 0.0000 0.0000 -0.0001 0.0000 -0.0002 25.8988
#
#
#
# Elastic Compliance Matrix: (Units=1/GPa)
#
#
# Indices 1 2 3 4 5 6 
#
# 1 0.011425 -0.007293 -0.001300 0.000000 0.000000 0.000000
# 2 -0.007293 0.015257 -0.002989 0.000000 0.000000 0.000000
# 3 -0.001300 -0.002989 0.027156 -0.000001 0.000004 0.000000
# 4 0.000000 0.000000 -0.000001 0.097655 0.000002 0.000000
# 5 0.000000 0.000000 0.000004 0.000002 0.036071 0.000000
# 6 0.000000 0.000000 0.000000 0.000000 0.000000 0.038612
#
#
# Mechanical properties :
#
#
# Convention : Reuss Voigt Hill
#
# Bulk Modulus (GPa) = 32.60087 50.44421 41.52254
# Shear Modulus (GPa) = 19.26302 24.53717 21.90010
#
# Velocity S-wave (km/s) = 3.09809 3.49658 3.30335
# Velocity P-wave (km/s) = 5.38901 6.43709 5.93623
#
# Compressibility (1/GPa) = 0.03067403
#
# Stress axis : x y z
#
# Youngs Moduli (GPa) = 87.53006 65.54418 36.82367
#
# Poissons Ratio (x) = 0.47801 0.04787
# Poissons Ratio (y) = 0.63836 0.11006
# Poissons Ratio (z) = 0.11379 0.19591
#
# Static dielectric constant tensor:
#      x y z
#    x 1.729160 0.000000 0.000000 
#    y 0.000000 1.645980 0.000000 
#    z 0.000000 0.000000 1.724250 
# 
# From -- ./inp_files/11120.got.cif
#   From: 2010.05.17/outbox.cif.g08.bks.cpg/sg71_6_cif.got.tgz:11120.got - 2010.06.03 16:22:01.
