data_PCOD9522613
_publ_section_title
;
Structure prediction by ZEFSAII (Michael W. Deem and Ramdas Pophale) SiO2 
 PCOD9522613
Probable space group: I M M M
;
_chemical_formula_sum "Si O2"
_cell_formula_units_Z 66
_cell_length_a 18.445671
_cell_length_b 20.518390
_cell_length_c 9.055516
_cell_angle_alpha 90.000000
_cell_angle_beta 90.000000
_cell_angle_gamma 90.000000
_cell_volume 3427.290687
_symmetry_space_group_name_H-M "I M M M"
_symmetry_group_IT_number 71
_symmetry_cell_setting 'orthorhombic'
loop_
_space_group_symop_operation_xyz
x,y,z
-x,-y,z
x,-y,-z
-x,y,-z
-x,-y,-z
x,y,-z
-x,y,z
x,-y,z
1/2+x,1/2+y,1/2+z
1/2-x,1/2-y,1/2+z
1/2+x,1/2-y,1/2-z
1/2-x,1/2+y,1/2-z
1/2-x,1/2-y,1/2-z
1/2+x,1/2+y,1/2-z
1/2-x,1/2+y,1/2+z
1/2+x,1/2-y,1/2+z
loop_
_atom_site_type_symbol
_atom_site_label
_atom_site_fract_x
_atom_site_fract_y
_atom_site_fract_z
Si Si1 0.500000 0.000000 0.000000
Si Si2 0.196960 0.143304 0.820984
Si Si3 0.369635 0.000000 0.760759
Si Si4 0.417287 0.260815 0.174177
Si Si5 0.147603 0.645081 0.830424
Si Si6 0.299444 0.500000 0.332126
O O1 0.564359 0.000000 0.126606
O O2 0.138531 0.193841 0.761631
O O3 0.275401 0.156673 0.750145
O O4 0.177506 0.069531 0.768494
O O5 0.201985 0.144478 0.000000
O O6 0.370943 0.931461 0.675296
O O7 0.288524 0.000000 0.831656
O O8 0.500000 0.283034 0.193251
O O9 0.408802 0.188364 0.239507
O O10 0.400168 0.260547 0.000000
O O11 0.151447 0.666590 0.000000
O O12 0.325568 0.500000 0.500000
#
# Coordination Sequence:
#
# PCOD9522613 Si02
#       6
#     2  16   8  16  16   8
#     4  12  24  36  62  88 132 164 200 242 304 356
#     4  10  20  38  65  91 117 151 197 246 297 355
#     4  10  23  36  60  88 120 160 201 237 293 348
#     4  11  25  41  59  83 118 159 200 243 302 362
#     4  11  23  40  61  87 120 156 201 250 294 348
#     4   8  16  35  60  88 115 144 191 236 284 346
#
# _framework density 19.257193000000001
#
# number of rings (size 3 to 8) (size 9 to 14) (size 15 to 20)
#    0.000    1.697    0.606    3.273    5.091    1.939 
#    0.000    3.030    0.000    3.636    0.000    0.000 
#    0.000    0.000    0.000    0.000    0.000    0.000 
#
# Total GULP energy -183903.451154 kJ/mol
# GULP energy per Si atom -5572.831853 kJ/mol
# Density = 1.921336 g / cm^3
# Si number density = 19.257193 Si / 1000 Ang^3
#
#
#
# Elastic Constant Matrix: (Units=GPa)
#
#
# Indices 1 2 3 4 5 6 
#
# 1 75.5279 35.0131 45.6306 0.0000 0.0000 0.0000
# 2 35.0131 85.4312 18.8186 0.0000 0.0000 0.0000
# 3 45.6306 18.8186 111.6887 0.0000 0.0000 0.0000
# 4 0.0000 0.0000 0.0000 -1.5285 0.0000 0.0000
# 5 0.0000 0.0000 0.0000 0.0000 23.7789 0.0000
# 6 0.0000 0.0000 0.0000 0.0000 0.0000 1.4034
#
#
#
# Elastic Compliance Matrix: (Units=1/GPa)
#
#
# Indices 1 2 3 4 5 6 
#
# 1 0.020917 -0.006948 -0.007375 0.000000 0.000000 0.000000
# 2 -0.006948 0.014464 0.000401 0.000000 0.000000 0.000000
# 3 -0.007375 0.000401 0.011899 0.000000 0.000000 0.000000
# 4 0.000000 0.000000 0.000000 -0.654222 0.000000 0.000000
# 5 0.000000 0.000000 0.000000 0.000000 0.042054 0.000000
# 6 0.000000 0.000000 0.000000 0.000000 0.000000 0.712567
#
#
# Mechanical properties :
#
#
# Convention : Reuss Voigt Hill
#
# Bulk Modulus (GPa) = 51.44773 52.39694 51.92234
# Shear Modulus (GPa) = 27.47241 16.27644 21.87443
#
# Velocity S-wave (km/s) = 3.78114 2.91041 3.37398
# Velocity P-wave (km/s) = 6.77029 6.20984 6.49611
#
# Compressibility (1/GPa) = 0.01943720
#
# Stress axis : x y z
#
# Youngs Moduli (GPa) = 47.80894 69.13507 84.04198
#
# Poissons Ratio (x) = 0.48035 0.61980
# Poissons Ratio (y) = 0.33217 -0.03374
# Poissons Ratio (z) = 0.35258 -0.02775
#
# Static dielectric constant tensor:
#      x y z
#    x 1.631610 0.000000 0.000000 
#    y 0.000000 1.722690 0.000000 
#    z 0.000000 0.000000 1.655420 
# 
# From -- ./inp_files/7662.got.cif
#   From: 2010.05.17/outbox.cif.g08.bks.cpg/sg71_4_cif.got.tgz:7662.got - 2010.06.03 16:22:01.
