data_PCOD9522938
_publ_section_title
;
Structure prediction by ZEFSAII (Michael W. Deem and Ramdas Pophale) SiO2 
 PCOD9522938
Probable space group: I M M M
;
_chemical_formula_sum "Si O2"
_cell_formula_units_Z 88
_cell_length_a 29.631699
_cell_length_b 17.844815
_cell_length_c 9.114649
_cell_angle_alpha 90.000000
_cell_angle_beta 90.000000
_cell_angle_gamma 90.000000
_cell_volume 4819.572884
_symmetry_space_group_name_H-M "I M M M"
_symmetry_group_IT_number 71
_symmetry_cell_setting 'orthorhombic'
loop_
_space_group_symop_operation_xyz
x,y,z
-x,-y,z
x,-y,-z
-x,y,-z
-x,-y,-z
x,y,-z
-x,y,z
x,-y,z
1/2+x,1/2+y,1/2+z
1/2-x,1/2-y,1/2+z
1/2+x,1/2-y,1/2-z
1/2-x,1/2+y,1/2-z
1/2-x,1/2-y,1/2-z
1/2+x,1/2+y,1/2-z
1/2-x,1/2+y,1/2+z
1/2+x,1/2-y,1/2+z
loop_
_atom_site_type_symbol
_atom_site_label
_atom_site_fract_x
_atom_site_fract_y
_atom_site_fract_z
Si Si1 0.448068 0.000000 0.820884
Si Si2 0.889916 0.911321 0.825831
Si Si3 0.294576 0.089631 0.824803
Si Si4 0.702432 0.408781 0.831964
Si Si5 0.891297 0.645060 0.678666
Si Si6 0.052317 0.210221 0.323505
O O1 0.421213 0.073978 0.774360
O O2 0.500000 0.000000 0.773155
O O3 0.448285 0.000000 0.000000
O O4 0.842222 0.886221 0.755900
O O5 0.929564 0.864232 0.752608
O O6 0.895074 0.000000 0.796421
O O7 0.888928 0.900621 0.000000
O O8 0.249168 0.114228 0.743443
O O9 0.339613 0.132601 0.775645
O O10 0.301508 0.000000 0.800140
O O11 0.288864 0.099017 0.000000
O O12 0.702895 0.500000 0.831231
O O13 0.699723 0.383332 0.000000
O O14 0.890961 0.644220 0.500000
O O15 0.915702 0.721161 0.724143
O O16 0.055981 0.202856 0.500000
O O17 0.000000 0.225673 0.289426
#
# Coordination Sequence:
#
# PCOD9522938 Si02
#       6
#     8  16  16  16  16  16
#     4   9  14  22  42  72 105 141 183 225 258 293
#     4  10  21  38  59  80 101 130 172 218 265 322
#     4   9  15  26  47  75 108 144 180 214 250 296
#     4   9  17  30  51  79 108 135 167 211 264 316
#     4   9  16  28  46  74 109 144 180 217 257 300
#     4  10  21  36  54  78 109 141 173 216 268 313
#
# _framework density 18.258880000000001
#
# number of rings (size 3 to 8) (size 9 to 14) (size 15 to 20)
#    0.000    2.636    0.909    1.636    0.000    6.182 
#    0.000    3.636    0.000    0.000    0.000    0.000 
#    0.000    2.909    0.000    0.000    0.000    0.000 
#
# Total GULP energy -245413.995112 kJ/mol
# GULP energy per Si atom -5577.590798 kJ/mol
# Density = 1.821732 g / cm^3
# Si number density = 18.258880 Si / 1000 Ang^3
#
#
#
# Elastic Constant Matrix: (Units=GPa)
#
#
# Indices 1 2 3 4 5 6 
#
# 1 60.3341 33.6685 25.0150 0.0000 0.0000 0.0000
# 2 33.6685 51.8567 31.5522 0.0000 0.0000 0.0000
# 3 25.0150 31.5522 29.2098 0.0000 0.0000 0.0000
# 4 0.0000 0.0000 0.0000 10.0547 0.0000 0.0000
# 5 0.0000 0.0000 0.0000 0.0000 23.3125 0.0000
# 6 0.0000 0.0000 0.0000 0.0000 0.0000 17.7114
#
#
#
# Elastic Compliance Matrix: (Units=1/GPa)
#
#
# Indices 1 2 3 4 5 6 
#
# 1 0.027453 -0.010267 -0.012420 0.000000 0.000000 0.000000
# 2 -0.010267 0.060101 -0.056127 0.000000 0.000000 0.000000
# 3 -0.012420 -0.056127 0.105500 0.000000 0.000000 0.000000
# 4 0.000000 0.000000 0.000000 0.099456 0.000000 0.000000
# 5 0.000000 0.000000 0.000000 0.000000 0.042895 0.000000
# 6 0.000000 0.000000 0.000000 0.000000 0.000000 0.056461
#
#
# Mechanical properties :
#
#
# Convention : Reuss Voigt Hill
#
# Bulk Modulus (GPa) = 28.22927 35.76355 31.99641
# Shear Modulus (GPa) = 8.90783 13.62670 11.26726
#
# Velocity S-wave (km/s) = 2.21116 2.73482 2.48681
# Velocity P-wave (km/s) = 4.69181 5.44075 5.08010
#
# Compressibility (1/GPa) = 0.03542422
#
# Stress axis : x y z
#
# Youngs Moduli (GPa) = 36.42529 16.63878 9.47869
#
# Poissons Ratio (x) = 0.17084 0.11773
# Poissons Ratio (y) = 0.37399 0.53201
# Poissons Ratio (z) = 0.45241 0.93389
#
# Static dielectric constant tensor:
#      x y z
#    x 1.614080 0.000000 0.000000 
#    y 0.000000 1.628400 0.000000 
#    z 0.000000 0.000000 1.611000 
# 
# From -- ./inp_files/8720.got.cif
#   From: 2010.05.17/outbox.cif.g08.bks.cpg/sg71_5_cif.got.tgz:8720.got - 2010.06.03 16:22:01.
