data_PCOD9522310
_publ_section_title
;
Structure prediction by ZEFSAII (Michael W. Deem and Ramdas Pophale) SiO2 
 PCOD9522310
Probable space group: I M M M
;
_chemical_formula_sum "Si O2"
_cell_formula_units_Z 104
_cell_length_a 8.422663
_cell_length_b 18.849009
_cell_length_c 33.352505
_cell_angle_alpha 90.000000
_cell_angle_beta 90.000000
_cell_angle_gamma 90.000000
_cell_volume 5295.005361
_symmetry_space_group_name_H-M "I M M M"
_symmetry_group_IT_number 71
_symmetry_cell_setting 'orthorhombic'
loop_
_space_group_symop_operation_xyz
x,y,z
-x,-y,z
x,-y,-z
-x,y,-z
-x,-y,-z
x,y,-z
-x,y,z
x,-y,z
1/2+x,1/2+y,1/2+z
1/2-x,1/2-y,1/2+z
1/2+x,1/2-y,1/2-z
1/2-x,1/2+y,1/2-z
1/2-x,1/2-y,1/2-z
1/2+x,1/2+y,1/2-z
1/2-x,1/2+y,1/2+z
1/2+x,1/2-y,1/2+z
loop_
_atom_site_type_symbol
_atom_site_label
_atom_site_fract_x
_atom_site_fract_y
_atom_site_fract_z
Si Si1 0.691739 0.920118 0.257688
Si Si2 0.191729 0.661464 0.835252
Si Si3 0.190248 0.581542 0.000000
Si Si4 0.191337 0.920008 0.114724
Si Si5 0.308336 0.824748 0.953896
Si Si6 0.691803 0.320114 0.312574
Si Si7 0.690037 0.329608 0.075778
O O1 0.500000 0.920478 0.256400
O O2 0.740121 0.896695 0.302443
O O3 0.749786 0.860581 0.226806
O O4 0.747759 0.000000 0.247729
O O5 0.244591 0.739085 0.819128
O O6 0.253313 0.649426 0.880016
O O7 0.000000 0.662345 0.836985
O O8 0.249462 0.621117 0.039869
O O9 0.244600 0.500000 0.000000
O O10 0.000000 0.582838 0.000000
O O11 0.246063 0.889215 0.072434
O O12 0.246668 0.866957 0.149539
O O13 0.000000 0.920381 0.115766
O O14 0.248103 0.000000 0.121588
O O15 0.500000 0.825442 0.953444
O O16 0.254605 0.750792 0.933856
O O17 0.256023 0.827007 0.000000
O O18 0.500000 0.319649 0.311819
O O19 0.500000 0.329914 0.074835
#
# Coordination Sequence:
#
# PCOD9522310 Si02
#       7
#    16  16   8  16  16  16  16
#     4  10  22  38  56  82 117 153 189 236 295 355
#     4  10  21  38  60  86 116 153 197 242 293 354
#     4  11  25  43  65  93 124 161 202 243 293 352
#     4  10  21  36  55  83 116 150 193 242 290 342
#     4  10  21  38  58  82 114 151 190 234 288 346
#     4  10  20  36  59  84 112 151 198 244 289 347
#     4  11  22  39  63  91 121 153 194 245 296 348
#
# _framework density 19.641151000000001
#
# number of rings (size 3 to 8) (size 9 to 14) (size 15 to 20)
#    0.000    1.769    2.308    1.615    0.000    5.538 
#    0.000    3.077    0.000    0.000    0.000    0.000 
#    0.000    0.000    0.000    0.000    0.000    0.000 
#
# Total GULP energy -290502.065840 kJ/mol
# GULP energy per Si atom -5586.578189 kJ/mol
# Density = 1.959645 g / cm^3
# Si number density = 19.641151 Si / 1000 Ang^3
#
#
#
# Elastic Constant Matrix: (Units=GPa)
#
#
# Indices 1 2 3 4 5 6 
#
# 1 6.8213 9.9190 9.9134 0.0000 0.0000 0.0000
# 2 9.9190 76.2074 17.1888 0.0000 0.0000 0.0000
# 3 9.9134 17.1888 120.9787 0.0000 0.0000 0.0000
# 4 0.0000 0.0000 0.0000 13.9898 0.0000 0.0000
# 5 0.0000 0.0000 0.0000 0.0000 33.1016 0.0000
# 6 0.0000 0.0000 0.0000 0.0000 0.0000 21.6502
#
#
#
# Elastic Compliance Matrix: (Units=1/GPa)
#
#
# Indices 1 2 3 4 5 6 
#
# 1 0.198921 -0.022950 -0.013039 0.000000 0.000000 0.000000
# 2 -0.022950 0.016204 -0.000422 0.000000 0.000000 0.000000
# 3 -0.013039 -0.000422 0.009394 0.000000 0.000000 0.000000
# 4 0.000000 0.000000 0.000000 0.071481 0.000000 0.000000
# 5 0.000000 0.000000 0.000000 0.000000 0.030210 0.000000
# 6 0.000000 0.000000 0.000000 0.000000 0.000000 0.046189
#
#
# Mechanical properties :
#
#
# Convention : Reuss Voigt Hill
#
# Bulk Modulus (GPa) = 6.59207 30.89441 18.74324
# Shear Modulus (GPa) = 10.08495 24.88074 17.48285
#
# Velocity S-wave (km/s) = 2.26842 3.56303 2.98671
# Velocity P-wave (km/s) = 3.19758 5.71756 4.63222
#
# Compressibility (1/GPa) = 0.15169752
#
# Stress axis : x y z
#
# Youngs Moduli (GPa) = 5.02711 61.71185 106.44708
#
# Poissons Ratio (x) = 1.41629 1.38802
# Poissons Ratio (y) = 0.11537 0.04489
# Poissons Ratio (z) = 0.06555 0.02603
#
# Static dielectric constant tensor:
#      x y z
#    x 1.680840 0.000000 0.000000 
#    y 0.000000 1.682760 0.000000 
#    z 0.000000 0.000000 1.664650 
# 
# From -- ./inp_files/63307.got.cif
#   From: 2010.05.17/outbox.cif.g08.bks.cpg/sg71_32_cif.got.tgz:63307.got - 2010.06.03 16:22:01.
