data_PCOD9522757
_publ_section_title
;
Structure prediction by ZEFSAII (Michael W. Deem and Ramdas Pophale) SiO2 
 PCOD9522757
Probable space group: I M M M
;
_chemical_formula_sum "Si O2"
_cell_formula_units_Z 80
_cell_length_a 13.373107
_cell_length_b 8.904099
_cell_length_c 30.604736
_cell_angle_alpha 90.000000
_cell_angle_beta 90.000000
_cell_angle_gamma 90.000000
_cell_volume 3644.273283
_symmetry_space_group_name_H-M "I M M M"
_symmetry_group_IT_number 71
_symmetry_cell_setting 'orthorhombic'
loop_
_space_group_symop_operation_xyz
x,y,z
-x,-y,z
x,-y,-z
-x,y,-z
-x,-y,-z
x,y,-z
-x,y,z
x,-y,z
1/2+x,1/2+y,1/2+z
1/2-x,1/2-y,1/2+z
1/2+x,1/2-y,1/2-z
1/2-x,1/2+y,1/2-z
1/2-x,1/2-y,1/2-z
1/2+x,1/2+y,1/2-z
1/2-x,1/2+y,1/2+z
1/2+x,1/2-y,1/2+z
loop_
_atom_site_type_symbol
_atom_site_label
_atom_site_fract_x
_atom_site_fract_y
_atom_site_fract_z
Si Si1 0.886680 0.317555 0.821010
Si Si2 0.389385 0.170338 0.552110
Si Si3 0.685008 0.678242 0.136901
Si Si4 0.819866 0.323040 0.450796
Si Si5 0.119607 0.670143 0.725288
O O1 0.889721 0.500000 0.818667
O O2 0.802837 0.279101 0.856312
O O3 0.849629 0.266715 0.772874
O O4 0.000000 0.265235 0.829030
O O5 0.399993 0.155376 0.500000
O O6 0.500000 0.211355 0.569317
O O7 0.297783 0.284406 0.554723
O O8 0.364836 0.000000 0.568394
O O9 0.677061 0.500000 0.134539
O O10 0.637864 0.747203 0.093003
O O11 0.638685 0.735772 0.182030
O O12 0.849196 0.269011 0.500000
O O13 0.837790 0.500000 0.449477
O O14 0.159353 0.500000 0.719695
O O15 0.000000 0.658608 0.730213
#
# Coordination Sequence:
#
# PCOD9522757 Si02
#       5
#    16  16  16  16  16
#     4   8  16  32  53  79 111 145 178 210 251 309
#     4   8  14  26  44  64  87 119 161 208 257 307
#     4  11  21  32  53  82 109 139 176 222 270 315
#     4  10  21  35  49  67  96 136 181 226 268 313
#     4   9  18  35  58  80 106 141 176 212 259 318
#
# _framework density 21.952251
#
# number of rings (size 3 to 8) (size 9 to 14) (size 15 to 20)
#    0.000    2.800    0.000    3.600    0.000    2.800 
#    0.000    5.000    0.000    4.800    0.000    4.200 
#    0.000    0.000    0.000    0.000    0.000    0.000 
#
# Total GULP energy -222922.407278 kJ/mol
# GULP energy per Si atom -5573.060182 kJ/mol
# Density = 2.190229 g / cm^3
# Si number density = 21.952251 Si / 1000 Ang^3
#
#
#
# Elastic Constant Matrix: (Units=GPa)
#
#
# Indices 1 2 3 4 5 6 
#
# 1 9.3846 -3.1784 6.3210 0.0000 0.0000 0.0000
# 2 -3.1784 39.9836 46.6412 0.0000 0.0000 0.0000
# 3 6.3210 46.6412 214.0320 0.0000 0.0000 0.0000
# 4 0.0000 0.0000 0.0000 30.2363 0.0000 0.0000
# 5 0.0000 0.0000 0.0000 0.0000 9.3752 0.0000
# 6 0.0000 0.0000 0.0000 0.0000 0.0000 20.5960
#
#
#
# Elastic Compliance Matrix: (Units=1/GPa)
#
#
# Indices 1 2 3 4 5 6 
#
# 1 0.117622 0.017970 -0.007390 0.000000 0.000000 0.000000
# 2 0.017970 0.036280 -0.008437 0.000000 0.000000 0.000000
# 3 -0.007390 -0.008437 0.006729 0.000000 0.000000 0.000000
# 4 0.000000 0.000000 0.000000 0.033073 0.000000 0.000000
# 5 0.000000 0.000000 0.000000 0.000000 0.106665 0.000000
# 6 0.000000 0.000000 0.000000 0.000000 0.000000 0.048553
#
#
# Mechanical properties :
#
#
# Convention : Reuss Voigt Hill
#
# Bulk Modulus (GPa) = 6.06361 40.32975 23.19668
# Shear Modulus (GPa) = 12.51229 26.28259 19.39744
#
# Velocity S-wave (km/s) = 2.39001 3.46390 2.97580
# Velocity P-wave (km/s) = 3.22248 5.86597 4.73255
#
# Compressibility (1/GPa) = 0.16491817
#
# Stress axis : x y z
#
# Youngs Moduli (GPa) = 8.50184 27.56316 148.61132
#
# Poissons Ratio (x) = -0.49532 1.09820
# Poissons Ratio (y) = -0.15278 1.25380
# Poissons Ratio (z) = 0.06283 0.23255
#
# Static dielectric constant tensor:
#      x y z
#    x 1.878380 0.000000 0.000000 
#    y 0.000000 1.751640 0.000000 
#    z 0.000000 0.000000 1.887790 
# 
# From -- ./inp_files/70283.got.cif
#   From: 2010.05.17/outbox.cif.g08.bks.cpg/sg71_36_cif.got.tgz:70283.got - 2010.06.03 16:22:01.
