data_PCOD9522326
_publ_section_title
;
Structure prediction by ZEFSAII (Michael W. Deem and Ramdas Pophale) SiO2 
 PCOD9522326
Probable space group: I M M M
;
_chemical_formula_sum "Si O2"
_cell_formula_units_Z 88
_cell_length_a 29.348236
_cell_length_b 8.960929
_cell_length_c 17.224848
_cell_angle_alpha 90.000000
_cell_angle_beta 90.000000
_cell_angle_gamma 90.000000
_cell_volume 4529.919008
_symmetry_space_group_name_H-M "I M M M"
_symmetry_group_IT_number 71
_symmetry_cell_setting 'orthorhombic'
loop_
_space_group_symop_operation_xyz
x,y,z
-x,-y,z
x,-y,-z
-x,y,-z
-x,-y,-z
x,y,-z
-x,y,z
x,-y,z
1/2+x,1/2+y,1/2+z
1/2-x,1/2-y,1/2+z
1/2+x,1/2-y,1/2-z
1/2-x,1/2+y,1/2-z
1/2-x,1/2-y,1/2-z
1/2+x,1/2+y,1/2-z
1/2-x,1/2+y,1/2+z
1/2+x,1/2-y,1/2+z
loop_
_atom_site_type_symbol
_atom_site_label
_atom_site_fract_x
_atom_site_fract_y
_atom_site_fract_z
Si Si1 0.580997 0.326723 0.500000
Si Si2 0.500000 0.678532 0.093164
Si Si3 0.052884 0.167948 0.174224
Si Si4 0.777580 0.177021 0.856427
Si Si5 0.412912 0.823085 0.820117
Si Si6 0.683775 0.322476 0.184692
Si Si7 0.673705 0.826359 0.500000
O O1 0.598241 0.500000 0.500000
O O2 0.555493 0.309026 0.418210
O O3 0.620474 0.206650 0.500000
O O4 0.500000 0.500000 0.106963
O O5 0.545444 0.749022 0.131874
O O6 0.500000 0.703970 0.000000
O O7 0.078443 0.282603 0.229408
O O8 0.000000 0.171223 0.196589
O O9 0.071049 0.000000 0.190039
O O10 0.727928 0.252317 0.856148
O O11 0.804225 0.204423 0.775631
O O12 0.772660 0.000000 0.865041
O O13 0.806165 0.247117 0.924958
O O14 0.363621 0.753295 0.839081
O O15 0.413080 0.000000 0.831786
O O16 0.681429 0.500000 0.172143
O O17 0.684353 0.000000 0.500000
#
# Coordination Sequence:
#
# PCOD9522326 Si02
#       7
#     8   8  16  16  16  16   8
#     4  10  21  36  56  86 120 164 214 256 296 343
#     4  11  25  47  71  92 117 152 199 255 310 365
#     4  10  20  36  59  85 120 163 209 254 298 350
#     4  10  21  39  62  88 120 157 201 251 299 352
#     4  12  24  39  63  94 126 160 199 245 303 369
#     4  10  21  39  64  91 120 157 200 246 298 358
#     4  12  24  37  55  83 120 161 199 244 299 358
#
# _framework density 19.426394999999999
#
# number of rings (size 3 to 8) (size 9 to 14) (size 15 to 20)
#    0.000    1.364    0.909    5.182    0.000    9.091 
#    1.636    0.000    0.000    1.636    0.000    0.000 
#    0.000    0.000    0.000    0.000    0.000    0.000 
#
# Total GULP energy -245857.578251 kJ/mol
# GULP energy per Si atom -5587.672233 kJ/mol
# Density = 1.938218 g / cm^3
# Si number density = 19.426395 Si / 1000 Ang^3
#
#
#
# Elastic Constant Matrix: (Units=GPa)
#
#
# Indices 1 2 3 4 5 6 
#
# 1 118.1399 57.8603 11.7197 0.0000 0.0000 0.0000
# 2 57.8603 90.2021 27.5739 0.0000 0.0000 0.0000
# 3 11.7197 27.5739 40.9870 0.0000 0.0000 0.0000
# 4 0.0000 0.0000 0.0000 28.9080 0.0000 0.0000
# 5 0.0000 0.0000 0.0000 0.0000 18.4361 0.0000
# 6 0.0000 0.0000 0.0000 0.0000 0.0000 33.7555
#
#
#
# Elastic Compliance Matrix: (Units=1/GPa)
#
#
# Indices 1 2 3 4 5 6 
#
# 1 0.012511 -0.008726 0.002293 0.000000 0.000000 0.000000
# 2 -0.008726 0.020043 -0.010988 0.000000 0.000000 0.000000
# 3 0.002293 -0.010988 0.031135 0.000000 0.000000 0.000000
# 4 0.000000 0.000000 0.000000 0.034592 0.000000 0.000000
# 5 0.000000 0.000000 0.000000 0.000000 0.054241 0.000000
# 6 0.000000 0.000000 0.000000 0.000000 0.000000 0.029625
#
#
# Mechanical properties :
#
#
# Convention : Reuss Voigt Hill
#
# Bulk Modulus (GPa) = 34.66774 49.29299 41.98036
# Shear Modulus (GPa) = 22.06487 26.36493 24.21490
#
# Velocity S-wave (km/s) = 3.37385 3.68798 3.53440
# Velocity P-wave (km/s) = 5.74992 6.60032 6.18974
#
# Compressibility (1/GPa) = 0.02884526
#
# Stress axis : x y z
#
# Youngs Moduli (GPa) = 79.93149 49.89378 32.11848
#
# Poissons Ratio (x) = 0.43537 -0.07365
# Poissons Ratio (y) = 0.69748 0.35293
# Poissons Ratio (z) = -0.18329 0.54826
#
# Static dielectric constant tensor:
#      x y z
#    x 1.659400 0.000000 0.000000 
#    y 0.000000 1.653010 0.000000 
#    z 0.000000 0.000000 1.657640 
# 
# From -- ./inp_files/49279.got.cif
#   From: 2010.05.17/outbox.cif.g08.bks.cpg/sg71_25_cif.got.tgz:49279.got - 2010.06.03 16:22:01.
