data_PCOD9522287
_publ_section_title
;
Structure prediction by ZEFSAII (Michael W. Deem and Ramdas Pophale) SiO2 
 PCOD9522287
Probable space group: I M M M
;
_chemical_formula_sum "Si O2"
_cell_formula_units_Z 80
_cell_length_a 10.014568
_cell_length_b 30.409240
_cell_length_c 12.826612
_cell_angle_alpha 90.000000
_cell_angle_beta 90.000000
_cell_angle_gamma 90.000000
_cell_volume 3906.157439
_symmetry_space_group_name_H-M "I M M M"
_symmetry_group_IT_number 71
_symmetry_cell_setting 'orthorhombic'
loop_
_space_group_symop_operation_xyz
x,y,z
-x,-y,z
x,-y,-z
-x,y,-z
-x,-y,-z
x,y,-z
-x,y,z
x,-y,z
1/2+x,1/2+y,1/2+z
1/2-x,1/2-y,1/2+z
1/2+x,1/2-y,1/2-z
1/2-x,1/2+y,1/2-z
1/2-x,1/2-y,1/2-z
1/2+x,1/2+y,1/2-z
1/2-x,1/2+y,1/2+z
1/2+x,1/2-y,1/2+z
loop_
_atom_site_type_symbol
_atom_site_label
_atom_site_fract_x
_atom_site_fract_y
_atom_site_fract_z
Si Si1 0.346281 0.553532 0.000000
Si Si2 0.646978 0.051755 0.682754
Si Si3 0.652465 0.726311 0.114480
Si Si4 0.269947 0.901226 0.118818
Si Si5 0.842171 0.807634 0.837529
Si Si6 0.000000 0.951931 0.875305
O O1 0.261895 0.566232 0.897428
O O2 0.347759 0.500000 0.000000
O O3 0.500000 0.568769 0.000000
O O4 0.500000 0.054159 0.632343
O O5 0.642786 0.080755 0.787183
O O6 0.669333 0.000000 0.710037
O O7 0.500000 0.744921 0.122642
O O8 0.763763 0.764143 0.125619
O O9 0.665719 0.693900 0.211724
O O10 0.664566 0.705892 0.000000
O O11 0.236643 0.849796 0.122151
O O12 0.130835 0.924920 0.146948
O O13 0.310644 0.913055 0.000000
O O14 0.000000 0.808194 0.866771
O O15 0.000000 0.000000 0.825299
O O16 0.000000 0.956821 0.000000
#
# Coordination Sequence:
#
# PCOD9522287 Si02
#       6
#     8  16  16  16  16   8
#     4   9  19  37  63  89 111 145 199 253 301 359
#     4  10  22  40  61  85 119 161 202 249 305 363
#     4   9  19  36  58  83 114 151 191 240 302 369
#     4  11  22  35  55  86 121 157 201 252 303 360
#     4  10  20  36  58  85 117 153 197 246 300 363
#     4   9  18  32  50  75 113 157 195 244 303 351
#
# _framework density 20.480484000000001
#
# number of rings (size 3 to 8) (size 9 to 14) (size 15 to 20)
#    0.000    2.200    1.000    1.500    1.400    4.800 
#    1.800    1.000    0.000    0.000    0.000    0.000 
#    0.000    0.000    0.000    0.000    0.000    0.000 
#
# Total GULP energy -223054.046024 kJ/mol
# GULP energy per Si atom -5576.351151 kJ/mol
# Density = 2.043387 g / cm^3
# Si number density = 20.480484 Si / 1000 Ang^3
#
#
#
# Elastic Constant Matrix: (Units=GPa)
#
#
# Indices 1 2 3 4 5 6 
#
# 1 110.8807 9.5784 46.5360 -0.0001 0.0001 0.0003
# 2 9.5784 37.7157 15.0821 -0.0001 0.0001 0.0006
# 3 46.5360 15.0821 148.7246 -0.0001 0.0001 -0.0010
# 4 -0.0001 -0.0001 -0.0001 13.4048 0.0001 0.0002
# 5 0.0001 0.0001 0.0001 0.0001 12.5713 -0.0004
# 6 0.0003 0.0006 -0.0010 0.0002 -0.0004 49.4660
#
#
#
# Elastic Compliance Matrix: (Units=1/GPa)
#
#
# Indices 1 2 3 4 5 6 
#
# 1 0.010453 -0.001404 -0.003128 0.000000 0.000000 0.000000
# 2 -0.001404 0.027823 -0.002382 0.000000 0.000000 0.000000
# 3 -0.003128 -0.002382 0.007944 0.000000 0.000000 0.000000
# 4 0.000000 0.000000 0.000000 0.074600 -0.000001 0.000000
# 5 0.000000 0.000000 0.000000 -0.000001 0.079546 0.000001
# 6 0.000000 0.000000 0.000000 0.000000 0.000001 0.020216
#
#
# Mechanical properties :
#
#
# Convention : Reuss Voigt Hill
#
# Bulk Modulus (GPa) = 30.87204 48.85712 39.86458
# Shear Modulus (GPa) = 20.39076 30.16338 25.27707
#
# Velocity S-wave (km/s) = 3.15877 3.84185 3.51693
# Velocity P-wave (km/s) = 5.33014 6.60205 5.99989
#
# Compressibility (1/GPa) = 0.03239176
#
# Stress axis : x y z
#
# Youngs Moduli (GPa) = 95.66701 35.94111 125.87633
#
# Poissons Ratio (x) = 0.05045 0.39379
# Poissons Ratio (y) = 0.13428 0.29988
# Poissons Ratio (z) = 0.29928 0.08562
#
# Static dielectric constant tensor:
#      x y z
#    x 1.808000 0.000000 0.000000 
#    y 0.000000 1.707570 0.000000 
#    z 0.000000 0.000000 1.751180 
# 
# From -- ./inp_files/20190.got.cif
#   From: 2010.05.17/outbox.cif.g08.bks.cpg/sg71_11_cif.got.tgz:20190.got - 2010.06.03 16:22:01.
