data_PCOD9522158
_publ_section_title
;
Structure prediction by ZEFSAII (Michael W. Deem and Ramdas Pophale) SiO2 
 PCOD9522158
Probable space group: I M M M
;
_chemical_formula_sum "Si O2"
_cell_formula_units_Z 112
_cell_length_a 14.755282
_cell_length_b 14.423712
_cell_length_c 26.075451
_cell_angle_alpha 90.000000
_cell_angle_beta 90.000000
_cell_angle_gamma 90.000000
_cell_volume 5549.532319
_symmetry_space_group_name_H-M "I M M M"
_symmetry_group_IT_number 71
_symmetry_cell_setting 'orthorhombic'
loop_
_space_group_symop_operation_xyz
x,y,z
-x,-y,z
x,-y,-z
-x,y,-z
-x,-y,-z
x,y,-z
-x,y,z
x,-y,z
1/2+x,1/2+y,1/2+z
1/2-x,1/2-y,1/2+z
1/2+x,1/2-y,1/2-z
1/2-x,1/2+y,1/2-z
1/2-x,1/2-y,1/2-z
1/2+x,1/2+y,1/2-z
1/2-x,1/2+y,1/2+z
1/2+x,1/2-y,1/2+z
loop_
_atom_site_type_symbol
_atom_site_label
_atom_site_fract_x
_atom_site_fract_y
_atom_site_fract_z
Si Si1 0.197867 0.397367 0.346826
Si Si2 0.399962 0.799386 0.581679
Si Si3 0.171236 0.897023 0.940899
Si Si4 0.392601 0.301940 0.154867
Si Si5 0.401186 0.899190 0.684579
Si Si6 0.210515 0.889207 0.442623
Si Si7 0.774095 0.857076 0.745669
O O1 0.154782 0.500000 0.342507
O O2 0.244983 0.389445 0.402007
O O3 0.135701 0.306748 0.339202
O O4 0.277548 0.393101 0.303558
O O5 0.500000 0.832697 0.565849
O O6 0.391266 0.690924 0.570109
O O7 0.391798 0.819888 0.642425
O O8 0.313533 0.851508 0.558737
O O9 0.130504 0.000000 0.933649
O O10 0.200778 0.890404 0.000000
O O11 0.500000 0.310716 0.151292
O O12 0.343505 0.340907 0.103778
O O13 0.353911 0.359373 0.204023
O O14 0.500000 0.889203 0.710088
O O15 0.316938 0.899301 0.721721
O O16 0.401089 0.000000 0.657556
O O17 0.173711 0.869701 0.500000
O O18 0.210002 0.000000 0.434872
O O19 0.750000 0.750000 0.750000
#
# Coordination Sequence:
#
# PCOD9522158 Si02
#       7
#    16  16  16  16  16  16  16
#     4  10  21  39  66  95 123 160 210 269 321 368
#     4  11  21  36  62  95 127 160 206 259 312 374
#     4  10  21  39  62  88 124 169 210 250 309 380
#     4  11  24  42  65  92 127 171 214 260 316 376
#     4  10  20  35  60  92 125 163 202 247 312 381
#     4  11  24  42  64  91 126 167 213 266 319 372
#     4  10  20  37  59  88 127 165 204 254 306 368
#
# _framework density 20.181881000000001
#
# number of rings (size 3 to 8) (size 9 to 14) (size 15 to 20)
#    0.000    1.571    2.857    2.143    0.000    6.000 
#    0.000    2.857    0.000    0.857    0.000    3.000 
#    0.000    0.000    0.000    0.000    0.000    0.000 
#
# Total GULP energy -312281.729471 kJ/mol
# GULP energy per Si atom -5576.459455 kJ/mol
# Density = 2.013595 g / cm^3
# Si number density = 20.181881 Si / 1000 Ang^3
#
#
#
# Elastic Constant Matrix: (Units=GPa)
#
#
# Indices 1 2 3 4 5 6 
#
# 1 117.4466 35.3585 50.3528 0.0000 0.0000 0.0000
# 2 35.3585 108.3799 40.3786 0.0000 0.0000 0.0000
# 3 50.3528 40.3786 104.0320 0.0000 0.0000 0.0000
# 4 0.0000 0.0000 0.0000 25.6294 0.0000 0.0000
# 5 0.0000 0.0000 0.0000 0.0000 1.8007 0.0000
# 6 0.0000 0.0000 0.0000 0.0000 0.0000 14.7587
#
#
#
# Elastic Compliance Matrix: (Units=1/GPa)
#
#
# Indices 1 2 3 4 5 6 
#
# 1 0.011065 -0.001888 -0.004623 0.000000 0.000000 0.000000
# 2 -0.001888 0.011109 -0.003398 0.000000 0.000000 0.000000
# 3 -0.004623 -0.003398 0.013169 0.000000 0.000000 0.000000
# 4 0.000000 0.000000 0.000000 0.039018 0.000000 0.000000
# 5 0.000000 0.000000 0.000000 0.000000 0.555355 0.000000
# 6 0.000000 0.000000 0.000000 0.000000 0.000000 0.067756
#
#
# Mechanical properties :
#
#
# Convention : Reuss Voigt Hill
#
# Bulk Modulus (GPa) = 64.41093 64.67091 64.54092
# Shear Modulus (GPa) = 6.92077 22.02234 14.47156
#
# Velocity S-wave (km/s) = 1.85382 3.30691 2.68070
# Velocity P-wave (km/s) = 6.04704 6.83333 6.45218
#
# Compressibility (1/GPa) = 0.01552532
#
# Stress axis : x y z
#
# Youngs Moduli (GPa) = 90.37739 90.02042 75.93673
#
# Poissons Ratio (x) = 0.16991 0.35104
# Poissons Ratio (y) = 0.17059 0.25804
# Poissons Ratio (z) = 0.41780 0.30590
#
# Static dielectric constant tensor:
#      x y z
#    x 1.692670 0.000000 0.000000 
#    y 0.000000 1.727240 0.000000 
#    z 0.000000 0.000000 1.764730 
# 
# From -- ./inp_files/65508.got.cif
#   From: 2010.05.17/outbox.cif.g08.bks.cpg/sg71_33_cif.got.tgz:65508.got - 2010.06.03 16:22:01.
