data_PCOD9522299
_publ_section_title
;
Structure prediction by ZEFSAII (Michael W. Deem and Ramdas Pophale) SiO2 
 PCOD9522299
Probable space group: I M M M
;
_chemical_formula_sum "Si O2"
_cell_formula_units_Z 116
_cell_length_a 7.651258
_cell_length_b 22.524868
_cell_length_c 28.901580
_cell_angle_alpha 90.000000
_cell_angle_beta 90.000000
_cell_angle_gamma 90.000000
_cell_volume 4981.001663
_symmetry_space_group_name_H-M "I M M M"
_symmetry_group_IT_number 71
_symmetry_cell_setting 'orthorhombic'
loop_
_space_group_symop_operation_xyz
x,y,z
-x,-y,z
x,-y,-z
-x,y,-z
-x,-y,-z
x,y,-z
-x,y,z
x,-y,z
1/2+x,1/2+y,1/2+z
1/2-x,1/2-y,1/2+z
1/2+x,1/2-y,1/2-z
1/2-x,1/2+y,1/2-z
1/2-x,1/2-y,1/2-z
1/2+x,1/2+y,1/2-z
1/2-x,1/2+y,1/2+z
1/2+x,1/2-y,1/2+z
loop_
_atom_site_type_symbol
_atom_site_label
_atom_site_fract_x
_atom_site_fract_y
_atom_site_fract_z
Si Si1 0.700025 0.091781 0.051571
Si Si2 0.205728 0.667745 0.791868
Si Si3 0.210111 0.297008 0.689848
Si Si4 0.697927 0.724849 0.444895
Si Si5 0.714257 0.067905 0.638774
Si Si6 0.286104 0.146858 0.446761
Si Si7 0.808787 0.916639 0.150891
Si Si8 0.000000 0.500000 0.680987
O O1 0.500000 0.071080 0.053295
O O2 0.701351 0.163192 0.057688
O O3 0.794123 0.067466 0.096632
O O4 0.771000 0.079114 0.000000
O O5 0.275812 0.681275 0.740552
O O6 0.227771 0.730198 0.818182
O O7 0.275765 0.612269 0.820675
O O8 0.000000 0.656666 0.785884
O O9 0.279322 0.346232 0.655308
O O10 0.000000 0.296473 0.689231
O O11 0.683127 0.735530 0.500000
O O12 0.500000 0.715833 0.427221
O O13 0.772831 0.787937 0.428853
O O14 0.500000 0.068118 0.639746
O O15 0.765710 0.096661 0.589669
O O16 0.770536 0.000000 0.644239
O O17 0.231103 0.136185 0.500000
O O18 0.500000 0.149538 0.446840
O O19 0.000000 0.931485 0.168545
O O20 0.653479 0.948784 0.177555
#
# Coordination Sequence:
#
# PCOD9522299 Si02
#       8
#    16  16  16  16  16  16  16   4
#     4  10  20  36  58  89 128 165 209 267 323 383
#     4   9  19  35  59  91 123 163 209 269 333 396
#     4  10  20  39  62  93 125 157 209 273 335 393
#     4   8  14  25  43  72 108 147 197 253 311 370
#     4   9  17  29  45  75 116 160 212 258 312 382
#     4   8  14  24  40  67 108 157 206 257 307 364
#     4  12  25  44  71  96 130 175 216 268 328 386
#     4  12  26  52  65 100 140 166 224 268 309 404
#
# _framework density 23.288489999999999
#
# number of rings (size 3 to 8) (size 9 to 14) (size 15 to 20)
#    0.000    2.483    1.379    1.862    1.931    1.655 
#    1.241    2.069    0.000    1.241    0.000    0.000 
#    0.000    0.000    0.000    6.621    0.000    6.897 
#
# Total GULP energy -323442.105224 kJ/mol
# GULP energy per Si atom -5576.588021 kJ/mol
# Density = 2.323548 g / cm^3
# Si number density = 23.288490 Si / 1000 Ang^3
#
#
#
# Elastic Constant Matrix: (Units=GPa)
#
#
# Indices 1 2 3 4 5 6 
#
# 1 72.7893 -8.2604 -8.5054 0.0000 0.0000 0.0000
# 2 -8.2604 139.8728 34.8635 0.0000 0.0000 0.0000
# 3 -8.5054 34.8635 89.6517 0.0000 0.0000 0.0000
# 4 0.0000 0.0000 0.0000 -63.0744 0.0000 0.0000
# 5 0.0000 0.0000 0.0000 0.0000 7.5731 0.0000
# 6 0.0000 0.0000 0.0000 0.0000 0.0000 23.1617
#
#
#
# Elastic Compliance Matrix: (Units=1/GPa)
#
#
# Indices 1 2 3 4 5 6 
#
# 1 0.013930 0.000546 0.001109 0.000000 0.000000 0.000000
# 2 0.000546 0.007938 -0.003035 0.000000 0.000000 0.000000
# 3 0.001109 -0.003035 0.012440 0.000000 0.000000 0.000000
# 4 0.000000 0.000000 0.000000 -0.015854 0.000000 0.000000
# 5 0.000000 0.000000 0.000000 0.000000 0.132045 0.000000
# 6 0.000000 0.000000 0.000000 0.000000 0.000000 0.043175
#
#
# Mechanical properties :
#
#
# Convention : Reuss Voigt Hill
#
# Bulk Modulus (GPa) = 31.69753 37.61214 34.65484
# Shear Modulus (GPa) = 24.16049 12.47982 18.32016
#
# Velocity S-wave (km/s) = 3.22443 2.31742 2.80779
# Velocity P-wave (km/s) = 5.24433 4.83179 5.04228
#
# Compressibility (1/GPa) = 0.03154820
#
# Stress axis : x y z
#
# Youngs Moduli (GPa) = 71.78815 125.97433 80.38709
#
# Poissons Ratio (x) = -0.06881 -0.08916
# Poissons Ratio (y) = -0.03921 0.24399
# Poissons Ratio (z) = -0.07962 0.38235
#
# Static dielectric constant tensor:
#      x y z
#    x 1.863470 0.000000 0.000000 
#    y 0.000000 1.896210 0.000000 
#    z 0.000000 0.000000 1.923830 
# 
# From -- ./inp_files/63640.got.cif
#   From: 2010.05.17/outbox.cif.g08.bks.cpg/sg71_32_cif.got.tgz:63640.got - 2010.06.03 16:22:01.
