data_PCOD9522770
_publ_section_title
;
Structure prediction by ZEFSAII (Michael W. Deem and Ramdas Pophale) SiO2 
 PCOD9522770
Probable space group: I M M M
;
_chemical_formula_sum "Si O2"
_cell_formula_units_Z 120
_cell_length_a 27.446402
_cell_length_b 28.760299
_cell_length_c 8.673638
_cell_angle_alpha 90.000000
_cell_angle_beta 90.000000
_cell_angle_gamma 90.000000
_cell_volume 6846.681248
_symmetry_space_group_name_H-M "I M M M"
_symmetry_group_IT_number 71
_symmetry_cell_setting 'orthorhombic'
loop_
_space_group_symop_operation_xyz
x,y,z
-x,-y,z
x,-y,-z
-x,y,-z
-x,-y,-z
x,y,-z
-x,y,z
x,-y,z
1/2+x,1/2+y,1/2+z
1/2-x,1/2-y,1/2+z
1/2+x,1/2-y,1/2-z
1/2-x,1/2+y,1/2-z
1/2-x,1/2-y,1/2-z
1/2+x,1/2+y,1/2-z
1/2-x,1/2+y,1/2+z
1/2+x,1/2-y,1/2+z
loop_
_atom_site_type_symbol
_atom_site_label
_atom_site_fract_x
_atom_site_fract_y
_atom_site_fract_z
Si Si1 0.000000 0.946384 0.688639
Si Si2 0.701861 0.387744 0.813713
Si Si3 0.558222 0.286507 0.179604
Si Si4 0.592892 0.613377 0.188022
Si Si5 0.294983 0.053028 0.686161
Si Si6 0.758328 0.698647 0.684874
Si Si7 0.944193 0.313058 0.816768
Si Si8 0.148226 0.638299 0.683983
O O1 0.048640 0.919298 0.739635
O O2 0.000000 0.945692 0.500000
O O3 0.000000 0.000000 0.736626
O O4 0.647215 0.400841 0.765867
O O5 0.742505 0.425481 0.768327
O O6 0.718655 0.338246 0.746290
O O7 0.702508 0.384077 0.000000
O O8 0.500000 0.294865 0.184932
O O9 0.583575 0.333372 0.235935
O O10 0.568791 0.239990 0.272664
O O11 0.571478 0.278607 0.000000
O O12 0.590988 0.613446 0.000000
O O13 0.297102 0.053531 0.500000
O O14 0.334543 0.088968 0.749791
O O15 0.300770 0.000000 0.738473
O O16 0.756630 0.700235 0.500000
O O17 0.750000 0.750000 0.750000
O O18 0.810598 0.676308 0.731960
O O19 0.904330 0.346157 0.742155
O O20 0.000000 0.320908 0.762483
O O21 0.943235 0.318367 0.000000
O O22 0.148705 0.636375 0.500000
#
# Coordination Sequence:
#
# PCOD9522770 Si02
#       8
#     8  16  16  16  16  16  16  16
#     4   9  16  26  42  68 101 135 173 221 274 317
#     4   9  18  31  48  72 102 134 173 217 261 310
#     4   9  16  28  46  66  96 138 179 214 254 302
#     4   9  16  27  43  66  98 135 173 217 264 310
#     4   9  18  34  55  77 103 136 173 215 265 314
#     4  10  21  35  50  72 103 137 173 212 261 314
#     4  10  21  35  52  78 110 140 173 210 252 302
#     4  10  21  36  55  79 106 138 175 212 257 311
#
# _framework density 17.52674
#
# number of rings (size 3 to 8) (size 9 to 14) (size 15 to 20)
#    0.000    2.600    0.667    1.200    1.867    3.200 
#    0.000    2.667    0.000    0.400    0.000    2.800 
#    0.000    3.733    0.000    0.000    0.000    0.000 
#
# Total GULP energy -334643.955083 kJ/mol
# GULP energy per Si atom -5577.399251 kJ/mol
# Density = 1.748685 g / cm^3
# Si number density = 17.526740 Si / 1000 Ang^3
#
#
#
# Elastic Constant Matrix: (Units=GPa)
#
#
# Indices 1 2 3 4 5 6 
#
# 1 127.2968 84.8095 20.5899 0.0000 0.0000 0.0000
# 2 84.8095 151.0054 26.9333 0.0000 0.0000 0.0000
# 3 20.5899 26.9333 15.1561 0.0000 0.0000 0.0000
# 4 0.0000 0.0000 0.0000 18.7064 0.0000 0.0000
# 5 0.0000 0.0000 0.0000 0.0000 16.8336 0.0000
# 6 0.0000 0.0000 0.0000 0.0000 0.0000 12.4673
#
#
#
# Elastic Compliance Matrix: (Units=1/GPa)
#
#
# Indices 1 2 3 4 5 6 
#
# 1 0.013024 -0.006089 -0.006873 0.000000 0.000000 0.000000
# 2 -0.006089 0.012542 -0.014016 0.000000 0.000000 0.000000
# 3 -0.006873 -0.014016 0.100224 0.000000 0.000000 0.000000
# 4 0.000000 0.000000 0.000000 0.053458 0.000000 0.000000
# 5 0.000000 0.000000 0.000000 0.000000 0.059405 0.000000
# 6 0.000000 0.000000 0.000000 0.000000 0.000000 0.080210
#
#
# Mechanical properties :
#
#
# Convention : Reuss Voigt Hill
#
# Bulk Modulus (GPa) = 13.92086 62.01373 37.96730
# Shear Modulus (GPa) = 12.60198 20.34316 16.47257
#
# Velocity S-wave (km/s) = 2.68435 3.41059 3.06903
# Velocity P-wave (km/s) = 4.19137 7.13923 5.85390
#
# Compressibility (1/GPa) = 0.07183464
#
# Stress axis : x y z
#
# Youngs Moduli (GPa) = 76.78191 79.73349 9.97760
#
# Poissons Ratio (x) = 0.48548 0.06858
# Poissons Ratio (y) = 0.46751 0.13984
# Poissons Ratio (z) = 0.52774 1.11753
#
# Static dielectric constant tensor:
#      x y z
#    x 1.604440 0.000000 0.000000 
#    y 0.000000 1.570500 0.000000 
#    z 0.000000 0.000000 1.598090 
# 
# From -- ./inp_files/15628.got.cif
#   From: 2010.05.17/outbox.cif.g08.bks.cpg/sg71_8_cif.got.tgz:15628.got - 2010.06.03 16:22:01.
