data_PCOD9522166
_publ_section_title
;
Structure prediction by ZEFSAII (Michael W. Deem and Ramdas Pophale) SiO2 
 PCOD9522166
Probable space group: I M M M
;
_chemical_formula_sum "Si O2"
_cell_formula_units_Z 80
_cell_length_a 20.697767
_cell_length_b 11.636268
_cell_length_c 17.259974
_cell_angle_alpha 90.000000
_cell_angle_beta 90.000000
_cell_angle_gamma 90.000000
_cell_volume 4156.974361
_symmetry_space_group_name_H-M "I M M M"
_symmetry_group_IT_number 71
_symmetry_cell_setting 'orthorhombic'
loop_
_space_group_symop_operation_xyz
x,y,z
-x,-y,z
x,-y,-z
-x,y,-z
-x,-y,-z
x,y,-z
-x,y,z
x,-y,z
1/2+x,1/2+y,1/2+z
1/2-x,1/2-y,1/2+z
1/2+x,1/2-y,1/2-z
1/2-x,1/2+y,1/2-z
1/2-x,1/2-y,1/2-z
1/2+x,1/2+y,1/2-z
1/2-x,1/2+y,1/2+z
1/2+x,1/2-y,1/2+z
loop_
_atom_site_type_symbol
_atom_site_label
_atom_site_fract_x
_atom_site_fract_y
_atom_site_fract_z
Si Si1 0.187081 0.000000 0.907646
Si Si2 0.576977 0.500000 0.718229
Si Si3 0.760424 0.264582 0.412358
Si Si4 0.500000 0.132510 0.623041
Si Si5 0.361463 0.862417 0.636416
Si Si6 0.500000 0.132279 0.187421
Si Si7 0.123980 0.234051 0.702873
O O1 0.229200 0.112930 0.888762
O O2 0.121377 0.000000 0.858553
O O3 0.174650 0.000000 0.000000
O O4 0.500000 0.500000 0.703290
O O5 0.597006 0.386912 0.766372
O O6 0.785099 0.275104 0.500000
O O7 0.700633 0.176918 0.409847
O O8 0.815816 0.225674 0.354077
O O9 0.569870 0.181885 0.601569
O O10 0.500000 0.134568 0.717509
O O11 0.500000 0.000000 0.596927
O O12 0.355667 0.807675 0.721658
O O13 0.365703 0.000000 0.642260
O O14 0.435259 0.197564 0.163812
O O15 0.500000 0.000000 0.163834
#
# Coordination Sequence:
#
# PCOD9522166 Si02
#       7
#     8   8  16   8  16   8  16
#     4  10  24  43  62  90 129 166 204 247 307 378
#     4  12  24  41  67  96 123 160 213 256 304 375
#     4  11  25  41  58  85 124 165 202 250 307 367
#     4   7  14  30  52  84 112 137 176 242 287 333
#     4  10  20  35  62  90 116 150 202 247 305 360
#     4   9  18  35  60  90 115 146 193 252 314 350
#     4  11  22  38  63  90 121 154 203 259 306 357
#
# _framework density 19.244765999999998
#
# number of rings (size 3 to 8) (size 9 to 14) (size 15 to 20)
#    0.000    1.800    3.000    2.400    4.200    0.600 
#    0.000    1.000    0.000    3.000    0.000    0.000 
#    0.000    0.800    0.000    0.000    0.000    0.000 
#
# Total GULP energy -223307.710370 kJ/mol
# GULP energy per Si atom -5582.692759 kJ/mol
# Density = 1.920096 g / cm^3
# Si number density = 19.244766 Si / 1000 Ang^3
#
#
#
# Elastic Constant Matrix: (Units=GPa)
#
#
# Indices 1 2 3 4 5 6 
#
# 1 134.8619 20.6143 43.0054 0.0000 0.0000 0.0000
# 2 20.6143 85.0984 5.2570 0.0000 0.0000 0.0000
# 3 43.0054 5.2570 41.1863 0.0000 0.0000 0.0000
# 4 0.0000 0.0000 0.0000 7.9252 0.0000 0.0000
# 5 0.0000 0.0000 0.0000 0.0000 -12.7983 0.0000
# 6 0.0000 0.0000 0.0000 0.0000 0.0000 16.4652
#
#
#
# Elastic Compliance Matrix: (Units=1/GPa)
#
#
# Indices 1 2 3 4 5 6 
#
# 1 0.011462 -0.002053 -0.011706 0.000000 0.000000 0.000000
# 2 -0.002053 0.012212 0.000585 0.000000 0.000000 0.000000
# 3 -0.011706 0.000585 0.036428 0.000000 0.000000 0.000000
# 4 0.000000 0.000000 0.000000 0.126180 0.000000 0.000000
# 5 0.000000 0.000000 0.000000 0.000000 -0.078135 0.000000
# 6 0.000000 0.000000 0.000000 0.000000 0.000000 0.060734
#
#
# Mechanical properties :
#
#
# Convention : Reuss Voigt Hill
#
# Bulk Modulus (GPa) = 29.62592 44.32224 36.97408
# Shear Modulus (GPa) = 24.21543 15.13641 19.67592
#
# Velocity S-wave (km/s) = 3.55108 2.80754 3.20097
# Velocity P-wave (km/s) = 5.67814 5.79573 5.73724
#
# Compressibility (1/GPa) = 0.03375423
#
# Stress axis : x y z
#
# Youngs Moduli (GPa) = 87.24747 81.88436 27.45140
#
# Poissons Ratio (x) = 0.16814 0.32134
# Poissons Ratio (y) = 0.17915 -0.01607
# Poissons Ratio (z) = 1.02130 -0.04792
#
# Static dielectric constant tensor:
#      x y z
#    x 1.688880 0.000000 0.000000 
#    y 0.000000 1.683170 0.000000 
#    z 0.000000 0.000000 1.647810 
# 
# From -- ./inp_files/47081.got.cif
#   From: 2010.05.17/outbox.cif.g08.bks.cpg/sg71_24_cif.got.tgz:47081.got - 2010.06.03 16:22:01.
