data_PCOD9522721
_publ_section_title
;
Structure prediction by ZEFSAII (Michael W. Deem and Ramdas Pophale) SiO2 
 PCOD9522721
Probable space group: I M M M
;
_chemical_formula_sum "Si O2"
_cell_formula_units_Z 88
_cell_length_a 12.727289
_cell_length_b 18.854095
_cell_length_c 15.481334
_cell_angle_alpha 90.000000
_cell_angle_beta 90.000000
_cell_angle_gamma 90.000000
_cell_volume 3714.924375
_symmetry_space_group_name_H-M "I M M M"
_symmetry_group_IT_number 71
_symmetry_cell_setting 'orthorhombic'
loop_
_space_group_symop_operation_xyz
x,y,z
-x,-y,z
x,-y,-z
-x,y,-z
-x,-y,-z
x,y,-z
-x,y,z
x,-y,z
1/2+x,1/2+y,1/2+z
1/2-x,1/2-y,1/2+z
1/2+x,1/2-y,1/2-z
1/2-x,1/2+y,1/2-z
1/2-x,1/2-y,1/2-z
1/2+x,1/2+y,1/2-z
1/2-x,1/2+y,1/2+z
1/2+x,1/2-y,1/2+z
loop_
_atom_site_type_symbol
_atom_site_label
_atom_site_fract_x
_atom_site_fract_y
_atom_site_fract_z
Si Si1 0.337631 0.576286 0.837066
Si Si2 0.877969 0.500000 0.396214
Si Si3 0.657546 0.727628 0.634660
Si Si4 0.886698 0.612544 0.098936
Si Si5 0.328738 0.424741 0.366027
Si Si6 0.612606 0.731507 0.159187
O O1 0.370465 0.500000 0.873527
O O2 0.212422 0.584857 0.849115
O O3 0.358697 0.575620 0.734986
O O4 0.383644 0.649568 0.871943
O O5 0.882459 0.500000 0.500000
O O6 0.799323 0.565219 0.370274
O O7 0.000000 0.500000 0.365098
O O8 0.616705 0.801530 0.598184
O O9 0.630265 0.650000 0.599777
O O10 0.627109 0.730245 0.736451
O O11 0.783485 0.731733 0.625389
O O12 0.000000 0.590427 0.133742
O O13 0.876866 0.588478 0.000000
O O14 0.366905 0.500000 0.402891
O O15 0.500000 0.763461 0.137609
#
# Coordination Sequence:
#
# PCOD9522721 Si02
#       6
#    16   8  16  16  16  16
#     4   9  18  34  51  72 102 131 170 214 259 307
#     4   9  18  30  44  68  98 124 158 203 248 300
#     4   9  17  31  50  72 102 134 169 208 255 305
#     4  10  21  34  50  75 104 138 178 216 258 307
#     4   8  17  31  48  71  97 129 166 205 252 303
#     4   9  17  29  50  77 101 129 167 212 257 304
#
# _framework density 23.688233
#
# number of rings (size 3 to 8) (size 9 to 14) (size 15 to 20)
#    0.545    2.455    0.000    1.636    0.000    3.273 
#    0.000    0.909    0.000   10.364    0.000    6.364 
#    0.000    0.000    0.000    0.000    0.000    0.000 
#
# Total GULP energy -245183.641142 kJ/mol
# GULP energy per Si atom -5572.355480 kJ/mol
# Density = 2.363432 g / cm^3
# Si number density = 23.688233 Si / 1000 Ang^3
#
#
#
# Elastic Constant Matrix: (Units=GPa)
#
#
# Indices 1 2 3 4 5 6 
#
# 1 131.7769 -4.4277 -12.1664 0.0000 0.0000 0.0000
# 2 -4.4277 130.4861 10.1763 0.0000 0.0000 0.0000
# 3 -12.1664 10.1763 21.9442 -0.0001 0.0000 0.0000
# 4 0.0000 0.0000 -0.0001 -27.6622 0.0000 0.0000
# 5 0.0000 0.0000 0.0000 0.0000 -2.0918 0.0000
# 6 0.0000 0.0000 0.0000 0.0000 0.0000 -31.5747
#
#
#
# Elastic Compliance Matrix: (Units=1/GPa)
#
#
# Indices 1 2 3 4 5 6 
#
# 1 0.007999 -0.000077 0.004471 0.000000 0.000000 0.000000
# 2 -0.000077 0.007952 -0.003730 0.000000 0.000000 0.000000
# 3 0.004471 -0.003730 0.049779 0.000000 0.000000 0.000000
# 4 0.000000 0.000000 0.000000 -0.036150 0.000000 0.000000
# 5 0.000000 0.000000 0.000000 0.000000 -0.478059 0.000000
# 6 0.000000 0.000000 0.000000 0.000000 0.000000 -0.031671
#
#
# Mechanical properties :
#
#
# Convention : Reuss Voigt Hill
#
# Bulk Modulus (GPa) = 14.91313 30.15240 22.53276
# Shear Modulus (GPa) = -10.89028 7.10926 -1.89051
#
# Velocity S-wave (km/s) = -2.14647 1.73427 -0.89432
# Velocity P-wave (km/s) = 0.40763 4.09472 2.90972
#
# Compressibility (1/GPa) = 0.06705500
#
# Stress axis : x y z
#
# Youngs Moduli (GPa) = 125.01976 125.75524 20.08897
#
# Poissons Ratio (x) = 0.00971 -0.08981
# Poissons Ratio (y) = 0.00966 0.07494
# Poissons Ratio (z) = -0.55890 0.46912
#
# Static dielectric constant tensor:
#      x y z
#    x 1.903400 0.000000 0.000000 
#    y 0.000000 1.941140 0.000000 
#    z 0.000000 0.000000 1.856090 
# 
# From -- ./inp_files/43358.got.cif
#   From: 2010.05.17/outbox.cif.g08.bks.cpg/sg71_22_cif.got.tgz:43358.got - 2010.06.03 16:22:01.
