data_PCOD9522681
_publ_section_title
;
Structure prediction by ZEFSAII (Michael W. Deem and Ramdas Pophale) SiO2 
 PCOD9522681
Probable space group: I M M M
;
_chemical_formula_sum "Si O2"
_cell_formula_units_Z 112
_cell_length_a 25.566170
_cell_length_b 10.599918
_cell_length_c 22.609210
_cell_angle_alpha 90.000000
_cell_angle_beta 90.000000
_cell_angle_gamma 90.000000
_cell_volume 6127.080210
_symmetry_space_group_name_H-M "I M M M"
_symmetry_group_IT_number 71
_symmetry_cell_setting 'orthorhombic'
loop_
_space_group_symop_operation_xyz
x,y,z
-x,-y,z
x,-y,-z
-x,y,-z
-x,-y,-z
x,y,-z
-x,y,z
x,-y,z
1/2+x,1/2+y,1/2+z
1/2-x,1/2-y,1/2+z
1/2+x,1/2-y,1/2-z
1/2-x,1/2+y,1/2-z
1/2-x,1/2-y,1/2-z
1/2+x,1/2+y,1/2-z
1/2-x,1/2+y,1/2+z
1/2+x,1/2-y,1/2+z
loop_
_atom_site_type_symbol
_atom_site_label
_atom_site_fract_x
_atom_site_fract_y
_atom_site_fract_z
Si Si1 0.208414 0.860662 0.241674
Si Si2 0.941077 0.848739 0.433767
Si Si3 0.276537 0.847689 0.934354
Si Si4 0.059500 0.640811 0.748045
Si Si5 0.666657 0.645926 0.608010
Si Si6 0.440401 0.650826 0.649254
Si Si7 0.640194 0.751655 0.159992
O O1 0.250000 0.750000 0.250000
O O2 0.181551 0.849283 0.177669
O O3 0.166418 0.843614 0.293566
O O4 0.232903 0.000000 0.244531
O O5 0.927635 0.803397 0.500000
O O6 0.900090 0.809401 0.385277
O O7 0.000000 0.804825 0.419960
O O8 0.942398 0.000000 0.435688
O O9 0.217258 0.797684 0.924273
O O10 0.313817 0.808057 0.880679
O O11 0.274769 0.000000 0.933150
O O12 0.294878 0.808884 0.000000
O O13 0.063906 0.500000 0.775213
O O14 0.063999 0.755566 0.794632
O O15 0.104982 0.655251 0.699727
O O16 0.000000 0.649670 0.723254
O O17 0.665042 0.500000 0.588861
O O18 0.606717 0.689982 0.605437
O O19 0.500000 0.662756 0.626803
O O20 0.432977 0.500000 0.664042
#
# Coordination Sequence:
#
# PCOD9522681 Si02
#       7
#    16  16  16  16  16  16  16
#     4  11  22  35  52  78 109 141 174 213 267 324
#     4   9  19  35  52  71  97 131 174 221 261 297
#     4  10  21  35  52  73  98 135 179 220 261 308
#     4  10  21  33  46  72 110 143 169 206 256 306
#     4   9  17  33  51  74 105 134 168 212 255 310
#     4   9  17  31  53  78 105 137 170 206 252 311
#     4  12  20  32  52  75 101 135 178 218 257 310
#
# _framework density 18.279506999999999
#
# number of rings (size 3 to 8) (size 9 to 14) (size 15 to 20)
#    0.000    2.000    2.857    2.143    0.000    1.143 
#    0.000    1.429    0.000    0.429    0.000    9.000 
#    0.000    0.000    0.000    3.571    0.000    3.714 
#
# Total GULP energy -311826.499312 kJ/mol
# GULP energy per Si atom -5568.330345 kJ/mol
# Density = 1.823790 g / cm^3
# Si number density = 18.279507 Si / 1000 Ang^3
#
#
#
# Elastic Constant Matrix: (Units=GPa)
#
#
# Indices 1 2 3 4 5 6 
#
# 1 103.9240 18.1149 9.2902 0.0000 0.0000 0.0000
# 2 18.1149 56.1307 1.9431 0.0000 0.0000 0.0000
# 3 9.2902 1.9431 35.2730 0.0000 0.0000 0.0000
# 4 0.0000 0.0000 0.0000 13.6132 0.0000 0.0000
# 5 0.0000 0.0000 0.0000 0.0000 27.8721 0.0000
# 6 0.0000 0.0000 0.0000 0.0000 0.0000 15.1108
#
#
#
# Elastic Compliance Matrix: (Units=1/GPa)
#
#
# Indices 1 2 3 4 5 6 
#
# 1 0.010423 -0.003275 -0.002565 0.000000 0.000000 0.000000
# 2 -0.003275 0.018879 -0.000177 0.000000 0.000000 0.000000
# 3 -0.002565 -0.000177 0.029036 0.000000 0.000000 0.000000
# 4 0.000000 0.000000 0.000000 0.073458 0.000000 0.000000
# 5 0.000000 0.000000 0.000000 0.000000 0.035878 0.000000
# 6 0.000000 0.000000 0.000000 0.000000 0.000000 0.066178
#
#
# Mechanical properties :
#
#
# Convention : Reuss Voigt Hill
#
# Bulk Modulus (GPa) = 21.59703 28.22493 24.91098
# Shear Modulus (GPa) = 19.13373 22.38453 20.75913
#
# Velocity S-wave (km/s) = 3.23883 3.50318 3.37360
# Velocity P-wave (km/s) = 5.08205 5.64246 5.36957
#
# Compressibility (1/GPa) = 0.04630267
#
# Stress axis : x y z
#
# Youngs Moduli (GPa) = 95.94607 52.97009 34.44053
#
# Poissons Ratio (x) = 0.17347 0.08833
# Poissons Ratio (y) = 0.31421 0.00611
# Poissons Ratio (z) = 0.24607 0.00940
#
# Static dielectric constant tensor:
#      x y z
#    x 1.683880 0.000000 0.000000 
#    y 0.000000 1.623650 0.000000 
#    z 0.000000 0.000000 1.618030 
# 
# From -- ./inp_files/27672.got.cif
#   From: 2010.05.17/outbox.cif.g08.bks.cpg/sg71_14_cif.got.tgz:27672.got - 2010.06.03 16:22:01.
