data_PCOD9522815
_publ_section_title
;
Structure prediction by ZEFSAII (Michael W. Deem and Ramdas Pophale) SiO2 
 PCOD9522815
Probable space group: I M M M
;
_chemical_formula_sum "Si O2"
_cell_formula_units_Z 80
_cell_length_a 7.681766
_cell_length_b 32.270505
_cell_length_c 18.106964
_cell_angle_alpha 90.000000
_cell_angle_beta 90.000000
_cell_angle_gamma 90.000000
_cell_volume 4488.616210
_symmetry_space_group_name_H-M "I M M M"
_symmetry_group_IT_number 71
_symmetry_cell_setting 'orthorhombic'
loop_
_space_group_symop_operation_xyz
x,y,z
-x,-y,z
x,-y,-z
-x,y,-z
-x,-y,-z
x,y,-z
-x,y,z
x,-y,z
1/2+x,1/2+y,1/2+z
1/2-x,1/2-y,1/2+z
1/2+x,1/2-y,1/2-z
1/2-x,1/2+y,1/2-z
1/2-x,1/2-y,1/2-z
1/2+x,1/2+y,1/2-z
1/2-x,1/2+y,1/2+z
1/2+x,1/2-y,1/2+z
loop_
_atom_site_type_symbol
_atom_site_label
_atom_site_fract_x
_atom_site_fract_y
_atom_site_fract_z
Si Si1 0.206799 0.330726 0.917230
Si Si2 0.000000 0.905796 0.081113
Si Si3 0.704069 0.891584 0.710053
Si Si4 0.203613 0.654199 0.633797
Si Si5 0.706941 0.754141 0.163466
Si Si6 0.000000 0.951007 0.764510
O O1 0.270033 0.365697 0.860440
O O2 0.231204 0.285639 0.881369
O O3 0.000000 0.337412 0.921623
O O4 0.279749 0.332631 0.000000
O O5 0.831173 0.876342 0.090722
O O6 0.000000 0.937569 0.149238
O O7 0.000000 0.924993 0.000000
O O8 0.500000 0.903213 0.701048
O O9 0.711331 0.860817 0.780753
O O10 0.830157 0.929546 0.728522
O O11 0.268207 0.701593 0.632279
O O12 0.000000 0.651770 0.610829
O O13 0.500000 0.755388 0.157849
O O14 0.750000 0.750000 0.250000
O O15 0.000000 0.000000 0.756149
#
# Coordination Sequence:
#
# PCOD9522815 Si02
#       6
#    16   8  16  16  16   8
#     4  10  21  35  52  78 111 148 188 231 278 323
#     4  10  22  37  58  81 111 150 180 225 286 330
#     4   9  18  36  58  80 108 144 182 222 275 330
#     4   9  19  34  52  76 107 151 197 228 261 319
#     4  11  21  31  51  76 108 150 194 239 274 310
#     4  10  22  39  63  90 108 131 179 230 282 352
#
# _framework density 17.822863999999999
#
# number of rings (size 3 to 8) (size 9 to 14) (size 15 to 20)
#    0.000    2.200    2.000    0.600    4.200    2.200 
#    0.000    2.000    0.000    1.200    0.000    8.400 
#    0.000    0.000    0.000    0.000    0.000    0.000 
#
# Total GULP energy -223176.013724 kJ/mol
# GULP energy per Si atom -5579.400343 kJ/mol
# Density = 1.778230 g / cm^3
# Si number density = 17.822864 Si / 1000 Ang^3
#
#
#
# Elastic Constant Matrix: (Units=GPa)
#
#
# Indices 1 2 3 4 5 6 
#
# 1 70.7923 43.6619 28.3419 0.0000 0.0000 0.0000
# 2 43.6619 142.2126 50.3514 0.0000 0.0000 0.0000
# 3 28.3419 50.3514 106.4870 0.0000 0.0000 0.0000
# 4 0.0000 0.0000 0.0000 9.1021 0.0000 0.0000
# 5 0.0000 0.0000 0.0000 0.0000 12.7691 0.0000
# 6 0.0000 0.0000 0.0000 0.0000 0.0000 19.7866
#
#
#
# Elastic Compliance Matrix: (Units=1/GPa)
#
#
# Indices 1 2 3 4 5 6 
#
# 1 0.018013 -0.004604 -0.002617 0.000000 0.000000 0.000000
# 2 -0.004604 0.009622 -0.003324 0.000000 0.000000 0.000000
# 3 -0.002617 -0.003324 0.011659 0.000000 0.000000 0.000000
# 4 0.000000 0.000000 0.000000 0.109864 0.000000 0.000000
# 5 0.000000 0.000000 0.000000 0.000000 0.078314 0.000000
# 6 0.000000 0.000000 0.000000 0.000000 0.000000 0.050539
#
#
# Mechanical properties :
#
#
# Convention : Reuss Voigt Hill
#
# Bulk Modulus (GPa) = 54.93439 62.68913 58.81176
# Shear Modulus (GPa) = 16.38424 21.47402 18.92913
#
# Velocity S-wave (km/s) = 3.03526 3.47487 3.26248
# Velocity P-wave (km/s) = 6.57062 7.16585 6.87468
#
# Compressibility (1/GPa) = 0.01820353
#
# Stress axis : x y z
#
# Youngs Moduli (GPa) = 55.51528 103.92658 85.76762
#
# Poissons Ratio (x) = 0.47844 0.22449
# Poissons Ratio (y) = 0.25557 0.28513
# Poissons Ratio (z) = 0.14531 0.34550
#
# Static dielectric constant tensor:
#      x y z
#    x 1.626340 0.000000 0.000000 
#    y 0.000000 1.569420 0.000000 
#    z 0.000000 0.000000 1.624610 
# 
# From -- ./inp_files/8423.got.cif
#   From: 2010.05.17/outbox.cif.g08.bks.cpg/sg71_5_cif.got.tgz:8423.got - 2010.06.03 16:22:01.
