data_PCOD9522425
_publ_section_title
;
Structure prediction by ZEFSAII (Michael W. Deem and Ramdas Pophale) SiO2 
 PCOD9522425
Probable space group: I M M M
;
_chemical_formula_sum "Si O2"
_cell_formula_units_Z 104
_cell_length_a 34.045964
_cell_length_b 19.743505
_cell_length_c 8.026250
_cell_angle_alpha 90.000000
_cell_angle_beta 90.000000
_cell_angle_gamma 90.000000
_cell_volume 5395.138184
_symmetry_space_group_name_H-M "I M M M"
_symmetry_group_IT_number 71
_symmetry_cell_setting 'orthorhombic'
loop_
_space_group_symop_operation_xyz
x,y,z
-x,-y,z
x,-y,-z
-x,y,-z
-x,-y,-z
x,y,-z
-x,y,z
x,-y,z
1/2+x,1/2+y,1/2+z
1/2-x,1/2-y,1/2+z
1/2+x,1/2-y,1/2-z
1/2-x,1/2+y,1/2-z
1/2-x,1/2-y,1/2-z
1/2+x,1/2+y,1/2-z
1/2-x,1/2+y,1/2+z
1/2+x,1/2-y,1/2+z
loop_
_atom_site_type_symbol
_atom_site_label
_atom_site_fract_x
_atom_site_fract_y
_atom_site_fract_z
Si Si1 0.084707 0.922634 0.701945
Si Si2 0.120879 0.338736 0.798948
Si Si3 0.803598 0.423374 0.799811
Si Si4 0.734648 0.676361 0.699196
Si Si5 0.853822 0.189874 0.200390
Si Si6 0.000000 0.082320 0.308837
Si Si7 0.044677 0.577738 0.700889
O O1 0.082363 0.923998 0.500000
O O2 0.117470 0.870684 0.754827
O O3 0.041819 0.899453 0.767298
O O4 0.092169 0.000000 0.756587
O O5 0.157170 0.385276 0.738286
O O6 0.129396 0.262193 0.738706
O O7 0.079139 0.371516 0.753091
O O8 0.122542 0.337427 0.000000
O O9 0.801145 0.500000 0.735232
O O10 0.764922 0.379955 0.761541
O O11 0.806929 0.426433 0.000000
O O12 0.733945 0.671708 0.500000
O O13 0.750000 0.750000 0.750000
O O14 0.689940 0.673125 0.762947
O O15 0.851275 0.195181 0.000000
O O16 0.000000 0.107373 0.500000
O O17 0.000000 0.000000 0.315732
O O18 0.044091 0.576886 0.500000
O O19 0.053018 0.500000 0.756788
O O20 0.000000 0.595157 0.756345
#
# Coordination Sequence:
#
# PCOD9522425 Si02
#       7
#    16  16  16  16  16   8  16
#     4   9  18  34  57  83 109 140 182 226 268 319
#     4  10  20  37  57  79 111 149 187 224 269 326
#     4  10  21  38  60  86 115 145 182 231 279 323
#     4  11  22  39  60  79 108 147 186 227 275 331
#     4  10  22  38  55  78 111 147 180 220 272 326
#     4   7  12  28  53  77 103 135 172 219 266 309
#     4   9  19  36  56  80 112 146 182 229 279 323
#
# _framework density 19.276616000000001
#
# number of rings (size 3 to 8) (size 9 to 14) (size 15 to 20)
#    0.000    2.385    1.538    2.308    0.000    4.923 
#    1.385    4.231    0.000    1.385    0.000    0.000 
#    0.000    0.000    0.000    0.000    0.000    0.000 
#
# Total GULP energy -290042.335291 kJ/mol
# GULP energy per Si atom -5577.737217 kJ/mol
# Density = 1.923274 g / cm^3
# Si number density = 19.276616 Si / 1000 Ang^3
#
#
#
# Elastic Constant Matrix: (Units=GPa)
#
#
# Indices 1 2 3 4 5 6 
#
# 1 211.1385 113.4094 6.0764 0.0000 0.0000 0.0000
# 2 113.4094 150.7062 7.6687 0.0000 0.0000 0.0000
# 3 6.0764 7.6687 11.7863 0.0000 0.0000 0.0000
# 4 0.0000 0.0000 0.0000 23.5881 0.0000 0.0000
# 5 0.0000 0.0000 0.0000 0.0000 29.2962 0.0000
# 6 0.0000 0.0000 0.0000 0.0000 0.0000 38.8939
#
#
#
# Elastic Compliance Matrix: (Units=1/GPa)
#
#
# Indices 1 2 3 4 5 6 
#
# 1 0.007950 -0.005972 -0.000213 0.000000 0.000000 0.000000
# 2 -0.005972 0.011348 -0.004305 0.000000 0.000000 0.000000
# 3 -0.000213 -0.004305 0.087755 0.000000 0.000000 0.000000
# 4 0.000000 0.000000 0.000000 0.042394 0.000000 0.000000
# 5 0.000000 0.000000 0.000000 0.000000 0.034134 0.000000
# 6 0.000000 0.000000 0.000000 0.000000 0.000000 0.025711
#
#
# Mechanical properties :
#
#
# Convention : Reuss Voigt Hill
#
# Bulk Modulus (GPa) = 11.61792 69.77111 40.69451
# Shear Modulus (GPa) = 19.30772 34.78742 27.04757
#
# Velocity S-wave (km/s) = 3.16826 4.25272 3.74990
# Velocity P-wave (km/s) = 4.40725 7.77093 6.31709
#
# Compressibility (1/GPa) = 0.08607393
#
# Stress axis : x y z
#
# Youngs Moduli (GPa) = 125.78753 88.11933 11.39531
#
# Poissons Ratio (x) = 0.52622 0.00243
# Poissons Ratio (y) = 0.75116 0.04906
# Poissons Ratio (z) = 0.02681 0.37936
#
# Static dielectric constant tensor:
#      x y z
#    x 1.700200 0.000000 0.000000 
#    y 0.000000 1.646220 0.000000 
#    z 0.000000 0.000000 1.703560 
# 
# From -- ./inp_files/15039.got.cif
#   From: 2010.05.17/outbox.cif.g08.bks.cpg/sg71_8_cif.got.tgz:15039.got - 2010.06.03 16:22:01.
