data_PCOD9522565
_publ_section_title
;
Structure prediction by ZEFSAII (Michael W. Deem and Ramdas Pophale) SiO2 
 PCOD9522565
Probable space group: I M M M
;
_chemical_formula_sum "Si O2"
_cell_formula_units_Z 104
_cell_length_a 21.128552
_cell_length_b 8.974251
_cell_length_c 30.376935
_cell_angle_alpha 90.000000
_cell_angle_beta 90.000000
_cell_angle_gamma 90.000000
_cell_volume 5759.859617
_symmetry_space_group_name_H-M "I M M M"
_symmetry_group_IT_number 71
_symmetry_cell_setting 'orthorhombic'
loop_
_space_group_symop_operation_xyz
x,y,z
-x,-y,z
x,-y,-z
-x,y,-z
-x,-y,-z
x,y,-z
-x,y,z
x,-y,z
1/2+x,1/2+y,1/2+z
1/2-x,1/2-y,1/2+z
1/2+x,1/2-y,1/2-z
1/2-x,1/2+y,1/2-z
1/2-x,1/2-y,1/2-z
1/2+x,1/2+y,1/2-z
1/2-x,1/2+y,1/2+z
1/2+x,1/2-y,1/2+z
loop_
_atom_site_type_symbol
_atom_site_label
_atom_site_fract_x
_atom_site_fract_y
_atom_site_fract_z
Si Si1 0.865651 0.675239 0.131337
Si Si2 0.576064 0.670820 0.550450
Si Si3 0.571765 0.320394 0.284624
Si Si4 0.000000 0.829764 0.553256
Si Si5 0.282106 0.679148 0.126256
Si Si6 0.367183 0.178567 0.051642
Si Si7 0.810487 0.179996 0.274784
O O1 0.869845 0.500000 0.140490
O O2 0.893961 0.715893 0.084197
O O3 0.904514 0.761953 0.168399
O O4 0.791910 0.717822 0.130664
O O5 0.594939 0.698008 0.500000
O O6 0.500000 0.679267 0.552635
O O7 0.593849 0.500000 0.561925
O O8 0.500000 0.269767 0.275473
O O9 0.571275 0.500000 0.285443
O O10 0.624905 0.273881 0.249439
O O11 0.064548 0.745651 0.565216
O O12 0.000000 0.834284 0.500000
O O13 0.000000 0.000000 0.569651
O O14 0.287173 0.500000 0.120559
O O15 0.315422 0.757459 0.085132
O O16 0.311597 0.719733 0.173653
O O17 0.369141 0.000000 0.053942
O O18 0.355525 0.219311 0.000000
O O19 0.750000 0.250000 0.250000
O O20 0.804420 0.000000 0.272122
#
# Coordination Sequence:
#
# PCOD9522565 Si02
#       7
#    16  16  16   8  16  16  16
#     4  11  22  35  54  81 112 145 185 232 282 335
#     4   9  19  36  55  75 104 143 185 228 275 331
#     4  10  21  37  59  85 111 144 188 233 279 337
#     4   9  17  33  59  85 111 149 189 227 281 339
#     4  10  22  38  55  81 114 148 188 230 279 340
#     4  10  21  37  58  85 116 149 190 237 281 334
#     4  10  20  38  61  83 112 149 189 232 282 339
#
# _framework density 18.055996
#
# number of rings (size 3 to 8) (size 9 to 14) (size 15 to 20)
#    0.000    2.077    1.538    2.077    0.000    7.077 
#    1.385    3.846    0.000    0.000    0.000    0.000 
#    0.000    0.000    0.000    0.000    0.000    0.000 
#
# Total GULP energy -290202.999867 kJ/mol
# GULP energy per Si atom -5580.826921 kJ/mol
# Density = 1.801490 g / cm^3
# Si number density = 18.055996 Si / 1000 Ang^3
#
#
#
# Elastic Constant Matrix: (Units=GPa)
#
#
# Indices 1 2 3 4 5 6 
#
# 1 125.5256 35.5087 59.2699 0.0000 0.0000 0.0000
# 2 35.5087 23.8523 27.3482 0.0000 0.0000 0.0000
# 3 59.2699 27.3482 89.0351 0.0000 0.0000 0.0000
# 4 0.0000 0.0000 0.0000 20.5941 0.0000 0.0000
# 5 0.0000 0.0000 0.0000 0.0000 34.1256 0.0000
# 6 0.0000 0.0000 0.0000 0.0000 0.0000 31.2745
#
#
#
# Elastic Compliance Matrix: (Units=1/GPa)
#
#
# Indices 1 2 3 4 5 6 
#
# 1 0.014994 -0.016790 -0.004824 0.000000 0.000000 0.000000
# 2 -0.016790 0.083519 -0.014477 0.000000 0.000000 0.000000
# 3 -0.004824 -0.014477 0.018889 0.000000 0.000000 0.000000
# 4 0.000000 0.000000 0.000000 0.048558 0.000000 0.000000
# 5 0.000000 0.000000 0.000000 0.000000 0.029303 0.000000
# 6 0.000000 0.000000 0.000000 0.000000 0.000000 0.031975
#
#
# Mechanical properties :
#
#
# Convention : Reuss Voigt Hill
#
# Bulk Modulus (GPa) = 22.11397 53.62965 37.87181
# Shear Modulus (GPa) = 15.89858 24.95126 20.42492
#
# Velocity S-wave (km/s) = 2.97057 3.72140 3.36698
# Velocity P-wave (km/s) = 4.90303 6.94488 6.01129
#
# Compressibility (1/GPa) = 0.04522028
#
# Stress axis : x y z
#
# Youngs Moduli (GPa) = 66.69378 11.97336 52.93954
#
# Poissons Ratio (x) = 0.20104 0.25538
# Poissons Ratio (y) = 1.11981 0.76639
# Poissons Ratio (z) = 0.32173 0.17333
#
# Static dielectric constant tensor:
#      x y z
#    x 1.610200 0.000000 0.000000 
#    y 0.000000 1.612760 0.000000 
#    z 0.000000 0.000000 1.604970 
# 
# From -- ./inp_files/70735.got.cif
#   From: 2010.05.17/outbox.cif.g08.bks.cpg/sg71_36_cif.got.tgz:70735.got - 2010.06.03 16:22:01.
