data_PCOD9522015
_publ_section_title
;
Structure prediction by ZEFSAII (Michael W. Deem and Ramdas Pophale) SiO2 
 PCOD9522015
Probable space group: I M M M
;
_chemical_formula_sum "Si O2"
_cell_formula_units_Z 64
_cell_length_a 29.718130
_cell_length_b 7.652657
_cell_length_c 14.179199
_cell_angle_alpha 90.000000
_cell_angle_beta 90.000000
_cell_angle_gamma 90.000000
_cell_volume 3224.671090
_symmetry_space_group_name_H-M "I M M M"
_symmetry_group_IT_number 71
_symmetry_cell_setting 'orthorhombic'
loop_
_space_group_symop_operation_xyz
x,y,z
-x,-y,z
x,-y,-z
-x,y,-z
-x,-y,-z
x,y,-z
-x,y,z
x,-y,z
1/2+x,1/2+y,1/2+z
1/2-x,1/2-y,1/2+z
1/2+x,1/2-y,1/2-z
1/2-x,1/2+y,1/2-z
1/2-x,1/2-y,1/2-z
1/2+x,1/2+y,1/2-z
1/2-x,1/2+y,1/2+z
1/2+x,1/2-y,1/2+z
loop_
_atom_site_type_symbol
_atom_site_label
_atom_site_fract_x
_atom_site_fract_y
_atom_site_fract_z
Si Si1 0.323092 0.296530 0.286395
Si Si2 0.945636 0.000000 0.610110
Si Si3 0.421784 0.199448 0.748328
Si Si4 0.500000 0.787912 0.393256
Si Si5 0.734478 0.212278 0.892739
O O1 0.330819 0.500000 0.307313
O O2 0.370898 0.204632 0.288868
O O3 0.301793 0.278896 0.182052
O O4 0.283750 0.231009 0.355788
O O5 0.927009 0.169444 0.664405
O O6 0.933737 0.000000 0.500000
O O7 0.000000 0.000000 0.617988
O O8 0.456226 0.260765 0.667257
O O9 0.433531 0.000000 0.774493
O O10 0.500000 0.721329 0.500000
O O11 0.500000 0.000000 0.398314
O O12 0.733658 0.000000 0.888378
O O13 0.726420 0.265985 0.000000
#
# Coordination Sequence:
#
# PCOD9522015 Si02
#       5
#    16   8  16   8  16
#     4  10  20  35  57  83 117 155 196 245 297 352
#     4  11  24  42  64  90 122 156 204 258 300 357
#     4  11  22  40  64  89 124 163 199 245 306 360
#     4   9  20  39  63  92 123 157 200 244 292 358
#     4   9  19  36  56  81 114 153 199 247 296 353
#
# _framework density 19.846986000000001
#
# number of rings (size 3 to 8) (size 9 to 14) (size 15 to 20)
#    0.000    2.000    2.500    0.750    0.000    4.000 
#    0.000    2.500    0.000    0.000    0.000    0.000 
#    0.000    0.000    0.000    0.000    0.000    0.000 
#
# Total GULP energy -178737.808501 kJ/mol
# GULP energy per Si atom -5585.556516 kJ/mol
# Density = 1.980181 g / cm^3
# Si number density = 19.846986 Si / 1000 Ang^3
#
#
#
# Elastic Constant Matrix: (Units=GPa)
#
#
# Indices 1 2 3 4 5 6 
#
# 1 116.8217 6.4080 22.3097 0.0000 0.0000 0.0000
# 2 6.4080 78.0693 16.9854 0.0000 0.0000 0.0000
# 3 22.3097 16.9854 89.2963 0.0000 0.0000 0.0000
# 4 0.0000 0.0000 0.0000 13.5692 0.0000 0.0000
# 5 0.0000 0.0000 0.0000 0.0000 6.1085 0.0000
# 6 0.0000 0.0000 0.0000 0.0000 0.0000 -32.2180
#
#
#
# Elastic Compliance Matrix: (Units=1/GPa)
#
#
# Indices 1 2 3 4 5 6 
#
# 1 0.008994 -0.000260 -0.002198 0.000000 0.000000 0.000000
# 2 -0.000260 0.013370 -0.002478 0.000000 0.000000 0.000000
# 3 -0.002198 -0.002478 0.012219 0.000000 0.000000 0.000000
# 4 0.000000 0.000000 0.000000 0.073696 0.000000 0.000000
# 5 0.000000 0.000000 0.000000 0.000000 0.163706 0.000000
# 6 0.000000 0.000000 0.000000 0.000000 0.000000 -0.031039
#
#
# Mechanical properties :
#
#
# Convention : Reuss Voigt Hill
#
# Bulk Modulus (GPa) = 40.46760 41.73262 41.10011
# Shear Modulus (GPa) = 19.30091 13.39090 16.34591
#
# Velocity S-wave (km/s) = 3.12185 2.60033 2.87295
# Velocity P-wave (km/s) = 5.78175 5.48529 5.63547
#
# Compressibility (1/GPa) = 0.02471113
#
# Stress axis : x y z
#
# Youngs Moduli (GPa) = 111.18524 74.79633 81.83920
#
# Poissons Ratio (x) = 0.01946 0.17985
# Poissons Ratio (y) = 0.02892 0.20281
# Poissons Ratio (z) = 0.24434 0.18535
#
# Static dielectric constant tensor:
#      x y z
#    x 1.686420 0.000000 0.000000 
#    y 0.000000 1.728430 0.000000 
#    z 0.000000 0.000000 1.664490 
# 
# From -- ./inp_files/29469.got.cif
#   From: 2010.05.17/outbox.cif.g08.bks.cpg/sg71_15_cif.got.tgz:29469.got - 2010.06.03 16:22:01.
