data_PCOD9522377
_publ_section_title
;
Structure prediction by ZEFSAII (Michael W. Deem and Ramdas Pophale) SiO2 
 PCOD9522377
Probable space group: I M M M
;
_chemical_formula_sum "Si O2"
_cell_formula_units_Z 112
_cell_length_a 15.690225
_cell_length_b 22.781365
_cell_length_c 15.045085
_cell_angle_alpha 90.000000
_cell_angle_beta 90.000000
_cell_angle_gamma 90.000000
_cell_volume 5377.786536
_symmetry_space_group_name_H-M "I M M M"
_symmetry_group_IT_number 71
_symmetry_cell_setting 'orthorhombic'
loop_
_space_group_symop_operation_xyz
x,y,z
-x,-y,z
x,-y,-z
-x,y,-z
-x,-y,-z
x,y,-z
-x,y,z
x,-y,z
1/2+x,1/2+y,1/2+z
1/2-x,1/2-y,1/2+z
1/2+x,1/2-y,1/2-z
1/2-x,1/2+y,1/2-z
1/2-x,1/2-y,1/2-z
1/2+x,1/2+y,1/2-z
1/2-x,1/2+y,1/2+z
1/2+x,1/2-y,1/2+z
loop_
_atom_site_type_symbol
_atom_site_label
_atom_site_fract_x
_atom_site_fract_y
_atom_site_fract_z
Si Si1 0.400403 0.237074 0.095548
Si Si2 0.596148 0.070511 0.766688
Si Si3 0.397884 0.756466 0.290061
Si Si4 0.744330 0.070416 0.100449
Si Si5 0.596078 0.383671 0.292657
Si Si6 0.336769 0.140761 0.399369
Si Si7 0.634198 0.375905 0.903380
O O1 0.500000 0.220042 0.095776
O O2 0.365180 0.222071 0.193016
O O3 0.397086 0.308320 0.095473
O O4 0.362616 0.218339 0.000000
O O5 0.500000 0.085015 0.794326
O O6 0.664399 0.089878 0.840043
O O7 0.616655 0.100700 0.673035
O O8 0.602401 0.000000 0.756806
O O9 0.500000 0.767748 0.295022
O O10 0.387534 0.686606 0.295698
O O11 0.351461 0.792841 0.366136
O O12 0.831263 0.086925 0.149516
O O13 0.739088 0.000000 0.096493
O O14 0.741811 0.093159 0.000000
O O15 0.500000 0.394719 0.324481
O O16 0.602202 0.402426 0.188951
O O17 0.367857 0.133047 0.500000
O O18 0.236637 0.126272 0.397695
O O19 0.610449 0.401856 0.000000
#
# Coordination Sequence:
#
# PCOD9522377 Si02
#       7
#    16  16  16  16  16  16  16
#     4   8  14  27  47  71 104 148 193 231 270 325
#     4  10  22  42  66  88 112 147 193 244 299 356
#     4   9  19  33  52  81 118 157 194 235 284 346
#     4  10  22  42  65  89 118 150 192 247 297 343
#     4  10  20  36  60  89 123 164 201 234 283 346
#     4  11  22  36  57  85 117 154 194 240 296 350
#     4   9  17  31  52  81 113 151 197 241 287 338
#
# _framework density 20.826412999999999
#
# number of rings (size 3 to 8) (size 9 to 14) (size 15 to 20)
#    0.000    2.429    1.429    1.714    0.000    6.000 
#    0.000    5.000    0.000    2.143    0.000    1.000 
#    0.000    0.000    0.000    0.000    0.000    0.000 
#
# Total GULP energy -312591.102919 kJ/mol
# GULP energy per Si atom -5581.983981 kJ/mol
# Density = 2.077901 g / cm^3
# Si number density = 20.826413 Si / 1000 Ang^3
#
#
#
# Elastic Constant Matrix: (Units=GPa)
#
#
# Indices 1 2 3 4 5 6 
#
# 1 90.6502 9.2957 60.5054 -0.0001 0.0001 0.0000
# 2 9.2957 12.0147 16.0980 0.0001 0.0002 0.0000
# 3 60.5054 16.0980 171.1549 0.0006 0.0005 0.0000
# 4 -0.0001 0.0001 0.0006 25.9720 0.0003 0.0000
# 5 0.0001 0.0002 0.0005 0.0003 177.9651 0.0002
# 6 0.0000 0.0000 0.0000 0.0000 0.0002 -42.2696
#
#
#
# Elastic Compliance Matrix: (Units=1/GPa)
#
#
# Indices 1 2 3 4 5 6 
#
# 1 0.014701 -0.005047 -0.004722 0.000000 0.000000 0.000000
# 2 -0.005047 0.096965 -0.007336 0.000000 0.000000 0.000000
# 3 -0.004722 -0.007336 0.008202 0.000000 0.000000 0.000000
# 4 0.000000 0.000000 0.000000 0.038503 0.000000 0.000000
# 5 0.000000 0.000000 0.000000 0.000000 0.005619 0.000000
# 6 0.000000 0.000000 0.000000 0.000000 0.000000 -0.023658
#
#
# Mechanical properties :
#
#
# Convention : Reuss Voigt Hill
#
# Bulk Modulus (GPa) = 11.67431 49.51312 30.59372
# Shear Modulus (GPa) = 24.61896 44.86155 34.74026
#
# Velocity S-wave (km/s) = 3.44190 4.64623 4.08865
# Velocity P-wave (km/s) = 4.62745 7.25321 6.08368
#
# Compressibility (1/GPa) = 0.08565813
#
# Stress axis : x y z
#
# Youngs Moduli (GPa) = 68.02320 10.31296 121.92110
#
# Poissons Ratio (x) = 0.05205 0.57574
# Poissons Ratio (y) = 0.34330 0.89441
# Poissons Ratio (z) = 0.32122 0.07566
#
# Static dielectric constant tensor:
#      x y z
#    x 1.743710 0.000000 0.000000 
#    y 0.000000 1.754610 0.000000 
#    z 0.000000 0.000000 1.770280 
# 
# From -- ./inp_files/34892.got.cif
#   From: 2010.05.17/outbox.cif.g08.bks.cpg/sg71_18_cif.got.tgz:34892.got - 2010.06.03 16:22:01.
