data_PCOD9522751
_publ_section_title
;
Structure prediction by ZEFSAII (Michael W. Deem and Ramdas Pophale) SiO2 
 PCOD9522751
Probable space group: I M M M
;
_chemical_formula_sum "Si O2"
_cell_formula_units_Z 80
_cell_length_a 27.113044
_cell_length_b 14.031566
_cell_length_c 12.608853
_cell_angle_alpha 90.000000
_cell_angle_beta 90.000000
_cell_angle_gamma 90.000000
_cell_volume 4796.892698
_symmetry_space_group_name_H-M "I M M M"
_symmetry_group_IT_number 71
_symmetry_cell_setting 'orthorhombic'
loop_
_space_group_symop_operation_xyz
x,y,z
-x,-y,z
x,-y,-z
-x,y,-z
-x,-y,-z
x,y,-z
-x,y,z
x,-y,z
1/2+x,1/2+y,1/2+z
1/2-x,1/2-y,1/2+z
1/2+x,1/2-y,1/2-z
1/2-x,1/2+y,1/2-z
1/2-x,1/2-y,1/2-z
1/2+x,1/2+y,1/2-z
1/2-x,1/2+y,1/2+z
1/2+x,1/2-y,1/2+z
loop_
_atom_site_type_symbol
_atom_site_label
_atom_site_fract_x
_atom_site_fract_y
_atom_site_fract_z
Si Si1 0.941377 0.608804 0.374169
Si Si2 0.126692 0.288556 0.784011
Si Si3 0.257414 0.108822 0.500000
Si Si4 0.377397 0.891006 0.500000
Si Si5 0.675351 0.387527 0.375535
Si Si6 0.232179 0.385623 0.770853
O O1 0.932731 0.617877 0.500000
O O2 0.926826 0.500000 0.343178
O O3 0.910733 0.684931 0.308189
O O4 0.000000 0.617795 0.356470
O O5 0.137429 0.179273 0.812994
O O6 0.179903 0.335256 0.756555
O O7 0.108157 0.338405 0.892446
O O8 0.317285 0.108664 0.500000
O O9 0.244914 0.148893 0.384092
O O10 0.238895 0.000000 0.500000
O O11 0.394033 0.000000 0.500000
O O12 0.676048 0.360891 0.500000
O O13 0.664538 0.500000 0.366974
O O14 0.728783 0.371315 0.322312
O O15 0.223601 0.500000 0.780946
#
# Coordination Sequence:
#
# PCOD9522751 Si02
#       6
#    16  16   8   8  16  16
#     4   9  19  36  57  82 110 133 154 193 255 319
#     4  11  18  32  52  75 101 138 176 209 251 308
#     4   7  12  24  40  60  89 124 157 196 247 293
#     4   9  16  26  46  73  98 124 161 206 253 300
#     4  10  21  35  47  67 103 143 181 220 255 289
#     4   9  17  29  47  71 100 133 170 212 257 305
#
# _framework density 16.677462999999999
#
# number of rings (size 3 to 8) (size 9 to 14) (size 15 to 20)
#    0.000    2.600    1.000    4.200    0.000    0.800 
#    1.800    2.500    0.000    2.400    0.000    2.800 
#    0.000    0.000    0.000    0.000    0.000    0.000 
#
# Total GULP energy -222946.750546 kJ/mol
# GULP energy per Si atom -5573.668764 kJ/mol
# Density = 1.663950 g / cm^3
# Si number density = 16.677463 Si / 1000 Ang^3
#
#
#
# Elastic Constant Matrix: (Units=GPa)
#
#
# Indices 1 2 3 4 5 6 
#
# 1 37.2001 29.4515 44.6268 0.0000 0.0000 0.0000
# 2 29.4515 78.5584 43.8320 0.0000 0.0000 0.0000
# 3 44.6268 43.8320 82.1414 0.0000 0.0000 0.0000
# 4 0.0000 0.0000 0.0000 23.9118 0.0000 0.0000
# 5 0.0000 0.0000 0.0000 0.0000 28.5099 0.0000
# 6 0.0000 0.0000 0.0000 0.0000 0.0000 20.6003
#
#
#
# Elastic Compliance Matrix: (Units=1/GPa)
#
#
# Indices 1 2 3 4 5 6 
#
# 1 0.080785 -0.008256 -0.039485 0.000000 0.000000 0.000000
# 2 -0.008256 0.018970 -0.005637 0.000000 0.000000 0.000000
# 3 -0.039485 -0.005637 0.036634 0.000000 0.000000 0.000000
# 4 0.000000 0.000000 0.000000 0.041820 0.000000 0.000000
# 5 0.000000 0.000000 0.000000 0.000000 0.035076 0.000000
# 6 0.000000 0.000000 0.000000 0.000000 0.000000 0.048543
#
#
# Mechanical properties :
#
#
# Convention : Reuss Voigt Hill
#
# Bulk Modulus (GPa) = 33.74542 48.19118 40.96830
# Shear Modulus (GPa) = 13.21140 19.93704 16.57422
#
# Velocity S-wave (km/s) = 2.81761 3.46128 3.15589
# Velocity P-wave (km/s) = 5.55547 6.70318 6.15613
#
# Compressibility (1/GPa) = 0.02963365
#
# Stress axis : x y z
#
# Youngs Moduli (GPa) = 12.37852 52.71525 27.29704
#
# Poissons Ratio (x) = 0.43520 1.07781
# Poissons Ratio (y) = 0.10219 0.15388
# Poissons Ratio (z) = 0.48876 0.29718
#
# Static dielectric constant tensor:
#      x y z
#    x 1.523360 0.000000 0.000000 
#    y 0.000000 1.603260 0.000000 
#    z 0.000000 0.000000 1.599090 
# 
# From -- ./inp_files/28521.got.cif
#   From: 2010.05.17/outbox.cif.g08.bks.cpg/sg71_15_cif.got.tgz:28521.got - 2010.06.03 16:22:01.
