data_PCOD9522893
_publ_section_title
;
Structure prediction by ZEFSAII (Michael W. Deem and Ramdas Pophale) SiO2 
 PCOD9522893
Probable space group: I M M M
;
_chemical_formula_sum "Si O2"
_cell_formula_units_Z 80
_cell_length_a 8.774090
_cell_length_b 13.155230
_cell_length_c 29.931287
_cell_angle_alpha 90.000000
_cell_angle_beta 90.000000
_cell_angle_gamma 90.000000
_cell_volume 3454.823950
_symmetry_space_group_name_H-M "I M M M"
_symmetry_group_IT_number 71
_symmetry_cell_setting 'orthorhombic'
loop_
_space_group_symop_operation_xyz
x,y,z
-x,-y,z
x,-y,-z
-x,y,-z
-x,-y,-z
x,y,-z
-x,y,z
x,-y,z
1/2+x,1/2+y,1/2+z
1/2-x,1/2-y,1/2+z
1/2+x,1/2-y,1/2-z
1/2-x,1/2+y,1/2-z
1/2-x,1/2-y,1/2-z
1/2+x,1/2+y,1/2-z
1/2-x,1/2+y,1/2+z
1/2+x,1/2-y,1/2+z
loop_
_atom_site_type_symbol
_atom_site_label
_atom_site_fract_x
_atom_site_fract_y
_atom_site_fract_z
Si Si1 0.171378 0.621487 0.267240
Si Si2 0.821912 0.120478 0.675006
Si Si3 0.822360 0.676810 0.550643
Si Si4 0.827206 0.387240 0.053360
Si Si5 0.677724 0.312552 0.641091
O O1 0.163755 0.500000 0.264550
O O2 0.280410 0.650604 0.226082
O O3 0.231447 0.645548 0.316391
O O4 0.000000 0.661024 0.259837
O O5 0.717598 0.191740 0.644351
O O6 0.000000 0.139776 0.665927
O O7 0.794071 0.000000 0.670454
O O8 0.769827 0.649259 0.500000
O O9 0.796431 0.798161 0.555982
O O10 0.732688 0.639371 0.594274
O O11 0.000000 0.651029 0.553941
O O12 0.788535 0.500000 0.071056
O O13 0.000000 0.357208 0.068318
O O14 0.841143 0.398127 0.000000
O O15 0.500000 0.329243 0.647139
#
# Coordination Sequence:
#
# PCOD9522893 Si02
#       5
#    16  16  16  16  16
#     4  10  21  39  63  89 118 150 186 232 286 344
#     4  10  21  38  60  87 121 157 193 234 279 333
#     4  10  21  36  53  74 103 141 187 238 288 337
#     4   8  14  26  44  65  91 126 169 216 266 321
#     4  12  24  37  58  85 116 154 194 237 284 341
#
# _framework density 23.156029
#
# number of rings (size 3 to 8) (size 9 to 14) (size 15 to 20)
#    0.000    2.000    0.000    4.800    0.000    4.800 
#    0.000    2.000    0.000    0.600    0.000    4.200 
#    0.000    0.000    0.000    0.000    0.000    0.000 
#
# Total GULP energy -223372.195082 kJ/mol
# GULP energy per Si atom -5584.304877 kJ/mol
# Density = 2.310332 g / cm^3
# Si number density = 23.156029 Si / 1000 Ang^3
#
#
#
# Elastic Constant Matrix: (Units=GPa)
#
#
# Indices 1 2 3 4 5 6 
#
# 1 90.7096 2.5333 30.2652 0.0000 0.0000 0.0000
# 2 2.5333 14.8427 -3.3884 0.0000 0.0000 0.0000
# 3 30.2652 -3.3884 139.5356 0.0000 0.0000 0.0000
# 4 0.0000 0.0000 0.0000 8.0257 0.0000 0.0000
# 5 0.0000 0.0000 0.0000 0.0000 40.0997 0.0000
# 6 0.0000 0.0000 0.0000 0.0000 0.0000 20.8078
#
#
#
# Elastic Compliance Matrix: (Units=1/GPa)
#
#
# Indices 1 2 3 4 5 6 
#
# 1 0.011987 -0.002654 -0.002664 0.000000 0.000000 0.000000
# 2 -0.002654 0.068337 0.002235 0.000000 0.000000 0.000000
# 3 -0.002664 0.002235 0.007799 0.000000 0.000000 0.000000
# 4 0.000000 0.000000 0.000000 0.124599 0.000000 0.000000
# 5 0.000000 0.000000 0.000000 0.000000 0.024938 0.000000
# 6 0.000000 0.000000 0.000000 0.000000 0.000000 0.048059
#
#
# Mechanical properties :
#
#
# Convention : Reuss Voigt Hill
#
# Bulk Modulus (GPa) = 12.20172 33.76754 22.98463
# Shear Modulus (GPa) = 15.66394 28.16516 21.91455
#
# Velocity S-wave (km/s) = 2.60369 3.49136 3.07968
# Velocity P-wave (km/s) = 3.78414 5.55582 4.75325
#
# Compressibility (1/GPa) = 0.08195566
#
# Stress axis : x y z
#
# Youngs Moduli (GPa) = 83.42143 14.63344 128.22425
#
# Poissons Ratio (x) = 0.03884 0.34165
# Poissons Ratio (y) = 0.22142 -0.28660
# Poissons Ratio (z) = 0.22228 -0.03271
#
# Static dielectric constant tensor:
#      x y z
#    x 1.802990 0.000000 0.000000 
#    y 0.000000 1.959140 0.000000 
#    z 0.000000 0.000000 1.941790 
# 
# From -- ./inp_files/67941.got.cif
#   From: 2010.05.17/outbox.cif.g08.bks.cpg/sg71_34_cif.got.tgz:67941.got - 2010.06.03 16:22:01.
