data_PCOD9522522
_publ_section_title
;
Structure prediction by ZEFSAII (Michael W. Deem and Ramdas Pophale) SiO2 
 PCOD9522522
Probable space group: I M M M
;
_chemical_formula_sum "Si O2"
_cell_formula_units_Z 88
_cell_length_a 25.247967
_cell_length_b 12.720300
_cell_length_c 14.206101
_cell_angle_alpha 90.000000
_cell_angle_beta 90.000000
_cell_angle_gamma 90.000000
_cell_volume 4562.455755
_symmetry_space_group_name_H-M "I M M M"
_symmetry_group_IT_number 71
_symmetry_cell_setting 'orthorhombic'
loop_
_space_group_symop_operation_xyz
x,y,z
-x,-y,z
x,-y,-z
-x,y,-z
-x,-y,-z
x,y,-z
-x,y,z
x,-y,z
1/2+x,1/2+y,1/2+z
1/2-x,1/2-y,1/2+z
1/2+x,1/2-y,1/2-z
1/2-x,1/2+y,1/2-z
1/2-x,1/2-y,1/2-z
1/2+x,1/2+y,1/2-z
1/2-x,1/2+y,1/2+z
1/2+x,1/2-y,1/2+z
loop_
_atom_site_type_symbol
_atom_site_label
_atom_site_fract_x
_atom_site_fract_y
_atom_site_fract_z
Si Si1 0.127959 0.187005 0.302795
Si Si2 0.261910 0.379336 0.887274
Si Si3 0.056308 0.382620 0.887506
Si Si4 0.063075 0.000000 0.609568
Si Si5 0.840655 0.242431 0.889428
Si Si6 0.437024 0.124737 0.111548
O O1 0.183008 0.172425 0.357754
O O2 0.144451 0.163705 0.194402
O O3 0.100115 0.299023 0.326753
O O4 0.087115 0.101413 0.340684
O O5 0.257775 0.500000 0.851013
O O6 0.212384 0.305435 0.861855
O O7 0.260242 0.386150 0.000000
O O8 0.060011 0.500000 0.847590
O O9 0.110020 0.321008 0.878262
O O10 0.000000 0.334938 0.854277
O O11 0.051790 0.392027 0.000000
O O12 0.079597 0.000000 0.500000
O O13 0.000000 0.000000 0.613709
O O14 0.837530 0.209185 0.000000
O O15 0.500000 0.142327 0.129291
O O16 0.426724 0.000000 0.125103
O O17 0.428199 0.147900 0.000000
#
# Coordination Sequence:
#
# PCOD9522522 Si02
#       6
#    16  16  16   8  16  16
#     4  12  22  37  61  90 119 158 204 257 302 365
#     4  10  20  37  62  88 117 154 201 258 312 357
#     4   8  14  27  48  73 103 141 186 233 277 327
#     4  11  24  42  67  97 123 153 203 267 322 363
#     4  10  22  37  54  81 118 159 199 242 295 358
#     4   9  19  36  58  87 124 159 190 237 309 383
#
# _framework density 19.287856999999999
#
# number of rings (size 3 to 8) (size 9 to 14) (size 15 to 20)
#    0.000    2.091    0.909    4.364    0.000    6.545 
#    0.000    2.273    0.000    0.545    0.000    0.000 
#    0.000    0.000    0.000    0.000    0.000    0.000 
#
# Total GULP energy -245173.358528 kJ/mol
# GULP energy per Si atom -5572.121785 kJ/mol
# Density = 1.924396 g / cm^3
# Si number density = 19.287857 Si / 1000 Ang^3
#
#
#
# Elastic Constant Matrix: (Units=GPa)
#
#
# Indices 1 2 3 4 5 6 
#
# 1 93.1964 24.5678 15.3039 0.0000 0.0000 0.0000
# 2 24.5678 55.1015 32.7086 0.0000 0.0000 0.0000
# 3 15.3039 32.7086 106.7199 0.0000 0.0000 0.0000
# 4 0.0000 0.0000 0.0000 4.5476 0.0000 0.0000
# 5 0.0000 0.0000 0.0000 0.0000 -7.7561 0.0000
# 6 0.0000 0.0000 0.0000 0.0000 0.0000 32.7231
#
#
#
# Elastic Compliance Matrix: (Units=1/GPa)
#
#
# Indices 1 2 3 4 5 6 
#
# 1 0.012160 -0.005362 -0.000100 0.000000 0.000000 0.000000
# 2 -0.005362 0.024549 -0.006755 0.000000 0.000000 0.000000
# 3 -0.000100 -0.006755 0.011455 0.000000 0.000000 0.000000
# 4 0.000000 0.000000 0.000000 0.219898 0.000000 0.000000
# 5 0.000000 0.000000 0.000000 0.000000 -0.128931 0.000000
# 6 0.000000 0.000000 0.000000 0.000000 0.000000 0.030559
#
#
# Mechanical properties :
#
#
# Convention : Reuss Voigt Hill
#
# Bulk Modulus (GPa) = 42.14262 44.46427 43.30345
# Shear Modulus (GPa) = 24.74810 18.06541 21.40676
#
# Velocity S-wave (km/s) = 3.58591 3.06375 3.33507
# Velocity P-wave (km/s) = 6.24834 5.96812 6.10984
#
# Compressibility (1/GPa) = 0.02372895
#
# Stress axis : x y z
#
# Youngs Moduli (GPa) = 82.23658 40.73489 87.29754
#
# Poissons Ratio (x) = 0.21843 0.00876
# Poissons Ratio (y) = 0.44097 0.58970
# Poissons Ratio (z) = 0.00825 0.27517
#
# Static dielectric constant tensor:
#      x y z
#    x 1.671190 0.000000 0.000000 
#    y 0.000000 1.696590 0.000000 
#    z 0.000000 0.000000 1.769860 
# 
# From -- ./inp_files/39022.got.cif
#   From: 2010.05.17/outbox.cif.g08.bks.cpg/sg71_20_cif.got.tgz:39022.got - 2010.06.03 16:22:01.
