data_PCOD9522070
_publ_section_title
;
Structure prediction by ZEFSAII (Michael W. Deem and Ramdas Pophale) SiO2 
 PCOD9522070
Probable space group: I M M M
;
_chemical_formula_sum "Si O2"
_cell_formula_units_Z 58
_cell_length_a 19.445003
_cell_length_b 21.514827
_cell_length_c 7.899344
_cell_angle_alpha 90.000000
_cell_angle_beta 90.000000
_cell_angle_gamma 90.000000
_cell_volume 3304.736975
_symmetry_space_group_name_H-M "I M M M"
_symmetry_group_IT_number 71
_symmetry_cell_setting 'orthorhombic'
loop_
_space_group_symop_operation_xyz
x,y,z
-x,-y,z
x,-y,-z
-x,y,-z
-x,-y,-z
x,y,-z
-x,y,z
x,-y,z
1/2+x,1/2+y,1/2+z
1/2-x,1/2-y,1/2+z
1/2+x,1/2-y,1/2-z
1/2-x,1/2+y,1/2-z
1/2-x,1/2-y,1/2-z
1/2+x,1/2+y,1/2-z
1/2-x,1/2+y,1/2+z
1/2+x,1/2-y,1/2+z
loop_
_atom_site_type_symbol
_atom_site_label
_atom_site_fract_x
_atom_site_fract_y
_atom_site_fract_z
Si Si1 0.500000 0.500000 0.000000
Si Si2 0.578501 0.071198 0.204737
Si Si3 0.575608 0.628506 0.000000
Si Si4 0.159531 0.815210 0.806626
Si Si5 0.310962 0.826439 0.698435
O O1 0.558700 0.444487 0.000000
O O2 0.500000 0.085749 0.258161
O O3 0.633569 0.120383 0.269139
O O4 0.593663 0.000000 0.257043
O O5 0.579697 0.072581 0.000000
O O6 0.616310 0.648267 0.167588
O O7 0.500000 0.660024 0.000000
O O8 0.239533 0.835156 0.796234
O O9 0.159462 0.741867 0.760114
O O10 0.134919 0.822770 0.000000
O O11 0.292978 0.824659 0.500000
#
# Coordination Sequence:
#
# PCOD9522070 Si02
#       5
#     2  16   8  16  16
#     4   8  24  48  66  88 128 154 216 252 302 376
#     4   9  19  35  52  76 115 159 201 238 283 348
#     4  10  22  44  64  88 120 156 198 255 297 364
#     4  10  21  38  62  90 121 152 199 248 307 360
#     4  10  20  35  57  88 119 154 198 252 298 361
#
# _framework density 17.550564999999999
#
# number of rings (size 3 to 8) (size 9 to 14) (size 15 to 20)
#    0.414    1.931    1.379    1.655    3.862    2.759 
#    2.483    5.517    0.000    0.000    0.000    0.000 
#    0.000    0.000    0.000    0.000    0.000    0.000 
#
# Total GULP energy -161437.607739 kJ/mol
# GULP energy per Si atom -5566.814060 kJ/mol
# Density = 1.751062 g / cm^3
# Si number density = 17.550565 Si / 1000 Ang^3
#
#
#
# Elastic Constant Matrix: (Units=GPa)
#
#
# Indices 1 2 3 4 5 6 
#
# 1 97.8087 83.5516 44.6877 0.0000 0.0000 0.0000
# 2 83.5516 110.4364 45.6930 0.0000 0.0000 0.0000
# 3 44.6877 45.6930 85.3845 0.0000 0.0000 0.0000
# 4 0.0000 0.0000 0.0000 15.5833 0.0000 0.0000
# 5 0.0000 0.0000 0.0000 0.0000 22.3817 0.0000
# 6 0.0000 0.0000 0.0000 0.0000 0.0000 32.3932
#
#
#
# Elastic Compliance Matrix: (Units=1/GPa)
#
#
# Indices 1 2 3 4 5 6 
#
# 1 0.030251 -0.020981 -0.004604 0.000000 0.000000 0.000000
# 2 -0.020981 0.026182 -0.003030 0.000000 0.000000 0.000000
# 3 -0.004604 -0.003030 0.015743 0.000000 0.000000 0.000000
# 4 0.000000 0.000000 0.000000 0.064171 0.000000 0.000000
# 5 0.000000 0.000000 0.000000 0.000000 0.044679 0.000000
# 6 0.000000 0.000000 0.000000 0.000000 0.000000 0.030871
#
#
# Mechanical properties :
#
#
# Convention : Reuss Voigt Hill
#
# Bulk Modulus (GPa) = 66.91520 71.27715 69.09617
# Shear Modulus (GPa) = 18.24077 22.05144 20.14610
#
# Velocity S-wave (km/s) = 3.22736 3.54849 3.39173
# Velocity P-wave (km/s) = 7.21787 7.58220 7.40227
#
# Compressibility (1/GPa) = 0.01494429
#
# Stress axis : x y z
#
# Youngs Moduli (GPa) = 33.05701 38.19346 63.51982
#
# Poissons Ratio (x) = 0.80135 0.29246
# Poissons Ratio (y) = 0.69358 0.19249
# Poissons Ratio (z) = 0.15220 0.11574
#
# Static dielectric constant tensor:
#      x y z
#    x 1.587170 0.000000 0.000000 
#    y 0.000000 1.574850 0.000000 
#    z 0.000000 0.000000 1.625090 
# 
# From -- ./inp_files/7283.got.cif
#   From: 2010.05.17/outbox.cif.g08.bks.cpg/sg71_4_cif.got.tgz:7283.got - 2010.06.03 16:22:01.
