data_PCOD9522246
_publ_section_title
;
Structure prediction by ZEFSAII (Michael W. Deem and Ramdas Pophale) SiO2 
 PCOD9522246
Probable space group: I M M M
;
_chemical_formula_sum "Si O2"
_cell_formula_units_Z 88
_cell_length_a 13.814317
_cell_length_b 27.243467
_cell_length_c 10.736785
_cell_angle_alpha 90.000000
_cell_angle_beta 90.000000
_cell_angle_gamma 90.000000
_cell_volume 4040.787846
_symmetry_space_group_name_H-M "I M M M"
_symmetry_group_IT_number 71
_symmetry_cell_setting 'orthorhombic'
loop_
_space_group_symop_operation_xyz
x,y,z
-x,-y,z
x,-y,-z
-x,y,-z
-x,-y,-z
x,y,-z
-x,y,z
x,-y,z
1/2+x,1/2+y,1/2+z
1/2-x,1/2-y,1/2+z
1/2+x,1/2-y,1/2-z
1/2-x,1/2+y,1/2-z
1/2-x,1/2-y,1/2-z
1/2+x,1/2+y,1/2-z
1/2-x,1/2+y,1/2+z
1/2+x,1/2-y,1/2+z
loop_
_atom_site_type_symbol
_atom_site_label
_atom_site_fract_x
_atom_site_fract_y
_atom_site_fract_z
Si Si1 0.752480 0.946264 0.361724
Si Si2 0.116707 0.695222 0.637806
Si Si3 0.616979 0.555396 0.500000
Si Si4 0.115604 0.579007 0.640322
Si Si5 0.116113 0.875993 0.232843
Si Si6 0.382318 0.266779 0.356338
O O1 0.709189 0.943340 0.500000
O O2 0.672577 0.944075 0.254153
O O3 0.825701 0.900972 0.344107
O O4 0.802444 0.000000 0.351295
O O5 0.149656 0.711858 0.500000
O O6 0.135857 0.637440 0.648535
O O7 0.150519 0.726691 0.755439
O O8 0.000000 0.699871 0.636895
O O9 0.654204 0.500000 0.500000
O O10 0.500000 0.552563 0.500000
O O11 0.641701 0.587156 0.379932
O O12 0.143504 0.562967 0.500000
O O13 0.000000 0.571743 0.651243
O O14 0.144389 0.821298 0.191067
O O15 0.000000 0.876420 0.252402
O O16 0.353741 0.258373 0.500000
O O17 0.500000 0.266143 0.356948
#
# Coordination Sequence:
#
# PCOD9522246 Si02
#       6
#    16  16   8  16  16  16
#     4  11  26  43  59  86 120 153 194 246 303 358
#     4   8  15  30  54  84 116 149 187 232 286 349
#     4   9  16  28  50  78 105 143 197 245 283 323
#     4   9  20  41  67  92 117 149 193 243 294 355
#     4  10  20  36  57  83 119 161 202 243 287 341
#     4   9  16  28  50  83 120 154 192 238 286 340
#
# _framework density 21.777930999999999
#
# number of rings (size 3 to 8) (size 9 to 14) (size 15 to 20)
#    0.000    2.636    0.909    1.636    1.273    4.000 
#    0.000    7.273    0.000    0.000    0.000    0.000 
#    0.000    0.000    0.000    0.000    0.000    0.000 
#
# Total GULP energy -245807.132193 kJ/mol
# GULP energy per Si atom -5586.525732 kJ/mol
# Density = 2.172836 g / cm^3
# Si number density = 21.777931 Si / 1000 Ang^3
#
#
#
# Elastic Constant Matrix: (Units=GPa)
#
#
# Indices 1 2 3 4 5 6 
#
# 1 74.9741 13.4175 36.6395 0.0000 0.0000 0.0000
# 2 13.4175 111.5228 80.5378 0.0000 0.0000 0.0000
# 3 36.6395 80.5378 182.2751 0.0003 0.0001 0.0000
# 4 0.0000 0.0000 0.0003 26.1412 0.0000 0.0000
# 5 0.0000 0.0000 0.0001 0.0000 18.1974 0.0000
# 6 0.0000 0.0000 0.0000 0.0000 0.0000 28.7029
#
#
#
# Elastic Compliance Matrix: (Units=1/GPa)
#
#
# Indices 1 2 3 4 5 6 
#
# 1 0.014813 0.000541 -0.003216 0.000000 0.000000 0.000000
# 2 0.000541 0.013188 -0.005936 0.000000 0.000000 0.000000
# 3 -0.003216 -0.005936 0.008756 0.000000 0.000000 0.000000
# 4 0.000000 0.000000 0.000000 0.038254 0.000000 0.000000
# 5 0.000000 0.000000 0.000000 0.000000 0.054953 0.000000
# 6 0.000000 0.000000 0.000000 0.000000 0.000000 0.034840
#
#
# Mechanical properties :
#
#
# Convention : Reuss Voigt Hill
#
# Bulk Modulus (GPa) = 51.19414 69.99575 60.59495
# Shear Modulus (GPa) = 26.51981 30.48678 28.50329
#
# Velocity S-wave (km/s) = 3.49340 3.74557 3.62168
# Velocity P-wave (km/s) = 6.31111 7.13556 6.73596
#
# Compressibility (1/GPa) = 0.01953348
#
# Stress axis : x y z
#
# Youngs Moduli (GPa) = 67.50793 75.82372 114.21308
#
# Poissons Ratio (x) = -0.04099 0.36737
# Poissons Ratio (y) = -0.03650 0.67797
# Poissons Ratio (z) = 0.21714 0.45009
#
# Static dielectric constant tensor:
#      x y z
#    x 1.843960 0.000000 0.000000 
#    y 0.000000 1.764540 0.000000 
#    z 0.000000 0.000000 1.793180 
# 
# From -- ./inp_files/22318.got.cif
#   From: 2010.05.17/outbox.cif.g08.bks.cpg/sg71_12_cif.got.tgz:22318.got - 2010.06.03 16:22:01.
