data_PCOD9522996
_publ_section_title
;
Structure prediction by ZEFSAII (Michael W. Deem and Ramdas Pophale) SiO2 
 PCOD9522996
Probable space group: I M M M
;
_chemical_formula_sum "Si O2"
_cell_formula_units_Z 88
_cell_length_a 9.076321
_cell_length_b 18.206886
_cell_length_c 27.573042
_cell_angle_alpha 90.000000
_cell_angle_beta 90.000000
_cell_angle_gamma 90.000000
_cell_volume 4556.487701
_symmetry_space_group_name_H-M "I M M M"
_symmetry_group_IT_number 71
_symmetry_cell_setting 'orthorhombic'
loop_
_space_group_symop_operation_xyz
x,y,z
-x,-y,z
x,-y,-z
-x,y,-z
-x,-y,-z
x,y,-z
-x,y,z
x,-y,z
1/2+x,1/2+y,1/2+z
1/2-x,1/2-y,1/2+z
1/2+x,1/2-y,1/2-z
1/2-x,1/2+y,1/2-z
1/2-x,1/2-y,1/2-z
1/2+x,1/2+y,1/2-z
1/2-x,1/2+y,1/2+z
1/2+x,1/2-y,1/2+z
loop_
_atom_site_type_symbol
_atom_site_label
_atom_site_fract_x
_atom_site_fract_y
_atom_site_fract_z
Si Si1 0.821031 0.500000 0.942718
Si Si2 0.178697 0.357382 0.122566
Si Si3 0.173848 0.584166 0.414565
Si Si4 0.162395 0.087122 0.819076
Si Si5 0.674048 0.679598 0.775314
Si Si6 0.675101 0.273099 0.552642
O O1 0.779068 0.427858 0.910775
O O2 0.000000 0.500000 0.944766
O O3 0.772409 0.500000 0.000000
O O4 0.250523 0.348993 0.175492
O O5 0.222058 0.283554 0.093737
O O6 0.000000 0.359171 0.127367
O O7 0.225188 0.500000 0.423855
O O8 0.216297 0.604138 0.359183
O O9 0.250970 0.647700 0.444444
O O10 0.000000 0.585633 0.421926
O O11 0.188556 0.118707 0.766407
O O12 0.000000 0.114345 0.835938
O O13 0.156666 0.000000 0.815989
O O14 0.500000 0.693841 0.783657
O O15 0.750000 0.750000 0.750000
O O16 0.705480 0.239106 0.500000
O O17 0.500000 0.282749 0.556932
#
# Coordination Sequence:
#
# PCOD9522996 Si02
#       6
#     8  16  16  16  16  16
#     4   9  18  36  63  91 119 155 201 253 304 355
#     4  10  21  37  59  87 117 150 193 242 293 347
#     4  10  21  36  55  82 113 144 181 230 284 335
#     4   9  19  36  56  76 103 143 184 218 260 320
#     4  11  23  37  56  82 115 151 188 233 283 341
#     4  10  21  37  57  80 108 145 189 233 277 333
#
# _framework density 19.313122
#
# number of rings (size 3 to 8) (size 9 to 14) (size 15 to 20)
#    0.000    2.091    0.000    2.727    1.273   10.545 
#    0.000    1.818    0.000    2.182    0.000    0.000 
#    0.000    0.000    0.000    0.000    0.000    0.000 
#
# Total GULP energy -245378.282209 kJ/mol
# GULP energy per Si atom -5576.779141 kJ/mol
# Density = 1.926916 g / cm^3
# Si number density = 19.313122 Si / 1000 Ang^3
#
#
#
# Elastic Constant Matrix: (Units=GPa)
#
#
# Indices 1 2 3 4 5 6 
#
# 1 21.8114 24.9589 19.5315 0.0000 0.0000 0.0000
# 2 24.9589 83.0153 46.2652 0.0000 0.0000 0.0000
# 3 19.5315 46.2652 102.4169 0.0000 0.0000 0.0000
# 4 0.0000 0.0000 0.0000 33.2395 0.0000 0.0000
# 5 0.0000 0.0000 0.0000 0.0000 28.8068 0.0000
# 6 0.0000 0.0000 0.0000 0.0000 0.0000 19.2405
#
#
#
# Elastic Compliance Matrix: (Units=1/GPa)
#
#
# Indices 1 2 3 4 5 6 
#
# 1 0.071968 -0.018695 -0.005280 0.000000 0.000000 0.000000
# 2 -0.018695 0.020955 -0.005901 0.000000 0.000000 0.000000
# 3 -0.005280 -0.005901 0.013437 0.000000 0.000000 0.000000
# 4 0.000000 0.000000 0.000000 0.030085 0.000000 0.000000
# 5 0.000000 0.000000 0.000000 0.000000 0.034714 0.000000
# 6 0.000000 0.000000 0.000000 0.000000 0.000000 0.051974
#
#
# Mechanical properties :
#
#
# Convention : Reuss Voigt Hill
#
# Bulk Modulus (GPa) = 21.45515 43.19497 32.32506
# Shear Modulus (GPa) = 16.75485 24.02320 20.38903
#
# Velocity S-wave (km/s) = 2.94859 3.53069 3.25269
# Velocity P-wave (km/s) = 4.76713 6.24782 5.55701
#
# Compressibility (1/GPa) = 0.04660886
#
# Stress axis : x y z
#
# Youngs Moduli (GPa) = 13.89497 47.72024 74.42389
#
# Poissons Ratio (x) = 0.89214 0.39292
# Poissons Ratio (y) = 0.25977 0.43918
# Poissons Ratio (z) = 0.07336 0.28160
#
# Static dielectric constant tensor:
#      x y z
#    x 1.673820 0.000000 0.000000 
#    y 0.000000 1.707020 0.000000 
#    z 0.000000 0.000000 1.754370 
# 
# From -- ./inp_files/68043.got.cif
#   From: 2010.05.17/outbox.cif.g08.bks.cpg/sg71_35_cif.got.tgz:68043.got - 2010.06.03 16:22:01.
