data_PCOD9522964
_publ_section_title
;
Structure prediction by ZEFSAII (Michael W. Deem and Ramdas Pophale) SiO2 
 PCOD9522964
Probable space group: I M M M
;
_chemical_formula_sum "Si O2"
_cell_formula_units_Z 52
_cell_length_a 15.344921
_cell_length_b 18.579098
_cell_length_c 7.188098
_cell_angle_alpha 90.000000
_cell_angle_beta 90.000000
_cell_angle_gamma 90.000000
_cell_volume 2049.289297
_symmetry_space_group_name_H-M "I M M M"
_symmetry_group_IT_number 71
_symmetry_cell_setting 'orthorhombic'
loop_
_space_group_symop_operation_xyz
x,y,z
-x,-y,z
x,-y,-z
-x,y,-z
-x,-y,-z
x,y,-z
-x,y,z
x,-y,z
1/2+x,1/2+y,1/2+z
1/2-x,1/2-y,1/2+z
1/2+x,1/2-y,1/2-z
1/2-x,1/2+y,1/2-z
1/2-x,1/2-y,1/2-z
1/2+x,1/2+y,1/2-z
1/2-x,1/2+y,1/2+z
1/2+x,1/2-y,1/2+z
loop_
_atom_site_type_symbol
_atom_site_label
_atom_site_fract_x
_atom_site_fract_y
_atom_site_fract_z
Si Si1 0.350447 0.266583 0.281037
Si Si2 0.822465 0.500000 0.500000
Si Si3 0.598615 0.889654 0.277366
Si Si4 0.105065 0.077526 0.782478
O O1 0.371992 0.272166 0.500000
O O2 0.250000 0.250000 0.250000
O O3 0.397828 0.194082 0.218560
O O4 0.368432 0.345713 0.202692
O O5 0.834367 0.562972 0.661951
O O6 0.614314 0.893390 0.500000
O O7 0.500000 0.916358 0.240907
O O8 0.000000 0.077136 0.778689
O O9 0.134363 0.000000 0.705547
O O10 0.133168 0.075833 0.000000
#
# Coordination Sequence:
#
# PCOD9522964 Si02
#       4
#    16   4  16  16
#     4  10  21  36  54  82 119 157 192 236 294 355
#     4  12  23  38  64  94 116 150 203 254 303 354
#     4  10  21  38  60  87 121 158 199 247 298 356
#     4   8  14  29  56  85 108 137 186 241 290 344
#
# _framework density 25.374652000000001
#
# number of rings (size 3 to 8) (size 9 to 14) (size 15 to 20)
#    0.000    2.462    0.000    3.692    2.154    4.923 
#    2.769    0.000    0.000    0.000    0.000    2.154 
#    0.000    0.000    0.000    0.000    0.000    0.000 
#
# Total GULP energy -144865.284053 kJ/mol
# GULP energy per Si atom -5571.741694 kJ/mol
# Density = 2.531690 g / cm^3
# Si number density = 25.374652 Si / 1000 Ang^3
#
#
#
# Elastic Constant Matrix: (Units=GPa)
#
#
# Indices 1 2 3 4 5 6 
#
# 1 56.7392 27.4645 -6.2507 0.0000 0.0000 0.0000
# 2 27.4645 304.3747 39.8518 0.0000 0.0000 0.0000
# 3 -6.2507 39.8518 145.8037 0.0000 0.0000 0.0000
# 4 0.0000 0.0000 0.0000 -77.6155 0.0000 0.0000
# 5 0.0000 0.0000 0.0000 0.0000 11.6091 0.0000
# 6 0.0000 0.0000 0.0000 0.0000 0.0000 35.5245
#
#
#
# Elastic Compliance Matrix: (Units=1/GPa)
#
#
# Indices 1 2 3 4 5 6 
#
# 1 0.018667 -0.001856 0.001307 0.000000 0.000000 0.000000
# 2 -0.001856 0.003592 -0.001061 0.000000 0.000000 0.000000
# 3 0.001307 -0.001061 0.007205 0.000000 0.000000 0.000000
# 4 0.000000 0.000000 0.000000 -0.012884 0.000000 0.000000
# 5 0.000000 0.000000 0.000000 0.000000 0.086140 0.000000
# 6 0.000000 0.000000 0.000000 0.000000 0.000000 0.028150
#
#
# Mechanical properties :
#
#
# Convention : Reuss Voigt Hill
#
# Bulk Modulus (GPa) = 38.10339 69.89433 53.99886
# Shear Modulus (GPa) = 35.00536 23.62707 29.31622
#
# Velocity S-wave (km/s) = 3.71825 3.05475 3.40271
# Velocity P-wave (km/s) = 5.78643 6.32825 6.06339
#
# Compressibility (1/GPa) = 0.02624439
#
# Stress axis : x y z
#
# Youngs Moduli (GPa) = 53.57132 278.41148 138.79906
#
# Poissons Ratio (x) = 0.51660 -0.18147
# Poissons Ratio (y) = 0.09940 0.14730
# Poissons Ratio (z) = -0.07004 0.29547
#
# Static dielectric constant tensor:
#      x y z
#    x 2.013050 0.000000 0.000000 
#    y 0.000000 2.053240 0.000000 
#    z 0.000000 0.000000 1.983480 
# 
# From -- ./inp_files/7098.got.cif
#   From: 2010.05.17/outbox.cif.g08.bks.cpg/sg71_4_cif.got.tgz:7098.got - 2010.06.03 16:22:01.
