data_PCOD9522107
_publ_section_title
;
Structure prediction by ZEFSAII (Michael W. Deem and Ramdas Pophale) SiO2 
 PCOD9522107
Probable space group: I M M M
;
_chemical_formula_sum "Si O2"
_cell_formula_units_Z 88
_cell_length_a 27.867807
_cell_length_b 19.636930
_cell_length_c 8.860347
_cell_angle_alpha 90.000000
_cell_angle_beta 90.000000
_cell_angle_gamma 90.000000
_cell_volume 4848.720125
_symmetry_space_group_name_H-M "I M M M"
_symmetry_group_IT_number 71
_symmetry_cell_setting 'orthorhombic'
loop_
_space_group_symop_operation_xyz
x,y,z
-x,-y,z
x,-y,-z
-x,y,-z
-x,-y,-z
x,y,-z
-x,y,z
x,-y,z
1/2+x,1/2+y,1/2+z
1/2-x,1/2-y,1/2+z
1/2+x,1/2-y,1/2-z
1/2-x,1/2+y,1/2-z
1/2-x,1/2-y,1/2-z
1/2+x,1/2+y,1/2-z
1/2-x,1/2+y,1/2+z
1/2+x,1/2-y,1/2+z
loop_
_atom_site_type_symbol
_atom_site_label
_atom_site_fract_x
_atom_site_fract_y
_atom_site_fract_z
Si Si1 0.289040 0.343193 0.320292
Si Si2 0.057003 0.191384 0.824747
Si Si3 0.586230 0.834108 0.820087
Si Si4 0.312419 0.815127 0.320217
Si Si5 0.624095 0.420698 0.180133
Si Si6 0.500000 0.081190 0.678427
O O1 0.287971 0.353304 0.500000
O O2 0.309307 0.266598 0.291671
O O3 0.235734 0.345328 0.252594
O O4 0.324604 0.395720 0.241444
O O5 0.070331 0.258621 0.731707
O O6 0.085004 0.127119 0.759173
O O7 0.000000 0.181138 0.817974
O O8 0.070993 0.202348 0.000000
O O9 0.639295 0.844059 0.752570
O O10 0.547022 0.885502 0.752609
O O11 0.587118 0.838679 0.000000
O O12 0.312438 0.825172 0.500000
O O13 0.616386 0.500000 0.214004
O O14 0.622106 0.411110 0.000000
O O15 0.500000 0.097552 0.500000
O O16 0.500000 0.000000 0.697042
#
# Coordination Sequence:
#
# PCOD9522107 Si02
#       6
#    16  16  16  16  16   8
#     4  10  20  35  58  87 119 156 199 249 301 357
#     4  11  23  39  61  88 120 158 206 256 302 359
#     4  12  23  37  63  94 125 159 199 250 301 357
#     4  10  20  35  59  89 122 155 195 249 300 354
#     4  11  24  40  59  85 122 165 206 253 310 366
#     4  11  25  45  67  91 124 163 200 243 301 365
#
# _framework density 18.14912
#
# number of rings (size 3 to 8) (size 9 to 14) (size 15 to 20)
#    0.000    1.182    2.727    4.091    0.000    5.091 
#    0.000    2.727    0.000    5.455    0.000    0.000 
#    0.000    0.000    0.000    0.000    0.000    0.000 
#
# Total GULP energy -246046.063355 kJ/mol
# GULP energy per Si atom -5591.955985 kJ/mol
# Density = 1.810781 g / cm^3
# Si number density = 18.149120 Si / 1000 Ang^3
#
#
#
# Elastic Constant Matrix: (Units=GPa)
#
#
# Indices 1 2 3 4 5 6 
#
# 1 121.7857 24.9942 47.9110 0.0000 0.0000 0.0000
# 2 24.9942 44.4171 30.7130 0.0000 0.0000 0.0000
# 3 47.9110 30.7130 96.1701 0.0000 0.0000 0.0000
# 4 0.0000 0.0000 0.0000 26.9722 0.0000 0.0000
# 5 0.0000 0.0000 0.0000 0.0000 38.6278 0.0000
# 6 0.0000 0.0000 0.0000 0.0000 0.0000 28.6206
#
#
#
# Elastic Compliance Matrix: (Units=1/GPa)
#
#
# Indices 1 2 3 4 5 6 
#
# 1 0.010504 -0.002942 -0.004293 0.000000 0.000000 0.000000
# 2 -0.002942 0.029719 -0.008025 0.000000 0.000000 0.000000
# 3 -0.004293 -0.008025 0.015100 0.000000 0.000000 0.000000
# 4 0.000000 0.000000 0.000000 0.037075 0.000000 0.000000
# 5 0.000000 0.000000 0.000000 0.000000 0.025888 0.000000
# 6 0.000000 0.000000 0.000000 0.000000 0.000000 0.034940
#
#
# Mechanical properties :
#
#
# Convention : Reuss Voigt Hill
#
# Bulk Modulus (GPa) = 40.32049 52.17884 46.24966
# Shear Modulus (GPa) = 26.03972 29.42777 27.73374
#
# Velocity S-wave (km/s) = 3.79194 4.03108 3.91334
# Velocity P-wave (km/s) = 6.43709 7.10483 6.77919
#
# Compressibility (1/GPa) = 0.02480129
#
# Stress axis : x y z
#
# Youngs Moduli (GPa) = 95.20195 33.64899 66.22445
#
# Poissons Ratio (x) = 0.09900 0.28433
# Poissons Ratio (y) = 0.28008 0.53147
# Poissons Ratio (z) = 0.40874 0.27004
#
# Static dielectric constant tensor:
#      x y z
#    x 1.612470 0.000000 0.000000 
#    y 0.000000 1.595170 0.000000 
#    z 0.000000 0.000000 1.603330 
# 
# From -- ./inp_files/16646.got.cif
#   From: 2010.05.17/outbox.cif.g08.bks.cpg/sg71_9_cif.got.tgz:16646.got - 2010.06.03 16:22:01.
