data_PCOD9522754
_publ_section_title
;
Structure prediction by ZEFSAII (Michael W. Deem and Ramdas Pophale) SiO2 
 PCOD9522754
Probable space group: I M M M
;
_chemical_formula_sum "Si O2"
_cell_formula_units_Z 80
_cell_length_a 14.455347
_cell_length_b 7.416569
_cell_length_c 33.939469
_cell_angle_alpha 90.000000
_cell_angle_beta 90.000000
_cell_angle_gamma 90.000000
_cell_volume 3638.619194
_symmetry_space_group_name_H-M "I M M M"
_symmetry_group_IT_number 71
_symmetry_cell_setting 'orthorhombic'
loop_
_space_group_symop_operation_xyz
x,y,z
-x,-y,z
x,-y,-z
-x,y,-z
-x,-y,-z
x,y,-z
-x,y,z
x,-y,z
1/2+x,1/2+y,1/2+z
1/2-x,1/2-y,1/2+z
1/2+x,1/2-y,1/2-z
1/2-x,1/2+y,1/2-z
1/2-x,1/2-y,1/2-z
1/2+x,1/2+y,1/2-z
1/2-x,1/2+y,1/2+z
1/2+x,1/2-y,1/2+z
loop_
_atom_site_type_symbol
_atom_site_label
_atom_site_fract_x
_atom_site_fract_y
_atom_site_fract_z
Si Si1 0.262489 0.791929 0.685135
Si Si2 0.601017 0.787316 0.377570
Si Si3 0.300880 0.282231 0.544956
Si Si4 0.599071 0.785261 0.047609
Si Si5 0.893313 0.219481 0.741263
O O1 0.314052 0.709287 0.647616
O O2 0.168626 0.716779 0.704207
O O3 0.338924 0.783449 0.719972
O O4 0.240918 0.000000 0.675858
O O5 0.500000 0.711509 0.367714
O O6 0.622763 0.769243 0.423553
O O7 0.597848 0.000000 0.368172
O O8 0.316485 0.221176 0.500000
O O9 0.296779 0.500000 0.543689
O O10 0.199665 0.215790 0.559764
O O11 0.500000 0.712311 0.062135
O O12 0.598221 0.000000 0.055491
O O13 0.599237 0.765222 0.000000
O O14 0.000000 0.275344 0.740397
O O15 0.890698 0.000000 0.742044
#
# Coordination Sequence:
#
# PCOD9522754 Si02
#       5
#    16  16  16  16  16
#     4   9  18  33  51  71  98 131 163 193 229 279
#     4  10  21  35  49  66  92 128 165 198 237 287
#     4   9  18  32  50  72  95 120 156 203 248 285
#     4   7  10  20  41  66  88 110 138 175 223 278
#     4   9  17  30  51  78 103 126 155 193 236 279
#
# _framework density 21.986360000000001
#
# number of rings (size 3 to 8) (size 9 to 14) (size 15 to 20)
#    0.000    3.200    0.000    2.400    0.000    3.200 
#    0.000    3.000    0.000    1.800    0.000    2.800 
#    0.000    0.000    0.000    0.000    0.000    0.000 
#
# Total GULP energy -222922.143761 kJ/mol
# GULP energy per Si atom -5573.053594 kJ/mol
# Density = 2.193632 g / cm^3
# Si number density = 21.986360 Si / 1000 Ang^3
#
#
#
# Elastic Constant Matrix: (Units=GPa)
#
#
# Indices 1 2 3 4 5 6 
#
# 1 83.9498 -11.7941 11.5924 0.0000 0.0000 0.0000
# 2 -11.7941 72.0386 -12.5315 0.0000 0.0000 0.0000
# 3 11.5924 -12.5315 57.8893 0.0000 0.0000 0.0000
# 4 0.0000 0.0000 0.0000 12.9850 0.0000 0.0000
# 5 0.0000 0.0000 0.0000 0.0000 20.1397 0.0000
# 6 0.0000 0.0000 0.0000 0.0000 0.0000 3.5119
#
#
#
# Elastic Compliance Matrix: (Units=1/GPa)
#
#
# Indices 1 2 3 4 5 6 
#
# 1 0.012440 0.001666 -0.002130 0.000000 0.000000 0.000000
# 2 0.001666 0.014648 0.002837 0.000000 0.000000 0.000000
# 3 -0.002130 0.002837 0.018315 0.000000 0.000000 0.000000
# 4 0.000000 0.000000 0.000000 0.077012 0.000000 0.000000
# 5 0.000000 0.000000 0.000000 0.000000 0.049653 0.000000
# 6 0.000000 0.000000 0.000000 0.000000 0.000000 0.284747
#
#
# Mechanical properties :
#
#
# Convention : Reuss Voigt Hill
#
# Bulk Modulus (GPa) = 19.94068 20.93457 20.43763
# Shear Modulus (GPa) = 10.66584 22.43470 16.55027
#
# Velocity S-wave (km/s) = 2.20491 3.19782 2.74661
# Velocity P-wave (km/s) = 3.94607 4.81425 4.40162
#
# Compressibility (1/GPa) = 0.05014873
#
# Stress axis : x y z
#
# Youngs Moduli (GPa) = 80.38496 68.26978 54.59954
#
# Poissons Ratio (x) = -0.11374 0.11632
# Poissons Ratio (y) = -0.13393 -0.15491
# Poissons Ratio (z) = 0.17126 -0.19370
#
# Static dielectric constant tensor:
#      x y z
#    x 1.849420 0.000000 0.000000 
#    y 0.000000 1.838770 0.000000 
#    z 0.000000 0.000000 1.783720 
# 
# From -- ./inp_files/59616.got.cif
#   From: 2010.05.17/outbox.cif.g08.bks.cpg/sg71_30_cif.got.tgz:59616.got - 2010.06.03 16:22:01.
