data_PCOD9522134
_publ_section_title
;
Structure prediction by ZEFSAII (Michael W. Deem and Ramdas Pophale) SiO2 
 PCOD9522134
Probable space group: I M M M
;
_chemical_formula_sum "Si O2"
_cell_formula_units_Z 120
_cell_length_a 22.587841
_cell_length_b 23.620341
_cell_length_c 12.815814
_cell_angle_alpha 90.000000
_cell_angle_beta 90.000000
_cell_angle_gamma 90.000000
_cell_volume 6837.653371
_symmetry_space_group_name_H-M "I M M M"
_symmetry_group_IT_number 71
_symmetry_cell_setting 'orthorhombic'
loop_
_space_group_symop_operation_xyz
x,y,z
-x,-y,z
x,-y,-z
-x,y,-z
-x,-y,-z
x,y,-z
-x,y,z
x,-y,z
1/2+x,1/2+y,1/2+z
1/2-x,1/2-y,1/2+z
1/2+x,1/2-y,1/2-z
1/2-x,1/2+y,1/2-z
1/2-x,1/2-y,1/2-z
1/2+x,1/2+y,1/2-z
1/2-x,1/2+y,1/2+z
1/2+x,1/2-y,1/2+z
loop_
_atom_site_type_symbol
_atom_site_label
_atom_site_fract_x
_atom_site_fract_y
_atom_site_fract_z
Si Si1 0.932164 0.659945 0.878124
Si Si2 0.751398 0.436024 0.709476
Si Si3 0.569060 0.672319 0.875403
Si Si4 0.610611 0.934482 0.773099
Si Si5 0.750801 0.184264 0.120844
Si Si6 0.431187 0.068603 0.000000
Si Si7 0.151194 0.744619 0.756282
Si Si8 0.351312 0.435359 0.121597
O O1 0.922877 0.603979 0.809182
O O2 0.886843 0.705584 0.832780
O O3 0.000000 0.679540 0.866589
O O4 0.921070 0.649001 0.000000
O O5 0.743236 0.500000 0.666261
O O6 0.819234 0.432827 0.747443
O O7 0.743178 0.383378 0.632708
O O8 0.705214 0.428246 0.803855
O O9 0.500000 0.673123 0.846055
O O10 0.607130 0.718528 0.814262
O O11 0.599194 0.611313 0.854797
O O12 0.572909 0.682325 0.000000
O O13 0.598924 0.913322 0.891773
O O14 0.591083 0.000000 0.767938
O O15 0.805917 0.214501 0.177570
O O16 0.693075 0.206035 0.183115
O O17 0.747371 0.200368 0.000000
O O18 0.500000 0.085531 0.000000
O O19 0.428384 0.000000 0.000000
O O20 0.372975 0.500000 0.134545
O O21 0.334085 0.428332 0.000000
#
# Coordination Sequence:
#
# PCOD9522134 Si02
#       8
#    16  16  16  16  16   8  16  16
#     4  11  24  40  58  80 109 150 197 238 278 333
#     4  10  20  36  56  83 113 144 182 230 285 336
#     4  10  20  35  59  88 116 149 190 235 283 338
#     4  10  21  37  57  83 113 146 190 238 287 340
#     4  11  23  38  60  86 110 145 189 233 286 341
#     4   9  18  34  56  80 110 148 185 229 288 348
#     4  11  22  41  57  80 115 152 183 234 283 341
#     4   9  18  34  56  84 118 150 181 223 282 344
#
# _framework density 17.549880999999999
#
# number of rings (size 3 to 8) (size 9 to 14) (size 15 to 20)
#    0.000    1.800    2.667    1.600    0.933    2.133 
#    1.200    3.333    0.000    0.000    0.000    0.000 
#    0.000    2.133    0.000    0.000    0.000    0.000 
#
# Total GULP energy -334864.914826 kJ/mol
# GULP energy per Si atom -5581.081914 kJ/mol
# Density = 1.750994 g / cm^3
# Si number density = 17.549881 Si / 1000 Ang^3
#
#
#
# Elastic Constant Matrix: (Units=GPa)
#
#
# Indices 1 2 3 4 5 6 
#
# 1 118.8397 51.1465 67.5216 0.0000 0.0000 0.0000
# 2 51.1465 92.6536 56.0601 0.0000 0.0000 0.0000
# 3 67.5216 56.0601 104.7878 0.0000 0.0000 0.0000
# 4 0.0000 0.0000 0.0000 23.5270 0.0000 0.0000
# 5 0.0000 0.0000 0.0000 0.0000 26.8760 0.0000
# 6 0.0000 0.0000 0.0000 0.0000 0.0000 16.1251
#
#
#
# Elastic Compliance Matrix: (Units=1/GPa)
#
#
# Indices 1 2 3 4 5 6 
#
# 1 0.013941 -0.003342 -0.007195 0.000000 0.000000 0.000000
# 2 -0.003342 0.016760 -0.006813 0.000000 0.000000 0.000000
# 3 -0.007195 -0.006813 0.017824 0.000000 0.000000 0.000000
# 4 0.000000 0.000000 0.000000 0.042504 0.000000 0.000000
# 5 0.000000 0.000000 0.000000 0.000000 0.037208 0.000000
# 6 0.000000 0.000000 0.000000 0.000000 0.000000 0.062015
#
#
# Mechanical properties :
#
#
# Convention : Reuss Voigt Hill
#
# Bulk Modulus (GPa) = 72.33300 73.97083 73.15192
# Shear Modulus (GPa) = 21.78068 22.74248 22.26158
#
# Velocity S-wave (km/s) = 3.52671 3.60373 3.56543
# Velocity P-wave (km/s) = 7.60846 7.71727 7.66306
#
# Compressibility (1/GPa) = 0.01382495
#
# Stress axis : x y z
#
# Youngs Moduli (GPa) = 71.72930 59.66606 56.10398
#
# Poissons Ratio (x) = 0.19943 0.40368
# Poissons Ratio (y) = 0.23975 0.38221
# Poissons Ratio (z) = 0.51610 0.40648
#
# Static dielectric constant tensor:
#      x y z
#    x 1.576220 0.000000 0.000000 
#    y 0.000000 1.609720 0.000000 
#    z 0.000000 0.000000 1.569730 
# 
# From -- ./inp_files/26313.got.cif
#   From: 2010.05.17/outbox.cif.g08.bks.cpg/sg71_14_cif.got.tgz:26313.got - 2010.06.03 16:22:01.
