data_PCOD9522177
_publ_section_title
;
Structure prediction by ZEFSAII (Michael W. Deem and Ramdas Pophale) SiO2 
 PCOD9522177
Probable space group: I M M M
;
_chemical_formula_sum "Si O2"
_cell_formula_units_Z 104
_cell_length_a 24.084901
_cell_length_b 8.055612
_cell_length_c 26.716810
_cell_angle_alpha 90.000000
_cell_angle_beta 90.000000
_cell_angle_gamma 90.000000
_cell_volume 5183.558541
_symmetry_space_group_name_H-M "I M M M"
_symmetry_group_IT_number 71
_symmetry_cell_setting 'orthorhombic'
loop_
_space_group_symop_operation_xyz
x,y,z
-x,-y,z
x,-y,-z
-x,y,-z
-x,-y,-z
x,y,-z
-x,y,z
x,-y,z
1/2+x,1/2+y,1/2+z
1/2-x,1/2-y,1/2+z
1/2+x,1/2-y,1/2-z
1/2-x,1/2+y,1/2-z
1/2-x,1/2-y,1/2-z
1/2+x,1/2+y,1/2-z
1/2-x,1/2+y,1/2+z
1/2+x,1/2-y,1/2+z
loop_
_atom_site_type_symbol
_atom_site_label
_atom_site_fract_x
_atom_site_fract_y
_atom_site_fract_z
Si Si1 0.342813 0.193424 0.363006
Si Si2 0.063590 0.800409 0.942520
Si Si3 0.826705 0.693781 0.248670
Si Si4 0.728415 0.805197 0.150655
Si Si5 0.115634 0.197986 0.397597
Si Si6 0.060920 0.801929 0.703828
Si Si7 0.436528 0.296437 0.000000
O O1 0.389403 0.256978 0.401472
O O2 0.335862 0.269477 0.306697
O O3 0.278762 0.218631 0.378702
O O4 0.355339 0.000000 0.356700
O O5 0.000000 0.743860 0.930204
O O6 0.061798 0.000000 0.944063
O O7 0.076153 0.743471 0.000000
O O8 0.811935 0.500000 0.243172
O O9 0.786156 0.762993 0.292857
O O10 0.888194 0.708247 0.271576
O O11 0.671546 0.782038 0.120996
O O12 0.740561 0.000000 0.154966
O O13 0.068757 0.221104 0.355430
O O14 0.094623 0.258527 0.450475
O O15 0.126382 0.000000 0.399897
O O16 0.000000 0.749224 0.720613
O O17 0.066985 0.000000 0.713743
O O18 0.436834 0.500000 0.000000
O O19 0.500000 0.242605 0.000000
#
# Coordination Sequence:
#
# PCOD9522177 Si02
#       7
#    16  16  16  16  16  16   8
#     4  11  22  36  57  85 111 138 176 221 268 320
#     4   9  20  41  65  86 111 143 178 218 267 325
#     4   9  20  35  51  75 108 143 179 221 269 319
#     4  10  20  36  55  75 105 145 184 221 266 320
#     4   9  17  31  50  73 102 136 176 224 270 312
#     4   9  17  29  47  72 102 137 177 219 264 316
#     4   9  16  28  51  79 103 133 176 223 268 311
#
# _framework density 20.063435999999999
#
# number of rings (size 3 to 8) (size 9 to 14) (size 15 to 20)
#    0.000    2.538    0.000    2.308    0.000    5.231 
#    1.385    4.231    0.000    1.846    0.000    0.000 
#    0.000    0.000    0.000    0.000    0.000    0.000 
#
# Total GULP energy -289704.301405 kJ/mol
# GULP energy per Si atom -5571.236565 kJ/mol
# Density = 2.001777 g / cm^3
# Si number density = 20.063436 Si / 1000 Ang^3
#
#
#
# Elastic Constant Matrix: (Units=GPa)
#
#
# Indices 1 2 3 4 5 6 
#
# 1 133.3277 17.1998 65.9055 0.0000 0.0000 0.0000
# 2 17.1998 24.6333 18.9179 0.0000 0.0000 0.0000
# 3 65.9055 18.9179 110.5059 0.0000 0.0000 0.0000
# 4 0.0000 0.0000 0.0000 9.4742 0.0000 0.0000
# 5 0.0000 0.0000 0.0000 0.0000 26.7952 0.0000
# 6 0.0000 0.0000 0.0000 0.0000 0.0000 25.1997
#
#
#
# Elastic Compliance Matrix: (Units=1/GPa)
#
#
# Indices 1 2 3 4 5 6 
#
# 1 0.010824 -0.002994 -0.005943 0.000000 0.000000 0.000000
# 2 -0.002994 0.047569 -0.006358 0.000000 0.000000 0.000000
# 3 -0.005943 -0.006358 0.013682 0.000000 0.000000 0.000000
# 4 0.000000 0.000000 0.000000 0.105550 0.000000 0.000000
# 5 0.000000 0.000000 0.000000 0.000000 0.037320 0.000000
# 6 0.000000 0.000000 0.000000 0.000000 0.000000 0.039683
#
#
# Mechanical properties :
#
#
# Convention : Reuss Voigt Hill
#
# Bulk Modulus (GPa) = 24.10485 52.50149 38.30317
# Shear Modulus (GPa) = 16.71985 23.39007 20.05496
#
# Velocity S-wave (km/s) = 2.88991 3.41809 3.16504
# Velocity P-wave (km/s) = 4.81413 6.46548 5.69992
#
# Compressibility (1/GPa) = 0.04148543
#
# Stress axis : x y z
#
# Youngs Moduli (GPa) = 92.38517 21.02231 73.08789
#
# Poissons Ratio (x) = 0.06294 0.43437
# Poissons Ratio (y) = 0.27658 0.46469
# Poissons Ratio (z) = 0.54905 0.13366
#
# Static dielectric constant tensor:
#      x y z
#    x 1.720330 0.000000 0.000000 
#    y 0.000000 1.746820 0.000000 
#    z 0.000000 0.000000 1.743270 
# 
# From -- ./inp_files/66844.got.cif
#   From: 2010.05.17/outbox.cif.g08.bks.cpg/sg71_34_cif.got.tgz:66844.got - 2010.06.03 16:22:01.
