data_PCOD9522668
_publ_section_title
;
Structure prediction by ZEFSAII (Michael W. Deem and Ramdas Pophale) SiO2 
 PCOD9522668
Probable space group: I M M M
;
_chemical_formula_sum "Si O2"
_cell_formula_units_Z 54
_cell_length_a 10.396260
_cell_length_b 11.616892
_cell_length_c 22.758772
_cell_angle_alpha 90.000000
_cell_angle_beta 90.000000
_cell_angle_gamma 90.000000
_cell_volume 2748.627638
_symmetry_space_group_name_H-M "I M M M"
_symmetry_group_IT_number 71
_symmetry_cell_setting 'orthorhombic'
loop_
_space_group_symop_operation_xyz
x,y,z
-x,-y,z
x,-y,-z
-x,y,-z
-x,-y,-z
x,y,-z
-x,y,z
x,-y,z
1/2+x,1/2+y,1/2+z
1/2-x,1/2-y,1/2+z
1/2+x,1/2-y,1/2-z
1/2-x,1/2+y,1/2-z
1/2-x,1/2-y,1/2-z
1/2+x,1/2+y,1/2-z
1/2-x,1/2+y,1/2+z
1/2+x,1/2-y,1/2+z
loop_
_atom_site_type_symbol
_atom_site_label
_atom_site_fract_x
_atom_site_fract_y
_atom_site_fract_z
Si Si1 0.762598 0.741844 0.878562
Si Si2 0.351416 0.137436 0.500000
Si Si3 0.500000 0.638998 0.822911
Si Si4 0.297254 0.000000 0.892262
Si Si5 0.000000 0.500000 0.500000
Si Si6 0.000000 0.278180 0.208505
Si Si7 0.000000 0.500000 0.710235
O O1 0.626141 0.699040 0.851945
O O2 0.772673 0.878025 0.891093
O O3 0.874665 0.715405 0.832269
O O4 0.784574 0.680357 0.940744
O O5 0.500000 0.177429 0.500000
O O6 0.351052 0.000000 0.500000
O O7 0.500000 0.500000 0.831585
O O8 0.500000 0.670450 0.753482
O O9 0.389547 0.000000 0.948392
O O10 0.378735 0.000000 0.832367
O O11 0.000000 0.388096 0.250304
#
# Coordination Sequence:
#
# PCOD9522668 Si02
#       7
#    16   8   8   8   2   8   4
#     4  12  26  46  70 106 138 187 234 290 353 413
#     4  11  25  48  71  99 135 184 234 282 351 425
#     4  12  27  44  70 108 141 180 232 291 348 406
#     4  11  23  43  71 103 142 184 237 296 345 419
#     4  10  20  44  68  98 130 194 228 292 340 420
#     4  12  27  43  72 101 147 188 231 283 349 433
#     4  11  24  43  70  99 138 195 240 266 356 433
#
# _framework density 19.646166999999998
#
# number of rings (size 3 to 8) (size 9 to 14) (size 15 to 20)
#    0.000    0.444    4.444    3.556    6.222    0.593 
#    0.000    2.222    0.000    0.000    0.000    0.000 
#    0.000    0.000    0.000    0.000    0.000    0.000 
#
# Total GULP energy -150673.310757 kJ/mol
# GULP energy per Si atom -5580.492991 kJ/mol
# Density = 1.960145 g / cm^3
# Si number density = 19.646167 Si / 1000 Ang^3
#
#
#
# Elastic Constant Matrix: (Units=GPa)
#
#
# Indices 1 2 3 4 5 6 
#
# 1 132.7448 22.9213 74.3002 0.0000 0.0000 0.0000
# 2 22.9213 120.5445 42.2539 0.0000 0.0000 0.0000
# 3 74.3002 42.2539 179.8681 0.0000 0.0000 0.0000
# 4 0.0000 0.0000 0.0000 13.2479 0.0000 0.0000
# 5 0.0000 0.0000 0.0000 0.0000 -4.3406 0.0000
# 6 0.0000 0.0000 0.0000 0.0000 0.0000 20.7244
#
#
#
# Elastic Compliance Matrix: (Units=1/GPa)
#
#
# Indices 1 2 3 4 5 6 
#
# 1 0.009825 -0.000486 -0.003944 0.000000 0.000000 0.000000
# 2 -0.000486 0.009064 -0.001929 0.000000 0.000000 0.000000
# 3 -0.003944 -0.001929 0.007642 0.000000 0.000000 0.000000
# 4 0.000000 0.000000 0.000000 0.075483 0.000000 0.000000
# 5 0.000000 0.000000 0.000000 0.000000 -0.230384 0.000000
# 6 0.000000 0.000000 0.000000 0.000000 0.000000 0.048252
#
#
# Mechanical properties :
#
#
# Convention : Reuss Voigt Hill
#
# Bulk Modulus (GPa) = 72.39218 79.12315 75.75766
# Shear Modulus (GPa) = -79.62426 25.50516 -27.05955
#
# Velocity S-wave (km/s) = -6.37316 3.60700 -3.71529
# Velocity P-wave (km/s) = 4.15069 7.59663 4.49892
#
# Compressibility (1/GPa) = 0.01381365
#
# Stress axis : x y z
#
# Youngs Moduli (GPa) = 101.78261 110.32554 130.85448
#
# Poissons Ratio (x) = 0.05357 0.51614
# Poissons Ratio (y) = 0.04942 0.25238
# Poissons Ratio (z) = 0.40147 0.21279
#
# Static dielectric constant tensor:
#      x y z
#    x 1.674170 0.000000 0.000000 
#    y 0.000000 1.612920 0.000000 
#    z 0.000000 0.000000 1.658210 
# 
# From -- ./inp_files/25115.got.cif
#   From: 2010.05.17/outbox.cif.g08.bks.cpg/sg71_13_cif.got.tgz:25115.got - 2010.06.03 16:22:01.
