data_PCOD9522758
_publ_section_title
;
Structure prediction by ZEFSAII (Michael W. Deem and Ramdas Pophale) SiO2 
 PCOD9522758
Probable space group: I M M M
;
_chemical_formula_sum "Si O2"
_cell_formula_units_Z 88
_cell_length_a 31.012142
_cell_length_b 17.145654
_cell_length_c 7.449289
_cell_angle_alpha 90.000000
_cell_angle_beta 90.000000
_cell_angle_gamma 90.000000
_cell_volume 3960.961696
_symmetry_space_group_name_H-M "I M M M"
_symmetry_group_IT_number 71
_symmetry_cell_setting 'orthorhombic'
loop_
_space_group_symop_operation_xyz
x,y,z
-x,-y,z
x,-y,-z
-x,y,-z
-x,-y,-z
x,y,-z
-x,y,z
x,-y,z
1/2+x,1/2+y,1/2+z
1/2-x,1/2-y,1/2+z
1/2+x,1/2-y,1/2-z
1/2-x,1/2+y,1/2-z
1/2-x,1/2-y,1/2-z
1/2+x,1/2+y,1/2-z
1/2-x,1/2+y,1/2+z
1/2+x,1/2-y,1/2+z
loop_
_atom_site_type_symbol
_atom_site_label
_atom_site_fract_x
_atom_site_fract_y
_atom_site_fract_z
Si Si1 0.278405 0.905245 0.788206
Si Si2 0.184174 0.908624 0.220068
Si Si3 0.048146 0.311645 0.293144
Si Si4 0.549831 0.500000 0.783929
Si Si5 0.403353 0.659779 0.706192
Si Si6 0.371657 0.909029 0.780268
O O1 0.231510 0.881433 0.717403
O O2 0.324788 0.878307 0.716748
O O3 0.278892 0.000000 0.773816
O O4 0.277895 0.886823 0.000000
O O5 0.144502 0.855527 0.281416
O O6 0.177820 0.000000 0.271407
O O7 0.183829 0.908484 0.000000
O O8 0.044423 0.337229 0.500000
O O9 0.066362 0.223986 0.293911
O O10 0.086691 0.363156 0.213725
O O11 0.000000 0.315743 0.214349
O O12 0.500000 0.500000 0.730007
O O13 0.573439 0.423346 0.715406
O O14 0.552013 0.500000 0.000000
O O15 0.398813 0.684198 0.500000
O O16 0.375116 0.000000 0.733960
O O17 0.370573 0.904538 0.000000
#
# Coordination Sequence:
#
# PCOD9522758 Si02
#       6
#    16  16  16   8  16  16
#     4   7  10  19  40  69  98 123 152 196 245 293
#     4   8  13  24  43  69  98 125 158 200 243 284
#     4  10  21  35  49  69 102 136 164 207 263 302
#     4  11  23  37  53  73  99 131 169 213 258 295
#     4  11  21  34  52  74 100 132 173 210 242 293
#     4   8  14  27  49  75  98 125 166 207 247 302
#
# _framework density 22.216826999999999
#
# number of rings (size 3 to 8) (size 9 to 14) (size 15 to 20)
#    0.000    3.000    0.909    3.545    0.000    3.636 
#    0.000    2.727    0.000    0.545    0.000    2.545 
#    0.000    0.000    0.000    0.000    0.000    0.000 
#
# Total GULP energy -245404.011914 kJ/mol
# GULP energy per Si atom -5577.363907 kJ/mol
# Density = 2.216626 g / cm^3
# Si number density = 22.216827 Si / 1000 Ang^3
#
#
#
# Elastic Constant Matrix: (Units=GPa)
#
#
# Indices 1 2 3 4 5 6 
#
# 1 246.9185 44.4437 11.7658 0.0000 0.0000 0.0000
# 2 44.4437 27.8653 -8.0999 0.0000 0.0000 0.0000
# 3 11.7658 -8.0999 68.8423 0.0000 0.0000 0.0000
# 4 0.0000 0.0000 0.0000 -13.4359 0.0000 0.0000
# 5 0.0000 0.0000 0.0000 0.0000 -4.5615 0.0000
# 6 0.0000 0.0000 0.0000 0.0000 0.0000 29.6348
#
#
#
# Elastic Compliance Matrix: (Units=1/GPa)
#
#
# Indices 1 2 3 4 5 6 
#
# 1 0.005993 -0.010205 -0.002225 0.000000 0.000000 0.000000
# 2 -0.010205 0.054535 0.008161 0.000000 0.000000 0.000000
# 3 -0.002225 0.008161 0.015866 0.000000 0.000000 0.000000
# 4 0.000000 0.000000 0.000000 -0.074428 0.000000 0.000000
# 5 0.000000 0.000000 0.000000 0.000000 -0.219225 0.000000
# 6 0.000000 0.000000 0.000000 0.000000 0.000000 0.033744
#
#
# Mechanical properties :
#
#
# Convention : Reuss Voigt Hill
#
# Bulk Modulus (GPa) = 14.73710 48.87170 31.80440
# Shear Modulus (GPa) = -32.81753 22.02859 -5.39447
#
# Velocity S-wave (km/s) = -3.84754 3.15227 -1.55993
# Velocity P-wave (km/s) = 3.61806 5.94091 3.33197
#
# Compressibility (1/GPa) = 0.06785595
#
# Stress axis : x y z
#
# Youngs Moduli (GPa) = 166.86887 18.33683 63.02637
#
# Poissons Ratio (x) = 0.18712 0.14023
# Poissons Ratio (y) = 1.70286 -0.51433
# Poissons Ratio (z) = 0.37127 -0.14964
#
# Static dielectric constant tensor:
#      x y z
#    x 1.862560 0.000000 0.000000 
#    y 0.000000 1.770930 0.000000 
#    z 0.000000 0.000000 1.948640 
# 
# From -- ./inp_files/16660.got.cif
#   From: 2010.05.17/outbox.cif.g08.bks.cpg/sg71_9_cif.got.tgz:16660.got - 2010.06.03 16:22:01.
