data_PCOD9522918
_publ_section_title
;
Structure prediction by ZEFSAII (Michael W. Deem and Ramdas Pophale) SiO2 
 PCOD9522918
Probable space group: I M M M
;
_chemical_formula_sum "Si O2"
_cell_formula_units_Z 100
_cell_length_a 26.526691
_cell_length_b 21.421576
_cell_length_c 7.620894
_cell_angle_alpha 90.000000
_cell_angle_beta 90.000000
_cell_angle_gamma 90.000000
_cell_volume 4330.523688
_symmetry_space_group_name_H-M "I M M M"
_symmetry_group_IT_number 71
_symmetry_cell_setting 'orthorhombic'
loop_
_space_group_symop_operation_xyz
x,y,z
-x,-y,z
x,-y,-z
-x,y,-z
-x,-y,-z
x,y,-z
-x,y,z
x,-y,z
1/2+x,1/2+y,1/2+z
1/2-x,1/2-y,1/2+z
1/2+x,1/2-y,1/2-z
1/2-x,1/2+y,1/2-z
1/2-x,1/2-y,1/2-z
1/2+x,1/2+y,1/2-z
1/2-x,1/2+y,1/2+z
1/2+x,1/2-y,1/2+z
loop_
_atom_site_type_symbol
_atom_site_label
_atom_site_fract_x
_atom_site_fract_y
_atom_site_fract_z
Si Si1 0.085978 0.816106 0.710176
Si Si2 0.258837 0.115996 0.294683
Si Si3 0.070228 0.500000 0.803879
Si Si4 0.849111 0.928109 0.286608
Si Si5 0.823925 0.500000 0.311695
Si Si6 0.500000 0.286910 0.500000
Si Si7 0.344853 0.797636 0.207581
Si Si8 0.446027 0.138571 0.795954
O O1 0.072402 0.813114 0.500000
O O2 0.102767 0.886211 0.758921
O O3 0.044069 0.792014 0.843419
O O4 0.135915 0.772674 0.729430
O O5 0.257492 0.100854 0.500000
O O6 0.201930 0.107463 0.229163
O O7 0.291009 0.061394 0.206216
O O8 0.291119 0.179333 0.277285
O O9 0.130320 0.500000 0.818032
O O10 0.055091 0.564056 0.713130
O O11 0.050482 0.500000 0.000000
O O12 0.848566 0.929324 0.500000
O O13 0.849317 0.000000 0.226405
O O14 0.849837 0.500000 0.500000
O O15 0.393047 0.837135 0.279529
O O16 0.341616 0.810185 0.000000
O O17 0.500000 0.159045 0.714836
O O18 0.446584 0.158490 0.000000
#
# Coordination Sequence:
#
# PCOD9522918 Si02
#       8
#    16  16   8  16   8   4  16  16
#     4  10  24  47  72 102 141 182 227 288 351 418
#     4  11  21  36  63  96 131 174 224 280 334 400
#     4  12  23  35  50  75 110 150 206 273 327 383
#     4   9  19  41  71 102 139 182 224 272 347 425
#     4  12  22  35  53  84 122 171 223 271 332 402
#     4  12  26  48  77 108 136 181 238 288 354 426
#     4  10  22  39  60  91 129 174 225 273 336 404
#     4  10  21  36  54  75 107 155 207 263 326 393
#
# _framework density 23.091895000000001
#
# number of rings (size 3 to 8) (size 9 to 14) (size 15 to 20)
#    0.000    1.600    2.400    2.400    2.240    1.920 
#    2.880    1.200    0.000    1.920    0.000    0.000 
#    0.000    0.000    0.000    0.000    0.000    0.000 
#
# Total GULP energy -278727.533611 kJ/mol
# GULP energy per Si atom -5574.550672 kJ/mol
# Density = 2.303934 g / cm^3
# Si number density = 23.091895 Si / 1000 Ang^3
#
#
#
# Elastic Constant Matrix: (Units=GPa)
#
#
# Indices 1 2 3 4 5 6 
#
# 1 53.5099 41.1760 10.6766 0.0000 0.0000 0.0000
# 2 41.1760 96.7853 9.6017 0.0000 0.0000 0.0000
# 3 10.6766 9.6017 88.9319 0.0000 0.0000 0.0000
# 4 0.0000 0.0000 0.0000 37.0016 0.0000 0.0000
# 5 0.0000 0.0000 0.0000 0.0000 29.5772 0.0000
# 6 0.0000 0.0000 0.0000 0.0000 0.0000 141.8267
#
#
#
# Elastic Compliance Matrix: (Units=1/GPa)
#
#
# Indices 1 2 3 4 5 6 
#
# 1 0.028170 -0.011775 -0.002111 0.000000 0.000000 0.000000
# 2 -0.011775 0.015366 -0.000245 0.000000 0.000000 0.000000
# 3 -0.002111 -0.000245 0.011524 0.000000 0.000000 0.000000
# 4 0.000000 0.000000 0.000000 0.027026 0.000000 0.000000
# 5 0.000000 0.000000 0.000000 0.000000 0.033810 0.000000
# 6 0.000000 0.000000 0.000000 0.000000 0.000000 0.007051
#
#
# Mechanical properties :
#
#
# Convention : Reuss Voigt Hill
#
# Bulk Modulus (GPa) = 37.31573 40.23731 38.77652
# Shear Modulus (GPa) = 31.22211 53.53261 42.37736
#
# Velocity S-wave (km/s) = 3.68105 4.82004 4.28853
# Velocity P-wave (km/s) = 5.85334 6.95986 6.43045
#
# Compressibility (1/GPa) = 0.02679835
#
# Stress axis : x y z
#
# Youngs Moduli (GPa) = 35.49830 65.07815 86.77217
#
# Poissons Ratio (x) = 0.76632 0.18314
# Poissons Ratio (y) = 0.41800 0.02129
# Poissons Ratio (z) = 0.07492 0.01597
#
# Static dielectric constant tensor:
#      x y z
#    x 1.868380 0.000000 0.000000 
#    y 0.000000 1.871660 0.000000 
#    z 0.000000 0.000000 1.883430 
# 
# From -- ./inp_files/15087.got.cif
#   From: 2010.05.17/outbox.cif.g08.bks.cpg/sg71_8_cif.got.tgz:15087.got - 2010.06.03 16:22:01.
