data_PCOD9522910
_publ_section_title
;
Structure prediction by ZEFSAII (Michael W. Deem and Ramdas Pophale) SiO2 
 PCOD9522910
Probable space group: I M M M
;
_chemical_formula_sum "Si O2"
_cell_formula_units_Z 90
_cell_length_a 20.556050
_cell_length_b 24.800452
_cell_length_c 9.366344
_cell_angle_alpha 90.000000
_cell_angle_beta 90.000000
_cell_angle_gamma 90.000000
_cell_volume 4774.955908
_symmetry_space_group_name_H-M "I M M M"
_symmetry_group_IT_number 71
_symmetry_cell_setting 'orthorhombic'
loop_
_space_group_symop_operation_xyz
x,y,z
-x,-y,z
x,-y,-z
-x,y,-z
-x,-y,-z
x,y,-z
-x,y,z
x,-y,z
1/2+x,1/2+y,1/2+z
1/2-x,1/2-y,1/2+z
1/2+x,1/2-y,1/2-z
1/2-x,1/2+y,1/2-z
1/2-x,1/2-y,1/2-z
1/2+x,1/2+y,1/2-z
1/2-x,1/2+y,1/2+z
1/2+x,1/2-y,1/2+z
loop_
_atom_site_type_symbol
_atom_site_label
_atom_site_fract_x
_atom_site_fract_y
_atom_site_fract_z
Si Si1 0.901247 0.683731 0.332024
Si Si2 0.115036 0.212342 0.833221
Si Si3 0.749708 0.339730 0.332582
Si Si4 0.073206 0.089140 0.167106
Si Si5 0.000000 0.500000 0.000000
Si Si6 0.000000 0.386484 0.159219
Si Si7 0.300155 0.559345 0.168973
O O1 0.916991 0.681599 0.500000
O O2 0.916510 0.741706 0.262900
O O3 0.823270 0.679024 0.316067
O O4 0.938442 0.636693 0.246684
O O5 0.191037 0.200983 0.793492
O O6 0.081517 0.153943 0.819570
O O7 0.112558 0.228432 0.000000
O O8 0.738249 0.352081 0.500000
O O9 0.739930 0.393397 0.241748
O O10 0.128059 0.063216 0.264125
O O11 0.000000 0.073462 0.204288
O O12 0.084577 0.076075 0.000000
O O13 0.000000 0.549464 0.876640
O O14 0.000000 0.360949 0.000000
O O15 0.272694 0.500000 0.198026
O O16 0.303250 0.567322 0.000000
#
# Coordination Sequence:
#
# PCOD9522910 Si02
#       7
#    16  16  16  16   2   8  16
#     4  11  22  37  60  94 122 145 186 239 290 353
#     4   9  18  33  56  85 121 160 189 225 277 346
#     4   9  20  38  57  82 118 156 191 230 289 351
#     4   9  19  35  54  78 111 153 196 232 280 337
#     4   8  24  52  70  80 112 156 206 252 296 356
#     4  10  23  45  67  85 111 152 197 240 290 352
#     4  10  21  36  53  78 109 144 193 248 289 332
#
# _framework density 18.848343
#
# number of rings (size 3 to 8) (size 9 to 14) (size 15 to 20)
#    0.267    2.133    0.000    2.933    1.244    6.400 
#    1.600    2.667    0.000    0.000    0.000    0.000 
#    0.000    0.000    0.000    0.000    0.000    0.000 
#
# Total GULP energy -250740.692600 kJ/mol
# GULP energy per Si atom -5572.015391 kJ/mol
# Density = 1.880544 g / cm^3
# Si number density = 18.848343 Si / 1000 Ang^3
#
#
#
# Elastic Constant Matrix: (Units=GPa)
#
#
# Indices 1 2 3 4 5 6 
#
# 1 49.8209 7.7713 20.2483 0.0000 0.0000 0.0000
# 2 7.7713 109.1243 66.0928 0.0000 0.0000 0.0000
# 3 20.2483 66.0928 77.5346 0.0000 0.0000 0.0000
# 4 0.0000 0.0000 0.0000 30.1310 0.0000 0.0000
# 5 0.0000 0.0000 0.0000 0.0000 19.1663 0.0000
# 6 0.0000 0.0000 0.0000 0.0000 0.0000 2.5527
#
#
#
# Elastic Compliance Matrix: (Units=1/GPa)
#
#
# Indices 1 2 3 4 5 6 
#
# 1 0.023350 0.004197 -0.009676 0.000000 0.000000 0.000000
# 2 0.004197 0.019699 -0.017889 0.000000 0.000000 0.000000
# 3 -0.009676 -0.017889 0.030673 0.000000 0.000000 0.000000
# 4 0.000000 0.000000 0.000000 0.033188 0.000000 0.000000
# 5 0.000000 0.000000 0.000000 0.000000 0.052175 0.000000
# 6 0.000000 0.000000 0.000000 0.000000 0.000000 0.391748
#
#
# Mechanical properties :
#
#
# Convention : Reuss Voigt Hill
#
# Bulk Modulus (GPa) = 37.05313 47.18939 42.12126
# Shear Modulus (GPa) = 8.24316 19.86115 14.05216
#
# Velocity S-wave (km/s) = 2.09354 3.24965 2.73342
# Velocity P-wave (km/s) = 5.05422 6.25867 5.68841
#
# Compressibility (1/GPa) = 0.02698827
#
# Stress axis : x y z
#
# Youngs Moduli (GPa) = 42.82725 50.76302 32.60195
#
# Poissons Ratio (x) = -0.21308 0.31545
# Poissons Ratio (y) = -0.17977 0.58320
# Poissons Ratio (z) = 0.41439 0.90807
#
# Static dielectric constant tensor:
#      x y z
#    x 1.671890 0.000000 0.000000 
#    y 0.000000 1.653800 0.000000 
#    z 0.000000 0.000000 1.628700 
# 
# From -- ./inp_files/10536.got.cif
#   From: 2010.05.17/outbox.cif.g08.bks.cpg/sg71_6_cif.got.tgz:10536.got - 2010.06.03 16:22:01.
