data_PCOD9522765
_publ_section_title
;
Structure prediction by ZEFSAII (Michael W. Deem and Ramdas Pophale) SiO2 
 PCOD9522765
Probable space group: I M M M
;
_chemical_formula_sum "Si O2"
_cell_formula_units_Z 96
_cell_length_a 19.523372
_cell_length_b 8.402037
_cell_length_c 33.545235
_cell_angle_alpha 90.000000
_cell_angle_beta 90.000000
_cell_angle_gamma 90.000000
_cell_volume 5502.629319
_symmetry_space_group_name_H-M "I M M M"
_symmetry_group_IT_number 71
_symmetry_cell_setting 'orthorhombic'
loop_
_space_group_symop_operation_xyz
x,y,z
-x,-y,z
x,-y,-z
-x,y,-z
-x,-y,-z
x,y,-z
-x,y,z
x,-y,z
1/2+x,1/2+y,1/2+z
1/2-x,1/2-y,1/2+z
1/2+x,1/2-y,1/2-z
1/2-x,1/2+y,1/2-z
1/2-x,1/2-y,1/2-z
1/2+x,1/2+y,1/2-z
1/2-x,1/2+y,1/2+z
1/2+x,1/2-y,1/2+z
loop_
_atom_site_type_symbol
_atom_site_label
_atom_site_fract_x
_atom_site_fract_y
_atom_site_fract_z
Si Si1 0.654838 0.691295 0.668271
Si Si2 0.422621 0.692555 0.588836
Si Si3 0.711802 0.807628 0.121212
Si Si4 0.922526 0.694318 0.335094
Si Si5 0.710390 0.809664 0.455111
Si Si6 0.922259 0.691502 0.243883
O O1 0.655204 0.500000 0.669542
O O2 0.601712 0.739934 0.633351
O O3 0.729397 0.743965 0.652686
O O4 0.630502 0.752007 0.710778
O O5 0.500000 0.745771 0.580710
O O6 0.421079 0.500000 0.587325
O O7 0.365089 0.755528 0.558945
O O8 0.637570 0.751635 0.135684
O O9 0.736780 0.752839 0.077963
O O10 0.711906 0.000000 0.121171
O O11 0.922566 0.500000 0.335557
O O12 0.907458 0.742227 0.289320
O O13 0.000000 0.745252 0.345077
O O14 0.724328 0.752701 0.500000
O O15 0.712485 0.000000 0.454738
O O16 0.922612 0.500000 0.243836
O O17 0.000000 0.745512 0.233960
#
# Coordination Sequence:
#
# PCOD9522765 Si02
#       6
#    16  16  16  16  16  16
#     4   9  17  28  42  64  95 127 158 192 227 262
#     4   9  18  32  49  69  95 129 166 200 232 266
#     4   9  18  33  52  71  91 119 155 193 234 280
#     4   8  15  30  51  72  93 118 151 193 238 280
#     4  10  21  35  50  70  96 123 151 188 235 283
#     4   9  17  28  43  65  93 126 162 195 228 268
#
# _framework density 17.446204999999999
#
# number of rings (size 3 to 8) (size 9 to 14) (size 15 to 20)
#    0.000    3.000    0.000    3.000    0.000    6.333 
#    0.000    2.500    0.000    2.000    0.000    3.500 
#    0.000    0.000    0.000    0.000    0.000    0.000 
#
# Total GULP energy -267514.908318 kJ/mol
# GULP energy per Si atom -5573.227257 kJ/mol
# Density = 1.740650 g / cm^3
# Si number density = 17.446205 Si / 1000 Ang^3
#
#
#
# Elastic Constant Matrix: (Units=GPa)
#
#
# Indices 1 2 3 4 5 6 
#
# 1 143.2730 19.8719 111.3484 0.0000 0.0000 0.0000
# 2 19.8719 3.8589 15.5898 0.0000 0.0000 0.0000
# 3 111.3484 15.5898 124.7293 0.0000 0.0000 0.0000
# 4 0.0000 0.0000 0.0000 23.0157 0.0000 0.0000
# 5 0.0000 0.0000 0.0000 0.0000 9.2060 0.0000
# 6 0.0000 0.0000 0.0000 0.0000 0.0000 8.5362
#
#
#
# Elastic Compliance Matrix: (Units=1/GPa)
#
#
# Indices 1 2 3 4 5 6 
#
# 1 0.039511 -0.123159 -0.019879 0.000000 0.000000 0.000000
# 2 -0.123159 0.907374 -0.003465 0.000000 0.000000 0.000000
# 3 -0.019879 -0.003465 0.026197 0.000000 0.000000 0.000000
# 4 0.000000 0.000000 0.000000 0.043449 0.000000 0.000000
# 5 0.000000 0.000000 0.000000 0.000000 0.108624 0.000000
# 6 0.000000 0.000000 0.000000 0.000000 0.000000 0.117148
#
#
# Mechanical properties :
#
#
# Convention : Reuss Voigt Hill
#
# Bulk Modulus (GPa) = 1.47043 62.83126 32.15084
# Shear Modulus (GPa) = 2.83768 16.48832 9.66300
#
# Velocity S-wave (km/s) = 1.27674 3.07758 2.35601
# Velocity P-wave (km/s) = 1.73726 6.98005 5.08622
#
# Compressibility (1/GPa) = 0.68007497
#
# Stress axis : x y z
#
# Youngs Moduli (GPa) = 25.30931 1.10208 38.17272
#
# Poissons Ratio (x) = 0.13573 0.75883
# Poissons Ratio (y) = 3.11707 0.13228
# Poissons Ratio (z) = 0.50312 0.00382
#
# Static dielectric constant tensor:
#      x y z
#    x 1.597790 0.000000 0.000000 
#    y 0.000000 1.604390 0.000000 
#    z 0.000000 0.000000 1.579310 
# 
# From -- ./inp_files/14830.got.cif
#   From: 2010.05.17/outbox.cif.g08.bks.cpg/sg71_8_cif.got.tgz:14830.got - 2010.06.03 16:22:01.
