data_PCOD9522849
_publ_section_title
;
Structure prediction by ZEFSAII (Michael W. Deem and Ramdas Pophale) SiO2 
 PCOD9522849
Probable space group: I M M M
;
_chemical_formula_sum "Si O2"
_cell_formula_units_Z 80
_cell_length_a 17.348075
_cell_length_b 13.247510
_cell_length_c 19.951541
_cell_angle_alpha 90.000000
_cell_angle_beta 90.000000
_cell_angle_gamma 90.000000
_cell_volume 4585.239152
_symmetry_space_group_name_H-M "I M M M"
_symmetry_group_IT_number 71
_symmetry_cell_setting 'orthorhombic'
loop_
_space_group_symop_operation_xyz
x,y,z
-x,-y,z
x,-y,-z
-x,y,-z
-x,-y,-z
x,y,-z
-x,y,z
x,-y,z
1/2+x,1/2+y,1/2+z
1/2-x,1/2-y,1/2+z
1/2+x,1/2-y,1/2-z
1/2-x,1/2+y,1/2-z
1/2-x,1/2-y,1/2-z
1/2+x,1/2+y,1/2-z
1/2-x,1/2+y,1/2+z
1/2+x,1/2-y,1/2+z
loop_
_atom_site_type_symbol
_atom_site_label
_atom_site_fract_x
_atom_site_fract_y
_atom_site_fract_z
Si Si1 0.085978 0.618836 0.279314
Si Si2 0.908457 0.705751 0.000000
Si Si3 0.413233 0.610314 0.919856
Si Si4 0.293240 0.225883 0.126509
Si Si5 0.156654 0.382186 0.862543
Si Si6 0.284532 0.619892 0.500000
O O1 0.087025 0.500000 0.295513
O O2 0.159090 0.667834 0.316448
O O3 0.098549 0.628541 0.199629
O O4 0.000000 0.657727 0.297670
O O5 0.881485 0.645585 0.933693
O O6 0.861988 0.811879 0.000000
O O7 0.000000 0.719174 0.000000
O O8 0.500000 0.627326 0.894795
O O9 0.386976 0.500000 0.895236
O O10 0.355964 0.697952 0.902937
O O11 0.417088 0.605157 0.000000
O O12 0.223983 0.299764 0.148885
O O13 0.261769 0.154091 0.067005
O O14 0.182672 0.500000 0.863767
O O15 0.297502 0.500000 0.500000
#
# Coordination Sequence:
#
# PCOD9522849 Si02
#       6
#    16   8  16  16  16   8
#     4  10  21  36  53  74 104 142 181 220 263 309
#     4  10  21  37  60  84 105 134 172 213 265 321
#     4   9  17  29  47  73 105 139 174 215 262 308
#     4  11  19  34  53  77 104 143 179 214 260 311
#     4  10  21  35  55  83 110 135 168 217 270 319
#     4  10  22  36  52  77 107 136 175 221 257 301
#
# _framework density 17.447289999999999
#
# number of rings (size 3 to 8) (size 9 to 14) (size 15 to 20)
#    0.000    2.000    1.000    3.900    0.000    1.800 
#    0.000    0.000    0.000    3.600    0.000    0.000 
#    0.000    0.000    0.000    0.000    0.000    0.000 
#
# Total GULP energy -222899.995391 kJ/mol
# GULP energy per Si atom -5572.499885 kJ/mol
# Density = 1.740758 g / cm^3
# Si number density = 17.447290 Si / 1000 Ang^3
#
#
#
# Elastic Constant Matrix: (Units=GPa)
#
#
# Indices 1 2 3 4 5 6 
#
# 1 100.2079 42.4536 41.5914 0.0000 0.0000 0.0000
# 2 42.4536 103.2978 34.1021 0.0000 0.0000 0.0000
# 3 41.5914 34.1021 78.6132 0.0000 0.0000 0.0000
# 4 0.0000 0.0000 0.0000 26.0542 0.0000 0.0000
# 5 0.0000 0.0000 0.0000 0.0000 24.1043 0.0000
# 6 0.0000 0.0000 0.0000 0.0000 0.0000 24.7432
#
#
#
# Elastic Compliance Matrix: (Units=1/GPa)
#
#
# Indices 1 2 3 4 5 6 
#
# 1 0.013992 -0.003859 -0.005728 0.000000 0.000000 0.000000
# 2 -0.003859 0.012363 -0.003321 0.000000 0.000000 0.000000
# 3 -0.005728 -0.003321 0.017192 0.000000 0.000000 0.000000
# 4 0.000000 0.000000 0.000000 0.038382 0.000000 0.000000
# 5 0.000000 0.000000 0.000000 0.000000 0.041486 0.000000
# 6 0.000000 0.000000 0.000000 0.000000 0.000000 0.040415
#
#
# Mechanical properties :
#
#
# Convention : Reuss Voigt Hill
#
# Bulk Modulus (GPa) = 56.40459 57.60144 57.00302
# Shear Modulus (GPa) = 25.56785 25.91180 25.73983
#
# Velocity S-wave (km/s) = 3.83225 3.85794 3.84512
# Velocity P-wave (km/s) = 7.20974 7.27538 7.24263
#
# Compressibility (1/GPa) = 0.01772905
#
# Stress axis : x y z
#
# Youngs Moduli (GPa) = 71.47017 80.88444 58.16648
#
# Poissons Ratio (x) = 0.31215 0.33320
# Poissons Ratio (y) = 0.27582 0.19319
# Poissons Ratio (z) = 0.40941 0.26865
#
# Static dielectric constant tensor:
#      x y z
#    x 1.601230 0.000000 0.000000 
#    y 0.000000 1.589680 0.000000 
#    z 0.000000 0.000000 1.592840 
# 
# From -- ./inp_files/53887.got.cif
#   From: 2010.05.17/outbox.cif.g08.bks.cpg/sg71_27_cif.got.tgz:53887.got - 2010.06.03 16:22:01.
