data_PCOD9522943
_publ_section_title
;
Structure prediction by ZEFSAII (Michael W. Deem and Ramdas Pophale) SiO2 
 PCOD9522943
Probable space group: I M M M
;
_chemical_formula_sum "Si O2"
_cell_formula_units_Z 72
_cell_length_a 29.415712
_cell_length_b 15.388851
_cell_length_c 8.259622
_cell_angle_alpha 90.000000
_cell_angle_beta 90.000000
_cell_angle_gamma 90.000000
_cell_volume 3738.916204
_symmetry_space_group_name_H-M "I M M M"
_symmetry_group_IT_number 71
_symmetry_cell_setting 'orthorhombic'
loop_
_space_group_symop_operation_xyz
x,y,z
-x,-y,z
x,-y,-z
-x,y,-z
-x,-y,-z
x,y,-z
-x,y,z
x,-y,z
1/2+x,1/2+y,1/2+z
1/2-x,1/2-y,1/2+z
1/2+x,1/2-y,1/2-z
1/2-x,1/2+y,1/2-z
1/2-x,1/2-y,1/2-z
1/2+x,1/2+y,1/2-z
1/2-x,1/2+y,1/2+z
1/2+x,1/2-y,1/2+z
loop_
_atom_site_type_symbol
_atom_site_label
_atom_site_fract_x
_atom_site_fract_y
_atom_site_fract_z
Si Si1 0.181729 0.600261 0.188238
Si Si2 0.353996 0.722704 0.815818
Si Si3 0.220233 0.900850 0.185135
Si Si4 0.554466 0.904080 0.500000
Si Si5 0.553039 0.213333 0.811376
O O1 0.173916 0.500000 0.240678
O O2 0.157516 0.675865 0.287656
O O3 0.235865 0.616880 0.205396
O O4 0.168667 0.608411 0.000000
O O5 0.320835 0.665153 0.708699
O O6 0.408058 0.714134 0.789264
O O7 0.343618 0.699139 0.000000
O O8 0.205175 0.000000 0.216202
O O9 0.236648 0.895605 0.000000
O O10 0.500000 0.911798 0.500000
O O11 0.563822 0.854701 0.332012
O O12 0.574945 0.000000 0.500000
O O13 0.500000 0.239229 0.792387
O O14 0.557750 0.182361 0.000000
#
# Coordination Sequence:
#
# PCOD9522943 Si02
#       5
#    16  16  16   8  16
#     4  10  21  36  54  78 111 147 181 221 267 321
#     4  11  22  35  56  81 107 144 184 225 275 329
#     4  10  21  37  57  80 108 140 178 226 275 329
#     4   9  18  32  52  76 103 141 183 225 276 326
#     4   9  20  37  54  77 109 145 187 231 276 326
#
# _framework density 19.256916
#
# number of rings (size 3 to 8) (size 9 to 14) (size 15 to 20)
#    0.000    2.111    0.000    2.667    3.111    4.000 
#    0.000    4.444    0.000    0.667    0.000    4.667 
#    0.000    0.000    0.000    0.000    0.000    0.000 
#
# Total GULP energy -200754.095044 kJ/mol
# GULP energy per Si atom -5576.502640 kJ/mol
# Density = 1.921309 g / cm^3
# Si number density = 19.256916 Si / 1000 Ang^3
#
#
#
# Elastic Constant Matrix: (Units=GPa)
#
#
# Indices 1 2 3 4 5 6 
#
# 1 87.4651 29.9314 13.6648 0.0000 0.0000 0.0000
# 2 29.9314 29.4142 2.4329 0.0000 0.0000 0.0000
# 3 13.6648 2.4329 57.8191 0.0000 0.0000 0.0000
# 4 0.0000 0.0000 0.0000 11.1043 0.0000 0.0000
# 5 0.0000 0.0000 0.0000 0.0000 25.2448 0.0000
# 6 0.0000 0.0000 0.0000 0.0000 0.0000 14.7681
#
#
#
# Elastic Compliance Matrix: (Units=1/GPa)
#
#
# Indices 1 2 3 4 5 6 
#
# 1 0.018237 -0.018264 -0.003541 0.000000 0.000000 0.000000
# 2 -0.018264 0.052408 0.002111 0.000000 0.000000 0.000000
# 3 -0.003541 0.002111 0.018043 0.000000 0.000000 0.000000
# 4 0.000000 0.000000 0.000000 0.090055 0.000000 0.000000
# 5 0.000000 0.000000 0.000000 0.000000 0.039612 0.000000
# 6 0.000000 0.000000 0.000000 0.000000 0.000000 0.067713
#
#
# Mechanical properties :
#
#
# Convention : Reuss Voigt Hill
#
# Bulk Modulus (GPa) = 20.28430 29.63962 24.96196
# Shear Modulus (GPa) = 14.62453 18.80139 16.71296
#
# Velocity S-wave (km/s) = 2.75879 3.12804 2.94920
# Velocity P-wave (km/s) = 4.55019 5.33585 4.95861
#
# Compressibility (1/GPa) = 0.04929922
#
# Stress axis : x y z
#
# Youngs Moduli (GPa) = 54.83445 19.08098 55.42174
#
# Poissons Ratio (x) = 0.34850 0.19628
# Poissons Ratio (y) = 1.00152 -0.11702
# Poissons Ratio (z) = 0.19420 -0.04029
#
# Static dielectric constant tensor:
#      x y z
#    x 1.697330 0.000000 0.000000 
#    y 0.000000 1.651950 0.000000 
#    z 0.000000 0.000000 1.660280 
# 
# From -- ./inp_files/14306.got.cif
#   From: 2010.05.17/outbox.cif.g08.bks.cpg/sg71_8_cif.got.tgz:14306.got - 2010.06.03 16:22:01.
