data_PCOD9522147
_publ_section_title
;
Structure prediction by ZEFSAII (Michael W. Deem and Ramdas Pophale) SiO2 
 PCOD9522147
Probable space group: I M M M
;
_chemical_formula_sum "Si O2"
_cell_formula_units_Z 92
_cell_length_a 14.637648
_cell_length_b 15.251191
_cell_length_c 19.169797
_cell_angle_alpha 90.000000
_cell_angle_beta 90.000000
_cell_angle_gamma 90.000000
_cell_volume 4279.495491
_symmetry_space_group_name_H-M "I M M M"
_symmetry_group_IT_number 71
_symmetry_cell_setting 'orthorhombic'
loop_
_space_group_symop_operation_xyz
x,y,z
-x,-y,z
x,-y,-z
-x,y,-z
-x,-y,-z
x,y,-z
-x,y,z
x,-y,z
1/2+x,1/2+y,1/2+z
1/2-x,1/2-y,1/2+z
1/2+x,1/2-y,1/2-z
1/2-x,1/2+y,1/2-z
1/2-x,1/2-y,1/2-z
1/2+x,1/2+y,1/2-z
1/2-x,1/2+y,1/2+z
1/2+x,1/2-y,1/2+z
loop_
_atom_site_type_symbol
_atom_site_label
_atom_site_fract_x
_atom_site_fract_y
_atom_site_fract_z
Si Si1 0.601445 0.604864 0.275026
Si Si2 0.000000 0.368827 0.500000
Si Si3 0.641161 0.399892 0.425240
Si Si4 0.717203 0.661269 0.153458
Si Si5 0.608960 0.500000 0.916414
Si Si6 0.661088 0.852070 0.114504
Si Si7 0.104665 0.394801 0.774241
O O1 0.500000 0.612967 0.245590
O O2 0.625648 0.500000 0.273717
O O3 0.602032 0.637505 0.354090
O O4 0.671211 0.659495 0.229933
O O5 0.079271 0.367879 0.561372
O O6 0.621355 0.357839 0.500000
O O7 0.607648 0.500000 0.427886
O O8 0.749445 0.402079 0.411910
O O9 0.663410 0.583287 0.114040
O O10 0.692723 0.750784 0.115604
O O11 0.823068 0.644039 0.170368
O O12 0.500000 0.500000 0.897984
O O13 0.613465 0.500000 0.000000
O O14 0.634307 0.876055 0.193984
O O15 0.107691 0.500000 0.782633
O O16 0.000000 0.364405 0.783535
#
# Coordination Sequence:
#
# PCOD9522147 Si02
#       7
#    16   4  16  16   8  16  16
#     4  10  20  35  59  90 121 159 211 267 321 387
#     4  12  28  44  61 101 142 172 226 274 352 413
#     4  10  21  39  60  85 126 170 212 261 329 400
#     4  12  24  42  65  94 135 170 223 281 341 393
#     4  11  26  42  67  99 130 173 223 277 347 412
#     4  12  25  41  61  93 132 176 214 275 334 408
#     4  11  23  43  68  98 131 170 227 278 331 402
#
# _framework density 21.497861
#
# number of rings (size 3 to 8) (size 9 to 14) (size 15 to 20)
#    0.000    0.957    5.217    1.565    3.652    0.348 
#    0.000    3.478    0.000    1.043    0.000    0.000 
#    0.000    0.000    0.000    0.000    0.000    0.000 
#
# Total GULP energy -256631.532912 kJ/mol
# GULP energy per Si atom -5578.946368 kJ/mol
# Density = 2.144893 g / cm^3
# Si number density = 21.497861 Si / 1000 Ang^3
#
#
#
# Elastic Constant Matrix: (Units=GPa)
#
#
# Indices 1 2 3 4 5 6 
#
# 1 143.9681 8.5299 38.5179 0.0000 0.0000 0.0000
# 2 8.5299 62.3635 0.6986 0.0000 0.0000 0.0000
# 3 38.5179 0.6986 90.1638 0.0000 0.0000 0.0000
# 4 0.0000 0.0000 0.0000 0.8830 0.0000 0.0000
# 5 0.0000 0.0000 0.0000 0.0000 51.8153 0.0000
# 6 0.0000 0.0000 0.0000 0.0000 0.0000 -35.2810
#
#
#
# Elastic Compliance Matrix: (Units=1/GPa)
#
#
# Indices 1 2 3 4 5 6 
#
# 1 0.007910 -0.001044 -0.003371 0.000000 0.000000 0.000000
# 2 -0.001044 0.016174 0.000321 0.000000 0.000000 0.000000
# 3 -0.003371 0.000321 0.012528 0.000000 0.000000 0.000000
# 4 0.000000 0.000000 0.000000 1.132490 0.000000 0.000000
# 5 0.000000 0.000000 0.000000 0.000000 0.019299 0.000000
# 6 0.000000 0.000000 0.000000 0.000000 0.000000 -0.028344
#
#
# Mechanical properties :
#
#
# Convention : Reuss Voigt Hill
#
# Bulk Modulus (GPa) = 35.18178 43.55426 39.36802
# Shear Modulus (GPa) = 4.24549 20.06672 12.15610
#
# Velocity S-wave (km/s) = 1.40681 3.05852 2.38051
# Velocity P-wave (km/s) = 4.36344 5.72508 5.09000
#
# Compressibility (1/GPa) = 0.02842381
#
# Stress axis : x y z
#
# Youngs Moduli (GPa) = 126.42672 61.82674 79.81803
#
# Poissons Ratio (x) = 0.06455 0.26906
# Poissons Ratio (y) = 0.13200 -0.02560
# Poissons Ratio (z) = 0.42618 -0.01983
#
# Static dielectric constant tensor:
#      x y z
#    x 1.784050 0.000000 0.000000 
#    y 0.000000 1.826690 0.000000 
#    z 0.000000 0.000000 1.798210 
# 
# From -- ./inp_files/53030.got.cif
#   From: 2010.05.17/outbox.cif.g08.bks.cpg/sg71_27_cif.got.tgz:53030.got - 2010.06.03 16:22:01.
