data_PCOD9522816
_publ_section_title
;
Structure prediction by ZEFSAII (Michael W. Deem and Ramdas Pophale) SiO2 
 PCOD9522816
Probable space group: I M M M
;
_chemical_formula_sum "Si O2"
_cell_formula_units_Z 96
_cell_length_a 8.671117
_cell_length_b 26.014483
_cell_length_c 24.110569
_cell_angle_alpha 90.000000
_cell_angle_beta 90.000000
_cell_angle_gamma 90.000000
_cell_volume 5438.732580
_symmetry_space_group_name_H-M "I M M M"
_symmetry_group_IT_number 71
_symmetry_cell_setting 'orthorhombic'
loop_
_space_group_symop_operation_xyz
x,y,z
-x,-y,z
x,-y,-z
-x,y,-z
-x,-y,-z
x,y,-z
-x,y,z
x,-y,z
1/2+x,1/2+y,1/2+z
1/2-x,1/2-y,1/2+z
1/2+x,1/2-y,1/2-z
1/2-x,1/2+y,1/2-z
1/2-x,1/2-y,1/2-z
1/2+x,1/2+y,1/2-z
1/2-x,1/2+y,1/2+z
1/2+x,1/2-y,1/2+z
loop_
_atom_site_type_symbol
_atom_site_label
_atom_site_fract_x
_atom_site_fract_y
_atom_site_fract_z
Si Si1 0.187781 0.941487 0.563274
Si Si2 0.183529 0.307899 0.251713
Si Si3 0.684840 0.346591 0.137361
Si Si4 0.315837 0.347847 0.633581
Si Si5 0.814465 0.746025 0.064690
Si Si6 0.314048 0.940622 0.936057
O O1 0.235792 0.928914 0.500000
O O2 0.238120 0.898751 0.606898
O O3 0.000000 0.941136 0.563292
O O4 0.236248 0.000000 0.575743
O O5 0.250000 0.250000 0.250000
O O6 0.241569 0.337279 0.197166
O O7 0.240767 0.335684 0.307286
O O8 0.000000 0.304610 0.251350
O O9 0.500000 0.347803 0.142896
O O10 0.732685 0.299148 0.098302
O O11 0.500000 0.348662 0.639917
O O12 0.275668 0.300487 0.592698
O O13 0.259171 0.400263 0.605714
O O14 0.000000 0.739300 0.069143
O O15 0.772588 0.745262 0.000000
O O16 0.500000 0.937153 0.933106
O O17 0.271680 0.000000 0.924607
O O18 0.269104 0.929103 0.000000
#
# Coordination Sequence:
#
# PCOD9522816 Si02
#       6
#    16  16  16  16  16  16
#     4   8  15  30  53  82 115 147 181 225 273 321
#     4  12  24  40  59  80 109 150 191 234 285 340
#     4  11  21  34  56  84 111 146 190 232 279 338
#     4  11  22  37  58  84 113 149 191 235 284 339
#     4  10  21  35  52  78 114 149 180 226 285 339
#     4   9  19  37  60  86 118 155 192 233 284 339
#
# _framework density 17.651171999999999
#
# number of rings (size 3 to 8) (size 9 to 14) (size 15 to 20)
#    0.000    1.833    1.667    4.500    0.000    3.000 
#    0.000    1.667    0.000    5.000    0.000    5.833 
#    0.000    0.000    0.000    0.000    0.000    0.000 
#
# Total GULP energy -268094.601882 kJ/mol
# GULP energy per Si atom -5585.304206 kJ/mol
# Density = 1.761100 g / cm^3
# Si number density = 17.651172 Si / 1000 Ang^3
#
#
#
# Elastic Constant Matrix: (Units=GPa)
#
#
# Indices 1 2 3 4 5 6 
#
# 1 57.8438 51.0012 63.0247 0.0000 0.0000 0.0000
# 2 51.0012 137.8502 100.4768 0.0000 0.0000 0.0000
# 3 63.0247 100.4768 169.8730 0.0000 0.0000 0.0000
# 4 0.0000 0.0000 0.0000 17.9017 0.0000 0.0000
# 5 0.0000 0.0000 0.0000 0.0000 29.4518 0.0000
# 6 0.0000 0.0000 0.0000 0.0000 0.0000 12.8926
#
#
#
# Elastic Compliance Matrix: (Units=1/GPa)
#
#
# Indices 1 2 3 4 5 6 
#
# 1 0.031192 -0.005459 -0.008344 0.000000 0.000000 0.000000
# 2 -0.005459 0.013707 -0.006082 0.000000 0.000000 0.000000
# 3 -0.008344 -0.006082 0.012580 0.000000 0.000000 0.000000
# 4 0.000000 0.000000 0.000000 0.055861 0.000000 0.000000
# 5 0.000000 0.000000 0.000000 0.000000 0.033954 0.000000
# 6 0.000000 0.000000 0.000000 0.000000 0.000000 0.077564
#
#
# Mechanical properties :
#
#
# Convention : Reuss Voigt Hill
#
# Bulk Modulus (GPa) = 56.46667 88.28583 72.37625
# Shear Modulus (GPa) = 18.48223 22.12018 20.30121
#
# Velocity S-wave (km/s) = 3.23938 3.54388 3.39504
# Velocity P-wave (km/s) = 6.78610 8.17747 7.51406
#
# Compressibility (1/GPa) = 0.01770956
#
# Stress axis : x y z
#
# Youngs Moduli (GPa) = 32.05943 72.95506 79.49112
#
# Poissons Ratio (x) = 0.39823 0.66327
# Poissons Ratio (y) = 0.17500 0.48349
# Poissons Ratio (z) = 0.26750 0.44374
#
# Static dielectric constant tensor:
#      x y z
#    x 1.601490 0.000000 0.000000 
#    y 0.000000 1.584860 0.000000 
#    z 0.000000 0.000000 1.578740 
# 
# From -- ./inp_files/10879.got.cif
#   From: 2010.05.17/outbox.cif.g08.bks.cpg/sg71_6_cif.got.tgz:10879.got - 2010.06.03 16:22:01.
