data_PCOD9522010
_publ_section_title
;
Structure prediction by ZEFSAII (Michael W. Deem and Ramdas Pophale) SiO2 
 PCOD9522010
Probable space group: I M M M
;
_chemical_formula_sum "Si O2"
_cell_formula_units_Z 80
_cell_length_a 25.935953
_cell_length_b 8.707177
_cell_length_c 18.897307
_cell_angle_alpha 90.000000
_cell_angle_beta 90.000000
_cell_angle_gamma 90.000000
_cell_volume 4267.558685
_symmetry_space_group_name_H-M "I M M M"
_symmetry_group_IT_number 71
_symmetry_cell_setting 'orthorhombic'
loop_
_space_group_symop_operation_xyz
x,y,z
-x,-y,z
x,-y,-z
-x,y,-z
-x,-y,-z
x,y,-z
-x,y,z
x,-y,z
1/2+x,1/2+y,1/2+z
1/2-x,1/2-y,1/2+z
1/2+x,1/2-y,1/2-z
1/2-x,1/2+y,1/2-z
1/2-x,1/2-y,1/2-z
1/2+x,1/2+y,1/2-z
1/2-x,1/2+y,1/2+z
1/2+x,1/2-y,1/2+z
loop_
_atom_site_type_symbol
_atom_site_label
_atom_site_fract_x
_atom_site_fract_y
_atom_site_fract_z
Si Si1 0.597230 0.816054 0.917768
Si Si2 0.190947 0.316405 0.174109
Si Si3 0.500000 0.313010 0.669984
Si Si4 0.189474 0.183520 0.671002
Si Si5 0.000000 0.184507 0.333432
Si Si6 0.899453 0.185577 0.917834
O O1 0.650569 0.760473 0.883516
O O2 0.550430 0.744793 0.873437
O O3 0.593979 0.000000 0.913982
O O4 0.593650 0.769995 0.000000
O O5 0.187589 0.500000 0.181016
O O6 0.177507 0.240509 0.249550
O O7 0.250544 0.276980 0.157466
O O8 0.151788 0.256640 0.115475
O O9 0.500000 0.500000 0.669678
O O10 0.500000 0.263535 0.751534
O O11 0.448781 0.264321 0.628251
O O12 0.183744 0.000000 0.667988
O O13 0.000000 0.000000 0.334201
O O14 0.896166 0.000000 0.913522
O O15 0.906006 0.226741 0.000000
#
# Coordination Sequence:
#
# PCOD9522010 Si02
#       6
#    16  16   8  16   8  16
#     4  11  24  40  58  83 117 153 189 234 287 340
#     4  10  21  37  58  84 115 149 186 234 288 340
#     4   9  19  36  57  82 110 143 187 233 274 322
#     4  10  21  38  60  84 111 147 192 237 281 337
#     4  11  22  37  61  87 112 149 195 238 282 340
#     4  10  20  35  57  83 113 150 190 232 278 332
#
# _framework density 18.746081
#
# number of rings (size 3 to 8) (size 9 to 14) (size 15 to 20)
#    0.000    1.800    0.000    3.900    0.000    9.200 
#    0.000    5.500    0.000    1.200    0.000    0.000 
#    0.000    0.000    0.000    0.000    0.000    0.000 
#
# Total GULP energy -223563.900139 kJ/mol
# GULP energy per Si atom -5589.097503 kJ/mol
# Density = 1.870341 g / cm^3
# Si number density = 18.746081 Si / 1000 Ang^3
#
#
#
# Elastic Constant Matrix: (Units=GPa)
#
#
# Indices 1 2 3 4 5 6 
#
# 1 107.2011 34.8441 100.7802 0.0000 0.0000 0.0000
# 2 34.8441 36.4617 47.3790 0.0000 0.0000 0.0000
# 3 100.7802 47.3790 179.4516 0.0000 0.0000 0.0000
# 4 0.0000 0.0000 0.0000 29.9327 0.0000 0.0000
# 5 0.0000 0.0000 0.0000 0.0000 -66.5712 0.0000
# 6 0.0000 0.0000 0.0000 0.0000 0.0000 30.6527
#
#
#
# Elastic Compliance Matrix: (Units=1/GPa)
#
#
# Indices 1 2 3 4 5 6 
#
# 1 0.020933 -0.007198 -0.009856 0.000000 0.000000 0.000000
# 2 -0.007198 0.044224 -0.007634 0.000000 0.000000 0.000000
# 3 -0.009856 -0.007634 0.013123 0.000000 0.000000 0.000000
# 4 0.000000 0.000000 0.000000 0.033408 0.000000 0.000000
# 5 0.000000 0.000000 0.000000 0.000000 -0.015022 0.000000
# 6 0.000000 0.000000 0.000000 0.000000 0.000000 0.032624
#
#
# Mechanical properties :
#
#
# Convention : Reuss Voigt Hill
#
# Bulk Modulus (GPa) = 34.59539 76.56900 55.58219
# Shear Modulus (GPa) = 26.55331 8.14359 17.34845
#
# Velocity S-wave (km/s) = 3.76769 2.08653 3.04541
# Velocity P-wave (km/s) = 6.11736 6.83658 6.48694
#
# Compressibility (1/GPa) = 0.02890559
#
# Stress axis : x y z
#
# Youngs Moduli (GPa) = 47.77090 22.61215 76.20205
#
# Poissons Ratio (x) = 0.16276 0.75103
# Poissons Ratio (y) = 0.34385 0.58171
# Poissons Ratio (z) = 0.47082 0.17262
#
# Static dielectric constant tensor:
#      x y z
#    x 1.628440 0.000000 0.000000 
#    y 0.000000 1.633740 0.000000 
#    z 0.000000 0.000000 1.619630 
# 
# From -- ./inp_files/48624.got.cif
#   From: 2010.05.17/outbox.cif.g08.bks.cpg/sg71_25_cif.got.tgz:48624.got - 2010.06.03 16:22:01.
