data_PCOD9522056
_publ_section_title
;
Structure prediction by ZEFSAII (Michael W. Deem and Ramdas Pophale) SiO2 
 PCOD9522056
Probable space group: I M M M
;
_chemical_formula_sum "Si O2"
_cell_formula_units_Z 108
_cell_length_a 20.286490
_cell_length_b 13.251501
_cell_length_c 21.307263
_cell_angle_alpha 90.000000
_cell_angle_beta 90.000000
_cell_angle_gamma 90.000000
_cell_volume 5727.955712
_symmetry_space_group_name_H-M "I M M M"
_symmetry_group_IT_number 71
_symmetry_cell_setting 'orthorhombic'
loop_
_space_group_symop_operation_xyz
x,y,z
-x,-y,z
x,-y,-z
-x,y,-z
-x,-y,-z
x,y,-z
-x,y,z
x,-y,z
1/2+x,1/2+y,1/2+z
1/2-x,1/2-y,1/2+z
1/2+x,1/2-y,1/2-z
1/2-x,1/2+y,1/2-z
1/2-x,1/2-y,1/2-z
1/2+x,1/2+y,1/2-z
1/2-x,1/2+y,1/2+z
1/2+x,1/2-y,1/2+z
loop_
_atom_site_type_symbol
_atom_site_label
_atom_site_fract_x
_atom_site_fract_y
_atom_site_fract_z
Si Si1 0.205131 0.884658 0.217782
Si Si2 0.633484 0.275948 0.925914
Si Si3 0.574092 0.265846 0.734798
Si Si4 0.402429 0.116701 0.619647
Si Si5 0.000000 0.638161 0.000000
Si Si6 0.760033 0.682522 0.849219
Si Si7 0.921304 0.614763 0.651040
Si Si8 0.500000 0.614069 0.923602
O O1 0.129814 0.850875 0.231892
O O2 0.228816 0.800523 0.168256
O O3 0.246596 0.869601 0.281921
O O4 0.209465 0.000000 0.196977
O O5 0.695519 0.323208 0.891358
O O6 0.620560 0.160763 0.905610
O O7 0.566422 0.330742 0.904036
O O8 0.640085 0.286073 0.000000
O O9 0.500000 0.304608 0.744439
O O10 0.575384 0.197354 0.672081
O O11 0.591351 0.187843 0.790259
O O12 0.442544 0.133518 0.555602
O O13 0.323888 0.136607 0.617092
O O14 0.414062 0.000000 0.639012
O O15 0.903788 0.500000 0.665760
O O16 0.000000 0.617812 0.637366
O O17 0.500000 0.500000 0.901551
O O18 0.500000 0.614620 0.000000
#
# Coordination Sequence:
#
# PCOD9522056 Si02
#       8
#    16  16  16  16   4  16  16   8
#     4  10  21  40  63  88 121 156 200 257 312 370
#     4  11  22  39  58  84 121 160 208 251 295 367
#     4  10  20  37  60  91 120 158 204 248 308 372
#     4  11  22  38  61  89 123 159 200 254 313 375
#     4  12  25  40  62  98 131 162 207 258 320 376
#     4  10  23  40  59  91 119 160 203 249 316 371
#     4  10  20  35  57  86 120 156 202 253 298 347
#     4   9  20  38  58  78 112 160 199 240 292 351
#
# _framework density 18.854893000000001
#
# number of rings (size 3 to 8) (size 9 to 14) (size 15 to 20)
#    0.000    1.704    2.963    1.556    1.037    2.963 
#    0.000    0.741    0.000    0.000    0.000    8.296 
#    0.000    0.000    0.000    0.000    0.000    0.000 
#
# Total GULP energy -301007.516084 kJ/mol
# GULP energy per Si atom -5574.213261 kJ/mol
# Density = 1.881198 g / cm^3
# Si number density = 18.854893 Si / 1000 Ang^3
#
#
#
# Elastic Constant Matrix: (Units=GPa)
#
#
# Indices 1 2 3 4 5 6 
#
# 1 123.2547 13.9927 35.1837 0.0000 0.0000 0.0000
# 2 13.9927 74.4465 9.6411 0.0000 0.0000 0.0000
# 3 35.1837 9.6411 66.1906 0.0000 0.0000 0.0000
# 4 0.0000 0.0000 0.0000 5.8640 0.0000 0.0000
# 5 0.0000 0.0000 0.0000 0.0000 33.9685 0.0000
# 6 0.0000 0.0000 0.0000 0.0000 0.0000 10.9459
#
#
#
# Elastic Compliance Matrix: (Units=1/GPa)
#
#
# Indices 1 2 3 4 5 6 
#
# 1 0.009664 -0.001173 -0.004966 0.000000 0.000000 0.000000
# 2 -0.001173 0.013833 -0.001391 0.000000 0.000000 0.000000
# 3 -0.004966 -0.001391 0.017950 0.000000 0.000000 0.000000
# 4 0.000000 0.000000 0.000000 0.170533 0.000000 0.000000
# 5 0.000000 0.000000 0.000000 0.000000 0.029439 0.000000
# 6 0.000000 0.000000 0.000000 0.000000 0.000000 0.091359
#
#
# Mechanical properties :
#
#
# Convention : Reuss Voigt Hill
#
# Bulk Modulus (GPa) = 37.89843 42.39189 40.14516
# Shear Modulus (GPa) = 14.01994 23.82729 18.92362
#
# Velocity S-wave (km/s) = 2.72981 3.55874 3.17147
# Velocity P-wave (km/s) = 5.48448 6.27839 5.89482
#
# Compressibility (1/GPa) = 0.02638632
#
# Stress axis : x y z
#
# Youngs Moduli (GPa) = 103.47610 72.29001 55.70955
#
# Poissons Ratio (x) = 0.08482 0.27666
# Poissons Ratio (y) = 0.12141 0.07750
# Poissons Ratio (z) = 0.51387 0.10057
#
# Static dielectric constant tensor:
#      x y z
#    x 1.690450 0.000000 0.000000 
#    y 0.000000 1.656380 0.000000 
#    z 0.000000 0.000000 1.637780 
# 
# From -- ./inp_files/61334.got.cif
#   From: 2010.05.17/outbox.cif.g08.bks.cpg/sg71_31_cif.got.tgz:61334.got - 2010.06.03 16:22:01.
