data_PCOD9522513
_publ_section_title
;
Structure prediction by ZEFSAII (Michael W. Deem and Ramdas Pophale) SiO2 
 PCOD9522513
Probable space group: I M M M
;
_chemical_formula_sum "Si O2"
_cell_formula_units_Z 80
_cell_length_a 26.624029
_cell_length_b 17.937940
_cell_length_c 7.558691
_cell_angle_alpha 90.000000
_cell_angle_beta 90.000000
_cell_angle_gamma 90.000000
_cell_volume 3609.881422
_symmetry_space_group_name_H-M "I M M M"
_symmetry_group_IT_number 71
_symmetry_cell_setting 'orthorhombic'
loop_
_space_group_symop_operation_xyz
x,y,z
-x,-y,z
x,-y,-z
-x,y,-z
-x,-y,-z
x,y,-z
-x,y,z
x,-y,z
1/2+x,1/2+y,1/2+z
1/2-x,1/2-y,1/2+z
1/2+x,1/2-y,1/2-z
1/2-x,1/2+y,1/2-z
1/2-x,1/2-y,1/2-z
1/2+x,1/2+y,1/2-z
1/2-x,1/2+y,1/2+z
1/2+x,1/2-y,1/2+z
loop_
_atom_site_type_symbol
_atom_site_label
_atom_site_fract_x
_atom_site_fract_y
_atom_site_fract_z
Si Si1 0.105800 0.653855 0.295613
Si Si2 0.500000 0.584620 0.711463
Si Si3 0.778818 0.327496 0.789392
Si Si4 0.184619 0.916505 0.716360
Si Si5 0.941099 0.500000 0.283677
Si Si6 0.904964 0.814625 0.709749
O O1 0.088927 0.652413 0.500000
O O2 0.166143 0.662742 0.290317
O O3 0.086179 0.575751 0.219926
O O4 0.086282 0.731944 0.215765
O O5 0.500000 0.500000 0.780481
O O6 0.500000 0.581238 0.500000
O O7 0.451324 0.630438 0.768114
O O8 0.750000 0.250000 0.750000
O O9 0.740199 0.391600 0.730973
O O10 0.785228 0.331908 0.000000
O O11 0.183305 0.915728 0.500000
O O12 0.144411 0.856054 0.780962
O O13 0.171896 0.000000 0.773372
O O14 0.937980 0.500000 0.500000
O O15 0.000000 0.500000 0.237078
O O16 0.896152 0.804795 0.500000
#
# Coordination Sequence:
#
# PCOD9522513 Si02
#       6
#    16   8  16  16   8  16
#     4  10  21  38  60  89 119 151 200 249 297 353
#     4  11  25  41  57  84 121 148 180 235 299 353
#     4  11  21  36  58  84 119 157 195 239 293 354
#     4   9  18  33  54  81 112 147 189 234 277 336
#     4   9  20  38  63  89 119 159 205 260 309 356
#     4  10  20  37  62  85 109 149 200 241 279 344
#
# _framework density 22.161393
#
# number of rings (size 3 to 8) (size 9 to 14) (size 15 to 20)
#    0.000    2.000    2.000    1.500    2.800    2.400 
#    0.000    0.000    0.000    1.800    0.000    0.000 
#    0.000    0.000    0.000    0.000    0.000    0.000 
#
# Total GULP energy -223444.504282 kJ/mol
# GULP energy per Si atom -5586.112607 kJ/mol
# Density = 2.211095 g / cm^3
# Si number density = 22.161393 Si / 1000 Ang^3
#
#
#
# Elastic Constant Matrix: (Units=GPa)
#
#
# Indices 1 2 3 4 5 6 
#
# 1 100.4219 78.7205 -16.4723 0.0000 0.0000 0.0000
# 2 78.7205 236.0841 4.9380 0.0000 0.0000 0.0000
# 3 -16.4723 4.9380 55.9233 0.0000 0.0000 0.0000
# 4 0.0000 0.0000 0.0000 2.5575 0.0000 0.0000
# 5 0.0000 0.0000 0.0000 0.0000 20.9903 0.0000
# 6 0.0000 0.0000 0.0000 0.0000 0.0000 39.8276
#
#
#
# Elastic Compliance Matrix: (Units=1/GPa)
#
#
# Indices 1 2 3 4 5 6 
#
# 1 0.014643 -0.004982 0.004753 0.000000 0.000000 0.000000
# 2 -0.004982 0.005939 -0.001992 0.000000 0.000000 0.000000
# 3 0.004753 -0.001992 0.019458 0.000000 0.000000 0.000000
# 4 0.000000 0.000000 0.000000 0.391000 0.000000 0.000000
# 5 0.000000 0.000000 0.000000 0.000000 0.047641 0.000000
# 6 0.000000 0.000000 0.000000 0.000000 0.000000 0.025108
#
#
# Mechanical properties :
#
#
# Convention : Reuss Voigt Hill
#
# Bulk Modulus (GPa) = 28.09181 58.53353 43.31267
# Shear Modulus (GPa) = 9.61361 34.35797 21.98579
#
# Velocity S-wave (km/s) = 2.08505 3.94172 3.15314
# Velocity P-wave (km/s) = 4.30117 6.86920 5.73088
#
# Compressibility (1/GPa) = 0.03559757
#
# Stress axis : x y z
#
# Youngs Moduli (GPa) = 68.29185 168.38813 51.39400
#
# Poissons Ratio (x) = 0.83891 -0.24428
# Poissons Ratio (y) = 0.34023 0.10237
# Poissons Ratio (z) = -0.32459 0.33540
#
# Static dielectric constant tensor:
#      x y z
#    x 1.765490 0.000000 0.000000 
#    y 0.000000 1.837180 0.000000 
#    z 0.000000 0.000000 1.817000 
# 
# From -- ./inp_files/14578.got.cif
#   From: 2010.05.17/outbox.cif.g08.bks.cpg/sg71_8_cif.got.tgz:14578.got - 2010.06.03 16:22:01.
