data_PCOD9522217
_publ_section_title
;
Structure prediction by ZEFSAII (Michael W. Deem and Ramdas Pophale) SiO2 
 PCOD9522217
Probable space group: I M M M
;
_chemical_formula_sum "Si O2"
_cell_formula_units_Z 80
_cell_length_a 19.167691
_cell_length_b 8.615851
_cell_length_c 27.784534
_cell_angle_alpha 90.000000
_cell_angle_beta 90.000000
_cell_angle_gamma 90.000000
_cell_volume 4588.503809
_symmetry_space_group_name_H-M "I M M M"
_symmetry_group_IT_number 71
_symmetry_cell_setting 'orthorhombic'
loop_
_space_group_symop_operation_xyz
x,y,z
-x,-y,z
x,-y,-z
-x,y,-z
-x,-y,-z
x,y,-z
-x,y,z
x,-y,z
1/2+x,1/2+y,1/2+z
1/2-x,1/2-y,1/2+z
1/2+x,1/2-y,1/2-z
1/2-x,1/2+y,1/2-z
1/2-x,1/2-y,1/2-z
1/2+x,1/2+y,1/2-z
1/2-x,1/2+y,1/2+z
1/2+x,1/2-y,1/2+z
loop_
_atom_site_type_symbol
_atom_site_label
_atom_site_fract_x
_atom_site_fract_y
_atom_site_fract_z
Si Si1 0.284631 0.684039 0.896041
Si Si2 0.420783 0.186433 0.943315
Si Si3 0.077990 0.189035 0.847867
Si Si4 0.280159 0.686130 0.299523
Si Si5 0.849556 0.812373 0.946242
O O1 0.277658 0.500000 0.893599
O O2 0.361103 0.731755 0.913176
O O3 0.265628 0.756741 0.844518
O O4 0.227137 0.750610 0.933131
O O5 0.500000 0.229288 0.929625
O O6 0.414134 0.000000 0.938334
O O7 0.411998 0.222386 0.000000
O O8 0.140388 0.237395 0.812250
O O9 0.100625 0.235815 0.902084
O O10 0.000000 0.243175 0.836249
O O11 0.077143 0.000000 0.847354
O O12 0.279579 0.500000 0.298385
O O13 0.250000 0.750000 0.250000
O O14 0.847129 0.000000 0.945502
O O15 0.870684 0.763573 0.000000
#
# Coordination Sequence:
#
# PCOD9522217 Si02
#       5
#    16  16  16  16  16
#     4  11  21  32  49  73 101 133 169 209 249 296
#     4   9  18  33  52  73 100 135 171 209 257 307
#     4   8  15  29  50  76 102 127 160 204 249 290
#     4  10  20  36  57  77  98 127 164 208 257 307
#     4   9  17  29  47  72 102 136 170 203 242 290
#
# _framework density 17.434877
#
# number of rings (size 3 to 8) (size 9 to 14) (size 15 to 20)
#    0.000    2.600    0.000    4.800    0.000    4.000 
#    0.000    4.000    0.000   18.600    0.000    5.600 
#    0.000    0.000    0.000    0.000    0.000    0.000 
#
# Total GULP energy -223054.286315 kJ/mol
# GULP energy per Si atom -5576.357158 kJ/mol
# Density = 1.739519 g / cm^3
# Si number density = 17.434877 Si / 1000 Ang^3
#
#
#
# Elastic Constant Matrix: (Units=GPa)
#
#
# Indices 1 2 3 4 5 6 
#
# 1 138.6510 25.0493 69.0636 0.0000 0.0000 0.0000
# 2 25.0493 23.9899 24.0753 0.0000 0.0000 0.0000
# 3 69.0636 24.0753 107.6249 0.0000 0.0000 0.0000
# 4 0.0000 0.0000 0.0000 23.5131 0.0000 0.0000
# 5 0.0000 0.0000 0.0000 0.0000 9.9376 0.0000
# 6 0.0000 0.0000 0.0000 0.0000 0.0000 4.7754
#
#
#
# Elastic Compliance Matrix: (Units=1/GPa)
#
#
# Indices 1 2 3 4 5 6 
#
# 1 0.011188 -0.005773 -0.005888 0.000000 0.000000 0.000000
# 2 -0.005773 0.056730 -0.008985 0.000000 0.000000 0.000000
# 3 -0.005888 -0.008985 0.015080 0.000000 0.000000 0.000000
# 4 0.000000 0.000000 0.000000 0.042530 0.000000 0.000000
# 5 0.000000 0.000000 0.000000 0.000000 0.100628 0.000000
# 6 0.000000 0.000000 0.000000 0.000000 0.000000 0.209409
#
#
# Mechanical properties :
#
#
# Convention : Reuss Voigt Hill
#
# Bulk Modulus (GPa) = 23.97834 56.29358 40.13596
# Shear Modulus (GPa) = 10.18829 17.78371 13.98600
#
# Velocity S-wave (km/s) = 2.41998 3.19722 2.83536
# Velocity P-wave (km/s) = 4.64665 6.78142 5.81287
#
# Compressibility (1/GPa) = 0.04170431
#
# Stress axis : x y z
#
# Youngs Moduli (GPa) = 89.37869 17.62741 66.31280
#
# Poissons Ratio (x) = 0.10177 0.39046
# Poissons Ratio (y) = 0.51601 0.59585
# Poissons Ratio (z) = 0.52628 0.15839
#
# Static dielectric constant tensor:
#      x y z
#    x 1.596960 0.000000 0.000000 
#    y 0.000000 1.587250 0.000000 
#    z 0.000000 0.000000 1.577390 
# 
# From -- ./inp_files/8338.got.cif
#   From: 2010.05.17/outbox.cif.g08.bks.cpg/sg71_5_cif.got.tgz:8338.got - 2010.06.03 16:22:01.
