data_PCOD9522245
_publ_section_title
;
Structure prediction by ZEFSAII (Michael W. Deem and Ramdas Pophale) SiO2 
 PCOD9522245
Probable space group: I M M M
;
_chemical_formula_sum "Si O2"
_cell_formula_units_Z 96
_cell_length_a 15.245440
_cell_length_b 13.002335
_cell_length_c 26.464365
_cell_angle_alpha 90.000000
_cell_angle_beta 90.000000
_cell_angle_gamma 90.000000
_cell_volume 5245.933635
_symmetry_space_group_name_H-M "I M M M"
_symmetry_group_IT_number 71
_symmetry_cell_setting 'orthorhombic'
loop_
_space_group_symop_operation_xyz
x,y,z
-x,-y,z
x,-y,-z
-x,y,-z
-x,-y,-z
x,y,-z
-x,y,z
x,-y,z
1/2+x,1/2+y,1/2+z
1/2-x,1/2-y,1/2+z
1/2+x,1/2-y,1/2-z
1/2-x,1/2+y,1/2-z
1/2-x,1/2-y,1/2-z
1/2+x,1/2+y,1/2-z
1/2-x,1/2+y,1/2+z
1/2+x,1/2-y,1/2+z
loop_
_atom_site_type_symbol
_atom_site_label
_atom_site_fract_x
_atom_site_fract_y
_atom_site_fract_z
Si Si1 0.500000 0.620402 0.291939
Si Si2 0.096779 0.752543 0.654448
Si Si3 0.500000 0.381527 0.413821
Si Si4 0.823798 0.768796 0.056413
Si Si5 0.275052 0.120476 0.646515
Si Si6 0.141440 0.621146 0.442414
Si Si7 0.351117 0.779521 0.740888
O O1 0.500000 0.500000 0.276173
O O2 0.500000 0.622630 0.352821
O O3 0.585989 0.683546 0.273672
O O4 0.176991 0.833304 0.655349
O O5 0.101267 0.687023 0.603053
O O6 0.112500 0.683838 0.704886
O O7 0.000000 0.800085 0.658301
O O8 0.500000 0.500000 0.429403
O O9 0.585713 0.325707 0.434060
O O10 0.809661 0.682282 0.098223
O O11 0.744663 0.851013 0.060602
O O12 0.820337 0.725139 0.000000
O O13 0.340527 0.145373 0.693250
O O14 0.269839 0.000000 0.638454
O O15 0.112874 0.648216 0.500000
O O16 0.126457 0.500000 0.435507
O O17 0.250000 0.750000 0.750000
#
# Coordination Sequence:
#
# PCOD9522245 Si02
#       7
#     8  16   8  16  16  16  16
#     4  11  22  39  66  92 120 158 195 238 301 361
#     4  10  21  37  60  87 116 142 190 245 287 345
#     4  11  21  34  59  90 118 147 183 235 293 342
#     4  10  20  36  57  83 116 151 194 241 278 332
#     4  10  22  40  59  80 113 157 194 235 291 341
#     4   9  19  36  57  82 116 155 187 225 290 356
#     4  10  21  40  58  86 122 150 195 243 293 347
#
# _framework density 18.299889
#
# number of rings (size 3 to 8) (size 9 to 14) (size 15 to 20)
#    0.000    2.000    2.500    0.750    0.000    6.000 
#    0.000    2.500    0.000    1.000    0.000    4.667 
#    0.000    0.000    0.000    0.000    0.000    0.000 
#
# Total GULP energy -267559.784872 kJ/mol
# GULP energy per Si atom -5574.162185 kJ/mol
# Density = 1.825824 g / cm^3
# Si number density = 18.299889 Si / 1000 Ang^3
#
#
#
# Elastic Constant Matrix: (Units=GPa)
#
#
# Indices 1 2 3 4 5 6 
#
# 1 120.0601 35.6204 25.8714 0.0000 0.0000 0.0000
# 2 35.6204 92.1634 32.4464 0.0000 0.0000 0.0000
# 3 25.8714 32.4464 94.2149 0.0000 0.0000 0.0000
# 4 0.0000 0.0000 0.0000 4.3505 0.0000 0.0000
# 5 0.0000 0.0000 0.0000 0.0000 24.1118 0.0000
# 6 0.0000 0.0000 0.0000 0.0000 0.0000 3.8837
#
#
#
# Elastic Compliance Matrix: (Units=1/GPa)
#
#
# Indices 1 2 3 4 5 6 
#
# 1 0.009602 -0.003167 -0.001546 0.000000 0.000000 0.000000
# 2 -0.003167 0.013392 -0.003742 0.000000 0.000000 0.000000
# 3 -0.001546 -0.003742 0.012327 0.000000 0.000000 0.000000
# 4 0.000000 0.000000 0.000000 0.229859 0.000000 0.000000
# 5 0.000000 0.000000 0.000000 0.000000 0.041473 0.000000
# 6 0.000000 0.000000 0.000000 0.000000 0.000000 0.257488
#
#
# Mechanical properties :
#
#
# Convention : Reuss Voigt Hill
#
# Bulk Modulus (GPa) = 54.31640 54.92384 54.62012
# Shear Modulus (GPa) = 8.51515 20.63588 14.57552
#
# Velocity S-wave (km/s) = 2.15945 3.36169 2.82526
# Velocity P-wave (km/s) = 5.99694 6.71910 6.36827
#
# Compressibility (1/GPa) = 0.01841064
#
# Stress axis : x y z
#
# Youngs Moduli (GPa) = 104.14658 74.67311 81.12006
#
# Poissons Ratio (x) = 0.23647 0.12542
# Poissons Ratio (y) = 0.32980 0.30358
# Poissons Ratio (z) = 0.16102 0.27945
#
# Static dielectric constant tensor:
#      x y z
#    x 1.579390 0.000000 0.000000 
#    y 0.000000 1.575800 0.000000 
#    z 0.000000 0.000000 1.677980 
# 
# From -- ./inp_files/59835.got.cif
#   From: 2010.05.17/outbox.cif.g08.bks.cpg/sg71_30_cif.got.tgz:59835.got - 2010.06.03 16:22:01.
