data_PCOD9522392
_publ_section_title
;
Structure prediction by ZEFSAII (Michael W. Deem and Ramdas Pophale) SiO2 
 PCOD9522392
Probable space group: I M M M
;
_chemical_formula_sum "Si O2"
_cell_formula_units_Z 100
_cell_length_a 7.525674
_cell_length_b 30.044643
_cell_length_c 21.176734
_cell_angle_alpha 90.000000
_cell_angle_beta 90.000000
_cell_angle_gamma 90.000000
_cell_volume 4788.190613
_symmetry_space_group_name_H-M "I M M M"
_symmetry_group_IT_number 71
_symmetry_cell_setting 'orthorhombic'
loop_
_space_group_symop_operation_xyz
x,y,z
-x,-y,z
x,-y,-z
-x,y,-z
-x,-y,-z
x,y,-z
-x,y,z
x,-y,z
1/2+x,1/2+y,1/2+z
1/2-x,1/2-y,1/2+z
1/2+x,1/2-y,1/2-z
1/2-x,1/2+y,1/2-z
1/2-x,1/2-y,1/2-z
1/2+x,1/2+y,1/2-z
1/2-x,1/2+y,1/2+z
1/2+x,1/2-y,1/2+z
loop_
_atom_site_type_symbol
_atom_site_label
_atom_site_fract_x
_atom_site_fract_y
_atom_site_fract_z
Si Si1 0.296087 0.694580 0.320342
Si Si2 0.706846 0.857688 0.569100
Si Si3 0.285118 0.449676 0.270254
Si Si4 0.783898 0.110498 0.109441
Si Si5 0.500000 0.091292 0.000000
Si Si6 0.706262 0.293572 0.181396
Si Si7 0.784990 0.949387 0.372759
O O1 0.500000 0.679776 0.313050
O O2 0.229540 0.661454 0.373936
O O3 0.217509 0.691339 0.249435
O O4 0.289255 0.746424 0.337988
O O5 0.783318 0.847026 0.500000
O O6 0.500000 0.845994 0.568284
O O7 0.784203 0.830503 0.627709
O O8 0.723732 0.910185 0.582136
O O9 0.500000 0.450505 0.266983
O O10 0.225682 0.500000 0.284783
O O11 0.242922 0.416138 0.325904
O O12 0.225651 0.438636 0.199137
O O13 0.658036 0.092771 0.054775
O O14 0.000000 0.106982 0.096324
O O15 0.500000 0.282827 0.192599
O O16 0.000000 0.949072 0.373722
O O17 0.728802 0.000000 0.387793
#
# Coordination Sequence:
#
# PCOD9522392 Si02
#       7
#    16  16  16  16   4  16  16
#     4   9  19  37  61  87 114 145 185 238 304 352
#     4  11  24  39  52  75 118 163 196 228 283 351
#     4   8  15  33  62  90 115 147 188 237 301 356
#     4  10  21  40  61  83 120 161 195 247 297 349
#     4  12  26  40  57  88 120 156 214 234 281 374
#     4  10  20  36  61  89 112 140 190 248 293 348
#     4   9  18  35  61  89 113 143 191 245 291 342
#
# _framework density 20.884715
#
# number of rings (size 3 to 8) (size 9 to 14) (size 15 to 20)
#    0.000    2.400    0.000    3.120    1.120    5.120 
#    5.760    2.800    0.000    1.920    0.000    0.000 
#    0.000    0.000    0.000    0.000    0.000    0.000 
#
# Total GULP energy -278351.285583 kJ/mol
# GULP energy per Si atom -5567.025712 kJ/mol
# Density = 2.083718 g / cm^3
# Si number density = 20.884715 Si / 1000 Ang^3
#
#
#
# Elastic Constant Matrix: (Units=GPa)
#
#
# Indices 1 2 3 4 5 6 
#
# 1 75.2670 -4.5761 7.1989 0.0000 0.0000 0.0000
# 2 -4.5761 49.0083 25.1660 0.0000 0.0000 0.0000
# 3 7.1989 25.1660 57.8752 0.0000 0.0000 0.0000
# 4 0.0000 0.0000 0.0000 -0.1013 0.0000 0.0000
# 5 0.0000 0.0000 0.0000 0.0000 -17.0298 0.0000
# 6 0.0000 0.0000 0.0000 0.0000 0.0000 -15.2321
#
#
#
# Elastic Compliance Matrix: (Units=1/GPa)
#
#
# Indices 1 2 3 4 5 6 
#
# 1 0.013734 0.002780 -0.002917 0.000000 0.000000 0.000000
# 2 0.002780 0.026834 -0.012014 0.000001 0.000000 0.000000
# 3 -0.002917 -0.012014 0.022865 -0.000001 0.000000 0.000000
# 4 0.000000 0.000001 -0.000001 -9.868684 -0.000007 0.000001
# 5 0.000000 0.000000 0.000000 -0.000007 -0.058721 0.000000
# 6 0.000000 0.000000 0.000000 0.000001 0.000000 -0.065651
#
#
# Mechanical properties :
#
#
# Convention : Reuss Voigt Hill
#
# Bulk Modulus (GPa) = 25.55489 26.41425 25.98457
# Shear Modulus (GPa) = -0.50544 3.81815 1.65635
#
# Velocity S-wave (km/s) = -0.49249 1.35358 0.89152
# Velocity P-wave (km/s) = 3.45534 3.88819 3.67813
#
# Compressibility (1/GPa) = 0.03913146
#
# Stress axis : x y z
#
# Youngs Moduli (GPa) = 72.81138 37.26682 43.73408
#
# Poissons Ratio (x) = -0.10362 0.12759
# Poissons Ratio (y) = -0.20245 0.52542
# Poissons Ratio (z) = 0.21242 0.44772
#
# Static dielectric constant tensor:
#      x y z
#    x 1.813590 0.000000 0.000000 
#    y 0.000000 1.751230 0.000000 
#    z 0.000000 0.000000 1.742780 
# 
# From -- ./inp_files/50882.got.cif
#   From: 2010.05.17/outbox.cif.g08.bks.cpg/sg71_26_cif.got.tgz:50882.got - 2010.06.03 16:22:01.
