data_PCOD9522328
_publ_section_title
;
Structure prediction by ZEFSAII (Michael W. Deem and Ramdas Pophale) SiO2 
 PCOD9522328
Probable space group: I M M M
;
_chemical_formula_sum "Si O2"
_cell_formula_units_Z 56
_cell_length_a 8.416193
_cell_length_b 12.061932
_cell_length_c 26.490101
_cell_angle_alpha 90.000000
_cell_angle_beta 90.000000
_cell_angle_gamma 90.000000
_cell_volume 2689.157111
_symmetry_space_group_name_H-M "I M M M"
_symmetry_group_IT_number 71
_symmetry_cell_setting 'orthorhombic'
loop_
_space_group_symop_operation_xyz
x,y,z
-x,-y,z
x,-y,-z
-x,y,-z
-x,-y,-z
x,y,-z
-x,y,z
x,-y,z
1/2+x,1/2+y,1/2+z
1/2-x,1/2-y,1/2+z
1/2+x,1/2-y,1/2-z
1/2-x,1/2+y,1/2-z
1/2-x,1/2-y,1/2-z
1/2+x,1/2+y,1/2-z
1/2-x,1/2+y,1/2+z
1/2+x,1/2-y,1/2+z
loop_
_atom_site_type_symbol
_atom_site_label
_atom_site_fract_x
_atom_site_fract_y
_atom_site_fract_z
Si Si1 0.682003 0.500000 0.780502
Si Si2 0.194457 0.627065 0.500000
Si Si3 0.809064 0.760622 0.401971
Si Si4 0.683621 0.000000 0.610672
Si Si5 0.314952 0.874297 0.192797
O O1 0.500000 0.500000 0.797093
O O2 0.792516 0.500000 0.828789
O O3 0.718868 0.394716 0.744350
O O4 0.244577 0.500000 0.500000
O O5 0.247581 0.689382 0.550550
O O6 0.000000 0.629178 0.500000
O O7 0.751260 0.710721 0.348476
O O8 0.000000 0.750816 0.399665
O O9 0.763430 0.887714 0.408277
O O10 0.500000 0.000000 0.597493
O O11 0.500000 0.850421 0.204618
O O12 0.312746 0.000000 0.169445
#
# Coordination Sequence:
#
# PCOD9522328 Si02
#       5
#     8   8  16   8  16
#     4  10  20  36  59  86 115 152 200 244 291 348
#     4   9  18  35  67 102 120 141 184 241 296 343
#     4  10  20  37  62  89 120 154 195 241 286 345
#     4  12  26  41  55  78 118 163 204 240 288 348
#     4   8  16  33  57  86 117 149 186 237 294 342
#
# _framework density 20.824368
#
# number of rings (size 3 to 8) (size 9 to 14) (size 15 to 20)
#    0.857    1.571    0.000    3.000    0.000    6.286 
#    0.000    3.571    0.000    0.857    0.000    0.000 
#    0.000    0.000    0.000    0.000    0.000    0.000 
#
# Total GULP energy -156238.754923 kJ/mol
# GULP energy per Si atom -5579.955533 kJ/mol
# Density = 2.077697 g / cm^3
# Si number density = 20.824368 Si / 1000 Ang^3
#
#
#
# Elastic Constant Matrix: (Units=GPa)
#
#
# Indices 1 2 3 4 5 6 
#
# 1 10.2821 -11.4310 -3.6409 0.0000 0.0000 0.0000
# 2 -11.4310 116.1535 45.1146 0.0000 0.0000 0.0000
# 3 -3.6409 45.1146 78.8440 0.0000 0.0000 0.0000
# 4 0.0000 0.0000 0.0000 13.5665 0.0000 0.0000
# 5 0.0000 0.0000 0.0000 0.0000 14.3363 0.0000
# 6 0.0000 0.0000 0.0000 0.0000 0.0000 17.0172
#
#
#
# Elastic Compliance Matrix: (Units=1/GPa)
#
#
# Indices 1 2 3 4 5 6 
#
# 1 0.109329 0.011313 -0.001424 0.000000 0.000000 0.000000
# 2 0.011313 0.012240 -0.006481 0.000000 0.000000 0.000000
# 3 -0.001424 -0.006481 0.016326 0.000000 0.000000 0.000000
# 4 0.000000 0.000000 0.000000 0.073711 0.000000 0.000000
# 5 0.000000 0.000000 0.000000 0.000000 0.069753 0.000000
# 6 0.000000 0.000000 0.000000 0.000000 0.000000 0.058764
#
#
# Mechanical properties :
#
#
# Convention : Reuss Voigt Hill
#
# Bulk Modulus (GPa) = 6.91044 29.48499 18.19772
# Shear Modulus (GPa) = 13.10461 20.66648 16.88555
#
# Velocity S-wave (km/s) = 2.51129 3.15368 2.85064
# Velocity P-wave (km/s) = 3.42555 5.23933 4.42634
#
# Compressibility (1/GPa) = 0.14470852
#
# Stress axis : x y z
#
# Youngs Moduli (GPa) = 9.14673 81.69937 61.25159
#
# Poissons Ratio (x) = -0.92424 0.08725
# Poissons Ratio (y) = -0.10347 0.39699
# Poissons Ratio (z) = 0.01303 0.52952
#
# Static dielectric constant tensor:
#      x y z
#    x 1.717620 0.000000 0.000000 
#    y 0.000000 1.773810 0.000000 
#    z 0.000000 0.000000 1.744640 
# 
# From -- ./inp_files/67672.got.cif
#   From: 2010.05.17/outbox.cif.g08.bks.cpg/sg71_34_cif.got.tgz:67672.got - 2010.06.03 16:22:01.
