data_PCOD9522711
_publ_section_title
;
Structure prediction by ZEFSAII (Michael W. Deem and Ramdas Pophale) SiO2 
 PCOD9522711
Probable space group: I M M M
;
_chemical_formula_sum "Si O2"
_cell_formula_units_Z 112
_cell_length_a 20.355631
_cell_length_b 31.907409
_cell_length_c 7.393353
_cell_angle_alpha 90.000000
_cell_angle_beta 90.000000
_cell_angle_gamma 90.000000
_cell_volume 4801.949088
_symmetry_space_group_name_H-M "I M M M"
_symmetry_group_IT_number 71
_symmetry_cell_setting 'orthorhombic'
loop_
_space_group_symop_operation_xyz
x,y,z
-x,-y,z
x,-y,-z
-x,y,-z
-x,-y,-z
x,y,-z
-x,y,z
x,-y,z
1/2+x,1/2+y,1/2+z
1/2-x,1/2-y,1/2+z
1/2+x,1/2-y,1/2-z
1/2-x,1/2+y,1/2-z
1/2-x,1/2-y,1/2-z
1/2+x,1/2+y,1/2-z
1/2-x,1/2+y,1/2+z
1/2+x,1/2-y,1/2+z
loop_
_atom_site_type_symbol
_atom_site_label
_atom_site_fract_x
_atom_site_fract_y
_atom_site_fract_z
Si Si1 0.298577 0.789958 0.716125
Si Si2 0.923474 0.451577 0.219953
Si Si3 0.421228 0.346070 0.702914
Si Si4 0.425065 0.743310 0.721361
Si Si5 0.072115 0.938828 0.294954
Si Si6 0.712030 0.455786 0.779226
Si Si7 0.810573 0.614378 0.778886
O O1 0.298344 0.792999 0.500000
O O2 0.250000 0.750000 0.750000
O O3 0.371502 0.776491 0.776914
O O4 0.292960 0.838186 0.781855
O O5 0.906567 0.500000 0.275882
O O6 0.875471 0.413036 0.276109
O O7 0.000000 0.444320 0.270117
O O8 0.920326 0.452099 0.000000
O O9 0.395162 0.351426 0.500000
O O10 0.500000 0.339785 0.690192
O O11 0.398500 0.302269 0.782220
O O12 0.413789 0.389183 0.803396
O O13 0.426205 0.741436 0.500000
O O14 0.500000 0.750759 0.779884
O O15 0.067891 0.954216 0.500000
O O16 0.137650 0.956155 0.210330
O O17 0.000000 0.945022 0.211022
O O18 0.744554 0.500000 0.732741
O O19 0.751393 0.415649 0.720872
O O20 0.709074 0.453890 0.000000
O O21 0.813270 0.615753 0.000000
#
# Coordination Sequence:
#
# PCOD9522711 Si02
#       7
#    16  16  16  16  16  16  16
#     4  10  21  34  49  71  99 130 164 204 246 288
#     4   8  13  22  39  65  96 126 154 190 241 297
#     4   8  14  26  44  63  83 112 148 182 220 268
#     4   8  15  29  48  68  90 120 160 199 233 275
#     4   9  17  27  41  64  89 112 145 189 230 263
#     4   9  17  28  42  60  85 118 150 183 228 278
#     4   9  17  28  42  62  90 124 158 190 229 284
#
# _framework density 23.323864
#
# number of rings (size 3 to 8) (size 9 to 14) (size 15 to 20)
#    0.000    3.286    0.000    1.714    2.000    2.571 
#    0.000    4.286    0.000    0.857    0.000    2.000 
#    0.000    1.714    0.000    1.571    0.000    2.429 
#
# Total GULP energy -311935.901014 kJ/mol
# GULP energy per Si atom -5570.283947 kJ/mol
# Density = 2.327078 g / cm^3
# Si number density = 23.323864 Si / 1000 Ang^3
#
#
#
# Elastic Constant Matrix: (Units=GPa)
#
#
# Indices 1 2 3 4 5 6 
#
# 1 143.3459 100.2006 4.3361 0.0002 0.0000 0.0000
# 2 100.2006 240.4152 13.9671 -0.0001 0.0000 0.0000
# 3 4.3361 13.9671 80.3231 0.0026 0.0005 -0.0002
# 4 0.0002 -0.0001 0.0026 -37.3379 0.0007 0.0001
# 5 0.0000 0.0000 0.0005 0.0007 -5.0679 -0.0001
# 6 0.0000 0.0000 -0.0002 0.0001 -0.0001 36.5281
#
#
#
# Elastic Compliance Matrix: (Units=1/GPa)
#
#
# Indices 1 2 3 4 5 6 
#
# 1 0.009847 -0.004115 0.000184 0.000000 0.000000 0.000000
# 2 -0.004115 0.005921 -0.000808 0.000000 0.000000 0.000000
# 3 0.000184 -0.000808 0.012580 0.000001 0.000001 0.000000
# 4 0.000000 0.000000 0.000001 -0.026782 -0.000004 0.000000
# 5 0.000000 0.000000 0.000001 -0.000004 -0.197319 0.000000
# 6 0.000000 0.000000 0.000000 0.000000 0.000000 0.027376
#
#
# Mechanical properties :
#
#
# Convention : Reuss Voigt Hill
#
# Bulk Modulus (GPa) = 52.98909 77.89907 65.44408
# Shear Modulus (GPa) = -32.76334 21.86315 -5.45009
#
# Velocity S-wave (km/s) = -3.75202 3.06498 -1.53029
# Velocity P-wave (km/s) = 1.99950 6.78209 4.99974
#
# Compressibility (1/GPa) = 0.01887181
#
# Stress axis : x y z
#
# Youngs Moduli (GPa) = 101.55638 168.88223 79.48994
#
# Poissons Ratio (x) = 0.69489 -0.01462
# Poissons Ratio (y) = 0.41787 0.06419
# Poissons Ratio (z) = -0.01868 0.13637
#
# Static dielectric constant tensor:
#      x y z
#    x 1.881290 0.000000 0.000000 
#    y 0.000000 1.920090 0.000000 
#    z 0.000000 0.000000 1.917350 
# 
# From -- ./inp_files/26482.got.cif
#   From: 2010.05.17/outbox.cif.g08.bks.cpg/sg71_14_cif.got.tgz:26482.got - 2010.06.03 16:22:01.
