data_PCOD9522341
_publ_section_title
;
Structure prediction by ZEFSAII (Michael W. Deem and Ramdas Pophale) SiO2 
 PCOD9522341
Probable space group: I M M M
;
_chemical_formula_sum "Si O2"
_cell_formula_units_Z 72
_cell_length_a 15.835571
_cell_length_b 8.522160
_cell_length_c 27.418597
_cell_angle_alpha 90.000000
_cell_angle_beta 90.000000
_cell_angle_gamma 90.000000
_cell_volume 3700.229317
_symmetry_space_group_name_H-M "I M M M"
_symmetry_group_IT_number 71
_symmetry_cell_setting 'orthorhombic'
loop_
_space_group_symop_operation_xyz
x,y,z
-x,-y,z
x,-y,-z
-x,y,-z
-x,-y,-z
x,y,-z
-x,y,z
x,-y,z
1/2+x,1/2+y,1/2+z
1/2-x,1/2-y,1/2+z
1/2+x,1/2-y,1/2-z
1/2-x,1/2+y,1/2-z
1/2-x,1/2-y,1/2-z
1/2+x,1/2+y,1/2-z
1/2-x,1/2+y,1/2+z
1/2+x,1/2-y,1/2+z
loop_
_atom_site_type_symbol
_atom_site_label
_atom_site_fract_x
_atom_site_fract_y
_atom_site_fract_z
Si Si1 0.663688 0.686892 0.773435
Si Si2 0.176678 0.309915 0.056479
Si Si3 0.000000 0.691057 0.896031
Si Si4 0.500000 0.191192 0.944115
Si Si5 0.835506 0.311631 0.383266
Si Si6 0.000000 0.688578 0.783144
O O1 0.663507 0.500000 0.771109
O O2 0.750000 0.750000 0.750000
O O3 0.659341 0.741393 0.829382
O O4 0.583326 0.751746 0.744119
O O5 0.180084 0.500000 0.058912
O O6 0.085321 0.259389 0.076753
O O7 0.250814 0.241712 0.089558
O O8 0.186967 0.263750 0.000000
O O9 0.000000 0.740670 0.839620
O O10 0.000000 0.500000 0.896509
O O11 0.583798 0.239789 0.915249
O O12 0.500000 0.000000 0.945114
O O13 0.500000 0.245958 0.000000
O O14 0.836953 0.500000 0.379576
O O15 0.000000 0.500000 0.782275
#
# Coordination Sequence:
#
# PCOD9522341 Si02
#       6
#    16  16   8   8  16   8
#     4  12  25  42  63  89 122 160 205 255 308 365
#     4  10  20  36  59  87 119 156 199 245 294 352
#     4   9  19  36  59  84 114 155 197 237 286 352
#     4   9  19  36  58  84 116 155 196 237 286 350
#     4  11  22  38  61  87 117 155 200 249 303 361
#     4  11  22  39  63  91 124 163 205 248 302 365
#
# _framework density 19.458254
#
# number of rings (size 3 to 8) (size 9 to 14) (size 15 to 20)
#    0.000    1.444    0.000    6.000    0.000    5.333 
#    0.000    3.333    0.000    5.333    0.000    0.000 
#    0.000    0.000    0.000    0.000    0.000    0.000 
#
# Total GULP energy -201362.164610 kJ/mol
# GULP energy per Si atom -5593.393461 kJ/mol
# Density = 1.941397 g / cm^3
# Si number density = 19.458254 Si / 1000 Ang^3
#
#
#
# Elastic Constant Matrix: (Units=GPa)
#
#
# Indices 1 2 3 4 5 6 
#
# 1 77.5533 8.1836 -15.0686 0.0000 0.0000 0.0000
# 2 8.1836 60.6639 15.0936 0.0000 0.0000 0.0000
# 3 -15.0686 15.0936 78.1320 0.0000 0.0000 0.0000
# 4 0.0000 0.0000 0.0000 28.6376 0.0000 0.0000
# 5 0.0000 0.0000 0.0000 0.0000 46.6293 0.0000
# 6 0.0000 0.0000 0.0000 0.0000 0.0000 35.9936
#
#
#
# Elastic Compliance Matrix: (Units=1/GPa)
#
#
# Indices 1 2 3 4 5 6 
#
# 1 0.013790 -0.002649 0.003171 0.000000 0.000000 0.000000
# 2 -0.002649 0.017826 -0.003955 0.000000 0.000000 0.000000
# 3 0.003171 -0.003955 0.014174 0.000000 0.000000 0.000000
# 4 0.000000 0.000000 0.000000 0.034919 0.000000 0.000000
# 5 0.000000 0.000000 0.000000 0.000000 0.021446 0.000000
# 6 0.000000 0.000000 0.000000 0.000000 0.000000 0.027783
#
#
# Mechanical properties :
#
#
# Convention : Reuss Voigt Hill
#
# Bulk Modulus (GPa) = 25.69034 25.86293 25.77664
# Shear Modulus (GPa) = 33.38278 36.12812 34.75545
#
# Velocity S-wave (km/s) = 4.14649 4.31362 4.23088
# Velocity P-wave (km/s) = 6.01298 6.17496 6.09451
#
# Compressibility (1/GPa) = 0.03892514
#
# Stress axis : x y z
#
# Youngs Moduli (GPa) = 72.51567 56.09915 70.54956
#
# Poissons Ratio (x) = 0.14863 -0.22374
# Poissons Ratio (y) = 0.19212 0.27899
# Poissons Ratio (z) = -0.22997 0.22185
#
# Static dielectric constant tensor:
#      x y z
#    x 1.638330 0.000000 0.000000 
#    y 0.000000 1.670780 0.000000 
#    z 0.000000 0.000000 1.647030 
# 
# From -- ./inp_files/6178.got.cif
#   From: 2010.05.17/outbox.cif.g08.bks.cpg/sg71_4_cif.got.tgz:6178.got - 2010.06.03 16:22:01.
