data_PCOD9522843
_publ_section_title
;
Structure prediction by ZEFSAII (Michael W. Deem and Ramdas Pophale) SiO2 
 PCOD9522843
Probable space group: I M M M
;
_chemical_formula_sum "Si O2"
_cell_formula_units_Z 88
_cell_length_a 12.400510
_cell_length_b 12.531972
_cell_length_c 31.035606
_cell_angle_alpha 90.000000
_cell_angle_beta 90.000000
_cell_angle_gamma 90.000000
_cell_volume 4823.021441
_symmetry_space_group_name_H-M "I M M M"
_symmetry_group_IT_number 71
_symmetry_cell_setting 'orthorhombic'
loop_
_space_group_symop_operation_xyz
x,y,z
-x,-y,z
x,-y,-z
-x,y,-z
-x,-y,-z
x,y,-z
-x,y,z
x,-y,z
1/2+x,1/2+y,1/2+z
1/2-x,1/2-y,1/2+z
1/2+x,1/2-y,1/2-z
1/2-x,1/2+y,1/2-z
1/2-x,1/2-y,1/2-z
1/2+x,1/2+y,1/2-z
1/2-x,1/2+y,1/2+z
1/2+x,1/2-y,1/2+z
loop_
_atom_site_type_symbol
_atom_site_label
_atom_site_fract_x
_atom_site_fract_y
_atom_site_fract_z
Si Si1 0.620459 0.000000 0.810974
Si Si2 0.225080 0.198262 0.088122
Si Si3 0.877764 0.126310 0.551691
Si Si4 0.876565 0.500000 0.415322
Si Si5 0.732746 0.299061 0.309953
Si Si6 0.000000 0.123641 0.948542
Si Si7 0.879148 0.127390 0.729797
O O1 0.616460 0.000000 0.863151
O O2 0.683184 0.893560 0.798374
O O3 0.500000 0.000000 0.793784
O O4 0.286392 0.305854 0.074934
O O5 0.209952 0.192753 0.139639
O O6 0.108856 0.180207 0.067235
O O7 0.306377 0.103701 0.073242
O O8 0.869566 0.141317 0.500000
O O9 0.000000 0.159310 0.564713
O O10 0.867776 0.000000 0.560148
O O11 0.000000 0.500000 0.431808
O O12 0.790472 0.188184 0.298501
O O13 0.635077 0.323932 0.277754
O O14 0.000000 0.000000 0.932925
O O15 0.000000 0.122058 0.000000
O O16 0.000000 0.149277 0.713528
O O17 0.864350 0.000000 0.730935
#
# Coordination Sequence:
#
# PCOD9522843 Si02
#       7
#     8  16  16   8  16   8  16
#     4   9  16  30  50  74 109 146 183 233 284 341
#     4  11  21  37  59  85 120 155 199 247 291 357
#     4   9  19  37  61  88 117 150 189 239 300 359
#     4   9  18  31  51  84 115 147 191 244 298 348
#     4  10  21  35  54  84 111 147 196 237 285 345
#     4  11  24  40  59  87 125 165 202 243 297 353
#     4  10  21  37  57  81 115 150 188 238 291 345
#
# _framework density 18.245823999999999
#
# number of rings (size 3 to 8) (size 9 to 14) (size 15 to 20)
#    0.000    2.091    1.818    2.182    1.273    2.909 
#    0.000    2.273    0.000    3.818    0.000    0.000 
#    0.000    0.000    0.000    0.000    0.000    0.000 
#
# Total GULP energy -245483.731092 kJ/mol
# GULP energy per Si atom -5579.175707 kJ/mol
# Density = 1.820430 g / cm^3
# Si number density = 18.245824 Si / 1000 Ang^3
#
#
#
# Elastic Constant Matrix: (Units=GPa)
#
#
# Indices 1 2 3 4 5 6 
#
# 1 112.0342 35.9824 25.6137 0.0000 0.0000 0.0000
# 2 35.9824 67.4341 16.4144 0.0000 0.0000 0.0000
# 3 25.6137 16.4144 44.0410 0.0000 0.0000 0.0000
# 4 0.0000 0.0000 0.0000 20.4067 0.0000 0.0000
# 5 0.0000 0.0000 0.0000 0.0000 15.6895 0.0000
# 6 0.0000 0.0000 0.0000 0.0000 0.0000 27.0236
#
#
#
# Elastic Compliance Matrix: (Units=1/GPa)
#
#
# Indices 1 2 3 4 5 6 
#
# 1 0.011663 -0.005028 -0.004909 0.000000 0.000000 0.000000
# 2 -0.005028 0.018477 -0.003962 0.000000 0.000000 0.000000
# 3 -0.004909 -0.003962 0.027038 0.000000 0.000000 0.000000
# 4 0.000000 0.000000 0.000000 0.049004 0.000000 0.000000
# 5 0.000000 0.000000 0.000000 0.000000 0.063737 0.000000
# 6 0.000000 0.000000 0.000000 0.000000 0.000000 0.037005
#
#
# Mechanical properties :
#
#
# Convention : Reuss Voigt Hill
#
# Bulk Modulus (GPa) = 34.03801 42.17003 38.10402
# Shear Modulus (GPa) = 20.44868 22.32389 21.38629
#
# Velocity S-wave (km/s) = 3.35137 3.50166 3.42734
# Velocity P-wave (km/s) = 5.80269 6.28579 6.04907
#
# Compressibility (1/GPa) = 0.02937892
#
# Stress axis : x y z
#
# Youngs Moduli (GPa) = 85.73989 54.12180 36.98531
#
# Poissons Ratio (x) = 0.27215 0.18156
# Poissons Ratio (y) = 0.43114 0.14653
# Poissons Ratio (z) = 0.42090 0.21443
#
# Static dielectric constant tensor:
#      x y z
#    x 1.617010 0.000000 0.000000 
#    y 0.000000 1.621160 0.000000 
#    z 0.000000 0.000000 1.617610 
# 
# From -- ./inp_files/69105.got.cif
#   From: 2010.05.17/outbox.cif.g08.bks.cpg/sg71_35_cif.got.tgz:69105.got - 2010.06.03 16:22:01.
