data_PCOD9522372
_publ_section_title
;
Structure prediction by ZEFSAII (Michael W. Deem and Ramdas Pophale) SiO2 
 PCOD9522372
Probable space group: I M M M
;
_chemical_formula_sum "Si O2"
_cell_formula_units_Z 104
_cell_length_a 29.247580
_cell_length_b 8.166336
_cell_length_c 21.986314
_cell_angle_alpha 90.000000
_cell_angle_beta 90.000000
_cell_angle_gamma 90.000000
_cell_volume 5251.333600
_symmetry_space_group_name_H-M "I M M M"
_symmetry_group_IT_number 71
_symmetry_cell_setting 'orthorhombic'
loop_
_space_group_symop_operation_xyz
x,y,z
-x,-y,z
x,-y,-z
-x,y,-z
-x,-y,-z
x,y,-z
-x,y,z
x,-y,z
1/2+x,1/2+y,1/2+z
1/2-x,1/2-y,1/2+z
1/2+x,1/2-y,1/2-z
1/2-x,1/2+y,1/2-z
1/2-x,1/2-y,1/2-z
1/2+x,1/2+y,1/2-z
1/2-x,1/2+y,1/2+z
1/2+x,1/2-y,1/2+z
loop_
_atom_site_type_symbol
_atom_site_label
_atom_site_fract_x
_atom_site_fract_y
_atom_site_fract_z
Si Si1 0.948266 0.000000 0.073756
Si Si2 0.364926 0.198231 0.203057
Si Si3 0.315174 0.194090 0.675718
Si Si4 0.704958 0.693377 0.000000
Si Si5 0.386431 0.810235 0.427668
Si Si6 0.777972 0.307331 0.370286
Si Si7 0.899830 0.200539 0.500000
Si Si8 0.052002 0.197181 0.625247
O O1 0.922028 0.832264 0.090052
O O2 0.000000 0.000000 0.097043
O O3 0.949973 0.000000 0.000000
O O4 0.347641 0.252215 0.269500
O O5 0.325374 0.259826 0.156986
O O6 0.413807 0.255399 0.179330
O O7 0.365441 0.000000 0.202755
O O8 0.341491 0.219093 0.612358
O O9 0.265185 0.270350 0.672033
O O10 0.308648 0.000000 0.684176
O O11 0.729422 0.743440 0.938109
O O12 0.701335 0.500000 0.000000
O O13 0.652710 0.759646 0.000000
O O14 0.377862 0.796935 0.500000
O O15 0.401418 0.000000 0.416001
O O16 0.783451 0.500000 0.374135
O O17 0.925720 0.253716 0.438711
O O18 0.899500 0.000000 0.500000
O O19 0.000000 0.257184 0.632096
O O20 0.050473 0.000000 0.622520
#
# Coordination Sequence:
#
# PCOD9522372 Si02
#       8
#     8  16  16   8  16  16   8  16
#     4   9  18  34  58  86 116 148 184 233 294 356
#     4  10  22  40  58  80 117 157 195 241 293 356
#     4  10  22  39  59  82 113 156 198 235 292 360
#     4  11  21  36  59  85 118 162 198 240 298 355
#     4   9  19  36  58  85 116 149 191 244 298 356
#     4  11  23  37  57  87 118 151 195 246 295 348
#     4   9  17  33  58  85 115 153 195 245 300 346
#     4  10  20  36  60  88 116 151 200 252 299 352
#
# _framework density 19.804493000000001
#
# number of rings (size 3 to 8) (size 9 to 14) (size 15 to 20)
#    0.000    2.077    1.538    1.385    2.154    2.769 
#    0.000    2.692    0.000    3.692    0.000    0.000 
#    0.000    0.000    0.000    0.000    0.000    0.000 
#
# Total GULP energy -290214.397825 kJ/mol
# GULP energy per Si atom -5581.046112 kJ/mol
# Density = 1.975942 g / cm^3
# Si number density = 19.804493 Si / 1000 Ang^3
#
#
#
# Elastic Constant Matrix: (Units=GPa)
#
#
# Indices 1 2 3 4 5 6 
#
# 1 105.3432 19.3564 45.3260 0.0000 0.0000 0.0000
# 2 19.3564 34.2895 11.7478 0.0000 0.0000 0.0000
# 3 45.3260 11.7478 87.2555 0.0000 0.0000 0.0000
# 4 0.0000 0.0000 0.0000 14.8586 0.0000 0.0000
# 5 0.0000 0.0000 0.0000 0.0000 24.2011 0.0000
# 6 0.0000 0.0000 0.0000 0.0000 0.0000 27.5797
#
#
#
# Elastic Compliance Matrix: (Units=1/GPa)
#
#
# Indices 1 2 3 4 5 6 
#
# 1 0.013084 -0.005302 -0.006083 0.000000 0.000000 0.000000
# 2 -0.005302 0.032722 -0.001651 0.000000 0.000000 0.000000
# 3 -0.006083 -0.001651 0.014843 0.000000 0.000000 0.000000
# 4 0.000000 0.000000 0.000000 0.067301 0.000000 0.000000
# 5 0.000000 0.000000 0.000000 0.000000 0.041320 0.000000
# 6 0.000000 0.000000 0.000000 0.000000 0.000000 0.036258
#
#
# Mechanical properties :
#
#
# Convention : Reuss Voigt Hill
#
# Bulk Modulus (GPa) = 28.92133 42.19431 35.55782
# Shear Modulus (GPa) = 20.56532 23.35842 21.96187
#
# Velocity S-wave (km/s) = 3.22594 3.43804 3.33368
# Velocity P-wave (km/s) = 5.33954 6.09195 5.72811
#
# Compressibility (1/GPa) = 0.03457656
#
# Stress axis : x y z
#
# Youngs Moduli (GPa) = 76.42734 30.56022 67.37267
#
# Poissons Ratio (x) = 0.16203 0.40983
# Poissons Ratio (y) = 0.40522 0.11126
# Poissons Ratio (z) = 0.46491 0.05047
#
# Static dielectric constant tensor:
#      x y z
#    x 1.683110 0.000000 0.000000 
#    y 0.000000 1.698260 0.000000 
#    z 0.000000 0.000000 1.609640 
# 
# From -- ./inp_files/56327.got.cif
#   From: 2010.05.17/outbox.cif.g08.bks.cpg/sg71_29_cif.got.tgz:56327.got - 2010.06.03 16:22:01.
