data_PCOD9522449
_publ_section_title
;
Structure prediction by ZEFSAII (Michael W. Deem and Ramdas Pophale) SiO2 
 PCOD9522449
Probable space group: I M M M
;
_chemical_formula_sum "Si O2"
_cell_formula_units_Z 72
_cell_length_a 16.681510
_cell_length_b 28.152552
_cell_length_c 8.478212
_cell_angle_alpha 90.000000
_cell_angle_beta 90.000000
_cell_angle_gamma 90.000000
_cell_volume 3981.597926
_symmetry_space_group_name_H-M "I M M M"
_symmetry_group_IT_number 71
_symmetry_cell_setting 'orthorhombic'
loop_
_space_group_symop_operation_xyz
x,y,z
-x,-y,z
x,-y,-z
-x,y,-z
-x,-y,-z
x,y,-z
-x,y,z
x,-y,z
1/2+x,1/2+y,1/2+z
1/2-x,1/2-y,1/2+z
1/2+x,1/2-y,1/2-z
1/2-x,1/2+y,1/2-z
1/2-x,1/2-y,1/2-z
1/2+x,1/2+y,1/2-z
1/2-x,1/2+y,1/2+z
1/2+x,1/2-y,1/2+z
loop_
_atom_site_type_symbol
_atom_site_label
_atom_site_fract_x
_atom_site_fract_y
_atom_site_fract_z
Si Si1 0.411992 0.642784 0.808412
Si Si2 0.684997 0.446140 0.809291
Si Si3 0.341062 0.108150 0.812559
Si Si4 0.500000 0.055672 0.689205
Si Si5 0.751877 0.803523 0.310437
O O1 0.500000 0.655840 0.749390
O O2 0.387293 0.589050 0.767168
O O3 0.337273 0.674579 0.756522
O O4 0.413760 0.645634 0.000000
O O5 0.672402 0.500000 0.759626
O O6 0.766379 0.424756 0.739151
O O7 0.693097 0.444825 0.000000
O O8 0.421462 0.084196 0.745797
O O9 0.317369 0.160751 0.750094
O O10 0.346841 0.110109 0.000000
O O11 0.500000 0.054674 0.500000
O O12 0.500000 0.000000 0.743543
O O13 0.749372 0.804335 0.500000
O O14 0.750000 0.750000 0.250000
#
# Coordination Sequence:
#
# PCOD9522449 Si02
#       5
#    16  16  16   8  16
#     4   8  15  29  50  77 105 134 172 220 266 312
#     4   9  17  30  50  76 107 143 179 217 266 321
#     4  11  22  36  55  80 110 145 187 230 273 332
#     4  11  23  39  59  83 115 151 187 235 292 343
#     4  10  20  37  59  80 107 142 182 229 283 336
#
# _framework density 18.083193000000001
#
# number of rings (size 3 to 8) (size 9 to 14) (size 15 to 20)
#    0.000    2.333    0.000    5.000    0.000    4.444 
#    2.000    2.222    0.000   16.000    0.000    6.222 
#    0.000    0.000    0.000    0.000    0.000    0.000 
#
# Total GULP energy -200760.624379 kJ/mol
# GULP energy per Si atom -5576.684011 kJ/mol
# Density = 1.804204 g / cm^3
# Si number density = 18.083193 Si / 1000 Ang^3
#
#
#
# Elastic Constant Matrix: (Units=GPa)
#
#
# Indices 1 2 3 4 5 6 
#
# 1 123.7204 65.2413 22.6214 -0.0001 0.0003 0.0002
# 2 65.2413 170.0153 35.3945 -0.0001 0.0001 0.0001
# 3 22.6214 35.3945 49.5189 -0.0033 0.0023 0.0002
# 4 -0.0001 -0.0001 -0.0033 27.7551 0.0007 0.0001
# 5 0.0003 0.0001 0.0023 0.0007 -4.6603 0.0004
# 6 0.0002 0.0001 0.0002 0.0001 0.0004 13.6417
#
#
#
# Elastic Compliance Matrix: (Units=1/GPa)
#
#
# Indices 1 2 3 4 5 6 
#
# 1 0.010336 -0.003505 -0.002217 0.000000 0.000000 0.000000
# 2 -0.003505 0.008099 -0.004187 0.000000 -0.000002 0.000000
# 3 -0.002217 -0.004187 0.024200 0.000003 0.000012 0.000000
# 4 0.000000 0.000000 0.000003 0.036029 0.000005 0.000000
# 5 0.000000 -0.000002 0.000012 0.000005 -0.214577 0.000006
# 6 0.000000 0.000000 0.000000 0.000000 0.000006 0.073305
#
#
# Mechanical properties :
#
#
# Convention : Reuss Voigt Hill
#
# Bulk Modulus (GPa) = 43.82744 65.52990 54.67867
# Shear Modulus (GPa) = -142.11091 22.01378 -60.04856
#
# Velocity S-wave (km/s) = -8.87456 3.49286 -5.76879
# Velocity P-wave (km/s) = 8.98451 7.25144 3.75086
#
# Compressibility (1/GPa) = 0.02281676
#
# Stress axis : x y z
#
# Youngs Moduli (GPa) = 96.74640 123.47865 41.32239
#
# Poissons Ratio (x) = 0.43279 0.09160
# Poissons Ratio (y) = 0.33909 0.17303
# Poissons Ratio (z) = 0.21445 0.51706
#
# Static dielectric constant tensor:
#      x y z
#    x 1.607700 0.000000 0.000000 
#    y 0.000000 1.618020 0.000000 
#    z 0.000000 0.000000 1.618770 
# 
# From -- ./inp_files/6058.got.cif
#   From: 2010.05.17/outbox.cif.g08.bks.cpg/sg71_4_cif.got.tgz:6058.got - 2010.06.03 16:22:01.
