data_PCOD9522132
_publ_section_title
;
Structure prediction by ZEFSAII (Michael W. Deem and Ramdas Pophale) SiO2 
 PCOD9522132
Probable space group: I M M M
;
_chemical_formula_sum "Si O2"
_cell_formula_units_Z 72
_cell_length_a 7.769964
_cell_length_b 26.969537
_cell_length_c 15.631703
_cell_angle_alpha 90.000000
_cell_angle_beta 90.000000
_cell_angle_gamma 90.000000
_cell_volume 3275.659810
_symmetry_space_group_name_H-M "I M M M"
_symmetry_group_IT_number 71
_symmetry_cell_setting 'orthorhombic'
loop_
_space_group_symop_operation_xyz
x,y,z
-x,-y,z
x,-y,-z
-x,y,-z
-x,-y,-z
x,y,-z
-x,y,z
x,-y,z
1/2+x,1/2+y,1/2+z
1/2-x,1/2-y,1/2+z
1/2+x,1/2-y,1/2-z
1/2-x,1/2+y,1/2-z
1/2-x,1/2-y,1/2-z
1/2+x,1/2+y,1/2-z
1/2-x,1/2+y,1/2+z
1/2+x,1/2-y,1/2+z
loop_
_atom_site_type_symbol
_atom_site_label
_atom_site_fract_x
_atom_site_fract_y
_atom_site_fract_z
Si Si1 0.288497 0.712475 0.500000
Si Si2 0.303034 0.053745 0.897762
Si Si3 0.211192 0.672896 0.000000
Si Si4 0.190387 0.846210 0.164966
Si Si5 0.203687 0.608572 0.158076
Si Si6 0.710094 0.000000 0.602462
O O1 0.500000 0.707688 0.500000
O O2 0.239087 0.769765 0.500000
O O3 0.228418 0.686233 0.588254
O O4 0.500000 0.062659 0.866988
O O5 0.185475 0.098816 0.874196
O O6 0.248066 0.000000 0.865179
O O7 0.310805 0.051439 0.000000
O O8 0.272484 0.642398 0.918242
O O9 0.000000 0.673185 0.000000
O O10 0.271919 0.859464 0.255873
O O11 0.000000 0.825707 0.180961
O O12 0.268791 0.551530 0.148256
O O13 0.000000 0.603769 0.145563
O O14 0.500000 0.000000 0.605258
O O15 0.755128 0.000000 0.500000
#
# Coordination Sequence:
#
# PCOD9522132 Si02
#       6
#     8  16   8  16  16   8
#     4   9  20  38  57  78 110 153 193 236 282 330
#     4   9  18  33  53  76 104 140 185 235 276 316
#     4   9  18  37  63  83 103 142 197 245 289 338
#     4  11  22  36  53  79 118 156 188 223 277 345
#     4  10  20  35  59  88 113 141 186 239 287 338
#     4   9  16  32  59  88 113 138 176 232 290 334
#
# _framework density 21.980305000000001
#
# number of rings (size 3 to 8) (size 9 to 14) (size 15 to 20)
#    0.000    2.333    2.222    1.333    1.556    1.333 
#    0.000    1.667    0.000    4.667    0.000    0.000 
#    0.000    0.000    0.000    0.000    0.000    0.000 
#
# Total GULP energy -200603.410389 kJ/mol
# GULP energy per Si atom -5572.316955 kJ/mol
# Density = 2.193028 g / cm^3
# Si number density = 21.980305 Si / 1000 Ang^3
#
#
#
# Elastic Constant Matrix: (Units=GPa)
#
#
# Indices 1 2 3 4 5 6 
#
# 1 23.1519 12.8512 1.4109 0.0003 -0.0005 0.0000
# 2 12.8512 165.0971 92.4283 0.0007 -0.0006 -0.0001
# 3 1.4109 92.4283 148.2534 0.0028 -0.0016 -0.0002
# 4 0.0003 0.0007 0.0028 24.2727 -0.0159 0.0001
# 5 -0.0005 -0.0006 -0.0016 -0.0159 -301.9787 0.0020
# 6 0.0000 -0.0001 -0.0002 0.0001 0.0020 28.0575
#
#
#
# Elastic Compliance Matrix: (Units=1/GPa)
#
#
# Indices 1 2 3 4 5 6 
#
# 1 0.045861 -0.005109 0.002748 -0.000001 0.000000 0.000000
# 2 -0.005109 0.009874 -0.006107 0.000000 0.000000 0.000000
# 3 0.002748 -0.006107 0.010527 -0.000001 0.000000 0.000000
# 4 -0.000001 0.000000 -0.000001 0.041198 -0.000002 0.000000
# 5 0.000000 0.000000 0.000000 -0.000002 -0.003311 0.000000
# 6 0.000000 0.000000 0.000000 0.000000 0.000000 0.035641
#
#
# Mechanical properties :
#
#
# Convention : Reuss Voigt Hill
#
# Bulk Modulus (GPa) = 20.27290 61.09812 40.68551
# Shear Modulus (GPa) = 28.87400 -34.60888 -2.86744
#
# Velocity S-wave (km/s) = 3.62834 -3.97235 -1.14341
# Velocity P-wave (km/s) = 5.17652 2.61106 4.09963
#
# Compressibility (1/GPa) = 0.04932692
#
# Stress axis : x y z
#
# Youngs Moduli (GPa) = 21.80497 101.27892 94.99801
#
# Poissons Ratio (x) = 0.51739 -0.26110
# Poissons Ratio (y) = 0.11139 0.58017
# Poissons Ratio (z) = -0.05993 0.61852
#
# Static dielectric constant tensor:
#      x y z
#    x 1.905130 0.000000 0.000000 
#    y 0.000000 1.771130 0.000000 
#    z 0.000000 0.000000 1.962110 
# 
# From -- ./inp_files/31498.got.cif
#   From: 2010.05.17/outbox.cif.g08.bks.cpg/sg71_16_cif.got.tgz:31498.got - 2010.06.03 16:22:01.
