data_PCOD9522314
_publ_section_title
;
Structure prediction by ZEFSAII (Michael W. Deem and Ramdas Pophale) SiO2 
 PCOD9522314
Probable space group: I M M M
;
_chemical_formula_sum "Si O2"
_cell_formula_units_Z 104
_cell_length_a 28.043294
_cell_length_b 8.225877
_cell_length_c 22.536666
_cell_angle_alpha 90.000000
_cell_angle_beta 90.000000
_cell_angle_gamma 90.000000
_cell_volume 5198.773598
_symmetry_space_group_name_H-M "I M M M"
_symmetry_group_IT_number 71
_symmetry_cell_setting 'orthorhombic'
loop_
_space_group_symop_operation_xyz
x,y,z
-x,-y,z
x,-y,-z
-x,y,-z
-x,-y,-z
x,y,-z
-x,y,z
x,-y,z
1/2+x,1/2+y,1/2+z
1/2-x,1/2-y,1/2+z
1/2+x,1/2-y,1/2-z
1/2-x,1/2+y,1/2-z
1/2-x,1/2-y,1/2-z
1/2+x,1/2+y,1/2-z
1/2-x,1/2+y,1/2+z
1/2+x,1/2-y,1/2+z
loop_
_atom_site_type_symbol
_atom_site_label
_atom_site_fract_x
_atom_site_fract_y
_atom_site_fract_z
Si Si1 0.387738 0.809950 0.893045
Si Si2 0.302638 0.186370 0.240405
Si Si3 0.688246 0.697020 0.431529
Si Si4 0.556091 0.315625 0.000000
Si Si5 0.944611 0.802499 0.724040
Si Si6 0.379106 0.687466 0.673346
Si Si7 0.291713 0.688269 0.886406
O O1 0.410189 0.754050 0.829581
O O2 0.341295 0.715859 0.919901
O O3 0.377473 0.000000 0.890402
O O4 0.427800 0.775376 0.941278
O O5 0.250000 0.250000 0.250000
O O6 0.337402 0.299229 0.277673
O O7 0.306080 0.204967 0.170463
O O8 0.309481 0.000000 0.259084
O O9 0.679025 0.741893 0.500000
O O10 0.689514 0.500000 0.427308
O O11 0.646963 0.756012 0.385804
O O12 0.741192 0.757802 0.413247
O O13 0.575233 0.500000 0.000000
O O14 0.500000 0.326088 0.000000
O O15 0.923459 0.744422 0.788146
O O16 0.000000 0.754001 0.715979
O O17 0.942830 0.000000 0.724425
O O18 0.390647 0.500000 0.659575
O O19 0.287043 0.500000 0.869369
#
# Coordination Sequence:
#
# PCOD9522314 Si02
#       7
#    16  16  16   8  16  16  16
#     4  12  25  40  60  87 120 157 201 250 302 357
#     4  12  22  34  55  85 117 151 189 232 285 342
#     4  10  22  39  59  84 118 159 204 250 299 358
#     4  11  25  45  65  83 111 157 209 255 302 355
#     4  10  21  38  61  88 118 153 197 249 306 365
#     4  10  20  36  59  84 116 157 198 243 300 361
#     4  12  24  38  57  83 118 156 196 240 291 351
#
# _framework density 20.004719000000001
#
# number of rings (size 3 to 8) (size 9 to 14) (size 15 to 20)
#    0.000    1.000    3.077    4.846    1.077    3.077 
#    0.000    0.000    0.000    0.462    0.000    3.231 
#    0.000    0.000    0.000    4.154    0.000    4.615 
#
# Total GULP energy -289939.940406 kJ/mol
# GULP energy per Si atom -5575.768085 kJ/mol
# Density = 1.995919 g / cm^3
# Si number density = 20.004719 Si / 1000 Ang^3
#
#
#
# Elastic Constant Matrix: (Units=GPa)
#
#
# Indices 1 2 3 4 5 6 
#
# 1 88.8341 14.5744 41.8378 0.0000 0.0000 0.0000
# 2 14.5744 62.2530 15.8170 0.0000 0.0000 0.0000
# 3 41.8378 15.8170 124.9784 0.0000 0.0000 0.0000
# 4 0.0000 0.0000 0.0000 -9.6261 0.0000 0.0000
# 5 0.0000 0.0000 0.0000 0.0000 25.9764 0.0000
# 6 0.0000 0.0000 0.0000 0.0000 0.0000 20.1075
#
#
#
# Elastic Compliance Matrix: (Units=1/GPa)
#
#
# Indices 1 2 3 4 5 6 
#
# 1 0.013624 -0.002098 -0.004295 0.000000 0.000000 0.000000
# 2 -0.002098 0.016920 -0.001439 0.000000 0.000000 0.000000
# 3 -0.004295 -0.001439 0.009621 0.000000 0.000000 0.000000
# 4 0.000000 0.000000 0.000000 -0.103885 0.000000 0.000000
# 5 0.000000 0.000000 0.000000 0.000000 0.038497 0.000000
# 6 0.000000 0.000000 0.000000 0.000000 0.000000 0.049733
#
#
# Mechanical properties :
#
#
# Convention : Reuss Voigt Hill
#
# Bulk Modulus (GPa) = 40.81505 46.72489 43.76997
# Shear Modulus (GPa) = 103.42874 20.88065 62.15469
#
# Velocity S-wave (km/s) = 7.19822 3.23427 5.58010
# Velocity P-wave (km/s) = 9.46218 6.11187 7.96517
#
# Compressibility (1/GPa) = 0.02450077
#
# Stress axis : x y z
#
# Youngs Moduli (GPa) = 73.39935 59.10050 103.93528
#
# Poissons Ratio (x) = 0.12401 0.44643
# Poissons Ratio (y) = 0.15401 0.14956
# Poissons Ratio (z) = 0.31527 0.08504
#
# Static dielectric constant tensor:
#      x y z
#    x 1.974690 0.000000 0.000000 
#    y 0.000000 1.648420 0.000000 
#    z 0.000000 0.000000 1.802500 
# 
# From -- ./inp_files/56700.got.cif
#   From: 2010.05.17/outbox.cif.g08.bks.cpg/sg71_29_cif.got.tgz:56700.got - 2010.06.03 16:22:01.
