data_PCOD9522799
_publ_section_title
;
Structure prediction by ZEFSAII (Michael W. Deem and Ramdas Pophale) SiO2 
 PCOD9522799
Probable space group: I M M M
;
_chemical_formula_sum "Si O2"
_cell_formula_units_Z 72
_cell_length_a 17.913878
_cell_length_b 27.861655
_cell_length_c 7.961335
_cell_angle_alpha 90.000000
_cell_angle_beta 90.000000
_cell_angle_gamma 90.000000
_cell_volume 3973.584209
_symmetry_space_group_name_H-M "I M M M"
_symmetry_group_IT_number 71
_symmetry_cell_setting 'orthorhombic'
loop_
_space_group_symop_operation_xyz
x,y,z
-x,-y,z
x,-y,-z
-x,y,-z
-x,-y,-z
x,y,-z
-x,y,z
x,-y,z
1/2+x,1/2+y,1/2+z
1/2-x,1/2-y,1/2+z
1/2+x,1/2-y,1/2-z
1/2-x,1/2+y,1/2-z
1/2-x,1/2-y,1/2-z
1/2+x,1/2+y,1/2-z
1/2-x,1/2+y,1/2+z
1/2+x,1/2-y,1/2+z
loop_
_atom_site_type_symbol
_atom_site_label
_atom_site_fract_x
_atom_site_fract_y
_atom_site_fract_z
Si Si1 0.911550 0.942564 0.500000
Si Si2 0.236097 0.304085 0.304412
Si Si3 0.650036 0.946188 0.799846
Si Si4 0.581994 0.848439 0.303207
Si Si5 0.187015 0.900583 0.797474
O O1 0.873669 0.921121 0.331156
O O2 0.000000 0.932934 0.500000
O O3 0.900060 0.000000 0.500000
O O4 0.250090 0.305857 0.500000
O O5 0.250000 0.250000 0.250000
O O6 0.150902 0.319753 0.273751
O O7 0.289043 0.346863 0.237703
O O8 0.600734 0.904621 0.719145
O O9 0.736836 0.931596 0.778340
O O10 0.636561 0.000000 0.737822
O O11 0.635743 0.944915 0.000000
O O12 0.581528 0.837272 0.500000
O O13 0.500000 0.837887 0.232192
O O14 0.168309 0.901258 0.000000
#
# Coordination Sequence:
#
# PCOD9522799 Si02
#       5
#     8  16  16  16  16
#     4  11  24  38  58  88 117 157 205 245 303 366
#     4  10  21  37  62  88 108 143 192 234 287 349
#     4   9  18  32  52  78 106 145 192 229 272 330
#     4  10  21  35  51  77 114 148 180 226 276 325
#     4   9  20  38  58  84 118 151 190 246 295 346
#
# _framework density 18.119662000000002
#
# number of rings (size 3 to 8) (size 9 to 14) (size 15 to 20)
#    0.000    2.333    0.000    3.333    7.778    4.444 
#    0.000    4.444    0.000    1.333    0.000    0.000 
#    0.000    0.000    0.000    0.000    0.000    0.000 
#
# Total GULP energy -200698.046501 kJ/mol
# GULP energy per Si atom -5574.945736 kJ/mol
# Density = 1.807842 g / cm^3
# Si number density = 18.119662 Si / 1000 Ang^3
#
#
#
# Elastic Constant Matrix: (Units=GPa)
#
#
# Indices 1 2 3 4 5 6 
#
# 1 93.4334 47.4495 28.8804 0.0000 0.0000 0.0000
# 2 47.4495 127.1005 14.9849 0.0000 0.0000 0.0000
# 3 28.8804 14.9849 45.4023 0.0002 -0.0004 0.0000
# 4 0.0000 0.0000 0.0002 32.2374 0.0000 0.0000
# 5 0.0000 0.0000 -0.0004 0.0000 14.4561 0.0000
# 6 0.0000 0.0000 0.0000 0.0000 0.0000 9.2317
#
#
#
# Elastic Compliance Matrix: (Units=1/GPa)
#
#
# Indices 1 2 3 4 5 6 
#
# 1 0.015800 -0.004904 -0.008431 0.000000 0.000000 0.000000
# 2 -0.004904 0.009709 -0.000085 0.000000 0.000000 0.000000
# 3 -0.008431 -0.000085 0.027417 0.000000 0.000001 0.000000
# 4 0.000000 0.000000 0.000000 0.031020 0.000000 0.000000
# 5 0.000000 0.000000 0.000001 0.000000 0.069175 0.000000
# 6 0.000000 0.000000 0.000000 0.000000 0.000000 0.108323
#
#
# Mechanical properties :
#
#
# Convention : Reuss Voigt Hill
#
# Bulk Modulus (GPa) = 38.33788 49.84064 44.08926
# Shear Modulus (GPa) = 16.83628 22.82646 19.83137
#
# Velocity S-wave (km/s) = 3.05154 3.55316 3.31186
# Velocity P-wave (km/s) = 5.79827 6.66329 6.24577
#
# Compressibility (1/GPa) = 0.02608386
#
# Stress axis : x y z
#
# Youngs Moduli (GPa) = 63.29275 103.00079 36.47438
#
# Poissons Ratio (x) = 0.50515 0.30753
# Poissons Ratio (y) = 0.31041 0.00309
# Poissons Ratio (z) = 0.53365 0.00872
#
# Static dielectric constant tensor:
#      x y z
#    x 1.605670 0.000000 0.000000 
#    y 0.000000 1.499220 0.000000 
#    z 0.000000 0.000000 1.645010 
# 
# From -- ./inp_files/6090.got.cif
#   From: 2010.05.17/outbox.cif.g08.bks.cpg/sg71_4_cif.got.tgz:6090.got - 2010.06.03 16:22:01.
