data_PCOD9522554
_publ_section_title
;
Structure prediction by ZEFSAII (Michael W. Deem and Ramdas Pophale) SiO2 
 PCOD9522554
Probable space group: I M M M
;
_chemical_formula_sum "Si O2"
_cell_formula_units_Z 72
_cell_length_a 18.721745
_cell_length_b 19.802767
_cell_length_c 9.618043
_cell_angle_alpha 90.000000
_cell_angle_beta 90.000000
_cell_angle_gamma 90.000000
_cell_volume 3565.815903
_symmetry_space_group_name_H-M "I M M M"
_symmetry_group_IT_number 71
_symmetry_cell_setting 'orthorhombic'
loop_
_space_group_symop_operation_xyz
x,y,z
-x,-y,z
x,-y,-z
-x,y,-z
-x,-y,-z
x,y,-z
-x,y,z
x,-y,z
1/2+x,1/2+y,1/2+z
1/2-x,1/2-y,1/2+z
1/2+x,1/2-y,1/2-z
1/2-x,1/2+y,1/2-z
1/2-x,1/2-y,1/2-z
1/2+x,1/2+y,1/2-z
1/2-x,1/2+y,1/2+z
1/2+x,1/2-y,1/2+z
loop_
_atom_site_type_symbol
_atom_site_label
_atom_site_fract_x
_atom_site_fract_y
_atom_site_fract_z
Si Si1 0.644729 0.922480 0.658146
Si Si2 0.914849 0.697761 0.339642
Si Si3 0.580015 0.419004 0.000000
Si Si4 0.808573 0.077413 0.258490
Si Si5 0.314039 0.720265 0.656840
O O1 0.623507 0.904714 0.500000
O O2 0.613341 0.871533 0.770839
O O3 0.730961 0.920875 0.668523
O O4 0.622822 0.000000 0.684557
O O5 0.889764 0.705269 0.500000
O O6 0.883718 0.755220 0.239257
O O7 0.000000 0.698221 0.339741
O O8 0.628704 0.404823 0.866766
O O9 0.572596 0.500000 0.000000
O O10 0.500000 0.388946 0.000000
O O11 0.808324 0.139511 0.153707
O O12 0.818775 0.000000 0.208111
O O13 0.311584 0.747203 0.500000
O O14 0.250000 0.750000 0.750000
#
# Coordination Sequence:
#
# PCOD9522554 Si02
#       5
#    16  16   8  16  16
#     4  10  20  37  65  97 130 172 219 270 323 388
#     4  11  26  45  65  93 130 174 222 272 329 393
#     4   9  18  34  60  96 133 169 210 260 318 375
#     4  10  21  38  64  96 129 167 214 265 318 382
#     4  12  26  42  66  95 128 171 215 267 329 392
#
# _framework density 20.191732999999999
#
# number of rings (size 3 to 8) (size 9 to 14) (size 15 to 20)
#    0.000    1.444    3.333    1.333    3.111    4.000 
#    0.000    4.444    0.000    0.000    0.000    4.667 
#    0.000    0.000    0.000    0.000    0.000    0.000 
#
# Total GULP energy -201001.650132 kJ/mol
# GULP energy per Si atom -5583.379170 kJ/mol
# Density = 2.014578 g / cm^3
# Si number density = 20.191733 Si / 1000 Ang^3
#
#
#
# Elastic Constant Matrix: (Units=GPa)
#
#
# Indices 1 2 3 4 5 6 
#
# 1 84.9593 16.5770 40.8987 0.0000 0.0000 0.0000
# 2 16.5770 124.9957 55.9069 0.0000 0.0000 0.0000
# 3 40.8987 55.9069 151.5598 0.0000 0.0000 0.0000
# 4 0.0000 0.0000 0.0000 31.1545 0.0000 0.0000
# 5 0.0000 0.0000 0.0000 0.0000 11.6275 0.0000
# 6 0.0000 0.0000 0.0000 0.0000 0.0000 25.6506
#
#
#
# Elastic Compliance Matrix: (Units=1/GPa)
#
#
# Indices 1 2 3 4 5 6 
#
# 1 0.013532 -0.000193 -0.003580 0.000000 0.000000 0.000000
# 2 -0.000193 0.009584 -0.003483 0.000000 0.000000 0.000000
# 3 -0.003580 -0.003483 0.008849 0.000000 0.000000 0.000000
# 4 0.000000 0.000000 0.000000 0.032098 0.000000 0.000000
# 5 0.000000 0.000000 0.000000 0.000000 0.086003 0.000000
# 6 0.000000 0.000000 0.000000 0.000000 0.000000 0.038985
#
#
# Mechanical properties :
#
#
# Convention : Reuss Voigt Hill
#
# Bulk Modulus (GPa) = 57.30251 65.36444 61.33347
# Shear Modulus (GPa) = 23.87990 30.22868 27.05429
#
# Velocity S-wave (km/s) = 3.44271 3.87341 3.66439
# Velocity P-wave (km/s) = 6.65160 7.24200 6.95307
#
# Compressibility (1/GPa) = 0.01745124
#
# Stress axis : x y z
#
# Youngs Moduli (GPa) = 73.90140 104.34293 113.00687
#
# Poissons Ratio (x) = 0.02016 0.40459
# Poissons Ratio (y) = 0.01428 0.39361
# Poissons Ratio (z) = 0.26458 0.36344
#
# Static dielectric constant tensor:
#      x y z
#    x 1.717060 0.000000 0.000000 
#    y 0.000000 1.748220 0.000000 
#    z 0.000000 0.000000 1.695550 
# 
# From -- ./inp_files/9932.got.cif
#   From: 2010.05.17/outbox.cif.g08.bks.cpg/sg71_5_cif.got.tgz:9932.got - 2010.06.03 16:22:01.
