data_PCOD9522097
_publ_section_title
;
Structure prediction by ZEFSAII (Michael W. Deem and Ramdas Pophale) SiO2 
 PCOD9522097
Probable space group: I M M M
;
_chemical_formula_sum "Si O2"
_cell_formula_units_Z 88
_cell_length_a 22.254341
_cell_length_b 17.833837
_cell_length_c 12.400242
_cell_angle_alpha 90.000000
_cell_angle_beta 90.000000
_cell_angle_gamma 90.000000
_cell_volume 4921.411640
_symmetry_space_group_name_H-M "I M M M"
_symmetry_group_IT_number 71
_symmetry_cell_setting 'orthorhombic'
loop_
_space_group_symop_operation_xyz
x,y,z
-x,-y,z
x,-y,-z
-x,y,-z
-x,-y,-z
x,y,-z
-x,y,z
x,-y,z
1/2+x,1/2+y,1/2+z
1/2-x,1/2-y,1/2+z
1/2+x,1/2-y,1/2-z
1/2-x,1/2+y,1/2-z
1/2-x,1/2-y,1/2-z
1/2+x,1/2+y,1/2-z
1/2-x,1/2+y,1/2+z
1/2+x,1/2-y,1/2+z
loop_
_atom_site_type_symbol
_atom_site_label
_atom_site_fract_x
_atom_site_fract_y
_atom_site_fract_z
Si Si1 0.102131 0.800135 0.628102
Si Si2 0.929649 0.647992 0.252803
Si Si3 0.377967 0.000000 0.870554
Si Si4 0.500000 0.585012 0.131094
Si Si5 0.732875 0.500000 0.627475
Si Si6 0.710871 0.343825 0.273870
Si Si7 0.317636 0.192629 0.377853
O O1 0.105439 0.798380 0.500000
O O2 0.078680 0.720350 0.669946
O O3 0.057275 0.866177 0.663261
O O4 0.165590 0.820084 0.679594
O O5 0.906094 0.573700 0.314085
O O6 0.885280 0.668600 0.153483
O O7 0.000000 0.639843 0.224960
O O8 0.305506 0.000000 0.856150
O O9 0.389812 0.000000 0.000000
O O10 0.500000 0.500000 0.170798
O O11 0.500000 0.582427 0.000000
O O12 0.723020 0.500000 0.500000
O O13 0.704766 0.573849 0.679740
O O14 0.697056 0.281272 0.364515
O O15 0.776069 0.339768 0.217935
O O16 0.303347 0.168946 0.500000
#
# Coordination Sequence:
#
# PCOD9522097 Si02
#       7
#    16  16   8   8   8  16  16
#     4  10  20  35  58  86 116 150 189 237 294 347
#     4  11  22  38  58  84 117 156 200 237 285 345
#     4  11  23  38  59  86 117 153 195 245 292 339
#     4   9  18  32  50  79 115 149 180 224 288 348
#     4  11  22  39  60  85 118 151 187 237 293 347
#     4  10  21  37  59  86 109 146 190 235 291 343
#     4  10  21  39  59  82 112 148 193 241 285 338
#
# _framework density 17.881048
#
# number of rings (size 3 to 8) (size 9 to 14) (size 15 to 20)
#    0.000    1.727    2.727    1.909    1.273    1.818 
#    0.000    2.727    0.000    1.091    0.000    0.636 
#    0.000    0.000    0.000    0.000    0.000    0.000 
#
# Total GULP energy -245347.418619 kJ/mol
# GULP energy per Si atom -5576.077696 kJ/mol
# Density = 1.784035 g / cm^3
# Si number density = 17.881048 Si / 1000 Ang^3
#
#
#
# Elastic Constant Matrix: (Units=GPa)
#
#
# Indices 1 2 3 4 5 6 
#
# 1 73.7291 6.5931 12.5776 0.0000 0.0000 0.0000
# 2 6.5931 139.0464 25.4948 0.0000 0.0000 0.0000
# 3 12.5776 25.4948 56.4369 0.0000 0.0000 0.0000
# 4 0.0000 0.0000 0.0000 15.9265 0.0000 0.0000
# 5 0.0000 0.0000 0.0000 0.0000 3.7089 0.0000
# 6 0.0000 0.0000 0.0000 0.0000 0.0000 25.3734
#
#
#
# Elastic Compliance Matrix: (Units=1/GPa)
#
#
# Indices 1 2 3 4 5 6 
#
# 1 0.014100 -0.000101 -0.003097 0.000000 0.000000 0.000000
# 2 -0.000101 0.007842 -0.003520 0.000000 0.000000 0.000000
# 3 -0.003097 -0.003520 0.019999 0.000000 0.000000 0.000000
# 4 0.000000 0.000000 0.000000 0.062788 0.000000 0.000000
# 5 0.000000 0.000000 0.000000 0.000000 0.269624 0.000000
# 6 0.000000 0.000000 0.000000 0.000000 0.000000 0.039411
#
#
# Mechanical properties :
#
#
# Convention : Reuss Voigt Hill
#
# Bulk Modulus (GPa) = 35.08010 39.83816 37.45913
# Shear Modulus (GPa) = 11.44942 23.97156 17.71049
#
# Velocity S-wave (km/s) = 2.53318 3.66541 3.15057
# Velocity P-wave (km/s) = 5.31199 6.34362 5.85059
#
# Compressibility (1/GPa) = 0.02850619
#
# Stress axis : x y z
#
# Youngs Moduli (GPa) = 70.91955 127.51768 50.00182
#
# Poissons Ratio (x) = 0.01285 0.15485
# Poissons Ratio (y) = 0.00715 0.17601
# Poissons Ratio (z) = 0.21963 0.44888
#
# Static dielectric constant tensor:
#      x y z
#    x 1.657310 0.000000 0.000000 
#    y 0.000000 1.610340 0.000000 
#    z 0.000000 0.000000 1.582740 
# 
# From -- ./inp_files/24021.got.cif
#   From: 2010.05.17/outbox.cif.g08.bks.cpg/sg71_13_cif.got.tgz:24021.got - 2010.06.03 16:22:01.
