data_PCOD9522679
_publ_section_title
;
Structure prediction by ZEFSAII (Michael W. Deem and Ramdas Pophale) SiO2 
 PCOD9522679
Probable space group: I M M M
;
_chemical_formula_sum "Si O2"
_cell_formula_units_Z 64
_cell_length_a 25.610881
_cell_length_b 13.601509
_cell_length_c 7.289720
_cell_angle_alpha 90.000000
_cell_angle_beta 90.000000
_cell_angle_gamma 90.000000
_cell_volume 2539.349384
_symmetry_space_group_name_H-M "I M M M"
_symmetry_group_IT_number 71
_symmetry_cell_setting 'orthorhombic'
loop_
_space_group_symop_operation_xyz
x,y,z
-x,-y,z
x,-y,-z
-x,y,-z
-x,-y,-z
x,y,-z
-x,y,z
x,-y,z
1/2+x,1/2+y,1/2+z
1/2-x,1/2-y,1/2+z
1/2+x,1/2-y,1/2-z
1/2-x,1/2+y,1/2-z
1/2-x,1/2-y,1/2-z
1/2+x,1/2+y,1/2-z
1/2-x,1/2+y,1/2+z
1/2+x,1/2-y,1/2+z
loop_
_atom_site_type_symbol
_atom_site_label
_atom_site_fract_x
_atom_site_fract_y
_atom_site_fract_z
Si Si1 0.892575 0.887249 0.721877
Si Si2 0.334488 0.883432 0.721075
Si Si3 0.443645 0.805872 0.711473
Si Si4 0.722148 0.618047 0.779669
O O1 0.892066 0.887045 0.500000
O O2 0.935980 0.811487 0.784810
O O3 0.835080 0.849826 0.786126
O O4 0.899861 0.000000 0.779591
O O5 0.334216 0.869688 0.500000
O O6 0.389441 0.844273 0.794197
O O7 0.278228 0.843718 0.789656
O O8 0.334068 0.000000 0.754474
O O9 0.444196 0.839612 0.500000
O O10 0.500000 0.832863 0.791161
O O11 0.722037 0.500000 0.744403
O O12 0.722356 0.628259 0.000000
#
# Coordination Sequence:
#
# PCOD9522679 Si02
#       4
#    16  16  16  16
#     4   9  18  33  52  71  91 119 156 195 233 276
#     4   8  14  27  48  71  95 123 152 185 229 279
#     4  10  21  33  45  68  99 126 156 193 229 267
#     4   7  11  23  45  71  93 113 145 189 232 274
#
# _framework density 25.203305
#
# number of rings (size 3 to 8) (size 9 to 14) (size 15 to 20)
#    0.000    3.500    0.000    3.000    0.000    3.000 
#    0.000    5.000    0.000    0.750    0.000    5.250 
#    0.000    0.000    0.000    0.000    0.000    0.000 
#
# Total GULP energy -178676.302114 kJ/mol
# GULP energy per Si atom -5583.634441 kJ/mol
# Density = 2.514594 g / cm^3
# Si number density = 25.203305 Si / 1000 Ang^3
#
#
#
# Elastic Constant Matrix: (Units=GPa)
#
#
# Indices 1 2 3 4 5 6 
#
# 1 191.6455 20.4500 8.4291 0.0000 0.0000 0.0000
# 2 20.4500 35.8504 -3.1373 0.0000 0.0000 0.0000
# 3 8.4291 -3.1373 108.4066 0.0000 0.0000 0.0000
# 4 0.0000 0.0000 0.0000 7.6472 0.0000 0.0000
# 5 0.0000 0.0000 0.0000 0.0000 0.0465 0.0000
# 6 0.0000 0.0000 0.0000 0.0000 0.0000 21.0143
#
#
#
# Elastic Compliance Matrix: (Units=1/GPa)
#
#
# Indices 1 2 3 4 5 6 
#
# 1 0.005586 -0.003233 -0.000528 0.000000 0.000000 0.000000
# 2 -0.003233 0.029835 0.001115 0.000000 0.000000 0.000000
# 3 -0.000528 0.001115 0.009298 0.000000 0.000000 0.000000
# 4 0.000000 0.000000 0.000000 0.130766 0.000000 0.000000
# 5 0.000000 0.000000 0.000000 0.000000 21.502813 0.000000
# 6 0.000000 0.000000 0.000000 0.000000 0.000000 0.047587
#
#
# Mechanical properties :
#
#
# Convention : Reuss Voigt Hill
#
# Bulk Modulus (GPa) = 25.36295 43.04293 34.20294
# Shear Modulus (GPa) = 0.22995 26.41899 13.32447
#
# Velocity S-wave (km/s) = 0.30238 3.24116 2.30180
# Velocity P-wave (km/s) = 3.19486 5.57872 4.54584
#
# Compressibility (1/GPa) = 0.03942759
#
# Stress axis : x y z
#
# Youngs Moduli (GPa) = 179.01454 33.51743 107.55192
#
# Poissons Ratio (x) = 0.10835 0.05678
# Poissons Ratio (y) = 0.57870 -0.11990
# Poissons Ratio (z) = 0.09450 -0.03736
#
# Static dielectric constant tensor:
#      x y z
#    x 2.002230 0.000000 0.000000 
#    y 0.000000 2.001260 0.000000 
#    z 0.000000 0.000000 2.023900 
# 
# From -- ./inp_files/5450.got.cif
#   From: 2010.05.17/outbox.cif.g08.bks.cpg/sg71_3_cif.got.tgz:5450.got - 2010.06.03 16:22:01.
