data_PCOD9522944
_publ_section_title
;
Structure prediction by ZEFSAII (Michael W. Deem and Ramdas Pophale) SiO2 
 PCOD9522944
Probable space group: I M M M
;
_chemical_formula_sum "Si O2"
_cell_formula_units_Z 56
_cell_length_a 7.503650
_cell_length_b 29.184747
_cell_length_c 10.331863
_cell_angle_alpha 90.000000
_cell_angle_beta 90.000000
_cell_angle_gamma 90.000000
_cell_volume 2262.596652
_symmetry_space_group_name_H-M "I M M M"
_symmetry_group_IT_number 71
_symmetry_cell_setting 'orthorhombic'
loop_
_space_group_symop_operation_xyz
x,y,z
-x,-y,z
x,-y,-z
-x,y,-z
-x,-y,-z
x,y,-z
-x,y,z
x,-y,z
1/2+x,1/2+y,1/2+z
1/2-x,1/2-y,1/2+z
1/2+x,1/2-y,1/2-z
1/2-x,1/2+y,1/2-z
1/2-x,1/2-y,1/2-z
1/2+x,1/2+y,1/2-z
1/2-x,1/2+y,1/2+z
1/2+x,1/2-y,1/2+z
loop_
_atom_site_type_symbol
_atom_site_label
_atom_site_fract_x
_atom_site_fract_y
_atom_site_fract_z
Si Si1 0.207021 0.326342 0.500000
Si Si2 0.216779 0.719930 0.000000
Si Si3 0.199355 0.054223 0.000000
Si Si4 0.787290 0.349793 0.216636
Si Si5 0.214758 0.051247 0.716998
O O1 0.217080 0.271588 0.500000
O O2 0.284615 0.343831 0.636742
O O3 0.000000 0.341000 0.500000
O O4 0.277045 0.691020 0.875140
O O5 0.000000 0.721503 0.000000
O O6 0.289059 0.060813 0.861921
O O7 0.000000 0.074890 0.000000
O O8 0.174246 0.000000 0.000000
O O9 0.752882 0.399849 0.153822
O O10 0.000000 0.344745 0.223900
O O11 0.000000 0.048098 0.725148
O O12 0.273899 0.000000 0.672740
#
# Coordination Sequence:
#
# PCOD9522944 Si02
#       5
#     8   8   8  16  16
#     4  10  21  37  58  83 106 130 171 225 269 307
#     4  10  22  39  56  76 106 142 176 211 260 323
#     4   7  11  22  41  66  97 129 162 205 252 293
#     4  10  21  36  54  79 109 139 173 214 262 315
#     4   9  17  30  50  77 107 140 179 218 255 303
#
# _framework density 24.750323000000002
#
# number of rings (size 3 to 8) (size 9 to 14) (size 15 to 20)
#    0.000    2.714    0.000    3.429    0.000    2.857 
#    0.000    0.714    0.000    9.429    0.000    0.000 
#    0.000    0.000    0.000    0.000    0.000    0.000 
#
# Total GULP energy -156108.461834 kJ/mol
# GULP energy per Si atom -5575.302208 kJ/mol
# Density = 2.469399 g / cm^3
# Si number density = 24.750323 Si / 1000 Ang^3
#
#
#
# Elastic Constant Matrix: (Units=GPa)
#
#
# Indices 1 2 3 4 5 6 
#
# 1 70.6987 -11.9275 9.8450 0.0001 0.0000 0.0000
# 2 -11.9275 221.7016 52.1403 0.0003 0.0000 0.0000
# 3 9.8450 52.1403 113.7885 0.0006 0.0000 0.0000
# 4 0.0001 0.0003 0.0006 50.5213 0.0000 0.0000
# 5 0.0000 0.0000 0.0000 0.0000 9.9923 0.0001
# 6 0.0000 0.0000 0.0000 0.0000 0.0001 28.0619
#
#
#
# Elastic Compliance Matrix: (Units=1/GPa)
#
#
# Indices 1 2 3 4 5 6 
#
# 1 0.014603 0.001214 -0.001819 0.000000 0.000000 0.000000
# 2 0.001214 0.005156 -0.002468 0.000000 0.000000 0.000000
# 3 -0.001819 -0.002468 0.010076 0.000000 0.000000 0.000000
# 4 0.000000 0.000000 0.000000 0.019794 0.000000 0.000000
# 5 0.000000 0.000000 0.000000 0.000000 0.100077 0.000000
# 6 0.000000 0.000000 0.000000 0.000000 0.000000 0.035636
#
#
# Mechanical properties :
#
#
# Convention : Reuss Voigt Hill
#
# Bulk Modulus (GPa) = 42.21555 56.25606 49.23580
# Shear Modulus (GPa) = 25.07711 41.45715 33.26713
#
# Velocity S-wave (km/s) = 3.18654 4.09713 3.67019
# Velocity P-wave (km/s) = 5.53465 6.72018 6.15602
#
# Compressibility (1/GPa) = 0.02368796
#
# Stress axis : x y z
#
# Youngs Moduli (GPa) = 68.48084 193.94091 99.24181
#
# Poissons Ratio (x) = -0.23535 0.18057
# Poissons Ratio (y) = -0.08310 0.24490
# Poissons Ratio (z) = 0.12460 0.47858
#
# Static dielectric constant tensor:
#      x y z
#    x 1.926360 0.000000 0.000000 
#    y 0.000000 1.944500 0.000000 
#    z 0.000000 0.000000 2.578040 
# 
# From -- ./inp_files/14021.got.cif
#   From: 2010.05.17/outbox.cif.g08.bks.cpg/sg71_8_cif.got.tgz:14021.got - 2010.06.03 16:22:01.
