data_PCOD9522745
_publ_section_title
;
Structure prediction by ZEFSAII (Michael W. Deem and Ramdas Pophale) SiO2 
 PCOD9522745
Probable space group: I M M M
;
_chemical_formula_sum "Si O2"
_cell_formula_units_Z 90
_cell_length_a 7.999314
_cell_length_b 26.316266
_cell_length_c 20.366870
_cell_angle_alpha 90.000000
_cell_angle_beta 90.000000
_cell_angle_gamma 90.000000
_cell_volume 4287.472066
_symmetry_space_group_name_H-M "I M M M"
_symmetry_group_IT_number 71
_symmetry_cell_setting 'orthorhombic'
loop_
_space_group_symop_operation_xyz
x,y,z
-x,-y,z
x,-y,-z
-x,y,-z
-x,-y,-z
x,y,-z
-x,y,z
x,-y,z
1/2+x,1/2+y,1/2+z
1/2-x,1/2-y,1/2+z
1/2+x,1/2-y,1/2-z
1/2-x,1/2+y,1/2-z
1/2-x,1/2-y,1/2-z
1/2+x,1/2+y,1/2-z
1/2-x,1/2+y,1/2+z
1/2+x,1/2-y,1/2+z
loop_
_atom_site_type_symbol
_atom_site_label
_atom_site_fract_x
_atom_site_fract_y
_atom_site_fract_z
Si Si1 0.000000 0.000000 0.500000
Si Si2 0.698012 0.083438 0.500000
Si Si3 0.698125 0.139009 0.362490
Si Si4 0.195112 0.444117 0.610740
Si Si5 0.800666 0.250644 0.174034
Si Si6 0.298676 0.834626 0.928148
Si Si7 0.695226 0.443621 0.757547
O O1 0.151353 0.956694 0.500000
O O2 0.500000 0.065178 0.500000
O O3 0.719325 0.116935 0.434794
O O4 0.500000 0.140497 0.348639
O O5 0.764696 0.196083 0.355277
O O6 0.772234 0.100193 0.309506
O O7 0.268185 0.500000 0.594508
O O8 0.267341 0.392143 0.581818
O O9 0.206051 0.438295 0.689692
O O10 0.000000 0.445943 0.591556
O O11 0.750000 0.250000 0.250000
O O12 0.744948 0.202602 0.131239
O O13 0.000000 0.250847 0.170747
O O14 0.500000 0.837835 0.928651
O O15 0.243321 0.815418 0.000000
O O16 0.500000 0.442878 0.739766
O O17 0.733437 0.500000 0.785876
#
# Coordination Sequence:
#
# PCOD9522745 Si02
#       7
#     2   8  16  16  16  16  16
#     4  12  26  44  68  98 132 172 234 256 340 410
#     4  10  25  45  65  92 131 175 217 278 330 397
#     4  10  23  41  60  83 117 159 206 256 319 381
#     4   9  18  35  58  84 118 158 198 240 299 369
#     4  11  24  42  65  91 122 163 210 263 322 385
#     4  10  22  39  60  90 123 157 201 254 308 367
#     4  10  21  34  55  86 119 151 193 250 304 363
#
# _framework density 20.991389000000002
#
# number of rings (size 3 to 8) (size 9 to 14) (size 15 to 20)
#    0.000    1.956    0.000    2.267    3.733    8.178 
#    0.000    1.778    0.000    0.000    0.000    3.733 
#    0.000    0.000    0.000    0.000    0.000    0.000 
#
# Total GULP energy -250945.768442 kJ/mol
# GULP energy per Si atom -5576.572632 kJ/mol
# Density = 2.094361 g / cm^3
# Si number density = 20.991389 Si / 1000 Ang^3
#
#
#
# Elastic Constant Matrix: (Units=GPa)
#
#
# Indices 1 2 3 4 5 6 
#
# 1 54.7686 36.3550 21.7236 0.0000 0.0000 0.0000
# 2 36.3550 164.7367 68.9582 -0.0001 0.0000 0.0000
# 3 21.7236 68.9582 101.3205 0.0001 0.0000 0.0000
# 4 0.0000 -0.0001 0.0001 243.0722 0.0001 0.0000
# 5 0.0000 0.0000 0.0000 0.0001 0.8802 0.0000
# 6 0.0000 0.0000 0.0000 0.0000 0.0000 26.7742
#
#
#
# Elastic Compliance Matrix: (Units=1/GPa)
#
#
# Indices 1 2 3 4 5 6 
#
# 1 0.021663 -0.003967 -0.001945 0.000000 0.000000 0.000000
# 2 -0.003967 0.009215 -0.005421 0.000000 0.000000 0.000000
# 3 -0.001945 -0.005421 0.013976 0.000000 0.000000 0.000000
# 4 0.000000 0.000000 0.000000 0.004114 0.000000 0.000000
# 5 0.000000 0.000000 0.000000 0.000000 1.136090 0.000000
# 6 0.000000 0.000000 0.000000 0.000000 0.000000 0.037349
#
#
# Mechanical properties :
#
#
# Convention : Reuss Voigt Hill
#
# Bulk Modulus (GPa) = 45.06782 63.87772 54.47277
# Shear Modulus (GPa) = 3.99211 67.06458 35.52835
#
# Velocity S-wave (km/s) = 1.38055 5.65844 4.11849
# Velocity P-wave (km/s) = 4.90484 8.55495 6.97297
#
# Compressibility (1/GPa) = 0.02218878
#
# Stress axis : x y z
#
# Youngs Moduli (GPa) = 46.16147 108.51935 71.54942
#
# Poissons Ratio (x) = 0.43045 0.13917
# Poissons Ratio (y) = 0.18310 0.38788
# Poissons Ratio (z) = 0.08979 0.58831
#
# Static dielectric constant tensor:
#      x y z
#    x 1.768860 0.000000 0.000000 
#    y 0.000000 1.763370 0.000000 
#    z 0.000000 0.000000 1.688000 
# 
# From -- ./inp_files/50581.got.cif
#   From: 2010.05.17/outbox.cif.g08.bks.cpg/sg71_26_cif.got.tgz:50581.got - 2010.06.03 16:22:01.
