data_PCOD9522619
_publ_section_title
;
Structure prediction by ZEFSAII (Michael W. Deem and Ramdas Pophale) SiO2 
 PCOD9522619
Probable space group: I M M M
;
_chemical_formula_sum "Si O2"
_cell_formula_units_Z 58
_cell_length_a 12.612653
_cell_length_b 14.305827
_cell_length_c 18.459615
_cell_angle_alpha 90.000000
_cell_angle_beta 90.000000
_cell_angle_gamma 90.000000
_cell_volume 3330.750144
_symmetry_space_group_name_H-M "I M M M"
_symmetry_group_IT_number 71
_symmetry_cell_setting 'orthorhombic'
loop_
_space_group_symop_operation_xyz
x,y,z
-x,-y,z
x,-y,-z
-x,y,-z
-x,-y,-z
x,y,-z
-x,y,z
x,-y,z
1/2+x,1/2+y,1/2+z
1/2-x,1/2-y,1/2+z
1/2+x,1/2-y,1/2-z
1/2-x,1/2+y,1/2-z
1/2-x,1/2-y,1/2-z
1/2+x,1/2+y,1/2-z
1/2-x,1/2+y,1/2+z
1/2+x,1/2-y,1/2+z
loop_
_atom_site_type_symbol
_atom_site_label
_atom_site_fract_x
_atom_site_fract_y
_atom_site_fract_z
Si Si1 0.000000 0.804069 0.919428
Si Si2 0.000000 0.000000 0.000000
Si Si3 0.378834 0.000000 0.414127
Si Si4 0.816615 0.689349 0.156621
Si Si5 0.374658 0.817852 0.175769
Si Si6 0.628429 0.000000 0.082797
O O1 0.101904 0.765455 0.876631
O O2 0.000000 0.758201 0.000000
O O3 0.000000 0.914682 0.937588
O O4 0.325265 0.093842 0.386585
O O5 0.500000 0.000000 0.385954
O O6 0.381515 0.000000 0.500000
O O7 0.699601 0.732058 0.153889
O O8 0.850611 0.667818 0.239254
O O9 0.500000 0.802178 0.166012
O O10 0.342523 0.907755 0.127802
O O11 0.500000 0.000000 0.078639
O O12 0.670459 0.000000 0.000000
#
# Coordination Sequence:
#
# PCOD9522619 Si02
#       6
#     8   2   8  16  16   8
#     4  10  20  39  58  90 121 156 189 243 299 362
#     4   8  24  36  60  90 138 152 178 244 324 360
#     4  11  21  35  59  89 113 154 201 257 289 347
#     4  11  21  36  63  87 121 157 207 245 297 357
#     4  10  21  38  60  86 120 163 201 251 298 359
#     4   9  19  36  58  85 115 155 208 249 299 353
#
# _framework density 17.413495000000001
#
# number of rings (size 3 to 8) (size 9 to 14) (size 15 to 20)
#    0.414    1.379    2.759    1.655    0.000    4.414 
#    2.483    2.069    0.000    0.828    0.000    0.000 
#    0.000    0.000    0.000    0.000    0.000    0.000 
#
# Total GULP energy -161484.624441 kJ/mol
# GULP energy per Si atom -5568.435326 kJ/mol
# Density = 1.737386 g / cm^3
# Si number density = 17.413495 Si / 1000 Ang^3
#
#
#
# Elastic Constant Matrix: (Units=GPa)
#
#
# Indices 1 2 3 4 5 6 
#
# 1 91.1853 58.1196 36.0252 0.0000 0.0000 0.0000
# 2 58.1196 155.5159 75.2266 0.0000 0.0000 0.0000
# 3 36.0252 75.2266 116.1448 0.0000 0.0000 0.0000
# 4 0.0000 0.0000 0.0000 45.9879 0.0000 0.0000
# 5 0.0000 0.0000 0.0000 0.0000 11.6920 0.0000
# 6 0.0000 0.0000 0.0000 0.0000 0.0000 7.0053
#
#
#
# Elastic Compliance Matrix: (Units=1/GPa)
#
#
# Indices 1 2 3 4 5 6 
#
# 1 0.014560 -0.004743 -0.001444 0.000000 0.000000 0.000000
# 2 -0.004743 0.010909 -0.005595 0.000000 0.000000 0.000000
# 3 -0.001444 -0.005595 0.012682 0.000000 0.000000 0.000000
# 4 0.000000 0.000000 0.000000 0.021745 0.000000 0.000000
# 5 0.000000 0.000000 0.000000 0.000000 0.085528 0.000000
# 6 0.000000 0.000000 0.000000 0.000000 0.000000 0.142748
#
#
# Mechanical properties :
#
#
# Convention : Reuss Voigt Hill
#
# Bulk Modulus (GPa) = 68.55284 77.95430 73.25357
# Shear Modulus (GPa) = 15.79289 25.83536 20.81412
#
# Velocity S-wave (km/s) = 3.01480 3.85598 3.46104
# Velocity P-wave (km/s) = 7.18135 8.04292 7.62432
#
# Compressibility (1/GPa) = 0.01458729
#
# Stress axis : x y z
#
# Youngs Moduli (GPa) = 68.68002 91.66798 78.85490
#
# Poissons Ratio (x) = 0.43477 0.11389
# Poissons Ratio (y) = 0.32574 0.44116
# Poissons Ratio (z) = 0.09920 0.51284
#
# Static dielectric constant tensor:
#      x y z
#    x 1.596220 0.000000 0.000000 
#    y 0.000000 1.558780 0.000000 
#    z 0.000000 0.000000 1.599530 
# 
# From -- ./inp_files/23187.got.cif
#   From: 2010.05.17/outbox.cif.g08.bks.cpg/sg71_12_cif.got.tgz:23187.got - 2010.06.03 16:22:01.
