data_PCOD9522500
_publ_section_title
;
Structure prediction by ZEFSAII (Michael W. Deem and Ramdas Pophale) SiO2 
 PCOD9522500
Probable space group: I M M M
;
_chemical_formula_sum "Si O2"
_cell_formula_units_Z 64
_cell_length_a 11.544706
_cell_length_b 27.976358
_cell_length_c 9.557249
_cell_angle_alpha 90.000000
_cell_angle_beta 90.000000
_cell_angle_gamma 90.000000
_cell_volume 3086.789082
_symmetry_space_group_name_H-M "I M M M"
_symmetry_group_IT_number 71
_symmetry_cell_setting 'orthorhombic'
loop_
_space_group_symop_operation_xyz
x,y,z
-x,-y,z
x,-y,-z
-x,y,-z
-x,-y,-z
x,y,-z
-x,y,z
x,-y,z
1/2+x,1/2+y,1/2+z
1/2-x,1/2-y,1/2+z
1/2+x,1/2-y,1/2-z
1/2-x,1/2+y,1/2-z
1/2-x,1/2-y,1/2-z
1/2+x,1/2+y,1/2-z
1/2-x,1/2+y,1/2+z
1/2+x,1/2-y,1/2+z
loop_
_atom_site_type_symbol
_atom_site_label
_atom_site_fract_x
_atom_site_fract_y
_atom_site_fract_z
Si Si1 0.139168 0.500000 0.843503
Si Si2 0.810268 0.132636 0.660201
Si Si3 0.362476 0.092613 0.840188
Si Si4 0.500000 0.444853 0.830657
Si Si5 0.630763 0.259231 0.837151
O O1 0.166386 0.546436 0.753524
O O2 0.000000 0.500000 0.857750
O O3 0.190913 0.500000 0.000000
O O4 0.772143 0.123456 0.500000
O O5 0.702667 0.135304 0.764525
O O6 0.891386 0.088669 0.707064
O O7 0.874237 0.182909 0.661156
O O8 0.500000 0.098883 0.837873
O O9 0.326143 0.086059 0.000000
O O10 0.500000 0.500000 0.780002
O O11 0.500000 0.447001 0.000000
O O12 0.500000 0.242623 0.790322
O O13 0.750000 0.250000 0.750000
O O14 0.645558 0.243471 0.000000
#
# Coordination Sequence:
#
# PCOD9522500 Si02
#       5
#     8  16  16   8  16
#     4   9  17  31  51  74 103 148 205 253 293 347
#     4  10  20  37  61  87 118 154 197 250 303 363
#     4  10  21  35  51  77 117 157 192 239 300 360
#     4   9  18  34  59  89 117 151 198 246 299 358
#     4  10  22  42  66  93 127 164 207 264 327 387
#
# _framework density 20.733519999999999
#
# number of rings (size 3 to 8) (size 9 to 14) (size 15 to 20)
#    0.000    2.250    1.250    1.125    1.750    5.500 
#    0.000    5.625    0.000    0.750    0.000    0.000 
#    0.000    0.000    0.000    0.000    0.000    0.000 
#
# Total GULP energy -178336.054001 kJ/mol
# GULP energy per Si atom -5573.001688 kJ/mol
# Density = 2.068633 g / cm^3
# Si number density = 20.733520 Si / 1000 Ang^3
#
#
#
# Elastic Constant Matrix: (Units=GPa)
#
#
# Indices 1 2 3 4 5 6 
#
# 1 126.5498 25.1425 69.2169 0.0001 -0.0002 0.0000
# 2 25.1425 47.5633 14.4375 0.0010 0.0000 0.0000
# 3 69.2169 14.4375 119.4615 -0.0001 -0.0011 0.0000
# 4 0.0001 0.0010 -0.0001 -13.8840 -0.0003 0.0000
# 5 -0.0002 0.0000 -0.0011 -0.0003 23.6347 -0.0001
# 6 0.0000 0.0000 0.0000 0.0000 -0.0001 33.4591
#
#
#
# Elastic Compliance Matrix: (Units=1/GPa)
#
#
# Indices 1 2 3 4 5 6 
#
# 1 0.012453 -0.004560 -0.006664 0.000000 0.000000 0.000000
# 2 -0.004560 0.023495 -0.000197 0.000002 0.000000 0.000000
# 3 -0.006664 -0.000197 0.012256 0.000000 0.000001 0.000000
# 4 0.000000 0.000002 0.000000 -0.072025 -0.000001 0.000000
# 5 0.000000 0.000000 0.000001 -0.000001 0.042311 0.000000
# 6 0.000000 0.000000 0.000000 0.000000 0.000000 0.029887
#
#
# Mechanical properties :
#
#
# Convention : Reuss Voigt Hill
#
# Bulk Modulus (GPa) = 39.43090 56.79650 48.11370
# Shear Modulus (GPa) = 62.75612 20.96048 41.85830
#
# Velocity S-wave (km/s) = 5.50760 3.18299 4.49806
# Velocity P-wave (km/s) = 7.71389 6.40012 7.08751
#
# Compressibility (1/GPa) = 0.02536082
#
# Stress axis : x y z
#
# Youngs Moduli (GPa) = 80.30172 42.56226 81.59208
#
# Poissons Ratio (x) = 0.19408 0.54375
# Poissons Ratio (y) = 0.36617 0.01611
# Poissons Ratio (z) = 0.53515 0.00840
#
# Static dielectric constant tensor:
#      x y z
#    x 1.796850 0.000000 0.000000 
#    y 0.000000 1.813770 0.000000 
#    z 0.000000 0.000000 1.702440 
# 
# From -- ./inp_files/3808.got.cif
#   From: 2010.05.17/outbox.cif.g08.bks.cpg/sg71_2_cif.got.tgz:3808.got - 2010.06.03 16:22:01.
