data_PCOD9522687
_publ_section_title
;
Structure prediction by ZEFSAII (Michael W. Deem and Ramdas Pophale) SiO2 
 PCOD9522687
Probable space group: I M M M
;
_chemical_formula_sum "Si O2"
_cell_formula_units_Z 88
_cell_length_a 12.992049
_cell_length_b 13.338249
_cell_length_c 20.631062
_cell_angle_alpha 90.000000
_cell_angle_beta 90.000000
_cell_angle_gamma 90.000000
_cell_volume 3575.181173
_symmetry_space_group_name_H-M "I M M M"
_symmetry_group_IT_number 71
_symmetry_cell_setting 'orthorhombic'
loop_
_space_group_symop_operation_xyz
x,y,z
-x,-y,z
x,-y,-z
-x,y,-z
-x,-y,-z
x,y,-z
-x,y,z
x,-y,z
1/2+x,1/2+y,1/2+z
1/2-x,1/2-y,1/2+z
1/2+x,1/2-y,1/2-z
1/2-x,1/2+y,1/2-z
1/2-x,1/2-y,1/2-z
1/2+x,1/2+y,1/2-z
1/2-x,1/2+y,1/2+z
1/2+x,1/2-y,1/2+z
loop_
_atom_site_type_symbol
_atom_site_label
_atom_site_fract_x
_atom_site_fract_y
_atom_site_fract_z
Si Si1 0.111485 0.166326 0.287736
Si Si2 0.333737 0.696784 0.071625
Si Si3 0.277609 0.387543 0.421928
Si Si4 0.838020 0.611400 0.247500
Si Si5 0.388403 0.116215 0.404399
Si Si6 0.000000 0.122487 0.076462
O O1 0.118645 0.145831 0.365255
O O2 0.120833 0.286741 0.278949
O O3 0.213221 0.120882 0.254966
O O4 0.000000 0.132760 0.263075
O O5 0.317766 0.814292 0.087666
O O6 0.214733 0.662915 0.068261
O O7 0.379216 0.682002 0.000000
O O8 0.290382 0.391805 0.500000
O O9 0.259773 0.500000 0.398672
O O10 0.388152 0.349295 0.394908
O O11 0.867166 0.500000 0.271265
O O12 0.875751 0.617904 0.173140
O O13 0.500000 0.159825 0.422233
O O14 0.389083 0.000000 0.423664
O O15 0.000000 0.000000 0.078755
O O16 0.000000 0.147919 0.000000
#
# Coordination Sequence:
#
# PCOD9522687 Si02
#       6
#    16  16  16  16  16   8
#     4  10  21  37  59  87 114 145 187 232 281 341
#     4  10  21  33  48  75 112 155 193 226 265 320
#     4   8  14  25  40  59  89 131 177 220 257 299
#     4   9  19  38  63  88 112 139 179 238 297 344
#     4   9  18  33  54  80 108 139 181 236 292 339
#     4   7  10  18  34  54  75 111 165 213 250 290
#
# _framework density 24.614136999999999
#
# number of rings (size 3 to 8) (size 9 to 14) (size 15 to 20)
#    0.000    3.000    0.000    1.636    1.273    3.273 
#    0.000    0.909    0.000    0.000    0.000    8.909 
#    0.000    0.000    0.000    0.000    0.000    0.000 
#
# Total GULP energy -245754.158510 kJ/mol
# GULP energy per Si atom -5585.321784 kJ/mol
# Density = 2.455811 g / cm^3
# Si number density = 24.614137 Si / 1000 Ang^3
#
#
#
# Elastic Constant Matrix: (Units=GPa)
#
#
# Indices 1 2 3 4 5 6 
#
# 1 118.4890 -1.6314 1.6550 0.0000 0.0000 0.0000
# 2 -1.6314 74.8464 -1.4348 0.0000 0.0000 0.0000
# 3 1.6550 -1.4348 78.1684 0.0000 0.0000 0.0000
# 4 0.0000 0.0000 0.0000 7.6109 0.0000 0.0000
# 5 0.0000 0.0000 0.0000 0.0000 -1.3325 0.0000
# 6 0.0000 0.0000 0.0000 0.0000 0.0000 -0.5548
#
#
#
# Elastic Compliance Matrix: (Units=1/GPa)
#
#
# Indices 1 2 3 4 5 6 
#
# 1 0.008445 0.000181 -0.000175 0.000000 0.000000 0.000000
# 2 0.000181 0.013369 0.000242 0.000000 0.000000 0.000000
# 3 -0.000175 0.000242 0.012801 0.000000 0.000000 0.000000
# 4 0.000000 0.000000 0.000000 0.131391 0.000000 0.000000
# 5 0.000000 0.000000 0.000000 0.000000 -0.750466 0.000000
# 6 0.000000 0.000000 0.000000 0.000000 0.000000 -1.802470
#
#
# Mechanical properties :
#
#
# Convention : Reuss Voigt Hill
#
# Bulk Modulus (GPa) = 28.48318 29.85349 29.16833
# Shear Modulus (GPa) = -2.10462 19.33904 8.61721
#
# Velocity S-wave (km/s) = -0.92569 2.80605 1.87310
# Velocity P-wave (km/s) = 3.23334 4.75957 4.06866
#
# Compressibility (1/GPa) = 0.03510844
#
# Stress axis : x y z
#
# Youngs Moduli (GPa) = 118.41971 74.79840 78.11861
#
# Poissons Ratio (x) = -0.01352 0.01371
# Poissons Ratio (y) = -0.02140 -0.01887
# Poissons Ratio (z) = 0.02078 -0.01807
#
# Static dielectric constant tensor:
#      x y z
#    x 1.966510 0.000000 0.000000 
#    y 0.000000 2.008970 0.000000 
#    z 0.000000 0.000000 1.940440 
# 
# From -- ./inp_files/58735.got.cif
#   From: 2010.05.17/outbox.cif.g08.bks.cpg/sg71_30_cif.got.tgz:58735.got - 2010.06.03 16:22:01.
