data_PCOD9522378
_publ_section_title
;
Structure prediction by ZEFSAII (Michael W. Deem and Ramdas Pophale) SiO2 
 PCOD9522378
Probable space group: I M M M
;
_chemical_formula_sum "Si O2"
_cell_formula_units_Z 100
_cell_length_a 30.404995
_cell_length_b 21.417693
_cell_length_c 7.472683
_cell_angle_alpha 90.000000
_cell_angle_beta 90.000000
_cell_angle_gamma 90.000000
_cell_volume 4866.247401
_symmetry_space_group_name_H-M "I M M M"
_symmetry_group_IT_number 71
_symmetry_cell_setting 'orthorhombic'
loop_
_space_group_symop_operation_xyz
x,y,z
-x,-y,z
x,-y,-z
-x,y,-z
-x,-y,-z
x,y,-z
-x,y,z
x,-y,z
1/2+x,1/2+y,1/2+z
1/2-x,1/2-y,1/2+z
1/2+x,1/2-y,1/2-z
1/2-x,1/2+y,1/2-z
1/2-x,1/2-y,1/2-z
1/2+x,1/2+y,1/2-z
1/2-x,1/2+y,1/2+z
1/2+x,1/2-y,1/2+z
loop_
_atom_site_type_symbol
_atom_site_label
_atom_site_fract_x
_atom_site_fract_y
_atom_site_fract_z
Si Si1 0.300665 0.678045 0.788285
Si Si2 0.698939 0.181808 0.215397
Si Si3 0.049499 0.859643 0.713742
Si Si4 0.550599 0.216914 0.286865
Si Si5 0.365227 0.429667 0.780512
Si Si6 0.903329 0.500000 0.000000
Si Si7 0.385010 0.106010 0.205969
O O1 0.309884 0.747713 0.715706
O O2 0.248878 0.665538 0.764192
O O3 0.330420 0.622096 0.717924
O O4 0.309532 0.681346 0.000000
O O5 0.662279 0.132427 0.271057
O O6 0.696648 0.184174 0.000000
O O7 0.047018 0.867232 0.500000
O O8 0.063871 0.788211 0.747488
O O9 0.086509 0.907005 0.778006
O O10 0.000000 0.867521 0.786070
O O11 0.551006 0.208556 0.500000
O O12 0.500000 0.209776 0.224153
O O13 0.582632 0.165682 0.206568
O O14 0.355418 0.500000 0.723385
O O15 0.364738 0.429649 0.000000
O O16 0.901922 0.445548 0.157465
O O17 0.381081 0.083773 0.000000
#
# Coordination Sequence:
#
# PCOD9522378 Si02
#       7
#    16  16  16  16  16   4  16
#     4   9  17  31  53  80 110 146 191 245 299 355
#     4   9  19  35  56  82 109 142 191 247 301 347
#     4   9  17  30  52  81 112 149 193 243 298 351
#     4  10  20  36  60  90 118 146 192 247 296 350
#     4   9  17  30  47  75 113 151 194 240 292 357
#     4  12  26  44  61  92 124 158 208 230 287 376
#     4  11  23  42  64  87 121 160 197 248 295 350
#
# _framework density 20.549716
#
# number of rings (size 3 to 8) (size 9 to 14) (size 15 to 20)
#    0.000    2.400    0.800    1.680    1.120    3.840 
#    1.440    3.200    0.000    2.400    0.000    2.240 
#    0.000    0.000    0.000    0.000    0.000    0.000 
#
# Total GULP energy -278650.050287 kJ/mol
# GULP energy per Si atom -5573.001006 kJ/mol
# Density = 2.050294 g / cm^3
# Si number density = 20.549716 Si / 1000 Ang^3
#
#
#
# Elastic Constant Matrix: (Units=GPa)
#
#
# Indices 1 2 3 4 5 6 
#
# 1 58.3361 53.3803 2.1940 0.0000 0.0000 0.0000
# 2 53.3803 98.8785 9.1927 0.0000 0.0000 0.0000
# 3 2.1940 9.1927 81.9639 0.0000 0.0000 0.0000
# 4 0.0000 0.0000 0.0000 3.3945 0.0000 0.0000
# 5 0.0000 0.0000 0.0000 0.0000 -91.0713 0.0000
# 6 0.0000 0.0000 0.0000 0.0000 0.0000 -37.2639
#
#
#
# Elastic Compliance Matrix: (Units=1/GPa)
#
#
# Indices 1 2 3 4 5 6 
#
# 1 0.033986 -0.018455 0.001160 0.000000 0.000000 0.000000
# 2 -0.018455 0.020242 -0.001776 0.000000 0.000000 0.000000
# 3 0.001160 -0.001776 0.012369 0.000000 0.000000 0.000000
# 4 0.000000 0.000000 0.000000 0.294596 0.000000 0.000000
# 5 0.000000 0.000000 0.000000 0.000000 -0.010980 0.000000
# 6 0.000000 0.000000 0.000000 0.000000 0.000000 -0.026836
#
#
# Mechanical properties :
#
#
# Convention : Reuss Voigt Hill
#
# Bulk Modulus (GPa) = 35.14511 40.96806 38.05658
# Shear Modulus (GPa) = 13.47693 -13.36071 0.05811
#
# Velocity S-wave (km/s) = 2.56368 -2.55260 0.16835
# Velocity P-wave (km/s) = 5.08949 3.36031 4.31245
#
# Compressibility (1/GPa) = 0.02845346
#
# Stress axis : x y z
#
# Youngs Moduli (GPa) = 29.42389 49.40260 80.84955
#
# Poissons Ratio (x) = 0.91175 -0.09380
# Poissons Ratio (y) = 0.54303 0.14361
# Poissons Ratio (z) = -0.03414 0.08775
#
# Static dielectric constant tensor:
#      x y z
#    x 1.733180 0.000000 0.000000 
#    y 0.000000 1.700770 0.000000 
#    z 0.000000 0.000000 1.781110 
# 
# From -- ./inp_files/17011.got.cif
#   From: 2010.05.17/outbox.cif.g08.bks.cpg/sg71_9_cif.got.tgz:17011.got - 2010.06.03 16:22:01.
