data_PCOD9522901
_publ_section_title
;
Structure prediction by ZEFSAII (Michael W. Deem and Ramdas Pophale) SiO2 
 PCOD9522901
Probable space group: I M M M
;
_chemical_formula_sum "Si O2"
_cell_formula_units_Z 116
_cell_length_a 27.592963
_cell_length_b 8.514611
_cell_length_c 27.488530
_cell_angle_alpha 90.000000
_cell_angle_beta 90.000000
_cell_angle_gamma 90.000000
_cell_volume 6458.247223
_symmetry_space_group_name_H-M "I M M M"
_symmetry_group_IT_number 71
_symmetry_cell_setting 'orthorhombic'
loop_
_space_group_symop_operation_xyz
x,y,z
-x,-y,z
x,-y,-z
-x,y,-z
-x,-y,-z
x,y,-z
-x,y,z
x,-y,z
1/2+x,1/2+y,1/2+z
1/2-x,1/2-y,1/2+z
1/2+x,1/2-y,1/2-z
1/2-x,1/2+y,1/2-z
1/2-x,1/2-y,1/2-z
1/2+x,1/2+y,1/2-z
1/2-x,1/2+y,1/2+z
1/2+x,1/2-y,1/2+z
loop_
_atom_site_type_symbol
_atom_site_label
_atom_site_fract_x
_atom_site_fract_y
_atom_site_fract_z
Si Si1 0.000000 0.204472 0.000000
Si Si2 0.420619 0.818811 0.572531
Si Si3 0.212401 0.187649 0.553390
Si Si4 0.681542 0.318309 0.575740
Si Si5 0.442825 0.681837 0.323975
Si Si6 0.129244 0.315190 0.253435
Si Si7 0.183030 0.689758 0.654631
Si Si8 0.210439 0.183106 0.812601
O O1 0.042296 0.213839 0.042176
O O2 0.365175 0.779318 0.560230
O O3 0.428186 0.786061 0.629677
O O4 0.432228 0.000000 0.561041
O O5 0.193077 0.232214 0.500000
O O6 0.267008 0.254630 0.557634
O O7 0.182759 0.249154 0.599726
O O8 0.215092 0.000000 0.556335
O O9 0.675839 0.500000 0.561657
O O10 0.685204 0.311943 0.634491
O O11 0.500000 0.700075 0.315167
O O12 0.432856 0.500000 0.336725
O O13 0.411844 0.726809 0.276785
O O14 0.118390 0.500000 0.253638
O O15 0.140622 0.262168 0.308508
O O16 0.179090 0.285087 0.223971
O O17 0.184406 0.500000 0.653068
O O18 0.234797 0.738906 0.677982
O O19 0.211036 0.000000 0.796833
#
# Coordination Sequence:
#
# PCOD9522901 Si02
#       8
#     4  16  16  16  16  16  16  16
#     4  12  29  44  57  78 101 128 177 246 299 328
#     4  12  23  40  59  75  97 130 174 229 287 333
#     4  10  21  36  54  78 106 142 183 218 255 304
#     4  10  21  36  53  76 102 134 176 220 268 324
#     4  11  24  41  58  77 103 137 178 222 273 331
#     4  11  21  33  54  81 106 137 175 216 268 323
#     4   9  20  35  51  77 110 141 176 215 259 318
#     4   9  17  31  50  73 106 138 169 211 259 316
#
# _framework density 17.96153
#
# number of rings (size 3 to 8) (size 9 to 14) (size 15 to 20)
#    0.000    1.655    2.069    3.931    0.966    5.241 
#    0.000    2.414    0.000    0.000    0.000    0.000 
#    0.000    0.552    0.000    6.069    0.000    4.414 
#
# Total GULP energy -323523.722196 kJ/mol
# GULP energy per Si atom -5577.995210 kJ/mol
# Density = 1.792065 g / cm^3
# Si number density = 17.961530 Si / 1000 Ang^3
#
#
#
# Elastic Constant Matrix: (Units=GPa)
#
#
# Indices 1 2 3 4 5 6 
#
# 1 39.5768 7.5479 36.5154 0.0000 0.0000 0.0000
# 2 7.5479 29.6575 14.9183 0.0000 0.0000 0.0000
# 3 36.5154 14.9183 114.2019 0.0000 0.0000 0.0000
# 4 0.0000 0.0000 0.0000 -40.5727 0.0000 0.0000
# 5 0.0000 0.0000 0.0000 0.0000 34.3396 0.0000
# 6 0.0000 0.0000 0.0000 0.0000 0.0000 7.3710
#
#
#
# Elastic Compliance Matrix: (Units=1/GPa)
#
#
# Indices 1 2 3 4 5 6 
#
# 1 0.036202 -0.003629 -0.011101 0.000000 0.000000 0.000000
# 2 -0.003629 0.036454 -0.003602 0.000000 0.000000 0.000000
# 3 -0.011101 -0.003602 0.012776 0.000000 0.000000 0.000000
# 4 0.000000 0.000000 0.000000 -0.024647 0.000000 0.000000
# 5 0.000000 0.000000 0.000000 0.000000 0.029121 0.000000
# 6 0.000000 0.000000 0.000000 0.000000 0.000000 0.135667
#
#
# Mechanical properties :
#
#
# Convention : Reuss Voigt Hill
#
# Bulk Modulus (GPa) = 20.50534 33.48884 26.99709
# Shear Modulus (GPa) = 17.95375 8.52454 13.23914
#
# Velocity S-wave (km/s) = 3.16502 2.18089 2.71787
# Velocity P-wave (km/s) = 4.97971 5.00270 4.99122
#
# Compressibility (1/GPa) = 0.04876779
#
# Stress axis : x y z
#
# Youngs Moduli (GPa) = 27.62270 27.43213 78.26882
#
# Poissons Ratio (x) = 0.09956 0.86889
# Poissons Ratio (y) = 0.10025 0.28189
# Poissons Ratio (z) = 0.30665 0.09880
#
# Static dielectric constant tensor:
#      x y z
#    x 1.593100 0.000000 0.000000 
#    y 0.000000 1.636570 0.000000 
#    z 0.000000 0.000000 1.645580 
# 
# From -- ./inp_files/66914.got.cif
#   From: 2010.05.17/outbox.cif.g08.bks.cpg/sg71_34_cif.got.tgz:66914.got - 2010.06.03 16:22:01.
