data_PCOD9522636
_publ_section_title
;
Structure prediction by ZEFSAII (Michael W. Deem and Ramdas Pophale) SiO2 
 PCOD9522636
Probable space group: I M M M
;
_chemical_formula_sum "Si O2"
_cell_formula_units_Z 82
_cell_length_a 11.807025
_cell_length_b 19.027074
_cell_length_c 20.088053
_cell_angle_alpha 90.000000
_cell_angle_beta 90.000000
_cell_angle_gamma 90.000000
_cell_volume 4512.844151
_symmetry_space_group_name_H-M "I M M M"
_symmetry_group_IT_number 71
_symmetry_cell_setting 'orthorhombic'
loop_
_space_group_symop_operation_xyz
x,y,z
-x,-y,z
x,-y,-z
-x,y,-z
-x,-y,-z
x,y,-z
-x,y,z
x,-y,z
1/2+x,1/2+y,1/2+z
1/2-x,1/2-y,1/2+z
1/2+x,1/2-y,1/2-z
1/2-x,1/2+y,1/2-z
1/2-x,1/2-y,1/2-z
1/2+x,1/2+y,1/2-z
1/2-x,1/2+y,1/2+z
1/2+x,1/2-y,1/2+z
loop_
_atom_site_type_symbol
_atom_site_label
_atom_site_fract_x
_atom_site_fract_y
_atom_site_fract_z
Si Si1 0.372311 0.879377 0.078872
Si Si2 0.000000 0.000000 0.000000
Si Si3 0.803068 0.000000 0.886306
Si Si4 0.276947 0.270424 0.359863
Si Si5 0.128463 0.000000 0.733921
Si Si6 0.000000 0.413433 0.194760
Si Si7 0.243743 0.638716 0.230786
Si Si8 0.500000 0.205065 0.579418
O O1 0.500000 0.888983 0.104881
O O2 0.281374 0.934325 0.106247
O O3 0.321325 0.803290 0.095408
O O4 0.375796 0.890023 0.000000
O O5 0.899746 0.000000 0.942008
O O6 0.858151 0.000000 0.813904
O O7 0.289389 0.325832 0.298706
O O8 0.243861 0.198344 0.324404
O O9 0.390943 0.252128 0.399897
O O10 0.188921 0.070096 0.710639
O O11 0.000000 0.000000 0.713928
O O12 0.112381 0.386253 0.233224
O O13 0.000000 0.500000 0.187874
O O14 0.000000 0.366612 0.125343
O O15 0.500000 0.190980 0.500000
#
# Coordination Sequence:
#
# PCOD9522636 Si02
#       8
#    16   2   8  16   8   8  16   8
#     4  11  23  38  57  82 115 154 196 240 282 341
#     4  12  24  40  58  76 124 168 192 252 302 328
#     4  12  23  39  56  84 114 156 206 240 289 346
#     4  10  22  38  58  86 116 152 196 237 298 353
#     4  12  24  36  55  84 114 150 195 236 290 357
#     4  10  20  39  65  91 118 151 202 255 307 361
#     4  10  22  38  59  85 116 151 193 245 293 355
#     4  10  22  40  62  89 123 159 197 251 307 356
#
# _framework density 18.170359000000001
#
# number of rings (size 3 to 8) (size 9 to 14) (size 15 to 20)
#    0.000    1.366    4.390    0.878    2.732    2.537 
#    3.512    0.000    0.000    0.000    0.000    0.000 
#    0.000    6.244    0.000    0.000    0.000    0.000 
#
# Total GULP energy -228444.809138 kJ/mol
# GULP energy per Si atom -5571.824613 kJ/mol
# Density = 1.812900 g / cm^3
# Si number density = 18.170359 Si / 1000 Ang^3
#
#
#
# Elastic Constant Matrix: (Units=GPa)
#
#
# Indices 1 2 3 4 5 6 
#
# 1 104.8595 51.7519 8.6032 0.0000 0.0000 0.0000
# 2 51.7519 131.9128 15.4962 0.0000 0.0000 0.0000
# 3 8.6032 15.4962 49.6887 0.0000 0.0000 0.0000
# 4 0.0000 0.0000 0.0000 0.9081 0.0000 0.0000
# 5 0.0000 0.0000 0.0000 0.0000 -18.5193 0.0000
# 6 0.0000 0.0000 0.0000 0.0000 0.0000 14.2463
#
#
#
# Elastic Compliance Matrix: (Units=1/GPa)
#
#
# Indices 1 2 3 4 5 6 
#
# 1 0.011845 -0.004574 -0.000624 0.000000 0.000000 0.000000
# 2 -0.004574 0.009635 -0.002213 0.000000 0.000000 0.000000
# 3 -0.000624 -0.002213 0.020924 0.000000 0.000000 0.000000
# 4 0.000000 0.000000 0.000000 1.101260 0.000000 0.000000
# 5 0.000000 0.000000 0.000000 0.000000 -0.053998 0.000000
# 6 0.000000 0.000000 0.000000 0.000000 0.000000 0.070194
#
#
# Mechanical properties :
#
#
# Convention : Reuss Voigt Hill
#
# Bulk Modulus (GPa) = 36.25627 48.68485 42.47056
# Shear Modulus (GPa) = 4.22342 13.36765 8.79554
#
# Velocity S-wave (km/s) = 1.52623 2.71529 2.20252
# Velocity P-wave (km/s) = 4.80653 6.05658 5.46740
#
# Compressibility (1/GPa) = 0.02758144
#
# Stress axis : x y z
#
# Youngs Moduli (GPa) = 84.42316 103.78739 47.79301
#
# Poissons Ratio (x) = 0.47469 0.02985
# Poissons Ratio (y) = 0.38613 0.10576
# Poissons Ratio (z) = 0.05272 0.22968
#
# Static dielectric constant tensor:
#      x y z
#    x 1.625320 0.000000 0.000000 
#    y 0.000000 1.640260 0.000000 
#    z 0.000000 0.000000 1.638250 
# 
# From -- ./inp_files/51772.got.cif
#   From: 2010.05.17/outbox.cif.g08.bks.cpg/sg71_26_cif.got.tgz:51772.got - 2010.06.03 16:22:01.
