data_PCOD9522864
_publ_section_title
;
Structure prediction by ZEFSAII (Michael W. Deem and Ramdas Pophale) SiO2 
 PCOD9522864
Probable space group: I M M M
;
_chemical_formula_sum "Si O2"
_cell_formula_units_Z 116
_cell_length_a 27.090514
_cell_length_b 27.512745
_cell_length_c 7.897341
_cell_angle_alpha 90.000000
_cell_angle_beta 90.000000
_cell_angle_gamma 90.000000
_cell_volume 5886.159944
_symmetry_space_group_name_H-M "I M M M"
_symmetry_group_IT_number 71
_symmetry_cell_setting 'orthorhombic'
loop_
_space_group_symop_operation_xyz
x,y,z
-x,-y,z
x,-y,-z
-x,y,-z
-x,-y,-z
x,y,-z
-x,y,z
x,-y,z
1/2+x,1/2+y,1/2+z
1/2-x,1/2-y,1/2+z
1/2+x,1/2-y,1/2-z
1/2-x,1/2+y,1/2-z
1/2-x,1/2-y,1/2-z
1/2+x,1/2+y,1/2-z
1/2-x,1/2+y,1/2+z
1/2+x,1/2-y,1/2+z
loop_
_atom_site_type_symbol
_atom_site_label
_atom_site_fract_x
_atom_site_fract_y
_atom_site_fract_z
Si Si1 0.637077 0.652853 0.699259
Si Si2 0.180775 0.945933 0.701653
Si Si3 0.786515 0.402956 0.703674
Si Si4 0.942380 0.669942 0.801472
Si Si5 0.259191 0.305325 0.703886
Si Si6 0.895611 0.572117 0.699012
Si Si7 0.444407 0.725292 0.801092
Si Si8 0.075293 0.500000 0.000000
O O1 0.635398 0.661835 0.500000
O O2 0.645210 0.595850 0.728556
O O3 0.687083 0.677875 0.768060
O O4 0.589643 0.678875 0.773699
O O5 0.175502 0.946121 0.500000
O O6 0.237296 0.931150 0.742082
O O7 0.171049 0.000000 0.767880
O O8 0.787151 0.402401 0.500000
O O9 0.779296 0.346945 0.762999
O O10 0.837796 0.427676 0.753102
O O11 0.913500 0.627868 0.706052
O O12 0.923335 0.724848 0.776357
O O13 0.000000 0.670112 0.746839
O O14 0.940621 0.658821 0.000000
O O15 0.259712 0.308318 0.500000
O O16 0.250000 0.250000 0.750000
O O17 0.900283 0.556196 0.500000
O O18 0.923173 0.541790 0.845643
O O19 0.500000 0.717791 0.733230
O O20 0.447456 0.734411 0.000000
#
# Coordination Sequence:
#
# PCOD9522864 Si02
#       8
#    16  16  16  16  16  16  16   4
#     4  10  21  37  55  82 118 153 196 242 292 354
#     4  10  21  35  57  84 113 154 200 245 293 347
#     4   9  21  37  53  79 114 152 200 242 293 351
#     4  10  21  40  64  90 119 152 196 246 298 365
#     4   9  19  34  49  74 110 150 189 232 283 345
#     4  11  24  42  64  88 118 158 200 255 312 363
#     4  10  21  37  61  91 121 155 194 240 298 359
#     4  12  26  44  61  92 120 150 206 256 309 366
#
# _framework density 19.707245
#
# number of rings (size 3 to 8) (size 9 to 14) (size 15 to 20)
#    0.000    2.069    0.690    2.690    3.862    5.517 
#    0.000    0.690    0.000    1.241    0.000    2.897 
#    0.000    0.000    0.000    0.000    0.000    0.000 
#
# Total GULP energy -323095.364843 kJ/mol
# GULP energy per Si atom -5570.609739 kJ/mol
# Density = 1.966239 g / cm^3
# Si number density = 19.707245 Si / 1000 Ang^3
#
#
#
# Elastic Constant Matrix: (Units=GPa)
#
#
# Indices 1 2 3 4 5 6 
#
# 1 30.8136 26.7607 3.1324 0.0000 0.0000 0.0000
# 2 26.7607 124.5305 6.9813 0.0000 0.0000 0.0000
# 3 3.1324 6.9813 50.4653 0.0000 0.0000 0.0000
# 4 0.0000 0.0000 0.0000 -56.3457 0.0000 0.0000
# 5 0.0000 0.0000 0.0000 0.0000 17.6880 0.0000
# 6 0.0000 0.0000 0.0000 0.0000 0.0000 4.4470
#
#
#
# Elastic Compliance Matrix: (Units=1/GPa)
#
#
# Indices 1 2 3 4 5 6 
#
# 1 0.039984 -0.008519 -0.001303 0.000000 0.000000 0.000000
# 2 -0.008519 0.009908 -0.000842 0.000000 0.000000 0.000000
# 3 -0.001303 -0.000842 0.020013 0.000000 0.000000 0.000000
# 4 0.000000 0.000000 0.000000 -0.017748 0.000000 0.000000
# 5 0.000000 0.000000 0.000000 0.000000 0.056536 0.000000
# 6 0.000000 0.000000 0.000000 0.000000 0.000000 0.224868
#
#
# Mechanical properties :
#
#
# Convention : Reuss Voigt Hill
#
# Bulk Modulus (GPa) = 20.58603 31.06199 25.82401
# Shear Modulus (GPa) = 13.47407 4.42019 8.94713
#
# Velocity S-wave (km/s) = 2.61762 1.49927 2.13304
# Velocity P-wave (km/s) = 4.42770 4.33509 4.38164
#
# Compressibility (1/GPa) = 0.04857662
#
# Stress axis : x y z
#
# Youngs Moduli (GPa) = 25.00971 100.92760 49.96763
#
# Poissons Ratio (x) = 0.85983 0.06512
# Poissons Ratio (y) = 0.21307 0.04207
# Poissons Ratio (z) = 0.03259 0.08497
#
# Static dielectric constant tensor:
#      x y z
#    x 1.718240 0.000000 0.000000 
#    y 0.000000 1.660910 0.000000 
#    z 0.000000 0.000000 1.699940 
# 
# From -- ./inp_files/15422.got.cif
#   From: 2010.05.17/outbox.cif.g08.bks.cpg/sg71_8_cif.got.tgz:15422.got - 2010.06.03 16:22:01.
