data_PCOD9522646
_publ_section_title
;
Structure prediction by ZEFSAII (Michael W. Deem and Ramdas Pophale) SiO2 
 PCOD9522646
Probable space group: I M M M
;
_chemical_formula_sum "Si O2"
_cell_formula_units_Z 64
_cell_length_a 29.003526
_cell_length_b 9.668255
_cell_length_c 11.984128
_cell_angle_alpha 90.000000
_cell_angle_beta 90.000000
_cell_angle_gamma 90.000000
_cell_volume 3360.511100
_symmetry_space_group_name_H-M "I M M M"
_symmetry_group_IT_number 71
_symmetry_cell_setting 'orthorhombic'
loop_
_space_group_symop_operation_xyz
x,y,z
-x,-y,z
x,-y,-z
-x,y,-z
-x,-y,-z
x,y,-z
-x,y,z
x,-y,z
1/2+x,1/2+y,1/2+z
1/2-x,1/2-y,1/2+z
1/2+x,1/2-y,1/2-z
1/2-x,1/2+y,1/2-z
1/2-x,1/2-y,1/2-z
1/2+x,1/2+y,1/2-z
1/2-x,1/2+y,1/2+z
1/2+x,1/2-y,1/2+z
loop_
_atom_site_type_symbol
_atom_site_label
_atom_site_fract_x
_atom_site_fract_y
_atom_site_fract_z
Si Si1 0.734091 0.000000 0.130414
Si Si2 0.432998 0.151833 0.129271
Si Si3 0.087775 0.000000 0.000000
Si Si4 0.170104 0.743384 0.369539
Si Si5 0.838428 0.000000 0.203103
Si Si6 0.000000 0.798101 0.000000
Si Si7 0.500000 0.332774 0.260527
O O1 0.709970 0.139945 0.173014
O O2 0.788568 0.000000 0.143920
O O3 0.721717 0.000000 0.000000
O O4 0.378071 0.162218 0.131383
O O5 0.455994 0.279566 0.192542
O O6 0.446755 0.000000 0.172670
O O7 0.446918 0.159863 0.000000
O O8 0.120722 0.000000 0.889995
O O9 0.050113 0.876598 0.000000
O O10 0.178930 0.785594 0.500000
O O11 0.162164 0.869090 0.285582
O O12 0.000000 0.744702 0.125103
O O13 0.500000 0.500000 0.279758
#
# Coordination Sequence:
#
# PCOD9522646 Si02
#       7
#     8  16   4  16   8   4   8
#     4  10  20  40  59  87 121 159 192 237 303 364
#     4  10  21  39  60  88 121 156 187 237 306 372
#     4  11  22  40  60  82 120 162 204 237 300 344
#     4  10  21  37  61  87 121 153 190 241 307 359
#     4  12  22  36  61  93 112 153 207 253 285 347
#     4  11  24  44  55  80 125 164 195 254 291 336
#     4  12  23  38  62  89 116 155 203 249 291 336
#
# _framework density 19.044723000000001
#
# number of rings (size 3 to 8) (size 9 to 14) (size 15 to 20)
#    0.000    1.375    3.125    3.375    1.750    2.000 
#    0.000    1.250    0.000    0.000    0.000    0.000 
#    0.000    0.000    0.000    0.000    0.000    0.000 
#
# Total GULP energy -178253.572565 kJ/mol
# GULP energy per Si atom -5570.424143 kJ/mol
# Density = 1.900138 g / cm^3
# Si number density = 19.044723 Si / 1000 Ang^3
#
#
#
# Elastic Constant Matrix: (Units=GPa)
#
#
# Indices 1 2 3 4 5 6 
#
# 1 121.6233 24.0729 21.3694 0.0000 0.0000 0.0000
# 2 24.0729 92.5701 43.8045 0.0000 0.0000 0.0000
# 3 21.3694 43.8045 87.0175 0.0000 0.0000 0.0000
# 4 0.0000 0.0000 0.0000-2784.4156 0.0000 0.0000
# 5 0.0000 0.0000 0.0000 0.0000 51.2725 0.0000
# 6 0.0000 0.0000 0.0000 0.0000 0.0000 29.4287
#
#
#
# Elastic Compliance Matrix: (Units=1/GPa)
#
#
# Indices 1 2 3 4 5 6 
#
# 1 0.008783 -0.001658 -0.001322 0.000000 0.000000 0.000000
# 2 -0.001658 0.014494 -0.006889 0.000000 0.000000 0.000000
# 3 -0.001322 -0.006889 0.015284 0.000000 0.000000 0.000000
# 4 0.000000 0.000000 0.000000 -0.000359 0.000000 0.000000
# 5 0.000000 0.000000 0.000000 0.000000 0.019504 0.000000
# 6 0.000000 0.000000 0.000000 0.000000 0.000000 0.033980
#
#
# Mechanical properties :
#
#
# Convention : Reuss Voigt Hill
#
# Bulk Modulus (GPa) = 53.12830 53.30049 53.21440
# Shear Modulus (GPa) = 42.48155 -526.61193 -242.06519
#
# Velocity S-wave (km/s) = 4.72807 -16.64673 -11.28625
# Velocity P-wave (km/s) = 7.60022 18.47801 11.90953
#
# Compressibility (1/GPa) = 0.01882236
#
# Stress axis : x y z
#
# Youngs Moduli (GPa) = 113.86118 68.99539 65.42608
#
# Poissons Ratio (x) = 0.11442 0.08649
# Poissons Ratio (y) = 0.18882 0.45071
# Poissons Ratio (z) = 0.15052 0.47530
#
# Static dielectric constant tensor:
#      x y z
#    x 1.660620 0.000000 0.000000 
#    y 0.000000 1.694590 0.000000 
#    z 0.000000 0.000000 1.665930 
# 
# From -- ./inp_files/29525.got.cif
#   From: 2010.05.17/outbox.cif.g08.bks.cpg/sg71_15_cif.got.tgz:29525.got - 2010.06.03 16:22:01.
