data_PCOD9522264
_publ_section_title
;
Structure prediction by ZEFSAII (Michael W. Deem and Ramdas Pophale) SiO2 
 PCOD9522264
Probable space group: I M M M
;
_chemical_formula_sum "Si O2"
_cell_formula_units_Z 72
_cell_length_a 14.742321
_cell_length_b 30.782441
_cell_length_c 8.720945
_cell_angle_alpha 90.000000
_cell_angle_beta 90.000000
_cell_angle_gamma 90.000000
_cell_volume 3957.605187
_symmetry_space_group_name_H-M "I M M M"
_symmetry_group_IT_number 71
_symmetry_cell_setting 'orthorhombic'
loop_
_space_group_symop_operation_xyz
x,y,z
-x,-y,z
x,-y,-z
-x,y,-z
-x,-y,-z
x,y,-z
-x,y,z
x,-y,z
1/2+x,1/2+y,1/2+z
1/2-x,1/2-y,1/2+z
1/2+x,1/2-y,1/2-z
1/2-x,1/2+y,1/2-z
1/2-x,1/2-y,1/2-z
1/2+x,1/2+y,1/2-z
1/2-x,1/2+y,1/2+z
1/2+x,1/2-y,1/2+z
loop_
_atom_site_type_symbol
_atom_site_label
_atom_site_fract_x
_atom_site_fract_y
_atom_site_fract_z
Si Si1 0.500000 0.947180 0.176125
Si Si2 0.500000 0.235056 0.683008
Si Si3 0.191140 0.549633 0.184467
Si Si4 0.304803 0.369178 0.814959
Si Si5 0.000000 0.832205 0.684525
Si Si6 0.808420 0.710050 0.316934
O O1 0.593486 0.933975 0.256313
O O2 0.500000 0.000000 0.181525
O O3 0.500000 0.933240 0.000000
O O4 0.500000 0.232186 0.500000
O O5 0.500000 0.285556 0.734286
O O6 0.409430 0.213683 0.750575
O O7 0.205327 0.500000 0.238956
O O8 0.269441 0.583164 0.229384
O O9 0.187218 0.548429 0.000000
O O10 0.408668 0.358217 0.776229
O O11 0.240926 0.333626 0.736670
O O12 0.296014 0.365059 0.000000
O O13 0.000000 0.824707 0.500000
O O14 0.810618 0.713250 0.500000
O O15 0.750000 0.750000 0.250000
#
# Coordination Sequence:
#
# PCOD9522264 Si02
#       6
#     8   8  16  16   8  16
#     4   9  17  30  51  78 107 142 183 229 284 341
#     4  12  24  39  61  87 116 153 194 237 288 349
#     4   9  18  34  56  82 114 152 191 233 284 341
#     4  10  21  37  58  84 115 152 195 240 287 343
#     4  10  20  36  58  81 112 153 195 237 285 338
#     4  12  24  39  59  85 116 150 190 238 288 344
#
# _framework density 18.192820999999999
#
# number of rings (size 3 to 8) (size 9 to 14) (size 15 to 20)
#    0.000    1.667    2.222    3.333    0.000    3.111 
#    0.000    1.667    0.000    3.333    0.000    0.000 
#    0.000    6.222    0.000    0.000    0.000    0.000 
#
# Total GULP energy -201074.065575 kJ/mol
# GULP energy per Si atom -5585.390710 kJ/mol
# Density = 1.815141 g / cm^3
# Si number density = 18.192821 Si / 1000 Ang^3
#
#
#
# Elastic Constant Matrix: (Units=GPa)
#
#
# Indices 1 2 3 4 5 6 
#
# 1 187.8529 80.2419 61.5080 -0.0002 0.0002 0.0002
# 2 80.2419 101.7519 43.0733 0.0012 -0.0006 -0.0002
# 3 61.5080 43.0733 61.0700 -0.0032 0.0076 0.0005
# 4 -0.0002 0.0012 -0.0032 22.3823 0.0009 0.0000
# 5 0.0002 -0.0006 0.0076 0.0009 20.1515 -0.0002
# 6 0.0002 -0.0002 0.0005 0.0000 -0.0002 26.1233
#
#
#
# Elastic Compliance Matrix: (Units=1/GPa)
#
#
# Indices 1 2 3 4 5 6 
#
# 1 0.009357 -0.004833 -0.006016 -0.000001 0.000002 0.000000
# 2 -0.004833 0.016507 -0.006775 -0.000002 0.000003 0.000000
# 3 -0.006016 -0.006775 0.027212 0.000004 -0.000010 0.000000
# 4 -0.000001 -0.000002 0.000004 0.044678 -0.000002 0.000000
# 5 0.000002 0.000003 -0.000010 -0.000002 0.049624 0.000000
# 6 0.000000 0.000000 0.000000 0.000000 0.000000 0.038280
#
#
# Mechanical properties :
#
#
# Convention : Reuss Voigt Hill
#
# Bulk Modulus (GPa) = 56.08825 80.03570 68.06197
# Shear Modulus (GPa) = 22.04103 24.78820 23.41462
#
# Velocity S-wave (km/s) = 3.48447 3.69525 3.59141
# Velocity P-wave (km/s) = 6.86189 7.89272 7.39529
#
# Compressibility (1/GPa) = 0.01782905
#
# Stress axis : x y z
#
# Youngs Moduli (GPa) = 106.86779 60.58084 36.74789
#
# Poissons Ratio (x) = 0.29276 0.22108
# Poissons Ratio (y) = 0.51645 0.24898
# Poissons Ratio (z) = 0.64292 0.41045
#
# Static dielectric constant tensor:
#      x y z
#    x 1.610200 0.000000 0.000000 
#    y 0.000000 1.625040 0.000000 
#    z 0.000000 0.000000 1.619280 
# 
# From -- ./inp_files/6117.got.cif
#   From: 2010.05.17/outbox.cif.g08.bks.cpg/sg71_4_cif.got.tgz:6117.got - 2010.06.03 16:22:01.
