data_PCOD9522256
_publ_section_title
;
Structure prediction by ZEFSAII (Michael W. Deem and Ramdas Pophale) SiO2 
 PCOD9522256
Probable space group: I M M M
;
_chemical_formula_sum "Si O2"
_cell_formula_units_Z 56
_cell_length_a 15.789255
_cell_length_b 7.754281
_cell_length_c 26.834036
_cell_angle_alpha 90.000000
_cell_angle_beta 90.000000
_cell_angle_gamma 90.000000
_cell_volume 3285.406952
_symmetry_space_group_name_H-M "I M M M"
_symmetry_group_IT_number 71
_symmetry_cell_setting 'orthorhombic'
loop_
_space_group_symop_operation_xyz
x,y,z
-x,-y,z
x,-y,-z
-x,y,-z
-x,-y,-z
x,y,-z
-x,y,z
x,-y,z
1/2+x,1/2+y,1/2+z
1/2-x,1/2-y,1/2+z
1/2+x,1/2-y,1/2-z
1/2-x,1/2+y,1/2-z
1/2-x,1/2-y,1/2-z
1/2+x,1/2+y,1/2-z
1/2-x,1/2+y,1/2+z
1/2+x,1/2-y,1/2+z
loop_
_atom_site_type_symbol
_atom_site_label
_atom_site_fract_x
_atom_site_fract_y
_atom_site_fract_z
Si Si1 0.216556 0.200967 0.695630
Si Si2 0.316325 0.196968 0.404376
Si Si3 0.298267 0.000000 0.944276
Si Si4 0.399992 0.000000 0.844444
Si Si5 0.000000 0.207682 0.058305
O O1 0.250000 0.250000 0.750000
O O2 0.289190 0.223674 0.653289
O O3 0.142252 0.331607 0.680490
O O4 0.191161 0.000000 0.694718
O O5 0.261625 0.334270 0.435207
O O6 0.414835 0.227429 0.415337
O O7 0.294681 0.000000 0.417514
O O8 0.369319 0.000000 0.901810
O O9 0.331986 0.000000 0.000000
O O10 0.500000 0.000000 0.839770
O O11 0.000000 0.000000 0.059713
O O12 0.000000 0.260665 0.000000
#
# Coordination Sequence:
#
# PCOD9522256 Si02
#       5
#    16  16   8   8   8
#     4  10  20  38  62  82 112 149 187 230 280 332
#     4  10  21  35  53  80 110 148 189 228 276 337
#     4  10  20  36  58  80 109 147 188 230 277 330
#     4  10  22  39  59  87 116 144 185 232 277 331
#     4  11  21  33  51  78 115 149 186 233 275 325
#
# _framework density 17.045072000000001
#
# number of rings (size 3 to 8) (size 9 to 14) (size 15 to 20)
#    0.000    1.857    2.857    1.286    0.000    3.714 
#    2.571    0.000    0.000    0.000    0.000    8.000 
#    0.000    0.000    0.000    0.000    0.000    0.000 
#
# Total GULP energy -156279.415430 kJ/mol
# GULP energy per Si atom -5581.407694 kJ/mol
# Density = 1.700628 g / cm^3
# Si number density = 17.045072 Si / 1000 Ang^3
#
#
#
# Elastic Constant Matrix: (Units=GPa)
#
#
# Indices 1 2 3 4 5 6 
#
# 1 143.1722 64.9634 69.5732 0.0000 0.0000 0.0000
# 2 64.9634 136.5259 65.6294 0.0000 0.0000 0.0000
# 3 69.5732 65.6294 129.3184 0.0000 0.0000 0.0000
# 4 0.0000 0.0000 0.0000 20.4391 0.0000 0.0000
# 5 0.0000 0.0000 0.0000 0.0000 5.3318 0.0000
# 6 0.0000 0.0000 0.0000 0.0000 0.0000 18.0460
#
#
#
# Elastic Compliance Matrix: (Units=1/GPa)
#
#
# Indices 1 2 3 4 5 6 
#
# 1 0.010286 -0.002955 -0.004034 0.000000 0.000000 0.000000
# 2 -0.002955 0.010537 -0.003758 0.000000 0.000000 0.000000
# 3 -0.004034 -0.003758 0.011810 0.000000 0.000000 0.000000
# 4 0.000000 0.000000 0.000000 0.048926 0.000000 0.000000
# 5 0.000000 0.000000 0.000000 0.000000 0.187554 0.000000
# 6 0.000000 0.000000 0.000000 0.000000 0.000000 0.055414
#
#
# Mechanical properties :
#
#
# Convention : Reuss Voigt Hill
#
# Bulk Modulus (GPa) = 89.77189 89.92760 89.84975
# Shear Modulus (GPa) = 14.29657 22.68674 18.49166
#
# Velocity S-wave (km/s) = 2.89926 3.65223 3.29731
# Velocity P-wave (km/s) = 7.99933 8.40585 8.20511
#
# Compressibility (1/GPa) = 0.01113934
#
# Stress axis : x y z
#
# Youngs Moduli (GPa) = 97.22207 94.90225 84.67237
#
# Poissons Ratio (x) = 0.28045 0.34157
# Poissons Ratio (y) = 0.28730 0.31818
# Poissons Ratio (z) = 0.39219 0.35662
#
# Static dielectric constant tensor:
#      x y z
#    x 1.529250 0.000000 0.000000 
#    y 0.000000 1.593460 0.000000 
#    z 0.000000 0.000000 1.574180 
# 
# From -- ./inp_files/11924.got.cif
#   From: 2010.05.17/outbox.cif.g08.bks.cpg/sg71_6_cif.got.tgz:11924.got - 2010.06.03 16:22:01.
