data_PCOD9522506
_publ_section_title
;
Structure prediction by ZEFSAII (Michael W. Deem and Ramdas Pophale) SiO2 
 PCOD9522506
Probable space group: I M M M
;
_chemical_formula_sum "Si O2"
_cell_formula_units_Z 66
_cell_length_a 30.082683
_cell_length_b 14.572141
_cell_length_c 7.582528
_cell_angle_alpha 90.000000
_cell_angle_beta 90.000000
_cell_angle_gamma 90.000000
_cell_volume 3323.945962
_symmetry_space_group_name_H-M "I M M M"
_symmetry_group_IT_number 71
_symmetry_cell_setting 'orthorhombic'
loop_
_space_group_symop_operation_xyz
x,y,z
-x,-y,z
x,-y,-z
-x,y,-z
-x,-y,-z
x,y,-z
-x,y,z
x,-y,z
1/2+x,1/2+y,1/2+z
1/2-x,1/2-y,1/2+z
1/2+x,1/2-y,1/2-z
1/2-x,1/2+y,1/2-z
1/2-x,1/2-y,1/2-z
1/2+x,1/2+y,1/2-z
1/2-x,1/2+y,1/2+z
1/2+x,1/2-y,1/2+z
loop_
_atom_site_type_symbol
_atom_site_label
_atom_site_fract_x
_atom_site_fract_y
_atom_site_fract_z
Si Si1 0.581885 0.198529 0.210416
Si Si2 0.500000 0.500000 0.500000
Si Si3 0.552114 0.000000 0.784561
Si Si4 0.000000 0.831107 0.282983
Si Si5 0.249054 0.398051 0.792161
Si Si6 0.681552 0.254742 0.709172
O O1 0.543000 0.268559 0.261495
O O2 0.630369 0.237018 0.252959
O O3 0.574097 0.094913 0.278956
O O4 0.578578 0.191499 0.000000
O O5 0.500000 0.419528 0.657722
O O6 0.500000 0.000000 0.738337
O O7 0.554284 0.000000 0.000000
O O8 0.000000 0.848472 0.500000
O O9 0.247981 0.500000 0.716044
O O10 0.296636 0.348798 0.775258
O O11 0.212184 0.328199 0.717419
O O12 0.239636 0.405522 0.000000
O O13 0.687369 0.256741 0.500000
#
# Coordination Sequence:
#
# PCOD9522506 Si02
#       6
#    16   2   8   8  16  16
#     4  10  20  37  61  89 122 159 198 244 303 371
#     4  12  26  44  72  88 120 168 218 272 304 368
#     4   9  16  32  59  89 118 155 196 238 292 364
#     4  10  23  44  67  92 128 167 209 260 313 363
#     4   9  19  38  58  78 110 153 195 243 301 360
#     4  10  21  35  56  84 117 149 192 245 300 356
#
# _framework density 19.855917999999999
#
# number of rings (size 3 to 8) (size 9 to 14) (size 15 to 20)
#    0.000    2.303    1.212    0.909    3.394    1.455 
#    2.182    0.000    0.000    1.455    0.000    0.000 
#    0.000    0.000    0.000    0.000    0.000    0.000 
#
# Total GULP energy -183816.629821 kJ/mol
# GULP energy per Si atom -5570.200904 kJ/mol
# Density = 1.981072 g / cm^3
# Si number density = 19.855918 Si / 1000 Ang^3
#
#
#
# Elastic Constant Matrix: (Units=GPa)
#
#
# Indices 1 2 3 4 5 6 
#
# 1 82.6227 4.9413 2.5875 0.0000 0.0000 0.0000
# 2 4.9413 103.5884 35.5535 0.0000 0.0000 0.0000
# 3 2.5875 35.5535 62.4625 0.0000 0.0000 0.0000
# 4 0.0000 0.0000 0.0000 6.3421 0.0000 0.0000
# 5 0.0000 0.0000 0.0000 0.0000 -21.5843 0.0000
# 6 0.0000 0.0000 0.0000 0.0000 0.0000 16.6479
#
#
#
# Elastic Compliance Matrix: (Units=1/GPa)
#
#
# Indices 1 2 3 4 5 6 
#
# 1 0.012140 -0.000505 -0.000215 0.000000 0.000000 0.000000
# 2 -0.000505 0.012018 -0.006820 0.000000 0.000000 0.000000
# 3 -0.000215 -0.006820 0.019900 0.000000 0.000000 0.000000
# 4 0.000000 0.000000 0.000000 0.157676 0.000000 0.000000
# 5 0.000000 0.000000 0.000000 0.000000 -0.046330 0.000000
# 6 0.000000 0.000000 0.000000 0.000000 0.000000 0.060068
#
#
# Mechanical properties :
#
#
# Convention : Reuss Voigt Hill
#
# Bulk Modulus (GPa) = 34.50887 37.20424 35.85656
# Shear Modulus (GPa) = 20.81487 13.98723 17.40105
#
# Velocity S-wave (km/s) = 3.24125 2.65700 2.96356
# Velocity P-wave (km/s) = 5.60580 5.30949 5.45965
#
# Compressibility (1/GPa) = 0.02897806
#
# Stress axis : x y z
#
# Youngs Moduli (GPa) = 82.37115 83.20564 50.25026
#
# Poissons Ratio (x) = 0.04203 0.01082
# Poissons Ratio (y) = 0.04161 0.34270
# Poissons Ratio (z) = 0.01774 0.56746
#
# Static dielectric constant tensor:
#      x y z
#    x 1.742290 0.000000 0.000000 
#    y 0.000000 1.745400 0.000000 
#    z 0.000000 0.000000 1.741210 
# 
# From -- ./inp_files/14246.got.cif
#   From: 2010.05.17/outbox.cif.g08.bks.cpg/sg71_8_cif.got.tgz:14246.got - 2010.06.03 16:22:01.
