data_PCOD9522180
_publ_section_title
;
Structure prediction by ZEFSAII (Michael W. Deem and Ramdas Pophale) SiO2 
 PCOD9522180
Probable space group: I M M M
;
_chemical_formula_sum "Si O2"
_cell_formula_units_Z 96
_cell_length_a 30.384082
_cell_length_b 19.921430
_cell_length_c 8.058764
_cell_angle_alpha 90.000000
_cell_angle_beta 90.000000
_cell_angle_gamma 90.000000
_cell_volume 4877.924419
_symmetry_space_group_name_H-M "I M M M"
_symmetry_group_IT_number 71
_symmetry_cell_setting 'orthorhombic'
loop_
_space_group_symop_operation_xyz
x,y,z
-x,-y,z
x,-y,-z
-x,y,-z
-x,-y,-z
x,y,-z
-x,y,z
x,-y,z
1/2+x,1/2+y,1/2+z
1/2-x,1/2-y,1/2+z
1/2+x,1/2-y,1/2-z
1/2-x,1/2+y,1/2-z
1/2-x,1/2-y,1/2-z
1/2+x,1/2+y,1/2-z
1/2-x,1/2+y,1/2+z
1/2+x,1/2-y,1/2+z
loop_
_atom_site_type_symbol
_atom_site_label
_atom_site_fract_x
_atom_site_fract_y
_atom_site_fract_z
Si Si1 0.621113 0.827079 0.806441
Si Si2 0.627513 0.322787 0.799392
Si Si3 0.049585 0.077148 0.800215
Si Si4 0.197366 0.576408 0.300531
Si Si5 0.228745 0.177980 0.301139
Si Si6 0.551953 0.926540 0.301666
O O1 0.617105 0.752566 0.737099
O O2 0.658372 0.875937 0.732487
O O3 0.576339 0.867296 0.788677
O O4 0.632812 0.818396 0.000000
O O5 0.589907 0.374953 0.747618
O O6 0.678253 0.332880 0.745161
O O7 0.627396 0.323953 0.000000
O O8 0.000000 0.098117 0.743735
O O9 0.056637 0.000000 0.743461
O O10 0.048293 0.076010 0.000000
O O11 0.192152 0.572254 0.500000
O O12 0.196653 0.500000 0.236295
O O13 0.241532 0.617186 0.263295
O O14 0.228896 0.177548 0.500000
O O15 0.250000 0.250000 0.250000
O O16 0.558776 0.921071 0.500000
O O17 0.500000 0.924791 0.272682
O O18 0.568837 0.000000 0.247631
#
# Coordination Sequence:
#
# PCOD9522180 Si02
#       6
#    16  16  16  16  16  16
#     4  10  20  36  55  78 110 146 184 227 276 333
#     4  10  22  38  58  85 116 149 188 232 282 342
#     4   9  20  40  63  87 117 152 192 239 290 348
#     4  10  21  38  59  83 114 151 190 234 286 340
#     4  11  22  39  60  82 115 154 194 240 290 346
#     4   9  19  35  52  73 105 142 181 228 277 324
#
# _framework density 19.680501
#
# number of rings (size 3 to 8) (size 9 to 14) (size 15 to 20)
#    0.000    2.167    1.667    2.000    0.000    6.333 
#    0.000    8.333    0.000    0.000    0.000    0.000 
#    0.000    0.000    0.000    0.000    0.000    0.000 
#
# Total GULP energy -267727.505790 kJ/mol
# GULP energy per Si atom -5577.656371 kJ/mol
# Density = 1.963571 g / cm^3
# Si number density = 19.680501 Si / 1000 Ang^3
#
#
#
# Elastic Constant Matrix: (Units=GPa)
#
#
# Indices 1 2 3 4 5 6 
#
# 1 127.1897 92.5592 12.3033 0.0000 0.0000 0.0000
# 2 92.5592 160.8738 14.6169 0.0000 0.0000 0.0000
# 3 12.3033 14.6169 11.1540 0.0000 0.0000 0.0000
# 4 0.0000 0.0000 0.0000 16.8541 0.0000 0.0000
# 5 0.0000 0.0000 0.0000 0.0000 30.4710 0.0000
# 6 0.0000 0.0000 0.0000 0.0000 0.0000 37.4772
#
#
#
# Elastic Compliance Matrix: (Units=1/GPa)
#
#
# Indices 1 2 3 4 5 6 
#
# 1 0.013814 -0.007450 -0.005473 0.000000 0.000000 0.000000
# 2 -0.007450 0.011075 -0.006295 0.000000 0.000000 0.000000
# 3 -0.005473 -0.006295 0.103940 0.000000 0.000000 0.000000
# 4 0.000000 0.000000 0.000000 0.059333 0.000000 0.000000
# 5 0.000000 0.000000 0.000000 0.000000 0.032818 0.000000
# 6 0.000000 0.000000 0.000000 0.000000 0.000000 0.026683
#
#
# Mechanical properties :
#
#
# Convention : Reuss Voigt Hill
#
# Bulk Modulus (GPa) = 11.06301 59.79737 35.43019
# Shear Modulus (GPa) = 15.81128 28.94300 22.37714
#
# Velocity S-wave (km/s) = 2.83750 3.83906 3.37563
# Velocity P-wave (km/s) = 4.04583 7.07822 5.76498
#
# Compressibility (1/GPa) = 0.09039132
#
# Stress axis : x y z
#
# Youngs Moduli (GPa) = 72.39284 90.29703 9.62090
#
# Poissons Ratio (x) = 0.67274 0.05266
# Poissons Ratio (y) = 0.53935 0.06056
# Poissons Ratio (z) = 0.39624 0.56840
#
# Static dielectric constant tensor:
#      x y z
#    x 1.699670 0.000000 0.000000 
#    y 0.000000 1.691160 0.000000 
#    z 0.000000 0.000000 1.712970 
# 
# From -- ./inp_files/10902.got.cif
#   From: 2010.05.17/outbox.cif.g08.bks.cpg/sg71_6_cif.got.tgz:10902.got - 2010.06.03 16:22:01.
