data_PCOD9522775
_publ_section_title
;
Structure prediction by ZEFSAII (Michael W. Deem and Ramdas Pophale) SiO2 
 PCOD9522775
Probable space group: I M M M
;
_chemical_formula_sum "Si O2"
_cell_formula_units_Z 72
_cell_length_a 17.787156
_cell_length_b 24.959303
_cell_length_c 7.548077
_cell_angle_alpha 90.000000
_cell_angle_beta 90.000000
_cell_angle_gamma 90.000000
_cell_volume 3351.006646
_symmetry_space_group_name_H-M "I M M M"
_symmetry_group_IT_number 71
_symmetry_cell_setting 'orthorhombic'
loop_
_space_group_symop_operation_xyz
x,y,z
-x,-y,z
x,-y,-z
-x,y,-z
-x,-y,-z
x,y,-z
-x,y,z
x,-y,z
1/2+x,1/2+y,1/2+z
1/2-x,1/2-y,1/2+z
1/2+x,1/2-y,1/2-z
1/2-x,1/2+y,1/2-z
1/2-x,1/2-y,1/2-z
1/2+x,1/2+y,1/2-z
1/2-x,1/2+y,1/2+z
1/2+x,1/2-y,1/2+z
loop_
_atom_site_type_symbol
_atom_site_label
_atom_site_fract_x
_atom_site_fract_y
_atom_site_fract_z
Si Si1 0.500000 0.561968 0.286728
Si Si2 0.198051 0.439966 0.706358
Si Si3 0.586935 0.150625 0.216367
Si Si4 0.154055 0.121240 0.705452
Si Si5 0.087490 0.229389 0.716284
O O1 0.500000 0.500000 0.231788
O O2 0.500000 0.564070 0.500000
O O3 0.574541 0.591289 0.220743
O O4 0.177247 0.444997 0.500000
O O5 0.197094 0.500000 0.783140
O O6 0.140338 0.396465 0.783046
O O7 0.280677 0.414214 0.711709
O O8 0.500000 0.142460 0.266279
O O9 0.609841 0.210754 0.271935
O O10 0.589387 0.151141 0.000000
O O11 0.174520 0.126481 0.500000
O O12 0.139517 0.180855 0.779499
O O13 0.087991 0.227784 0.500000
O O14 0.000000 0.220605 0.768328
#
# Coordination Sequence:
#
# PCOD9522775 Si02
#       5
#     8  16  16  16  16
#     4  11  23  37  53  75 105 141 178 217 260 302
#     4  10  21  35  50  75 110 140 173 220 265 306
#     4   8  15  30  54  79 102 134 172 215 269 318
#     4  11  21  34  54  78 104 140 180 214 254 310
#     4   8  14  28  50  77 104 129 167 217 261 303
#
# _framework density 21.486082
#
# number of rings (size 3 to 8) (size 9 to 14) (size 15 to 20)
#    0.000    2.556    1.111    3.000    0.000    5.333 
#    0.000    2.222    0.000    2.000    0.000    1.556 
#    0.000    0.000    0.000    0.000    0.000    0.000 
#
# Total GULP energy -200986.363087 kJ/mol
# GULP energy per Si atom -5582.954530 kJ/mol
# Density = 2.143718 g / cm^3
# Si number density = 21.486082 Si / 1000 Ang^3
#
#
#
# Elastic Constant Matrix: (Units=GPa)
#
#
# Indices 1 2 3 4 5 6 
#
# 1 71.2358 85.2278 -12.1078 0.0000 0.0000 0.0000
# 2 85.2278 225.9950 2.8144 0.0000 0.0000 0.0000
# 3 -12.1078 2.8144 53.3161 0.0000 0.0000 0.0000
# 4 0.0000 0.0000 0.0000 6.4926 0.0000 0.0000
# 5 0.0000 0.0000 0.0000 0.0000 0.5953 0.0000
# 6 0.0000 0.0000 0.0000 0.0000 0.0000 371.8460
#
#
#
# Elastic Compliance Matrix: (Units=1/GPa)
#
#
# Indices 1 2 3 4 5 6 
#
# 1 0.027902 -0.010608 0.006896 0.000000 0.000000 0.000000
# 2 -0.010608 0.008461 -0.002856 0.000000 0.000000 0.000000
# 3 0.006896 -0.002856 0.020473 0.000000 0.000000 0.000000
# 4 0.000000 0.000000 0.000000 0.154021 0.000000 0.000000
# 5 0.000000 0.000000 0.000000 0.000000 1.679923 0.000000
# 6 0.000000 0.000000 0.000000 0.000000 0.000000 0.002689
#
#
# Mechanical properties :
#
#
# Convention : Reuss Voigt Hill
#
# Bulk Modulus (GPa) = 22.88296 55.82400 39.35348
# Shear Modulus (GPa) = 2.60258 94.09428 48.34843
#
# Velocity S-wave (km/s) = 1.10178 6.62482 4.74880
# Velocity P-wave (km/s) = 3.50597 9.19541 6.95871
#
# Compressibility (1/GPa) = 0.04370065
#
# Stress axis : x y z
#
# Youngs Moduli (GPa) = 35.83956 118.18781 48.84501
#
# Poissons Ratio (x) = 1.25378 -0.33685
# Poissons Ratio (y) = 0.38020 0.13949
# Poissons Ratio (z) = -0.24716 0.33751
#
# Static dielectric constant tensor:
#      x y z
#    x 1.727120 0.000000 0.000000 
#    y 0.000000 1.797220 0.000000 
#    z 0.000000 0.000000 1.859830 
# 
# From -- ./inp_files/7949.got.cif
#   From: 2010.05.17/outbox.cif.g08.bks.cpg/sg71_4_cif.got.tgz:7949.got - 2010.06.03 16:22:01.
