data_PCOD9522331
_publ_section_title
;
Structure prediction by ZEFSAII (Michael W. Deem and Ramdas Pophale) SiO2 
 PCOD9522331
Probable space group: I M M M
;
_chemical_formula_sum "Si O2"
_cell_formula_units_Z 64
_cell_length_a 8.077035
_cell_length_b 23.051710
_cell_length_c 17.781861
_cell_angle_alpha 90.000000
_cell_angle_beta 90.000000
_cell_angle_gamma 90.000000
_cell_volume 3310.795248
_symmetry_space_group_name_H-M "I M M M"
_symmetry_group_IT_number 71
_symmetry_cell_setting 'orthorhombic'
loop_
_space_group_symop_operation_xyz
x,y,z
-x,-y,z
x,-y,-z
-x,y,-z
-x,-y,-z
x,y,-z
-x,y,z
x,-y,z
1/2+x,1/2+y,1/2+z
1/2-x,1/2-y,1/2+z
1/2+x,1/2-y,1/2-z
1/2-x,1/2+y,1/2-z
1/2-x,1/2-y,1/2-z
1/2+x,1/2+y,1/2-z
1/2-x,1/2+y,1/2+z
1/2+x,1/2-y,1/2+z
loop_
_atom_site_type_symbol
_atom_site_label
_atom_site_fract_x
_atom_site_fract_y
_atom_site_fract_z
Si Si1 0.817226 0.140430 0.409440
Si Si2 0.000000 0.433096 0.091939
Si Si3 0.200927 0.373714 0.587931
Si Si4 0.805253 0.244431 0.164193
Si Si5 0.693886 0.000000 0.091566
O O1 0.814264 0.139275 0.500000
O O2 0.665097 0.100595 0.382780
O O3 0.787666 0.205997 0.382812
O O4 0.000000 0.120749 0.384558
O O5 0.000000 0.500000 0.115675
O O6 0.000000 0.432441 0.000000
O O7 0.246368 0.366688 0.500000
O O8 0.265663 0.319464 0.634027
O O9 0.262513 0.437277 0.614608
O O10 0.000000 0.374111 0.591376
O O11 0.750000 0.250000 0.250000
O O12 0.000000 0.255440 0.157242
O O13 0.500000 0.000000 0.113099
O O14 0.698197 0.000000 0.000000
#
# Coordination Sequence:
#
# PCOD9522331 Si02
#       5
#    16   8  16  16   8
#     4  10  20  36  59  86 116 148 187 234 283 336
#     4   9  18  34  58  88 118 147 184 230 280 336
#     4   9  17  32  56  84 111 143 183 224 273 331
#     4  12  24  37  54  77 110 147 190 239 287 341
#     4   7  12  26  51  81 111 141 176 217 260 322
#
# _framework density 19.330703
#
# number of rings (size 3 to 8) (size 9 to 14) (size 15 to 20)
#    0.000    2.250    1.250    4.500    0.000    4.000 
#    0.000    3.125    2.750    2.250    0.000    0.000 
#    0.000    0.000    0.000    0.000    0.000    0.000 
#
# Total GULP energy -178535.260610 kJ/mol
# GULP energy per Si atom -5579.226894 kJ/mol
# Density = 1.928671 g / cm^3
# Si number density = 19.330703 Si / 1000 Ang^3
#
#
#
# Elastic Constant Matrix: (Units=GPa)
#
#
# Indices 1 2 3 4 5 6 
#
# 1 117.9466 59.2842 21.4035 0.0000 0.0000 0.0000
# 2 59.2842 170.4180 32.0990 0.0000 0.0000 0.0000
# 3 21.4035 32.0990 22.7515 0.0000 0.0000 0.0000
# 4 0.0000 0.0000 0.0000 -7.2397 0.0000 0.0000
# 5 0.0000 0.0000 0.0000 0.0000 18.4589 0.0000
# 6 0.0000 0.0000 0.0000 0.0000 0.0000 27.3316
#
#
#
# Elastic Compliance Matrix: (Units=1/GPa)
#
#
# Indices 1 2 3 4 5 6 
#
# 1 0.010983 -0.002553 -0.006730 0.000000 0.000000 0.000000
# 2 -0.002553 0.008585 -0.009711 0.000000 0.000000 0.000000
# 3 -0.006730 -0.009711 0.063985 0.000000 0.000000 0.000000
# 4 0.000000 0.000000 0.000000 -0.138127 0.000000 0.000000
# 5 0.000000 0.000000 0.000000 0.000000 0.054174 0.000000
# 6 0.000000 0.000000 0.000000 0.000000 0.000000 0.036588
#
#
# Mechanical properties :
#
#
# Convention : Reuss Voigt Hill
#
# Bulk Modulus (GPa) = 21.94658 59.63217 40.78937
# Shear Modulus (GPa) = 55.95117 20.93213 38.44165
#
# Velocity S-wave (km/s) = 5.38582 3.29423 4.46425
# Velocity P-wave (km/s) = 7.07488 6.73681 6.90791
#
# Compressibility (1/GPa) = 0.04556519
#
# Stress axis : x y z
#
# Youngs Moduli (GPa) = 91.04986 116.48121 15.62871
#
# Poissons Ratio (x) = 0.29738 0.10519
# Poissons Ratio (y) = 0.23245 0.15176
# Poissons Ratio (z) = 0.61279 1.13109
#
# Static dielectric constant tensor:
#      x y z
#    x 1.698090 0.000000 0.000000 
#    y 0.000000 1.657510 0.000000 
#    z 0.000000 0.000000 1.632090 
# 
# From -- ./inp_files/41888.got.cif
#   From: 2010.05.17/outbox.cif.g08.bks.cpg/sg71_21_cif.got.tgz:41888.got - 2010.06.03 16:22:01.
