data_PCOD9522733
_publ_section_title
;
Structure prediction by ZEFSAII (Michael W. Deem and Ramdas Pophale) SiO2 
 PCOD9522733
Probable space group: I M M M
;
_chemical_formula_sum "Si O2"
_cell_formula_units_Z 64
_cell_length_a 23.507380
_cell_length_b 7.884454
_cell_length_c 17.694887
_cell_angle_alpha 90.000000
_cell_angle_beta 90.000000
_cell_angle_gamma 90.000000
_cell_volume 3279.620898
_symmetry_space_group_name_H-M "I M M M"
_symmetry_group_IT_number 71
_symmetry_cell_setting 'orthorhombic'
loop_
_space_group_symop_operation_xyz
x,y,z
-x,-y,z
x,-y,-z
-x,y,-z
-x,-y,-z
x,y,-z
-x,y,z
x,-y,z
1/2+x,1/2+y,1/2+z
1/2-x,1/2-y,1/2+z
1/2+x,1/2-y,1/2-z
1/2-x,1/2+y,1/2-z
1/2-x,1/2-y,1/2-z
1/2+x,1/2+y,1/2-z
1/2-x,1/2+y,1/2+z
1/2+x,1/2-y,1/2+z
loop_
_atom_site_type_symbol
_atom_site_label
_atom_site_fract_x
_atom_site_fract_y
_atom_site_fract_z
Si Si1 0.737323 0.796495 0.664201
Si Si2 0.565317 0.000000 0.092425
Si Si3 0.354844 0.694819 0.090799
Si Si4 0.622759 0.203760 0.412965
Si Si5 0.000000 0.201664 0.913477
O O1 0.750000 0.750000 0.750000
O O2 0.792188 0.745458 0.615451
O O3 0.677099 0.730384 0.633155
O O4 0.734580 0.000000 0.658639
O O5 0.598911 0.831420 0.117379
O O6 0.500000 0.000000 0.116840
O O7 0.565746 0.000000 0.000000
O O8 0.364095 0.500000 0.117435
O O9 0.356902 0.690756 0.000000
O O10 0.625179 0.267318 0.500000
O O11 0.560572 0.244953 0.379865
O O12 0.626708 0.000000 0.416034
O O13 0.000000 0.000000 0.917276
O O14 0.000000 0.272410 0.000000
#
# Coordination Sequence:
#
# PCOD9522733 Si02
#       5
#    16   8  16  16   8
#     4  10  21  34  52  76 104 137 174 218 265 314
#     4   9  18  32  54  84 110 135 172 218 268 318
#     4   9  18  34  55  79 108 139 176 220 264 314
#     4   9  17  32  54  76 100 135 175 211 254 309
#     4   9  17  29  47  77 109 131 162 211 260 305
#
# _framework density 19.51445
#
# number of rings (size 3 to 8) (size 9 to 14) (size 15 to 20)
#    0.000    2.750    0.000    1.125    1.750    6.000 
#    0.000    2.500    2.750    0.000    0.000    0.000 
#    0.000    0.000    0.000    0.000    0.000    0.000 
#
# Total GULP energy -178368.839378 kJ/mol
# GULP energy per Si atom -5574.026231 kJ/mol
# Density = 1.947003 g / cm^3
# Si number density = 19.514450 Si / 1000 Ang^3
#
#
#
# Elastic Constant Matrix: (Units=GPa)
#
#
# Indices 1 2 3 4 5 6 
#
# 1 230.6312 64.7668 43.8628 0.0000 0.0000 0.0000
# 2 64.7668 61.5484 10.9797 0.0000 0.0000 0.0000
# 3 43.8628 10.9797 25.7971 0.0000 0.0000 0.0000
# 4 0.0000 0.0000 0.0000 16.1858 0.0000 0.0000
# 5 0.0000 0.0000 0.0000 0.0000 -1.5835 0.0000
# 6 0.0000 0.0000 0.0000 0.0000 0.0000 26.6862
#
#
#
# Elastic Compliance Matrix: (Units=1/GPa)
#
#
# Indices 1 2 3 4 5 6 
#
# 1 0.008425 -0.006829 -0.011419 0.000000 0.000000 0.000000
# 2 -0.006829 0.023117 0.001772 0.000000 0.000000 0.000000
# 3 -0.011419 0.001772 0.057426 0.000000 0.000000 0.000000
# 4 0.000000 0.000000 0.000000 0.061783 0.000000 0.000000
# 5 0.000000 0.000000 0.000000 0.000000 -0.631504 0.000000
# 6 0.000000 0.000000 0.000000 0.000000 0.000000 0.037473
#
#
# Mechanical properties :
#
#
# Convention : Reuss Voigt Hill
#
# Bulk Modulus (GPa) = 17.85190 61.91058 39.88124
# Shear Modulus (GPa) = -12.76629 21.48220 4.35795
#
# Velocity S-wave (km/s) = -2.56050 3.32148 1.49601
# Velocity P-wave (km/s) = 0.65295 6.81939 4.84409
#
# Compressibility (1/GPa) = 0.05601646
#
# Stress axis : x y z
#
# Youngs Moduli (GPa) = 118.68828 43.25775 17.41375
#
# Poissons Ratio (x) = 0.29540 0.19885
# Poissons Ratio (y) = 0.81051 -0.03086
# Poissons Ratio (z) = 1.35533 -0.07666
#
# Static dielectric constant tensor:
#      x y z
#    x 1.698280 0.000000 0.000000 
#    y 0.000000 1.701250 0.000000 
#    z 0.000000 0.000000 1.706450 
# 
# From -- ./inp_files/7508.got.cif
#   From: 2010.05.17/outbox.cif.g08.bks.cpg/sg71_4_cif.got.tgz:7508.got - 2010.06.03 16:22:01.
