data_PCOD9522674
_publ_section_title
;
Structure prediction by ZEFSAII (Michael W. Deem and Ramdas Pophale) SiO2 
 PCOD9522674
Probable space group: I M M M
;
_chemical_formula_sum "Si O2"
_cell_formula_units_Z 66
_cell_length_a 15.362753
_cell_length_b 9.152475
_cell_length_c 24.295846
_cell_angle_alpha 90.000000
_cell_angle_beta 90.000000
_cell_angle_gamma 90.000000
_cell_volume 3416.171188
_symmetry_space_group_name_H-M "I M M M"
_symmetry_group_IT_number 71
_symmetry_cell_setting 'orthorhombic'
loop_
_space_group_symop_operation_xyz
x,y,z
-x,-y,z
x,-y,-z
-x,y,-z
-x,-y,-z
x,y,-z
-x,y,z
x,-y,z
1/2+x,1/2+y,1/2+z
1/2-x,1/2-y,1/2+z
1/2+x,1/2-y,1/2-z
1/2-x,1/2+y,1/2-z
1/2-x,1/2-y,1/2-z
1/2+x,1/2+y,1/2-z
1/2-x,1/2+y,1/2+z
1/2+x,1/2-y,1/2+z
loop_
_atom_site_type_symbol
_atom_site_label
_atom_site_fract_x
_atom_site_fract_y
_atom_site_fract_z
Si Si1 0.000000 0.327716 0.295240
Si Si2 0.500000 0.500000 0.500000
Si Si3 0.347481 0.257375 0.500000
Si Si4 0.344390 0.175834 0.120149
Si Si5 0.661701 0.833425 0.377453
Si Si6 0.645800 0.165660 0.000000
Si Si7 0.000000 0.174214 0.820938
O O1 0.915904 0.301401 0.333268
O O2 0.000000 0.227291 0.241907
O O3 0.000000 0.500000 0.279245
O O4 0.423761 0.374275 0.500000
O O5 0.352208 0.169437 0.443275
O O6 0.251388 0.330589 0.500000
O O7 0.254498 0.257012 0.133004
O O8 0.377740 0.228660 0.059763
O O9 0.328807 0.000000 0.115564
O O10 0.584922 0.741044 0.350087
O O11 0.660523 0.000000 0.357408
O O12 0.612472 0.000000 0.000000
O O13 0.000000 0.000000 0.826420
#
# Coordination Sequence:
#
# PCOD9522674 Si02
#       7
#     8   2   8  16  16   8   8
#     4  10  22  42  62  88 119 155 201 260 303 350
#     4  12  20  28  54  88 116 166 190 244 276 346
#     4  10  21  32  57  88 124 157 194 231 293 355
#     4   9  19  36  63  91 123 158 198 241 300 358
#     4  11  23  40  61  89 124 160 196 246 298 359
#     4   8  14  30  53  88 123 149 187 233 279 348
#     4  12  27  42  61  83 114 156 210 253 300 361
#
# _framework density 19.319875
#
# number of rings (size 3 to 8) (size 9 to 14) (size 15 to 20)
#    0.000    1.939    0.606    2.909    5.091    2.424 
#    0.000    4.242    0.000    0.000    0.000    5.939 
#    0.000    0.000    0.000    0.000    0.000    0.000 
#
# Total GULP energy -183961.532596 kJ/mol
# GULP energy per Si atom -5574.591897 kJ/mol
# Density = 1.927590 g / cm^3
# Si number density = 19.319875 Si / 1000 Ang^3
#
#
#
# Elastic Constant Matrix: (Units=GPa)
#
#
# Indices 1 2 3 4 5 6 
#
# 1 114.7182 69.4698 59.7127 0.0000 0.0000 0.0000
# 2 69.4698 122.1728 56.7664 0.0000 0.0000 0.0000
# 3 59.7127 56.7664 108.5368 0.0000 0.0000 0.0000
# 4 0.0000 0.0000 0.0000 -7.5028 0.0000 0.0000
# 5 0.0000 0.0000 0.0000 0.0000 26.6808 0.0000
# 6 0.0000 0.0000 0.0000 0.0000 0.0000 17.8647
#
#
#
# Elastic Compliance Matrix: (Units=1/GPa)
#
#
# Indices 1 2 3 4 5 6 
#
# 1 0.015139 -0.006259 -0.005055 0.000000 0.000000 0.000000
# 2 -0.006259 0.013401 -0.003565 0.000000 0.000000 0.000000
# 3 -0.005055 -0.003565 0.013859 0.000000 0.000000 0.000000
# 4 0.000000 0.000000 0.000000 -0.133284 0.000000 0.000000
# 5 0.000000 0.000000 0.000000 0.000000 0.037480 0.000000
# 6 0.000000 0.000000 0.000000 0.000000 0.000000 0.055976
#
#
# Mechanical properties :
#
#
# Convention : Reuss Voigt Hill
#
# Bulk Modulus (GPa) = 79.11621 79.70282 79.40952
# Shear Modulus (GPa) = 136.82361 18.04048 77.43204
#
# Velocity S-wave (km/s) = 8.42460 3.05909 6.33766
# Velocity P-wave (km/s) = 11.64781 7.33630 9.73377
#
# Compressibility (1/GPa) = 0.01263963
#
# Stress axis : x y z
#
# Youngs Moduli (GPa) = 66.05579 74.62190 72.15457
#
# Poissons Ratio (x) = 0.46709 0.36474
# Poissons Ratio (y) = 0.41347 0.25724
# Poissons Ratio (z) = 0.33391 0.26604
#
# Static dielectric constant tensor:
#      x y z
#    x 1.640160 0.000000 0.000000 
#    y 0.000000 1.662460 0.000000 
#    z 0.000000 0.000000 1.700740 
# 
# From -- ./inp_files/59523.got.cif
#   From: 2010.05.17/outbox.cif.g08.bks.cpg/sg71_30_cif.got.tgz:59523.got - 2010.06.03 16:22:01.
