data_PCOD9522623
_publ_section_title
;
Structure prediction by ZEFSAII (Michael W. Deem and Ramdas Pophale) SiO2 
 PCOD9522623
Probable space group: I M M M
;
_chemical_formula_sum "Si O2"
_cell_formula_units_Z 88
_cell_length_a 20.306588
_cell_length_b 25.702213
_cell_length_c 9.054541
_cell_angle_alpha 90.000000
_cell_angle_beta 90.000000
_cell_angle_gamma 90.000000
_cell_volume 4725.784521
_symmetry_space_group_name_H-M "I M M M"
_symmetry_group_IT_number 71
_symmetry_cell_setting 'orthorhombic'
loop_
_space_group_symop_operation_xyz
x,y,z
-x,-y,z
x,-y,-z
-x,y,-z
-x,-y,-z
x,y,-z
-x,y,z
x,-y,z
1/2+x,1/2+y,1/2+z
1/2-x,1/2-y,1/2+z
1/2+x,1/2-y,1/2-z
1/2-x,1/2+y,1/2-z
1/2-x,1/2-y,1/2-z
1/2+x,1/2+y,1/2-z
1/2-x,1/2+y,1/2+z
1/2+x,1/2-y,1/2+z
loop_
_atom_site_type_symbol
_atom_site_label
_atom_site_fract_x
_atom_site_fract_y
_atom_site_fract_z
Si Si1 0.610068 0.844248 0.833605
Si Si2 0.000000 0.830569 0.676740
Si Si3 0.000000 0.719347 0.826403
Si Si4 0.920586 0.559410 0.836126
Si Si5 0.874245 0.114573 0.820589
Si Si6 0.421812 0.500000 0.321099
Si Si7 0.758430 0.194416 0.829226
O O1 0.563900 0.813660 0.719878
O O2 0.604139 0.904307 0.792412
O O3 0.685679 0.829149 0.822969
O O4 0.586676 0.833547 0.000000
O O5 0.000000 0.771329 0.730780
O O6 0.063576 0.857645 0.746969
O O7 0.000000 0.834136 0.500000
O O8 0.000000 0.730734 0.000000
O O9 0.899540 0.500000 0.820409
O O10 0.000000 0.560465 0.833917
O O11 0.900129 0.578156 0.000000
O O12 0.810981 0.150397 0.776932
O O13 0.883124 0.053263 0.778557
O O14 0.878120 0.116242 0.000000
O O15 0.500000 0.500000 0.272387
O O16 0.424590 0.500000 0.500000
O O17 0.750000 0.250000 0.750000
O O18 0.776117 0.205245 0.000000
#
# Coordination Sequence:
#
# PCOD9522623 Si02
#       7
#    16   8   8  16  16   8  16
#     4  11  22  37  56  86 120 148 187 246 304 347
#     4  12  24  37  57  89 120 148 186 245 300 348
#     4  12  24  38  58  84 112 154 201 242 288 357
#     4   9  18  34  56  81 110 148 193 233 273 336
#     4  10  20  39  63  88 117 158 203 240 291 365
#     4   9  16  32  64  96 118 149 196 249 291 348
#     4  10  23  40  59  85 118 156 198 244 297 358
#
# _framework density 18.621247
#
# number of rings (size 3 to 8) (size 9 to 14) (size 15 to 20)
#    0.000    1.727    1.818    3.818    0.000    5.455 
#    1.636    1.818    0.000    0.000    0.000    0.000 
#    0.000    0.000    0.000    0.000    0.000    0.000 
#
# Total GULP energy -245326.916588 kJ/mol
# GULP energy per Si atom -5575.611741 kJ/mol
# Density = 1.857886 g / cm^3
# Si number density = 18.621247 Si / 1000 Ang^3
#
#
#
# Elastic Constant Matrix: (Units=GPa)
#
#
# Indices 1 2 3 4 5 6 
#
# 1 84.2131 52.9562 28.0639 0.0000 0.0000 0.0000
# 2 52.9562 135.6818 30.6321 0.0000 0.0000 0.0000
# 3 28.0639 30.6321 33.1416 0.0000 0.0000 0.0000
# 4 0.0000 0.0000 0.0000 29.6601 0.0000 0.0000
# 5 0.0000 0.0000 0.0000 0.0000 -8.1683 0.0000
# 6 0.0000 0.0000 0.0000 0.0000 0.0000 42.1494
#
#
#
# Elastic Compliance Matrix: (Units=1/GPa)
#
#
# Indices 1 2 3 4 5 6 
#
# 1 0.018639 -0.004690 -0.011448 0.000000 0.000000 0.000000
# 2 -0.004690 0.010494 -0.005728 0.000000 0.000000 0.000000
# 3 -0.011448 -0.005728 0.045162 0.000000 0.000000 0.000000
# 4 0.000000 0.000000 0.000000 0.033715 0.000000 0.000000
# 5 0.000000 0.000000 0.000000 0.000000 -0.122424 0.000000
# 6 0.000000 0.000000 0.000000 0.000000 0.000000 0.023725
#
#
# Mechanical properties :
#
#
# Convention : Reuss Voigt Hill
#
# Bulk Modulus (GPa) = 32.71992 52.92676 42.82334
# Shear Modulus (GPa) = 79.07537 22.15384 50.61460
#
# Velocity S-wave (km/s) = 6.52360 3.45296 5.21921
# Velocity P-wave (km/s) = 8.62279 6.66196 7.70501
#
# Compressibility (1/GPa) = 0.03056242
#
# Stress axis : x y z
#
# Youngs Moduli (GPa) = 53.65061 95.29389 22.14260
#
# Poissons Ratio (x) = 0.44694 0.25350
# Poissons Ratio (y) = 0.25163 0.12683
# Poissons Ratio (z) = 0.61421 0.54581
#
# Static dielectric constant tensor:
#      x y z
#    x 1.615120 0.000000 0.000000 
#    y 0.000000 1.674380 0.000000 
#    z 0.000000 0.000000 1.654030 
# 
# From -- ./inp_files/10520.got.cif
#   From: 2010.05.17/outbox.cif.g08.bks.cpg/sg71_6_cif.got.tgz:10520.got - 2010.06.03 16:22:01.
