data_PCOD9522986
_publ_section_title
;
Structure prediction by ZEFSAII (Michael W. Deem and Ramdas Pophale) SiO2 
 PCOD9522986
Probable space group: I M M M
;
_chemical_formula_sum "Si O2"
_cell_formula_units_Z 104
_cell_length_a 20.123160
_cell_length_b 9.415518
_cell_length_c 25.697581
_cell_angle_alpha 90.000000
_cell_angle_beta 90.000000
_cell_angle_gamma 90.000000
_cell_volume 4868.920035
_symmetry_space_group_name_H-M "I M M M"
_symmetry_group_IT_number 71
_symmetry_cell_setting 'orthorhombic'
loop_
_space_group_symop_operation_xyz
x,y,z
-x,-y,z
x,-y,-z
-x,y,-z
-x,-y,-z
x,y,-z
-x,y,z
x,-y,z
1/2+x,1/2+y,1/2+z
1/2-x,1/2-y,1/2+z
1/2+x,1/2-y,1/2-z
1/2-x,1/2+y,1/2-z
1/2-x,1/2-y,1/2-z
1/2+x,1/2+y,1/2-z
1/2-x,1/2+y,1/2+z
1/2+x,1/2-y,1/2+z
loop_
_atom_site_type_symbol
_atom_site_label
_atom_site_fract_x
_atom_site_fract_y
_atom_site_fract_z
Si Si1 0.426166 0.167887 0.918539
Si Si2 0.708965 0.330461 0.057997
Si Si3 0.604735 0.335346 0.699039
Si Si4 0.081759 0.161941 0.000000
Si Si5 0.606047 0.163745 0.798886
Si Si6 0.922355 0.658021 0.097334
Si Si7 0.250406 0.662680 0.343657
O O1 0.500000 0.206627 0.937383
O O2 0.364690 0.260195 0.938409
O O3 0.425554 0.182122 0.855674
O O4 0.415050 0.000000 0.929823
O O5 0.704304 0.500000 0.063888
O O6 0.749038 0.264612 0.106431
O O7 0.735557 0.299408 0.000000
O O8 0.585311 0.500000 0.693901
O O9 0.584089 0.269314 0.753885
O O10 0.580002 0.240234 0.651492
O O11 0.684459 0.325761 0.691309
O O12 0.104976 0.245216 0.051089
O O13 0.000000 0.157089 0.000000
O O14 0.104665 0.000000 0.000000
O O15 0.684323 0.186782 0.810095
O O16 0.595539 0.000000 0.782379
O O17 0.892430 0.500000 0.099988
O O18 0.000000 0.641554 0.084454
O O19 0.246375 0.500000 0.363285
#
# Coordination Sequence:
#
# PCOD9522986 Si02
#       7
#    16  16  16   8  16  16  16
#     4   9  19  36  57  81 110 147 189 226 266 325
#     4  10  21  36  55  81 112 144 180 228 280 324
#     4  11  22  35  54  83 111 138 179 226 273 322
#     4   9  17  33  57  79 101 131 167 211 260 307
#     4   9  18  34  55  78 108 143 178 220 270 323
#     4  10  21  37  56  78 106 142 180 216 261 319
#     4   9  20  38  57  78 105 141 182 222 269 328
#
# _framework density 21.359974000000001
#
# number of rings (size 3 to 8) (size 9 to 14) (size 15 to 20)
#    0.000    2.385    0.000    3.000    0.000    8.000 
#    1.385    3.077    0.000    0.000    0.000    0.000 
#    0.000    0.000    0.000    0.000    0.000    0.000 
#
# Total GULP energy -290498.758892 kJ/mol
# GULP energy per Si atom -5586.514594 kJ/mol
# Density = 2.131136 g / cm^3
# Si number density = 21.359974 Si / 1000 Ang^3
#
#
#
# Elastic Constant Matrix: (Units=GPa)
#
#
# Indices 1 2 3 4 5 6 
#
# 1 55.1073 0.5209 -9.0338 0.0000 0.0000 0.0000
# 2 0.5209 141.3211 81.8341 0.0000 0.0000 0.0000
# 3 -9.0338 81.8341 113.8322 0.0000 0.0000 0.0000
# 4 0.0000 0.0000 0.0000 35.4825 0.0000 0.0000
# 5 0.0000 0.0000 0.0000 0.0000 17.6501 0.0000
# 6 0.0000 0.0000 0.0000 0.0000 0.0000 16.4882
#
#
#
# Elastic Compliance Matrix: (Units=1/GPa)
#
#
# Indices 1 2 3 4 5 6 
#
# 1 0.018590 -0.001581 0.002612 0.000000 0.000000 0.000000
# 2 -0.001581 0.012257 -0.008937 0.000000 0.000000 0.000000
# 3 0.002612 -0.008937 0.015417 0.000000 0.000000 0.000000
# 4 0.000000 0.000000 0.000000 0.028183 0.000000 0.000000
# 5 0.000000 0.000000 0.000000 0.000000 0.056657 0.000000
# 6 0.000000 0.000000 0.000000 0.000000 0.000000 0.060649
#
#
# Mechanical properties :
#
#
# Convention : Reuss Voigt Hill
#
# Bulk Modulus (GPa) = 32.83941 50.76699 41.80320
# Shear Modulus (GPa) = 22.96574 29.72013 26.34294
#
# Velocity S-wave (km/s) = 3.28255 3.73419 3.51563
# Velocity P-wave (km/s) = 5.45660 6.51238 6.00773
#
# Compressibility (1/GPa) = 0.03045121
#
# Stress axis : x y z
#
# Youngs Moduli (GPa) = 53.79374 81.58567 64.86341
#
# Poissons Ratio (x) = 0.12898 -0.16941
# Poissons Ratio (y) = 0.08504 0.57969
# Poissons Ratio (z) = -0.14050 0.72914
#
# Static dielectric constant tensor:
#      x y z
#    x 1.837710 0.000000 0.000000 
#    y 0.000000 1.735090 0.000000 
#    z 0.000000 0.000000 1.741230 
# 
# From -- ./inp_files/66462.got.cif
#   From: 2010.05.17/outbox.cif.g08.bks.cpg/sg71_34_cif.got.tgz:66462.got - 2010.06.03 16:22:01.
