data_PCOD9522950
_publ_section_title
;
Structure prediction by ZEFSAII (Michael W. Deem and Ramdas Pophale) SiO2 
 PCOD9522950
Probable space group: I M M M
;
_chemical_formula_sum "Si O2"
_cell_formula_units_Z 96
_cell_length_a 13.989911
_cell_length_b 13.218030
_cell_length_c 29.369926
_cell_angle_alpha 90.000000
_cell_angle_beta 90.000000
_cell_angle_gamma 90.000000
_cell_volume 5431.059205
_symmetry_space_group_name_H-M "I M M M"
_symmetry_group_IT_number 71
_symmetry_cell_setting 'orthorhombic'
loop_
_space_group_symop_operation_xyz
x,y,z
-x,-y,z
x,-y,-z
-x,y,-z
-x,-y,-z
x,y,-z
-x,y,z
x,-y,z
1/2+x,1/2+y,1/2+z
1/2-x,1/2-y,1/2+z
1/2+x,1/2-y,1/2-z
1/2-x,1/2+y,1/2-z
1/2-x,1/2-y,1/2-z
1/2+x,1/2+y,1/2-z
1/2-x,1/2+y,1/2+z
1/2+x,1/2-y,1/2+z
loop_
_atom_site_type_symbol
_atom_site_label
_atom_site_fract_x
_atom_site_fract_y
_atom_site_fract_z
Si Si1 0.384325 0.500000 0.448125
Si Si2 0.884699 0.385260 0.446769
Si Si3 0.615877 0.384462 0.293882
Si Si4 0.612756 0.377412 0.192828
Si Si5 0.295856 0.692470 0.898999
Si Si6 0.389935 0.500000 0.054351
Si Si7 0.886159 0.797590 0.891457
O O1 0.500000 0.500000 0.450186
O O2 0.348079 0.500000 0.500000
O O3 0.361104 0.397598 0.420949
O O4 0.860175 0.368148 0.500000
O O5 0.854540 0.500000 0.434589
O O6 0.841822 0.297107 0.416318
O O7 0.000000 0.381771 0.443697
O O8 0.500000 0.389346 0.292286
O O9 0.650145 0.500000 0.299865
O O10 0.644557 0.347037 0.243848
O O11 0.638442 0.322243 0.338859
O O12 0.500000 0.352626 0.186826
O O13 0.619932 0.500000 0.190485
O O14 0.673710 0.328846 0.152846
O O15 0.338576 0.599768 0.927340
O O16 0.182560 0.706520 0.905342
O O17 0.500000 0.500000 0.070971
O O18 0.390678 0.500000 0.000000
O O19 0.000000 0.780015 0.895573
#
# Coordination Sequence:
#
# PCOD9522950 Si02
#       7
#     8  16  16  16  16   8  16
#     4   9  18  34  55  77 104 139 179 229 273 306
#     4   9  19  35  53  77 111 147 179 218 280 354
#     4   8  14  29  54  79 108 146 183 226 279 329
#     4   9  17  31  54  83 110 137 181 240 285 323
#     4  12  22  33  57  83 112 145 190 232 281 324
#     4  11  24  42  62  84 110 143 188 238 282 333
#     4  10  21  36  54  80 113 148 189 227 270 329
#
# _framework density 17.676110000000001
#
# number of rings (size 3 to 8) (size 9 to 14) (size 15 to 20)
#    0.000    2.333    1.667    3.500    1.167    3.333 
#    0.000    0.417    0.000    0.500    0.000    0.000 
#    0.000    0.000    0.000    0.000    0.000    0.000 
#
# Total GULP energy -267745.300249 kJ/mol
# GULP energy per Si atom -5578.027089 kJ/mol
# Density = 1.763588 g / cm^3
# Si number density = 17.676110 Si / 1000 Ang^3
#
#
#
# Elastic Constant Matrix: (Units=GPa)
#
#
# Indices 1 2 3 4 5 6 
#
# 1 85.6355 48.5636 37.4786 0.0000 0.0000 0.0000
# 2 48.5636 85.7999 48.3066 0.0000 0.0000 0.0000
# 3 37.4786 48.3066 103.2541 0.0000 0.0000 0.0000
# 4 0.0000 0.0000 0.0000 11.2764 0.0000 0.0000
# 5 0.0000 0.0000 0.0000 0.0000 -2.7928 0.0000
# 6 0.0000 0.0000 0.0000 0.0000 0.0000 24.2023
#
#
#
# Elastic Compliance Matrix: (Units=1/GPa)
#
#
# Indices 1 2 3 4 5 6 
#
# 1 0.017607 -0.008644 -0.002347 0.000000 0.000000 0.000000
# 2 -0.008644 0.020067 -0.006250 0.000000 0.000000 0.000000
# 3 -0.002347 -0.006250 0.013461 0.000000 0.000000 0.000000
# 4 0.000000 0.000000 0.000000 0.088681 0.000000 0.000000
# 5 0.000000 0.000000 0.000000 0.000000 -0.358058 0.000000
# 6 0.000000 0.000000 0.000000 0.000000 0.000000 0.041318
#
#
# Mechanical properties :
#
#
# Convention : Reuss Voigt Hill
#
# Bulk Modulus (GPa) = 60.05441 60.37635 60.21538
# Shear Modulus (GPa) = -36.52542 15.89321 -10.31611
#
# Velocity S-wave (km/s) = -4.55067 3.00181 -2.41844
# Velocity P-wave (km/s) = 2.53717 6.80042 5.13239
#
# Compressibility (1/GPa) = 0.01665157
#
# Stress axis : x y z
#
# Youngs Moduli (GPa) = 56.79696 49.83322 74.28978
#
# Poissons Ratio (x) = 0.43078 0.17432
# Poissons Ratio (y) = 0.49097 0.46435
# Poissons Ratio (z) = 0.13328 0.31148
#
# Static dielectric constant tensor:
#      x y z
#    x 1.621100 0.000000 0.000000 
#    y 0.000000 1.580690 0.000000 
#    z 0.000000 0.000000 1.621780 
# 
# From -- ./inp_files/22605.got.cif
#   From: 2010.05.17/outbox.cif.g08.bks.cpg/sg71_12_cif.got.tgz:22605.got - 2010.06.03 16:22:01.
