data_PCOD9522603
_publ_section_title
;
Structure prediction by ZEFSAII (Michael W. Deem and Ramdas Pophale) SiO2 
 PCOD9522603
Probable space group: I M M M
;
_chemical_formula_sum "Si O2"
_cell_formula_units_Z 66
_cell_length_a 23.082840
_cell_length_b 18.416291
_cell_length_c 7.889526
_cell_angle_alpha 90.000000
_cell_angle_beta 90.000000
_cell_angle_gamma 90.000000
_cell_volume 3353.839858
_symmetry_space_group_name_H-M "I M M M"
_symmetry_group_IT_number 71
_symmetry_cell_setting 'orthorhombic'
loop_
_space_group_symop_operation_xyz
x,y,z
-x,-y,z
x,-y,-z
-x,y,-z
-x,-y,-z
x,y,-z
-x,y,z
x,-y,z
1/2+x,1/2+y,1/2+z
1/2-x,1/2-y,1/2+z
1/2+x,1/2-y,1/2-z
1/2-x,1/2+y,1/2-z
1/2-x,1/2-y,1/2-z
1/2+x,1/2+y,1/2-z
1/2-x,1/2+y,1/2+z
1/2+x,1/2-y,1/2+z
loop_
_atom_site_type_symbol
_atom_site_label
_atom_site_fract_x
_atom_site_fract_y
_atom_site_fract_z
Si Si1 0.000000 0.616466 0.688754
Si Si2 0.390664 0.203955 0.300910
Si Si3 0.934340 0.000000 0.298129
Si Si4 0.232002 0.332265 0.702692
Si Si5 0.000000 0.500000 0.000000
Si Si6 0.144840 0.864702 0.796395
O O1 0.943114 0.666278 0.706871
O O2 0.000000 0.583605 0.500000
O O3 0.000000 0.562461 0.848312
O O4 0.404888 0.208845 0.500000
O O5 0.331201 0.158069 0.281321
O O6 0.377427 0.285754 0.236073
O O7 0.898470 0.071091 0.246490
O O8 0.938014 0.000000 0.500000
O O9 0.000000 0.000000 0.228573
O O10 0.226035 0.338807 0.500000
O O11 0.250000 0.250000 0.750000
O O12 0.288494 0.377279 0.761099
O O13 0.148292 0.858879 0.000000
#
# Coordination Sequence:
#
# PCOD9522603 Si02
#       6
#     8  16   8  16   2  16
#     4  12  25  43  71  97 128 172 204 258 328 378
#     4  10  20  38  63  96 127 159 213 267 310 378
#     4  11  25  39  52  81 125 168 211 263 318 371
#     4   9  17  32  56  88 118 155 204 262 317 368
#     4  12  26  52  64  90 136 154 206 260 310 406
#     4   9  20  37  60  85 122 166 212 262 313 373
#
# _framework density 19.678937000000001
#
# number of rings (size 3 to 8) (size 9 to 14) (size 15 to 20)
#    0.000    2.061    1.212    3.455    1.697    6.788 
#    0.000    1.212    2.667    2.909    0.000    0.000 
#    0.000    0.000    0.000    0.000    0.000    0.000 
#
# Total GULP energy -183768.429554 kJ/mol
# GULP energy per Si atom -5568.740290 kJ/mol
# Density = 1.963415 g / cm^3
# Si number density = 19.678937 Si / 1000 Ang^3
#
#
#
# Elastic Constant Matrix: (Units=GPa)
#
#
# Indices 1 2 3 4 5 6 
#
# 1 174.1451 69.6138 15.5553 0.0000 0.0000 0.0000
# 2 69.6138 91.0873 21.9821 0.0000 0.0000 0.0000
# 3 15.5553 21.9821 77.5367 0.0000 0.0000 0.0000
# 4 0.0000 0.0000 0.0000 14.6102 0.0000 0.0000
# 5 0.0000 0.0000 0.0000 0.0000 31.5257 0.0000
# 6 0.0000 0.0000 0.0000 0.0000 0.0000 66.4226
#
#
#
# Elastic Compliance Matrix: (Units=1/GPa)
#
#
# Indices 1 2 3 4 5 6 
#
# 1 0.008270 -0.006355 0.000142 0.000000 0.000000 0.000000
# 2 -0.006355 0.016668 -0.003451 0.000000 0.000000 0.000000
# 3 0.000142 -0.003451 0.013847 0.000000 0.000000 0.000000
# 4 0.000000 0.000000 0.000000 0.068446 0.000000 0.000000
# 5 0.000000 0.000000 0.000000 0.000000 0.031720 0.000000
# 6 0.000000 0.000000 0.000000 0.000000 0.000000 0.015055
#
#
# Mechanical properties :
#
#
# Convention : Reuss Voigt Hill
#
# Bulk Modulus (GPa) = 51.39011 61.89682 56.64347
# Shear Modulus (GPa) = 27.80605 38.21955 33.01280
#
# Velocity S-wave (km/s) = 3.76305 4.41177 4.10026
# Velocity P-wave (km/s) = 6.71205 7.58111 7.15978
#
# Compressibility (1/GPa) = 0.01945900
#
# Stress axis : x y z
#
# Youngs Moduli (GPa) = 120.92108 59.99602 72.21897
#
# Poissons Ratio (x) = 0.38125 -0.01029
# Poissons Ratio (y) = 0.76841 0.24919
# Poissons Ratio (z) = -0.01723 0.20702
#
# Static dielectric constant tensor:
#      x y z
#    x 1.721960 0.000000 0.000000 
#    y 0.000000 1.667890 0.000000 
#    z 0.000000 0.000000 1.703610 
# 
# From -- ./inp_files/9662.got.cif
#   From: 2010.05.17/outbox.cif.g08.bks.cpg/sg71_5_cif.got.tgz:9662.got - 2010.06.03 16:22:01.
