data_PCOD9522376
_publ_section_title
;
Structure prediction by ZEFSAII (Michael W. Deem and Ramdas Pophale) SiO2 
 PCOD9522376
Probable space group: I M M M
;
_chemical_formula_sum "Si O2"
_cell_formula_units_Z 56
_cell_length_a 18.920604
_cell_length_b 18.238477
_cell_length_c 7.714762
_cell_angle_alpha 90.000000
_cell_angle_beta 90.000000
_cell_angle_gamma 90.000000
_cell_volume 2662.233222
_symmetry_space_group_name_H-M "I M M M"
_symmetry_group_IT_number 71
_symmetry_cell_setting 'orthorhombic'
loop_
_space_group_symop_operation_xyz
x,y,z
-x,-y,z
x,-y,-z
-x,y,-z
-x,-y,-z
x,y,-z
-x,y,z
x,-y,z
1/2+x,1/2+y,1/2+z
1/2-x,1/2-y,1/2+z
1/2+x,1/2-y,1/2-z
1/2-x,1/2+y,1/2-z
1/2-x,1/2-y,1/2-z
1/2+x,1/2+y,1/2-z
1/2-x,1/2+y,1/2+z
1/2+x,1/2-y,1/2+z
loop_
_atom_site_type_symbol
_atom_site_label
_atom_site_fract_x
_atom_site_fract_y
_atom_site_fract_z
Si Si1 0.080911 0.315097 0.289687
Si Si2 0.657488 0.335784 0.200433
Si Si3 0.077652 0.086351 0.000000
Si Si4 0.202869 0.415901 0.289470
O O1 0.077283 0.316224 0.500000
O O2 0.129435 0.244599 0.246131
O O3 0.125577 0.386547 0.237414
O O4 0.000000 0.310392 0.226243
O O5 0.618003 0.389856 0.329069
O O6 0.739247 0.357831 0.222406
O O7 0.638087 0.345776 0.000000
O O8 0.000000 0.120423 0.000000
O O9 0.072762 0.000000 0.000000
O O10 0.207205 0.414644 0.500000
O O11 0.216336 0.500000 0.234105
#
# Coordination Sequence:
#
# PCOD9522376 Si02
#       4
#    16  16   8  16
#     4   9  19  36  59  89 122 159 206 255 304 363
#     4  11  22  39  64  88 121 161 204 248 303 358
#     4  11  24  40  60  90 124 158 202 251 302 364
#     4  10  20  36  60  89 123 162 203 252 307 362
#
# _framework density 21.034973000000001
#
# number of rings (size 3 to 8) (size 9 to 14) (size 15 to 20)
#    0.000    1.857    1.429    2.571    0.000    4.571 
#    2.571    4.286    0.000    0.000    0.000    2.000 
#    0.000    0.000    0.000    0.000    0.000    0.000 
#
# Total GULP energy -156291.023725 kJ/mol
# GULP energy per Si atom -5581.822276 kJ/mol
# Density = 2.098710 g / cm^3
# Si number density = 21.034973 Si / 1000 Ang^3
#
#
#
# Elastic Constant Matrix: (Units=GPa)
#
#
# Indices 1 2 3 4 5 6 
#
# 1 161.3583 61.0812 15.0852 0.0000 0.0000 0.0000
# 2 61.0812 67.1724 14.5252 0.0000 0.0000 0.0000
# 3 15.0852 14.5252 64.4771 0.0000 0.0000 0.0000
# 4 0.0000 0.0000 0.0000-1389.6831 0.0000 0.0000
# 5 0.0000 0.0000 0.0000 0.0000 11.3513 0.0000
# 6 0.0000 0.0000 0.0000 0.0000 0.0000 34.8816
#
#
#
# Elastic Compliance Matrix: (Units=1/GPa)
#
#
# Indices 1 2 3 4 5 6 
#
# 1 0.009456 -0.008536 -0.000289 0.000000 0.000000 0.000000
# 2 -0.008536 0.023354 -0.003264 0.000000 0.000000 0.000000
# 3 -0.000289 -0.003264 0.016312 0.000000 0.000000 0.000000
# 4 0.000000 0.000000 0.000000 -0.000720 0.000000 0.000000
# 5 0.000000 0.000000 0.000000 0.000000 0.088096 0.000000
# 6 0.000000 0.000000 0.000000 0.000000 0.000000 0.028668
#
#
# Mechanical properties :
#
#
# Convention : Reuss Voigt Hill
#
# Bulk Modulus (GPa) = 40.08953 52.71010 46.39981
# Shear Modulus (GPa) = 25.29597 -255.20229 -114.95316
#
# Velocity S-wave (km/s) = 3.47157 -11.02661 -7.40049
# Velocity P-wave (km/s) = 5.93034 11.70480 7.13559
#
# Compressibility (1/GPa) = 0.02494417
#
# Stress axis : x y z
#
# Youngs Moduli (GPa) = 105.75844 42.81840 61.30289
#
# Poissons Ratio (x) = 0.36548 0.01774
# Poissons Ratio (y) = 0.90270 0.20011
# Poissons Ratio (z) = 0.03060 0.13977
#
# Static dielectric constant tensor:
#      x y z
#    x 1.784200 0.000000 0.000000 
#    y 0.000000 1.740310 0.000000 
#    z 0.000000 0.000000 1.937490 
# 
# From -- ./inp_files/4999.got.cif
#   From: 2010.05.17/outbox.cif.g08.bks.cpg/sg71_3_cif.got.tgz:4999.got - 2010.06.03 16:22:01.
