data_PCOD9522122
_publ_section_title
;
Structure prediction by ZEFSAII (Michael W. Deem and Ramdas Pophale) SiO2 
 PCOD9522122
Probable space group: I M M M
;
_chemical_formula_sum "Si O2"
_cell_formula_units_Z 96
_cell_length_a 20.458594
_cell_length_b 13.203875
_cell_length_c 15.356697
_cell_angle_alpha 90.000000
_cell_angle_beta 90.000000
_cell_angle_gamma 90.000000
_cell_volume 4148.346298
_symmetry_space_group_name_H-M "I M M M"
_symmetry_group_IT_number 71
_symmetry_cell_setting 'orthorhombic'
loop_
_space_group_symop_operation_xyz
x,y,z
-x,-y,z
x,-y,-z
-x,y,-z
-x,-y,-z
x,y,-z
-x,y,z
x,-y,z
1/2+x,1/2+y,1/2+z
1/2-x,1/2-y,1/2+z
1/2+x,1/2-y,1/2-z
1/2-x,1/2+y,1/2-z
1/2-x,1/2-y,1/2-z
1/2+x,1/2+y,1/2-z
1/2-x,1/2+y,1/2+z
1/2+x,1/2-y,1/2+z
loop_
_atom_site_type_symbol
_atom_site_label
_atom_site_fract_x
_atom_site_fract_y
_atom_site_fract_z
Si Si1 0.286624 0.620683 0.592509
Si Si2 0.810252 0.383780 0.732035
Si Si3 0.929686 0.172046 0.144145
Si Si4 0.576786 0.388068 0.152647
Si Si5 0.882336 0.382052 0.101859
Si Si6 0.078806 0.670890 0.401845
O O1 0.263455 0.663561 0.500000
O O2 0.274080 0.500000 0.590523
O O3 0.246738 0.663586 0.674133
O O4 0.364124 0.634004 0.599502
O O5 0.791682 0.500000 0.742524
O O6 0.825337 0.353356 0.830432
O O7 0.876387 0.377151 0.673278
O O8 0.920270 0.143920 0.245756
O O9 0.931758 0.292312 0.125520
O O10 0.000000 0.128865 0.117030
O O11 0.500000 0.396726 0.131118
O O12 0.606521 0.500000 0.139803
O O13 0.599164 0.289590 0.100909
O O14 0.902140 0.500000 0.118077
O O15 0.865931 0.375077 0.000000
O O16 0.089680 0.630978 0.500000
O O17 0.000000 0.663345 0.383987
#
# Coordination Sequence:
#
# PCOD9522122 Si02
#       6
#    16  16  16  16  16  16
#     4  10  22  39  61  92 127 165 208 254 312 377
#     4  10  21  40  64  89 125 169 209 256 315 375
#     4  11  22  39  63  90 122 164 211 260 312 367
#     4   9  18  34  56  84 119 159 203 255 315 370
#     4  10  22  40  63  93 127 162 205 259 317 376
#     4  10  20  35  58  90 124 163 214 263 311 370
#
# _framework density 23.141750999999999
#
# number of rings (size 3 to 8) (size 9 to 14) (size 15 to 20)
#    0.000    2.000    1.667    1.500    0.000    5.000 
#    0.000    5.833    0.000    0.000    0.000    0.000 
#    0.000    0.000    0.000    0.000    0.000    0.000 
#
# Total GULP energy -267605.449416 kJ/mol
# GULP energy per Si atom -5575.113529 kJ/mol
# Density = 2.308908 g / cm^3
# Si number density = 23.141751 Si / 1000 Ang^3
#
#
#
# Elastic Constant Matrix: (Units=GPa)
#
#
# Indices 1 2 3 4 5 6 
#
# 1 83.9048 -8.5588 37.1199 0.0000 0.0000 0.0000
# 2 -8.5588 51.2304 -4.4400 0.0000 0.0000 0.0000
# 3 37.1199 -4.4400 81.6068 0.0000 0.0000 0.0000
# 4 0.0000 0.0000 0.0000 22.3949 0.0000 0.0000
# 5 0.0000 0.0000 0.0000 0.0000 -234.8272 0.0000
# 6 0.0000 0.0000 0.0000 0.0000 0.0000 -484.0067
#
#
#
# Elastic Compliance Matrix: (Units=1/GPa)
#
#
# Indices 1 2 3 4 5 6 
#
# 1 0.015110 0.001938 -0.006768 0.000000 0.000000 0.000000
# 2 0.001938 0.019861 0.000199 0.000000 0.000000 0.000000
# 3 -0.006768 0.000199 0.015343 0.000000 0.000000 0.000000
# 4 0.000000 0.000000 0.000000 0.044653 0.000000 0.000000
# 5 0.000000 0.000000 0.000000 0.000000 -0.004258 0.000000
# 6 0.000000 0.000000 0.000000 0.000000 0.000000 -0.002066
#
#
# Mechanical properties :
#
#
# Convention : Reuss Voigt Hill
#
# Bulk Modulus (GPa) = 24.35911 29.44270 26.90090
# Shear Modulus (GPa) = 44.80797 -126.44640 -40.81922
#
# Velocity S-wave (km/s) = 4.40505 -7.39990 -4.20441
# Velocity P-wave (km/s) = 6.03502 7.76280 3.45250
#
# Compressibility (1/GPa) = 0.04105241
#
# Stress axis : x y z
#
# Youngs Moduli (GPa) = 66.18174 50.35083 65.17625
#
# Poissons Ratio (x) = -0.09757 0.44108
# Poissons Ratio (y) = -0.12825 -0.01298
# Poissons Ratio (z) = 0.44789 -0.01003
#
# Static dielectric constant tensor:
#      x y z
#    x 1.878630 0.000000 0.000000 
#    y 0.000000 1.900720 0.000000 
#    z 0.000000 0.000000 1.916490 
# 
# From -- ./inp_files/37823.got.cif
#   From: 2010.05.17/outbox.cif.g08.bks.cpg/sg71_19_cif.got.tgz:37823.got - 2010.06.03 16:22:01.
