data_PCOD9522144
_publ_section_title
;
Structure prediction by ZEFSAII (Michael W. Deem and Ramdas Pophale) SiO2 
 PCOD9522144
Probable space group: I M M M
;
_chemical_formula_sum "Si O2"
_cell_formula_units_Z 84
_cell_length_a 17.760340
_cell_length_b 19.091128
_cell_length_c 12.623779
_cell_angle_alpha 90.000000
_cell_angle_beta 90.000000
_cell_angle_gamma 90.000000
_cell_volume 4280.280671
_symmetry_space_group_name_H-M "I M M M"
_symmetry_group_IT_number 71
_symmetry_cell_setting 'orthorhombic'
loop_
_space_group_symop_operation_xyz
x,y,z
-x,-y,z
x,-y,-z
-x,y,-z
-x,-y,-z
x,y,-z
-x,y,z
x,-y,z
1/2+x,1/2+y,1/2+z
1/2-x,1/2-y,1/2+z
1/2+x,1/2-y,1/2-z
1/2-x,1/2+y,1/2-z
1/2-x,1/2-y,1/2-z
1/2+x,1/2+y,1/2-z
1/2-x,1/2+y,1/2+z
1/2+x,1/2-y,1/2+z
loop_
_atom_site_type_symbol
_atom_site_label
_atom_site_fract_x
_atom_site_fract_y
_atom_site_fract_z
Si Si1 0.364650 0.773159 0.269563
Si Si2 0.249562 0.500000 0.623189
Si Si3 0.500000 0.229665 0.883299
Si Si4 0.000000 0.869044 0.500000
Si Si5 0.785822 0.864646 0.264572
Si Si6 0.909239 0.500000 0.709441
Si Si7 0.411522 0.891576 0.389903
Si Si8 0.828752 0.917932 0.500000
O O1 0.425666 0.789543 0.179500
O O2 0.288526 0.816819 0.251784
O O3 0.350032 0.690641 0.270168
O O4 0.397210 0.809756 0.373809
O O5 0.273732 0.500000 0.500000
O O6 0.278359 0.432343 0.689825
O O7 0.157504 0.500000 0.624781
O O8 0.500000 0.313481 0.902887
O O9 0.500000 0.197218 0.000000
O O10 0.920420 0.908648 0.500000
O O11 0.798373 0.884485 0.389170
O O12 0.890440 0.434850 0.786764
O O13 0.000000 0.500000 0.682302
O O14 0.375648 0.915671 0.500000
O O15 0.500000 0.904467 0.396221
O O16 0.810698 0.000000 0.500000
#
# Coordination Sequence:
#
# PCOD9522144 Si02
#       8
#    16   8   8   4  16   8  16   8
#     4  11  22  39  62  94 128 167 211 260 325 392
#     4  12  26  45  60  84 127 174 214 259 319 406
#     4  10  20  39  65  90 135 166 212 275 326 376
#     4  10  21  42  72 110 124 159 216 278 354 387
#     4  11  25  42  63  96 129 169 214 266 333 395
#     4  10  21  41  60  88 124 163 221 276 323 368
#     4  10  20  35  59  89 123 162 207 259 314 373
#     4  12  23  44  76 103 132 163 219 286 344 387
#
# _framework density 19.624881999999999
#
# number of rings (size 3 to 8) (size 9 to 14) (size 15 to 20)
#    0.286    0.952    5.714    0.429    1.333    2.857 
#    5.143    0.000    0.000    0.000    0.000    2.667 
#    0.000    0.000    0.000    0.000    0.000    0.000 
#
# Total GULP energy -233927.489649 kJ/mol
# GULP energy per Si atom -5569.702134 kJ/mol
# Density = 1.958021 g / cm^3
# Si number density = 19.624882 Si / 1000 Ang^3
#
#
#
# Elastic Constant Matrix: (Units=GPa)
#
#
# Indices 1 2 3 4 5 6 
#
# 1 80.5775 27.4529 44.2954 0.0000 0.0000 0.0000
# 2 27.4529 134.9887 59.5628 0.0000 0.0000 0.0000
# 3 44.2954 59.5628 124.6616 0.0000 0.0000 0.0000
# 4 0.0000 0.0000 0.0000 0.1746 0.0000 0.0000
# 5 0.0000 0.0000 0.0000 0.0000 79.9643 0.0000
# 6 0.0000 0.0000 0.0000 0.0000 0.0000 38.8728
#
#
#
# Elastic Compliance Matrix: (Units=1/GPa)
#
#
# Indices 1 2 3 4 5 6 
#
# 1 0.015512 -0.000916 -0.005074 0.000000 0.000000 0.000000
# 2 -0.000916 0.009441 -0.004186 0.000000 0.000000 0.000000
# 3 -0.005074 -0.004186 0.011825 0.000000 0.000000 0.000000
# 4 0.000000 0.000000 0.000000 5.726931 0.000000 0.000000
# 5 0.000000 0.000000 0.000000 0.000000 0.012506 0.000000
# 6 0.000000 0.000000 0.000000 0.000000 0.000000 0.025725
#
#
# Mechanical properties :
#
#
# Convention : Reuss Voigt Hill
#
# Bulk Modulus (GPa) = 60.87712 66.98333 63.93022
# Shear Modulus (GPa) = 0.85796 37.73011 19.29403
#
# Velocity S-wave (km/s) = 0.66191 4.38946 3.13891
# Velocity P-wave (km/s) = 5.62778 7.73924 6.76638
#
# Compressibility (1/GPa) = 0.01642653
#
# Stress axis : x y z
#
# Youngs Moduli (GPa) = 64.46696 105.91983 84.56978
#
# Poissons Ratio (x) = 0.09699 0.42913
# Poissons Ratio (y) = 0.05903 0.35397
# Poissons Ratio (z) = 0.32712 0.44333
#
# Static dielectric constant tensor:
#      x y z
#    x 1.814360 0.000000 0.000000 
#    y 0.000000 1.741970 0.000000 
#    z 0.000000 0.000000 1.686560 
# 
# From -- ./inp_files/25934.got.cif
#   From: 2010.05.17/outbox.cif.g08.bks.cpg/sg71_13_cif.got.tgz:25934.got - 2010.06.03 16:22:01.
