data_PCOD9522780
_publ_section_title
;
Structure prediction by ZEFSAII (Michael W. Deem and Ramdas Pophale) SiO2 
 PCOD9522780
Probable space group: I M M M
;
_chemical_formula_sum "Si O2"
_cell_formula_units_Z 96
_cell_length_a 27.251885
_cell_length_b 13.645535
_cell_length_c 14.559423
_cell_angle_alpha 90.000000
_cell_angle_beta 90.000000
_cell_angle_gamma 90.000000
_cell_volume 5414.162409
_symmetry_space_group_name_H-M "I M M M"
_symmetry_group_IT_number 71
_symmetry_cell_setting 'orthorhombic'
loop_
_space_group_symop_operation_xyz
x,y,z
-x,-y,z
x,-y,-z
-x,y,-z
-x,-y,-z
x,y,-z
-x,y,z
x,-y,z
1/2+x,1/2+y,1/2+z
1/2-x,1/2-y,1/2+z
1/2+x,1/2-y,1/2-z
1/2-x,1/2+y,1/2-z
1/2-x,1/2-y,1/2-z
1/2+x,1/2+y,1/2-z
1/2-x,1/2+y,1/2+z
1/2+x,1/2-y,1/2+z
loop_
_atom_site_type_symbol
_atom_site_label
_atom_site_fract_x
_atom_site_fract_y
_atom_site_fract_z
Si Si1 0.055751 0.770096 0.220610
Si Si2 0.706263 0.209465 0.390218
Si Si3 0.636313 0.612076 0.389793
Si Si4 0.681691 0.736374 0.108028
Si Si5 0.636739 0.113653 0.748990
Si Si6 0.913657 0.885194 0.393327
O O1 0.088352 0.841892 0.157224
O O2 0.085885 0.668828 0.225747
O O3 0.057233 0.819435 0.321379
O O4 0.000000 0.759329 0.189426
O O5 0.702870 0.195003 0.500000
O O6 0.681255 0.314788 0.367727
O O7 0.763228 0.209402 0.363699
O O8 0.673874 0.131454 0.335628
O O9 0.630601 0.613038 0.500000
O O10 0.644309 0.500000 0.360248
O O11 0.660759 0.825895 0.167119
O O12 0.643144 0.647597 0.119103
O O13 0.683044 0.761761 0.000000
O O14 0.630370 0.000000 0.768752
O O15 0.926516 0.866762 0.500000
O O16 0.920187 0.000000 0.374846
#
# Coordination Sequence:
#
# PCOD9522780 Si02
#       6
#    16  16  16  16  16  16
#     4  10  21  36  52  70  94 126 165 208 252 296
#     4   9  18  33  52  75 104 135 165 197 236 286
#     4   9  18  32  50  74 102 128 157 198 247 297
#     4   9  18  33  52  75 104 135 165 197 236 286
#     4  10  21  35  51  73 100 131 168 208 245 282
#     4   9  18  32  50  74 102 128 157 198 247 297
#
# _framework density 17.731275
#
# number of rings (size 3 to 8) (size 9 to 14) (size 15 to 20)
#    0.000    2.667    0.000    1.000    0.000    4.333 
#    0.000    5.000    0.000    0.000    0.000    9.333 
#    0.000    0.000    0.000    0.000    0.000    0.000 
#
# Total GULP energy -267754.164580 kJ/mol
# GULP energy per Si atom -5578.211762 kJ/mol
# Density = 1.769092 g / cm^3
# Si number density = 17.731275 Si / 1000 Ang^3
#
#
#
# Elastic Constant Matrix: (Units=GPa)
#
#
# Indices 1 2 3 4 5 6 
#
# 1 74.3655 -12.4081 0.6139 0.0000 0.0000 0.0000
# 2 -12.4081 59.0611 0.1386 0.0000 0.0000 0.0000
# 3 0.6139 0.1386 21.9178 0.0000 0.0000 0.0000
# 4 0.0000 0.0000 0.0000 12.6365 0.0000 0.0000
# 5 0.0000 0.0000 0.0000 0.0000 12.7859 0.0000
# 6 0.0000 0.0000 0.0000 0.0000 0.0000 3.0004
#
#
#
# Elastic Compliance Matrix: (Units=1/GPa)
#
#
# Indices 1 2 3 4 5 6 
#
# 1 0.013939 0.002929 -0.000409 0.000000 0.000000 0.000000
# 2 0.002929 0.017548 -0.000193 0.000000 0.000000 0.000000
# 3 -0.000409 -0.000193 0.045638 0.000000 0.000000 0.000000
# 4 0.000000 0.000000 0.000000 0.079136 0.000000 0.000000
# 5 0.000000 0.000000 0.000000 0.000000 0.078211 0.000000
# 6 0.000000 0.000000 0.000000 0.000000 0.000000 0.333290
#
#
# Mechanical properties :
#
#
# Convention : Reuss Voigt Hill
#
# Bulk Modulus (GPa) = 12.22803 14.67036 13.44920
# Shear Modulus (GPa) = 8.46932 16.81790 12.64361
#
# Velocity S-wave (km/s) = 2.18789 3.08309 2.67323
# Velocity P-wave (km/s) = 3.64606 4.57883 4.13880
#
# Compressibility (1/GPa) = 0.08177932
#
# Stress axis : x y z
#
# Youngs Moduli (GPa) = 71.73985 56.98811 21.91176
#
# Poissons Ratio (x) = -0.16694 0.00896
# Poissons Ratio (y) = -0.21016 0.00423
# Poissons Ratio (z) = 0.02934 0.01100
#
# Static dielectric constant tensor:
#      x y z
#    x 1.595680 0.000000 0.000000 
#    y 0.000000 1.568830 0.000000 
#    z 0.000000 0.000000 1.632250 
# 
# From -- ./inp_files/24467.got.cif
#   From: 2010.05.17/outbox.cif.g08.bks.cpg/sg71_13_cif.got.tgz:24467.got - 2010.06.03 16:22:01.
