data_PCOD9522397
_publ_section_title
;
Structure prediction by ZEFSAII (Michael W. Deem and Ramdas Pophale) SiO2 
 PCOD9522397
Probable space group: I M M M
;
_chemical_formula_sum "Si O2"
_cell_formula_units_Z 108
_cell_length_a 15.766871
_cell_length_b 23.320599
_cell_length_c 14.639520
_cell_angle_alpha 90.000000
_cell_angle_beta 90.000000
_cell_angle_gamma 90.000000
_cell_volume 5382.847213
_symmetry_space_group_name_H-M "I M M M"
_symmetry_group_IT_number 71
_symmetry_cell_setting 'orthorhombic'
loop_
_space_group_symop_operation_xyz
x,y,z
-x,-y,z
x,-y,-z
-x,y,-z
-x,-y,-z
x,y,-z
-x,y,z
x,-y,z
1/2+x,1/2+y,1/2+z
1/2-x,1/2-y,1/2+z
1/2+x,1/2-y,1/2-z
1/2-x,1/2+y,1/2-z
1/2-x,1/2-y,1/2-z
1/2+x,1/2+y,1/2-z
1/2-x,1/2+y,1/2+z
1/2+x,1/2-y,1/2+z
loop_
_atom_site_type_symbol
_atom_site_label
_atom_site_fract_x
_atom_site_fract_y
_atom_site_fract_z
Si Si1 0.737424 0.436782 0.238977
Si Si2 0.098146 0.250184 0.734932
Si Si3 0.500000 0.435604 0.109546
Si Si4 0.142364 0.632259 0.349382
Si Si5 0.500000 0.109313 0.000000
Si Si6 0.156735 0.852141 0.609323
Si Si7 0.685670 0.699225 0.598817
Si Si8 0.098090 0.082616 0.895262
O O1 0.737544 0.500000 0.195978
O O2 0.822204 0.421635 0.293854
O O3 0.728519 0.384316 0.167547
O O4 0.661834 0.436412 0.315283
O O5 0.101993 0.316211 0.708114
O O6 0.130750 0.208753 0.652716
O O7 0.162420 0.239715 0.818115
O O8 0.000000 0.234540 0.754483
O O9 0.500000 0.500000 0.148670
O O10 0.580549 0.396838 0.130603
O O11 0.500000 0.441494 0.000000
O O12 0.227350 0.663651 0.389319
O O13 0.074577 0.612801 0.422103
O O14 0.168752 0.848517 0.500000
O O15 0.686940 0.728048 0.500000
O O16 0.612436 0.650969 0.602103
O O17 0.000000 0.068681 0.876304
O O18 0.118446 0.063529 0.000000
#
# Coordination Sequence:
#
# PCOD9522397 Si02
#       8
#    16  16   8  16   4  16  16  16
#     4  11  25  43  63  87 127 171 222 285 338 398
#     4  12  23  38  63  94 136 175 222 273 328 404
#     4   9  18  33  51  80 125 172 221 263 297 361
#     4  11  24  43  64  95 126 168 217 272 343 396
#     4  12  24  46  75  96 128 170 215 278 344 408
#     4  11  23  36  59  93 129 175 222 265 325 397
#     4  10  20  36  61  90 129 172 210 260 323 391
#     4   9  18  34  56  85 121 162 207 252 317 400
#
# _framework density 20.063731000000001
#
# number of rings (size 3 to 8) (size 9 to 14) (size 15 to 20)
#    0.000    1.407    5.185    1.333    3.111    2.370 
#    0.000    1.481    0.000    0.000    0.000    0.000 
#    0.000    1.185    0.000    0.000    0.000    0.000 
#
# Total GULP energy -300804.543764 kJ/mol
# GULP energy per Si atom -5570.454514 kJ/mol
# Density = 2.001806 g / cm^3
# Si number density = 20.063731 Si / 1000 Ang^3
#
#
#
# Elastic Constant Matrix: (Units=GPa)
#
#
# Indices 1 2 3 4 5 6 
#
# 1 96.8785 1.7182 31.3431 0.0001 0.0000 0.0000
# 2 1.7182 46.0889 -3.2001 -0.0003 0.0000 0.0000
# 3 31.3431 -3.2001 86.9524 -0.0003 0.0000 0.0000
# 4 0.0001 -0.0003 -0.0003 -24.4646 0.0000 0.0001
# 5 0.0000 0.0000 0.0000 0.0000 35.9062 0.0000
# 6 0.0000 0.0000 0.0000 0.0001 0.0000 29.4905
#
#
#
# Elastic Compliance Matrix: (Units=1/GPa)
#
#
# Indices 1 2 3 4 5 6 
#
# 1 0.011709 -0.000731 -0.004248 0.000000 0.000000 0.000000
# 2 -0.000731 0.021798 0.001066 0.000000 0.000000 0.000000
# 3 -0.004248 0.001066 0.013071 0.000000 0.000000 0.000000
# 4 0.000000 0.000000 0.000000 -0.040875 0.000000 0.000000
# 5 0.000000 0.000000 0.000000 0.000000 0.027850 0.000000
# 6 0.000000 0.000000 0.000000 0.000000 0.000000 0.033909
#
#
# Mechanical properties :
#
#
# Convention : Reuss Voigt Hill
#
# Bulk Modulus (GPa) = 25.80495 32.18247 28.99371
# Shear Modulus (GPa) = 56.68481 21.52365 39.10423
#
# Velocity S-wave (km/s) = 5.32106 3.27886 4.41954
# Velocity P-wave (km/s) = 7.11625 5.51448 6.36595
#
# Compressibility (1/GPa) = 0.03875226
#
# Stress axis : x y z
#
# Youngs Moduli (GPa) = 85.40108 45.87475 76.50569
#
# Poissons Ratio (x) = 0.03356 0.32498
# Poissons Ratio (y) = 0.06247 -0.08155
# Poissons Ratio (z) = 0.36276 -0.04890
#
# Static dielectric constant tensor:
#      x y z
#    x 1.737620 0.000000 0.000000 
#    y 0.000000 1.720910 0.000000 
#    z 0.000000 0.000000 1.740070 
# 
# From -- ./inp_files/34929.got.cif
#   From: 2010.05.17/outbox.cif.g08.bks.cpg/sg71_18_cif.got.tgz:34929.got - 2010.06.03 16:22:01.
