data_PCOD9522605
_publ_section_title
;
Structure prediction by ZEFSAII (Michael W. Deem and Ramdas Pophale) SiO2 
 PCOD9522605
Probable space group: I M M M
;
_chemical_formula_sum "Si O2"
_cell_formula_units_Z 100
_cell_length_a 23.341302
_cell_length_b 27.696603
_cell_length_c 7.720566
_cell_angle_alpha 90.000000
_cell_angle_beta 90.000000
_cell_angle_gamma 90.000000
_cell_volume 4991.151168
_symmetry_space_group_name_H-M "I M M M"
_symmetry_group_IT_number 71
_symmetry_cell_setting 'orthorhombic'
loop_
_space_group_symop_operation_xyz
x,y,z
-x,-y,z
x,-y,-z
-x,y,-z
-x,-y,-z
x,y,-z
-x,y,z
x,-y,z
1/2+x,1/2+y,1/2+z
1/2-x,1/2-y,1/2+z
1/2+x,1/2-y,1/2-z
1/2-x,1/2+y,1/2-z
1/2-x,1/2-y,1/2-z
1/2+x,1/2+y,1/2-z
1/2-x,1/2+y,1/2+z
1/2+x,1/2-y,1/2+z
loop_
_atom_site_type_symbol
_atom_site_label
_atom_site_fract_x
_atom_site_fract_y
_atom_site_fract_z
Si Si1 0.345515 0.500000 0.500000
Si Si2 0.000000 0.816150 0.205557
Si Si3 0.500000 0.797289 0.211322
Si Si4 0.185979 0.265712 0.794075
Si Si5 0.321907 0.946381 0.705568
Si Si6 0.611877 0.852832 0.198894
Si Si7 0.809025 0.926101 0.704068
Si Si8 0.625068 0.331415 0.289155
O O1 0.342276 0.458326 0.344666
O O2 0.000000 0.758342 0.231511
O O3 0.940333 0.837660 0.271859
O O4 0.000000 0.824701 0.000000
O O5 0.556551 0.825635 0.275997
O O6 0.500000 0.795790 0.000000
O O7 0.250000 0.250000 0.750000
O O8 0.164818 0.315848 0.716053
O O9 0.145338 0.221917 0.735817
O O10 0.180996 0.270865 0.000000
O O11 0.318690 0.950643 0.500000
O O12 0.367978 0.904925 0.738491
O O13 0.257806 0.930623 0.759376
O O14 0.334165 0.000000 0.778039
O O15 0.597407 0.859552 0.000000
O O16 0.813677 0.940884 0.500000
O O17 0.832629 0.871944 0.718949
O O18 0.627029 0.332963 0.500000
#
# Coordination Sequence:
#
# PCOD9522605 Si02
#       8
#     4   8   8  16  16  16  16  16
#     4  12  22  40  68  91 134 165 210 256 312 376
#     4  10  20  38  64  87 118 159 210 256 303 370
#     4  10  22  40  57  85 120 162 207 252 306 366
#     4  11  22  36  56  84 122 158 195 242 308 370
#     4  10  22  40  61  89 119 154 204 257 307 370
#     4  11  23  37  59  85 120 160 203 251 307 368
#     4  11  23  39  64  96 128 165 209 258 314 374
#     4  10  21  37  59  89 122 162 204 256 311 370
#
# _framework density 20.035457000000001
#
# number of rings (size 3 to 8) (size 9 to 14) (size 15 to 20)
#    0.000    1.440    3.200    2.160    1.120    5.440 
#    0.000    0.400    0.000    3.360    0.000    1.120 
#    0.000    0.000    0.000    0.000    0.000    0.000 
#
# Total GULP energy -278611.830251 kJ/mol
# GULP energy per Si atom -5572.236605 kJ/mol
# Density = 1.998986 g / cm^3
# Si number density = 20.035457 Si / 1000 Ang^3
#
#
#
# Elastic Constant Matrix: (Units=GPa)
#
#
# Indices 1 2 3 4 5 6 
#
# 1 56.1450 6.2417 -13.6363 0.0000 0.0000 0.0000
# 2 6.2417 99.7048 -2.8642 0.0000 0.0000 0.0000
# 3 -13.6363 -2.8642 55.1631 0.0000 0.0000 0.0000
# 4 0.0000 0.0000 0.0000 28.1239 0.0000 0.0000
# 5 0.0000 0.0000 0.0000 0.0000 15.1409 0.0000
# 6 0.0000 0.0000 0.0000 0.0000 0.0000 24.7522
#
#
#
# Elastic Compliance Matrix: (Units=1/GPa)
#
#
# Indices 1 2 3 4 5 6 
#
# 1 0.019060 -0.001059 0.004657 0.000000 0.000000 0.000000
# 2 -0.001059 0.010103 0.000263 0.000000 0.000000 0.000000
# 3 0.004657 0.000263 0.019293 0.000000 0.000000 0.000000
# 4 0.000000 0.000000 0.000000 0.035557 0.000000 0.000000
# 5 0.000000 0.000000 0.000000 0.000000 0.066046 0.000000
# 6 0.000000 0.000000 0.000000 0.000000 0.000000 0.040400
#
#
# Mechanical properties :
#
#
# Convention : Reuss Voigt Hill
#
# Bulk Modulus (GPa) = 17.80128 21.16616 19.48372
# Shear Modulus (GPa) = 24.81819 28.35485 26.58652
#
# Velocity S-wave (km/s) = 3.52335 3.76604 3.64672
# Velocity P-wave (km/s) = 5.04541 5.43121 5.24186
#
# Compressibility (1/GPa) = 0.05617575
#
# Stress axis : x y z
#
# Youngs Moduli (GPa) = 52.46656 98.97588 51.83280
#
# Poissons Ratio (x) = 0.10486 -0.24136
# Poissons Ratio (y) = 0.05558 -0.01362
# Poissons Ratio (z) = -0.24431 -0.02600
#
# Static dielectric constant tensor:
#      x y z
#    x 1.736080 0.000000 0.000000 
#    y 0.000000 1.738310 0.000000 
#    z 0.000000 0.000000 1.745600 
# 
# From -- ./inp_files/11231.got.cif
#   From: 2010.05.17/outbox.cif.g08.bks.cpg/sg71_6_cif.got.tgz:11231.got - 2010.06.03 16:22:01.
