data_PCOD9522455
_publ_section_title
;
Structure prediction by ZEFSAII (Michael W. Deem and Ramdas Pophale) SiO2 
 PCOD9522455
Probable space group: I M M M
;
_chemical_formula_sum "Si O2"
_cell_formula_units_Z 58
_cell_length_a 20.102854
_cell_length_b 16.800123
_cell_length_c 7.746548
_cell_angle_alpha 90.000000
_cell_angle_beta 90.000000
_cell_angle_gamma 90.000000
_cell_volume 2616.244908
_symmetry_space_group_name_H-M "I M M M"
_symmetry_group_IT_number 71
_symmetry_cell_setting 'orthorhombic'
loop_
_space_group_symop_operation_xyz
x,y,z
-x,-y,z
x,-y,-z
-x,y,-z
-x,-y,-z
x,y,-z
-x,y,z
x,-y,z
1/2+x,1/2+y,1/2+z
1/2-x,1/2-y,1/2+z
1/2+x,1/2-y,1/2-z
1/2-x,1/2+y,1/2-z
1/2-x,1/2-y,1/2-z
1/2+x,1/2+y,1/2-z
1/2-x,1/2+y,1/2+z
1/2+x,1/2-y,1/2+z
loop_
_atom_site_type_symbol
_atom_site_label
_atom_site_fract_x
_atom_site_fract_y
_atom_site_fract_z
Si Si1 0.688072 0.091358 0.287608
Si Si2 0.500000 0.500000 0.500000
Si Si3 0.106729 0.000000 0.692131
Si Si4 0.680465 0.667450 0.198674
Si Si5 0.425268 0.201042 0.296067
O O1 0.690728 0.091916 0.500000
O O2 0.745478 0.153137 0.228349
O O3 0.617025 0.125876 0.230082
O O4 0.698562 0.000000 0.234060
O O5 0.556699 0.500000 0.348592
O O6 0.151137 0.921436 0.702351
O O7 0.075924 0.000000 0.500000
O O8 0.624604 0.724319 0.277561
O O9 0.687087 0.692717 0.000000
O O10 0.432656 0.188616 0.500000
O O11 0.500000 0.212985 0.224408
#
# Coordination Sequence:
#
# PCOD9522455 Si02
#       5
#    16   2   8  16  16
#     4   9  17  35  60  83 111 149 196 250 304 360
#     4  12  26  36  60  90 132 168 194 272 312 354
#     4  10  23  39  59  90 122 169 214 244 307 377
#     4  10  20  37  59  81 111 154 202 246 295 365
#     4  10  22  35  54  86 119 149 189 244 308 373
#
# _framework density 22.169177999999999
#
# number of rings (size 3 to 8) (size 9 to 14) (size 15 to 20)
#    0.000    2.207    1.379    1.034    3.862    1.103 
#    0.000    2.759    0.000    2.483    0.000    1.931 
#    0.000    0.000    0.000    0.000    0.000    0.000 
#
# Total GULP energy -161533.429307 kJ/mol
# GULP energy per Si atom -5570.118252 kJ/mol
# Density = 2.211872 g / cm^3
# Si number density = 22.169178 Si / 1000 Ang^3
#
#
#
# Elastic Constant Matrix: (Units=GPa)
#
#
# Indices 1 2 3 4 5 6 
#
# 1 203.8099 64.2062 29.2128 0.0000 0.0000 0.0000
# 2 64.2062 90.2163 -1.8023 0.0000 0.0000 0.0000
# 3 29.2128 -1.8023 70.8359 0.0000 0.0000 0.0000
# 4 0.0000 0.0000 0.0000 -8.1991 0.0000 0.0000
# 5 0.0000 0.0000 0.0000 0.0000 17.8814 0.0000
# 6 0.0000 0.0000 0.0000 0.0000 0.0000 26.9016
#
#
#
# Elastic Compliance Matrix: (Units=1/GPa)
#
#
# Indices 1 2 3 4 5 6 
#
# 1 0.006898 -0.004968 -0.002971 0.000000 0.000000 0.000000
# 2 -0.004968 0.014669 0.002422 0.000000 0.000000 0.000000
# 3 -0.002971 0.002422 0.015404 0.000000 0.000000 0.000000
# 4 0.000000 0.000000 0.000000 -0.121965 0.000000 0.000000
# 5 0.000000 0.000000 0.000000 0.000000 0.055924 0.000000
# 6 0.000000 0.000000 0.000000 0.000000 0.000000 0.037173
#
#
# Mechanical properties :
#
#
# Convention : Reuss Voigt Hill
#
# Bulk Modulus (GPa) = 38.55634 60.89952 49.72793
# Shear Modulus (GPa) = 179.97404 25.53312 102.75358
#
# Velocity S-wave (km/s) = 9.01989 3.39741 6.81545
# Velocity P-wave (km/s) = 11.22085 6.55132 9.18769
#
# Compressibility (1/GPa) = 0.02593607
#
# Stress axis : x y z
#
# Youngs Moduli (GPa) = 144.97948 68.17215 64.91826
#
# Poissons Ratio (x) = 0.33870 0.19287
# Poissons Ratio (y) = 0.72030 -0.15724
# Poissons Ratio (z) = 0.43073 -0.16512
#
# Static dielectric constant tensor:
#      x y z
#    x 1.860640 0.000000 0.000000 
#    y 0.000000 1.812960 0.000000 
#    z 0.000000 0.000000 1.827340 
# 
# From -- ./inp_files/7247.got.cif
#   From: 2010.05.17/outbox.cif.g08.bks.cpg/sg71_4_cif.got.tgz:7247.got - 2010.06.03 16:22:01.
