data_PCOD9522195
_publ_section_title
;
Structure prediction by ZEFSAII (Michael W. Deem and Ramdas Pophale) SiO2 
 PCOD9522195
Probable space group: I M M M
;
_chemical_formula_sum "Si O2"
_cell_formula_units_Z 64
_cell_length_a 15.353810
_cell_length_b 7.856675
_cell_length_c 26.748103
_cell_angle_alpha 90.000000
_cell_angle_beta 90.000000
_cell_angle_gamma 90.000000
_cell_volume 3226.620861
_symmetry_space_group_name_H-M "I M M M"
_symmetry_group_IT_number 71
_symmetry_cell_setting 'orthorhombic'
loop_
_space_group_symop_operation_xyz
x,y,z
-x,-y,z
x,-y,-z
-x,y,-z
-x,-y,-z
x,y,-z
-x,y,z
x,-y,z
1/2+x,1/2+y,1/2+z
1/2-x,1/2-y,1/2+z
1/2+x,1/2-y,1/2-z
1/2-x,1/2+y,1/2-z
1/2-x,1/2-y,1/2-z
1/2+x,1/2+y,1/2-z
1/2-x,1/2+y,1/2+z
1/2+x,1/2-y,1/2+z
loop_
_atom_site_type_symbol
_atom_site_label
_atom_site_fract_x
_atom_site_fract_y
_atom_site_fract_z
Si Si1 0.833145 0.704470 0.608753
Si Si2 0.899555 0.796745 0.500000
Si Si3 0.500000 0.708333 0.556588
Si Si4 0.000000 0.297484 0.214788
Si Si5 0.500000 0.790765 0.171209
Si Si6 0.857484 0.795311 0.865309
O O1 0.831763 0.500000 0.613761
O O2 0.851111 0.742039 0.550608
O O3 0.914539 0.767031 0.641363
O O4 0.740593 0.770179 0.629116
O O5 0.000000 0.730844 0.500000
O O6 0.903683 0.000000 0.500000
O O7 0.500000 0.500000 0.556216
O O8 0.500000 0.767404 0.500000
O O9 0.415862 0.763800 0.587874
O O10 0.000000 0.232625 0.271445
O O11 0.914137 0.245710 0.183662
O O12 0.000000 0.500000 0.217029
O O13 0.500000 0.000000 0.171043
O O14 0.853648 0.000000 0.867958
#
# Coordination Sequence:
#
# PCOD9522195 Si02
#       6
#    16   8   8   8   8  16
#     4  10  20  36  59  82 107 144 191 230 266 320
#     4  11  23  37  53  80 119 150 177 221 278 328
#     4   8  14  26  45  71 102 129 164 218 266 306
#     4  10  20  36  56  76 110 149 178 223 288 334
#     4   9  19  35  55  81 107 140 188 234 271 322
#     4   9  19  34  54  80 107 138 184 231 270 319
#
# _framework density 19.834993999999998
#
# number of rings (size 3 to 8) (size 9 to 14) (size 15 to 20)
#    0.000    2.500    1.250    1.500    1.750    2.500 
#    0.000    2.500    0.000    1.500    0.000    0.000 
#    0.000    0.000    0.000    0.000    0.000    0.000 
#
# Total GULP energy -178567.674511 kJ/mol
# GULP energy per Si atom -5580.239828 kJ/mol
# Density = 1.978985 g / cm^3
# Si number density = 19.834994 Si / 1000 Ang^3
#
#
#
# Elastic Constant Matrix: (Units=GPa)
#
#
# Indices 1 2 3 4 5 6 
#
# 1 221.4175 14.9205 115.2101 0.0000 0.0000 0.0000
# 2 14.9205 19.3674 -1.3482 0.0000 0.0000 0.0000
# 3 115.2101 -1.3482 196.9037 0.0000 0.0000 0.0000
# 4 0.0000 0.0000 0.0000 14.0314 0.0000 0.0000
# 5 0.0000 0.0000 0.0000 0.0000 -4.3090 0.0000
# 6 0.0000 0.0000 0.0000 0.0000 0.0000 9.5705
#
#
#
# Elastic Compliance Matrix: (Units=1/GPa)
#
#
# Indices 1 2 3 4 5 6 
#
# 1 0.007079 -0.005745 -0.004181 0.000000 0.000000 0.000000
# 2 -0.005745 0.056320 0.003747 0.000000 0.000000 0.000000
# 3 -0.004181 0.003747 0.007551 0.000000 0.000000 0.000000
# 4 0.000000 0.000000 0.000000 0.071269 0.000000 0.000000
# 5 0.000000 0.000000 0.000000 0.000000 -0.232074 0.000000
# 6 0.000000 0.000000 0.000000 0.000000 0.000000 0.104488
#
#
# Mechanical properties :
#
#
# Convention : Reuss Voigt Hill
#
# Bulk Modulus (GPa) = 17.06739 77.25038 47.15889
# Shear Modulus (GPa) = 107.47861 24.45235 65.96548
#
# Velocity S-wave (km/s) = 7.36912 3.51492 5.77315
# Velocity P-wave (km/s) = 9.00159 7.45010 8.26234
#
# Compressibility (1/GPa) = 0.05859125
#
# Stress axis : x y z
#
# Youngs Moduli (GPa) = 141.25876 17.75575 132.43496
#
# Poissons Ratio (x) = 0.10200 0.55377
# Poissons Ratio (y) = 0.81151 -0.49623
# Poissons Ratio (z) = 0.59067 -0.06653
#
# Static dielectric constant tensor:
#      x y z
#    x 1.717140 0.000000 0.000000 
#    y 0.000000 1.712860 0.000000 
#    z 0.000000 0.000000 1.665570 
# 
# From -- ./inp_files/5599.got.cif
#   From: 2010.05.17/outbox.cif.g08.bks.cpg/sg71_3_cif.got.tgz:5599.got - 2010.06.03 16:22:01.
