data_PCOD9522197
_publ_section_title
;
Structure prediction by ZEFSAII (Michael W. Deem and Ramdas Pophale) SiO2 
 PCOD9522197
Probable space group: I M M M
;
_chemical_formula_sum "Si O2"
_cell_formula_units_Z 120
_cell_length_a 9.181959
_cell_length_b 25.372250
_cell_length_c 28.538673
_cell_angle_alpha 90.000000
_cell_angle_beta 90.000000
_cell_angle_gamma 90.000000
_cell_volume 6648.567869
_symmetry_space_group_name_H-M "I M M M"
_symmetry_group_IT_number 71
_symmetry_cell_setting 'orthorhombic'
loop_
_space_group_symop_operation_xyz
x,y,z
-x,-y,z
x,-y,-z
-x,y,-z
-x,-y,-z
x,y,-z
-x,y,z
x,-y,z
1/2+x,1/2+y,1/2+z
1/2-x,1/2-y,1/2+z
1/2+x,1/2-y,1/2-z
1/2-x,1/2+y,1/2-z
1/2-x,1/2-y,1/2-z
1/2+x,1/2+y,1/2-z
1/2-x,1/2+y,1/2+z
1/2+x,1/2-y,1/2+z
loop_
_atom_site_type_symbol
_atom_site_label
_atom_site_fract_x
_atom_site_fract_y
_atom_site_fract_z
Si Si1 0.174732 0.281827 0.946489
Si Si2 0.833352 0.936608 0.145003
Si Si3 0.172482 0.155242 0.691947
Si Si4 0.331686 0.935823 0.947626
Si Si5 0.324660 0.891954 0.604146
Si Si6 0.674322 0.139099 0.208901
Si Si7 0.677244 0.000000 0.446353
Si Si8 0.671885 0.766417 0.860162
O O1 0.208518 0.341459 0.928871
O O2 0.244581 0.242776 0.908619
O O3 0.000000 0.276530 0.945209
O O4 0.223797 0.274132 0.000000
O O5 0.769053 0.918416 0.094921
O O6 0.733090 0.914329 0.186000
O O7 0.000000 0.919202 0.150930
O O8 0.830739 0.000000 0.145050
O O9 0.244664 0.117442 0.653216
O O10 0.250848 0.149581 0.741535
O O11 0.193528 0.214051 0.671272
O O12 0.000000 0.145707 0.696297
O O13 0.500000 0.920189 0.939499
O O14 0.329514 0.000000 0.947965
O O15 0.287981 0.918609 0.000000
O O16 0.500000 0.892486 0.611125
O O17 0.279913 0.946510 0.579968
O O18 0.500000 0.139298 0.213811
O O19 0.716687 0.184177 0.171319
O O20 0.500000 0.000000 0.447451
O O21 0.728082 0.000000 0.500000
O O22 0.500000 0.771142 0.870110
#
# Coordination Sequence:
#
# PCOD9522197 Si02
#       8
#    16  16  16  16  16  16   8  16
#     4   9  17  30  51  79 110 143 178 217 264 317
#     4  10  21  36  53  76 106 136 169 209 256 311
#     4  10  20  36  56  78 105 135 171 218 272 321
#     4   8  14  27  49  74  98 127 164 204 245 291
#     4   9  17  31  51  77 108 143 184 226 265 312
#     4  11  22  37  57  79 102 133 175 219 265 318
#     4   9  16  28  51  81 111 145 187 231 266 301
#     4   9  20  36  55  80 106 133 170 217 266 318
#
# _framework density 18.048998999999998
#
# number of rings (size 3 to 8) (size 9 to 14) (size 15 to 20)
#    0.000    2.600    0.000    2.400    0.000    4.533 
#    1.200    2.333    0.000    2.400    0.000    0.000 
#    0.000    0.000    0.000    0.000    0.000    0.000 
#
# Total GULP energy -334694.983478 kJ/mol
# GULP energy per Si atom -5578.249725 kJ/mol
# Density = 1.800792 g / cm^3
# Si number density = 18.048999 Si / 1000 Ang^3
#
#
#
# Elastic Constant Matrix: (Units=GPa)
#
#
# Indices 1 2 3 4 5 6 
#
# 1 56.2698 26.1691 65.7345 0.0000 0.0000 0.0000
# 2 26.1691 44.6190 43.5615 0.0000 0.0000 0.0000
# 3 65.7345 43.5615 163.2085 0.0000 0.0000 0.0000
# 4 0.0000 0.0000 0.0000 14.8263 0.0000 0.0000
# 5 0.0000 0.0000 0.0000 0.0000 31.8979 0.0000
# 6 0.0000 0.0000 0.0000 0.0000 0.0000 19.4226
#
#
#
# Elastic Compliance Matrix: (Units=1/GPa)
#
#
# Indices 1 2 3 4 5 6 
#
# 1 0.036311 -0.009492 -0.012091 0.000000 0.000000 0.000000
# 2 -0.009492 0.032791 -0.004929 0.000000 0.000000 0.000000
# 3 -0.012091 -0.004929 0.012313 0.000000 0.000000 0.000000
# 4 0.000000 0.000000 0.000000 0.067448 0.000000 0.000000
# 5 0.000000 0.000000 0.000000 0.000000 0.031350 0.000000
# 6 0.000000 0.000000 0.000000 0.000000 0.000000 0.051487
#
#
# Mechanical properties :
#
#
# Convention : Reuss Voigt Hill
#
# Bulk Modulus (GPa) = 35.22324 59.44751 47.33537
# Shear Modulus (GPa) = 16.99599 21.80484 19.40041
#
# Velocity S-wave (km/s) = 3.07197 3.47953 3.28209
# Velocity P-wave (km/s) = 5.66925 7.01078 6.37540
#
# Compressibility (1/GPa) = 0.02839034
#
# Stress axis : x y z
#
# Youngs Moduli (GPa) = 27.54003 30.49586 81.21665
#
# Poissons Ratio (x) = 0.28945 0.98201
# Poissons Ratio (y) = 0.26140 0.40035
# Poissons Ratio (z) = 0.33299 0.15033
#
# Static dielectric constant tensor:
#      x y z
#    x 1.604010 0.000000 0.000000 
#    y 0.000000 1.629190 0.000000 
#    z 0.000000 0.000000 1.596750 
# 
# From -- ./inp_files/63803.got.cif
#   From: 2010.05.17/outbox.cif.g08.bks.cpg/sg71_32_cif.got.tgz:63803.got - 2010.06.03 16:22:01.
