data_PCOD9522362
_publ_section_title
;
Structure prediction by ZEFSAII (Michael W. Deem and Ramdas Pophale) SiO2 
 PCOD9522362
Probable space group: I M M M
;
_chemical_formula_sum "Si O2"
_cell_formula_units_Z 104
_cell_length_a 13.745693
_cell_length_b 14.944803
_cell_length_c 26.603800
_cell_angle_alpha 90.000000
_cell_angle_beta 90.000000
_cell_angle_gamma 90.000000
_cell_volume 5465.130149
_symmetry_space_group_name_H-M "I M M M"
_symmetry_group_IT_number 71
_symmetry_cell_setting 'orthorhombic'
loop_
_space_group_symop_operation_xyz
x,y,z
-x,-y,z
x,-y,-z
-x,y,-z
-x,-y,-z
x,y,-z
-x,y,z
x,-y,z
1/2+x,1/2+y,1/2+z
1/2-x,1/2-y,1/2+z
1/2+x,1/2-y,1/2-z
1/2-x,1/2+y,1/2-z
1/2-x,1/2-y,1/2-z
1/2+x,1/2+y,1/2-z
1/2-x,1/2+y,1/2+z
1/2+x,1/2-y,1/2+z
loop_
_atom_site_type_symbol
_atom_site_label
_atom_site_fract_x
_atom_site_fract_y
_atom_site_fract_z
Si Si1 0.608077 0.395368 0.193665
Si Si2 0.884939 0.239674 0.888789
Si Si3 0.211964 0.174774 0.212702
Si Si4 0.264229 0.608369 0.099106
Si Si5 0.257729 0.106759 0.058172
Si Si6 0.611337 0.391495 0.000000
Si Si7 0.891302 0.392731 0.351821
O O1 0.500000 0.355331 0.191681
O O2 0.599933 0.500000 0.181794
O O3 0.651741 0.387145 0.249271
O O4 0.678126 0.360826 0.149461
O O5 0.855126 0.211975 0.831962
O O6 0.834254 0.334463 0.901322
O O7 0.833644 0.164779 0.923514
O O8 0.000000 0.242127 0.894781
O O9 0.250000 0.250000 0.250000
O O10 0.308082 0.133346 0.187621
O O11 0.249320 0.500000 0.100016
O O12 0.329130 0.631715 0.050340
O O13 0.347679 0.133172 0.093928
O O14 0.239829 0.000000 0.065235
O O15 0.278532 0.122624 0.000000
O O16 0.605936 0.500000 0.000000
O O17 0.500000 0.358036 0.000000
O O18 0.897355 0.500000 0.351249
O O19 0.000000 0.357388 0.342575
#
# Coordination Sequence:
#
# PCOD9522362 Si02
#       7
#    16  16  16  16  16   8  16
#     4  10  20  36  60  86 113 150 195 243 295 347
#     4  11  24  40  59  85 120 160 199 244 296 347
#     4  11  21  38  55  79 117 153 194 245 288 343
#     4  10  21  39  60  88 123 155 195 243 290 350
#     4   9  20  40  64  89 119 152 194 245 293 349
#     4   9  18  36  63  89 116 151 191 243 303 351
#     4   9  19  36  59  86 115 150 189 234 294 355
#
# _framework density 19.029738999999999
#
# number of rings (size 3 to 8) (size 9 to 14) (size 15 to 20)
#    0.000    2.077    1.538    1.385    1.077    4.923 
#    0.000    3.077    0.000    1.385    0.000    0.000 
#    0.000    0.000    0.000    0.000    0.000    0.000 
#
# Total GULP energy -290123.187487 kJ/mol
# GULP energy per Si atom -5579.292067 kJ/mol
# Density = 1.898643 g / cm^3
# Si number density = 19.029739 Si / 1000 Ang^3
#
#
#
# Elastic Constant Matrix: (Units=GPa)
#
#
# Indices 1 2 3 4 5 6 
#
# 1 147.4299 33.9994 37.7144 0.0000 0.0000 0.0000
# 2 33.9994 44.3565 22.5695 0.0000 0.0000 0.0000
# 3 37.7144 22.5695 107.4714 0.0000 0.0000 0.0000
# 4 0.0000 0.0000 0.0000 26.4895 0.0000 0.0000
# 5 0.0000 0.0000 0.0000 0.0000 11.5244 0.0000
# 6 0.0000 0.0000 0.0000 0.0000 0.0000 24.4714
#
#
#
# Elastic Compliance Matrix: (Units=1/GPa)
#
#
# Indices 1 2 3 4 5 6 
#
# 1 0.008545 -0.005625 -0.001817 0.000000 0.000000 0.000000
# 2 -0.005625 0.028945 -0.004105 0.000000 0.000000 0.000000
# 3 -0.001817 -0.004105 0.010805 0.000000 0.000000 0.000000
# 4 0.000000 0.000000 0.000000 0.037751 0.000000 0.000000
# 5 0.000000 0.000000 0.000000 0.000000 0.086772 0.000000
# 6 0.000000 0.000000 0.000000 0.000000 0.000000 0.040864
#
#
# Mechanical properties :
#
#
# Convention : Reuss Voigt Hill
#
# Bulk Modulus (GPa) = 39.68205 54.20270 46.94238
# Shear Modulus (GPa) = 20.39355 26.16204 23.27779
#
# Velocity S-wave (km/s) = 3.27718 3.71185 3.50127
# Velocity P-wave (km/s) = 5.93446 6.84948 6.40832
#
# Compressibility (1/GPa) = 0.02520031
#
# Stress axis : x y z
#
# Youngs Moduli (GPa) = 117.02738 34.54859 92.55376
#
# Poissons Ratio (x) = 0.19434 0.16820
# Poissons Ratio (y) = 0.65829 0.37989
# Poissons Ratio (z) = 0.21268 0.14181
#
# Static dielectric constant tensor:
#      x y z
#    x 1.528410 0.000000 0.000000 
#    y 0.000000 1.712980 0.000000 
#    z 0.000000 0.000000 1.668840 
# 
# From -- ./inp_files/64634.got.cif
#   From: 2010.05.17/outbox.cif.g08.bks.cpg/sg71_33_cif.got.tgz:64634.got - 2010.06.03 16:22:01.
