data_PCOD9522797
_publ_section_title
;
Structure prediction by ZEFSAII (Michael W. Deem and Ramdas Pophale) SiO2 
 PCOD9522797
Probable space group: I M M M
;
_chemical_formula_sum "Si O2"
_cell_formula_units_Z 112
_cell_length_a 25.927203
_cell_length_b 11.732835
_cell_length_c 19.258677
_cell_angle_alpha 90.000000
_cell_angle_beta 90.000000
_cell_angle_gamma 90.000000
_cell_volume 5858.481740
_symmetry_space_group_name_H-M "I M M M"
_symmetry_group_IT_number 71
_symmetry_cell_setting 'orthorhombic'
loop_
_space_group_symop_operation_xyz
x,y,z
-x,-y,z
x,-y,-z
-x,y,-z
-x,-y,-z
x,y,-z
-x,y,z
x,-y,z
1/2+x,1/2+y,1/2+z
1/2-x,1/2-y,1/2+z
1/2+x,1/2-y,1/2-z
1/2-x,1/2+y,1/2-z
1/2-x,1/2-y,1/2-z
1/2+x,1/2+y,1/2-z
1/2-x,1/2+y,1/2+z
1/2+x,1/2-y,1/2+z
loop_
_atom_site_type_symbol
_atom_site_label
_atom_site_fract_x
_atom_site_fract_y
_atom_site_fract_z
Si Si1 0.291452 0.374146 0.356815
Si Si2 0.263588 0.874221 0.582259
Si Si3 0.062181 0.366311 0.078671
Si Si4 0.441935 0.636281 0.833813
Si Si5 0.154290 0.225521 0.581649
Si Si6 0.686588 0.872618 0.794783
Si Si7 0.885968 0.778599 0.199693
O O1 0.280379 0.500000 0.390710
O O2 0.285335 0.249787 0.393933
O O3 0.248637 0.367389 0.295446
O O4 0.350095 0.375981 0.331961
O O5 0.273046 0.878307 0.500000
O O6 0.201855 0.861816 0.593616
O O7 0.280509 0.000000 0.610902
O O8 0.075095 0.500000 0.087494
O O9 0.087865 0.292272 0.138390
O O10 0.000000 0.356643 0.082436
O O11 0.077978 0.333129 0.000000
O O12 0.500000 0.674218 0.850994
O O13 0.440633 0.500000 0.833891
O O14 0.399061 0.680055 0.887533
O O15 0.426044 0.679628 0.757375
O O16 0.151437 0.248380 0.500000
O O17 0.170457 0.333655 0.627889
O O18 0.656415 0.795067 0.741459
O O19 0.669934 0.000000 0.781743
#
# Coordination Sequence:
#
# PCOD9522797 Si02
#       7
#    16  16  16  16  16  16  16
#     4  10  21  35  51  76 111 148 184 224 271 323
#     4   9  18  33  53  78 109 144 181 222 269 323
#     4   9  19  36  57  81 107 135 173 225 281 331
#     4  10  21  35  52  76 104 135 175 224 274 323
#     4   9  18  33  54  79 108 143 179 218 267 322
#     4   9  19  34  52  79 111 144 183 222 264 318
#     4  11  20  34  55  78 104 142 181 223 270 328
#
# _framework density 19.117581000000001
#
# number of rings (size 3 to 8) (size 9 to 14) (size 15 to 20)
#    0.000    2.429    0.000    2.571    0.000    3.429 
#    0.000    8.571    0.000    5.143    0.000    9.000 
#    0.000    0.000    0.000    0.000    0.000    0.000 
#
# Total GULP energy -312000.677682 kJ/mol
# GULP energy per Si atom -5571.440673 kJ/mol
# Density = 1.907407 g / cm^3
# Si number density = 19.117581 Si / 1000 Ang^3
#
#
#
# Elastic Constant Matrix: (Units=GPa)
#
#
# Indices 1 2 3 4 5 6 
#
# 1 64.0549 25.8473 36.5171 0.0000 0.0000 0.0000
# 2 25.8473 109.4963 19.4771 0.0000 0.0000 0.0000
# 3 36.5171 19.4771 74.7183 0.0000 0.0000 0.0000
# 4 0.0000 0.0000 0.0000 -7.6043 0.0000 0.0000
# 5 0.0000 0.0000 0.0000 0.0000 15.0206 0.0000
# 6 0.0000 0.0000 0.0000 0.0000 0.0000 5.7644
#
#
#
# Elastic Compliance Matrix: (Units=1/GPa)
#
#
# Indices 1 2 3 4 5 6 
#
# 1 0.022907 -0.003582 -0.010262 0.000000 0.000000 0.000000
# 2 -0.003582 0.010137 -0.000892 0.000000 0.000000 0.000000
# 3 -0.010262 -0.000892 0.018631 0.000000 0.000000 0.000000
# 4 0.000000 0.000000 0.000000 -0.131504 0.000000 0.000000
# 5 0.000000 0.000000 0.000000 0.000000 0.066575 0.000000
# 6 0.000000 0.000000 0.000000 0.000000 0.000000 0.173480
#
#
# Mechanical properties :
#
#
# Convention : Reuss Voigt Hill
#
# Bulk Modulus (GPa) = 45.03627 45.77251 45.40439
# Shear Modulus (GPa) = 25.36803 13.73132 19.54968
#
# Velocity S-wave (km/s) = 3.64668 2.68294 3.20128
# Velocity P-wave (km/s) = 6.42960 5.79587 6.12094
#
# Compressibility (1/GPa) = 0.02220433
#
# Stress axis : x y z
#
# Youngs Moduli (GPa) = 43.65451 98.64924 53.67319
#
# Poissons Ratio (x) = 0.35337 0.55078
# Poissons Ratio (y) = 0.15637 0.04786
# Poissons Ratio (z) = 0.44797 0.08797
#
# Static dielectric constant tensor:
#      x y z
#    x 1.689090 0.000000 0.000000 
#    y 0.000000 1.686630 0.000000 
#    z 0.000000 0.000000 1.670810 
# 
# From -- ./inp_files/27689.got.cif
#   From: 2010.05.17/outbox.cif.g08.bks.cpg/sg71_14_cif.got.tgz:27689.got - 2010.06.03 16:22:01.
