data_PCOD9522735
_publ_section_title
;
Structure prediction by ZEFSAII (Michael W. Deem and Ramdas Pophale) SiO2 
 PCOD9522735
Probable space group: I M M M
;
_chemical_formula_sum "Si O2"
_cell_formula_units_Z 88
_cell_length_a 11.658330
_cell_length_b 29.486348
_cell_length_c 14.090512
_cell_angle_alpha 90.000000
_cell_angle_beta 90.000000
_cell_angle_gamma 90.000000
_cell_volume 4843.776604
_symmetry_space_group_name_H-M "I M M M"
_symmetry_group_IT_number 71
_symmetry_cell_setting 'orthorhombic'
loop_
_space_group_symop_operation_xyz
x,y,z
-x,-y,z
x,-y,-z
-x,y,-z
-x,-y,-z
x,y,-z
-x,y,z
x,-y,z
1/2+x,1/2+y,1/2+z
1/2-x,1/2-y,1/2+z
1/2+x,1/2-y,1/2-z
1/2-x,1/2+y,1/2-z
1/2-x,1/2-y,1/2-z
1/2+x,1/2+y,1/2-z
1/2-x,1/2+y,1/2+z
1/2+x,1/2-y,1/2+z
loop_
_atom_site_type_symbol
_atom_site_label
_atom_site_fract_x
_atom_site_fract_y
_atom_site_fract_z
Si Si1 0.000000 0.649696 0.115673
Si Si2 0.135822 0.945495 0.711727
Si Si3 0.361600 0.448812 0.000000
Si Si4 0.000000 0.242052 0.114298
Si Si5 0.281365 0.867169 0.260881
Si Si6 0.251760 0.706192 0.386891
Si Si7 0.136226 0.802603 0.608493
O O1 0.890010 0.629177 0.169470
O O2 0.000000 0.704237 0.136701
O O3 0.000000 0.643969 0.000000
O O4 0.166180 0.930508 0.603116
O O5 0.221841 0.914177 0.770086
O O6 0.000000 0.936655 0.728057
O O7 0.150860 0.000000 0.719714
O O8 0.316268 0.500000 0.000000
O O9 0.500000 0.450973 0.000000
O O10 0.883010 0.217355 0.144499
O O11 0.000000 0.240620 0.000000
O O12 0.302855 0.835071 0.170505
O O13 0.189441 0.838347 0.320937
O O14 0.252172 0.697788 0.500000
O O15 0.182389 0.752483 0.369814
O O16 0.173569 0.813125 0.500000
O O17 0.000000 0.803476 0.611834
#
# Coordination Sequence:
#
# PCOD9522735 Si02
#       7
#     8  16   8   8  16  16  16
#     4  11  24  38  52  79 114 149 183 215 269 333
#     4   9  19  35  55  80 108 137 175 224 277 326
#     4   7  12  26  48  71  97 129 159 198 257 317
#     4   9  18  36  54  72 112 154 178 214 268 320
#     4  12  23  34  58  78 106 147 188 222 271 328
#     4  10  22  37  54  79 111 147 186 227 267 315
#     4  10  21  34  52  81 112 140 181 232 269 313
#
# _framework density 18.167643000000002
#
# number of rings (size 3 to 8) (size 9 to 14) (size 15 to 20)
#    0.000    2.091    1.818    2.727    6.364    0.000 
#    0.000    0.455    0.000    1.091    0.000    1.273 
#    0.000    1.455    0.000    0.000    0.000    0.000 
#
# Total GULP energy -245392.796314 kJ/mol
# GULP energy per Si atom -5577.109007 kJ/mol
# Density = 1.812629 g / cm^3
# Si number density = 18.167643 Si / 1000 Ang^3
#
#
#
# Elastic Constant Matrix: (Units=GPa)
#
#
# Indices 1 2 3 4 5 6 
#
# 1 70.1302 31.6346 24.5376 0.0000 0.0000 0.0000
# 2 31.6346 78.0586 33.4828 0.0001 0.0000 0.0000
# 3 24.5376 33.4828 49.3392 0.0004 -0.0002 -0.0001
# 4 0.0000 0.0001 0.0004 16.7471 0.0000 0.0000
# 5 0.0000 0.0000 -0.0002 0.0000 16.9501 0.0000
# 6 0.0000 0.0000 -0.0001 0.0000 0.0000 -8.6944
#
#
#
# Elastic Compliance Matrix: (Units=1/GPa)
#
#
# Indices 1 2 3 4 5 6 
#
# 1 0.018563 -0.005026 -0.005821 0.000000 0.000000 0.000000
# 2 -0.005026 0.019432 -0.010688 0.000000 0.000000 0.000000
# 3 -0.005821 -0.010688 0.030416 -0.000001 0.000000 0.000000
# 4 0.000000 0.000000 -0.000001 0.059712 0.000000 0.000000
# 5 0.000000 0.000000 0.000000 0.000000 0.058997 0.000000
# 6 0.000000 0.000000 0.000000 0.000000 0.000000 -0.115016
#
#
# Mechanical properties :
#
#
# Convention : Reuss Voigt Hill
#
# Bulk Modulus (GPa) = 39.46093 41.87088 40.66591
# Shear Modulus (GPa) = 40.44669 12.19210 26.31939
#
# Velocity S-wave (km/s) = 4.72349 2.59335 3.81030
# Velocity P-wave (km/s) = 7.17747 5.66253 6.46453
#
# Compressibility (1/GPa) = 0.02534152
#
# Stress axis : x y z
#
# Youngs Moduli (GPa) = 53.87032 51.46101 32.87782
#
# Poissons Ratio (x) = 0.25865 0.19138
# Poissons Ratio (y) = 0.27076 0.35138
# Poissons Ratio (z) = 0.31358 0.54999
#
# Static dielectric constant tensor:
#      x y z
#    x 1.627160 0.000000 0.000000 
#    y 0.000000 1.625740 0.000000 
#    z 0.000000 0.000000 1.667210 
# 
# From -- ./inp_files/33020.got.cif
#   From: 2010.05.17/outbox.cif.g08.bks.cpg/sg71_17_cif.got.tgz:33020.got - 2010.06.03 16:22:01.
