data_PCOD9522858
_publ_section_title
;
Structure prediction by ZEFSAII (Michael W. Deem and Ramdas Pophale) SiO2 
 PCOD9522858
Probable space group: I M M M
;
_chemical_formula_sum "Si O2"
_cell_formula_units_Z 88
_cell_length_a 28.870026
_cell_length_b 13.592550
_cell_length_c 12.440561
_cell_angle_alpha 90.000000
_cell_angle_beta 90.000000
_cell_angle_gamma 90.000000
_cell_volume 4881.891009
_symmetry_space_group_name_H-M "I M M M"
_symmetry_group_IT_number 71
_symmetry_cell_setting 'orthorhombic'
loop_
_space_group_symop_operation_xyz
x,y,z
-x,-y,z
x,-y,-z
-x,y,-z
-x,-y,-z
x,y,-z
-x,y,z
x,-y,z
1/2+x,1/2+y,1/2+z
1/2-x,1/2-y,1/2+z
1/2+x,1/2-y,1/2-z
1/2-x,1/2+y,1/2-z
1/2-x,1/2-y,1/2-z
1/2+x,1/2+y,1/2-z
1/2-x,1/2+y,1/2+z
1/2+x,1/2-y,1/2+z
loop_
_atom_site_type_symbol
_atom_site_label
_atom_site_fract_x
_atom_site_fract_y
_atom_site_fract_z
Si Si1 0.055844 0.391782 0.625604
Si Si2 0.500000 0.616182 0.626800
Si Si3 0.309221 0.111006 0.500000
Si Si4 0.078575 0.610179 0.000000
Si Si5 0.081262 0.751064 0.805241
Si Si6 0.229885 0.616490 0.370141
Si Si7 0.811726 0.750755 0.803189
O O1 0.067260 0.385599 0.500000
O O2 0.071317 0.500000 0.665460
O O3 0.076673 0.304048 0.692778
O O4 0.000000 0.388225 0.635036
O O5 0.500000 0.500000 0.635007
O O6 0.500000 0.642538 0.500000
O O7 0.545628 0.660886 0.681155
O O8 0.365299 0.104994 0.500000
O O9 0.296420 0.172574 0.394790
O O10 0.290959 0.000000 0.500000
O O11 0.065939 0.671047 0.105391
O O12 0.060006 0.500000 0.000000
O O13 0.134819 0.777215 0.822602
O O14 0.229182 0.628172 0.500000
O O15 0.221861 0.500000 0.347490
O O16 0.195043 0.690870 0.308201
O O17 0.278817 0.655397 0.321509
#
# Coordination Sequence:
#
# PCOD9522858 Si02
#       7
#    16   8   8   8  16  16  16
#     4   9  18  32  52  80 112 146 183 223 275 338
#     4  11  24  40  57  82 115 153 198 238 276 322
#     4   9  16  30  50  76 111 146 181 221 274 334
#     4   9  18  29  48  79 110 144 180 222 281 337
#     4  11  20  36  56  80 116 151 187 235 279 329
#     4  10  21  38  59  84 114 147 186 234 286 342
#     4  10  21  35  56  85 113 146 189 232 283 340
#
# _framework density 18.025801000000001
#
# number of rings (size 3 to 8) (size 9 to 14) (size 15 to 20)
#    0.000    2.091    2.727    1.636    0.000    3.636 
#    0.000    4.091    0.000    1.091    0.000    2.545 
#    0.000    0.000    0.000    0.000    0.000    0.000 
#
# Total GULP energy -245388.845387 kJ/mol
# GULP energy per Si atom -5577.019213 kJ/mol
# Density = 1.798477 g / cm^3
# Si number density = 18.025801 Si / 1000 Ang^3
#
#
#
# Elastic Constant Matrix: (Units=GPa)
#
#
# Indices 1 2 3 4 5 6 
#
# 1 70.4782 28.3595 13.5631 0.0000 0.0000 0.0000
# 2 28.3595 63.9908 20.0231 0.0000 0.0000 0.0000
# 3 13.5631 20.0231 59.8516 0.0000 0.0000 0.0000
# 4 0.0000 0.0000 0.0000 31.4183 0.0000 0.0000
# 5 0.0000 0.0000 0.0000 0.0000 2.5955 0.0000
# 6 0.0000 0.0000 0.0000 0.0000 0.0000 3.4649
#
#
#
# Elastic Compliance Matrix: (Units=1/GPa)
#
#
# Indices 1 2 3 4 5 6 
#
# 1 0.017391 -0.007231 -0.001522 0.000000 0.000000 0.000000
# 2 -0.007231 0.020461 -0.005206 0.000000 0.000000 0.000000
# 3 -0.001522 -0.005206 0.018795 0.000000 0.000000 0.000000
# 4 0.000000 0.000000 0.000000 0.031829 0.000000 0.000000
# 5 0.000000 0.000000 0.000000 0.000000 0.385286 0.000000
# 6 0.000000 0.000000 0.000000 0.000000 0.000000 0.288608
#
#
# Mechanical properties :
#
#
# Convention : Reuss Voigt Hill
#
# Bulk Modulus (GPa) = 34.80941 35.35687 35.08314
# Shear Modulus (GPa) = 6.25105 16.32073 11.28589
#
# Velocity S-wave (km/s) = 1.86423 3.01227 2.50491
# Velocity P-wave (km/s) = 4.89761 5.63520 5.27931
#
# Compressibility (1/GPa) = 0.02872786
#
# Stress axis : x y z
#
# Youngs Moduli (GPa) = 57.49951 48.87305 53.20655
#
# Poissons Ratio (x) = 0.35342 0.08098
# Poissons Ratio (y) = 0.41580 0.27702
# Poissons Ratio (z) = 0.08751 0.25446
#
# Static dielectric constant tensor:
#      x y z
#    x 1.644730 0.000000 0.000000 
#    y 0.000000 1.600790 0.000000 
#    z 0.000000 0.000000 1.632190 
# 
# From -- ./inp_files/28642.got.cif
#   From: 2010.05.17/outbox.cif.g08.bks.cpg/sg71_15_cif.got.tgz:28642.got - 2010.06.03 16:22:01.
