data_PCOD9522200
_publ_section_title
;
Structure prediction by ZEFSAII (Michael W. Deem and Ramdas Pophale) SiO2 
 PCOD9522200
Probable space group: I M M M
;
_chemical_formula_sum "Si O2"
_cell_formula_units_Z 82
_cell_length_a 20.358853
_cell_length_b 25.395212
_cell_length_c 7.964881
_cell_angle_alpha 90.000000
_cell_angle_beta 90.000000
_cell_angle_gamma 90.000000
_cell_volume 4117.981970
_symmetry_space_group_name_H-M "I M M M"
_symmetry_group_IT_number 71
_symmetry_cell_setting 'orthorhombic'
loop_
_space_group_symop_operation_xyz
x,y,z
-x,-y,z
x,-y,-z
-x,y,-z
-x,-y,-z
x,y,-z
-x,y,z
x,-y,z
1/2+x,1/2+y,1/2+z
1/2-x,1/2-y,1/2+z
1/2+x,1/2-y,1/2-z
1/2-x,1/2+y,1/2-z
1/2-x,1/2-y,1/2-z
1/2+x,1/2+y,1/2-z
1/2-x,1/2+y,1/2+z
1/2+x,1/2-y,1/2+z
loop_
_atom_site_type_symbol
_atom_site_label
_atom_site_fract_x
_atom_site_fract_y
_atom_site_fract_z
Si Si1 0.137053 0.500000 0.812701
Si Si2 0.000000 0.649582 0.308951
Si Si3 0.000000 0.766407 0.195995
Si Si4 0.500000 0.439025 0.205017
Si Si5 0.500000 0.000000 0.500000
Si Si6 0.604963 0.352377 0.203123
Si Si7 0.745555 0.311146 0.202770
Si Si8 0.358700 0.113371 0.299296
O O1 0.153899 0.444863 0.728420
O O2 0.169514 0.500000 0.000000
O O3 0.059139 0.500000 0.856953
O O4 0.933914 0.628924 0.225606
O O5 0.000000 0.632062 0.500000
O O6 0.000000 0.712621 0.297173
O O7 0.062228 0.802502 0.238865
O O8 0.000000 0.752652 0.000000
O O9 0.500000 0.500000 0.260883
O O10 0.564156 0.404525 0.257285
O O11 0.500000 0.439761 0.000000
O O12 0.679221 0.341068 0.260013
O O13 0.604867 0.353438 0.000000
O O14 0.750000 0.250000 0.250000
O O15 0.809227 0.342596 0.266075
O O16 0.745166 0.312810 0.000000
O O17 0.349183 0.109823 0.500000
#
# Coordination Sequence:
#
# PCOD9522200 Si02
#       8
#     8   8   8   8   2  16  16  16
#     4   8  16  30  54  79 103 135 173 218 272 308
#     4  12  24  35  51  78 107 139 177 226 277 321
#     4  11  21  34  54  80 103 135 183 226 268 327
#     4   8  14  28  52  80 106 141 174 211 263 322
#     4   8  12  24  52  76  98 140 164 210 286 306
#     4   9  18  34  53  77 112 143 173 219 274 323
#     4  10  21  35  53  78 108 144 181 220 271 325
#     4  10  20  36  56  79 106 141 184 223 265 324
#
# _framework density 19.912666000000002
#
# number of rings (size 3 to 8) (size 9 to 14) (size 15 to 20)
#    0.293    2.049    0.000    4.098    0.000    4.683 
#    1.756    0.976    0.000    4.683    0.000    0.000 
#    0.000    0.000    0.000    0.000    0.000    0.000 
#
# Total GULP energy -228358.908519 kJ/mol
# GULP energy per Si atom -5569.729476 kJ/mol
# Density = 1.986734 g / cm^3
# Si number density = 19.912666 Si / 1000 Ang^3
#
#
#
# Elastic Constant Matrix: (Units=GPa)
#
#
# Indices 1 2 3 4 5 6 
#
# 1 140.8504 76.5005 6.1621 0.0000 0.0000 0.0000
# 2 76.5005 177.7554 5.7653 0.0000 0.0000 0.0000
# 3 6.1621 5.7653 18.0335 0.0000 0.0000 0.0000
# 4 0.0000 0.0000 0.0000 17.3346 0.0000 0.0000
# 5 0.0000 0.0000 0.0000 0.0000 395.4832 0.0000
# 6 0.0000 0.0000 0.0000 0.0000 0.0000 -30.5725
#
#
#
# Elastic Compliance Matrix: (Units=1/GPa)
#
#
# Indices 1 2 3 4 5 6 
#
# 1 0.009331 -0.003953 -0.001925 0.000000 0.000000 0.000000
# 2 -0.003953 0.007360 -0.001002 0.000000 0.000000 0.000000
# 3 -0.001925 -0.001002 0.056430 0.000000 0.000000 0.000000
# 4 0.000000 0.000000 0.000000 0.057688 0.000000 0.000000
# 5 0.000000 0.000000 0.000000 0.000000 0.002529 0.000000
# 6 0.000000 0.000000 0.000000 0.000000 0.000000 -0.032709
#
#
# Mechanical properties :
#
#
# Convention : Reuss Voigt Hill
#
# Bulk Modulus (GPa) = 16.84607 57.05501 36.95054
# Shear Modulus (GPa) = 37.26462 92.99649 65.13055
#
# Velocity S-wave (km/s) = 4.33066 6.84131 5.72530
# Velocity P-wave (km/s) = 5.78658 9.54566 7.89317
#
# Compressibility (1/GPa) = 0.05936104
#
# Stress axis : x y z
#
# Youngs Moduli (GPa) = 107.16767 135.87615 17.72101
#
# Poissons Ratio (x) = 0.53718 0.03411
# Poissons Ratio (y) = 0.42368 0.01776
# Poissons Ratio (z) = 0.20625 0.13614
#
# Static dielectric constant tensor:
#      x y z
#    x 1.714120 0.000000 0.000000 
#    y 0.000000 1.716140 0.000000 
#    z 0.000000 0.000000 1.733020 
# 
# From -- ./inp_files/10369.got.cif
#   From: 2010.05.17/outbox.cif.g08.bks.cpg/sg71_6_cif.got.tgz:10369.got - 2010.06.03 16:22:01.
