data_PCOD9522718
_publ_section_title
;
Structure prediction by ZEFSAII (Michael W. Deem and Ramdas Pophale) SiO2 
 PCOD9522718
Probable space group: I M M M
;
_chemical_formula_sum "Si O2"
_cell_formula_units_Z 104
_cell_length_a 30.634268
_cell_length_b 24.453031
_cell_length_c 7.916955
_cell_angle_alpha 90.000000
_cell_angle_beta 90.000000
_cell_angle_gamma 90.000000
_cell_volume 5930.596572
_symmetry_space_group_name_H-M "I M M M"
_symmetry_group_IT_number 71
_symmetry_cell_setting 'orthorhombic'
loop_
_space_group_symop_operation_xyz
x,y,z
-x,-y,z
x,-y,-z
-x,y,-z
-x,-y,-z
x,y,-z
-x,y,z
x,-y,z
1/2+x,1/2+y,1/2+z
1/2-x,1/2-y,1/2+z
1/2+x,1/2-y,1/2-z
1/2-x,1/2+y,1/2-z
1/2-x,1/2-y,1/2-z
1/2+x,1/2+y,1/2-z
1/2-x,1/2+y,1/2+z
1/2+x,1/2-y,1/2+z
loop_
_atom_site_type_symbol
_atom_site_label
_atom_site_fract_x
_atom_site_fract_y
_atom_site_fract_z
Si Si1 0.950337 0.233231 0.797402
Si Si2 0.625304 0.937995 0.702390
Si Si3 0.219414 0.566355 0.194505
Si Si4 0.948946 0.935699 0.500000
Si Si5 0.684068 0.435843 0.206203
Si Si6 0.548930 0.857048 0.800765
Si Si7 0.401773 0.375652 0.302913
O O1 0.940175 0.293490 0.730473
O O2 0.915304 0.186470 0.756499
O O3 0.000000 0.218351 0.740344
O O4 0.951564 0.237193 0.000000
O O5 0.630777 0.941638 0.500000
O O6 0.672558 0.917843 0.770785
O O7 0.585728 0.897448 0.734400
O O8 0.616691 0.000000 0.764612
O O9 0.218149 0.500000 0.190222
O O10 0.267030 0.579458 0.266702
O O11 0.220474 0.585943 0.000000
O O12 0.928153 0.911671 0.669302
O O13 0.000000 0.924156 0.500000
O O14 0.941176 0.000000 0.500000
O O15 0.675487 0.500000 0.250721
O O16 0.647902 0.395090 0.277819
O O17 0.683085 0.433676 0.000000
O O18 0.500000 0.866446 0.728750
O O19 0.546680 0.865809 0.000000
O O20 0.413945 0.383872 0.500000
#
# Coordination Sequence:
#
# PCOD9522718 Si02
#       7
#    16  16  16   8  16  16  16
#     4   9  19  36  55  73  94 126 173 224 266 305
#     4   9  17  31  52  77 105 138 173 207 251 309
#     4   7  12  25  47  73  99 132 172 209 249 302
#     4  11  24  38  52  74 106 144 179 215 270 330
#     4   9  16  29  50  75 104 136 171 213 263 316
#     4  10  21  34  50  74 102 134 170 213 263 311
#     4  11  22  35  54  79 105 137 179 228 270 318
#
# _framework density 17.536180000000002
#
# number of rings (size 3 to 8) (size 9 to 14) (size 15 to 20)
#    0.000    2.692    0.769    3.231    1.077    3.692 
#    0.000    3.077    0.000    3.692    0.000    0.000 
#    0.000    0.000    0.000    0.000    0.000    0.000 
#
# Total GULP energy -289594.353712 kJ/mol
# GULP energy per Si atom -5569.122187 kJ/mol
# Density = 1.749627 g / cm^3
# Si number density = 17.536180 Si / 1000 Ang^3
#
#
#
# Elastic Constant Matrix: (Units=GPa)
#
#
# Indices 1 2 3 4 5 6 
#
# 1 170.7304 84.1852 28.5380 0.0000 0.0000 0.0000
# 2 84.1852 81.1634 19.5666 0.0000 0.0000 0.0000
# 3 28.5380 19.5666 42.9645 0.0000 0.0000 0.0000
# 4 0.0000 0.0000 0.0000 18.4088 0.0000 0.0000
# 5 0.0000 0.0000 0.0000 0.0000 -6.1282 0.0000
# 6 0.0000 0.0000 0.0000 0.0000 0.0000 28.6557
#
#
#
# Elastic Compliance Matrix: (Units=1/GPa)
#
#
# Indices 1 2 3 4 5 6 
#
# 1 0.012250 -0.012069 -0.002640 0.000000 0.000000 0.000000
# 2 -0.012069 0.025732 -0.003702 0.000000 0.000000 0.000000
# 3 -0.002640 -0.003702 0.026714 0.000000 0.000000 0.000000
# 4 0.000000 0.000000 0.000000 0.054322 0.000000 0.000000
# 5 0.000000 0.000000 0.000000 0.000000 -0.163181 0.000000
# 6 0.000000 0.000000 0.000000 0.000000 0.000000 0.034897
#
#
# Mechanical properties :
#
#
# Convention : Reuss Voigt Hill
#
# Bulk Modulus (GPa) = 35.87624 62.15976 49.01800
# Shear Modulus (GPa) = 135.69123 19.02515 77.35819
#
# Velocity S-wave (km/s) = 8.80601 3.29737 6.64900
# Velocity P-wave (km/s) = 11.13092 7.07251 9.32517
#
# Compressibility (1/GPa) = 0.02787360
#
# Stress axis : x y z
#
# Youngs Moduli (GPa) = 81.63449 38.86218 37.43289
#
# Poissons Ratio (x) = 0.46904 0.09882
# Poissons Ratio (y) = 0.98527 0.13857
# Poissons Ratio (z) = 0.21552 0.14386
#
# Static dielectric constant tensor:
#      x y z
#    x 1.654250 0.000000 0.000000 
#    y 0.000000 1.567620 0.000000 
#    z 0.000000 0.000000 1.640450 
# 
# From -- ./inp_files/17257.got.cif
#   From: 2010.05.17/outbox.cif.g08.bks.cpg/sg71_9_cif.got.tgz:17257.got - 2010.06.03 16:22:01.
