data_PCOD9522239
_publ_section_title
;
Structure prediction by ZEFSAII (Michael W. Deem and Ramdas Pophale) SiO2 
 PCOD9522239
Probable space group: I M M M
;
_chemical_formula_sum "Si O2"
_cell_formula_units_Z 64
_cell_length_a 24.799138
_cell_length_b 7.694570
_cell_length_c 16.080786
_cell_angle_alpha 90.000000
_cell_angle_beta 90.000000
_cell_angle_gamma 90.000000
_cell_volume 3068.514732
_symmetry_space_group_name_H-M "I M M M"
_symmetry_group_IT_number 71
_symmetry_cell_setting 'orthorhombic'
loop_
_space_group_symop_operation_xyz
x,y,z
-x,-y,z
x,-y,-z
-x,y,-z
-x,-y,-z
x,y,-z
-x,y,z
x,-y,z
1/2+x,1/2+y,1/2+z
1/2-x,1/2-y,1/2+z
1/2+x,1/2-y,1/2-z
1/2-x,1/2+y,1/2-z
1/2-x,1/2-y,1/2-z
1/2+x,1/2+y,1/2-z
1/2-x,1/2+y,1/2+z
1/2+x,1/2-y,1/2+z
loop_
_atom_site_type_symbol
_atom_site_label
_atom_site_fract_x
_atom_site_fract_y
_atom_site_fract_z
Si Si1 0.000000 0.713601 0.323528
Si Si2 0.288811 0.786333 0.500000
Si Si3 0.224028 0.205668 0.661763
Si Si4 0.000000 0.288059 0.867097
Si Si5 0.587397 0.788069 0.500000
Si Si6 0.889353 0.292351 0.406525
O O1 0.000000 0.769589 0.227650
O O2 0.945666 0.772503 0.369332
O O3 0.000000 0.500000 0.324010
O O4 0.257904 0.725121 0.417185
O O5 0.351053 0.730279 0.500000
O O6 0.288772 0.000000 0.500000
O O7 0.250000 0.250000 0.750000
O O8 0.162032 0.259350 0.651200
O O9 0.225424 0.000000 0.654218
O O10 0.000000 0.500000 0.866683
O O11 0.052586 0.234196 0.919621
O O12 0.587930 0.000000 0.500000
O O13 0.879212 0.224032 0.500000
O O14 0.894741 0.500000 0.412550
#
# Coordination Sequence:
#
# PCOD9522239 Si02
#       6
#     8   8  16   8   8  16
#     4   9  18  30  51  81 110 145 188 233 283 336
#     4   9  19  34  54  78 111 146 184 231 285 341
#     4  11  23  39  58  84 115 152 194 239 288 347
#     4   8  14  24  42  71 104 133 169 217 270 325
#     4   8  14  25  42  69 103 135 167 215 274 327
#     4  10  20  36  57  82 114 149 188 238 290 342
#
# _framework density 20.856997
#
# number of rings (size 3 to 8) (size 9 to 14) (size 15 to 20)
#    0.000    2.500    1.250    1.875    3.500    1.500 
#    0.000    0.625    0.000    1.500    0.000    0.000 
#    0.000    2.000    0.000    0.000    0.000    0.000 
#
# Total GULP energy -178685.794936 kJ/mol
# GULP energy per Si atom -5583.931092 kJ/mol
# Density = 2.080953 g / cm^3
# Si number density = 20.856997 Si / 1000 Ang^3
#
#
#
# Elastic Constant Matrix: (Units=GPa)
#
#
# Indices 1 2 3 4 5 6 
#
# 1 213.8577 5.5180 99.3816 0.0000 0.0000 0.0000
# 2 5.5180 34.6379 6.7205 0.0000 0.0000 0.0000
# 3 99.3816 6.7205 166.2324 0.0000 0.0000 0.0000
# 4 0.0000 0.0000 0.0000 9.6596 0.0000 0.0000
# 5 0.0000 0.0000 0.0000 0.0000 15.5623 0.0000
# 6 0.0000 0.0000 0.0000 0.0000 0.0000 10.1507
#
#
#
# Elastic Compliance Matrix: (Units=1/GPa)
#
#
# Indices 1 2 3 4 5 6 
#
# 1 0.006478 -0.000283 -0.003861 0.000000 0.000000 0.000000
# 2 -0.000283 0.029111 -0.001008 0.000000 0.000000 0.000000
# 3 -0.003861 -0.001008 0.008365 0.000000 0.000000 0.000000
# 4 0.000000 0.000000 0.000000 0.103524 0.000000 0.000000
# 5 0.000000 0.000000 0.000000 0.000000 0.064258 0.000000
# 6 0.000000 0.000000 0.000000 0.000000 0.000000 0.098515
#
#
# Mechanical properties :
#
#
# Convention : Reuss Voigt Hill
#
# Bulk Modulus (GPa) = 29.71811 70.88534 50.30173
# Shear Modulus (GPa) = 15.07069 27.28173 21.17621
#
# Velocity S-wave (km/s) = 2.69099 3.62060 3.18984
# Velocity P-wave (km/s) = 4.89231 7.17903 6.14301
#
# Compressibility (1/GPa) = 0.03364952
#
# Stress axis : x y z
#
# Youngs Moduli (GPa) = 154.37716 34.35166 119.54806
#
# Poissons Ratio (x) = 0.00971 0.46160
# Poissons Ratio (y) = 0.04365 0.12049
# Poissons Ratio (z) = 0.59608 0.03462
#
# Static dielectric constant tensor:
#      x y z
#    x 1.687450 0.000000 0.000000 
#    y 0.000000 1.789710 0.000000 
#    z 0.000000 0.000000 1.718820 
# 
# From -- ./inp_files/5950.got.cif
#   From: 2010.05.17/outbox.cif.g08.bks.cpg/sg71_3_cif.got.tgz:5950.got - 2010.06.03 16:22:01.
