data_PCOD9522740
_publ_section_title
;
Structure prediction by ZEFSAII (Michael W. Deem and Ramdas Pophale) SiO2 
 PCOD9522740
Probable space group: I M M M
;
_chemical_formula_sum "Si O2"
_cell_formula_units_Z 58
_cell_length_a 9.561378
_cell_length_b 17.287052
_cell_length_c 19.105755
_cell_angle_alpha 90.000000
_cell_angle_beta 90.000000
_cell_angle_gamma 90.000000
_cell_volume 3157.952771
_symmetry_space_group_name_H-M "I M M M"
_symmetry_group_IT_number 71
_symmetry_cell_setting 'orthorhombic'
loop_
_space_group_symop_operation_xyz
x,y,z
-x,-y,z
x,-y,-z
-x,y,-z
-x,-y,-z
x,y,-z
-x,y,z
x,-y,z
1/2+x,1/2+y,1/2+z
1/2-x,1/2-y,1/2+z
1/2+x,1/2-y,1/2-z
1/2-x,1/2+y,1/2-z
1/2-x,1/2-y,1/2-z
1/2+x,1/2+y,1/2-z
1/2-x,1/2+y,1/2+z
1/2+x,1/2-y,1/2+z
loop_
_atom_site_type_symbol
_atom_site_label
_atom_site_fract_x
_atom_site_fract_y
_atom_site_fract_z
Si Si1 0.332030 0.909643 0.205286
Si Si2 0.711167 0.500000 0.922431
Si Si3 0.500000 0.000000 0.500000
Si Si4 0.669681 0.196355 0.920499
Si Si5 0.162287 0.153407 0.666712
O O1 0.500000 0.902674 0.213228
O O2 0.293576 0.875182 0.129492
O O3 0.255096 0.860965 0.265066
O O4 0.295042 0.000000 0.211815
O O5 0.671207 0.423932 0.879828
O O6 0.876338 0.500000 0.939536
O O7 0.647231 0.500000 0.000000
O O8 0.500000 0.198439 0.924269
O O9 0.711991 0.274693 0.880437
O O10 0.722483 0.192421 0.000000
O O11 0.000000 0.167105 0.686150
#
# Coordination Sequence:
#
# PCOD9522740 Si02
#       5
#    16   8   2  16  16
#     4  10  21  35  57  82 109 146 185 229 281 331
#     4  10  21  34  54  79 112 151 179 216 272 327
#     4   8  24  36  50  84 120 152 174 236 272 320
#     4   9  19  36  55  80 111 142 184 237 281 325
#     4  11  21  34  56  82 111 147 182 226 276 333
#
# _framework density 18.366327999999999
#
# number of rings (size 3 to 8) (size 9 to 14) (size 15 to 20)
#    0.414    1.655    1.379    2.069    1.931    2.759 
#    0.000    2.759    0.000    2.483    0.000    1.931 
#    0.000    0.000    0.000    0.000    0.000    0.000 
#
# Total GULP energy -161497.654198 kJ/mol
# GULP energy per Si atom -5568.884628 kJ/mol
# Density = 1.832453 g / cm^3
# Si number density = 18.366328 Si / 1000 Ang^3
#
#
#
# Elastic Constant Matrix: (Units=GPa)
#
#
# Indices 1 2 3 4 5 6 
#
# 1 50.7307 12.4604 29.1432 0.0000 0.0000 0.0000
# 2 12.4604 31.8848 41.4186 0.0000 0.0000 0.0000
# 3 29.1432 41.4186 160.5558 0.0000 0.0000 0.0000
# 4 0.0000 0.0000 0.0000 15.0591 0.0000 0.0000
# 5 0.0000 0.0000 0.0000 0.0000 28.2532 0.0000
# 6 0.0000 0.0000 0.0000 0.0000 0.0000 -34.7697
#
#
#
# Elastic Compliance Matrix: (Units=1/GPa)
#
#
# Indices 1 2 3 4 5 6 
#
# 1 0.022579 -0.005264 -0.002741 0.000000 0.000000 0.000000
# 2 -0.005264 0.048397 -0.011529 0.000000 0.000000 0.000000
# 3 -0.002741 -0.011529 0.009700 0.000000 0.000000 0.000000
# 4 0.000000 0.000000 0.000000 0.066405 0.000000 0.000000
# 5 0.000000 0.000000 0.000000 0.000000 0.035394 0.000000
# 6 0.000000 0.000000 0.000000 0.000000 0.000000 -0.028761
#
#
# Mechanical properties :
#
#
# Convention : Reuss Voigt Hill
#
# Bulk Modulus (GPa) = 24.03360 45.46840 34.75100
# Shear Modulus (GPa) = 24.19528 12.38513 18.29021
#
# Velocity S-wave (km/s) = 3.63350 2.59962 3.15914
# Velocity P-wave (km/s) = 5.54231 5.81557 5.68058
#
# Compressibility (1/GPa) = 0.04160841
#
# Stress axis : x y z
#
# Youngs Moduli (GPa) = 44.28853 20.66247 103.09205
#
# Poissons Ratio (x) = 0.10876 0.28253
# Poissons Ratio (y) = 0.23313 1.18860
# Poissons Ratio (z) = 0.12137 0.23823
#
# Static dielectric constant tensor:
#      x y z
#    x 1.625610 0.000000 0.000000 
#    y 0.000000 1.628990 0.000000 
#    z 0.000000 0.000000 1.633440 
# 
# From -- ./inp_files/41756.got.cif
#   From: 2010.05.17/outbox.cif.g08.bks.cpg/sg71_21_cif.got.tgz:41756.got - 2010.06.03 16:22:01.
