data_PCOD9522559
_publ_section_title
;
Structure prediction by ZEFSAII (Michael W. Deem and Ramdas Pophale) SiO2 
 PCOD9522559
Probable space group: I M M M
;
_chemical_formula_sum "Si O2"
_cell_formula_units_Z 72
_cell_length_a 12.933886
_cell_length_b 18.054901
_cell_length_c 16.525444
_cell_angle_alpha 90.000000
_cell_angle_beta 90.000000
_cell_angle_gamma 90.000000
_cell_volume 3859.022200
_symmetry_space_group_name_H-M "I M M M"
_symmetry_group_IT_number 71
_symmetry_cell_setting 'orthorhombic'
loop_
_space_group_symop_operation_xyz
x,y,z
-x,-y,z
x,-y,-z
-x,y,-z
-x,-y,-z
x,y,-z
-x,y,z
x,-y,z
1/2+x,1/2+y,1/2+z
1/2-x,1/2-y,1/2+z
1/2+x,1/2-y,1/2-z
1/2-x,1/2+y,1/2-z
1/2-x,1/2-y,1/2-z
1/2+x,1/2+y,1/2-z
1/2-x,1/2+y,1/2+z
1/2+x,1/2-y,1/2+z
loop_
_atom_site_type_symbol
_atom_site_label
_atom_site_fract_x
_atom_site_fract_y
_atom_site_fract_z
Si Si1 0.374726 0.910250 0.500000
Si Si2 0.884769 0.690690 0.595961
Si Si3 0.211244 0.915855 0.903042
Si Si4 0.384783 0.680774 0.279100
Si Si5 0.773674 0.318215 0.148718
O O1 0.500000 0.899540 0.500000
O O2 0.324800 0.869787 0.579906
O O3 0.355715 0.000000 0.500000
O O4 0.894823 0.685022 0.500000
O O5 0.821846 0.618328 0.622474
O O6 0.808640 0.759584 0.611168
O O7 0.000000 0.697227 0.630252
O O8 0.126654 0.864685 0.861579
O O9 0.200236 0.000000 0.878002
O O10 0.204274 0.911374 0.000000
O O11 0.500000 0.675095 0.247088
O O12 0.299887 0.646929 0.217647
O O13 0.354488 0.765329 0.302964
#
# Coordination Sequence:
#
# PCOD9522559 Si02
#       5
#     8  16  16  16  16
#     4  11  24  42  65  89 116 155 197 241 297 357
#     4   9  16  29  54  81 107 142 178 222 278 330
#     4   9  19  34  50  77 116 152 192 236 278 335
#     4  10  21  35  58  85 112 153 195 240 296 344
#     4  10  20  38  58  85 118 142 190 249 289 344
#
# _framework density 18.657575000000001
#
# number of rings (size 3 to 8) (size 9 to 14) (size 15 to 20)
#    0.000    2.333    1.111    1.333    1.556    2.222 
#    0.000    4.444    0.000    4.667    0.000    0.000 
#    0.000    0.000    0.000    0.000    0.000    0.000 
#
# Total GULP energy -200408.443622 kJ/mol
# GULP energy per Si atom -5566.901212 kJ/mol
# Density = 1.861511 g / cm^3
# Si number density = 18.657575 Si / 1000 Ang^3
#
#
#
# Elastic Constant Matrix: (Units=GPa)
#
#
# Indices 1 2 3 4 5 6 
#
# 1 110.1746 30.0773 40.8756 0.0000 0.0000 0.0000
# 2 30.0773 70.9007 29.7032 0.0000 0.0000 0.0000
# 3 40.8756 29.7032 66.5105 0.0000 0.0000 0.0000
# 4 0.0000 0.0000 0.0000 20.2263 0.0000 0.0000
# 5 0.0000 0.0000 0.0000 0.0000 22.3693 0.0000
# 6 0.0000 0.0000 0.0000 0.0000 0.0000 11.4792
#
#
#
# Elastic Compliance Matrix: (Units=1/GPa)
#
#
# Indices 1 2 3 4 5 6 
#
# 1 0.012102 -0.002483 -0.006329 0.000000 0.000000 0.000000
# 2 -0.002483 0.017860 -0.006450 0.000000 0.000000 0.000000
# 3 -0.006329 -0.006450 0.021806 0.000000 0.000000 0.000000
# 4 0.000000 0.000000 0.000000 0.049441 0.000000 0.000000
# 5 0.000000 0.000000 0.000000 0.000000 0.044704 0.000000
# 6 0.000000 0.000000 0.000000 0.000000 0.000000 0.087114
#
#
# Mechanical properties :
#
#
# Convention : Reuss Voigt Hill
#
# Bulk Modulus (GPa) = 47.07276 49.87755 48.47515
# Shear Modulus (GPa) = 18.47532 20.61028 19.54280
#
# Velocity S-wave (km/s) = 3.15021 3.32725 3.23994
# Velocity P-wave (km/s) = 6.20615 6.44608 6.32725
#
# Compressibility (1/GPa) = 0.02124371
#
# Stress axis : x y z
#
# Youngs Moduli (GPa) = 82.62845 55.99208 45.85978
#
# Poissons Ratio (x) = 0.13900 0.29025
# Poissons Ratio (y) = 0.20513 0.29581
# Poissons Ratio (z) = 0.52296 0.36117
#
# Static dielectric constant tensor:
#      x y z
#    x 1.683720 0.000000 0.000000 
#    y 0.000000 1.632630 0.000000 
#    z 0.000000 0.000000 1.715570 
# 
# From -- ./inp_files/43086.got.cif
#   From: 2010.05.17/outbox.cif.g08.bks.cpg/sg71_22_cif.got.tgz:43086.got - 2010.06.03 16:22:01.
