data_PCOD9522627
_publ_section_title
;
Structure prediction by ZEFSAII (Michael W. Deem and Ramdas Pophale) SiO2 
 PCOD9522627
Probable space group: I M M M
;
_chemical_formula_sum "Si O2"
_cell_formula_units_Z 66
_cell_length_a 26.865955
_cell_length_b 14.973765
_cell_length_c 8.038991
_cell_angle_alpha 90.000000
_cell_angle_beta 90.000000
_cell_angle_gamma 90.000000
_cell_volume 3233.961448
_symmetry_space_group_name_H-M "I M M M"
_symmetry_group_IT_number 71
_symmetry_cell_setting 'orthorhombic'
loop_
_space_group_symop_operation_xyz
x,y,z
-x,-y,z
x,-y,-z
-x,y,-z
-x,-y,-z
x,y,-z
-x,y,z
x,-y,z
1/2+x,1/2+y,1/2+z
1/2-x,1/2-y,1/2+z
1/2+x,1/2-y,1/2-z
1/2-x,1/2+y,1/2-z
1/2-x,1/2-y,1/2-z
1/2+x,1/2+y,1/2-z
1/2-x,1/2+y,1/2+z
1/2+x,1/2-y,1/2+z
loop_
_atom_site_type_symbol
_atom_site_label
_atom_site_fract_x
_atom_site_fract_y
_atom_site_fract_z
Si Si1 0.855559 0.148004 0.196135
Si Si2 0.248164 0.354498 0.199907
Si Si3 0.361104 0.856575 0.299739
Si Si4 0.425895 0.500000 0.816330
Si Si5 0.557466 0.000000 0.197440
Si Si6 0.000000 0.000000 0.000000
O O1 0.799443 0.112465 0.223064
O O2 0.862131 0.251906 0.247400
O O3 0.891901 0.087150 0.299863
O O4 0.866766 0.143281 0.000000
O O5 0.250000 0.250000 0.250000
O O6 0.194004 0.389961 0.255316
O O7 0.250902 0.362983 0.000000
O O8 0.360423 0.860028 0.500000
O O9 0.408234 0.914800 0.245231
O O10 0.458283 0.500000 0.649734
O O11 0.448657 0.500000 0.000000
O O12 0.500000 0.000000 0.264530
O O13 0.553275 0.000000 0.000000
#
# Coordination Sequence:
#
# PCOD9522627 Si02
#       6
#    16  16  16   8   8   2
#     4  10  20  39  63  94 129 162 203 258 309 380
#     4   9  17  31  55  90 125 159 199 247 308 380
#     4   9  20  38  62  87 121 162 204 253 312 371
#     4  12  25  44  70  94 126 169 209 267 326 374
#     4  11  25  42  57  81 116 153 207 269 309 365
#     4  12  26  52  64  90 132 158 222 276 306 382
#
# _framework density 20.408407
#
# number of rings (size 3 to 8) (size 9 to 14) (size 15 to 20)
#    0.000    2.061    1.212    3.455    0.000    7.758 
#    2.182    1.212    0.000    0.000    0.000    0.000 
#    0.000    0.000    0.000    0.000    0.000    0.000 
#
# Total GULP energy -183714.772316 kJ/mol
# GULP energy per Si atom -5567.114313 kJ/mol
# Density = 2.036196 g / cm^3
# Si number density = 20.408407 Si / 1000 Ang^3
#
#
#
# Elastic Constant Matrix: (Units=GPa)
#
#
# Indices 1 2 3 4 5 6 
#
# 1 187.6658 73.4929 41.3802 0.0000 0.0000 0.0000
# 2 73.4929 102.3607 28.4648 0.0000 0.0000 0.0000
# 3 41.3802 28.4648 88.2522 0.0000 0.0000 0.0000
# 4 0.0000 0.0000 0.0000 -79.4639 0.0000 0.0000
# 5 0.0000 0.0000 0.0000 0.0000 151.9882 0.0000
# 6 0.0000 0.0000 0.0000 0.0000 0.0000 -73.3627
#
#
#
# Elastic Compliance Matrix: (Units=1/GPa)
#
#
# Indices 1 2 3 4 5 6 
#
# 1 0.007726 -0.004987 -0.002014 0.000000 0.000000 0.000000
# 2 -0.004987 0.013951 -0.002161 0.000000 0.000000 0.000000
# 3 -0.002014 -0.002161 0.012973 0.000000 0.000000 0.000000
# 4 0.000000 0.000000 0.000000 -0.012584 0.000000 0.000000
# 5 0.000000 0.000000 0.000000 0.000000 0.006579 0.000000
# 6 0.000000 0.000000 0.000000 0.000000 0.000000 -0.013631
#
#
# Mechanical properties :
#
#
# Convention : Reuss Voigt Hill
#
# Bulk Modulus (GPa) = 61.25714 73.88385 67.57049
# Shear Modulus (GPa) = 128.93458 15.49503 72.21481
#
# Velocity S-wave (km/s) = 7.95703 2.75843 5.95497
# Velocity P-wave (km/s) = 10.70046 6.81370 8.97013
#
# Compressibility (1/GPa) = 0.01632463
#
# Stress axis : x y z
#
# Youngs Moduli (GPa) = 129.43962 71.68025 77.08524
#
# Poissons Ratio (x) = 0.35745 0.15525
# Poissons Ratio (y) = 0.64549 0.16662
# Poissons Ratio (z) = 0.26069 0.15493
#
# Static dielectric constant tensor:
#      x y z
#    x 1.754610 0.000000 0.000000 
#    y 0.000000 1.728970 0.000000 
#    z 0.000000 0.000000 1.709320 
# 
# From -- ./inp_files/14243.got.cif
#   From: 2010.05.17/outbox.cif.g08.bks.cpg/sg71_8_cif.got.tgz:14243.got - 2010.06.03 16:22:01.
