data_PCOD9522009
_publ_section_title
;
Structure prediction by ZEFSAII (Michael W. Deem and Ramdas Pophale) SiO2 
 PCOD9522009
Probable space group: I M M M
;
_chemical_formula_sum "Si O2"
_cell_formula_units_Z 80
_cell_length_a 28.179893
_cell_length_b 8.012745
_cell_length_c 17.251863
_cell_angle_alpha 90.000000
_cell_angle_beta 90.000000
_cell_angle_gamma 90.000000
_cell_volume 3895.441281
_symmetry_space_group_name_H-M "I M M M"
_symmetry_group_IT_number 71
_symmetry_cell_setting 'orthorhombic'
loop_
_space_group_symop_operation_xyz
x,y,z
-x,-y,z
x,-y,-z
-x,y,-z
-x,-y,-z
x,y,-z
-x,y,z
x,-y,z
1/2+x,1/2+y,1/2+z
1/2-x,1/2-y,1/2+z
1/2+x,1/2-y,1/2-z
1/2-x,1/2+y,1/2-z
1/2-x,1/2-y,1/2-z
1/2+x,1/2+y,1/2-z
1/2-x,1/2+y,1/2+z
1/2+x,1/2-y,1/2+z
loop_
_atom_site_type_symbol
_atom_site_label
_atom_site_fract_x
_atom_site_fract_y
_atom_site_fract_z
Si Si1 0.188601 0.298280 0.409656
Si Si2 0.793308 0.698135 0.910139
Si Si3 0.890982 0.195662 0.153722
Si Si4 0.405441 0.802359 0.825333
Si Si5 0.500000 0.795243 0.910038
Si Si6 0.055017 0.795933 0.000000
O O1 0.182675 0.249589 0.500000
O O2 0.189916 0.500000 0.406613
O O3 0.240037 0.235964 0.382911
O O4 0.143889 0.235427 0.360539
O O5 0.800627 0.500000 0.909396
O O6 0.835111 0.779076 0.861089
O O7 0.796779 0.757514 0.000000
O O8 0.906591 0.277444 0.233629
O O9 0.918106 0.261510 0.077488
O O10 0.901345 0.000000 0.160094
O O11 0.452432 0.735683 0.867152
O O12 0.404656 0.000000 0.841568
O O13 0.500000 0.000000 0.907194
O O14 0.500000 0.748034 0.000000
O O15 0.000000 0.747532 0.000000
O O16 0.057123 0.000000 0.000000
#
# Coordination Sequence:
#
# PCOD9522009 Si02
#       6
#    16  16  16  16   8   8
#     4   9  18  34  57  82 111 149 192 230 274 335
#     4  10  20  35  57  83 113 147 186 235 286 333
#     4  11  22  37  59  83 113 150 190 231 279 337
#     4  10  21  36  56  86 118 146 185 237 282 329
#     4   9  18  36  63  88 115 152 190 228 280 337
#     4   9  20  38  59  81 107 147 193 232 271 330
#
# _framework density 20.536826000000001
#
# number of rings (size 3 to 8) (size 9 to 14) (size 15 to 20)
#    0.000    2.200    1.000    1.800    1.400    4.800 
#    0.000    0.000    0.000    4.800    0.000    0.000 
#    0.000    0.000    0.000    0.000    0.000    0.000 
#
# Total GULP energy -223421.532522 kJ/mol
# GULP energy per Si atom -5585.538313 kJ/mol
# Density = 2.049008 g / cm^3
# Si number density = 20.536826 Si / 1000 Ang^3
#
#
#
# Elastic Constant Matrix: (Units=GPa)
#
#
# Indices 1 2 3 4 5 6 
#
# 1 143.5171 -7.8924 71.5835 0.0000 0.0000 0.0000
# 2 -7.8924 8.7392 -13.9971 0.0000 0.0000 0.0000
# 3 71.5835 -13.9971 100.0552 0.0000 0.0000 0.0000
# 4 0.0000 0.0000 0.0000 20.0013 0.0000 0.0000
# 5 0.0000 0.0000 0.0000 0.0000 10.0368 0.0000
# 6 0.0000 0.0000 0.0000 0.0000 0.0000 3.9560
#
#
#
# Elastic Compliance Matrix: (Units=1/GPa)
#
#
# Indices 1 2 3 4 5 6 
#
# 1 0.010912 -0.003414 -0.008285 0.000000 0.000000 0.000000
# 2 -0.003414 0.148538 0.023222 0.000000 0.000000 0.000000
# 3 -0.008285 0.023222 0.019170 0.000000 0.000000 0.000000
# 4 0.000000 0.000000 0.000000 0.049997 0.000000 0.000000
# 5 0.000000 0.000000 0.000000 0.000000 0.099633 0.000000
# 6 0.000000 0.000000 0.000000 0.000000 0.000000 0.252782
#
#
# Mechanical properties :
#
#
# Convention : Reuss Voigt Hill
#
# Bulk Modulus (GPa) = 4.95867 39.07774 22.01820
# Shear Modulus (GPa) = 7.99734 20.30665 14.15199
#
# Velocity S-wave (km/s) = 1.97550 3.14792 2.62793
# Velocity P-wave (km/s) = 2.76102 5.68172 4.46683
#
# Compressibility (1/GPa) = 0.20166696
#
# Stress axis : x y z
#
# Youngs Moduli (GPa) = 91.63950 6.73229 52.16388
#
# Poissons Ratio (x) = 0.02299 0.43216
# Poissons Ratio (y) = 0.31288 -1.21136
# Poissons Ratio (z) = 0.75921 -0.15634
#
# Static dielectric constant tensor:
#      x y z
#    x 1.721220 0.000000 0.000000 
#    y 0.000000 1.733230 0.000000 
#    z 0.000000 0.000000 1.705190 
# 
# From -- ./inp_files/14594.got.cif
#   From: 2010.05.17/outbox.cif.g08.bks.cpg/sg71_8_cif.got.tgz:14594.got - 2010.06.03 16:22:01.
