data_PCOD9522173
_publ_section_title
;
Structure prediction by ZEFSAII (Michael W. Deem and Ramdas Pophale) SiO2 
 PCOD9522173
Probable space group: I M M M
;
_chemical_formula_sum "Si O2"
_cell_formula_units_Z 120
_cell_length_a 8.722455
_cell_length_b 27.317193
_cell_length_c 28.546955
_cell_angle_alpha 90.000000
_cell_angle_beta 90.000000
_cell_angle_gamma 90.000000
_cell_volume 6801.968228
_symmetry_space_group_name_H-M "I M M M"
_symmetry_group_IT_number 71
_symmetry_cell_setting 'orthorhombic'
loop_
_space_group_symop_operation_xyz
x,y,z
-x,-y,z
x,-y,-z
-x,y,-z
-x,-y,-z
x,y,-z
-x,y,z
x,-y,z
1/2+x,1/2+y,1/2+z
1/2-x,1/2-y,1/2+z
1/2+x,1/2-y,1/2-z
1/2-x,1/2+y,1/2-z
1/2-x,1/2-y,1/2-z
1/2+x,1/2+y,1/2-z
1/2-x,1/2+y,1/2+z
1/2+x,1/2-y,1/2+z
loop_
_atom_site_type_symbol
_atom_site_label
_atom_site_fract_x
_atom_site_fract_y
_atom_site_fract_z
Si Si1 0.181859 0.907709 0.391016
Si Si2 0.685479 0.797759 0.053773
Si Si3 0.184289 0.739053 0.301062
Si Si4 0.185994 0.798750 0.608292
Si Si5 0.679448 0.058796 0.702970
Si Si6 0.316718 0.000000 0.554135
Si Si7 0.184821 0.556769 0.689535
Si Si8 0.182126 0.850958 0.858467
O O1 0.239604 0.853254 0.403335
O O2 0.219670 0.916031 0.336383
O O3 0.257889 0.951570 0.419710
O O4 0.000000 0.910161 0.398535
O O5 0.500000 0.800831 0.057316
O O6 0.730816 0.743538 0.071891
O O7 0.757936 0.835256 0.090460
O O8 0.729139 0.805453 0.000000
O O9 0.250000 0.750000 0.250000
O O10 0.231160 0.779726 0.339950
O O11 0.243678 0.687790 0.322091
O O12 0.000000 0.737835 0.299190
O O13 0.000000 0.800518 0.608301
O O14 0.500000 0.071711 0.696393
O O15 0.723705 0.069659 0.756443
O O16 0.690791 0.000000 0.697154
O O17 0.500000 0.000000 0.555885
O O18 0.266456 0.000000 0.500000
O O19 0.226894 0.500000 0.681533
O O20 0.263697 0.595138 0.655665
O O21 0.000000 0.560171 0.685663
O O22 0.000000 0.846764 0.856289
#
# Coordination Sequence:
#
# PCOD9522173 Si02
#       8
#    16  16  16  16  16   8  16  16
#     4  11  21  34  55  81 106 135 174 227 282 333
#     4   9  18  37  63  83 104 141 185 229 279 334
#     4  10  20  36  54  77 111 149 188 228 276 334
#     4   8  18  34  52  79 110 136 172 224 277 327
#     4   9  18  33  52  74 104 143 181 219 265 315
#     4  11  25  43  57  71  99 141 185 231 282 333
#     4   9  19  36  57  82 112 151 194 231 268 318
#     4  11  22  35  54  83 118 152 184 225 277 331
#
# _framework density 17.641952
#
# number of rings (size 3 to 8) (size 9 to 14) (size 15 to 20)
#    0.000    2.333    0.667    3.800    1.867    2.133 
#    0.000    8.667    0.000    0.400    0.000    2.800 
#    0.000    0.000    0.000    0.000    0.000    0.000 
#
# Total GULP energy -334831.882111 kJ/mol
# GULP energy per Si atom -5580.531369 kJ/mol
# Density = 1.760180 g / cm^3
# Si number density = 17.641952 Si / 1000 Ang^3
#
#
#
# Elastic Constant Matrix: (Units=GPa)
#
#
# Indices 1 2 3 4 5 6 
#
# 1 46.1009 36.4109 43.5427 0.0000 0.0000 0.0000
# 2 36.4109 112.4970 69.1681 0.0000 0.0000 0.0000
# 3 43.5427 69.1681 129.8687 0.0000 0.0000 0.0000
# 4 0.0000 0.0000 0.0000 11.9540 0.0000 0.0000
# 5 0.0000 0.0000 0.0000 0.0000 14.8540 0.0000
# 6 0.0000 0.0000 0.0000 0.0000 0.0000 12.5417
#
#
#
# Elastic Compliance Matrix: (Units=1/GPa)
#
#
# Indices 1 2 3 4 5 6 
#
# 1 0.034256 -0.005986 -0.008297 0.000000 0.000000 0.000000
# 2 -0.005986 0.014263 -0.005590 0.000000 0.000000 0.000000
# 3 -0.008297 -0.005590 0.013459 0.000000 0.000000 0.000000
# 4 0.000000 0.000000 0.000000 0.083654 0.000000 0.000000
# 5 0.000000 0.000000 0.000000 0.000000 0.067322 0.000000
# 6 0.000000 0.000000 0.000000 0.000000 0.000000 0.079734
#
#
# Mechanical properties :
#
#
# Convention : Reuss Voigt Hill
#
# Bulk Modulus (GPa) = 44.97865 65.18999 55.08432
# Shear Modulus (GPa) = 14.71256 17.15959 15.93607
#
# Velocity S-wave (km/s) = 2.89096 3.12213 3.00876
# Velocity P-wave (km/s) = 6.05757 7.07311 6.58494
#
# Compressibility (1/GPa) = 0.02223277
#
# Stress axis : x y z
#
# Youngs Moduli (GPa) = 29.19180 70.11015 74.29880
#
# Poissons Ratio (x) = 0.41966 0.61649
# Poissons Ratio (y) = 0.17473 0.41531
# Poissons Ratio (z) = 0.24222 0.39190
#
# Static dielectric constant tensor:
#      x y z
#    x 1.590890 0.000000 0.000000 
#    y 0.000000 1.602700 0.000000 
#    z 0.000000 0.000000 1.586840 
# 
# From -- ./inp_files/15597.got.cif
#   From: 2010.05.17/outbox.cif.g08.bks.cpg/sg71_8_cif.got.tgz:15597.got - 2010.06.03 16:22:01.
