data_PCOD9522883
_publ_section_title
;
Structure prediction by ZEFSAII (Michael W. Deem and Ramdas Pophale) SiO2 
 PCOD9522883
Probable space group: I M M M
;
_chemical_formula_sum "Si O2"
_cell_formula_units_Z 80
_cell_length_a 7.520891
_cell_length_b 18.924327
_cell_length_c 26.560571
_cell_angle_alpha 90.000000
_cell_angle_beta 90.000000
_cell_angle_gamma 90.000000
_cell_volume 3780.307654
_symmetry_space_group_name_H-M "I M M M"
_symmetry_group_IT_number 71
_symmetry_cell_setting 'orthorhombic'
loop_
_space_group_symop_operation_xyz
x,y,z
-x,-y,z
x,-y,-z
-x,y,-z
-x,-y,-z
x,y,-z
-x,y,z
x,-y,z
1/2+x,1/2+y,1/2+z
1/2-x,1/2-y,1/2+z
1/2+x,1/2-y,1/2-z
1/2-x,1/2+y,1/2-z
1/2-x,1/2-y,1/2-z
1/2+x,1/2+y,1/2-z
1/2-x,1/2+y,1/2+z
1/2+x,1/2-y,1/2+z
loop_
_atom_site_type_symbol
_atom_site_label
_atom_site_fract_x
_atom_site_fract_y
_atom_site_fract_z
Si Si1 0.215580 0.326791 0.807569
Si Si2 0.282405 0.828787 0.000000
Si Si3 0.288173 0.079686 0.399912
Si Si4 0.711196 0.667639 0.000000
Si Si5 0.282315 0.918716 0.097053
Si Si6 0.710248 0.837117 0.805203
O O1 0.281296 0.377860 0.851528
O O2 0.266047 0.245603 0.817784
O O3 0.280951 0.346793 0.751535
O O4 0.000000 0.328841 0.806667
O O5 0.226757 0.870797 0.950050
O O6 0.500000 0.828151 0.000000
O O7 0.219094 0.747864 0.000000
O O8 0.500000 0.074223 0.392770
O O9 0.261600 0.124453 0.450342
O O10 0.217310 0.000000 0.404490
O O11 0.500000 0.673259 0.000000
O O12 0.500000 0.917724 0.097386
O O13 0.219360 0.885056 0.149665
O O14 0.228043 0.000000 0.091409
O O15 0.500000 0.851634 0.802452
#
# Coordination Sequence:
#
# PCOD9522883 Si02
#       6
#    16   8  16   8  16  16
#     4   9  18  32  50  71  96 129 165 199 240 289
#     4   9  17  28  43  67  98 127 154 190 238 287
#     4  10  21  36  52  71  98 130 163 202 248 297
#     4  11  22  35  53  75  98 125 160 202 246 295
#     4   9  16  26  43  68  97 126 155 191 236 282
#     4   9  17  30  49  73  99 127 163 205 242 279
#
# _framework density 21.162299000000001
#
# number of rings (size 3 to 8) (size 9 to 14) (size 15 to 20)
#    0.000    2.600    0.000    2.100    0.000    6.000 
#    0.000    4.000    0.000    0.600    0.000    5.600 
#    0.000    8.000    0.000    0.000    0.000    0.000 
#
# Total GULP energy -223386.897928 kJ/mol
# GULP energy per Si atom -5584.672448 kJ/mol
# Density = 2.111413 g / cm^3
# Si number density = 21.162299 Si / 1000 Ang^3
#
#
#
# Elastic Constant Matrix: (Units=GPa)
#
#
# Indices 1 2 3 4 5 6 
#
# 1 48.5828 -12.4559 -6.1635 0.0000 0.0000 0.0000
# 2 -12.4559 181.9253 136.9056 0.0000 0.0000 0.0000
# 3 -6.1635 136.9056 182.3179 0.0000 0.0000 0.0000
# 4 0.0000 0.0000 0.0000 -20.5962 0.0000 0.0000
# 5 0.0000 0.0000 0.0000 0.0000 -18.8787 0.0000
# 6 0.0000 0.0000 0.0000 0.0000 0.0000 14.8255
#
#
#
# Elastic Compliance Matrix: (Units=1/GPa)
#
#
# Indices 1 2 3 4 5 6 
#
# 1 0.021008 0.002078 -0.000850 0.000000 0.000000 0.000000
# 2 0.002078 0.012845 -0.009575 0.000000 0.000000 0.000000
# 3 -0.000850 -0.009575 0.012646 0.000000 0.000000 0.000000
# 4 0.000000 0.000000 0.000000 -0.048553 0.000000 0.000000
# 5 0.000000 0.000000 0.000000 0.000000 -0.052970 0.000000
# 6 0.000000 0.000000 0.000000 0.000000 0.000000 0.067451
#
#
# Mechanical properties :
#
#
# Convention : Reuss Voigt Hill
#
# Bulk Modulus (GPa) = 33.55137 72.15538 52.85337
# Shear Modulus (GPa) = 128.01802 14.70611 71.36207
#
# Velocity S-wave (km/s) = 7.78619 2.63899 5.81331
# Velocity P-wave (km/s) = 9.83472 6.59211 8.37191
#
# Compressibility (1/GPa) = 0.02980504
#
# Stress axis : x y z
#
# Youngs Moduli (GPa) = 47.60008 77.85399 79.07549
#
# Poissons Ratio (x) = -0.16181 0.06725
# Poissons Ratio (y) = -0.09893 0.75714
# Poissons Ratio (z) = 0.04048 0.74545
#
# Static dielectric constant tensor:
#      x y z
#    x 1.807970 0.000000 0.000000 
#    y 0.000000 1.720610 0.000000 
#    z 0.000000 0.000000 1.658570 
# 
# From -- ./inp_files/42263.got.cif
#   From: 2010.05.17/outbox.cif.g08.bks.cpg/sg71_22_cif.got.tgz:42263.got - 2010.06.03 16:22:01.
