data_PCOD9522471
_publ_section_title
;
Structure prediction by ZEFSAII (Michael W. Deem and Ramdas Pophale) SiO2 
 PCOD9522471
Probable space group: I M M M
;
_chemical_formula_sum "Si O2"
_cell_formula_units_Z 120
_cell_length_a 30.594992
_cell_length_b 24.974337
_cell_length_c 9.008511
_cell_angle_alpha 90.000000
_cell_angle_beta 90.000000
_cell_angle_gamma 90.000000
_cell_volume 6883.309933
_symmetry_space_group_name_H-M "I M M M"
_symmetry_group_IT_number 71
_symmetry_cell_setting 'orthorhombic'
loop_
_space_group_symop_operation_xyz
x,y,z
-x,-y,z
x,-y,-z
-x,y,-z
-x,-y,-z
x,y,-z
-x,y,z
x,-y,z
1/2+x,1/2+y,1/2+z
1/2-x,1/2-y,1/2+z
1/2+x,1/2-y,1/2-z
1/2-x,1/2+y,1/2-z
1/2-x,1/2-y,1/2-z
1/2+x,1/2+y,1/2-z
1/2-x,1/2+y,1/2+z
1/2+x,1/2-y,1/2+z
loop_
_atom_site_type_symbol
_atom_site_label
_atom_site_fract_x
_atom_site_fract_y
_atom_site_fract_z
Si Si1 0.427781 0.633974 0.175816
Si Si2 0.257259 0.563080 0.673986
Si Si3 0.826903 0.859886 0.675574
Si Si4 0.449572 0.756553 0.821156
Si Si5 0.297732 0.251244 0.677475
Si Si6 0.500000 0.561573 0.322661
Si Si7 0.125020 0.328595 0.178171
Si Si8 0.837291 0.439184 0.178460
O O1 0.376748 0.621943 0.196744
O O2 0.437501 0.695420 0.221595
O O3 0.458185 0.593235 0.262202
O O4 0.437826 0.630636 0.000000
O O5 0.257154 0.577577 0.500000
O O6 0.267857 0.500000 0.686747
O O7 0.292161 0.598283 0.761452
O O8 0.209145 0.570181 0.742765
O O9 0.819738 0.851172 0.500000
O O10 0.820652 0.804447 0.761767
O O11 0.500000 0.767115 0.778917
O O12 0.415036 0.797571 0.752303
O O13 0.446435 0.759311 0.000000
O O14 0.293299 0.252738 0.500000
O O15 0.250000 0.250000 0.750000
O O16 0.329445 0.201658 0.716417
O O17 0.500000 0.500000 0.272139
O O18 0.500000 0.562457 0.500000
O O19 0.130422 0.390911 0.219729
O O20 0.120110 0.325020 0.000000
O O21 0.851753 0.500000 0.213955
O O22 0.830705 0.436307 0.000000
#
# Coordination Sequence:
#
# PCOD9522471 Si02
#       8
#    16  16  16  16  16   8  16  16
#     4  10  21  39  60  80 106 143 186 232 280 336
#     4  10  21  36  54  78 109 147 190 234 280 328
#     4  11  22  36  55  78 107 145 189 232 281 334
#     4  10  20  37  60  84 110 141 181 228 281 336
#     4  11  22  34  51  79 116 152 188 231 282 337
#     4  11  25  41  59  85 113 143 182 231 288 341
#     4  10  21  35  54  84 114 142 182 226 274 333
#     4   9  18  35  58  82 112 149 187 227 267 318
#
# _framework density 17.433472999999999
#
# number of rings (size 3 to 8) (size 9 to 14) (size 15 to 20)
#    0.000    1.800    2.000    2.200    0.000    5.867 
#    0.000    2.667    0.000    0.400    0.000    2.800 
#    0.000    0.000    0.000    0.000    0.000    0.000 
#
# Total GULP energy -335037.419125 kJ/mol
# GULP energy per Si atom -5583.956985 kJ/mol
# Density = 1.739379 g / cm^3
# Si number density = 17.433473 Si / 1000 Ang^3
#
#
#
# Elastic Constant Matrix: (Units=GPa)
#
#
# Indices 1 2 3 4 5 6 
#
# 1 91.4639 70.5847 38.2239 0.0000 0.0000 0.0000
# 2 70.5847 133.5564 45.8942 0.0000 0.0000 0.0000
# 3 38.2239 45.8942 39.9276 0.0000 0.0000 0.0000
# 4 0.0000 0.0000 0.0000 24.8907 0.0000 0.0000
# 5 0.0000 0.0000 0.0000 0.0000 30.2020 0.0000
# 6 0.0000 0.0000 0.0000 0.0000 0.0000 26.5240
#
#
#
# Elastic Compliance Matrix: (Units=1/GPa)
#
#
# Indices 1 2 3 4 5 6 
#
# 1 0.021700 -0.007157 -0.012548 0.000000 0.000000 0.000000
# 2 -0.007157 0.014736 -0.010087 0.000000 0.000000 0.000000
# 3 -0.012548 -0.010087 0.048652 0.000000 0.000000 0.000000
# 4 0.000000 0.000000 0.000000 0.040176 0.000000 0.000000
# 5 0.000000 0.000000 0.000000 0.000000 0.033110 0.000000
# 6 0.000000 0.000000 0.000000 0.000000 0.000000 0.037702
#
#
# Mechanical properties :
#
#
# Convention : Reuss Voigt Hill
#
# Bulk Modulus (GPa) = 39.20769 63.81707 51.51238
# Shear Modulus (GPa) = 18.92784 23.67299 21.30041
#
# Velocity S-wave (km/s) = 3.29860 3.68897 3.49923
# Velocity P-wave (km/s) = 6.08657 7.40474 6.77778
#
# Compressibility (1/GPa) = 0.02550520
#
# Stress axis : x y z
#
# Youngs Moduli (GPa) = 46.08228 67.86163 20.55405
#
# Poissons Ratio (x) = 0.48566 0.25792
# Poissons Ratio (y) = 0.32980 0.20732
# Poissons Ratio (z) = 0.57825 0.68450
#
# Static dielectric constant tensor:
#      x y z
#    x 1.579280 0.000000 0.000000 
#    y 0.000000 1.595920 0.000000 
#    z 0.000000 0.000000 1.584030 
# 
# From -- ./inp_files/15673.got.cif
#   From: 2010.05.17/outbox.cif.g08.bks.cpg/sg71_8_cif.got.tgz:15673.got - 2010.06.03 16:22:01.
