data_PCOD9522714
_publ_section_title
;
Structure prediction by ZEFSAII (Michael W. Deem and Ramdas Pophale) SiO2 
 PCOD9522714
Probable space group: I M M M
;
_chemical_formula_sum "Si O2"
_cell_formula_units_Z 104
_cell_length_a 29.555929
_cell_length_b 21.162160
_cell_length_c 7.471296
_cell_angle_alpha 90.000000
_cell_angle_beta 90.000000
_cell_angle_gamma 90.000000
_cell_volume 4673.051325
_symmetry_space_group_name_H-M "I M M M"
_symmetry_group_IT_number 71
_symmetry_cell_setting 'orthorhombic'
loop_
_space_group_symop_operation_xyz
x,y,z
-x,-y,z
x,-y,-z
-x,y,-z
-x,-y,-z
x,y,-z
-x,y,z
x,-y,z
1/2+x,1/2+y,1/2+z
1/2-x,1/2-y,1/2+z
1/2+x,1/2-y,1/2-z
1/2-x,1/2+y,1/2-z
1/2-x,1/2-y,1/2-z
1/2+x,1/2+y,1/2-z
1/2-x,1/2+y,1/2+z
1/2+x,1/2-y,1/2+z
loop_
_atom_site_type_symbol
_atom_site_label
_atom_site_fract_x
_atom_site_fract_y
_atom_site_fract_z
Si Si1 0.551759 0.072949 0.781973
Si Si2 0.782509 0.570582 0.284282
Si Si3 0.364193 0.159152 0.219731
Si Si4 0.551927 0.500000 0.786510
Si Si5 0.361961 0.699822 0.798215
Si Si6 0.051425 0.138117 0.791530
Si Si7 0.822224 0.929117 0.707501
O O1 0.500000 0.088137 0.727083
O O2 0.590290 0.122205 0.723304
O O3 0.561540 0.000000 0.728802
O O4 0.552211 0.073375 0.000000
O O5 0.778519 0.574602 0.500000
O O6 0.798538 0.500000 0.239712
O O7 0.820034 0.619950 0.226497
O O8 0.732075 0.577735 0.210684
O O9 0.358209 0.231009 0.283365
O O10 0.365819 0.160823 0.000000
O O11 0.500000 0.500000 0.718222
O O12 0.570734 0.433150 0.726396
O O13 0.551626 0.500000 0.000000
O O14 0.415249 0.685042 0.804863
O O15 0.341083 0.636366 0.712170
O O16 0.342855 0.703303 0.000000
O O17 0.000000 0.137692 0.722053
O O18 0.050356 0.154131 0.000000
O O19 0.838055 0.930869 0.500000
O O20 0.832047 0.000000 0.782132
#
# Coordination Sequence:
#
# PCOD9522714 Si02
#       7
#    16  16  16   8  16  16  16
#     4   8  13  22  39  65  97 131 162 196 247 306
#     4   9  17  31  53  77  99 127 163 206 260 318
#     4   9  17  29  45  70 102 130 164 210 254 302
#     4   9  17  31  53  77  97 123 165 213 257 301
#     4  10  21  34  50  73 100 135 174 211 256 306
#     4  10  21  36  52  73 103 136 171 213 258 302
#     4   9  19  35  51  69  96 128 164 209 256 303
#
# _framework density 22.255267
#
# number of rings (size 3 to 8) (size 9 to 14) (size 15 to 20)
#    0.000    2.846    0.000    1.615    1.077    5.538 
#    0.000    2.308    0.000    0.000    0.000    0.000 
#    0.000    0.000    0.000   10.615    0.000    9.538 
#
# Total GULP energy -290146.630861 kJ/mol
# GULP energy per Si atom -5579.742901 kJ/mol
# Density = 2.220461 g / cm^3
# Si number density = 22.255267 Si / 1000 Ang^3
#
#
#
# Elastic Constant Matrix: (Units=GPa)
#
#
# Indices 1 2 3 4 5 6 
#
# 1 102.5433 95.1318 -0.1925 0.0000 0.0000 0.0000
# 2 95.1318 204.8862 9.7084 0.0000 0.0000 0.0000
# 3 -0.1925 9.7084 68.3045 0.0000 0.0000 0.0000
# 4 0.0000 0.0000 0.0000 -1.3718 0.0000 0.0000
# 5 0.0000 0.0000 0.0000 0.0000 1.9104 0.0000
# 6 0.0000 0.0000 0.0000 0.0000 0.0000 20.9880
#
#
#
# Elastic Compliance Matrix: (Units=1/GPa)
#
#
# Indices 1 2 3 4 5 6 
#
# 1 0.017228 -0.008056 0.001194 0.000000 0.000000 0.000000
# 2 -0.008056 0.008681 -0.001257 0.000000 0.000000 0.000000
# 3 0.001194 -0.001257 0.014822 0.000000 0.000000 0.000000
# 4 0.000000 0.000000 0.000000 -0.728948 0.000000 0.000000
# 5 0.000000 0.000000 0.000000 0.000000 0.523441 0.000000
# 6 0.000000 0.000000 0.000000 0.000000 0.000000 0.047646
#
#
# Mechanical properties :
#
#
# Convention : Reuss Voigt Hill
#
# Bulk Modulus (GPa) = 40.82743 65.00327 52.91535
# Shear Modulus (GPa) = -53.92109 22.37773 -15.77168
#
# Velocity S-wave (km/s) = -4.92758 3.17441 -2.66498
# Velocity P-wave (km/s) = 3.74030 6.53508 3.78929
#
# Compressibility (1/GPa) = 0.02449334
#
# Stress axis : x y z
#
# Youngs Moduli (GPa) = 58.04650 115.19908 67.46596
#
# Poissons Ratio (x) = 0.92800 -0.08052
# Poissons Ratio (y) = 0.46760 0.08477
# Poissons Ratio (z) = -0.06928 0.14475
#
# Static dielectric constant tensor:
#      x y z
#    x 1.801060 0.000000 0.000000 
#    y 0.000000 1.809760 0.000000 
#    z 0.000000 0.000000 1.830790 
# 
# From -- ./inp_files/15006.got.cif
#   From: 2010.05.17/outbox.cif.g08.bks.cpg/sg71_8_cif.got.tgz:15006.got - 2010.06.03 16:22:01.
