data_PCOD9522703
_publ_section_title
;
Structure prediction by ZEFSAII (Michael W. Deem and Ramdas Pophale) SiO2 
 PCOD9522703
Probable space group: I M M M
;
_chemical_formula_sum "Si O2"
_cell_formula_units_Z 104
_cell_length_a 17.612578
_cell_length_b 27.381630
_cell_length_c 13.905881
_cell_angle_alpha 90.000000
_cell_angle_beta 90.000000
_cell_angle_gamma 90.000000
_cell_volume 6706.265386
_symmetry_space_group_name_H-M "I M M M"
_symmetry_group_IT_number 71
_symmetry_cell_setting 'orthorhombic'
loop_
_space_group_symop_operation_xyz
x,y,z
-x,-y,z
x,-y,-z
-x,y,-z
-x,-y,-z
x,y,-z
-x,y,z
x,-y,z
1/2+x,1/2+y,1/2+z
1/2-x,1/2-y,1/2+z
1/2+x,1/2-y,1/2-z
1/2-x,1/2+y,1/2-z
1/2-x,1/2-y,1/2-z
1/2+x,1/2+y,1/2-z
1/2-x,1/2+y,1/2+z
1/2+x,1/2-y,1/2+z
loop_
_atom_site_type_symbol
_atom_site_label
_atom_site_fract_x
_atom_site_fract_y
_atom_site_fract_z
Si Si1 0.141469 0.385362 0.799396
Si Si2 0.500000 0.058474 0.387320
Si Si3 0.408239 0.269301 0.797606
Si Si4 0.087841 0.869715 0.614062
Si Si5 0.091294 0.285727 0.109699
Si Si6 0.220498 0.942495 0.614134
Si Si7 0.091920 0.666647 0.389134
O O1 0.073150 0.419625 0.835203
O O2 0.133198 0.335321 0.860318
O O3 0.218011 0.413499 0.823860
O O4 0.129138 0.368922 0.689268
O O5 0.500000 0.073333 0.500000
O O6 0.500000 0.000000 0.383548
O O7 0.500000 0.271988 0.805064
O O8 0.380318 0.321632 0.832909
O O9 0.388967 0.255179 0.688264
O O10 0.385980 0.222426 0.861710
O O11 0.088873 0.858885 0.500000
O O12 0.139687 0.916706 0.630232
O O13 0.000000 0.878019 0.641690
O O14 0.000000 0.295069 0.119207
O O15 0.106813 0.272349 0.000000
O O16 0.239400 0.936978 0.500000
O O17 0.219790 0.000000 0.635219
O O18 0.109800 0.656258 0.500000
O O19 0.000000 0.663512 0.376963
#
# Coordination Sequence:
#
# PCOD9522703 Si02
#       7
#    16   8  16  16  16  16  16
#     4  11  18  30  45  67  95 128 161 193 232 272
#     4  11  20  28  43  65  89 123 166 202 226 263
#     4   8  14  25  44  71  94 119 155 190 229 275
#     4   9  17  31  51  71  92 119 152 191 235 287
#     4   9  15  24  41  66  99 133 159 183 218 269
#     4  10  21  34  48  68  93 121 153 195 245 286
#     4   9  16  28  47  70  97 128 163 195 224 267
#
# _framework density 15.507885999999999
#
# number of rings (size 3 to 8) (size 9 to 14) (size 15 to 20)
#    0.000    2.538    1.538    3.231    0.000    3.385 
#    0.000    4.615    0.000    5.077    0.000    0.000 
#    0.000    0.000    0.000    7.385    0.000    0.308 
#
# Total GULP energy -289805.539333 kJ/mol
# GULP energy per Si atom -5573.183449 kJ/mol
# Density = 1.547259 g / cm^3
# Si number density = 15.507886 Si / 1000 Ang^3
#
#
#
# Elastic Constant Matrix: (Units=GPa)
#
#
# Indices 1 2 3 4 5 6 
#
# 1 49.3259 37.0606 34.8003 0.0000 0.0000 0.0000
# 2 37.0606 77.2336 44.0745 0.0000 0.0000 0.0000
# 3 34.8003 44.0745 101.2158 0.0000 0.0000 -0.0001
# 4 0.0000 0.0000 0.0000 20.3929 0.0000 0.0000
# 5 0.0000 0.0000 0.0000 0.0000 14.0605 0.0000
# 6 0.0000 0.0000 -0.0001 0.0000 0.0000 73.5160
#
#
#
# Elastic Compliance Matrix: (Units=1/GPa)
#
#
# Indices 1 2 3 4 5 6 
#
# 1 0.034373 -0.012974 -0.006169 0.000000 0.000000 0.000000
# 2 -0.012974 0.022126 -0.005174 0.000000 0.000000 0.000000
# 3 -0.006169 -0.005174 0.014254 0.000000 0.000000 0.000000
# 4 0.000000 0.000000 0.000000 0.049037 0.000000 0.000000
# 5 0.000000 0.000000 0.000000 0.000000 0.071121 0.000000
# 6 0.000000 0.000000 0.000000 0.000000 0.000000 0.013602
#
#
# Mechanical properties :
#
#
# Convention : Reuss Voigt Hill
#
# Bulk Modulus (GPa) = 45.20847 51.07178 48.14013
# Shear Modulus (GPa) = 19.19239 29.04987 24.12113
#
# Velocity S-wave (km/s) = 3.52176 4.33278 3.94815
# Velocity P-wave (km/s) = 6.76404 7.61807 7.20372
#
# Compressibility (1/GPa) = 0.02211975
#
# Stress axis : x y z
#
# Youngs Moduli (GPa) = 29.09238 45.19612 70.15604
#
# Poissons Ratio (x) = 0.58636 0.43279
# Poissons Ratio (y) = 0.37743 0.36299
# Poissons Ratio (z) = 0.17947 0.23385
#
# Static dielectric constant tensor:
#      x y z
#    x 1.528810 0.000000 0.000000 
#    y 0.000000 1.504190 0.000000 
#    z 0.000000 0.000000 1.513120 
# 
# From -- ./inp_files/36896.got.cif
#   From: 2010.05.17/outbox.cif.g08.bks.cpg/sg71_19_cif.got.tgz:36896.got - 2010.06.03 16:22:01.
