data_PCOD9522624
_publ_section_title
;
Structure prediction by ZEFSAII (Michael W. Deem and Ramdas Pophale) SiO2 
 PCOD9522624
Probable space group: I M M M
;
_chemical_formula_sum "Si O2"
_cell_formula_units_Z 88
_cell_length_a 17.699124
_cell_length_b 22.754476
_cell_length_c 11.827765
_cell_angle_alpha 90.000000
_cell_angle_beta 90.000000
_cell_angle_gamma 90.000000
_cell_volume 4763.446567
_symmetry_space_group_name_H-M "I M M M"
_symmetry_group_IT_number 71
_symmetry_cell_setting 'orthorhombic'
loop_
_space_group_symop_operation_xyz
x,y,z
-x,-y,z
x,-y,-z
-x,y,-z
-x,-y,-z
x,y,-z
-x,y,z
x,-y,z
1/2+x,1/2+y,1/2+z
1/2-x,1/2-y,1/2+z
1/2+x,1/2-y,1/2-z
1/2-x,1/2+y,1/2-z
1/2-x,1/2-y,1/2-z
1/2+x,1/2+y,1/2-z
1/2-x,1/2+y,1/2+z
1/2+x,1/2-y,1/2+z
loop_
_atom_site_type_symbol
_atom_site_label
_atom_site_fract_x
_atom_site_fract_y
_atom_site_fract_z
Si Si1 0.908726 0.809584 0.000000
Si Si2 0.170165 0.932539 0.000000
Si Si3 0.088659 0.661375 0.370473
Si Si4 0.179089 0.884967 0.634751
Si Si5 0.208049 0.568709 0.701560
Si Si6 0.338765 0.733274 0.736047
Si Si7 0.415258 0.500000 0.137097
O O1 0.889221 0.879487 0.000000
O O2 0.867910 0.781646 0.110289
O O3 0.000000 0.800783 0.000000
O O4 0.225413 0.925577 0.891809
O O5 0.140833 0.000000 0.000000
O O6 0.105486 0.679102 0.500000
O O7 0.136075 0.603299 0.343225
O O8 0.114875 0.713161 0.288478
O O9 0.000000 0.650825 0.359926
O O10 0.180143 0.880309 0.500000
O O11 0.260785 0.899973 0.686205
O O12 0.149582 0.825597 0.690512
O O13 0.128412 0.941076 0.669178
O O14 0.194157 0.500000 0.719883
O O15 0.250000 0.750000 0.750000
O O16 0.500000 0.500000 0.181423
O O17 0.417841 0.500000 0.000000
#
# Coordination Sequence:
#
# PCOD9522624 Si02
#       7
#     8   8  16  16  16  16   8
#     4  12  26  43  62  95 134 168 211 269 330 387
#     4  10  20  39  63  90 122 168 214 255 310 383
#     4  11  24  42  64  93 126 160 205 266 327 379
#     4  11  22  37  62  93 121 161 215 252 302 367
#     4  11  21  39  65  92 124 162 211 263 309 379
#     4  12  25  41  66  90 126 166 215 258 315 382
#     4   9  20  38  58  85 124 157 192 247 301 354
#
# _framework density 18.474017
#
# number of rings (size 3 to 8) (size 9 to 14) (size 15 to 20)
#    0.000    1.000    5.455    1.091    2.545    2.000 
#    0.000    2.727    0.000    0.000    0.000    1.273 
#    0.000    0.000    0.000    0.000    0.000    0.000 
#
# Total GULP energy -245822.384265 kJ/mol
# GULP energy per Si atom -5586.872370 kJ/mol
# Density = 1.843197 g / cm^3
# Si number density = 18.474017 Si / 1000 Ang^3
#
#
#
# Elastic Constant Matrix: (Units=GPa)
#
#
# Indices 1 2 3 4 5 6 
#
# 1 90.1304 27.2691 45.9538 0.0000 0.0000 0.0000
# 2 27.2691 84.7676 38.9423 0.0000 0.0000 0.0000
# 3 45.9538 38.9423 122.9393 0.0000 0.0000 0.0000
# 4 0.0000 0.0000 0.0000 27.3520 0.0000 0.0000
# 5 0.0000 0.0000 0.0000 0.0000 23.5529 0.0000
# 6 0.0000 0.0000 0.0000 0.0000 0.0000 20.2937
#
#
#
# Elastic Compliance Matrix: (Units=1/GPa)
#
#
# Indices 1 2 3 4 5 6 
#
# 1 0.014140 -0.002482 -0.004499 0.000000 0.000000 0.000000
# 2 -0.002482 0.014242 -0.003584 0.000000 0.000000 0.000000
# 3 -0.004499 -0.003584 0.010951 0.000000 0.000000 0.000000
# 4 0.000000 0.000000 0.000000 0.036560 0.000000 0.000000
# 5 0.000000 0.000000 0.000000 0.000000 0.042458 0.000000
# 6 0.000000 0.000000 0.000000 0.000000 0.000000 0.049276
#
#
# Mechanical properties :
#
#
# Convention : Reuss Voigt Hill
#
# Bulk Modulus (GPa) = 54.93466 58.01863 56.47664
# Shear Modulus (GPa) = 25.66424 26.61787 26.14106
#
# Velocity S-wave (km/s) = 3.73125 3.79994 3.76575
# Velocity P-wave (km/s) = 6.95440 7.12225 7.03883
#
# Compressibility (1/GPa) = 0.01820344
#
# Stress axis : x y z
#
# Youngs Moduli (GPa) = 70.72198 70.21691 91.31586
#
# Poissons Ratio (x) = 0.17426 0.41085
# Poissons Ratio (y) = 0.17551 0.32723
# Poissons Ratio (z) = 0.31820 0.25162
#
# Static dielectric constant tensor:
#      x y z
#    x 1.628880 0.000000 0.000000 
#    y 0.000000 1.628670 0.000000 
#    z 0.000000 0.000000 1.649320 
# 
# From -- ./inp_files/24015.got.cif
#   From: 2010.05.17/outbox.cif.g08.bks.cpg/sg71_13_cif.got.tgz:24015.got - 2010.06.03 16:22:01.
