data_PCOD9522643
_publ_section_title
;
Structure prediction by ZEFSAII (Michael W. Deem and Ramdas Pophale) SiO2 
 PCOD9522643
Probable space group: I M M M
;
_chemical_formula_sum "Si O2"
_cell_formula_units_Z 74
_cell_length_a 14.381104
_cell_length_b 18.964711
_cell_length_c 14.002279
_cell_angle_alpha 90.000000
_cell_angle_beta 90.000000
_cell_angle_gamma 90.000000
_cell_volume 3818.890297
_symmetry_space_group_name_H-M "I M M M"
_symmetry_group_IT_number 71
_symmetry_cell_setting 'orthorhombic'
loop_
_space_group_symop_operation_xyz
x,y,z
-x,-y,z
x,-y,-z
-x,y,-z
-x,-y,-z
x,y,-z
-x,y,z
x,-y,z
1/2+x,1/2+y,1/2+z
1/2-x,1/2-y,1/2+z
1/2+x,1/2-y,1/2-z
1/2-x,1/2+y,1/2-z
1/2-x,1/2-y,1/2-z
1/2+x,1/2+y,1/2-z
1/2-x,1/2+y,1/2+z
1/2+x,1/2-y,1/2+z
loop_
_atom_site_type_symbol
_atom_site_label
_atom_site_fract_x
_atom_site_fract_y
_atom_site_fract_z
Si Si1 0.500000 0.759856 0.884530
Si Si2 0.802542 0.077113 0.772380
Si Si3 0.290390 0.204037 0.114634
Si Si4 0.302985 0.854601 0.613825
Si Si5 0.000000 0.000000 0.500000
Si Si6 0.000000 0.582290 0.884318
Si Si7 0.500000 0.398790 0.187832
O O1 0.400151 0.794026 0.859081
O O2 0.500000 0.683334 0.837663
O O3 0.500000 0.753051 0.000000
O O4 0.760920 0.139052 0.836335
O O5 0.758367 0.088104 0.667711
O O6 0.910925 0.083927 0.751732
O O7 0.779372 0.000000 0.810782
O O8 0.237992 0.277630 0.139900
O O9 0.284988 0.197981 0.000000
O O10 0.294827 0.861104 0.500000
O O11 0.408365 0.873516 0.642072
O O12 0.000000 0.939656 0.413371
O O13 0.000000 0.500000 0.850339
O O14 0.000000 0.578154 0.000000
#
# Coordination Sequence:
#
# PCOD9522643 Si02
#       7
#     8  16  16  16   2   8   8
#     4  10  20  39  68  95 122 160 215 268 324 375
#     4  12  25  40  60  94 128 165 212 262 323 390
#     4  10  23  43  65  91 122 167 220 271 317 381
#     4  10  21  36  60  87 121 163 206 256 324 387
#     4  12  24  40  60 108 142 174 194 268 352 392
#     4   9  18  34  51  83 126 163 195 238 301 388
#     4  12  24  37  64  97 135 167 207 260 326 396
#
# _framework density 19.377357
#
# number of rings (size 3 to 8) (size 9 to 14) (size 15 to 20)
#    0.000    1.405    3.784    1.297    1.514    3.459 
#    0.000    3.243    0.000    3.243    0.000    0.000 
#    0.000    0.000    0.000    0.000    0.000    0.000 
#
# Total GULP energy -206307.721397 kJ/mol
# GULP energy per Si atom -5575.884362 kJ/mol
# Density = 1.933325 g / cm^3
# Si number density = 19.377357 Si / 1000 Ang^3
#
#
#
# Elastic Constant Matrix: (Units=GPa)
#
#
# Indices 1 2 3 4 5 6 
#
# 1 179.1434 80.5186 31.9995 0.0000 0.0000 0.0000
# 2 80.5186 128.8758 45.5432 0.0000 0.0000 0.0000
# 3 31.9995 45.5432 48.7947 0.0000 0.0000 -0.0001
# 4 0.0000 0.0000 0.0000 3.6235 0.0000 -0.0001
# 5 0.0000 0.0000 0.0000 0.0000 15.4917 0.0000
# 6 0.0000 0.0000 -0.0001 -0.0001 0.0000 452.7541
#
#
#
# Elastic Compliance Matrix: (Units=1/GPa)
#
#
# Indices 1 2 3 4 5 6 
#
# 1 0.007785 -0.004566 -0.000844 0.000000 0.000000 0.000000
# 2 -0.004566 0.014256 -0.010312 0.000000 0.000000 0.000000
# 3 -0.000844 -0.010312 0.030672 0.000000 0.000000 0.000000
# 4 0.000000 0.000000 0.000000 0.275979 0.000000 0.000000
# 5 0.000000 0.000000 0.000000 0.000000 0.064551 0.000000
# 6 0.000000 0.000000 0.000000 0.000000 0.000000 0.002209
#
#
# Mechanical properties :
#
#
# Convention : Reuss Voigt Hill
#
# Bulk Modulus (GPa) = 47.01410 74.77072 60.89241
# Shear Modulus (GPa) = 11.52114 107.62402 59.57258
#
# Velocity S-wave (km/s) = 2.44102 7.46068 5.55069
# Velocity P-wave (km/s) = 5.67977 10.62478 8.51897
#
# Compressibility (1/GPa) = 0.02127021
#
# Stress axis : x y z
#
# Youngs Moduli (GPa) = 128.45292 70.14594 32.60272
#
# Poissons Ratio (x) = 0.32026 0.02752
# Poissons Ratio (y) = 0.58646 0.33620
# Poissons Ratio (z) = 0.10841 0.72334
#
# Static dielectric constant tensor:
#      x y z
#    x 1.839120 0.000000 0.000000 
#    y 0.000000 1.662780 0.000000 
#    z 0.000000 0.000000 1.674290 
# 
# From -- ./inp_files/34151.got.cif
#   From: 2010.05.17/outbox.cif.g08.bks.cpg/sg71_18_cif.got.tgz:34151.got - 2010.06.03 16:22:01.
