data_PCOD9522678
_publ_section_title
;
Structure prediction by ZEFSAII (Michael W. Deem and Ramdas Pophale) SiO2 
 PCOD9522678
Probable space group: I M M M
;
_chemical_formula_sum "Si O2"
_cell_formula_units_Z 88
_cell_length_a 12.325764
_cell_length_b 35.093671
_cell_length_c 13.871275
_cell_angle_alpha 90.000000
_cell_angle_beta 90.000000
_cell_angle_gamma 90.000000
_cell_volume 6000.107482
_symmetry_space_group_name_H-M "I M M M"
_symmetry_group_IT_number 71
_symmetry_cell_setting 'orthorhombic'
loop_
_space_group_symop_operation_xyz
x,y,z
-x,-y,z
x,-y,-z
-x,y,-z
-x,-y,-z
x,y,-z
-x,y,z
x,-y,z
1/2+x,1/2+y,1/2+z
1/2-x,1/2-y,1/2+z
1/2+x,1/2-y,1/2-z
1/2-x,1/2+y,1/2-z
1/2-x,1/2-y,1/2-z
1/2+x,1/2+y,1/2-z
1/2-x,1/2+y,1/2+z
1/2+x,1/2-y,1/2+z
loop_
_atom_site_type_symbol
_atom_site_label
_atom_site_fract_x
_atom_site_fract_y
_atom_site_fract_z
Si Si1 0.126220 0.280041 0.616470
Si Si2 0.500000 0.692465 0.390920
Si Si3 0.868685 0.000000 0.110834
Si Si4 0.744218 0.798098 0.384040
Si Si5 0.713325 0.659399 0.704766
Si Si6 0.000000 0.283139 0.109217
Si Si7 0.129829 0.915580 0.883187
O O1 0.129187 0.282890 0.500000
O O2 0.191466 0.241044 0.640611
O O3 0.187366 0.316809 0.658703
O O4 0.000000 0.277222 0.646530
O O5 0.500000 0.677177 0.500000
O O6 0.393349 0.678974 0.338419
O O7 0.500000 0.737708 0.394631
O O8 0.839332 0.041567 0.150341
O O9 0.000000 0.000000 0.108395
O O10 0.830951 0.000000 0.000000
O O11 0.751824 0.802970 0.500000
O O12 0.787718 0.832470 0.318912
O O13 0.618090 0.794119 0.353347
O O14 0.701179 0.616127 0.669949
O O15 0.000000 0.298381 0.000000
O O16 0.000000 0.909626 0.864805
O O17 0.142702 0.913166 0.000000
#
# Coordination Sequence:
#
# PCOD9522678 Si02
#       7
#    16   8   8  16  16   8  16
#     4  10  21  33  44  63  93 123 153 191 232 273
#     4  11  20  30  47  70  89 112 154 196 228 265
#     4   7  12  24  42  66  96 120 133 168 222 269
#     4  10  22  35  46  62  86 121 162 198 231 267
#     4  12  21  28  48  67  91 120 155 191 228 262
#     4   9  18  34  50  61  80 114 157 201 236 265
#     4   9  16  27  45  70  96 117 144 177 218 270
#
# _framework density 14.666404999999999
#
# number of rings (size 3 to 8) (size 9 to 14) (size 15 to 20)
#    0.000    2.091    2.727    3.273    2.545    0.000 
#    0.000    0.000    0.000    0.000    0.000    1.273 
#    0.000    5.818    0.000    3.273    0.000    0.000 
#
# Total GULP energy -245090.401586 kJ/mol
# GULP energy per Si atom -5570.236400 kJ/mol
# Density = 1.463302 g / cm^3
# Si number density = 14.666405 Si / 1000 Ang^3
#
#
#
# Elastic Constant Matrix: (Units=GPa)
#
#
# Indices 1 2 3 4 5 6 
#
# 1 88.4058 33.7757 34.4146 0.0001 -0.0001 0.0000
# 2 33.7757 114.5586 44.2763 0.0000 0.0000 0.0000
# 3 34.4146 44.2763 59.1412 0.0004 0.0002 0.0000
# 4 0.0001 0.0000 0.0004 14.2295 0.0001 0.0000
# 5 -0.0001 0.0000 0.0002 0.0001 66.3626 0.0000
# 6 0.0000 0.0000 0.0000 0.0000 0.0000 19.9060
#
#
#
# Elastic Compliance Matrix: (Units=1/GPa)
#
#
# Indices 1 2 3 4 5 6 
#
# 1 0.014795 -0.001456 -0.007519 0.000000 0.000000 0.000000
# 2 -0.001456 0.012427 -0.008456 0.000000 0.000000 0.000000
# 3 -0.007519 -0.008456 0.027615 -0.000001 0.000000 0.000000
# 4 0.000000 0.000000 -0.000001 0.070277 0.000000 0.000000
# 5 0.000000 0.000000 0.000000 0.000000 0.015069 0.000000
# 6 0.000000 0.000000 0.000000 0.000000 0.000000 0.050236
#
#
# Mechanical properties :
#
#
# Convention : Reuss Voigt Hill
#
# Bulk Modulus (GPa) = 50.06528 54.11543 52.09035
# Shear Modulus (GPa) = 21.55748 30.07555 25.81652
#
# Velocity S-wave (km/s) = 3.83803 4.53331 4.20008
# Velocity P-wave (km/s) = 7.33831 8.02365 7.68862
#
# Compressibility (1/GPa) = 0.01997392
#
# Stress axis : x y z
#
# Youngs Moduli (GPa) = 67.59139 80.47239 36.21243
#
# Poissons Ratio (x) = 0.11716 0.27229
# Poissons Ratio (y) = 0.09840 0.30621
# Poissons Ratio (z) = 0.50824 0.68048
#
# Static dielectric constant tensor:
#      x y z
#    x 1.504090 0.000000 0.000000 
#    y 0.000000 1.491000 0.000000 
#    z 0.000000 0.000000 1.516660 
# 
# From -- ./inp_files/33163.got.cif
#   From: 2010.05.17/outbox.cif.g08.bks.cpg/sg71_17_cif.got.tgz:33163.got - 2010.06.03 16:22:01.
