data_PCOD9522486
_publ_section_title
;
Structure prediction by ZEFSAII (Michael W. Deem and Ramdas Pophale) SiO2 
 PCOD9522486
Probable space group: I M M M
;
_chemical_formula_sum "Si O2"
_cell_formula_units_Z 112
_cell_length_a 15.001366
_cell_length_b 15.308630
_cell_length_c 22.851482
_cell_angle_alpha 90.000000
_cell_angle_beta 90.000000
_cell_angle_gamma 90.000000
_cell_volume 5247.851104
_symmetry_space_group_name_H-M "I M M M"
_symmetry_group_IT_number 71
_symmetry_cell_setting 'orthorhombic'
loop_
_space_group_symop_operation_xyz
x,y,z
-x,-y,z
x,-y,-z
-x,y,-z
-x,-y,-z
x,y,-z
-x,y,z
x,-y,z
1/2+x,1/2+y,1/2+z
1/2-x,1/2-y,1/2+z
1/2+x,1/2-y,1/2-z
1/2-x,1/2+y,1/2-z
1/2-x,1/2-y,1/2-z
1/2+x,1/2+y,1/2-z
1/2-x,1/2+y,1/2+z
1/2+x,1/2-y,1/2+z
loop_
_atom_site_type_symbol
_atom_site_label
_atom_site_fract_x
_atom_site_fract_y
_atom_site_fract_z
Si Si1 0.791735 0.338476 0.773882
Si Si2 0.903726 0.899701 0.727224
Si Si3 0.155258 0.596843 0.650573
Si Si4 0.601956 0.253788 0.931992
Si Si5 0.132875 0.901941 0.866057
Si Si6 0.601831 0.793690 0.389781
Si Si7 0.737306 0.401364 0.932127
O O1 0.750000 0.250000 0.750000
O O2 0.698484 0.382562 0.792325
O O3 0.842343 0.384292 0.720111
O O4 0.859122 0.315955 0.825450
O O5 0.897824 0.892419 0.798375
O O6 0.000000 0.855215 0.710199
O O7 0.914440 0.000000 0.711946
O O8 0.118938 0.500000 0.639282
O O9 0.112323 0.672005 0.611429
O O10 0.260053 0.597556 0.634309
O O11 0.500000 0.282683 0.932418
O O12 0.664156 0.332188 0.910030
O O13 0.625932 0.230671 0.000000
O O14 0.106712 0.811804 0.897929
O O15 0.104381 0.000000 0.885987
O O16 0.500000 0.820483 0.396032
O O17 0.668886 0.850706 0.428350
O O18 0.741335 0.500000 0.907384
O O19 0.713558 0.410764 0.000000
#
# Coordination Sequence:
#
# PCOD9522486 Si02
#       7
#    16  16  16  16  16  16  16
#     4  11  20  34  54  84 126 164 204 253 298 355
#     4   9  17  31  53  79 109 151 199 241 289 352
#     4  10  20  37  60  89 130 174 207 243 301 367
#     4  10  21  40  68  98 124 157 205 253 300 363
#     4   9  17  33  58  87 119 157 202 251 303 358
#     4  12  24  39  63  93 121 160 212 259 307 368
#     4  10  23  46  70  90 118 155 199 259 322 370
#
# _framework density 21.342068000000001
#
# number of rings (size 3 to 8) (size 9 to 14) (size 15 to 20)
#    0.000    1.857    4.286    1.714    0.000    4.000 
#    0.000    5.000    0.000    0.429    0.000    1.000 
#    0.000    0.000    0.000    0.000    0.000    0.000 
#
# Total GULP energy -312083.728991 kJ/mol
# GULP energy per Si atom -5572.923732 kJ/mol
# Density = 2.129349 g / cm^3
# Si number density = 21.342068 Si / 1000 Ang^3
#
#
#
# Elastic Constant Matrix: (Units=GPa)
#
#
# Indices 1 2 3 4 5 6 
#
# 1 114.6919 46.4406 2.9861 0.0000 0.0000 0.0000
# 2 46.4406 154.7950 31.4647 0.0000 0.0000 0.0000
# 3 2.9861 31.4647 56.2258 0.0000 0.0000 0.0000
# 4 0.0000 0.0000 0.0000 24.5517 0.0000 0.0000
# 5 0.0000 0.0000 0.0000 0.0000 31.8482 0.0000
# 6 0.0000 0.0000 0.0000 0.0000 0.0000 -4.5090
#
#
#
# Elastic Compliance Matrix: (Units=1/GPa)
#
#
# Indices 1 2 3 4 5 6 
#
# 1 0.010008 -0.003266 0.001296 0.000000 0.000000 0.000000
# 2 -0.003266 0.008355 -0.004502 0.000000 0.000000 0.000000
# 3 0.001296 -0.004502 0.020236 0.000000 0.000000 0.000000
# 4 0.000000 0.000000 0.000000 0.040730 0.000000 0.000000
# 5 0.000000 0.000000 0.000000 0.000000 0.031399 0.000000
# 6 0.000000 0.000000 0.000000 0.000000 0.000000 -0.221777
#
#
# Mechanical properties :
#
#
# Convention : Reuss Voigt Hill
#
# Bulk Modulus (GPa) = 38.97880 54.16618 46.57249
# Shear Modulus (GPa) = -55.83242 26.69960 -14.56641
#
# Velocity S-wave (km/s) = -5.12031 3.54083 -2.61534
# Velocity P-wave (km/s) = 4.08084 6.49244 3.57061
#
# Compressibility (1/GPa) = 0.02565497
#
# Stress axis : x y z
#
# Youngs Moduli (GPa) = 99.92323 119.68716 49.41672
#
# Poissons Ratio (x) = 0.39089 -0.06405
# Poissons Ratio (y) = 0.32634 0.22248
# Poissons Ratio (z) = -0.12951 0.53885
#
# Static dielectric constant tensor:
#      x y z
#    x 2.690740 0.000000 0.000000 
#    y 0.000000 1.647590 0.000000 
#    z 0.000000 0.000000 1.633060 
# 
# From -- ./inp_files/59931.got.cif
#   From: 2010.05.17/outbox.cif.g08.bks.cpg/sg71_30_cif.got.tgz:59931.got - 2010.06.03 16:22:01.
