data_PCOD9522776
_publ_section_title
;
Structure prediction by ZEFSAII (Michael W. Deem and Ramdas Pophale) SiO2 
 PCOD9522776
Probable space group: I M M M
;
_chemical_formula_sum "Si O2"
_cell_formula_units_Z 72
_cell_length_a 14.772264
_cell_length_b 22.855544
_cell_length_c 10.430776
_cell_angle_alpha 90.000000
_cell_angle_beta 90.000000
_cell_angle_gamma 90.000000
_cell_volume 3521.723394
_symmetry_space_group_name_H-M "I M M M"
_symmetry_group_IT_number 71
_symmetry_cell_setting 'orthorhombic'
loop_
_space_group_symop_operation_xyz
x,y,z
-x,-y,z
x,-y,-z
-x,y,-z
-x,-y,-z
x,y,-z
-x,y,z
x,-y,z
1/2+x,1/2+y,1/2+z
1/2-x,1/2-y,1/2+z
1/2+x,1/2-y,1/2-z
1/2-x,1/2+y,1/2-z
1/2-x,1/2-y,1/2-z
1/2+x,1/2+y,1/2-z
1/2-x,1/2+y,1/2+z
1/2+x,1/2-y,1/2+z
loop_
_atom_site_type_symbol
_atom_site_label
_atom_site_fract_x
_atom_site_fract_y
_atom_site_fract_z
Si Si1 0.109317 0.597870 0.353599
Si Si2 0.895087 0.850989 0.637110
Si Si3 0.610801 0.000000 0.650090
Si Si4 0.610543 0.566315 0.355384
Si Si5 0.180395 0.728330 0.355376
O O1 0.136813 0.580137 0.500000
O O2 0.139011 0.555412 0.238283
O O3 0.140928 0.664362 0.331739
O O4 0.000000 0.596835 0.353611
O O5 0.852072 0.866703 0.500000
O O6 0.854867 0.885564 0.756637
O O7 0.891619 0.781183 0.648159
O O8 0.000000 0.868605 0.632314
O O9 0.500000 0.000000 0.646382
O O10 0.640469 0.000000 0.500000
O O11 0.641540 0.577755 0.500000
O O12 0.500000 0.568113 0.359225
O O13 0.635086 0.500000 0.318513
O O14 0.219336 0.727993 0.500000
O O15 0.250000 0.750000 0.250000
#
# Coordination Sequence:
#
# PCOD9522776 Si02
#       5
#    16  16   8  16  16
#     4   9  17  32  55  79 103 135 174 212 253 306
#     4   9  17  30  49  72  96 123 160 204 245 287
#     4   9  17  29  49  81 113 133 158 207 266 313
#     4   8  14  25  42  66  95 123 152 191 238 282
#     4  10  21  35  51  72 101 135 169 206 250 300
#
# _framework density 20.444535999999999
#
# number of rings (size 3 to 8) (size 9 to 14) (size 15 to 20)
#    0.000    3.000    0.000    1.667    0.000    6.222 
#    0.000    2.222    2.444    6.667    0.000    0.000 
#    0.000    0.000    0.000    0.000    0.000    0.000 
#
# Total GULP energy -200634.256644 kJ/mol
# GULP energy per Si atom -5573.173796 kJ/mol
# Density = 2.039800 g / cm^3
# Si number density = 20.444536 Si / 1000 Ang^3
#
#
#
# Elastic Constant Matrix: (Units=GPa)
#
#
# Indices 1 2 3 4 5 6 
#
# 1 32.4872 1.6756 20.4997 0.0000 0.0000 0.0000
# 2 1.6756 148.4357 127.5916 0.0000 0.0000 0.0000
# 3 20.4997 127.5916 178.2818 0.0001 -0.0001 0.0000
# 4 0.0000 0.0000 0.0001 27.5102 -0.0001 0.0000
# 5 0.0000 0.0000 -0.0001 -0.0001 13.0430 0.0000
# 6 0.0000 0.0000 0.0000 0.0000 0.0000 11.1700
#
#
#
# Elastic Compliance Matrix: (Units=1/GPa)
#
#
# Indices 1 2 3 4 5 6 
#
# 1 0.036801 0.008372 -0.010223 0.000000 0.000000 0.000000
# 2 0.008372 0.019411 -0.014855 0.000000 0.000000 0.000000
# 3 -0.010223 -0.014855 0.017416 0.000000 0.000000 0.000000
# 4 0.000000 0.000000 0.000000 0.036350 0.000000 0.000000
# 5 0.000000 0.000000 0.000000 0.000000 0.076669 0.000000
# 6 0.000000 0.000000 0.000000 0.000000 0.000000 0.089526
#
#
# Mechanical properties :
#
#
# Convention : Reuss Voigt Hill
#
# Bulk Modulus (GPa) = 24.86577 73.19316 49.02947
# Shear Modulus (GPa) = 15.48037 24.30717 19.89377
#
# Velocity S-wave (km/s) = 2.75469 3.45183 3.12278
# Velocity P-wave (km/s) = 4.72300 7.19482 6.08573
#
# Compressibility (1/GPa) = 0.04021592
#
# Stress axis : x y z
#
# Youngs Moduli (GPa) = 27.17352 51.51663 57.41910
#
# Poissons Ratio (x) = -0.43131 0.58702
# Poissons Ratio (y) = -0.22751 0.85295
# Poissons Ratio (z) = 0.27780 0.76527
#
# Static dielectric constant tensor:
#      x y z
#    x 1.798780 0.000000 0.000000 
#    y 0.000000 1.708280 0.000000 
#    z 0.000000 0.000000 1.766250 
# 
# From -- ./inp_files/7909.got.cif
#   From: 2010.05.17/outbox.cif.g08.bks.cpg/sg71_4_cif.got.tgz:7909.got - 2010.06.03 16:22:01.
