data_PCOD9522865
_publ_section_title
;
Structure prediction by ZEFSAII (Michael W. Deem and Ramdas Pophale) SiO2 
 PCOD9522865
Probable space group: I M M M
;
_chemical_formula_sum "Si O2"
_cell_formula_units_Z 88
_cell_length_a 23.861602
_cell_length_b 8.265553
_cell_length_c 21.692623
_cell_angle_alpha 90.000000
_cell_angle_beta 90.000000
_cell_angle_gamma 90.000000
_cell_volume 4278.421630
_symmetry_space_group_name_H-M "I M M M"
_symmetry_group_IT_number 71
_symmetry_cell_setting 'orthorhombic'
loop_
_space_group_symop_operation_xyz
x,y,z
-x,-y,z
x,-y,-z
-x,y,-z
-x,-y,-z
x,y,-z
-x,y,z
x,-y,z
1/2+x,1/2+y,1/2+z
1/2-x,1/2-y,1/2+z
1/2+x,1/2-y,1/2-z
1/2-x,1/2+y,1/2-z
1/2-x,1/2-y,1/2-z
1/2+x,1/2+y,1/2-z
1/2-x,1/2+y,1/2+z
1/2+x,1/2-y,1/2+z
loop_
_atom_site_type_symbol
_atom_site_label
_atom_site_fract_x
_atom_site_fract_y
_atom_site_fract_z
Si Si1 0.565187 0.300873 0.000000
Si Si2 0.819801 0.808306 0.070033
Si Si3 0.934431 0.825560 0.249914
Si Si4 0.879650 0.187430 0.374857
Si Si5 0.264039 0.190532 0.818842
Si Si6 0.402521 0.000000 0.566707
Si Si7 0.436824 0.000000 0.300748
O O1 0.597469 0.244186 0.938785
O O2 0.565022 0.500000 0.000000
O O3 0.500000 0.252221 0.000000
O O4 0.778447 0.763101 0.125915
O O5 0.866330 0.666497 0.070356
O O6 0.837403 0.000000 0.077768
O O7 0.794795 0.800937 0.000000
O O8 0.928001 0.808884 0.323128
O O9 0.908328 0.665954 0.220391
O O10 0.000000 0.831055 0.232602
O O11 0.908763 0.000000 0.232408
O O12 0.825555 0.262399 0.342822
O O13 0.865493 0.000000 0.386283
O O14 0.250000 0.250000 0.750000
O O15 0.261010 0.000000 0.815079
O O16 0.440040 0.000000 0.626507
O O17 0.430502 0.000000 0.500000
O O18 0.500000 0.000000 0.273412
#
# Coordination Sequence:
#
# PCOD9522865 Si02
#       7
#     8  16  16  16  16   8   8
#     4   9  18  36  61  89 121 161 209 255 299 357
#     4   9  21  41  61  83 113 155 200 240 284 351
#     4   9  19  36  57  82 114 155 197 237 290 352
#     4  10  21  35  57  87 116 155 200 250 300 350
#     4  11  25  39  57  84 119 155 193 250 307 358
#     4  10  22  39  64  88 109 153 190 236 293 345
#     4  10  22  37  60  89 120 148 185 239 296 358
#
# _framework density 20.568331000000001
#
# number of rings (size 3 to 8) (size 9 to 14) (size 15 to 20)
#    0.000    2.273    0.000    1.091    7.636    3.091 
#    0.000    0.000    0.000    0.545    0.000    5.091 
#    0.000    0.000    0.000    0.000    0.000    0.000 
#
# Total GULP energy -245139.554936 kJ/mol
# GULP energy per Si atom -5571.353521 kJ/mol
# Density = 2.052152 g / cm^3
# Si number density = 20.568331 Si / 1000 Ang^3
#
#
#
# Elastic Constant Matrix: (Units=GPa)
#
#
# Indices 1 2 3 4 5 6 
#
# 1 54.0933 14.0733 40.3186 0.0000 0.0000 0.0000
# 2 14.0733 90.1547 48.7700 0.0000 0.0000 0.0000
# 3 40.3186 48.7700 155.5174 0.0000 0.0000 0.0000
# 4 0.0000 0.0000 0.0000 28.3649 0.0000 0.0000
# 5 0.0000 0.0000 0.0000 0.0000 28.3388 0.0000
# 6 0.0000 0.0000 0.0000 0.0000 0.0000 -10.5599
#
#
#
# Elastic Compliance Matrix: (Units=1/GPa)
#
#
# Indices 1 2 3 4 5 6 
#
# 1 0.022929 -0.000438 -0.005807 0.000000 0.000000 0.000000
# 2 -0.000438 0.013367 -0.004078 0.000000 0.000000 0.000000
# 3 -0.005807 -0.004078 0.009215 0.000000 0.000000 0.000000
# 4 0.000000 0.000000 0.000000 0.035255 0.000000 0.000000
# 5 0.000000 0.000000 0.000000 0.000000 0.035287 0.000000
# 6 0.000000 0.000000 0.000000 0.000000 0.000000 -0.094698
#
#
# Mechanical properties :
#
#
# Convention : Reuss Voigt Hill
#
# Bulk Modulus (GPa) = 40.21934 56.23215 48.22574
# Shear Modulus (GPa) = 99.42679 22.33566 60.88123
#
# Velocity S-wave (km/s) = 6.96022 3.29891 5.44644
# Velocity P-wave (km/s) = 9.17548 6.47371 7.94035
#
# Compressibility (1/GPa) = 0.02486366
#
# Stress axis : x y z
#
# Youngs Moduli (GPa) = 43.61325 74.81365 108.52353
#
# Poissons Ratio (x) = 0.03275 0.63021
# Poissons Ratio (y) = 0.01909 0.44258
# Poissons Ratio (z) = 0.25327 0.30511
#
# Static dielectric constant tensor:
#      x y z
#    x 1.756510 0.000000 0.000000 
#    y 0.000000 2.255510 0.000000 
#    z 0.000000 0.000000 1.816300 
# 
# From -- ./inp_files/50559.got.cif
#   From: 2010.05.17/outbox.cif.g08.bks.cpg/sg71_26_cif.got.tgz:50559.got - 2010.06.03 16:22:01.
