data_PCOD9522611
_publ_section_title
;
Structure prediction by ZEFSAII (Michael W. Deem and Ramdas Pophale) SiO2 
 PCOD9522611
Probable space group: I M M M
;
_chemical_formula_sum "Si O2"
_cell_formula_units_Z 50
_cell_length_a 11.122313
_cell_length_b 7.574577
_cell_length_c 25.452587
_cell_angle_alpha 90.000000
_cell_angle_beta 90.000000
_cell_angle_gamma 90.000000
_cell_volume 2144.299420
_symmetry_space_group_name_H-M "I M M M"
_symmetry_group_IT_number 71
_symmetry_cell_setting 'orthorhombic'
loop_
_space_group_symop_operation_xyz
x,y,z
-x,-y,z
x,-y,-z
-x,y,-z
-x,-y,-z
x,y,-z
-x,y,z
x,-y,z
1/2+x,1/2+y,1/2+z
1/2-x,1/2-y,1/2+z
1/2+x,1/2-y,1/2-z
1/2-x,1/2+y,1/2-z
1/2-x,1/2-y,1/2-z
1/2+x,1/2+y,1/2-z
1/2-x,1/2+y,1/2+z
1/2+x,1/2-y,1/2+z
loop_
_atom_site_type_symbol
_atom_site_label
_atom_site_fract_x
_atom_site_fract_y
_atom_site_fract_z
Si Si1 0.139862 0.784377 0.500000
Si Si2 0.000000 0.500000 0.000000
Si Si3 0.500000 0.302973 0.410013
Si Si4 0.130054 0.211573 0.282391
Si Si5 0.243263 0.786039 0.611734
O O1 0.203739 0.726267 0.553581
O O2 0.000000 0.735358 0.500000
O O3 0.146038 0.000000 0.500000
O O4 0.000000 0.653735 0.954412
O O5 0.500000 0.500000 0.432209
O O6 0.377956 0.277632 0.377512
O O7 0.250000 0.250000 0.250000
O O8 0.154805 0.271797 0.342216
O O9 0.000000 0.278990 0.263357
O O10 0.122649 0.000000 0.283724
O O11 0.243707 0.000000 0.610673
#
# Coordination Sequence:
#
# PCOD9522611 Si02
#       5
#     8   2   8  16  16
#     4   9  17  31  59  91 117 158 214 266 328 408
#     4  12  22  44  60  94 146 188 238 276 346 404
#     4  12  25  39  65  98 137 185 230 282 340 413
#     4  10  23  42  66  97 135 180 232 286 354 427
#     4  10  20  38  64  92 133 173 219 280 348 413
#
# _framework density 23.317640000000001
#
# number of rings (size 3 to 8) (size 9 to 14) (size 15 to 20)
#    0.000    1.760    1.600    2.160    4.480    5.760 
#    0.000    0.000    0.000    3.840    0.000    0.000 
#    0.000    0.000    0.000    0.000    0.000    0.000 
#
# Total GULP energy -139508.804240 kJ/mol
# GULP energy per Si atom -5580.352170 kJ/mol
# Density = 2.326457 g / cm^3
# Si number density = 23.317640 Si / 1000 Ang^3
#
#
#
# Elastic Constant Matrix: (Units=GPa)
#
#
# Indices 1 2 3 4 5 6 
#
# 1 212.0980 3.2009 70.1818 0.0000 0.0000 0.0000
# 2 3.2009 98.3162 8.4250 0.0000 0.0000 0.0000
# 3 70.1818 8.4250 100.0291 0.0000 0.0000 0.0000
# 4 0.0000 0.0000 0.0000 -57.8698 0.0000 0.0000
# 5 0.0000 0.0000 0.0000 0.0000 3.6123 0.0000
# 6 0.0000 0.0000 0.0000 0.0000 0.0000 2.4665
#
#
#
# Elastic Compliance Matrix: (Units=1/GPa)
#
#
# Indices 1 2 3 4 5 6 
#
# 1 0.006143 0.000171 -0.004325 0.000000 0.000000 0.000000
# 2 0.000171 0.010250 -0.000983 0.000000 0.000000 0.000000
# 3 -0.004325 -0.000983 0.013114 0.000000 0.000000 0.000000
# 4 0.000000 0.000000 0.000000 -0.017280 0.000000 0.000000
# 5 0.000000 0.000000 0.000000 0.000000 0.276834 0.000000
# 6 0.000000 0.000000 0.000000 0.000000 0.000000 0.405430
#
#
# Mechanical properties :
#
#
# Convention : Reuss Voigt Hill
#
# Bulk Modulus (GPa) = 51.99312 63.78429 57.88870
# Shear Modulus (GPa) = 7.03061 11.55084 9.29072
#
# Velocity S-wave (km/s) = 1.73830 2.22810 1.99827
# Velocity P-wave (km/s) = 5.13567 5.83379 5.49583
#
# Compressibility (1/GPa) = 0.01923332
#
# Stress axis : x y z
#
# Youngs Moduli (GPa) = 162.78214 97.56151 76.25425
#
# Poissons Ratio (x) = -0.01664 0.32976
# Poissons Ratio (y) = -0.02777 0.07496
# Poissons Ratio (z) = 0.70395 0.09590
#
# Static dielectric constant tensor:
#      x y z
#    x 1.893290 0.000000 0.000000 
#    y 0.000000 1.886940 0.000000 
#    z 0.000000 0.000000 1.861710 
# 
# From -- ./inp_files/64085.got.cif
#   From: 2010.05.17/outbox.cif.g08.bks.cpg/sg71_33_cif.got.tgz:64085.got - 2010.06.03 16:22:01.
