data_PCOD9522023
_publ_section_title
;
Structure prediction by ZEFSAII (Michael W. Deem and Ramdas Pophale) SiO2 
 PCOD9522023
Probable space group: I M M M
;
_chemical_formula_sum "Si O2"
_cell_formula_units_Z 88
_cell_length_a 8.262454
_cell_length_b 18.539980
_cell_length_c 29.718392
_cell_angle_alpha 90.000000
_cell_angle_beta 90.000000
_cell_angle_gamma 90.000000
_cell_volume 4552.433630
_symmetry_space_group_name_H-M "I M M M"
_symmetry_group_IT_number 71
_symmetry_cell_setting 'orthorhombic'
loop_
_space_group_symop_operation_xyz
x,y,z
-x,-y,z
x,-y,-z
-x,y,-z
-x,-y,-z
x,y,-z
-x,y,z
x,-y,z
1/2+x,1/2+y,1/2+z
1/2-x,1/2-y,1/2+z
1/2+x,1/2-y,1/2-z
1/2-x,1/2+y,1/2-z
1/2-x,1/2-y,1/2-z
1/2+x,1/2+y,1/2-z
1/2-x,1/2+y,1/2+z
1/2+x,1/2-y,1/2+z
loop_
_atom_site_type_symbol
_atom_site_label
_atom_site_fract_x
_atom_site_fract_y
_atom_site_fract_z
Si Si1 0.809743 0.353204 0.402944
Si Si2 0.303970 0.081942 0.380887
Si Si3 0.302268 0.000000 0.947981
Si Si4 0.805795 0.293542 0.051382
Si Si5 0.309241 0.674285 0.693580
Si Si6 0.693914 0.336981 0.206222
O O1 0.745071 0.426689 0.424692
O O2 0.732486 0.281660 0.424155
O O3 0.782160 0.355106 0.349605
O O4 0.000000 0.348303 0.412529
O O5 0.500000 0.084012 0.380437
O O6 0.246045 0.140164 0.417780
O O7 0.243794 0.107159 0.331984
O O8 0.253659 0.000000 0.390784
O O9 0.500000 0.000000 0.945254
O O10 0.257199 0.000000 0.000000
O O11 0.000000 0.300272 0.049248
O O12 0.743667 0.294446 0.000000
O O13 0.500000 0.662358 0.687284
O O14 0.260385 0.643699 0.742439
O O15 0.275942 0.760146 0.695653
O O16 0.500000 0.326575 0.205443
#
# Coordination Sequence:
#
# PCOD9522023 Si02
#       6
#    16  16   8  16  16  16
#     4  11  21  36  60  86 113 148 191 234 283 341
#     4  10  21  37  57  82 116 157 195 235 283 336
#     4   9  20  38  57  81 115 151 187 233 286 339
#     4  10  21  37  58  84 114 148 189 236 286 339
#     4  10  20  35  57  84 115 147 184 231 283 342
#     4  10  20  35  57  84 112 148 189 232 282 335
#
# _framework density 19.330321000000001
#
# number of rings (size 3 to 8) (size 9 to 14) (size 15 to 20)
#    0.000    1.909    1.818    2.182    0.000    4.000 
#    1.636    3.636    0.000    3.273    0.000    2.545 
#    0.000    0.000    0.000    0.000    0.000    0.000 
#
# Total GULP energy -245677.342185 kJ/mol
# GULP energy per Si atom -5583.575959 kJ/mol
# Density = 1.928632 g / cm^3
# Si number density = 19.330321 Si / 1000 Ang^3
#
#
#
# Elastic Constant Matrix: (Units=GPa)
#
#
# Indices 1 2 3 4 5 6 
#
# 1 6.7101 5.1050 2.3763 0.0000 0.0000 0.0000
# 2 5.1050 134.3475 82.3492 0.0000 0.0000 0.0000
# 3 2.3763 82.3492 149.1063 0.0000 0.0000 0.0000
# 4 0.0000 0.0000 0.0000 19.2253 0.0000 0.0000
# 5 0.0000 0.0000 0.0000 0.0000 21.8532 0.0000
# 6 0.0000 0.0000 0.0000 0.0000 0.0000 14.9245
#
#
#
# Elastic Compliance Matrix: (Units=1/GPa)
#
#
# Indices 1 2 3 4 5 6 
#
# 1 0.153600 -0.006555 0.001172 0.000000 0.000000 0.000000
# 2 -0.006555 0.011533 -0.006265 0.000000 0.000000 0.000000
# 3 0.001172 -0.006265 0.010148 0.000000 0.000000 0.000000
# 4 0.000000 0.000000 0.000000 0.052015 0.000000 0.000000
# 5 0.000000 0.000000 0.000000 0.000000 0.045760 0.000000
# 6 0.000000 0.000000 0.000000 0.000000 0.000000 0.067004
#
#
# Mechanical properties :
#
#
# Convention : Reuss Voigt Hill
#
# Bulk Modulus (GPa) = 6.57957 52.20278 29.39118
# Shear Modulus (GPa) = 12.07683 24.55617 18.31650
#
# Velocity S-wave (km/s) = 2.50223 3.56806 3.08157
# Velocity P-wave (km/s) = 3.42919 6.63619 5.28197
#
# Compressibility (1/GPa) = 0.15198553
#
# Stress axis : x y z
#
# Youngs Moduli (GPa) = 6.51040 86.71140 98.54279
#
# Poissons Ratio (x) = 0.56842 -0.11554
# Poissons Ratio (y) = 0.04268 0.61735
# Poissons Ratio (z) = -0.00763 0.54323
#
# Static dielectric constant tensor:
#      x y z
#    x 1.680760 0.000000 0.000000 
#    y 0.000000 1.649060 0.000000 
#    z 0.000000 0.000000 1.674820 
# 
# From -- ./inp_files/16700.got.cif
#   From: 2010.05.17/outbox.cif.g08.bks.cpg/sg71_9_cif.got.tgz:16700.got - 2010.06.03 16:22:01.
