data_PCOD9522165
_publ_section_title
;
Structure prediction by ZEFSAII (Michael W. Deem and Ramdas Pophale) SiO2 
 PCOD9522165
Probable space group: I M M M
;
_chemical_formula_sum "Si O2"
_cell_formula_units_Z 64
_cell_length_a 24.719114
_cell_length_b 8.486257
_cell_length_c 15.992953
_cell_angle_alpha 90.000000
_cell_angle_beta 90.000000
_cell_angle_gamma 90.000000
_cell_volume 3354.885799
_symmetry_space_group_name_H-M "I M M M"
_symmetry_group_IT_number 71
_symmetry_cell_setting 'orthorhombic'
loop_
_space_group_symop_operation_xyz
x,y,z
-x,-y,z
x,-y,-z
-x,y,-z
-x,-y,-z
x,y,-z
-x,y,z
x,-y,z
1/2+x,1/2+y,1/2+z
1/2-x,1/2-y,1/2+z
1/2+x,1/2-y,1/2-z
1/2-x,1/2+y,1/2-z
1/2-x,1/2-y,1/2-z
1/2+x,1/2+y,1/2-z
1/2-x,1/2+y,1/2+z
1/2+x,1/2-y,1/2+z
loop_
_atom_site_type_symbol
_atom_site_label
_atom_site_fract_x
_atom_site_fract_y
_atom_site_fract_z
Si Si1 0.226231 0.689201 0.662957
Si Si2 0.611448 0.192135 0.096202
Si Si3 0.500000 0.312352 0.630804
Si Si4 0.289420 0.810559 0.500000
Si Si5 0.000000 0.309108 0.318849
Si Si6 0.914916 0.689148 0.000000
O O1 0.227259 0.500000 0.663427
O O2 0.250000 0.750000 0.750000
O O3 0.164037 0.741251 0.648463
O O4 0.260129 0.748012 0.583113
O O5 0.554594 0.244342 0.134801
O O6 0.610938 0.000000 0.095930
O O7 0.617163 0.242944 0.000000
O O8 0.500000 0.500000 0.629913
O O9 0.500000 0.248183 0.724133
O O10 0.447800 0.251320 0.579983
O O11 0.352452 0.762293 0.500000
O O12 0.287093 0.000000 0.500000
O O13 0.000000 0.500000 0.319662
O O14 0.917522 0.500000 0.000000
#
# Coordination Sequence:
#
# PCOD9522165 Si02
#       6
#    16  16   8   8   8   8
#     4  11  23  40  62  91 127 163 204 254 309 371
#     4   9  18  36  61  88 115 150 199 249 294 348
#     4  11  23  39  58  88 124 153 191 242 303 360
#     4  11  24  42  65  93 121 160 210 257 310 369
#     4  10  20  35  62  89 115 153 200 247 292 349
#     4  10  22  41  64  84 113 155 203 245 294 360
#
# _framework density 19.076654999999999
#
# number of rings (size 3 to 8) (size 9 to 14) (size 15 to 20)
#    0.000    1.750    1.250    3.750    3.500    3.500 
#    0.000    1.250    0.000    0.750    0.000    0.000 
#    0.000    0.000    0.000    0.000    0.000    0.000 
#
# Total GULP energy -178807.712601 kJ/mol
# GULP energy per Si atom -5587.741019 kJ/mol
# Density = 1.903324 g / cm^3
# Si number density = 19.076655 Si / 1000 Ang^3
#
#
#
# Elastic Constant Matrix: (Units=GPa)
#
#
# Indices 1 2 3 4 5 6 
#
# 1 217.9962 39.6328 111.9990 0.0000 0.0000 0.0000
# 2 39.6328 40.3757 26.5424 0.0000 0.0000 0.0000
# 3 111.9990 26.5424 181.7730 0.0000 0.0000 0.0000
# 4 0.0000 0.0000 0.0000 31.0912 0.0000 0.0000
# 5 0.0000 0.0000 0.0000 0.0000 -1.6302 0.0000
# 6 0.0000 0.0000 0.0000 0.0000 0.0000 23.7155
#
#
#
# Elastic Compliance Matrix: (Units=1/GPa)
#
#
# Indices 1 2 3 4 5 6 
#
# 1 0.007455 -0.004754 -0.003899 0.000000 0.000000 0.000000
# 2 -0.004754 0.030430 -0.001514 0.000000 0.000000 0.000000
# 3 -0.003899 -0.001514 0.008125 0.000000 0.000000 0.000000
# 4 0.000000 0.000000 0.000000 0.032163 0.000000 0.000000
# 5 0.000000 0.000000 0.000000 0.000000 -0.613430 0.000000
# 6 0.000000 0.000000 0.000000 0.000000 0.000000 0.042166
#
#
# Mechanical properties :
#
#
# Convention : Reuss Voigt Hill
#
# Bulk Modulus (GPa) = 38.94918 88.49923 63.72421
# Shear Modulus (GPa) = -10.77127 28.10002 8.66438
#
# Velocity S-wave (km/s) = -2.37877 3.84214 2.13348
# Velocity P-wave (km/s) = 3.59399 8.13479 6.28854
#
# Compressibility (1/GPa) = 0.02567448
#
# Stress axis : x y z
#
# Youngs Moduli (GPa) = 134.14167 32.86278 123.08020
#
# Poissons Ratio (x) = 0.15625 0.47989
# Poissons Ratio (y) = 0.63777 0.18632
# Poissons Ratio (z) = 0.52302 0.04975
#
# Static dielectric constant tensor:
#      x y z
#    x 1.661500 0.000000 0.000000 
#    y 0.000000 1.657890 0.000000 
#    z 0.000000 0.000000 1.621850 
# 
# From -- ./inp_files/38805.got.cif
#   From: 2010.05.17/outbox.cif.g08.bks.cpg/sg71_20_cif.got.tgz:38805.got - 2010.06.03 16:22:01.
