data_PCOD9522450
_publ_section_title
;
Structure prediction by ZEFSAII (Michael W. Deem and Ramdas Pophale) SiO2 
 PCOD9522450
Probable space group: I M M M
;
_chemical_formula_sum "Si O2"
_cell_formula_units_Z 104
_cell_length_a 14.067287
_cell_length_b 18.705507
_cell_length_c 21.279257
_cell_angle_alpha 90.000000
_cell_angle_beta 90.000000
_cell_angle_gamma 90.000000
_cell_volume 5599.332941
_symmetry_space_group_name_H-M "I M M M"
_symmetry_group_IT_number 71
_symmetry_cell_setting 'orthorhombic'
loop_
_space_group_symop_operation_xyz
x,y,z
-x,-y,z
x,-y,-z
-x,y,-z
-x,-y,-z
x,y,-z
-x,y,z
x,-y,z
1/2+x,1/2+y,1/2+z
1/2-x,1/2-y,1/2+z
1/2+x,1/2-y,1/2-z
1/2-x,1/2+y,1/2-z
1/2-x,1/2-y,1/2-z
1/2+x,1/2+y,1/2-z
1/2-x,1/2+y,1/2+z
1/2+x,1/2-y,1/2+z
loop_
_atom_site_type_symbol
_atom_site_label
_atom_site_fract_x
_atom_site_fract_y
_atom_site_fract_z
Si Si1 0.393236 0.299012 0.767860
Si Si2 0.892190 0.350641 0.200440
Si Si3 0.760530 0.202764 0.616484
Si Si4 0.234539 0.916190 0.206749
Si Si5 0.500000 0.917504 0.925013
Si Si6 0.292246 0.140893 0.926734
Si Si7 0.107742 0.923777 0.574763
O O1 0.500000 0.310363 0.792571
O O2 0.398257 0.231442 0.722665
O O3 0.315610 0.277185 0.819411
O O4 0.351316 0.368614 0.734085
O O5 0.834920 0.339687 0.135417
O O6 0.827262 0.391960 0.251920
O O7 0.000000 0.379032 0.196024
O O8 0.759120 0.276468 0.578391
O O9 0.829259 0.143772 0.588136
O O10 0.244308 0.899498 0.132217
O O11 0.220273 0.000000 0.215839
O O12 0.595582 0.872960 0.911422
O O13 0.500000 0.000000 0.898959
O O14 0.500000 0.925638 0.000000
O O15 0.277288 0.117180 0.000000
O O16 0.102387 0.928766 0.500000
O O17 0.000000 0.916046 0.598127
O O18 0.145942 0.000000 0.599573
#
# Coordination Sequence:
#
# PCOD9522450 Si02
#       7
#    16  16  16  16   8  16  16
#     4  10  20  37  59  80 108 143 181 228 280 329
#     4  10  21  39  59  78 107 146 187 232 281 327
#     4  11  19  34  58  86 108 141 185 230 277 329
#     4  11  22  37  57  84 115 147 186 229 282 338
#     4   9  20  34  46  70 111 153 187 221 263 316
#     4  11  22  35  53  81 115 151 192 226 267 331
#     4   9  19  34  52  79 115 148 175 214 274 336
#
# _framework density 18.573640999999999
#
# number of rings (size 3 to 8) (size 9 to 14) (size 15 to 20)
#    0.000    1.769    3.077    2.769    3.231    4.000 
#    0.000    0.000    0.000    3.231    0.000    2.154 
#    0.000    0.000    0.000    0.000    0.000    0.000 
#
# Total GULP energy -289573.654044 kJ/mol
# GULP energy per Si atom -5568.724116 kJ/mol
# Density = 1.853137 g / cm^3
# Si number density = 18.573641 Si / 1000 Ang^3
#
#
#
# Elastic Constant Matrix: (Units=GPa)
#
#
# Indices 1 2 3 4 5 6 
#
# 1 42.3044 -18.0717 -2.0273 0.0000 0.0000 0.0000
# 2 -18.0717 77.1440 3.0973 0.0000 0.0000 0.0000
# 3 -2.0273 3.0973 29.1580 0.0000 0.0000 0.0000
# 4 0.0000 0.0000 0.0000 25.6325 0.0000 0.0000
# 5 0.0000 0.0000 0.0000 0.0000 22.2507 0.0000
# 6 0.0000 0.0000 0.0000 0.0000 0.0000 26.0656
#
#
#
# Elastic Compliance Matrix: (Units=1/GPa)
#
#
# Indices 1 2 3 4 5 6 
#
# 1 0.026307 0.006115 0.001179 0.000000 0.000000 0.000000
# 2 0.006115 0.014440 -0.001109 0.000000 0.000000 0.000000
# 3 0.001179 -0.001109 0.034496 0.000000 0.000000 0.000000
# 4 0.000000 0.000000 0.000000 0.039013 0.000000 0.000000
# 5 0.000000 0.000000 0.000000 0.000000 0.044942 0.000000
# 6 0.000000 0.000000 0.000000 0.000000 0.000000 0.038365
#
#
# Mechanical properties :
#
#
# Convention : Reuss Voigt Hill
#
# Bulk Modulus (GPa) = 11.41358 12.73366 12.07362
# Shear Modulus (GPa) = 23.32135 25.83027 24.57581
#
# Velocity S-wave (km/s) = 3.54731 3.73325 3.64147
# Velocity P-wave (km/s) = 4.78918 5.04515 4.91883
#
# Compressibility (1/GPa) = 0.08761490
#
# Stress axis : x y z
#
# Youngs Moduli (GPa) = 38.01251 69.25272 28.98909
#
# Poissons Ratio (x) = -0.42350 -0.03419
# Poissons Ratio (y) = -0.23246 0.03214
# Poissons Ratio (z) = -0.04483 0.07678
#
# Static dielectric constant tensor:
#      x y z
#    x 1.673460 0.000000 0.000000 
#    y 0.000000 1.701340 0.000000 
#    z 0.000000 0.000000 1.616110 
# 
# From -- ./inp_files/53180.got.cif
#   From: 2010.05.17/outbox.cif.g08.bks.cpg/sg71_27_cif.got.tgz:53180.got - 2010.06.03 16:22:01.
