data_PCOD9522753
_publ_section_title
;
Structure prediction by ZEFSAII (Michael W. Deem and Ramdas Pophale) SiO2 
 PCOD9522753
Probable space group: I M M M
;
_chemical_formula_sum "Si O2"
_cell_formula_units_Z 80
_cell_length_a 17.999069
_cell_length_b 7.897569
_cell_length_c 27.373232
_cell_angle_alpha 90.000000
_cell_angle_beta 90.000000
_cell_angle_gamma 90.000000
_cell_volume 3891.074527
_symmetry_space_group_name_H-M "I M M M"
_symmetry_group_IT_number 71
_symmetry_cell_setting 'orthorhombic'
loop_
_space_group_symop_operation_xyz
x,y,z
-x,-y,z
x,-y,-z
-x,y,-z
-x,-y,-z
x,y,-z
-x,y,z
x,-y,z
1/2+x,1/2+y,1/2+z
1/2-x,1/2-y,1/2+z
1/2+x,1/2-y,1/2-z
1/2-x,1/2+y,1/2-z
1/2-x,1/2-y,1/2-z
1/2+x,1/2+y,1/2-z
1/2-x,1/2+y,1/2+z
1/2+x,1/2-y,1/2+z
loop_
_atom_site_type_symbol
_atom_site_label
_atom_site_fract_x
_atom_site_fract_y
_atom_site_fract_z
Si Si1 0.629679 0.795966 0.157960
Si Si2 0.693937 0.699329 0.447675
Si Si3 0.919751 0.704133 0.762973
Si Si4 0.866192 0.201960 0.447134
Si Si5 0.300587 0.296261 0.342935
O O1 0.590273 0.736066 0.207173
O O2 0.598232 0.746482 0.104902
O O3 0.715579 0.735821 0.162036
O O4 0.629598 0.000000 0.158824
O O5 0.670001 0.774502 0.500000
O O6 0.675502 0.500000 0.448788
O O7 0.783811 0.716190 0.446085
O O8 0.668647 0.768904 0.395273
O O9 0.920152 0.500000 0.761572
O O10 0.852364 0.753693 0.797738
O O11 0.000000 0.762886 0.781874
O O12 0.900367 0.250520 0.500000
O O13 0.856920 0.000000 0.447594
O O14 0.296699 0.500000 0.346270
#
# Coordination Sequence:
#
# PCOD9522753 Si02
#       5
#    16  16  16  16  16
#     4   9  18  32  49  69  93 122 156 191 227 271
#     4   8  14  26  44  67  96 125 151 183 225 271
#     4  10  21  35  49  66  91 123 157 194 235 276
#     4   9  16  25  41  69  99 121 146 184 228 272
#     4   9  17  29  48  73  95 118 151 189 230 275
#
# _framework density 20.559871999999999
#
# number of rings (size 3 to 8) (size 9 to 14) (size 15 to 20)
#    0.000    3.000    0.000    2.400    0.000    5.600 
#    0.000    0.000    0.000    1.200    0.000    8.400 
#    0.000    0.000    0.000    0.000    0.000    0.000 
#
# Total GULP energy -222733.589017 kJ/mol
# GULP energy per Si atom -5568.339725 kJ/mol
# Density = 2.051308 g / cm^3
# Si number density = 20.559872 Si / 1000 Ang^3
#
#
#
# Elastic Constant Matrix: (Units=GPa)
#
#
# Indices 1 2 3 4 5 6 
#
# 1 43.4803 3.1949 26.3568 0.0000 0.0000 0.0000
# 2 3.1949 19.6524 6.3415 0.0000 0.0000 0.0000
# 3 26.3568 6.3415 146.8419 0.0000 0.0000 0.0000
# 4 0.0000 0.0000 0.0000 24.8731 0.0000 0.0000
# 5 0.0000 0.0000 0.0000 0.0000 -15.8894 0.0000
# 6 0.0000 0.0000 0.0000 0.0000 0.0000 1.3035
#
#
#
# Elastic Compliance Matrix: (Units=1/GPa)
#
#
# Indices 1 2 3 4 5 6 
#
# 1 0.025953 -0.002754 -0.004539 0.000000 0.000000 0.000000
# 2 -0.002754 0.051896 -0.001747 0.000000 0.000000 0.000000
# 3 -0.004539 -0.001747 0.007700 0.000000 0.000000 0.000000
# 4 0.000000 0.000000 0.000000 0.040204 0.000000 0.000000
# 5 0.000000 0.000000 0.000000 0.000000 -0.062935 0.000000
# 6 0.000000 0.000000 0.000000 0.000000 0.000000 0.767166
#
#
# Mechanical properties :
#
#
# Convention : Reuss Voigt Hill
#
# Bulk Modulus (GPa) = 14.82185 31.30678 23.06431
# Shear Modulus (GPa) = 5.74347 13.66286 9.70316
#
# Velocity S-wave (km/s) = 1.67320 2.58066 2.17479
# Velocity P-wave (km/s) = 3.31022 4.91324 4.18912
#
# Compressibility (1/GPa) = 0.06746797
#
# Stress axis : x y z
#
# Youngs Moduli (GPa) = 38.53123 19.26933 129.86575
#
# Poissons Ratio (x) = 0.05308 0.58951
# Poissons Ratio (y) = 0.10613 0.22685
# Poissons Ratio (z) = 0.17491 0.03366
#
# Static dielectric constant tensor:
#      x y z
#    x 1.691020 0.000000 0.000000 
#    y 0.000000 1.751880 0.000000 
#    z 0.000000 0.000000 1.815090 
# 
# From -- ./inp_files/8282.got.cif
#   From: 2010.05.17/outbox.cif.g08.bks.cpg/sg71_5_cif.got.tgz:8282.got - 2010.06.03 16:22:01.
