data_PCOD9522887
_publ_section_title
;
Structure prediction by ZEFSAII (Michael W. Deem and Ramdas Pophale) SiO2 
 PCOD9522887
Probable space group: I M M M
;
_chemical_formula_sum "Si O2"
_cell_formula_units_Z 100
_cell_length_a 20.738474
_cell_length_b 30.038244
_cell_length_c 7.618478
_cell_angle_alpha 90.000000
_cell_angle_beta 90.000000
_cell_angle_gamma 90.000000
_cell_volume 4745.910622
_symmetry_space_group_name_H-M "I M M M"
_symmetry_group_IT_number 71
_symmetry_cell_setting 'orthorhombic'
loop_
_space_group_symop_operation_xyz
x,y,z
-x,-y,z
x,-y,-z
-x,y,-z
-x,-y,-z
x,y,-z
-x,y,z
x,-y,z
1/2+x,1/2+y,1/2+z
1/2-x,1/2-y,1/2+z
1/2+x,1/2-y,1/2-z
1/2-x,1/2+y,1/2-z
1/2-x,1/2-y,1/2-z
1/2+x,1/2+y,1/2-z
1/2-x,1/2+y,1/2+z
1/2+x,1/2-y,1/2+z
loop_
_atom_site_type_symbol
_atom_site_label
_atom_site_fract_x
_atom_site_fract_y
_atom_site_fract_z
Si Si1 0.572743 0.627319 0.207045
Si Si2 0.679754 0.049765 0.213015
Si Si3 0.112893 0.360315 0.282570
Si Si4 0.073521 0.227504 0.796919
Si Si5 0.694302 0.782960 0.192706
Si Si6 0.326757 0.550159 0.711470
Si Si7 0.000000 0.342843 0.000000
O O1 0.500000 0.614819 0.265495
O O2 0.588935 0.674954 0.291386
O O3 0.623251 0.588240 0.238082
O O4 0.570692 0.636078 0.000000
O O5 0.630782 0.088735 0.258004
O O6 0.753343 0.059002 0.271343
O O7 0.661876 0.000000 0.272054
O O8 0.681762 0.049042 0.000000
O O9 0.102844 0.355842 0.500000
O O10 0.174159 0.329820 0.226450
O O11 0.055456 0.344961 0.157724
O O12 0.127849 0.254975 0.698655
O O13 0.000000 0.233073 0.730945
O O14 0.073865 0.242272 0.000000
O O15 0.750000 0.750000 0.250000
O O16 0.714940 0.795971 0.000000
O O17 0.325546 0.549299 0.500000
O O18 0.344831 0.500000 0.770843
#
# Coordination Sequence:
#
# PCOD9522887 Si02
#       7
#    16  16  16  16  16  16   4
#     4  10  21  36  52  77 116 158 202 252 310 370
#     4   8  16  37  66  91 122 164 207 256 319 386
#     4  10  24  44  68  99 133 172 215 265 324 384
#     4  10  22  39  62  86 115 159 206 251 306 376
#     4  11  25  41  62  93 129 165 209 263 315 372
#     4   9  18  33  57  85 113 154 206 257 313 374
#     4  12  26  44  73 100 136 176 214 270 317 398
#
# _framework density 21.070772999999999
#
# number of rings (size 3 to 8) (size 9 to 14) (size 15 to 20)
#    0.000    2.240    0.000    2.640    5.600    2.560 
#    1.440    2.800    0.000    1.920    0.000    0.000 
#    0.000    0.000    0.000    0.000    0.000    0.000 
#
# Total GULP energy -278342.945536 kJ/mol
# GULP energy per Si atom -5566.858911 kJ/mol
# Density = 2.102281 g / cm^3
# Si number density = 21.070773 Si / 1000 Ang^3
#
#
#
# Elastic Constant Matrix: (Units=GPa)
#
#
# Indices 1 2 3 4 5 6 
#
# 1 52.0585 36.3926 13.3891 0.0000 0.0000 0.0000
# 2 36.3926 88.4273 10.5931 0.0000 0.0000 0.0000
# 3 13.3891 10.5931 67.5009 0.0000 0.0000 0.0000
# 4 0.0000 0.0000 0.0000 15.2779 0.0000 0.0000
# 5 0.0000 0.0000 0.0000 0.0000 38.9551 0.0000
# 6 0.0000 0.0000 0.0000 0.0000 0.0000 3.3701
#
#
#
# Elastic Compliance Matrix: (Units=1/GPa)
#
#
# Indices 1 2 3 4 5 6 
#
# 1 0.027894 -0.011024 -0.003803 0.000000 0.000000 0.000000
# 2 -0.011024 0.015882 -0.000306 0.000000 0.000000 0.000000
# 3 -0.003803 -0.000306 0.015617 0.000000 0.000000 0.000000
# 4 0.000000 0.000000 0.000000 0.065454 0.000000 0.000000
# 5 0.000000 0.000000 0.000000 0.000000 0.025671 0.000000
# 6 0.000000 0.000000 0.000000 0.000000 0.000000 0.296725
#
#
# Mechanical properties :
#
#
# Convention : Reuss Voigt Hill
#
# Bulk Modulus (GPa) = 34.33174 36.52625 35.42899
# Shear Modulus (GPa) = 10.26236 21.36143 15.81189
#
# Velocity S-wave (km/s) = 2.20930 3.18747 2.74235
# Velocity P-wave (km/s) = 4.77880 5.56051 5.18441
#
# Compressibility (1/GPa) = 0.02912757
#
# Stress axis : x y z
#
# Youngs Moduli (GPa) = 35.84993 62.96250 64.03316
#
# Poissons Ratio (x) = 0.69412 0.24351
# Poissons Ratio (y) = 0.39522 0.01958
# Poissons Ratio (z) = 0.13633 0.01925
#
# Static dielectric constant tensor:
#      x y z
#    x 1.771850 0.000000 0.000000 
#    y 0.000000 1.789250 0.000000 
#    z 0.000000 0.000000 1.771210 
# 
# From -- ./inp_files/11171.got.cif
#   From: 2010.05.17/outbox.cif.g08.bks.cpg/sg71_6_cif.got.tgz:11171.got - 2010.06.03 16:22:01.
