data_PCOD9522342
_publ_section_title
;
Structure prediction by ZEFSAII (Michael W. Deem and Ramdas Pophale) SiO2 
 PCOD9522342
Probable space group: I M M M
;
_chemical_formula_sum "Si O2"
_cell_formula_units_Z 104
_cell_length_a 28.221480
_cell_length_b 8.818110
_cell_length_c 22.231986
_cell_angle_alpha 90.000000
_cell_angle_beta 90.000000
_cell_angle_gamma 90.000000
_cell_volume 5532.654593
_symmetry_space_group_name_H-M "I M M M"
_symmetry_group_IT_number 71
_symmetry_cell_setting 'orthorhombic'
loop_
_space_group_symop_operation_xyz
x,y,z
-x,-y,z
x,-y,-z
-x,y,-z
-x,-y,-z
x,y,-z
-x,y,z
x,-y,z
1/2+x,1/2+y,1/2+z
1/2-x,1/2-y,1/2+z
1/2+x,1/2-y,1/2-z
1/2-x,1/2+y,1/2-z
1/2-x,1/2-y,1/2-z
1/2+x,1/2+y,1/2-z
1/2-x,1/2+y,1/2+z
1/2+x,1/2-y,1/2+z
loop_
_atom_site_type_symbol
_atom_site_label
_atom_site_fract_x
_atom_site_fract_y
_atom_site_fract_z
Si Si1 0.192537 0.319119 0.069780
Si Si2 0.100414 0.818399 0.118202
Si Si3 0.443501 0.826689 0.500000
Si Si4 0.876235 0.824981 0.350047
Si Si5 0.796721 0.318636 0.569105
Si Si6 0.054456 0.184804 0.755143
Si Si7 0.054547 0.667872 0.428251
O O1 0.194377 0.500000 0.076380
O O2 0.153237 0.248801 0.113298
O O3 0.244513 0.249612 0.078387
O O4 0.178852 0.284847 0.000000
O O5 0.072022 0.773752 0.178207
O O6 0.102904 0.000000 0.116564
O O7 0.073866 0.756787 0.059610
O O8 0.500000 0.830446 0.500000
O O9 0.425090 0.000000 0.500000
O O10 0.831522 0.740235 0.378906
O O11 0.904971 0.764266 0.291885
O O12 0.915820 0.802939 0.401218
O O13 0.863865 0.000000 0.339742
O O14 0.812042 0.275702 0.500000
O O15 0.794782 0.500000 0.570677
O O16 0.000000 0.235843 0.743789
O O17 0.053567 0.000000 0.751196
O O18 0.056130 0.671032 0.500000
O O19 0.073158 0.500000 0.409634
O O20 0.000000 0.677438 0.409522
#
# Coordination Sequence:
#
# PCOD9522342 Si02
#       7
#    16  16   8  16  16  16  16
#     4  10  20  36  59  87 120 149 179 229 292 345
#     4  11  21  36  61  87 113 149 193 232 279 344
#     4  11  23  37  55  85 123 153 183 233 290 337
#     4  11  21  34  54  79 109 146 189 236 288 337
#     4  10  21  37  58  84 115 149 191 238 284 339
#     4   9  20  38  57  80 113 152 193 237 281 332
#     4   9  18  32  49  71 102 139 180 229 284 340
#
# _framework density 18.797487
#
# number of rings (size 3 to 8) (size 9 to 14) (size 15 to 20)
#    0.000    1.923    0.769    3.923    0.000    5.846 
#    0.000    4.615    0.000    5.538    0.000    0.000 
#    0.000    0.000    0.000    0.000    0.000    0.000 
#
# Total GULP energy -290118.526527 kJ/mol
# GULP energy per Si atom -5579.202433 kJ/mol
# Density = 1.875470 g / cm^3
# Si number density = 18.797487 Si / 1000 Ang^3
#
#
#
# Elastic Constant Matrix: (Units=GPa)
#
#
# Indices 1 2 3 4 5 6 
#
# 1 109.5763 32.6371 62.8896 0.0000 0.0000 0.0000
# 2 32.6371 50.0808 29.6084 0.0000 0.0000 0.0000
# 3 62.8896 29.6084 100.2383 0.0000 0.0000 0.0000
# 4 0.0000 0.0000 0.0000 12.3693 0.0000 0.0000
# 5 0.0000 0.0000 0.0000 0.0000 37.1872 0.0000
# 6 0.0000 0.0000 0.0000 0.0000 0.0000 31.9791
#
#
#
# Elastic Compliance Matrix: (Units=1/GPa)
#
#
# Indices 1 2 3 4 5 6 
#
# 1 0.015305 -0.005206 -0.008065 0.000000 0.000000 0.000000
# 2 -0.005206 0.025964 -0.004403 0.000000 0.000000 0.000000
# 3 -0.008065 -0.004403 0.016337 0.000000 0.000000 0.000000
# 4 0.000000 0.000000 0.000000 0.080845 0.000000 0.000000
# 5 0.000000 0.000000 0.000000 0.000000 0.026891 0.000000
# 6 0.000000 0.000000 0.000000 0.000000 0.000000 0.031270
#
#
# Mechanical properties :
#
#
# Convention : Reuss Voigt Hill
#
# Bulk Modulus (GPa) = 44.92783 56.68508 50.80646
# Shear Modulus (GPa) = 20.88736 25.29113 23.08925
#
# Velocity S-wave (km/s) = 3.33705 3.67202 3.50854
# Velocity P-wave (km/s) = 6.22902 6.94258 6.59546
#
# Compressibility (1/GPa) = 0.02225792
#
# Stress axis : x y z
#
# Youngs Moduli (GPa) = 65.33636 38.51555 61.21247
#
# Poissons Ratio (x) = 0.20053 0.49367
# Poissons Ratio (y) = 0.34016 0.26950
# Poissons Ratio (z) = 0.52692 0.16957
#
# Static dielectric constant tensor:
#      x y z
#    x 1.658360 0.000000 0.000000 
#    y 0.000000 1.661880 0.000000 
#    z 0.000000 0.000000 1.650980 
# 
# From -- ./inp_files/56652.got.cif
#   From: 2010.05.17/outbox.cif.g08.bks.cpg/sg71_29_cif.got.tgz:56652.got - 2010.06.03 16:22:01.
