data_PCOD9522438
_publ_section_title
;
Structure prediction by ZEFSAII (Michael W. Deem and Ramdas Pophale) SiO2 
 PCOD9522438
Probable space group: I M M M
;
_chemical_formula_sum "Si O2"
_cell_formula_units_Z 88
_cell_length_a 15.035996
_cell_length_b 28.841279
_cell_length_c 9.799671
_cell_angle_alpha 90.000000
_cell_angle_beta 90.000000
_cell_angle_gamma 90.000000
_cell_volume 4249.699412
_symmetry_space_group_name_H-M "I M M M"
_symmetry_group_IT_number 71
_symmetry_cell_setting 'orthorhombic'
loop_
_space_group_symop_operation_xyz
x,y,z
-x,-y,z
x,-y,-z
-x,y,-z
-x,-y,-z
x,y,-z
-x,y,z
x,-y,z
1/2+x,1/2+y,1/2+z
1/2-x,1/2-y,1/2+z
1/2+x,1/2-y,1/2-z
1/2-x,1/2+y,1/2-z
1/2-x,1/2-y,1/2-z
1/2+x,1/2+y,1/2-z
1/2-x,1/2+y,1/2+z
1/2+x,1/2-y,1/2+z
loop_
_atom_site_type_symbol
_atom_site_label
_atom_site_fract_x
_atom_site_fract_y
_atom_site_fract_z
Si Si1 0.395771 0.863016 0.846770
Si Si2 0.606738 0.694439 0.844302
Si Si3 0.391186 0.779845 0.656162
Si Si4 0.000000 0.944769 0.152775
Si Si5 0.151682 0.090234 0.347130
Si Si6 0.148618 0.445632 0.155238
O O1 0.500000 0.852029 0.860988
O O2 0.359578 0.823326 0.746255
O O3 0.389921 0.911917 0.769322
O O4 0.356874 0.863861 0.000000
O O5 0.500000 0.685259 0.829058
O O6 0.633289 0.732847 0.734887
O O7 0.656391 0.645667 0.829641
O O8 0.619187 0.711746 0.000000
O O9 0.359679 0.782044 0.500000
O O10 0.500000 0.780918 0.651999
O O11 0.914064 0.928678 0.234529
O O12 0.000000 0.000000 0.147080
O O13 0.000000 0.925534 0.000000
O O14 0.114866 0.082481 0.500000
O O15 0.246157 0.065154 0.340855
O O16 0.131561 0.500000 0.178112
O O17 0.117963 0.434038 0.000000
#
# Coordination Sequence:
#
# PCOD9522438 Si02
#       6
#    16  16  16   8  16  16
#     4  10  21  38  60  84 110 143 183 227 278 340
#     4   9  16  29  51  80 112 146 185 226 269 319
#     4   9  17  30  52  82 113 144 179 223 275 327
#     4  11  23  35  51  79 113 149 193 243 286 325
#     4  10  20  37  58  81 110 150 194 232 277 332
#     4  10  22  39  59  83 111 144 184 234 287 336
#
# _framework density 20.707346999999999
#
# number of rings (size 3 to 8) (size 9 to 14) (size 15 to 20)
#    0.000    2.273    0.909    1.909    0.000    6.909 
#    0.000    2.727    0.000    0.000    0.000    0.000 
#    0.000    0.000    0.000    0.000    0.000    0.000 
#
# Total GULP energy -245770.890470 kJ/mol
# GULP energy per Si atom -5585.702056 kJ/mol
# Density = 2.066022 g / cm^3
# Si number density = 20.707347 Si / 1000 Ang^3
#
#
#
# Elastic Constant Matrix: (Units=GPa)
#
#
# Indices 1 2 3 4 5 6 
#
# 1 31.9565 -11.7226 11.8173 0.0000 0.0000 0.0000
# 2 -11.7226 83.6948 68.1981 0.0000 0.0001 0.0000
# 3 11.8173 68.1981 168.9260 -0.0004 0.0009 0.0000
# 4 0.0000 0.0000 -0.0004 34.7043 0.0002 0.0000
# 5 0.0000 0.0001 0.0009 0.0002 3.0870 -0.0001
# 6 0.0000 0.0000 0.0000 0.0000 -0.0001 28.1590
#
#
#
# Elastic Compliance Matrix: (Units=1/GPa)
#
#
# Indices 1 2 3 4 5 6 
#
# 1 0.038043 0.011172 -0.007172 0.000000 0.000001 0.000000
# 2 0.011172 0.021087 -0.009295 0.000000 0.000002 0.000000
# 3 -0.007172 -0.009295 0.010174 0.000000 -0.000003 0.000000
# 4 0.000000 0.000000 0.000000 0.028815 -0.000002 0.000000
# 5 0.000001 0.000002 -0.000003 -0.000002 0.323940 0.000001
# 6 0.000000 0.000000 0.000000 0.000000 0.000001 0.035513
#
#
# Mechanical properties :
#
#
# Convention : Reuss Voigt Hill
#
# Bulk Modulus (GPa) = 17.03135 46.79587 31.91361
# Shear Modulus (GPa) = 10.25155 27.60902 18.93028
#
# Velocity S-wave (km/s) = 2.22743 3.65539 3.02682
# Velocity P-wave (km/s) = 3.85459 6.36110 5.25935
#
# Compressibility (1/GPa) = 0.05871527
#
# Stress axis : x y z
#
# Youngs Moduli (GPa) = 26.28612 47.42349 98.29164
#
# Poissons Ratio (x) = -0.52983 0.70492
# Poissons Ratio (y) = -0.29368 0.91358
# Poissons Ratio (z) = 0.18852 0.44078
#
# Static dielectric constant tensor:
#      x y z
#    x 1.767850 0.000000 0.000000 
#    y 0.000000 1.712010 0.000000 
#    z 0.000000 0.000000 1.733100 
# 
# From -- ./inp_files/8849.got.cif
#   From: 2010.05.17/outbox.cif.g08.bks.cpg/sg71_5_cif.got.tgz:8849.got - 2010.06.03 16:22:01.
