data_PCOD9522896
_publ_section_title
;
Structure prediction by ZEFSAII (Michael W. Deem and Ramdas Pophale) SiO2 
 PCOD9522896
Probable space group: I M M M
;
_chemical_formula_sum "Si O2"
_cell_formula_units_Z 72
_cell_length_a 14.800500
_cell_length_b 23.607599
_cell_length_c 9.605889
_cell_angle_alpha 90.000000
_cell_angle_beta 90.000000
_cell_angle_gamma 90.000000
_cell_volume 3356.338624
_symmetry_space_group_name_H-M "I M M M"
_symmetry_group_IT_number 71
_symmetry_cell_setting 'orthorhombic'
loop_
_space_group_symop_operation_xyz
x,y,z
-x,-y,z
x,-y,-z
-x,y,-z
-x,-y,-z
x,y,-z
-x,y,z
x,-y,z
1/2+x,1/2+y,1/2+z
1/2-x,1/2-y,1/2+z
1/2+x,1/2-y,1/2-z
1/2-x,1/2+y,1/2-z
1/2-x,1/2-y,1/2-z
1/2+x,1/2+y,1/2-z
1/2-x,1/2+y,1/2+z
1/2+x,1/2-y,1/2+z
loop_
_atom_site_type_symbol
_atom_site_label
_atom_site_fract_x
_atom_site_fract_y
_atom_site_fract_z
Si Si1 0.362637 0.278223 0.657247
Si Si2 0.605039 0.617916 0.152504
Si Si3 0.843095 0.324732 0.340498
Si Si4 0.390270 0.933864 0.663699
Si Si5 0.897472 0.000000 0.670383
O O1 0.394552 0.274575 0.500000
O O2 0.396366 0.331106 0.743875
O O3 0.256261 0.295799 0.650692
O O4 0.388451 0.221557 0.739940
O O5 0.500000 0.603019 0.132899
O O6 0.648136 0.559508 0.206712
O O7 0.642874 0.633704 0.000000
O O8 0.877048 0.328693 0.500000
O O9 0.848209 0.385358 0.262933
O O10 0.366881 0.924046 0.500000
O O11 0.500000 0.929320 0.675259
O O12 0.367209 0.000000 0.695786
O O13 0.900195 0.000000 0.500000
O O14 0.000000 0.000000 0.729236
#
# Coordination Sequence:
#
# PCOD9522896 Si02
#       5
#    16  16  16  16   8
#     4  10  21  36  53  75 105 141 178 221 268 314
#     4   9  17  31  52  76 102 134 175 218 257 305
#     4  10  21  37  56  77 104 140 179 219 264 316
#     4   9  19  37  60  85 112 141 175 218 269 325
#     4   7  12  26  47  69  95 127 162 203 246 287
#
# _framework density 21.451948000000002
#
# number of rings (size 3 to 8) (size 9 to 14) (size 15 to 20)
#    0.000    2.778    0.000    3.333    0.000    4.889 
#    2.000    1.667    0.000    2.000    0.000    0.000 
#    0.000    0.000    0.000    0.000    0.000    0.000 
#
# Total GULP energy -200458.494701 kJ/mol
# GULP energy per Si atom -5568.291519 kJ/mol
# Density = 2.140312 g / cm^3
# Si number density = 21.451948 Si / 1000 Ang^3
#
#
#
# Elastic Constant Matrix: (Units=GPa)
#
#
# Indices 1 2 3 4 5 6 
#
# 1 35.3814 9.6078 16.6844 0.0000 0.0000 0.0000
# 2 9.6078 209.7837 130.6339 0.0009 0.0000 0.0000
# 3 16.6844 130.6339 172.4938 0.0080 0.0000 0.0000
# 4 0.0000 0.0009 0.0080 564.1018 0.0001 -0.0001
# 5 0.0000 0.0000 0.0000 0.0001 16.9353 0.0000
# 6 0.0000 0.0000 0.0000 -0.0001 0.0000 25.5885
#
#
#
# Elastic Compliance Matrix: (Units=1/GPa)
#
#
# Indices 1 2 3 4 5 6 
#
# 1 0.029687 0.000811 -0.003486 0.000000 0.000000 0.000000
# 2 0.000811 0.009043 -0.006927 0.000000 0.000000 0.000000
# 3 -0.003486 -0.006927 0.011381 0.000000 0.000000 0.000000
# 4 0.000000 0.000000 0.000000 0.001773 0.000000 0.000000
# 5 0.000000 0.000000 0.000000 0.000000 0.059048 0.000000
# 6 0.000000 0.000000 0.000000 0.000000 0.000000 0.039080
#
#
# Mechanical properties :
#
#
# Convention : Reuss Voigt Hill
#
# Bulk Modulus (GPa) = 32.35503 81.27900 56.81701
# Shear Modulus (GPa) = 27.85242 138.70732 83.27987
#
# Velocity S-wave (km/s) = 3.60719 8.04984 6.23746
# Velocity P-wave (km/s) = 5.69775 11.15217 8.85538
#
# Compressibility (1/GPa) = 0.03090710
#
# Stress axis : x y z
#
# Youngs Moduli (GPa) = 33.68490 110.57990 87.86950
#
# Poissons Ratio (x) = -0.08966 0.30627
# Poissons Ratio (y) = -0.02731 0.60868
# Poissons Ratio (z) = 0.11741 0.76600
#
# Static dielectric constant tensor:
#      x y z
#    x 1.956310 0.000000 0.000000 
#    y 0.000000 1.788780 0.000000 
#    z 0.000000 0.000000 1.746040 
# 
# From -- ./inp_files/7956.got.cif
#   From: 2010.05.17/outbox.cif.g08.bks.cpg/sg71_4_cif.got.tgz:7956.got - 2010.06.03 16:22:01.
