data_PCOD9522600
_publ_section_title
;
Structure prediction by ZEFSAII (Michael W. Deem and Ramdas Pophale) SiO2 
 PCOD9522600
Probable space group: I M M M
;
_chemical_formula_sum "Si O2"
_cell_formula_units_Z 104
_cell_length_a 20.824551
_cell_length_b 30.198107
_cell_length_c 9.009284
_cell_angle_alpha 90.000000
_cell_angle_beta 90.000000
_cell_angle_gamma 90.000000
_cell_volume 5665.596529
_symmetry_space_group_name_H-M "I M M M"
_symmetry_group_IT_number 71
_symmetry_cell_setting 'orthorhombic'
loop_
_space_group_symop_operation_xyz
x,y,z
-x,-y,z
x,-y,-z
-x,y,-z
-x,-y,-z
x,y,-z
-x,y,z
x,-y,z
1/2+x,1/2+y,1/2+z
1/2-x,1/2-y,1/2+z
1/2+x,1/2-y,1/2-z
1/2-x,1/2+y,1/2-z
1/2-x,1/2-y,1/2-z
1/2+x,1/2+y,1/2-z
1/2-x,1/2+y,1/2+z
1/2+x,1/2-y,1/2+z
loop_
_atom_site_type_symbol
_atom_site_label
_atom_site_fract_x
_atom_site_fract_y
_atom_site_fract_z
Si Si1 0.500000 0.678345 0.320770
Si Si2 0.248885 0.798311 0.178042
Si Si3 0.929273 0.500000 0.674730
Si Si4 0.364262 0.633430 0.321598
Si Si5 0.500000 0.775869 0.179020
Si Si6 0.648709 0.073681 0.330645
Si Si7 0.619951 0.825621 0.672505
Si Si8 0.295207 0.552094 0.821813
O O1 0.500000 0.686209 0.500000
O O2 0.435269 0.651195 0.283781
O O3 0.500000 0.725380 0.237629
O O4 0.250000 0.750000 0.250000
O O5 0.188418 0.829115 0.222549
O O6 0.314481 0.818473 0.238871
O O7 0.248611 0.795042 0.000000
O O8 0.934315 0.500000 0.500000
O O9 0.890355 0.457784 0.725738
O O10 0.000000 0.500000 0.743077
O O11 0.360845 0.629172 0.500000
O O12 0.344955 0.586398 0.250892
O O13 0.437873 0.800708 0.246501
O O14 0.500000 0.777334 0.000000
O O15 0.646654 0.056749 0.500000
O O16 0.615654 0.121430 0.329551
O O17 0.723918 0.071324 0.287844
O O18 0.624679 0.810372 0.500000
O O19 0.299319 0.500000 0.776451
O O20 0.302969 0.553350 0.000000
#
# Coordination Sequence:
#
# PCOD9522600 Si02
#       8
#     8  16   8  16   8  16  16  16
#     4  10  22  44  67  89 123 164 204 250 304 377
#     4  11  22  36  58  90 123 158 204 256 309 368
#     4  11  25  39  55  85 121 158 197 248 305 355
#     4  10  22  39  62  91 122 158 203 253 311 371
#     4  12  26  42  62  90 124 164 206 255 309 373
#     4  10  21  39  61  84 113 156 205 249 299 360
#     4  11  23  40  61  86 118 160 205 252 305 361
#     4  10  20  38  63  91 121 155 200 254 308 365
#
# _framework density 18.356407000000001
#
# number of rings (size 3 to 8) (size 9 to 14) (size 15 to 20)
#    0.000    1.462    2.308    2.769    1.077    5.231 
#    0.000    0.385    0.000    2.308    0.000    0.000 
#    0.000    0.000    0.000    0.000    0.000    0.000 
#
# Total GULP energy -290277.645816 kJ/mol
# GULP energy per Si atom -5582.262420 kJ/mol
# Density = 1.831463 g / cm^3
# Si number density = 18.356407 Si / 1000 Ang^3
#
#
#
# Elastic Constant Matrix: (Units=GPa)
#
#
# Indices 1 2 3 4 5 6 
#
# 1 153.1081 67.4639 52.4586 0.0000 0.0000 0.0000
# 2 67.4639 130.5462 50.0555 0.0000 0.0000 0.0000
# 3 52.4586 50.0555 68.3219 0.0000 0.0000 -0.0002
# 4 0.0000 0.0000 0.0000 34.0745 0.0000 0.0001
# 5 0.0000 0.0000 0.0000 0.0000 22.5955 -0.0003
# 6 0.0000 0.0000 -0.0002 0.0001 -0.0003-2414.5061
#
#
#
# Elastic Compliance Matrix: (Units=1/GPa)
#
#
# Indices 1 2 3 4 5 6 
#
# 1 0.009629 -0.002978 -0.005212 0.000000 0.000000 0.000000
# 2 -0.002978 0.011574 -0.006193 0.000000 0.000000 0.000000
# 3 -0.005212 -0.006193 0.023175 0.000000 0.000000 0.000000
# 4 0.000000 0.000000 0.000000 0.029347 0.000000 0.000000
# 5 0.000000 0.000000 0.000000 0.000000 0.044257 0.000000
# 6 0.000000 0.000000 0.000000 0.000000 0.000000 -0.000414
#
#
# Mechanical properties :
#
#
# Convention : Reuss Voigt Hill
#
# Bulk Modulus (GPa) = 64.04806 76.88136 70.46471
# Shear Modulus (GPa) = 32.99522 -459.43402 -213.21940
#
# Velocity S-wave (km/s) = 4.24427 -15.83757 -10.78923
# Velocity P-wave (km/s) = 7.68020 17.10160 10.80461
#
# Compressibility (1/GPa) = 0.01561328
#
# Stress axis : x y z
#
# Youngs Moduli (GPa) = 103.85179 86.40404 43.14925
#
# Poissons Ratio (x) = 0.25730 0.22488
# Poissons Ratio (y) = 0.30925 0.26722
# Poissons Ratio (z) = 0.54125 0.53509
#
# Static dielectric constant tensor:
#      x y z
#    x 1.896250 0.000000 0.000000 
#    y 0.000000 1.294380 0.000000 
#    z 0.000000 0.000000 1.638030 
# 
# From -- ./inp_files/11204.got.cif
#   From: 2010.05.17/outbox.cif.g08.bks.cpg/sg71_6_cif.got.tgz:11204.got - 2010.06.03 16:22:01.
