data_PCOD9522520
_publ_section_title
;
Structure prediction by ZEFSAII (Michael W. Deem and Ramdas Pophale) SiO2 
 PCOD9522520
Probable space group: I M M M
;
_chemical_formula_sum "Si O2"
_cell_formula_units_Z 104
_cell_length_a 28.908492
_cell_length_b 9.191235
_cell_length_c 21.110864
_cell_angle_alpha 90.000000
_cell_angle_beta 90.000000
_cell_angle_gamma 90.000000
_cell_volume 5609.256703
_symmetry_space_group_name_H-M "I M M M"
_symmetry_group_IT_number 71
_symmetry_cell_setting 'orthorhombic'
loop_
_space_group_symop_operation_xyz
x,y,z
-x,-y,z
x,-y,-z
-x,y,-z
-x,-y,-z
x,y,-z
-x,y,z
x,-y,z
1/2+x,1/2+y,1/2+z
1/2-x,1/2-y,1/2+z
1/2+x,1/2-y,1/2-z
1/2-x,1/2+y,1/2-z
1/2-x,1/2-y,1/2-z
1/2+x,1/2+y,1/2-z
1/2-x,1/2+y,1/2+z
1/2+x,1/2-y,1/2+z
loop_
_atom_site_type_symbol
_atom_site_label
_atom_site_fract_x
_atom_site_fract_y
_atom_site_fract_z
Si Si1 0.640399 0.172553 0.928821
Si Si2 0.396594 0.172590 0.618907
Si Si3 0.444528 0.333535 0.731422
Si Si4 0.193567 0.672226 0.811612
Si Si5 0.802346 0.172108 0.680291
Si Si6 0.945895 0.828181 0.380164
Si Si7 0.445047 0.325284 0.500000
O O1 0.670637 0.252110 0.876169
O O2 0.588447 0.231270 0.920300
O O3 0.641791 0.000000 0.919179
O O4 0.656634 0.205328 0.000000
O O5 0.421522 0.221784 0.683680
O O6 0.342568 0.206378 0.632628
O O7 0.420034 0.258908 0.561584
O O8 0.401502 0.000000 0.608283
O O9 0.500000 0.328983 0.723492
O O10 0.429525 0.500000 0.717108
O O11 0.435317 0.304908 0.805437
O O12 0.188425 0.500000 0.797467
O O13 0.183168 0.762054 0.748065
O O14 0.247258 0.698273 0.827424
O O15 0.810862 0.000000 0.680014
O O16 0.000000 0.796876 0.390394
O O17 0.938633 0.000000 0.392903
O O18 0.441298 0.500000 0.500000
O O19 0.500000 0.288933 0.500000
#
# Coordination Sequence:
#
# PCOD9522520 Si02
#       7
#    16  16  16  16  16  16   8
#     4  11  24  39  54  77 113 153 190 230 278 330
#     4  11  22  36  56  83 113 145 183 230 283 338
#     4   9  18  33  53  79 111 143 178 224 275 326
#     4   9  20  38  60  88 118 144 176 228 290 342
#     4  10  20  37  62  88 113 147 188 230 279 338
#     4   9  19  36  58  84 112 144 187 235 278 328
#     4  11  25  43  59  77 109 153 197 239 284 339
#
# _framework density 18.540780000000002
#
# number of rings (size 3 to 8) (size 9 to 14) (size 15 to 20)
#    0.000    2.077    0.000    3.923    0.000    9.538 
#    1.385    3.077    0.000    0.000    0.000    0.000 
#    0.000    0.000    0.000    0.000    0.000    0.000 
#
# Total GULP energy -290454.532401 kJ/mol
# GULP energy per Si atom -5585.664085 kJ/mol
# Density = 1.849858 g / cm^3
# Si number density = 18.540780 Si / 1000 Ang^3
#
#
#
# Elastic Constant Matrix: (Units=GPa)
#
#
# Indices 1 2 3 4 5 6 
#
# 1 86.7322 58.5179 66.1017 0.0000 0.0000 0.0000
# 2 58.5179 67.8391 63.6708 0.0000 0.0000 0.0000
# 3 66.1017 63.6708 86.7940 0.0000 0.0000 0.0000
# 4 0.0000 0.0000 0.0000 29.4062 0.0000 0.0000
# 5 0.0000 0.0000 0.0000 0.0000 22.4376 0.0000
# 6 0.0000 0.0000 0.0000 0.0000 0.0000 26.9412
#
#
#
# Elastic Compliance Matrix: (Units=1/GPa)
#
#
# Indices 1 2 3 4 5 6 
#
# 1 0.031614 -0.015000 -0.013073 0.000000 0.000000 0.000000
# 2 -0.015000 0.054441 -0.028513 0.000000 0.000000 0.000000
# 3 -0.013073 -0.028513 0.042394 0.000000 0.000000 0.000000
# 4 0.000000 0.000000 0.000000 0.034006 0.000000 0.000000
# 5 0.000000 0.000000 0.000000 0.000000 0.044568 0.000000
# 6 0.000000 0.000000 0.000000 0.000000 0.000000 0.037118
#
#
# Mechanical properties :
#
#
# Convention : Reuss Voigt Hill
#
# Bulk Modulus (GPa) = 65.45817 68.66068 67.05942
# Shear Modulus (GPa) = 13.79665 19.29531 16.54598
#
# Velocity S-wave (km/s) = 2.73082 3.22948 2.99056
# Velocity P-wave (km/s) = 6.73237 7.14274 6.94059
#
# Compressibility (1/GPa) = 0.01527693
#
# Stress axis : x y z
#
# Youngs Moduli (GPa) = 31.63198 18.36835 23.58800
#
# Poissons Ratio (x) = 0.27553 0.30836
# Poissons Ratio (y) = 0.47449 0.67257
# Poissons Ratio (z) = 0.41351 0.52374
#
# Static dielectric constant tensor:
#      x y z
#    x 1.660540 0.000000 0.000000 
#    y 0.000000 1.613850 0.000000 
#    z 0.000000 0.000000 1.619260 
# 
# From -- ./inp_files/56268.got.cif
#   From: 2010.05.17/outbox.cif.g08.bks.cpg/sg71_29_cif.got.tgz:56268.got - 2010.06.03 16:22:01.
