data_PCOD9522357
_publ_section_title
;
Structure prediction by ZEFSAII (Michael W. Deem and Ramdas Pophale) SiO2 
 PCOD9522357
Probable space group: I M M M
;
_chemical_formula_sum "Si O2"
_cell_formula_units_Z 64
_cell_length_a 34.186409
_cell_length_b 11.006788
_cell_length_c 8.528730
_cell_angle_alpha 90.000000
_cell_angle_beta 90.000000
_cell_angle_gamma 90.000000
_cell_volume 3209.212327
_symmetry_space_group_name_H-M "I M M M"
_symmetry_group_IT_number 71
_symmetry_cell_setting 'orthorhombic'
loop_
_space_group_symop_operation_xyz
x,y,z
-x,-y,z
x,-y,-z
-x,y,-z
-x,-y,-z
x,y,-z
-x,y,z
x,-y,z
1/2+x,1/2+y,1/2+z
1/2-x,1/2-y,1/2+z
1/2+x,1/2-y,1/2-z
1/2-x,1/2+y,1/2-z
1/2-x,1/2-y,1/2-z
1/2+x,1/2+y,1/2-z
1/2-x,1/2+y,1/2+z
1/2+x,1/2-y,1/2+z
loop_
_atom_site_type_symbol
_atom_site_label
_atom_site_fract_x
_atom_site_fract_y
_atom_site_fract_z
Si Si1 0.195187 0.500000 0.309602
Si Si2 0.045454 0.500000 0.308674
Si Si3 0.578172 0.254484 0.188335
Si Si4 0.834424 0.231357 0.309566
Si Si5 0.213621 0.000000 0.811934
Si Si6 0.000000 0.857631 0.827741
O O1 0.192281 0.500000 0.500000
O O2 0.176799 0.630231 0.259874
O O3 0.240809 0.500000 0.264836
O O4 0.044291 0.500000 0.500000
O O5 0.068895 0.382095 0.258638
O O6 0.000000 0.500000 0.257722
O O7 0.620889 0.295132 0.242251
O O8 0.539831 0.325056 0.240607
O O9 0.579361 0.255814 0.000000
O O10 0.832804 0.229439 0.500000
O O11 0.806933 0.123252 0.248853
O O12 0.211838 0.000000 0.000000
O O13 0.000000 0.000000 0.844319
O O14 0.000000 0.798470 0.000000
#
# Coordination Sequence:
#
# PCOD9522357 Si02
#       6
#     8   8  16  16   8   8
#     4   9  19  39  64  90 119 152 194 244 297 350
#     4   9  15  29  55  83 106 130 172 231 286 329
#     4  10  20  36  60  86 110 142 187 238 285 333
#     4  10  21  38  62  90 118 151 197 249 293 342
#     4  11  23  38  59  87 123 162 193 233 294 359
#     4  11  25  40  53  74 112 159 192 227 278 335
#
# _framework density 19.942589000000002
#
# number of rings (size 3 to 8) (size 9 to 14) (size 15 to 20)
#    0.000    2.000    1.250    2.250    1.750    5.000 
#    0.000    3.125    0.000    3.000    0.000    0.000 
#    0.000    0.000    0.000    0.000    0.000    0.000 
#
# Total GULP energy -178486.588801 kJ/mol
# GULP energy per Si atom -5577.705900 kJ/mol
# Density = 1.989720 g / cm^3
# Si number density = 19.942589 Si / 1000 Ang^3
#
#
#
# Elastic Constant Matrix: (Units=GPa)
#
#
# Indices 1 2 3 4 5 6 
#
# 1 161.4065 54.5079 25.4537 0.0000 0.0000 0.0000
# 2 54.5079 115.1439 17.7621 0.0000 0.0000 0.0000
# 3 25.4537 17.7621 13.4541 0.0000 0.0000 0.0000
# 4 0.0000 0.0000 0.0000 14.6508 0.0000 0.0000
# 5 0.0000 0.0000 0.0000 0.0000 30.0333 0.0000
# 6 0.0000 0.0000 0.0000 0.0000 0.0000 51.9328
#
#
#
# Elastic Compliance Matrix: (Units=1/GPa)
#
#
# Indices 1 2 3 4 5 6 
#
# 1 0.009218 -0.002101 -0.014665 0.000000 0.000000 0.000000
# 2 -0.002101 0.011385 -0.011055 0.000000 0.000000 0.000000
# 3 -0.014665 -0.011055 0.116665 0.000000 0.000000 0.000000
# 4 0.000000 0.000000 0.000000 0.068256 0.000000 0.000000
# 5 0.000000 0.000000 0.000000 0.000000 0.033296 0.000000
# 6 0.000000 0.000000 0.000000 0.000000 0.000000 0.019256
#
#
# Mechanical properties :
#
#
# Convention : Reuss Voigt Hill
#
# Bulk Modulus (GPa) = 12.25096 53.93911 33.09503
# Shear Modulus (GPa) = 14.66591 32.14209 23.40400
#
# Velocity S-wave (km/s) = 2.71478 4.01899 3.42946
# Velocity P-wave (km/s) = 3.99789 6.97440 5.68443
#
# Compressibility (1/GPa) = 0.08162627
#
# Stress axis : x y z
#
# Youngs Moduli (GPa) = 108.48520 87.83584 8.57152
#
# Poissons Ratio (x) = 0.18458 0.12570
# Poissons Ratio (y) = 0.22797 0.09476
# Poissons Ratio (z) = 1.59092 0.97099
#
# Static dielectric constant tensor:
#      x y z
#    x 1.767820 0.000000 0.000000 
#    y 0.000000 1.665160 0.000000 
#    z 0.000000 0.000000 1.713200 
# 
# From -- ./inp_files/16218.got.cif
#   From: 2010.05.17/outbox.cif.g08.bks.cpg/sg71_9_cif.got.tgz:16218.got - 2010.06.03 16:22:01.
