data_PCOD9522978
_publ_section_title
;
Structure prediction by ZEFSAII (Michael W. Deem and Ramdas Pophale) SiO2 
 PCOD9522978
Probable space group: I M M M
;
_chemical_formula_sum "Si O2"
_cell_formula_units_Z 96
_cell_length_a 27.844930
_cell_length_b 8.866358
_cell_length_c 20.320474
_cell_angle_alpha 90.000000
_cell_angle_beta 90.000000
_cell_angle_gamma 90.000000
_cell_volume 5016.781978
_symmetry_space_group_name_H-M "I M M M"
_symmetry_group_IT_number 71
_symmetry_cell_setting 'orthorhombic'
loop_
_space_group_symop_operation_xyz
x,y,z
-x,-y,z
x,-y,-z
-x,y,-z
-x,-y,-z
x,y,-z
-x,y,z
x,-y,z
1/2+x,1/2+y,1/2+z
1/2-x,1/2-y,1/2+z
1/2+x,1/2-y,1/2-z
1/2-x,1/2+y,1/2-z
1/2-x,1/2-y,1/2-z
1/2+x,1/2+y,1/2-z
1/2-x,1/2+y,1/2+z
1/2+x,1/2-y,1/2+z
loop_
_atom_site_type_symbol
_atom_site_label
_atom_site_fract_x
_atom_site_fract_y
_atom_site_fract_z
Si Si1 0.446254 0.318063 0.672184
Si Si2 0.140008 0.179149 0.077382
Si Si3 0.210913 0.680282 0.700986
Si Si4 0.898536 0.319870 0.297122
Si Si5 0.243132 0.320272 0.076531
Si Si6 0.443047 0.680634 0.924994
O O1 0.500000 0.271303 0.652541
O O2 0.445449 0.500000 0.674860
O O3 0.404762 0.271142 0.621432
O O4 0.433073 0.254131 0.743383
O O5 0.188715 0.268603 0.092132
O O6 0.148642 0.000000 0.088548
O O7 0.129207 0.198555 0.000000
O O8 0.214497 0.500000 0.703507
O O9 0.250000 0.750000 0.750000
O O10 0.156465 0.724464 0.718538
O O11 0.222608 0.738074 0.627827
O O12 0.902086 0.500000 0.293854
O O13 0.913238 0.263825 0.369268
O O14 0.247295 0.500000 0.083807
O O15 0.252365 0.281042 0.000000
O O16 0.500000 0.711641 0.916555
O O17 0.436757 0.500000 0.918454
O O18 0.429916 0.722290 0.000000
#
# Coordination Sequence:
#
# PCOD9522978 Si02
#       6
#    16  16  16  16  16  16
#     4  10  21  36  55  80 110 145 184 225 269 320
#     4   9  18  34  57  83 111 145 183 224 272 322
#     4  11  24  40  58  81 110 144 184 230 277 327
#     4  11  24  38  54  80 111 142 179 225 273 321
#     4  10  21  37  58  84 113 145 182 224 271 326
#     4   9  19  37  60  84 110 142 180 220 263 316
#
# _framework density 19.135771999999999
#
# number of rings (size 3 to 8) (size 9 to 14) (size 15 to 20)
#    0.000    2.000    0.000    3.500    0.000   11.000 
#    0.000    5.833    0.000    0.000    0.000    3.500 
#    0.000    0.000    0.000    0.000    0.000    0.000 
#
# Total GULP energy -268190.053309 kJ/mol
# GULP energy per Si atom -5587.292777 kJ/mol
# Density = 1.909222 g / cm^3
# Si number density = 19.135772 Si / 1000 Ang^3
#
#
#
# Elastic Constant Matrix: (Units=GPa)
#
#
# Indices 1 2 3 4 5 6 
#
# 1 28.6139 6.5903 -4.3520 0.0000 0.0000 0.0000
# 2 6.5903 12.9051 2.0354 0.0000 0.0000 0.0000
# 3 -4.3520 2.0354 27.6028 0.0000 0.0000 0.0000
# 4 0.0000 0.0000 0.0000 24.5862 0.0000 0.0000
# 5 0.0000 0.0000 0.0000 0.0000 38.9028 0.0000
# 6 0.0000 0.0000 0.0000 0.0000 0.0000 24.4578
#
#
#
# Elastic Compliance Matrix: (Units=1/GPa)
#
#
# Indices 1 2 3 4 5 6 
#
# 1 0.041351 -0.022406 0.008172 0.000000 0.000000 0.000000
# 2 -0.022406 0.090541 -0.010209 0.000000 0.000000 0.000000
# 3 0.008172 -0.010209 0.038269 0.000000 0.000000 0.000000
# 4 0.000000 0.000000 0.000000 0.040673 0.000000 0.000000
# 5 0.000000 0.000000 0.000000 0.000000 0.025705 0.000000
# 6 0.000000 0.000000 0.000000 0.000000 0.000000 0.040887
#
#
# Mechanical properties :
#
#
# Convention : Reuss Voigt Hill
#
# Bulk Modulus (GPa) = 8.24569 8.62993 8.43781
# Shear Modulus (GPa) = 13.63368 21.91258 17.77313
#
# Velocity S-wave (km/s) = 2.67211 3.38762 3.05091
# Velocity P-wave (km/s) = 3.72003 4.45207 4.10241
#
# Compressibility (1/GPa) = 0.12127551
#
# Stress axis : x y z
#
# Youngs Moduli (GPa) = 24.18297 11.04468 26.13054
#
# Poissons Ratio (x) = 0.24747 -0.21353
# Poissons Ratio (y) = 0.54185 0.26677
# Poissons Ratio (z) = -0.19762 0.11276
#
# Static dielectric constant tensor:
#      x y z
#    x 1.658020 0.000000 0.000000 
#    y 0.000000 1.638520 0.000000 
#    z 0.000000 0.000000 1.654380 
# 
# From -- ./inp_files/10858.got.cif
#   From: 2010.05.17/outbox.cif.g08.bks.cpg/sg71_6_cif.got.tgz:10858.got - 2010.06.03 16:22:01.
