data_PCOD9522777
_publ_section_title
;
Structure prediction by ZEFSAII (Michael W. Deem and Ramdas Pophale) SiO2 
 PCOD9522777
Probable space group: I M M M
;
_chemical_formula_sum "Si O2"
_cell_formula_units_Z 96
_cell_length_a 23.058578
_cell_length_b 10.611760
_cell_length_c 24.240163
_cell_angle_alpha 90.000000
_cell_angle_beta 90.000000
_cell_angle_gamma 90.000000
_cell_volume 5931.376284
_symmetry_space_group_name_H-M "I M M M"
_symmetry_group_IT_number 71
_symmetry_cell_setting 'orthorhombic'
loop_
_space_group_symop_operation_xyz
x,y,z
-x,-y,z
x,-y,-z
-x,y,-z
-x,-y,-z
x,y,-z
-x,y,z
x,-y,z
1/2+x,1/2+y,1/2+z
1/2-x,1/2-y,1/2+z
1/2+x,1/2-y,1/2-z
1/2-x,1/2+y,1/2-z
1/2-x,1/2-y,1/2-z
1/2+x,1/2+y,1/2-z
1/2-x,1/2+y,1/2+z
1/2+x,1/2-y,1/2+z
loop_
_atom_site_type_symbol
_atom_site_label
_atom_site_fract_x
_atom_site_fract_y
_atom_site_fract_z
Si Si1 0.000000 0.353933 0.939881
Si Si2 0.612243 0.244558 0.380204
Si Si3 0.671770 0.851873 0.934354
Si Si4 0.228966 0.646046 0.934183
Si Si5 0.065331 0.652484 0.643647
Si Si6 0.070391 0.000000 0.933668
Si Si7 0.569345 0.850201 0.269960
O O1 0.942738 0.325709 0.906327
O O2 0.000000 0.500000 0.948499
O O3 0.000000 0.286839 0.000000
O O4 0.671239 0.183137 0.401383
O O5 0.601715 0.381979 0.405359
O O6 0.604252 0.229456 0.314784
O O7 0.722251 0.751232 0.922011
O O8 0.614712 0.814910 0.899935
O O9 0.686434 0.000000 0.921753
O O10 0.660469 0.846291 0.000000
O O11 0.245642 0.500000 0.922577
O O12 0.216770 0.653617 0.000000
O O13 0.062330 0.500000 0.643767
O O14 0.080833 0.687284 0.706590
O O15 0.000000 0.698445 0.630938
O O16 0.000000 0.000000 0.923001
O O17 0.078092 0.000000 0.000000
O O18 0.500000 0.835139 0.278752
O O19 0.582001 0.000000 0.276753
#
# Coordination Sequence:
#
# PCOD9522777 Si02
#       7
#     8  16  16  16  16   8  16
#     4  11  20  29  45  69  95 122 164 220 259 288
#     4  12  21  32  49  69  98 134 176 213 256 303
#     4   9  18  33  54  80 108 136 166 205 256 313
#     4  10  21  35  51  72 101 137 177 216 254 298
#     4   8  15  29  53  83 109 131 161 204 256 307
#     4  11  22  34  46  66  98 136 172 216 272 314
#     4   9  16  29  50  75 101 131 168 214 258 299
#
# _framework density 16.185115
#
# number of rings (size 3 to 8) (size 9 to 14) (size 15 to 20)
#    0.000    2.167    1.667    4.000    1.167    1.667 
#    0.000    2.500    1.833    0.500    0.000    2.333 
#    0.000    0.000    0.000    0.000    0.000    0.000 
#
# Total GULP energy -267395.464022 kJ/mol
# GULP energy per Si atom -5570.738834 kJ/mol
# Density = 1.614828 g / cm^3
# Si number density = 16.185115 Si / 1000 Ang^3
#
#
#
# Elastic Constant Matrix: (Units=GPa)
#
#
# Indices 1 2 3 4 5 6 
#
# 1 111.2334 46.4322 71.1391 0.0000 0.0000 0.0000
# 2 46.4322 90.0978 39.6001 0.0000 0.0000 0.0000
# 3 71.1391 39.6001 76.1681 0.0000 0.0000 0.0000
# 4 0.0000 0.0000 0.0000 19.9624 0.0000 0.0000
# 5 0.0000 0.0000 0.0000 0.0000 27.1651 0.0000
# 6 0.0000 0.0000 0.0000 0.0000 0.0000 -95.2948
#
#
#
# Elastic Compliance Matrix: (Units=1/GPa)
#
#
# Indices 1 2 3 4 5 6 
#
# 1 0.022985 -0.003124 -0.019843 0.000000 0.000000 0.000000
# 2 -0.003124 0.014811 -0.004783 0.000000 0.000000 0.000000
# 3 -0.019843 -0.004783 0.034148 0.000000 0.000000 0.000000
# 4 0.000000 0.000000 0.000000 0.050094 0.000000 0.000000
# 5 0.000000 0.000000 0.000000 0.000000 0.036812 0.000000
# 6 0.000000 0.000000 0.000000 0.000000 0.000000 -0.010494
#
#
# Mechanical properties :
#
#
# Convention : Reuss Voigt Hill
#
# Bulk Modulus (GPa) = 60.80931 65.76021 63.28476
# Shear Modulus (GPa) = 23.88495 -1.61160 11.13668
#
# Velocity S-wave (km/s) = 3.84570 -0.99894 2.62598
# Velocity P-wave (km/s) = 7.57442 6.27597 6.95556
#
# Compressibility (1/GPa) = 0.01644485
#
# Stress axis : x y z
#
# Youngs Moduli (GPa) = 43.50750 67.51719 29.28404
#
# Poissons Ratio (x) = 0.21090 0.58108
# Poissons Ratio (y) = 0.13590 0.14006
# Poissons Ratio (z) = 0.86332 0.32292
#
# Static dielectric constant tensor:
#      x y z
#    x 1.521020 0.000000 0.000000 
#    y 0.000000 1.680850 0.000000 
#    z 0.000000 0.000000 1.561060 
# 
# From -- ./inp_files/61251.got.cif
#   From: 2010.05.17/outbox.cif.g08.bks.cpg/sg71_31_cif.got.tgz:61251.got - 2010.06.03 16:22:01.
