data_PCOD9522848
_publ_section_title
;
Structure prediction by ZEFSAII (Michael W. Deem and Ramdas Pophale) SiO2 
 PCOD9522848
Probable space group: I M M M
;
_chemical_formula_sum "Si O2"
_cell_formula_units_Z 72
_cell_length_a 7.399760
_cell_length_b 22.721747
_cell_length_c 18.334911
_cell_angle_alpha 90.000000
_cell_angle_beta 90.000000
_cell_angle_gamma 90.000000
_cell_volume 3082.748962
_symmetry_space_group_name_H-M "I M M M"
_symmetry_group_IT_number 71
_symmetry_cell_setting 'orthorhombic'
loop_
_space_group_symop_operation_xyz
x,y,z
-x,-y,z
x,-y,-z
-x,y,-z
-x,-y,-z
x,y,-z
-x,y,z
x,-y,z
1/2+x,1/2+y,1/2+z
1/2-x,1/2-y,1/2+z
1/2+x,1/2-y,1/2-z
1/2-x,1/2+y,1/2-z
1/2-x,1/2-y,1/2-z
1/2+x,1/2+y,1/2-z
1/2-x,1/2+y,1/2+z
1/2+x,1/2-y,1/2+z
loop_
_atom_site_type_symbol
_atom_site_label
_atom_site_fract_x
_atom_site_fract_y
_atom_site_fract_z
Si Si1 0.783645 0.258014 0.420412
Si Si2 0.278695 0.500000 0.415296
Si Si3 0.715406 0.622546 0.348587
Si Si4 0.293262 0.331884 0.804141
Si Si5 0.718510 0.067738 0.417167
O O1 0.714736 0.239157 0.500000
O O2 0.747342 0.326512 0.407357
O O3 0.710553 0.220698 0.352110
O O4 0.000000 0.249067 0.421074
O O5 0.500000 0.500000 0.414974
O O6 0.224399 0.500000 0.500000
O O7 0.217023 0.440666 0.374959
O O8 0.500000 0.615385 0.338946
O O9 0.789891 0.647515 0.272076
O O10 0.500000 0.314213 0.787861
O O11 0.292359 0.387470 0.858291
O O12 0.773991 0.082751 0.500000
O O13 0.500000 0.070497 0.414650
O O14 0.770416 0.000000 0.403020
#
# Coordination Sequence:
#
# PCOD9522848 Si02
#       5
#    16   8  16  16  16
#     4  10  21  37  55  78 111 146 181 227 280 331
#     4   9  18  34  55  79 108 139 176 226 273 315
#     4  10  21  36  57  83 109 142 185 229 275 329
#     4  10  21  35  55  82 112 144 181 227 278 330
#     4   9  19  35  53  76 109 148 189 230 271 321
#
# _framework density 23.355778999999998
#
# number of rings (size 3 to 8) (size 9 to 14) (size 15 to 20)
#    0.000    2.333    0.000    2.667    1.556    4.889 
#    0.000    1.667    0.000    2.000    0.000    0.000 
#    0.000    0.000    0.000    0.000    0.000    0.000 
#
# Total GULP energy -201259.305552 kJ/mol
# GULP energy per Si atom -5590.536265 kJ/mol
# Density = 2.330262 g / cm^3
# Si number density = 23.355779 Si / 1000 Ang^3
#
#
#
# Elastic Constant Matrix: (Units=GPa)
#
#
# Indices 1 2 3 4 5 6 
#
# 1 83.4195 1.0047 8.3634 0.0000 0.0000 0.0000
# 2 1.0047 139.8057 81.4808 0.0000 0.0000 0.0000
# 3 8.3634 81.4808 144.9567 0.0000 0.0000 0.0000
# 4 0.0000 0.0000 0.0000 49.5455 0.0000 0.0000
# 5 0.0000 0.0000 0.0000 0.0000 8.5784 0.0000
# 6 0.0000 0.0000 0.0000 0.0000 0.0000 29.0689
#
#
#
# Elastic Compliance Matrix: (Units=1/GPa)
#
#
# Indices 1 2 3 4 5 6 
#
# 1 0.012079 0.000475 -0.000964 0.000000 0.000000 0.000000
# 2 0.000475 0.010656 -0.006017 0.000000 0.000000 0.000000
# 3 -0.000964 -0.006017 0.010337 0.000000 0.000000 0.000000
# 4 0.000000 0.000000 0.000000 0.020183 0.000000 0.000000
# 5 0.000000 0.000000 0.000000 0.000000 0.116572 0.000000
# 6 0.000000 0.000000 0.000000 0.000000 0.000000 0.034401
#
#
# Mechanical properties :
#
#
# Convention : Reuss Voigt Hill
#
# Bulk Modulus (GPa) = 49.85310 61.09774 55.47542
# Shear Modulus (GPa) = 22.32869 35.92742 29.12805
#
# Velocity S-wave (km/s) = 3.09532 3.92633 3.53533
# Velocity P-wave (km/s) = 5.84518 6.83894 6.36149
#
# Compressibility (1/GPa) = 0.02005893
#
# Stress axis : x y z
#
# Youngs Moduli (GPa) = 82.79156 93.84024 96.74329
#
# Poissons Ratio (x) = -0.04457 0.09325
# Poissons Ratio (y) = -0.03932 0.58214
# Poissons Ratio (z) = 0.07980 0.56468
#
# Static dielectric constant tensor:
#      x y z
#    x 1.869950 0.000000 0.000000 
#    y 0.000000 1.837380 0.000000 
#    z 0.000000 0.000000 1.869130 
# 
# From -- ./inp_files/47924.got.cif
#   From: 2010.05.17/outbox.cif.g08.bks.cpg/sg71_24_cif.got.tgz:47924.got - 2010.06.03 16:22:01.
