data_PCOD9522148
_publ_section_title
;
Structure prediction by ZEFSAII (Michael W. Deem and Ramdas Pophale) SiO2 
 PCOD9522148
Probable space group: I M M M
;
_chemical_formula_sum "Si O2"
_cell_formula_units_Z 58
_cell_length_a 14.230467
_cell_length_b 25.966849
_cell_length_c 7.634893
_cell_angle_alpha 90.000000
_cell_angle_beta 90.000000
_cell_angle_gamma 90.000000
_cell_volume 2821.248622
_symmetry_space_group_name_H-M "I M M M"
_symmetry_group_IT_number 71
_symmetry_cell_setting 'orthorhombic'
loop_
_space_group_symop_operation_xyz
x,y,z
-x,-y,z
x,-y,-z
-x,y,-z
-x,-y,-z
x,y,-z
-x,y,z
x,-y,z
1/2+x,1/2+y,1/2+z
1/2-x,1/2-y,1/2+z
1/2+x,1/2-y,1/2-z
1/2-x,1/2+y,1/2-z
1/2-x,1/2-y,1/2-z
1/2+x,1/2+y,1/2-z
1/2-x,1/2+y,1/2+z
1/2+x,1/2-y,1/2+z
loop_
_atom_site_type_symbol
_atom_site_label
_atom_site_fract_x
_atom_site_fract_y
_atom_site_fract_z
Si Si1 0.833897 0.500000 0.697109
Si Si2 0.000000 0.500000 0.000000
Si Si3 0.500000 0.632741 0.708281
Si Si4 0.500000 0.247492 0.284735
Si Si5 0.792453 0.902836 0.291266
Si Si6 0.808831 0.300359 0.790471
O O1 0.873605 0.500000 0.500000
O O2 0.915683 0.500000 0.844799
O O3 0.764226 0.548928 0.717358
O O4 0.500000 0.636345 0.500000
O O5 0.500000 0.692569 0.774681
O O6 0.596082 0.603716 0.759185
O O7 0.500000 0.249259 0.500000
O O8 0.589003 0.214825 0.225054
O O9 0.780685 0.905479 0.500000
O O10 0.742457 0.850895 0.221858
O O11 0.750000 0.250000 0.750000
O O12 0.815136 0.306678 0.000000
#
# Coordination Sequence:
#
# PCOD9522148 Si02
#       6
#     8   2   8   8  16  16
#     4  12  27  50  80 107 137 186 233 287 356 413
#     4  12  26  56  80 104 148 168 238 296 348 406
#     4  11  21  36  65  96 137 183 230 282 341 424
#     4   9  18  34  55  88 128 176 224 276 341 410
#     4  11  23  42  66 101 141 183 231 292 353 415
#     4  10  20  35  59  90 130 177 225 281 344 413
#
# _framework density 20.558274000000001
#
# number of rings (size 3 to 8) (size 9 to 14) (size 15 to 20)
#    0.000    1.379    4.138    1.448    0.000    2.759 
#    2.483    3.448    0.000    0.000    0.000    0.000 
#    0.000    0.000    0.000    0.000    0.000    0.000 
#
# Total GULP energy -161625.285505 kJ/mol
# GULP energy per Si atom -5573.285707 kJ/mol
# Density = 2.051148 g / cm^3
# Si number density = 20.558274 Si / 1000 Ang^3
#
#
#
# Elastic Constant Matrix: (Units=GPa)
#
#
# Indices 1 2 3 4 5 6 
#
# 1 213.5632 89.6426 29.5598 -0.0004 0.0004 0.0001
# 2 89.6426 157.7495 23.3409 -0.0007 0.0001 0.0000
# 3 29.5598 23.3409 105.5682 -0.0040 0.0011 0.0004
# 4 -0.0004 -0.0007 -0.0040 16.4538 0.0005 0.0001
# 5 0.0004 0.0001 0.0011 0.0005 22.1055 -0.0001
# 6 0.0001 0.0000 0.0004 0.0001 -0.0001 15.5801
#
#
#
# Elastic Compliance Matrix: (Units=1/GPa)
#
#
# Indices 1 2 3 4 5 6 
#
# 1 0.006249 -0.003404 -0.000997 0.000000 0.000000 0.000000
# 2 -0.003404 0.008407 -0.000906 0.000000 0.000000 0.000000
# 3 -0.000997 -0.000906 0.009952 0.000002 0.000000 0.000000
# 4 0.000000 0.000000 0.000002 0.060776 -0.000001 0.000000
# 5 0.000000 0.000000 0.000000 -0.000001 0.045238 0.000000
# 6 0.000000 0.000000 0.000000 0.000000 0.000000 0.064184
#
#
# Mechanical properties :
#
#
# Convention : Reuss Voigt Hill
#
# Bulk Modulus (GPa) = 71.45319 84.66308 78.05813
# Shear Modulus (GPa) = 23.79989 33.11706 28.45847
#
# Velocity S-wave (km/s) = 3.40616 4.01794 3.72463
# Velocity P-wave (km/s) = 7.09233 7.92443 7.51989
#
# Compressibility (1/GPa) = 0.01399518
#
# Stress axis : x y z
#
# Youngs Moduli (GPa) = 160.02232 118.94432 100.48163
#
# Poissons Ratio (x) = 0.40483 0.10021
# Poissons Ratio (y) = 0.54465 0.09102
# Poissons Ratio (z) = 0.15959 0.10774
#
# Static dielectric constant tensor:
#      x y z
#    x 1.660570 0.000000 0.000000 
#    y 0.000000 1.718140 0.000000 
#    z 0.000000 0.000000 1.763980 
# 
# From -- ./inp_files/3445.got.cif
#   From: 2010.05.17/outbox.cif.g08.bks.cpg/sg71_2_cif.got.tgz:3445.got - 2010.06.03 16:22:01.
