data_PCOD9522446
_publ_section_title
;
Structure prediction by ZEFSAII (Michael W. Deem and Ramdas Pophale) SiO2 
 PCOD9522446
Probable space group: I M M M
;
_chemical_formula_sum "Si O2"
_cell_formula_units_Z 72
_cell_length_a 7.936443
_cell_length_b 32.333625
_cell_length_c 14.287158
_cell_angle_alpha 90.000000
_cell_angle_beta 90.000000
_cell_angle_gamma 90.000000
_cell_volume 3666.284360
_symmetry_space_group_name_H-M "I M M M"
_symmetry_group_IT_number 71
_symmetry_cell_setting 'orthorhombic'
loop_
_space_group_symop_operation_xyz
x,y,z
-x,-y,z
x,-y,-z
-x,y,-z
-x,-y,-z
x,y,-z
-x,y,z
x,-y,z
1/2+x,1/2+y,1/2+z
1/2-x,1/2-y,1/2+z
1/2+x,1/2-y,1/2-z
1/2-x,1/2+y,1/2-z
1/2-x,1/2-y,1/2-z
1/2+x,1/2+y,1/2-z
1/2-x,1/2+y,1/2+z
1/2+x,1/2-y,1/2+z
loop_
_atom_site_type_symbol
_atom_site_label
_atom_site_fract_x
_atom_site_fract_y
_atom_site_fract_z
Si Si1 0.500000 0.047658 0.388233
Si Si2 0.703250 0.048517 0.892841
Si Si3 0.314344 0.591302 0.791761
Si Si4 0.204216 0.234623 0.107212
Si Si5 0.198328 0.683266 0.216475
O O1 0.500000 0.048839 0.500000
O O2 0.665399 0.069870 0.349018
O O3 0.500000 0.000000 0.356066
O O4 0.500000 0.052702 0.884441
O O5 0.788729 0.076637 0.815302
O O6 0.743245 0.000000 0.876958
O O7 0.749124 0.058637 0.000000
O O8 0.500000 0.578844 0.824143
O O9 0.293315 0.640544 0.797436
O O10 0.253651 0.279710 0.147454
O O11 0.274921 0.201027 0.179176
O O12 0.000000 0.232701 0.111580
O O13 0.256548 0.229088 0.000000
O O14 0.000000 0.675689 0.201194
#
# Coordination Sequence:
#
# PCOD9522446 Si02
#       5
#     8  16  16  16  16
#     4  11  26  48  69  91 125 165 212 274 331 379
#     4   9  18  35  60  89 122 160 202 249 308 378
#     4  12  24  40  65  95 127 168 212 263 319 378
#     4   9  19  36  59  86 119 161 204 252 310 368
#     4  10  20  37  58  87 123 163 204 253 307 367
#
# _framework density 19.63841
#
# number of rings (size 3 to 8) (size 9 to 14) (size 15 to 20)
#    0.000    1.889    2.222    2.000    0.000    5.778 
#    0.000    2.222    0.000    0.000    0.000    0.000 
#    0.000    0.000    0.000    0.000    0.000    0.000 
#
# Total GULP energy -201194.557385 kJ/mol
# GULP energy per Si atom -5588.737705 kJ/mol
# Density = 1.959371 g / cm^3
# Si number density = 19.638410 Si / 1000 Ang^3
#
#
#
# Elastic Constant Matrix: (Units=GPa)
#
#
# Indices 1 2 3 4 5 6 
#
# 1 97.0983 41.4521 23.5944 -0.0017 0.0000 0.0000
# 2 41.4521 84.3566 13.6933 -0.0072 0.0000 0.0000
# 3 23.5944 13.6933 61.4234 -0.0167 0.0000 0.0000
# 4 -0.0017 -0.0072 -0.0167 1778.5174 0.0009 -0.0037
# 5 0.0000 0.0000 0.0000 0.0009 1.5947 0.0000
# 6 0.0000 0.0000 0.0000 -0.0037 0.0000 -25.7386
#
#
#
# Elastic Compliance Matrix: (Units=1/GPa)
#
#
# Indices 1 2 3 4 5 6 
#
# 1 0.013904 -0.006189 -0.003961 0.000000 0.000000 0.000000
# 2 -0.006189 0.015055 -0.000979 0.000000 0.000000 0.000000
# 3 -0.003961 -0.000979 0.018020 0.000000 0.000000 0.000000
# 4 0.000000 0.000000 0.000000 0.000562 0.000000 0.000000
# 5 0.000000 0.000000 0.000000 0.000000 0.627097 0.000000
# 6 0.000000 0.000000 0.000000 0.000000 0.000000 -0.038852
#
#
# Mechanical properties :
#
#
# Convention : Reuss Voigt Hill
#
# Bulk Modulus (GPa) = 40.45207 44.48421 42.46814
# Shear Modulus (GPa) = 7.50432 361.81725 184.66078
#
# Velocity S-wave (km/s) = 1.95692 13.58821 9.70745
# Velocity P-wave (km/s) = 5.07437 16.39777 12.13746
#
# Compressibility (1/GPa) = 0.02472061
#
# Stress axis : x y z
#
# Youngs Moduli (GPa) = 71.92423 66.42497 55.49337
#
# Poissons Ratio (x) = 0.41111 0.21981
# Poissons Ratio (y) = 0.44515 0.05431
# Poissons Ratio (z) = 0.28489 0.06501
#
# Static dielectric constant tensor:
#      x y z
#    x 1.698160 0.000000 0.000000 
#    y 0.000000 1.659200 0.000000 
#    z 0.000000 0.000000 1.671710 
# 
# From -- ./inp_files/31676.got.cif
#   From: 2010.05.17/outbox.cif.g08.bks.cpg/sg71_16_cif.got.tgz:31676.got - 2010.06.03 16:22:01.
