data_PCOD9522428
_publ_section_title
;
Structure prediction by ZEFSAII (Michael W. Deem and Ramdas Pophale) SiO2 
 PCOD9522428
Probable space group: I M M M
;
_chemical_formula_sum "Si O2"
_cell_formula_units_Z 88
_cell_length_a 16.638823
_cell_length_b 23.870292
_cell_length_c 11.816759
_cell_angle_alpha 90.000000
_cell_angle_beta 90.000000
_cell_angle_gamma 90.000000
_cell_volume 4693.304282
_symmetry_space_group_name_H-M "I M M M"
_symmetry_group_IT_number 71
_symmetry_cell_setting 'orthorhombic'
loop_
_space_group_symop_operation_xyz
x,y,z
-x,-y,z
x,-y,-z
-x,y,-z
-x,-y,-z
x,y,-z
-x,y,z
x,-y,z
1/2+x,1/2+y,1/2+z
1/2-x,1/2-y,1/2+z
1/2+x,1/2-y,1/2-z
1/2-x,1/2+y,1/2-z
1/2-x,1/2-y,1/2-z
1/2+x,1/2+y,1/2-z
1/2-x,1/2+y,1/2+z
1/2+x,1/2-y,1/2+z
loop_
_atom_site_type_symbol
_atom_site_label
_atom_site_fract_x
_atom_site_fract_y
_atom_site_fract_z
Si Si1 0.904717 0.687701 0.000000
Si Si2 0.158599 0.438132 0.000000
Si Si3 0.160212 0.628756 0.365398
Si Si4 0.779303 0.064140 0.712624
Si Si5 0.000000 0.563672 0.637822
Si Si6 0.402147 0.234341 0.742299
Si Si7 0.595677 0.348178 0.869059
O O1 0.887823 0.621008 0.000000
O O2 0.876223 0.717826 0.115052
O O3 0.000000 0.694761 0.000000
O O4 0.215635 0.436644 0.109714
O O5 0.116925 0.500000 0.000000
O O6 0.163683 0.626690 0.500000
O O7 0.236881 0.599258 0.311340
O O8 0.143678 0.691080 0.322899
O O9 0.080744 0.594588 0.325651
O O10 0.856842 0.097042 0.669061
O O11 0.795506 0.000000 0.745471
O O12 0.000000 0.500000 0.677474
O O13 0.000000 0.563675 0.500000
O O14 0.500000 0.226608 0.752220
O O15 0.384526 0.296647 0.785744
O O16 0.500000 0.356737 0.864618
O O17 0.616697 0.334311 0.000000
#
# Coordination Sequence:
#
# PCOD9522428 Si02
#       7
#     8   8  16  16   8  16  16
#     4  10  20  37  58  85 124 166 200 231 283 359
#     4  10  20  37  57  82 118 158 196 241 293 342
#     4  11  21  35  58  88 122 162 201 239 289 342
#     4  11  23  40  60  85 121 155 193 248 303 355
#     4   9  18  32  52  79 115 159 202 235 267 324
#     4  10  20  37  60  88 122 156 197 247 294 351
#     4  10  22  41  66  91 113 146 196 254 312 363
#
# _framework density 18.750115999999998
#
# number of rings (size 3 to 8) (size 9 to 14) (size 15 to 20)
#    0.000    1.727    3.636    1.091    0.000    3.091 
#    1.636    0.909    0.000    0.000    0.000    1.273 
#    0.000    0.000    0.000    0.000    0.000    0.000 
#
# Total GULP energy -245633.835815 kJ/mol
# GULP energy per Si atom -5582.587178 kJ/mol
# Density = 1.870744 g / cm^3
# Si number density = 18.750116 Si / 1000 Ang^3
#
#
#
# Elastic Constant Matrix: (Units=GPa)
#
#
# Indices 1 2 3 4 5 6 
#
# 1 24.3656 29.4607 28.0288 0.0000 0.0000 0.0000
# 2 29.4607 81.5698 33.1224 0.0000 0.0000 0.0000
# 3 28.0288 33.1224 87.7775 0.0000 0.0000 0.0000
# 4 0.0000 0.0000 0.0000 20.6822 0.0000 0.0000
# 5 0.0000 0.0000 0.0000 0.0000 19.7387 0.0000
# 6 0.0000 0.0000 0.0000 0.0000 0.0000 32.0092
#
#
#
# Elastic Compliance Matrix: (Units=1/GPa)
#
#
# Indices 1 2 3 4 5 6 
#
# 1 0.097537 -0.026667 -0.021083 0.000000 0.000000 0.000000
# 2 -0.026667 0.021769 0.000301 0.000000 0.000000 0.000000
# 3 -0.021083 0.000301 0.018011 0.000000 0.000000 0.000000
# 4 0.000000 0.000000 0.000000 0.048351 0.000000 0.000000
# 5 0.000000 0.000000 0.000000 0.000000 0.050662 0.000000
# 6 0.000000 0.000000 0.000000 0.000000 0.000000 0.031241
#
#
# Mechanical properties :
#
#
# Convention : Reuss Voigt Hill
#
# Bulk Modulus (GPa) = 23.57411 41.65965 32.61688
# Shear Modulus (GPa) = 13.27645 21.35941 17.31793
#
# Velocity S-wave (km/s) = 2.66385 3.37881 3.04240
# Velocity P-wave (km/s) = 4.69697 6.12277 5.45664
#
# Compressibility (1/GPa) = 0.04241942
#
# Stress axis : x y z
#
# Youngs Moduli (GPa) = 10.25254 45.93779 55.52184
#
# Poissons Ratio (x) = 1.22501 1.17054
# Poissons Ratio (y) = 0.27340 -0.01671
# Poissons Ratio (z) = 0.21615 -0.01382
#
# Static dielectric constant tensor:
#      x y z
#    x 1.644690 0.000000 0.000000 
#    y 0.000000 1.640040 0.000000 
#    z 0.000000 0.000000 1.652690 
# 
# From -- ./inp_files/24005.got.cif
#   From: 2010.05.17/outbox.cif.g08.bks.cpg/sg71_13_cif.got.tgz:24005.got - 2010.06.03 16:22:01.
