data_PCOD9522591
_publ_section_title
;
Structure prediction by ZEFSAII (Michael W. Deem and Ramdas Pophale) SiO2 
 PCOD9522591
Probable space group: I M M M
;
_chemical_formula_sum "Si O2"
_cell_formula_units_Z 104
_cell_length_a 30.959849
_cell_length_b 20.548636
_cell_length_c 8.388015
_cell_angle_alpha 90.000000
_cell_angle_beta 90.000000
_cell_angle_gamma 90.000000
_cell_volume 5336.309760
_symmetry_space_group_name_H-M "I M M M"
_symmetry_group_IT_number 71
_symmetry_cell_setting 'orthorhombic'
loop_
_space_group_symop_operation_xyz
x,y,z
-x,-y,z
x,-y,-z
-x,y,-z
-x,-y,-z
x,y,-z
-x,y,z
x,-y,z
1/2+x,1/2+y,1/2+z
1/2-x,1/2-y,1/2+z
1/2+x,1/2-y,1/2-z
1/2-x,1/2+y,1/2-z
1/2-x,1/2-y,1/2-z
1/2+x,1/2+y,1/2-z
1/2-x,1/2+y,1/2+z
1/2+x,1/2-y,1/2+z
loop_
_atom_site_type_symbol
_atom_site_label
_atom_site_fract_x
_atom_site_fract_y
_atom_site_fract_z
Si Si1 0.167840 0.887220 0.316163
Si Si2 0.078644 0.861225 0.178805
Si Si3 0.229514 0.000000 0.192592
Si Si4 0.950193 0.711904 0.188059
Si Si5 0.449603 0.570352 0.000000
Si Si6 0.330573 0.000000 0.194120
Si Si7 0.797308 0.259132 0.318840
Si Si8 0.132158 0.361648 0.692640
O O1 0.154869 0.903052 0.500000
O O2 0.127891 0.885358 0.195174
O O3 0.204564 0.936946 0.260165
O O4 0.182987 0.812718 0.318305
O O5 0.070344 0.784209 0.203352
O O6 0.059055 0.893553 0.334955
O O7 0.062266 0.876998 0.000000
O O8 0.279974 0.000000 0.240214
O O9 0.227308 0.000000 0.000000
O O10 0.915542 0.662237 0.260547
O O11 0.000000 0.710787 0.250037
O O12 0.952588 0.698654 0.000000
O O13 0.427215 0.500000 0.000000
O O14 0.500000 0.561699 0.000000
O O15 0.354305 0.066152 0.246509
O O16 0.331085 0.000000 0.000000
O O17 0.791031 0.281689 0.500000
O O18 0.750000 0.250000 0.250000
O O19 0.831513 0.310162 0.245964
O O20 0.133492 0.360439 0.500000
#
# Coordination Sequence:
#
# PCOD9522591 Si02
#       8
#    16  16   8  16   8   8  16  16
#     4  11  22  38  58  87 123 161 208 262 311 368
#     4  11  23  41  65  92 125 168 213 265 326 379
#     4  11  23  39  61  88 120 172 217 255 310 375
#     4  10  22  40  63  93 123 156 207 268 324 385
#     4  11  26  44  64  92 126 167 211 261 321 382
#     4   9  20  39  62  88 127 164 207 261 313 381
#     4  10  21  35  56  84 119 158 204 257 310 370
#     4  10  20  38  62  90 120 162 207 255 319 383
#
# _framework density 19.489122999999999
#
# number of rings (size 3 to 8) (size 9 to 14) (size 15 to 20)
#    0.000    1.615    2.308    2.077    2.154    4.615 
#    0.000    3.077    0.000    2.308    0.000    0.000 
#    0.000    0.000    0.000    0.000    0.000    0.000 
#
# Total GULP energy -289938.616057 kJ/mol
# GULP energy per Si atom -5575.742616 kJ/mol
# Density = 1.944476 g / cm^3
# Si number density = 19.489123 Si / 1000 Ang^3
#
#
#
# Elastic Constant Matrix: (Units=GPa)
#
#
# Indices 1 2 3 4 5 6 
#
# 1 125.2331 65.1045 41.7287 0.0000 0.0000 0.0000
# 2 65.1045 135.7312 49.9646 0.0000 0.0000 0.0000
# 3 41.7287 49.9646 78.5476 0.0000 0.0000 0.0000
# 4 0.0000 0.0000 0.0000 19.7217 0.0000 0.0000
# 5 0.0000 0.0000 0.0000 0.0000 -45.9532 0.0000
# 6 0.0000 0.0000 0.0000 0.0000 0.0000 620.8805
#
#
#
# Elastic Compliance Matrix: (Units=1/GPa)
#
#
# Indices 1 2 3 4 5 6 
#
# 1 0.011266 -0.004179 -0.003327 0.000000 0.000000 0.000000
# 2 -0.004179 0.011171 -0.004885 0.000000 0.000000 0.000000
# 3 -0.003327 -0.004885 0.017606 0.000000 0.000000 0.000000
# 4 0.000000 0.000000 0.000000 0.050706 0.000000 0.000000
# 5 0.000000 0.000000 0.000000 0.000000 -0.021761 0.000000
# 6 0.000000 0.000000 0.000000 0.000000 0.000000 0.001611
#
#
# Mechanical properties :
#
#
# Convention : Reuss Voigt Hill
#
# Bulk Modulus (GPa) = 65.53074 72.56752 69.04913
# Shear Modulus (GPa) = 49.76742 131.11076 90.43909
#
# Velocity S-wave (km/s) = 5.05880 8.21096 6.81950
# Velocity P-wave (km/s) = 8.23524 11.27869 9.87492
#
# Compressibility (1/GPa) = 0.01526001
#
# Stress axis : x y z
#
# Youngs Moduli (GPa) = 88.76016 89.52137 56.79859
#
# Poissons Ratio (x) = 0.37414 0.18896
# Poissons Ratio (y) = 0.37096 0.27748
# Poissons Ratio (z) = 0.29528 0.43734
#
# Static dielectric constant tensor:
#      x y z
#    x 1.550680 0.000000 0.000000 
#    y 0.000000 2.004180 0.000000 
#    z 0.000000 0.000000 1.614840 
# 
# From -- ./inp_files/17078.got.cif
#   From: 2010.05.17/outbox.cif.g08.bks.cpg/sg71_9_cif.got.tgz:17078.got - 2010.06.03 16:22:01.
