data_PCOD9522874
_publ_section_title
;
Structure prediction by ZEFSAII (Michael W. Deem and Ramdas Pophale) SiO2 
 PCOD9522874
Probable space group: I M M M
;
_chemical_formula_sum "Si O2"
_cell_formula_units_Z 68
_cell_length_a 17.186558
_cell_length_b 14.624182
_cell_length_c 14.419718
_cell_angle_alpha 90.000000
_cell_angle_beta 90.000000
_cell_angle_gamma 90.000000
_cell_volume 3624.242580
_symmetry_space_group_name_H-M "I M M M"
_symmetry_group_IT_number 71
_symmetry_cell_setting 'orthorhombic'
loop_
_space_group_symop_operation_xyz
x,y,z
-x,-y,z
x,-y,-z
-x,y,-z
-x,-y,-z
x,y,-z
-x,y,z
x,-y,z
1/2+x,1/2+y,1/2+z
1/2-x,1/2-y,1/2+z
1/2+x,1/2-y,1/2-z
1/2-x,1/2+y,1/2-z
1/2-x,1/2-y,1/2-z
1/2+x,1/2+y,1/2-z
1/2-x,1/2+y,1/2+z
1/2+x,1/2-y,1/2+z
loop_
_atom_site_type_symbol
_atom_site_label
_atom_site_fract_x
_atom_site_fract_y
_atom_site_fract_z
Si Si1 0.500000 0.000000 0.290967
Si Si2 0.139289 0.194169 0.257027
Si Si3 0.500000 0.339172 0.500000
Si Si4 0.500000 0.203073 0.672337
Si Si5 0.721536 0.809705 0.893051
Si Si6 0.338436 0.500000 0.286009
Si Si7 0.334362 0.000000 0.817702
Si Si8 0.375437 0.500000 0.500000
O O1 0.500000 0.095373 0.346847
O O2 0.418500 0.000000 0.232302
O O3 0.075213 0.267670 0.230149
O O4 0.205444 0.195697 0.176795
O O5 0.170959 0.224797 0.356454
O O6 0.116540 0.088724 0.249905
O O7 0.500000 0.271824 0.586401
O O8 0.427541 0.408552 0.500000
O O9 0.676419 0.905306 0.874247
O O10 0.743837 0.804314 0.000000
O O11 0.246622 0.500000 0.255913
O O12 0.334089 0.500000 0.399554
#
# Coordination Sequence:
#
# PCOD9522874 Si02
#       8
#     4  16   4   8  16   8   8   4
#     4  12  24  43  55  84 130 166 206 244 294 362
#     4  10  22  37  59  90 123 157 199 252 311 362
#     4  11  24  35  60  98 126 159 194 241 314 380
#     4  12  23  39  59  86 130 166 192 246 307 374
#     4  10  21  39  61  87 117 162 209 254 297 358
#     4  10  21  36  61  90 115 153 197 256 305 360
#     4  10  21  35  61  86 114 153 206 255 299 340
#     4  11  20  36  62 101 122 142 198 261 314 368
#
# _framework density 18.762540999999999
#
# number of rings (size 3 to 8) (size 9 to 14) (size 15 to 20)
#    0.000    1.529    4.706    0.353    8.235    0.706 
#    0.000    3.529    0.000    0.000    0.000    1.647 
#    0.000    0.000    0.000    0.000    0.000    0.000 
#
# Total GULP energy -189429.069257 kJ/mol
# GULP energy per Si atom -5571.443213 kJ/mol
# Density = 1.871984 g / cm^3
# Si number density = 18.762541 Si / 1000 Ang^3
#
#
#
# Elastic Constant Matrix: (Units=GPa)
#
#
# Indices 1 2 3 4 5 6 
#
# 1 58.9173 19.5149 12.3015 0.0000 0.0000 0.0000
# 2 19.5149 156.6686 30.6794 0.0000 0.0000 0.0000
# 3 12.3015 30.6794 62.4383 0.0000 0.0000 0.0000
# 4 0.0000 0.0000 0.0000 28.8988 0.0000 0.0000
# 5 0.0000 0.0000 0.0000 0.0000 16.6193 0.0000
# 6 0.0000 0.0000 0.0000 0.0000 0.0000 -11.0302
#
#
#
# Elastic Compliance Matrix: (Units=1/GPa)
#
#
# Indices 1 2 3 4 5 6 
#
# 1 0.018112 -0.001723 -0.002722 0.000000 0.000000 0.000000
# 2 -0.001723 0.007226 -0.003211 0.000000 0.000000 0.000000
# 3 -0.002722 -0.003211 0.018130 0.000000 0.000000 0.000000
# 4 0.000000 0.000000 0.000000 0.034603 0.000000 0.000000
# 5 0.000000 0.000000 0.000000 0.000000 0.060171 0.000000
# 6 0.000000 0.000000 0.000000 0.000000 0.000000 -0.090660
#
#
# Mechanical properties :
#
#
# Convention : Reuss Voigt Hill
#
# Bulk Modulus (GPa) = 35.51627 44.77953 40.14790
# Shear Modulus (GPa) = 69.17527 21.26614 45.22070
#
# Velocity S-wave (km/s) = 6.07856 3.37031 4.91466
# Velocity P-wave (km/s) = 8.26048 6.25008 7.32459
#
# Compressibility (1/GPa) = 0.02815611
#
# Stress axis : x y z
#
# Youngs Moduli (GPa) = 55.21215 138.38211 55.15743
#
# Poissons Ratio (x) = 0.23844 0.15012
# Poissons Ratio (y) = 0.09513 0.17712
# Poissons Ratio (z) = 0.15027 0.44438
#
# Static dielectric constant tensor:
#      x y z
#    x 1.718680 0.000000 0.000000 
#    y 0.000000 1.704520 0.000000 
#    z 0.000000 0.000000 1.624660 
# 
# From -- ./inp_files/25391.got.cif
#   From: 2010.05.17/outbox.cif.g08.bks.cpg/sg71_13_cif.got.tgz:25391.got - 2010.06.03 16:22:01.
