data_PCOD9522212
_publ_section_title
;
Structure prediction by ZEFSAII (Michael W. Deem and Ramdas Pophale) SiO2 
 PCOD9522212
Probable space group: I M M M
;
_chemical_formula_sum "Si O2"
_cell_formula_units_Z 104
_cell_length_a 22.257503
_cell_length_b 7.547927
_cell_length_c 28.871053
_cell_angle_alpha 90.000000
_cell_angle_beta 90.000000
_cell_angle_gamma 90.000000
_cell_volume 4850.279388
_symmetry_space_group_name_H-M "I M M M"
_symmetry_group_IT_number 71
_symmetry_cell_setting 'orthorhombic'
loop_
_space_group_symop_operation_xyz
x,y,z
-x,-y,z
x,-y,-z
-x,y,-z
-x,-y,-z
x,y,-z
-x,y,z
x,-y,z
1/2+x,1/2+y,1/2+z
1/2-x,1/2-y,1/2+z
1/2+x,1/2-y,1/2-z
1/2-x,1/2+y,1/2-z
1/2-x,1/2-y,1/2-z
1/2+x,1/2+y,1/2-z
1/2-x,1/2+y,1/2+z
1/2+x,1/2-y,1/2+z
loop_
_atom_site_type_symbol
_atom_site_label
_atom_site_fract_x
_atom_site_fract_y
_atom_site_fract_z
Si Si1 0.678034 0.285377 0.447687
Si Si2 0.934148 0.716521 0.722599
Si Si3 0.740266 0.707484 0.139865
Si Si4 0.651823 0.207775 0.299909
Si Si5 0.072237 0.000000 0.553264
Si Si6 0.893441 0.699814 0.623095
Si Si7 0.068423 0.785579 0.886771
O O1 0.689297 0.224825 0.500000
O O2 0.680552 0.500000 0.447461
O O3 0.724996 0.222076 0.409129
O O4 0.612017 0.233180 0.429015
O O5 0.932358 0.500000 0.723856
O O6 0.879475 0.782743 0.754182
O O7 0.926752 0.766648 0.669230
O O8 0.000000 0.770837 0.740250
O O9 0.729035 0.500000 0.148947
O O10 0.786435 0.780680 0.178610
O O11 0.676752 0.800652 0.136257
O O12 0.601981 0.223470 0.340370
O O13 0.663177 0.000000 0.291772
O O14 0.095758 0.170659 0.580651
O O15 0.091665 0.000000 0.500000
O O16 0.000000 0.000000 0.554856
O O17 0.913500 0.500000 0.612832
O O18 0.000000 0.723168 0.889957
O O19 0.067601 0.000000 0.885454
#
# Coordination Sequence:
#
# PCOD9522212 Si02
#       7
#    16  16  16  16   8  16  16
#     4   9  18  32  50  72 100 142 194 247 305 365
#     4   9  18  34  58  88 120 157 204 253 303 365
#     4  10  20  36  56  83 120 158 201 253 307 363
#     4   9  18  33  55  81 114 158 203 246 298 358
#     4  11  26  48  72 100 132 162 201 257 314 374
#     4  11  23  42  68  96 127 166 204 250 309 370
#     4   9  17  29  45  70 106 144 189 245 300 357
#
# _framework density 21.442064999999999
#
# number of rings (size 3 to 8) (size 9 to 14) (size 15 to 20)
#    0.000    2.385    0.769    1.385    0.000    4.615 
#    1.385    2.308    0.000    0.000    0.000    4.308 
#    0.000    0.000    0.000    0.000    0.000    0.000 
#
# Total GULP energy -290473.705469 kJ/mol
# GULP energy per Si atom -5586.032797 kJ/mol
# Density = 2.139326 g / cm^3
# Si number density = 21.442065 Si / 1000 Ang^3
#
#
#
# Elastic Constant Matrix: (Units=GPa)
#
#
# Indices 1 2 3 4 5 6 
#
# 1 85.9759 4.2455 18.6083 0.0000 0.0000 0.0000
# 2 4.2455 75.2691 27.3731 0.0000 0.0000 0.0000
# 3 18.6083 27.3731 115.3692 0.0000 0.0000 0.0000
# 4 0.0000 0.0000 0.0000 -75.3314 0.0000 0.0000
# 5 0.0000 0.0000 0.0000 0.0000 20.9387 0.0000
# 6 0.0000 0.0000 0.0000 0.0000 0.0000 -134.2353
#
#
#
# Elastic Compliance Matrix: (Units=1/GPa)
#
#
# Indices 1 2 3 4 5 6 
#
# 1 0.012052 0.000030 -0.001951 0.000000 0.000000 0.000000
# 2 0.000030 0.014540 -0.003455 0.000000 0.000000 0.000000
# 3 -0.001951 -0.003455 0.009802 0.000000 0.000000 0.000000
# 4 0.000000 0.000000 0.000000 -0.013275 0.000000 0.000000
# 5 0.000000 0.000000 0.000000 0.000000 0.047758 0.000000
# 6 0.000000 0.000000 0.000000 0.000000 0.000000 -0.007450
#
#
# Mechanical properties :
#
#
# Convention : Reuss Voigt Hill
#
# Bulk Modulus (GPa) = 38.99759 41.89644 40.44702
# Shear Modulus (GPa) = 60.43900 -22.63311 18.90294
#
# Velocity S-wave (km/s) = 5.31491 -3.25244 2.97237
# Velocity P-wave (km/s) = 7.47605 2.34036 5.53934
#
# Compressibility (1/GPa) = 0.02564261
#
# Stress axis : x y z
#
# Youngs Moduli (GPa) = 82.97412 68.77404 102.01808
#
# Poissons Ratio (x) = -0.00204 0.19903
# Poissons Ratio (y) = -0.00247 0.35244
# Poissons Ratio (z) = 0.16188 0.23760
#
# Static dielectric constant tensor:
#      x y z
#    x 1.768990 0.000000 0.000000 
#    y 0.000000 0.359380 0.000000 
#    z 0.000000 0.000000 1.749810 
# 
# From -- ./inp_files/66440.got.cif
#   From: 2010.05.17/outbox.cif.g08.bks.cpg/sg71_34_cif.got.tgz:66440.got - 2010.06.03 16:22:01.
