data_PCOD9522701
_publ_section_title
;
Structure prediction by ZEFSAII (Michael W. Deem and Ramdas Pophale) SiO2 
 PCOD9522701
Probable space group: I M M M
;
_chemical_formula_sum "Si O2"
_cell_formula_units_Z 92
_cell_length_a 22.476488
_cell_length_b 30.030576
_cell_length_c 7.914061
_cell_angle_alpha 90.000000
_cell_angle_beta 90.000000
_cell_angle_gamma 90.000000
_cell_volume 5341.847781
_symmetry_space_group_name_H-M "I M M M"
_symmetry_group_IT_number 71
_symmetry_cell_setting 'orthorhombic'
loop_
_space_group_symop_operation_xyz
x,y,z
-x,-y,z
x,-y,-z
-x,y,-z
-x,-y,-z
x,y,-z
-x,y,z
x,-y,z
1/2+x,1/2+y,1/2+z
1/2-x,1/2-y,1/2+z
1/2+x,1/2-y,1/2-z
1/2-x,1/2+y,1/2-z
1/2-x,1/2-y,1/2-z
1/2+x,1/2+y,1/2-z
1/2-x,1/2+y,1/2+z
1/2+x,1/2-y,1/2+z
loop_
_atom_site_type_symbol
_atom_site_label
_atom_site_fract_x
_atom_site_fract_y
_atom_site_fract_z
Si Si1 0.715996 0.205505 0.193688
Si Si2 0.314700 0.361728 0.198491
Si Si3 0.584736 0.793771 0.306416
Si Si4 0.000000 0.679623 0.500000
Si Si5 0.566162 0.687649 0.299158
Si Si6 0.630747 0.550177 0.799256
Si Si7 0.000000 0.945970 0.808137
O O1 0.750000 0.250000 0.250000
O O2 0.762736 0.165582 0.213431
O O3 0.655427 0.199057 0.295033
O O4 0.698625 0.211284 0.000000
O O5 0.377439 0.335893 0.216826
O O6 0.326426 0.411393 0.267725
O O7 0.300232 0.364049 0.000000
O O8 0.566267 0.804352 0.500000
O O9 0.572316 0.740921 0.278726
O O10 0.551219 0.817805 0.152702
O O11 0.568974 0.678488 0.500000
O O12 0.500000 0.674302 0.237872
O O13 0.637197 0.500000 0.728782
O O14 0.562609 0.565984 0.773691
O O15 0.640191 0.547530 0.000000
O O16 0.000000 0.000000 0.807177
O O17 0.000000 0.929842 0.000000
#
# Coordination Sequence:
#
# PCOD9522701 Si02
#       7
#    16  16  16   4  16  16   8
#     4  12  23  37  54  75 105 142 181 221 271 324
#     4  11  23  34  51  74  97 133 179 224 272 321
#     4  11  22  37  55  79 107 140 181 228 267 322
#     4  12  22  36  58  82 104 144 184 218 284 312
#     4  10  21  34  47  67  98 134 174 224 272 311
#     4   9  19  36  52  68  94 129 170 218 272 326
#     4   9  17  29  48  71  93 121 164 218 276 324
#
# _framework density 17.222505000000002
#
# number of rings (size 3 to 8) (size 9 to 14) (size 15 to 20)
#    0.000    1.478    3.478    2.609    2.435    2.783 
#    0.000    0.000    0.000    0.000    0.000    0.000 
#    0.000    0.000    0.000    1.565    0.000   13.304 
#
# Total GULP energy -256272.296751 kJ/mol
# GULP energy per Si atom -5571.136886 kJ/mol
# Density = 1.718331 g / cm^3
# Si number density = 17.222505 Si / 1000 Ang^3
#
#
#
# Elastic Constant Matrix: (Units=GPa)
#
#
# Indices 1 2 3 4 5 6 
#
# 1 115.8315 31.0308 17.2737 0.0000 0.0000 0.0000
# 2 31.0308 57.7728 6.4759 0.0000 0.0000 0.0000
# 3 17.2737 6.4759 71.7145 0.0000 0.0000 0.0000
# 4 0.0000 0.0000 0.0000 10.3264 0.0000 0.0000
# 5 0.0000 0.0000 0.0000 0.0000 27.5334 0.0000
# 6 0.0000 0.0000 0.0000 0.0000 0.0000-3047.9428
#
#
#
# Elastic Compliance Matrix: (Units=1/GPa)
#
#
# Indices 1 2 3 4 5 6 
#
# 1 0.010364 -0.005341 -0.002014 0.000000 0.000000 0.000000
# 2 -0.005341 0.020239 -0.000541 0.000000 0.000000 0.000000
# 3 -0.002014 -0.000541 0.014478 0.000000 0.000000 0.000000
# 4 0.000000 0.000000 0.000000 0.096839 0.000000 0.000000
# 5 0.000000 0.000000 0.000000 0.000000 0.036320 0.000000
# 6 0.000000 0.000000 0.000000 0.000000 0.000000 -0.000328
#
#
# Mechanical properties :
#
#
# Convention : Reuss Voigt Hill
#
# Bulk Modulus (GPa) = 34.14304 39.43108 36.78706
# Shear Modulus (GPa) = 24.57392 -589.31405 -282.37007
#
# Velocity S-wave (km/s) = 3.78146 -18.51809 -12.81835
# Velocity P-wave (km/s) = 6.23968 20.83942 14.05965
#
# Compressibility (1/GPa) = 0.02928855
#
# Stress axis : x y z
#
# Youngs Moduli (GPa) = 96.48346 49.41041 69.06941
#
# Poissons Ratio (x) = 0.26391 0.13912
# Poissons Ratio (y) = 0.51533 0.03737
# Poissons Ratio (z) = 0.19433 0.02673
#
# Static dielectric constant tensor:
#      x y z
#    x 1.614580 0.000000 0.000000 
#    y 0.000000 1.608230 0.000000 
#    z 0.000000 0.000000 1.632170 
# 
# From -- ./inp_files/11013.got.cif
#   From: 2010.05.17/outbox.cif.g08.bks.cpg/sg71_6_cif.got.tgz:11013.got - 2010.06.03 16:22:01.
