data_PCOD9522270
_publ_section_title
;
Structure prediction by ZEFSAII (Michael W. Deem and Ramdas Pophale) SiO2 
 PCOD9522270
Probable space group: I M M M
;
_chemical_formula_sum "Si O2"
_cell_formula_units_Z 72
_cell_length_a 15.952847
_cell_length_b 14.548427
_cell_length_c 16.846082
_cell_angle_alpha 90.000000
_cell_angle_beta 90.000000
_cell_angle_gamma 90.000000
_cell_volume 3909.787462
_symmetry_space_group_name_H-M "I M M M"
_symmetry_group_IT_number 71
_symmetry_cell_setting 'orthorhombic'
loop_
_space_group_symop_operation_xyz
x,y,z
-x,-y,z
x,-y,-z
-x,y,-z
-x,-y,-z
x,y,-z
-x,y,z
x,-y,z
1/2+x,1/2+y,1/2+z
1/2-x,1/2-y,1/2+z
1/2+x,1/2-y,1/2-z
1/2-x,1/2+y,1/2-z
1/2-x,1/2-y,1/2-z
1/2+x,1/2+y,1/2-z
1/2-x,1/2+y,1/2+z
1/2+x,1/2-y,1/2+z
loop_
_atom_site_type_symbol
_atom_site_label
_atom_site_fract_x
_atom_site_fract_y
_atom_site_fract_z
Si Si1 0.601825 0.603883 0.000000
Si Si2 0.595800 0.252125 0.132388
Si Si3 0.239540 0.607107 0.593868
Si Si4 0.101370 0.605382 0.091936
Si Si5 0.336094 0.732555 0.296950
O O1 0.625464 0.663491 0.922969
O O2 0.634918 0.500000 0.000000
O O3 0.500000 0.598344 0.000000
O O4 0.500000 0.229716 0.110556
O O5 0.657296 0.166866 0.115700
O O6 0.599827 0.279707 0.224745
O O7 0.254862 0.617642 0.500000
O O8 0.226649 0.500000 0.611594
O O9 0.316238 0.648694 0.644452
O O10 0.124653 0.500000 0.111594
O O11 0.140285 0.679525 0.150422
O O12 0.000000 0.611281 0.096336
O O13 0.125234 0.622742 0.000000
O O14 0.250000 0.750000 0.250000
#
# Coordination Sequence:
#
# PCOD9522270 Si02
#       5
#     8  16  16  16  16
#     4   9  18  34  55  77 105 139 177 226 280 331
#     4  10  20  36  58  83 110 142 186 238 287 330
#     4  10  21  37  56  78 112 153 189 225 269 327
#     4   9  18  35  61  89 113 141 182 235 291 337
#     4  10  21  34  52  78 117 150 183 220 275 333
#
# _framework density 18.415323999999998
#
# number of rings (size 3 to 8) (size 9 to 14) (size 15 to 20)
#    0.000    2.333    1.111    2.000    0.000    4.889 
#    0.000    4.444    0.000    2.000    0.000    7.778 
#    0.000    0.000    0.000    0.000    0.000    0.000 
#
# Total GULP energy -200764.222359 kJ/mol
# GULP energy per Si atom -5576.783954 kJ/mol
# Density = 1.837341 g / cm^3
# Si number density = 18.415324 Si / 1000 Ang^3
#
#
#
# Elastic Constant Matrix: (Units=GPa)
#
#
# Indices 1 2 3 4 5 6 
#
# 1 28.7618 38.3508 37.7779 0.0000 0.0000 0.0000
# 2 38.3508 169.6460 103.5858 0.0000 0.0000 0.0000
# 3 37.7779 103.5858 134.2891 0.0000 0.0000 0.0000
# 4 0.0000 0.0000 0.0000 6.3759 0.0000 0.0000
# 5 0.0000 0.0000 0.0000 0.0000 13.2879 0.0000
# 6 0.0000 0.0000 0.0000 0.0000 0.0000 32.3856
#
#
#
# Elastic Compliance Matrix: (Units=1/GPa)
#
#
# Indices 1 2 3 4 5 6 
#
# 1 0.058177 -0.005971 -0.011761 0.000000 0.000000 0.000000
# 2 -0.005971 0.011756 -0.007388 0.000000 0.000000 0.000000
# 3 -0.011761 -0.007388 0.016454 0.000000 0.000000 0.000000
# 4 0.000000 0.000000 0.000000 0.156841 0.000000 0.000000
# 5 0.000000 0.000000 0.000000 0.000000 0.075256 0.000000
# 6 0.000000 0.000000 0.000000 0.000000 0.000000 0.030878
#
#
# Mechanical properties :
#
#
# Convention : Reuss Voigt Hill
#
# Bulk Modulus (GPa) = 27.66435 76.90288 52.28361
# Shear Modulus (GPa) = 12.14624 20.60870 16.37747
#
# Velocity S-wave (km/s) = 2.57100 3.34893 2.98541
# Velocity P-wave (km/s) = 4.88554 7.53689 6.35111
#
# Compressibility (1/GPa) = 0.03614761
#
# Stress axis : x y z
#
# Youngs Moduli (GPa) = 17.18896 85.06570 60.77511
#
# Poissons Ratio (x) = 0.50790 0.71475
# Poissons Ratio (y) = 0.10263 0.44902
# Poissons Ratio (z) = 0.20215 0.62848
#
# Static dielectric constant tensor:
#      x y z
#    x 1.639940 0.000000 0.000000 
#    y 0.000000 1.605540 0.000000 
#    z 0.000000 0.000000 1.655330 
# 
# From -- ./inp_files/34067.got.cif
#   From: 2010.05.17/outbox.cif.g08.bks.cpg/sg71_18_cif.got.tgz:34067.got - 2010.06.03 16:22:01.
