data_PCOD9522064
_publ_section_title
;
Structure prediction by ZEFSAII (Michael W. Deem and Ramdas Pophale) SiO2 
 PCOD9522064
Probable space group: I M M M
;
_chemical_formula_sum "Si O2"
_cell_formula_units_Z 80
_cell_length_a 15.260913
_cell_length_b 24.041879
_cell_length_c 12.183278
_cell_angle_alpha 90.000000
_cell_angle_beta 90.000000
_cell_angle_gamma 90.000000
_cell_volume 4470.057171
_symmetry_space_group_name_H-M "I M M M"
_symmetry_group_IT_number 71
_symmetry_cell_setting 'orthorhombic'
loop_
_space_group_symop_operation_xyz
x,y,z
-x,-y,z
x,-y,-z
-x,y,-z
-x,-y,-z
x,y,-z
-x,y,z
x,-y,z
1/2+x,1/2+y,1/2+z
1/2-x,1/2-y,1/2+z
1/2+x,1/2-y,1/2-z
1/2-x,1/2+y,1/2-z
1/2-x,1/2-y,1/2-z
1/2+x,1/2+y,1/2-z
1/2-x,1/2+y,1/2+z
1/2+x,1/2-y,1/2+z
loop_
_atom_site_type_symbol
_atom_site_label
_atom_site_fract_x
_atom_site_fract_y
_atom_site_fract_z
Si Si1 0.500000 0.063565 0.132856
Si Si2 0.103236 0.933646 0.500000
Si Si3 0.327686 0.132715 0.873814
Si Si4 0.000000 0.883690 0.124240
Si Si5 0.000000 0.251066 0.877843
Si Si6 0.157446 0.123936 0.281216
Si Si7 0.650333 0.248574 0.211262
O O1 0.588621 0.096392 0.161842
O O2 0.500000 0.000000 0.172917
O O3 0.500000 0.062161 0.000000
O O4 0.151457 0.911552 0.608786
O O5 0.000000 0.915334 0.500000
O O6 0.103229 0.000000 0.500000
O O7 0.248244 0.125474 0.787289
O O8 0.355470 0.197825 0.872664
O O9 0.302236 0.118297 0.000000
O O10 0.000000 0.816205 0.115831
O O11 0.085125 0.897858 0.195076
O O12 0.000000 0.905587 0.000000
O O13 0.085809 0.266902 0.810466
O O14 0.000000 0.273797 0.000000
O O15 0.131288 0.187288 0.317401
O O16 0.750000 0.250000 0.250000
#
# Coordination Sequence:
#
# PCOD9522064 Si02
#       7
#     8   8  16   8   8  16  16
#     4   9  19  36  56  79 108 144 185 235 287 331
#     4  11  24  42  60  79 113 159 201 238 276 342
#     4  10  20  35  57  87 117 149 189 242 291 343
#     4   9  16  30  54  81 110 144 185 236 289 353
#     4   9  17  31  49  73 112 158 194 226 283 346
#     4  10  20  36  56  84 114 155 194 231 290 349
#     4   9  19  32  51  85 118 147 189 234 291 349
#
# _framework density 17.896863
#
# number of rings (size 3 to 8) (size 9 to 14) (size 15 to 20)
#    0.000    2.400    1.000    1.200    1.400    5.600 
#    5.400    0.000    0.000    2.400    0.000    1.400 
#    0.000    0.000    0.000    0.000    0.000    0.000 
#
# Total GULP energy -222775.717234 kJ/mol
# GULP energy per Si atom -5569.392931 kJ/mol
# Density = 1.785613 g / cm^3
# Si number density = 17.896863 Si / 1000 Ang^3
#
#
#
# Elastic Constant Matrix: (Units=GPa)
#
#
# Indices 1 2 3 4 5 6 
#
# 1 125.2050 38.1299 65.3668 0.0000 0.0000 0.0000
# 2 38.1299 79.3728 38.4683 0.0000 0.0000 0.0000
# 3 65.3668 38.4683 130.4421 0.0000 0.0000 0.0000
# 4 0.0000 0.0000 0.0000 14.4712 0.0000 0.0000
# 5 0.0000 0.0000 0.0000 0.0000 20.5239 0.0000
# 6 0.0000 0.0000 0.0000 0.0000 0.0000 18.9016
#
#
#
# Elastic Compliance Matrix: (Units=1/GPa)
#
#
# Indices 1 2 3 4 5 6 
#
# 1 0.011465 -0.003177 -0.004808 0.000000 0.000000 0.000000
# 2 -0.003177 0.015580 -0.003003 0.000000 0.000000 0.000000
# 3 -0.004808 -0.003003 0.010961 0.000000 0.000000 0.000000
# 4 0.000000 0.000000 0.000000 0.069103 0.000000 0.000000
# 5 0.000000 0.000000 0.000000 0.000000 0.048724 0.000000
# 6 0.000000 0.000000 0.000000 0.000000 0.000000 0.052906
#
#
# Mechanical properties :
#
#
# Convention : Reuss Voigt Hill
#
# Bulk Modulus (GPa) = 62.38217 68.77221 65.57719
# Shear Modulus (GPa) = 21.18126 23.64967 22.41547
#
# Velocity S-wave (km/s) = 3.44396 3.63911 3.54288
# Velocity P-wave (km/s) = 7.12367 7.49452 7.31145
#
# Compressibility (1/GPa) = 0.01603022
#
# Stress axis : x y z
#
# Youngs Moduli (GPa) = 87.22383 64.18369 91.23103
#
# Poissons Ratio (x) = 0.20393 0.43866
# Poissons Ratio (y) = 0.27713 0.27393
# Poissons Ratio (z) = 0.41939 0.19272
#
# Static dielectric constant tensor:
#      x y z
#    x 1.611730 0.000000 0.000000 
#    y 0.000000 1.633520 0.000000 
#    z 0.000000 0.000000 1.615090 
# 
# From -- ./inp_files/21966.got.cif
#   From: 2010.05.17/outbox.cif.g08.bks.cpg/sg71_11_cif.got.tgz:21966.got - 2010.06.03 16:22:01.
