data_PCOD9522260
_publ_section_title
;
Structure prediction by ZEFSAII (Michael W. Deem and Ramdas Pophale) SiO2 
 PCOD9522260
Probable space group: I M M M
;
_chemical_formula_sum "Si O2"
_cell_formula_units_Z 104
_cell_length_a 8.659420
_cell_length_b 20.770107
_cell_length_c 32.415433
_cell_angle_alpha 90.000000
_cell_angle_beta 90.000000
_cell_angle_gamma 90.000000
_cell_volume 5830.145125
_symmetry_space_group_name_H-M "I M M M"
_symmetry_group_IT_number 71
_symmetry_cell_setting 'orthorhombic'
loop_
_space_group_symop_operation_xyz
x,y,z
-x,-y,z
x,-y,-z
-x,y,-z
-x,-y,-z
x,y,-z
-x,y,z
x,-y,z
1/2+x,1/2+y,1/2+z
1/2-x,1/2-y,1/2+z
1/2+x,1/2-y,1/2-z
1/2-x,1/2+y,1/2-z
1/2-x,1/2-y,1/2-z
1/2+x,1/2+y,1/2-z
1/2-x,1/2+y,1/2+z
1/2+x,1/2-y,1/2+z
loop_
_atom_site_type_symbol
_atom_site_label
_atom_site_fract_x
_atom_site_fract_y
_atom_site_fract_z
Si Si1 0.815798 0.735884 0.454147
Si Si2 0.681792 0.866266 0.574742
Si Si3 0.815156 0.573238 0.676565
Si Si4 0.814764 0.573601 0.774374
Si Si5 0.674930 0.500000 0.049107
Si Si6 0.816628 0.172931 0.661509
Si Si7 0.317370 0.696626 0.366555
O O1 0.768396 0.713042 0.500000
O O2 0.772112 0.811133 0.450132
O O3 0.737769 0.704171 0.414048
O O4 0.000000 0.728656 0.450497
O O5 0.500000 0.857515 0.568588
O O6 0.726911 0.855819 0.622257
O O7 0.735863 0.936505 0.562356
O O8 0.773575 0.500000 0.664811
O O9 0.784745 0.580082 0.725529
O O10 0.728391 0.627570 0.651187
O O11 0.000000 0.580542 0.670854
O O12 0.770066 0.500000 0.786670
O O13 0.731463 0.629556 0.799729
O O14 0.000000 0.578855 0.780507
O O15 0.500000 0.500000 0.066113
O O16 0.665664 0.500000 0.000000
O O17 0.765631 0.247695 0.660613
O O18 0.000000 0.169594 0.655030
O O19 0.000000 0.792653 0.135243
#
# Coordination Sequence:
#
# PCOD9522260 Si02
#       7
#    16  16  16  16   8  16  16
#     4  10  20  36  58  81 107 140 178 221 269 325
#     4  11  22  35  52  74 103 139 179 227 277 326
#     4   9  19  38  62  85 111 145 180 219 271 332
#     4   9  19  36  57  80 109 145 187 231 276 327
#     4  11  23  37  51  69  97 135 181 229 277 329
#     4  11  22  36  54  77 109 146 187 231 274 324
#     4  11  22  36  57  84 114 145 181 226 272 323
#
# _framework density 17.83832
#
# number of rings (size 3 to 8) (size 9 to 14) (size 15 to 20)
#    0.000    1.769    0.000    8.077    1.077    5.538 
#    0.000    1.538    0.000    0.462    0.000    3.231 
#    0.000    0.000    0.000    0.000    0.000    0.000 
#
# Total GULP energy -290355.133775 kJ/mol
# GULP energy per Si atom -5583.752573 kJ/mol
# Density = 1.779772 g / cm^3
# Si number density = 17.838320 Si / 1000 Ang^3
#
#
#
# Elastic Constant Matrix: (Units=GPa)
#
#
# Indices 1 2 3 4 5 6 
#
# 1 45.1513 17.5399 14.5097 0.0000 0.0000 0.0000
# 2 17.5399 96.3489 45.0918 0.0000 0.0000 0.0000
# 3 14.5097 45.0918 54.5423 0.0000 0.0000 0.0000
# 4 0.0000 0.0000 0.0000 10.3296 0.0000 0.0000
# 5 0.0000 0.0000 0.0000 0.0000 19.4590 0.0000
# 6 0.0000 0.0000 0.0000 0.0000 0.0000 25.2687
#
#
#
# Elastic Compliance Matrix: (Units=1/GPa)
#
#
# Indices 1 2 3 4 5 6 
#
# 1 0.024527 -0.002302 -0.004622 0.000000 0.000000 0.000000
# 2 -0.002302 0.017145 -0.013562 0.000000 0.000000 0.000000
# 3 -0.004622 -0.013562 0.030776 0.000000 0.000000 0.000000
# 4 0.000000 0.000000 0.000000 0.096809 0.000000 0.000000
# 5 0.000000 0.000000 0.000000 0.000000 0.051390 0.000000
# 6 0.000000 0.000000 0.000000 0.000000 0.000000 0.039575
#
#
# Mechanical properties :
#
#
# Convention : Reuss Voigt Hill
#
# Bulk Modulus (GPa) = 31.76936 38.92502 35.34719
# Shear Modulus (GPa) = 16.04180 18.93821 17.49001
#
# Velocity S-wave (km/s) = 3.00207 3.26185 3.13465
# Velocity P-wave (km/s) = 5.46487 6.00455 5.74105
#
# Compressibility (1/GPa) = 0.03147687
#
# Stress axis : x y z
#
# Youngs Moduli (GPa) = 40.77091 58.32579 32.49298
#
# Poissons Ratio (x) = 0.13427 0.15017
# Poissons Ratio (y) = 0.09386 0.44067
# Poissons Ratio (z) = 0.18843 0.79101
#
# Static dielectric constant tensor:
#      x y z
#    x 1.602460 0.000000 0.000000 
#    y 0.000000 1.583550 0.000000 
#    z 0.000000 0.000000 1.613520 
# 
# From -- ./inp_files/68248.got.cif
#   From: 2010.05.17/outbox.cif.g08.bks.cpg/sg71_35_cif.got.tgz:68248.got - 2010.06.03 16:22:01.
