data_PCOD9522612
_publ_section_title
;
Structure prediction by ZEFSAII (Michael W. Deem and Ramdas Pophale) SiO2 
 PCOD9522612
Probable space group: I M M M
;
_chemical_formula_sum "Si O2"
_cell_formula_units_Z 88
_cell_length_a 18.315259
_cell_length_b 22.268061
_cell_length_c 11.523880
_cell_angle_alpha 90.000000
_cell_angle_beta 90.000000
_cell_angle_gamma 90.000000
_cell_volume 4699.960349
_symmetry_space_group_name_H-M "I M M M"
_symmetry_group_IT_number 71
_symmetry_cell_setting 'orthorhombic'
loop_
_space_group_symop_operation_xyz
x,y,z
-x,-y,z
x,-y,-z
-x,y,-z
-x,-y,-z
x,y,-z
-x,y,z
x,-y,z
1/2+x,1/2+y,1/2+z
1/2-x,1/2-y,1/2+z
1/2+x,1/2-y,1/2-z
1/2-x,1/2+y,1/2-z
1/2-x,1/2-y,1/2-z
1/2+x,1/2+y,1/2-z
1/2-x,1/2+y,1/2+z
1/2+x,1/2-y,1/2+z
loop_
_atom_site_type_symbol
_atom_site_label
_atom_site_fract_x
_atom_site_fract_y
_atom_site_fract_z
Si Si1 0.588619 0.432371 0.500000
Si Si2 0.412708 0.360892 0.268487
Si Si3 0.412231 0.770978 0.362200
Si Si4 0.411461 0.926979 0.000000
Si Si5 0.796334 0.071888 0.634831
Si Si6 0.652236 0.111932 0.243567
Si Si7 0.413992 0.000000 0.373447
O O1 0.616914 0.500000 0.500000
O O2 0.500000 0.434233 0.500000
O O3 0.609104 0.397706 0.616027
O O4 0.500000 0.365942 0.253145
O O5 0.395944 0.291697 0.297794
O O6 0.369483 0.391512 0.164134
O O7 0.394041 0.767609 0.500000
O O8 0.500000 0.780608 0.355858
O O9 0.371643 0.824982 0.298097
O O10 0.372808 0.897395 0.111534
O O11 0.500000 0.917133 0.000000
O O12 0.401046 0.000000 0.000000
O O13 0.775150 0.081359 0.500000
O O14 0.735516 0.097411 0.722861
O O15 0.804924 0.000000 0.652257
O O16 0.608991 0.059397 0.308970
O O17 0.500000 0.000000 0.382546
O O18 0.378957 0.000000 0.500000
#
# Coordination Sequence:
#
# PCOD9522612 Si02
#       7
#     8  16  16   8  16  16   8
#     4   9  16  31  59  91 119 147 192 257 319 371
#     4  10  21  39  62  91 123 164 216 266 319 379
#     4  10  20  38  64  93 126 163 206 259 313 377
#     4  11  22  39  61  89 130 169 207 262 317 370
#     4  11  24  42  63  89 126 167 211 269 323 372
#     4  12  23  39  61  91 126 167 207 253 315 383
#     4  11  20  33  59  91 120 157 207 252 293 356
#
# _framework density 18.723562000000001
#
# number of rings (size 3 to 8) (size 9 to 14) (size 15 to 20)
#    0.000    1.364    2.727    3.818    0.000    4.364 
#    1.636    2.727    0.000    0.000    0.000    0.000 
#    0.000    0.000    0.000    0.000    0.000    0.000 
#
# Total GULP energy -245666.409437 kJ/mol
# GULP energy per Si atom -5583.327487 kJ/mol
# Density = 1.868095 g / cm^3
# Si number density = 18.723562 Si / 1000 Ang^3
#
#
#
# Elastic Constant Matrix: (Units=GPa)
#
#
# Indices 1 2 3 4 5 6 
#
# 1 72.5042 54.4016 45.7970 0.0000 0.0000 0.0000
# 2 54.4016 146.1420 49.1592 0.0000 0.0000 0.0000
# 3 45.7970 49.1592 122.0671 0.0000 0.0000 0.0000
# 4 0.0000 0.0000 0.0000 35.3104 0.0000 0.0000
# 5 0.0000 0.0000 0.0000 0.0000 29.1803 0.0000
# 6 0.0000 0.0000 0.0000 0.0000 0.0000 30.1107
#
#
#
# Elastic Compliance Matrix: (Units=1/GPa)
#
#
# Indices 1 2 3 4 5 6 
#
# 1 0.022179 -0.006312 -0.005779 0.000000 0.000000 0.000000
# 2 -0.006312 0.009711 -0.001543 0.000000 0.000000 0.000000
# 3 -0.005779 -0.001543 0.010982 0.000000 0.000000 0.000000
# 4 0.000000 0.000000 0.000000 0.028320 0.000000 0.000000
# 5 0.000000 0.000000 0.000000 0.000000 0.034270 0.000000
# 6 0.000000 0.000000 0.000000 0.000000 0.000000 0.033211
#
#
# Mechanical properties :
#
#
# Convention : Reuss Voigt Hill
#
# Bulk Modulus (GPa) = 64.08632 71.04767 67.56699
# Shear Modulus (GPa) = 29.21560 31.67732 30.44646
#
# Velocity S-wave (km/s) = 3.95443 4.11766 4.03687
# Velocity P-wave (km/s) = 7.42644 7.78684 7.60877
#
# Compressibility (1/GPa) = 0.01560395
#
# Stress axis : x y z
#
# Youngs Moduli (GPa) = 45.08831 102.97260 91.06086
#
# Poissons Ratio (x) = 0.64998 0.52624
# Poissons Ratio (y) = 0.28460 0.14049
# Poissons Ratio (z) = 0.26056 0.15886
#
# Static dielectric constant tensor:
#      x y z
#    x 1.683290 0.000000 0.000000 
#    y 0.000000 1.618430 0.000000 
#    z 0.000000 0.000000 1.714950 
# 
# From -- ./inp_files/23984.got.cif
#   From: 2010.05.17/outbox.cif.g08.bks.cpg/sg71_12_cif.got.tgz:23984.got - 2010.06.03 16:22:01.
