data_PCOD9522046
_publ_section_title
;
Structure prediction by ZEFSAII (Michael W. Deem and Ramdas Pophale) SiO2 
 PCOD9522046
Probable space group: I M M M
;
_chemical_formula_sum "Si O2"
_cell_formula_units_Z 66
_cell_length_a 31.492884
_cell_length_b 9.316363
_cell_length_c 11.911594
_cell_angle_alpha 90.000000
_cell_angle_beta 90.000000
_cell_angle_gamma 90.000000
_cell_volume 3494.851427
_symmetry_space_group_name_H-M "I M M M"
_symmetry_group_IT_number 71
_symmetry_cell_setting 'orthorhombic'
loop_
_space_group_symop_operation_xyz
x,y,z
-x,-y,z
x,-y,-z
-x,y,-z
-x,-y,-z
x,y,-z
-x,y,z
x,-y,z
1/2+x,1/2+y,1/2+z
1/2-x,1/2-y,1/2+z
1/2+x,1/2-y,1/2-z
1/2-x,1/2+y,1/2-z
1/2-x,1/2-y,1/2-z
1/2+x,1/2+y,1/2-z
1/2-x,1/2+y,1/2+z
1/2+x,1/2-y,1/2+z
loop_
_atom_site_type_symbol
_atom_site_label
_atom_site_fract_x
_atom_site_fract_y
_atom_site_fract_z
Si Si1 0.000000 0.500000 0.000000
Si Si2 0.064117 0.769006 0.000000
Si Si3 0.546115 0.336175 0.751910
Si Si4 0.631540 0.329853 0.133770
Si Si5 0.794901 0.327723 0.764211
Si Si6 0.159932 0.670380 0.000000
O O1 0.037204 0.376418 0.000000
O O2 0.052039 0.840239 0.882041
O O3 0.114710 0.747803 0.000000
O O4 0.500000 0.267343 0.775893
O O5 0.544433 0.500000 0.793919
O O6 0.588266 0.273070 0.807875
O O7 0.637021 0.500000 0.163074
O O8 0.671206 0.239937 0.178485
O O9 0.627695 0.320298 0.000000
O O10 0.791159 0.500000 0.750692
O O11 0.750000 0.250000 0.750000
O O12 0.813520 0.297562 0.888332
O O13 0.151099 0.500000 0.000000
#
# Coordination Sequence:
#
# PCOD9522046 Si02
#       6
#     2   8  16  16  16   8
#     4  12  24  28  62  88 130 164 196 238 308 382
#     4  12  19  35  54  90 120 156 199 239 298 361
#     4  10  20  35  57  85 118 155 197 247 295 348
#     4  10  22  40  61  87 121 161 203 250 302 357
#     4  11  24  43  65  90 120 156 200 251 308 366
#     4  10  22  39  62  87 121 155 194 247 305 360
#
# _framework density 18.884923000000001
#
# number of rings (size 3 to 8) (size 9 to 14) (size 15 to 20)
#    0.000    1.455    4.242    1.091    1.697    1.939 
#    0.000    4.242    0.000    0.000    0.000    2.545 
#    0.000    0.000    0.000    0.000    0.000    0.000 
#
# Total GULP energy -183860.464403 kJ/mol
# GULP energy per Si atom -5571.529224 kJ/mol
# Density = 1.884194 g / cm^3
# Si number density = 18.884923 Si / 1000 Ang^3
#
#
#
# Elastic Constant Matrix: (Units=GPa)
#
#
# Indices 1 2 3 4 5 6 
#
# 1 210.1986 58.4318 50.0524 0.0000 0.0000 0.0000
# 2 58.4318 69.2662 26.5697 0.0000 0.0000 0.0000
# 3 50.0524 26.5697 72.9100 0.0000 0.0000 0.0000
# 4 0.0000 0.0000 0.0000 23.0969 0.0000 0.0000
# 5 0.0000 0.0000 0.0000 0.0000 7.0247 0.0000
# 6 0.0000 0.0000 0.0000 0.0000 0.0000 28.0437
#
#
#
# Elastic Compliance Matrix: (Units=1/GPa)
#
#
# Indices 1 2 3 4 5 6 
#
# 1 0.006724 -0.004535 -0.002963 0.000000 0.000000 0.000000
# 2 -0.004535 0.019842 -0.004117 0.000000 0.000000 0.000000
# 3 -0.002963 -0.004117 0.017250 0.000000 0.000000 0.000000
# 4 0.000000 0.000000 0.000000 0.043296 0.000000 0.000000
# 5 0.000000 0.000000 0.000000 0.000000 0.142355 0.000000
# 6 0.000000 0.000000 0.000000 0.000000 0.000000 0.035659
#
#
# Mechanical properties :
#
#
# Convention : Reuss Voigt Hill
#
# Bulk Modulus (GPa) = 48.58001 69.16473 58.87237
# Shear Modulus (GPa) = 16.93656 26.12111 21.52883
#
# Velocity S-wave (km/s) = 2.99796 3.72314 3.38005
# Velocity P-wave (km/s) = 6.14522 7.42874 6.81725
#
# Compressibility (1/GPa) = 0.02058460
#
# Stress axis : x y z
#
# Youngs Moduli (GPa) = 148.72676 50.39702 57.97070
#
# Poissons Ratio (x) = 0.22857 0.17177
# Poissons Ratio (y) = 0.67454 0.23869
# Poissons Ratio (z) = 0.44068 0.20750
#
# Static dielectric constant tensor:
#      x y z
#    x 1.668780 0.000000 0.000000 
#    y 0.000000 1.654230 0.000000 
#    z 0.000000 0.000000 1.640900 
# 
# From -- ./inp_files/16210.got.cif
#   From: 2010.05.17/outbox.cif.g08.bks.cpg/sg71_9_cif.got.tgz:16210.got - 2010.06.03 16:22:01.
