data_PCOD9522724
_publ_section_title
;
Structure prediction by ZEFSAII (Michael W. Deem and Ramdas Pophale) SiO2 
 PCOD9522724
Probable space group: I M M M
;
_chemical_formula_sum "Si O2"
_cell_formula_units_Z 104
_cell_length_a 7.533440
_cell_length_b 22.502982
_cell_length_c 29.541027
_cell_angle_alpha 90.000000
_cell_angle_beta 90.000000
_cell_angle_gamma 90.000000
_cell_volume 5007.938606
_symmetry_space_group_name_H-M "I M M M"
_symmetry_group_IT_number 71
_symmetry_cell_setting 'orthorhombic'
loop_
_space_group_symop_operation_xyz
x,y,z
-x,-y,z
x,-y,-z
-x,y,-z
-x,-y,-z
x,y,-z
-x,y,z
x,-y,z
1/2+x,1/2+y,1/2+z
1/2-x,1/2-y,1/2+z
1/2+x,1/2-y,1/2-z
1/2-x,1/2+y,1/2-z
1/2-x,1/2-y,1/2-z
1/2+x,1/2+y,1/2-z
1/2-x,1/2+y,1/2+z
1/2+x,1/2-y,1/2+z
loop_
_atom_site_type_symbol
_atom_site_label
_atom_site_fract_x
_atom_site_fract_y
_atom_site_fract_z
Si Si1 0.205431 0.564081 0.352043
Si Si2 0.500000 0.929122 0.446783
Si Si3 0.795302 0.321232 0.303116
Si Si4 0.287071 0.763363 0.948769
Si Si5 0.285123 0.313101 0.201481
Si Si6 0.704380 0.600135 0.550642
Si Si7 0.213284 0.145982 0.604771
O O1 0.285137 0.500000 0.339894
O O2 0.285914 0.623729 0.330353
O O3 0.207197 0.570737 0.406221
O O4 0.000000 0.563044 0.336974
O O5 0.500000 0.913787 0.500000
O O6 0.328009 0.901082 0.422618
O O7 0.500000 0.000000 0.442502
O O8 0.787993 0.334076 0.249530
O O9 0.720109 0.254617 0.307418
O O10 0.000000 0.315795 0.318844
O O11 0.500000 0.770381 0.946324
O O12 0.210743 0.828701 0.941464
O O13 0.238556 0.711316 0.914667
O O14 0.240343 0.744735 0.000000
O O15 0.500000 0.310540 0.205810
O O16 0.244339 0.352757 0.158037
O O17 0.778199 0.589388 0.500000
O O18 0.500000 0.580978 0.550425
O O19 0.000000 0.138470 0.598925
#
# Coordination Sequence:
#
# PCOD9522724 Si02
#       7
#    16   8  16  16  16  16  16
#     4  10  21  37  55  74 101 144 195 237 277 335
#     4  11  26  44  62  88 120 160 211 259 306 368
#     4   9  18  34  56  82 115 148 185 235 293 352
#     4   9  17  31  53  81 112 145 181 227 284 338
#     4   9  18  33  56  88 118 146 184 234 296 362
#     4  10  21  34  50  77 111 145 183 233 288 337
#     4  10  21  38  62  90 122 158 198 246 302 362
#
# _framework density 20.767028
#
# number of rings (size 3 to 8) (size 9 to 14) (size 15 to 20)
#    0.000    2.385    0.000    1.846    2.154    5.846 
#    0.000    3.077    0.000    0.923    0.000    0.000 
#    0.000    0.000    0.000    0.000    0.000    0.000 
#
# Total GULP energy -290283.766423 kJ/mol
# GULP energy per Si atom -5582.380124 kJ/mol
# Density = 2.071976 g / cm^3
# Si number density = 20.767028 Si / 1000 Ang^3
#
#
#
# Elastic Constant Matrix: (Units=GPa)
#
#
# Indices 1 2 3 4 5 6 
#
# 1 57.5511 11.1131 13.0353 0.0000 0.0000 0.0000
# 2 11.1131 72.7436 52.8408 0.0000 0.0000 0.0000
# 3 13.0353 52.8408 106.6427 0.0000 0.0000 0.0000
# 4 0.0000 0.0000 0.0000 20.0812 0.0000 0.0000
# 5 0.0000 0.0000 0.0000 0.0000 21.8203 0.0000
# 6 0.0000 0.0000 0.0000 0.0000 0.0000 6.9747
#
#
#
# Elastic Compliance Matrix: (Units=1/GPa)
#
#
# Indices 1 2 3 4 5 6 
#
# 1 0.018020 -0.001801 -0.001310 0.000000 0.000000 0.000000
# 2 -0.001801 0.021657 -0.010511 0.000000 0.000000 0.000000
# 3 -0.001310 -0.010511 0.014745 0.000000 0.000000 0.000000
# 4 0.000000 0.000000 0.000000 0.049798 0.000000 0.000000
# 5 0.000000 0.000000 0.000000 0.000000 0.045829 0.000000
# 6 0.000000 0.000000 0.000000 0.000000 0.000000 0.143375
#
#
# Mechanical properties :
#
#
# Convention : Reuss Voigt Hill
#
# Bulk Modulus (GPa) = 36.79400 43.43509 40.11454
# Shear Modulus (GPa) = 15.16396 20.43843 17.80119
#
# Velocity S-wave (km/s) = 2.70514 3.14056 2.93095
# Velocity P-wave (km/s) = 5.24529 5.84052 5.55089
#
# Compressibility (1/GPa) = 0.02717835
#
# Stress axis : x y z
#
# Youngs Moduli (GPa) = 55.49249 46.17418 67.81825
#
# Poissons Ratio (x) = 0.08317 0.08885
# Poissons Ratio (y) = 0.09996 0.71282
# Poissons Ratio (z) = 0.07271 0.48533
#
# Static dielectric constant tensor:
#      x y z
#    x 1.797210 0.000000 0.000000 
#    y 0.000000 1.738660 0.000000 
#    z 0.000000 0.000000 1.740220 
# 
# From -- ./inp_files/63323.got.cif
#   From: 2010.05.17/outbox.cif.g08.bks.cpg/sg71_32_cif.got.tgz:63323.got - 2010.06.03 16:22:01.
