data_PCOD9522649
_publ_section_title
;
Structure prediction by ZEFSAII (Michael W. Deem and Ramdas Pophale) SiO2 
 PCOD9522649
Probable space group: I M M M
;
_chemical_formula_sum "Si O2"
_cell_formula_units_Z 74
_cell_length_a 14.033410
_cell_length_b 18.309432
_cell_length_c 15.427739
_cell_angle_alpha 90.000000
_cell_angle_beta 90.000000
_cell_angle_gamma 90.000000
_cell_volume 3964.061361
_symmetry_space_group_name_H-M "I M M M"
_symmetry_group_IT_number 71
_symmetry_cell_setting 'orthorhombic'
loop_
_space_group_symop_operation_xyz
x,y,z
-x,-y,z
x,-y,-z
-x,y,-z
-x,-y,-z
x,y,-z
-x,y,z
x,-y,z
1/2+x,1/2+y,1/2+z
1/2-x,1/2-y,1/2+z
1/2+x,1/2-y,1/2-z
1/2-x,1/2+y,1/2-z
1/2-x,1/2-y,1/2-z
1/2+x,1/2+y,1/2-z
1/2-x,1/2+y,1/2+z
1/2+x,1/2-y,1/2+z
loop_
_atom_site_type_symbol
_atom_site_label
_atom_site_fract_x
_atom_site_fract_y
_atom_site_fract_z
Si Si1 0.253738 0.412255 0.652476
Si Si2 0.197763 0.081307 0.500000
Si Si3 0.110687 0.206730 0.102183
Si Si4 0.801870 0.650391 0.161955
Si Si5 0.000000 0.586843 0.900440
Si Si6 0.608750 0.911567 0.000000
Si Si7 0.000000 0.000000 0.500000
O O1 0.260222 0.500000 0.655692
O O2 0.349232 0.374037 0.617779
O O3 0.233633 0.379624 0.746853
O O4 0.169433 0.391382 0.585123
O O5 0.232486 0.123606 0.585101
O O6 0.085930 0.062495 0.500000
O O7 0.246126 0.000000 0.500000
O O8 0.177298 0.263576 0.153477
O O9 0.000000 0.213720 0.127395
O O10 0.118080 0.224255 0.000000
O O11 0.905005 0.615173 0.143897
O O12 0.000000 0.500000 0.899554
O O13 0.000000 0.612812 0.000000
O O14 0.500000 0.884191 0.000000
O O15 0.604506 0.000000 0.000000
#
# Coordination Sequence:
#
# PCOD9522649 Si02
#       7
#    16   8  16  16   8   8   2
#     4  11  24  42  65  94 126 176 226 273 324 383
#     4  10  20  40  62  92 132 173 212 255 323 389
#     4  11  23  43  67  95 133 176 216 271 335 391
#     4  12  22  39  65  96 132 168 211 274 334 392
#     4  11  20  32  58 100 132 165 210 262 331 394
#     4   9  20  39  60  83 121 165 212 269 322 376
#     4   8  24  40  64  86 140 190 206 256 312 406
#
# _framework density 18.667722999999999
#
# number of rings (size 3 to 8) (size 9 to 14) (size 15 to 20)
#    0.324    0.865    4.324    2.595    1.514    0.432 
#    1.946    1.081    4.757    0.000    0.000    0.000 
#    0.000    0.000    0.000    0.000    0.000    0.000 
#
# Total GULP energy -206311.323113 kJ/mol
# GULP energy per Si atom -5575.981706 kJ/mol
# Density = 1.862523 g / cm^3
# Si number density = 18.667723 Si / 1000 Ang^3
#
#
#
# Elastic Constant Matrix: (Units=GPa)
#
#
# Indices 1 2 3 4 5 6 
#
# 1 111.2729 42.9767 36.5503 0.0000 0.0000 0.0000
# 2 42.9767 94.9674 38.8081 0.0001 0.0000 0.0000
# 3 36.5503 38.8081 111.4063 0.0001 0.0000 0.0000
# 4 0.0000 0.0001 0.0001 7.7272 0.0000 0.0000
# 5 0.0000 0.0000 0.0000 0.0000 4.1458 0.0000
# 6 0.0000 0.0000 0.0000 0.0000 0.0000 21.9348
#
#
#
# Elastic Compliance Matrix: (Units=1/GPa)
#
#
# Indices 1 2 3 4 5 6 
#
# 1 0.011357 -0.004217 -0.002257 0.000000 0.000000 0.000000
# 2 -0.004217 0.013844 -0.003439 0.000000 0.000000 0.000000
# 3 -0.002257 -0.003439 0.010915 0.000000 0.000000 0.000000
# 4 0.000000 0.000000 0.000000 0.129414 -0.000001 0.000000
# 5 0.000000 0.000000 0.000000 -0.000001 0.241206 0.000000
# 6 0.000000 0.000000 0.000000 0.000000 0.000000 0.045590
#
#
# Mechanical properties :
#
#
# Convention : Reuss Voigt Hill
#
# Bulk Modulus (GPa) = 61.39033 61.59077 61.49055
# Shear Modulus (GPa) = 10.46943 20.04900 15.25922
#
# Velocity S-wave (km/s) = 2.37076 3.28074 2.86214
# Velocity P-wave (km/s) = 6.36012 6.88591 6.62823
#
# Compressibility (1/GPa) = 0.01628921
#
# Stress axis : x y z
#
# Youngs Moduli (GPa) = 88.05072 72.23517 91.62108
#
# Poissons Ratio (x) = 0.30463 0.20679
# Poissons Ratio (y) = 0.37133 0.31507
# Poissons Ratio (z) = 0.19873 0.24840
#
# Static dielectric constant tensor:
#      x y z
#    x 1.614660 0.000000 0.000000 
#    y 0.000000 1.677010 0.000000 
#    z 0.000000 0.000000 1.672820 
# 
# From -- ./inp_files/34159.got.cif
#   From: 2010.05.17/outbox.cif.g08.bks.cpg/sg71_18_cif.got.tgz:34159.got - 2010.06.03 16:22:01.
