data_PCOD9522021
_publ_section_title
;
Structure prediction by ZEFSAII (Michael W. Deem and Ramdas Pophale) SiO2 
 PCOD9522021
Probable space group: I M M M
;
_chemical_formula_sum "Si O2"
_cell_formula_units_Z 64
_cell_length_a 15.825361
_cell_length_b 20.792293
_cell_length_c 9.893802
_cell_angle_alpha 90.000000
_cell_angle_beta 90.000000
_cell_angle_gamma 90.000000
_cell_volume 3255.511449
_symmetry_space_group_name_H-M "I M M M"
_symmetry_group_IT_number 71
_symmetry_cell_setting 'orthorhombic'
loop_
_space_group_symop_operation_xyz
x,y,z
-x,-y,z
x,-y,-z
-x,y,-z
-x,-y,-z
x,y,-z
-x,y,z
x,-y,z
1/2+x,1/2+y,1/2+z
1/2-x,1/2-y,1/2+z
1/2+x,1/2-y,1/2-z
1/2-x,1/2+y,1/2-z
1/2-x,1/2-y,1/2-z
1/2+x,1/2+y,1/2-z
1/2-x,1/2+y,1/2+z
1/2+x,1/2-y,1/2+z
loop_
_atom_site_type_symbol
_atom_site_label
_atom_site_fract_x
_atom_site_fract_y
_atom_site_fract_z
Si Si1 0.097547 0.578166 0.500000
Si Si2 0.278333 0.073735 0.241217
Si Si3 0.911040 0.163013 0.500000
Si Si4 0.271239 0.166630 0.500000
Si Si5 0.406907 0.392762 0.705660
Si Si6 0.406807 0.722691 0.500000
O O1 0.095349 0.500000 0.500000
O O2 0.152819 0.595850 0.368730
O O3 0.000000 0.600634 0.500000
O O4 0.279270 0.121340 0.368605
O O5 0.182804 0.073894 0.179937
O O6 0.297045 0.000000 0.281435
O O7 0.822161 0.198537 0.500000
O O8 0.910085 0.119517 0.633918
O O9 0.000000 0.200123 0.500000
O O10 0.338453 0.222601 0.500000
O O11 0.500000 0.420211 0.667114
O O12 0.400576 0.324747 0.628391
O O13 0.500000 0.752106 0.500000
#
# Coordination Sequence:
#
# PCOD9522021 Si02
#       6
#     8  16   8   8  16   8
#     4   9  19  36  54  72 101 140 179 224 275 325
#     4  10  20  35  57  84 112 144 185 231 283 341
#     4   8  16  31  50  74 105 141 178 216 264 322
#     4  10  21  35  55  80 112 148 187 230 279 328
#     4   9  18  34  55  80 112 146 182 228 279 333
#     4  10  21  36  53  76 108 148 195 240 280 324
#
# _framework density 19.65897
#
# number of rings (size 3 to 8) (size 9 to 14) (size 15 to 20)
#    0.000    2.625    0.000    1.125    0.000    5.500 
#    0.000    1.250    0.000   23.250    0.000    0.000 
#    0.000    0.000    0.000    0.000    0.000    0.000 
#
# Total GULP energy -178223.025688 kJ/mol
# GULP energy per Si atom -5569.469553 kJ/mol
# Density = 1.961423 g / cm^3
# Si number density = 19.658970 Si / 1000 Ang^3
#
#
#
# Elastic Constant Matrix: (Units=GPa)
#
#
# Indices 1 2 3 4 5 6 
#
# 1 199.0596 49.0220 61.1556 0.0000 0.0000 0.0000
# 2 49.0220 58.4465 23.0106 0.0000 0.0000 0.0000
# 3 61.1556 23.0106 109.7577 0.0000 0.0000 0.0000
# 4 0.0000 0.0000 0.0000 11.9900 0.0000 0.0000
# 5 0.0000 0.0000 0.0000 0.0000 29.2942 0.0000
# 6 0.0000 0.0000 0.0000 0.0000 0.0000 30.1110
#
#
#
# Elastic Compliance Matrix: (Units=1/GPa)
#
#
# Indices 1 2 3 4 5 6 
#
# 1 0.007115 -0.004803 -0.002957 0.000000 0.000000 0.000000
# 2 -0.004803 0.021892 -0.001913 0.000000 0.000000 0.000000
# 3 -0.002957 -0.001913 0.011160 0.000000 0.000000 0.000000
# 4 0.000000 0.000000 0.000000 0.083403 0.000000 0.000000
# 5 0.000000 0.000000 0.000000 0.000000 0.034136 0.000000
# 6 0.000000 0.000000 0.000000 0.000000 0.000000 0.033210
#
#
# Mechanical properties :
#
#
# Convention : Reuss Voigt Hill
#
# Bulk Modulus (GPa) = 48.03365 70.40446 59.21906
# Shear Modulus (GPa) = 23.01984 29.88411 26.45197
#
# Velocity S-wave (km/s) = 3.42564 3.90311 3.67214
# Velocity P-wave (km/s) = 6.33507 7.49686 6.94032
#
# Compressibility (1/GPa) = 0.02081874
#
# Stress axis : x y z
#
# Youngs Moduli (GPa) = 140.54510 45.67919 89.60644
#
# Poissons Ratio (x) = 0.21942 0.26500
# Poissons Ratio (y) = 0.67511 0.17143
# Poissons Ratio (z) = 0.41565 0.08739
#
# Static dielectric constant tensor:
#      x y z
#    x 1.744260 0.000000 0.000000 
#    y 0.000000 1.648410 0.000000 
#    z 0.000000 0.000000 1.699400 
# 
# From -- ./inp_files/5634.got.cif
#   From: 2010.05.17/outbox.cif.g08.bks.cpg/sg71_3_cif.got.tgz:5634.got - 2010.06.03 16:22:01.
