data_PCOD9522288
_publ_section_title
;
Structure prediction by ZEFSAII (Michael W. Deem and Ramdas Pophale) SiO2 
 PCOD9522288
Probable space group: I M M M
;
_chemical_formula_sum "Si O2"
_cell_formula_units_Z 120
_cell_length_a 21.051541
_cell_length_b 12.008879
_cell_length_c 22.691322
_cell_angle_alpha 90.000000
_cell_angle_beta 90.000000
_cell_angle_gamma 90.000000
_cell_volume 5736.488931
_symmetry_space_group_name_H-M "I M M M"
_symmetry_group_IT_number 71
_symmetry_cell_setting 'orthorhombic'
loop_
_space_group_symop_operation_xyz
x,y,z
-x,-y,z
x,-y,-z
-x,y,-z
-x,-y,-z
x,y,-z
-x,y,z
x,-y,z
1/2+x,1/2+y,1/2+z
1/2-x,1/2-y,1/2+z
1/2+x,1/2-y,1/2-z
1/2-x,1/2+y,1/2-z
1/2-x,1/2-y,1/2-z
1/2+x,1/2+y,1/2-z
1/2-x,1/2+y,1/2+z
1/2+x,1/2-y,1/2+z
loop_
_atom_site_type_symbol
_atom_site_label
_atom_site_fract_x
_atom_site_fract_y
_atom_site_fract_z
Si Si1 0.198389 0.879137 0.213579
Si Si2 0.425442 0.875970 0.851221
Si Si3 0.500000 0.378612 0.928852
Si Si4 0.136142 0.226888 0.430235
Si Si5 0.428226 0.249183 0.730835
Si Si6 0.574929 0.628314 0.570658
Si Si7 0.244168 0.830279 0.343576
Si Si8 0.386232 0.874297 0.377778
O O1 0.126076 0.836310 0.214228
O O2 0.221578 0.879496 0.281352
O O3 0.240344 0.795951 0.175491
O O4 0.203693 0.000000 0.188244
O O5 0.500000 0.869605 0.869693
O O6 0.377018 0.848726 0.903619
O O7 0.415464 0.793343 0.796718
O O8 0.414992 0.000000 0.828900
O O9 0.500000 0.500000 0.901849
O O10 0.432528 0.325599 0.914784
O O11 0.500000 0.383671 0.000000
O O12 0.146563 0.223451 0.500000
O O13 0.191110 0.167128 0.393717
O O14 0.500000 0.291865 0.727614
O O15 0.419812 0.147353 0.685235
O O16 0.581920 0.627954 0.500000
O O17 0.500000 0.632242 0.585679
O O18 0.596497 0.500000 0.589333
O O19 0.600817 0.752524 0.590512
O O20 0.310743 0.877216 0.366220
O O21 0.404454 0.000000 0.400782
#
# Coordination Sequence:
#
# PCOD9522288 Si02
#       8
#    16  16   8  16  16  16  16  16
#     4  10  21  40  64  86 117 163 213 261 311 374
#     4  10  20  36  58  85 121 161 201 251 311 370
#     4   9  20  38  61  87 117 157 200 252 314 363
#     4  11  22  40  62  88 122 159 208 257 307 376
#     4  10  21  38  60  93 129 162 202 259 327 380
#     4   9  20  41  67  93 126 169 211 258 325 396
#     4  10  23  41  57  87 123 164 209 259 316 374
#     4  11  23  38  62  95 130 169 217 268 318 383
#
# _framework density 20.91872
#
# number of rings (size 3 to 8) (size 9 to 14) (size 15 to 20)
#    0.000    1.933    2.000    1.600    0.000    6.667 
#    0.000    1.333    0.000    0.000    0.000    0.000 
#    0.000    0.000    0.000    0.000    0.000    0.000 
#
# Total GULP energy -334233.870382 kJ/mol
# GULP energy per Si atom -5570.564506 kJ/mol
# Density = 2.087111 g / cm^3
# Si number density = 20.918720 Si / 1000 Ang^3
#
#
#
# Elastic Constant Matrix: (Units=GPa)
#
#
# Indices 1 2 3 4 5 6 
#
# 1 86.7795 28.8355 23.5935 0.0000 0.0000 0.0000
# 2 28.8355 146.0101 25.8543 0.0000 0.0000 0.0000
# 3 23.5935 25.8543 86.0549 0.0000 0.0000 0.0000
# 4 0.0000 0.0000 0.0000 278.0898 0.0000 0.0000
# 5 0.0000 0.0000 0.0000 0.0000 34.3549 0.0000
# 6 0.0000 0.0000 0.0000 0.0000 0.0000 20.9029
#
#
#
# Elastic Compliance Matrix: (Units=1/GPa)
#
#
# Indices 1 2 3 4 5 6 
#
# 1 0.013006 -0.002046 -0.002951 0.000000 0.000000 0.000000
# 2 -0.002046 0.007556 -0.001709 0.000000 0.000000 0.000000
# 3 -0.002951 -0.001709 0.012943 0.000000 0.000000 0.000000
# 4 0.000000 0.000000 0.000000 0.003596 0.000000 0.000000
# 5 0.000000 0.000000 0.000000 0.000000 0.029108 0.000000
# 6 0.000000 0.000000 0.000000 0.000000 0.000000 0.047840
#
#
# Mechanical properties :
#
#
# Convention : Reuss Voigt Hill
#
# Bulk Modulus (GPa) = 49.77076 52.82347 51.29711
# Shear Modulus (GPa) = 37.26959 82.70694 59.98827
#
# Velocity S-wave (km/s) = 4.22552 6.29469 5.36089
# Velocity P-wave (km/s) = 6.90296 8.83954 7.93058
#
# Compressibility (1/GPa) = 0.02009212
#
# Stress axis : x y z
#
# Youngs Moduli (GPa) = 76.88991 132.35367 77.26160
#
# Poissons Ratio (x) = 0.27079 0.22800
# Poissons Ratio (y) = 0.15731 0.13204
# Poissons Ratio (z) = 0.22691 0.22620
#
# Static dielectric constant tensor:
#      x y z
#    x 1.745950 0.000000 0.000000 
#    y 0.000000 1.846740 0.000000 
#    z 0.000000 0.000000 1.751550 
# 
# From -- ./inp_files/61358.got.cif
#   From: 2010.05.17/outbox.cif.g08.bks.cpg/sg71_31_cif.got.tgz:61358.got - 2010.06.03 16:22:01.
