data_PCOD9522311
_publ_section_title
;
Structure prediction by ZEFSAII (Michael W. Deem and Ramdas Pophale) SiO2 
 PCOD9522311
Probable space group: I M M M
;
_chemical_formula_sum "Si O2"
_cell_formula_units_Z 96
_cell_length_a 8.069696
_cell_length_b 23.207404
_cell_length_c 24.900561
_cell_angle_alpha 90.000000
_cell_angle_beta 90.000000
_cell_angle_gamma 90.000000
_cell_volume 4663.294773
_symmetry_space_group_name_H-M "I M M M"
_symmetry_group_IT_number 71
_symmetry_cell_setting 'orthorhombic'
loop_
_space_group_symop_operation_xyz
x,y,z
-x,-y,z
x,-y,-z
-x,y,-z
-x,-y,-z
x,y,-z
-x,y,z
x,-y,z
1/2+x,1/2+y,1/2+z
1/2-x,1/2-y,1/2+z
1/2+x,1/2-y,1/2-z
1/2-x,1/2+y,1/2-z
1/2-x,1/2-y,1/2-z
1/2+x,1/2+y,1/2-z
1/2-x,1/2+y,1/2+z
1/2+x,1/2-y,1/2+z
loop_
_atom_site_type_symbol
_atom_site_label
_atom_site_fract_x
_atom_site_fract_y
_atom_site_fract_z
Si Si1 0.297847 0.000000 0.102874
Si Si2 0.819509 0.823873 0.500000
Si Si3 0.200483 0.623998 0.226442
Si Si4 0.692107 0.123268 0.917919
Si Si5 0.801326 0.806345 0.825155
Si Si6 0.322401 0.291740 0.500000
Si Si7 0.297395 0.000000 0.226863
Si Si8 0.801415 0.684195 0.120958
O O1 0.248212 0.058580 0.074615
O O2 0.500000 0.000000 0.103856
O O3 0.243481 0.000000 0.164698
O O4 0.820139 0.754416 0.500000
O O5 0.745026 0.832829 0.559894
O O6 0.000000 0.850468 0.500000
O O7 0.259791 0.677416 0.263792
O O8 0.256141 0.560581 0.246196
O O9 0.252189 0.637863 0.165478
O O10 0.000000 0.624533 0.228673
O O11 0.500000 0.128003 0.934359
O O12 0.710549 0.141743 0.856516
O O13 0.803295 0.167732 0.949543
O O14 0.745082 0.746765 0.854501
O O15 0.000000 0.809561 0.830979
O O16 0.500000 0.261290 0.500000
O O17 0.500000 0.000000 0.227733
O O18 0.000000 0.687722 0.121612
#
# Coordination Sequence:
#
# PCOD9522311 Si02
#       8
#     8   8  16  16  16   8   8  16
#     4   9  18  33  55  80 108 142 190 242 272 312
#     4  12  24  38  61  84 107 148 188 223 272 339
#     4  10  20  36  59  84 113 150 187 227 275 331
#     4  11  21  36  57  79 105 147 196 235 276 327
#     4  11  21  33  52  82 118 150 181 230 283 329
#     4  12  24  39  55  78 112 145 186 239 283 325
#     4   9  16  32  57  84 109 141 187 229 269 324
#     4  10  22  38  57  83 116 148 181 230 284 327
#
# _framework density 20.586303999999998
#
# number of rings (size 3 to 8) (size 9 to 14) (size 15 to 20)
#    0.000    1.500    3.333    3.000    0.000    1.667 
#    0.000    4.583    0.000    0.500    0.000    3.500 
#    0.000    0.000    0.000    0.000    0.000    0.000 
#
# Total GULP energy -267628.359022 kJ/mol
# GULP energy per Si atom -5575.590813 kJ/mol
# Density = 2.053945 g / cm^3
# Si number density = 20.586304 Si / 1000 Ang^3
#
#
#
# Elastic Constant Matrix: (Units=GPa)
#
#
# Indices 1 2 3 4 5 6 
#
# 1 36.3717 3.2882 6.4115 0.0000 0.0000 0.0000
# 2 3.2882 48.3397 10.9922 0.0000 0.0000 0.0000
# 3 6.4115 10.9922 126.1333 0.0000 0.0000 0.0000
# 4 0.0000 0.0000 0.0000 58.8678 0.0000 0.0000
# 5 0.0000 0.0000 0.0000 0.0000 16.2548 0.0000
# 6 0.0000 0.0000 0.0000 0.0000 0.0000 11.3378
#
#
#
# Elastic Compliance Matrix: (Units=1/GPa)
#
#
# Indices 1 2 3 4 5 6 
#
# 1 0.027864 -0.001605 -0.001276 0.000000 0.000000 0.000000
# 2 -0.001605 0.021198 -0.001766 0.000000 0.000000 0.000000
# 3 -0.001276 -0.001766 0.008147 0.000000 0.000000 0.000000
# 4 0.000000 0.000000 0.000000 0.016987 0.000000 0.000000
# 5 0.000000 0.000000 0.000000 0.000000 0.061520 0.000000
# 6 0.000000 0.000000 0.000000 0.000000 0.000000 0.088201
#
#
# Mechanical properties :
#
#
# Convention : Reuss Voigt Hill
#
# Bulk Modulus (GPa) = 20.87077 28.02538 24.44807
# Shear Modulus (GPa) = 20.06560 29.96892 25.01726
#
# Velocity S-wave (km/s) = 3.12542 3.81959 3.48981
# Velocity P-wave (km/s) = 4.81503 5.75287 5.30472
#
# Compressibility (1/GPa) = 0.04791390
#
# Stress axis : x y z
#
# Youngs Moduli (GPa) = 35.88854 47.17507 122.74626
#
# Poissons Ratio (x) = 0.07572 0.15668
# Poissons Ratio (y) = 0.05761 0.21674
# Poissons Ratio (z) = 0.04581 0.08330
#
# Static dielectric constant tensor:
#      x y z
#    x 1.730700 0.000000 0.000000 
#    y 0.000000 1.735580 0.000000 
#    z 0.000000 0.000000 1.836380 
# 
# From -- ./inp_files/57810.got.cif
#   From: 2010.05.17/outbox.cif.g08.bks.cpg/sg71_29_cif.got.tgz:57810.got - 2010.06.03 16:22:01.
