data_PCOD9522971
_publ_section_title
;
Structure prediction by ZEFSAII (Michael W. Deem and Ramdas Pophale) SiO2 
 PCOD9522971
Probable space group: I M M M
;
_chemical_formula_sum "Si O2"
_cell_formula_units_Z 88
_cell_length_a 8.525926
_cell_length_b 23.502651
_cell_length_c 25.189858
_cell_angle_alpha 90.000000
_cell_angle_beta 90.000000
_cell_angle_gamma 90.000000
_cell_volume 5047.590681
_symmetry_space_group_name_H-M "I M M M"
_symmetry_group_IT_number 71
_symmetry_cell_setting 'orthorhombic'
loop_
_space_group_symop_operation_xyz
x,y,z
-x,-y,z
x,-y,-z
-x,y,-z
-x,-y,-z
x,y,-z
-x,y,z
x,-y,z
1/2+x,1/2+y,1/2+z
1/2-x,1/2-y,1/2+z
1/2+x,1/2-y,1/2-z
1/2-x,1/2+y,1/2-z
1/2-x,1/2-y,1/2-z
1/2+x,1/2+y,1/2-z
1/2-x,1/2+y,1/2+z
1/2+x,1/2-y,1/2+z
loop_
_atom_site_type_symbol
_atom_site_label
_atom_site_fract_x
_atom_site_fract_y
_atom_site_fract_z
Si Si1 0.691687 0.611445 0.373056
Si Si2 0.691539 0.500000 0.561183
Si Si3 0.689417 0.279274 0.561394
Si Si4 0.311266 0.433288 0.739072
Si Si5 0.812438 0.154487 0.439132
Si Si6 0.687333 0.065417 0.645663
O O1 0.500000 0.611358 0.373209
O O2 0.740646 0.556788 0.407765
O O3 0.743125 0.669744 0.400662
O O4 0.741222 0.602047 0.312270
O O5 0.500000 0.500000 0.561168
O O6 0.742316 0.500000 0.500000
O O7 0.734850 0.290832 0.500000
O O8 0.500000 0.277438 0.563079
O O9 0.753187 0.217333 0.576166
O O10 0.500000 0.429513 0.742764
O O11 0.272523 0.500000 0.729769
O O12 0.240129 0.416253 0.795427
O O13 0.758675 0.143991 0.500000
O O14 0.751957 0.107016 0.399049
O O15 0.000000 0.154415 0.438777
O O16 0.500000 0.065444 0.643358
O O17 0.743068 0.000000 0.638242
#
# Coordination Sequence:
#
# PCOD9522971 Si02
#       6
#    16   8  16  16  16  16
#     4   9  15  25  43  71 103 137 175 212 253 296
#     4   9  14  20  36  68 107 137 168 215 260 295
#     4   9  17  30  49  73 103 138 173 210 253 298
#     4   9  16  29  49  72 102 138 173 209 250 296
#     4  10  21  37  56  77 101 130 164 201 245 301
#     4  10  21  36  55  79 104 128 159 201 250 303
#
# _framework density 17.434061
#
# number of rings (size 3 to 8) (size 9 to 14) (size 15 to 20)
#    0.000    2.636    0.909    1.636    0.000    4.727 
#    0.000    3.636    0.000    0.000    0.000    0.000 
#    0.000    4.364    0.000    0.000    0.000    0.000 
#
# Total GULP energy -245375.563086 kJ/mol
# GULP energy per Si atom -5576.717343 kJ/mol
# Density = 1.739438 g / cm^3
# Si number density = 17.434061 Si / 1000 Ang^3
#
#
#
# Elastic Constant Matrix: (Units=GPa)
#
#
# Indices 1 2 3 4 5 6 
#
# 1 9.7579 24.1715 26.3572 0.0000 0.0000 0.0000
# 2 24.1715 135.5100 117.9808 0.0000 0.0000 0.0000
# 3 26.3572 117.9808 151.0565 0.0000 0.0000 0.0000
# 4 0.0000 0.0000 0.0000 28.6179 0.0000 0.0000
# 5 0.0000 0.0000 0.0000 0.0000 11.7451 0.0000
# 6 0.0000 0.0000 0.0000 0.0000 0.0000 10.9442
#
#
#
# Elastic Compliance Matrix: (Units=1/GPa)
#
#
# Indices 1 2 3 4 5 6 
#
# 1 0.205658 -0.017005 -0.022602 0.000000 0.000000 0.000000
# 2 -0.017005 0.024468 -0.016143 0.000000 0.000000 0.000000
# 3 -0.022602 -0.016143 0.023172 0.000000 0.000000 0.000000
# 4 0.000000 0.000000 0.000000 0.034943 0.000000 0.000000
# 5 0.000000 0.000000 0.000000 0.000000 0.085142 0.000000
# 6 0.000000 0.000000 0.000000 0.000000 0.000000 0.091372
#
#
# Mechanical properties :
#
#
# Convention : Reuss Voigt Hill
#
# Bulk Modulus (GPa) = 7.05238 70.37149 38.71194
# Shear Modulus (GPa) = 8.01896 18.78244 13.40070
#
# Velocity S-wave (km/s) = 2.14699 3.28585 2.77546
# Velocity P-wave (km/s) = 3.19375 7.40593 5.70297
#
# Compressibility (1/GPa) = 0.14179608
#
# Stress axis : x y z
#
# Youngs Moduli (GPa) = 4.86244 40.87048 43.15548
#
# Poissons Ratio (x) = 0.69502 0.97542
# Poissons Ratio (y) = 0.08269 0.69665
# Poissons Ratio (z) = 0.10990 0.65977
#
# Static dielectric constant tensor:
#      x y z
#    x 1.596900 0.000000 0.000000 
#    y 0.000000 1.570720 0.000000 
#    z 0.000000 0.000000 1.584730 
# 
# From -- ./inp_files/10415.got.cif
#   From: 2010.05.17/outbox.cif.g08.bks.cpg/sg71_6_cif.got.tgz:10415.got - 2010.06.03 16:22:01.
