data_PCOD9522167
_publ_section_title
;
Structure prediction by ZEFSAII (Michael W. Deem and Ramdas Pophale) SiO2 
 PCOD9522167
Probable space group: I M M M
;
_chemical_formula_sum "Si O2"
_cell_formula_units_Z 62
_cell_length_a 11.349675
_cell_length_b 17.673576
_cell_length_c 14.928663
_cell_angle_alpha 90.000000
_cell_angle_beta 90.000000
_cell_angle_gamma 90.000000
_cell_volume 2994.530713
_symmetry_space_group_name_H-M "I M M M"
_symmetry_group_IT_number 71
_symmetry_cell_setting 'orthorhombic'
loop_
_space_group_symop_operation_xyz
x,y,z
-x,-y,z
x,-y,-z
-x,y,-z
-x,-y,-z
x,y,-z
-x,y,z
x,-y,z
1/2+x,1/2+y,1/2+z
1/2-x,1/2-y,1/2+z
1/2+x,1/2-y,1/2-z
1/2-x,1/2+y,1/2-z
1/2-x,1/2-y,1/2-z
1/2+x,1/2+y,1/2-z
1/2-x,1/2+y,1/2+z
1/2+x,1/2-y,1/2+z
loop_
_atom_site_type_symbol
_atom_site_label
_atom_site_fract_x
_atom_site_fract_y
_atom_site_fract_z
Si Si1 0.000000 0.091826 0.805382
Si Si2 0.761662 0.298392 0.500000
Si Si3 0.000000 0.000000 0.500000
Si Si4 0.136873 0.586089 0.636305
Si Si5 0.266763 0.589270 0.191056
Si Si6 0.692512 0.363349 0.000000
Si Si7 0.000000 0.826076 0.000000
O O1 0.115012 0.113602 0.745705
O O2 0.000000 0.000000 0.813056
O O3 0.000000 0.125697 0.906169
O O4 0.791196 0.351909 0.583295
O O5 0.843100 0.224572 0.500000
O O6 0.622772 0.280536 0.500000
O O7 0.099688 0.931868 0.500000
O O8 0.177966 0.500000 0.615623
O O9 0.159444 0.598193 0.740900
O O10 0.000000 0.590879 0.613160
O O11 0.283979 0.500000 0.174511
O O12 0.245902 0.627734 0.096220
#
# Coordination Sequence:
#
# PCOD9522167 Si02
#       7
#     8   8   2  16  16   8   4
#     4  10  20  35  67  99 132 174 222 276 335 390
#     4  12  26  43  65 100 138 179 220 282 344 407
#     4  12  24  48  76  98 126 170 228 296 318 396
#     4  10  22  42  67  97 136 180 226 271 335 414
#     4  10  20  40  65  95 130 175 227 281 335 396
#     4  12  26  43  67 100 134 169 227 288 341 390
#     4  12  23  44  60 103 144 172 212 272 356 403
#
# _framework density 20.704412999999999
#
# number of rings (size 3 to 8) (size 9 to 14) (size 15 to 20)
#    0.000    1.290    3.871    1.742    3.613    3.097 
#    2.323    0.000    0.000    3.484    0.000    0.000 
#    0.000    0.000    0.000    0.000    0.000    0.000 
#
# Total GULP energy -172641.941361 kJ/mol
# GULP energy per Si atom -5569.094883 kJ/mol
# Density = 2.065729 g / cm^3
# Si number density = 20.704413 Si / 1000 Ang^3
#
#
#
# Elastic Constant Matrix: (Units=GPa)
#
#
# Indices 1 2 3 4 5 6 
#
# 1 68.4392 28.7340 9.1552 0.0000 0.0000 0.0000
# 2 28.7340 100.6268 39.8804 0.0000 0.0000 0.0000
# 3 9.1552 39.8804 152.2250 0.0000 0.0000 0.0000
# 4 0.0000 0.0000 0.0000 16.7245 0.0000 0.0000
# 5 0.0000 0.0000 0.0000 0.0000 66.4519 0.0000
# 6 0.0000 0.0000 0.0000 0.0000 0.0000 -2.1758
#
#
#
# Elastic Compliance Matrix: (Units=1/GPa)
#
#
# Indices 1 2 3 4 5 6 
#
# 1 0.016612 -0.004851 0.000272 0.000000 0.000000 0.000000
# 2 -0.004851 0.012506 -0.002985 0.000000 0.000000 0.000000
# 3 0.000272 -0.002985 0.007335 0.000000 0.000000 0.000000
# 4 0.000000 0.000000 0.000000 0.059793 0.000000 0.000000
# 5 0.000000 0.000000 0.000000 0.000000 0.015048 0.000000
# 6 0.000000 0.000000 0.000000 0.000000 0.000000 -0.459597
#
#
# Mechanical properties :
#
#
# Convention : Reuss Voigt Hill
#
# Bulk Modulus (GPa) = 46.89414 52.98111 49.93762
# Shear Modulus (GPa) = -15.33429 32.43487 8.55029
#
# Velocity S-wave (km/s) = -2.72440 3.96228 2.03437
# Velocity P-wave (km/s) = 3.57799 6.82479 5.44884
#
# Compressibility (1/GPa) = 0.02132463
#
# Stress axis : x y z
#
# Youngs Moduli (GPa) = 60.19765 79.96274 136.33683
#
# Poissons Ratio (x) = 0.38792 -0.03707
# Poissons Ratio (y) = 0.29204 0.40690
# Poissons Ratio (z) = -0.01637 0.23865
#
# Static dielectric constant tensor:
#      x y z
#    x 1.751420 0.000000 0.000000 
#    y 0.000000 1.714970 0.000000 
#    z 0.000000 0.000000 1.797510 
# 
# From -- ./inp_files/32330.got.cif
#   From: 2010.05.17/outbox.cif.g08.bks.cpg/sg71_17_cif.got.tgz:32330.got - 2010.06.03 16:22:01.
