data_PCOD9522207
_publ_section_title
;
Structure prediction by ZEFSAII (Michael W. Deem and Ramdas Pophale) SiO2 
 PCOD9522207
Probable space group: I M M M
;
_chemical_formula_sum "Si O2"
_cell_formula_units_Z 96
_cell_length_a 8.624664
_cell_length_b 24.588309
_cell_length_c 23.458553
_cell_angle_alpha 90.000000
_cell_angle_beta 90.000000
_cell_angle_gamma 90.000000
_cell_volume 4974.759236
_symmetry_space_group_name_H-M "I M M M"
_symmetry_group_IT_number 71
_symmetry_cell_setting 'orthorhombic'
loop_
_space_group_symop_operation_xyz
x,y,z
-x,-y,z
x,-y,-z
-x,y,-z
-x,-y,-z
x,y,-z
-x,y,z
x,-y,z
1/2+x,1/2+y,1/2+z
1/2-x,1/2-y,1/2+z
1/2+x,1/2-y,1/2-z
1/2-x,1/2+y,1/2-z
1/2-x,1/2-y,1/2-z
1/2+x,1/2+y,1/2-z
1/2-x,1/2+y,1/2+z
1/2+x,1/2-y,1/2+z
loop_
_atom_site_type_symbol
_atom_site_label
_atom_site_fract_x
_atom_site_fract_y
_atom_site_fract_z
Si Si1 0.686049 0.061609 0.320643
Si Si2 0.687936 0.113207 0.563154
Si Si3 0.312949 0.561751 0.566781
Si Si4 0.315894 0.163961 0.864229
Si Si5 0.685718 0.223026 0.373340
Si Si6 0.817293 0.833600 0.737138
O O1 0.500000 0.072523 0.314743
O O2 0.727418 0.071080 0.387011
O O3 0.779588 0.105999 0.285673
O O4 0.715346 0.000000 0.303221
O O5 0.747805 0.101860 0.500000
O O6 0.500000 0.113294 0.560389
O O7 0.733435 0.172866 0.586118
O O8 0.271254 0.569365 0.500000
O O9 0.500000 0.563832 0.570410
O O10 0.265103 0.500000 0.583302
O O11 0.245132 0.609748 0.605049
O O12 0.500000 0.163270 0.863948
O O13 0.254887 0.219670 0.892474
O O14 0.253806 0.168530 0.799759
O O15 0.500000 0.226298 0.372860
O O16 0.741660 0.206257 0.309827
O O17 0.000000 0.823140 0.739464
#
# Coordination Sequence:
#
# PCOD9522207 Si02
#       6
#    16  16  16  16  16  16
#     4   9  18  33  53  78 109 144 183 228 274 320
#     4   8  15  29  51  79 108 140 179 222 266 311
#     4   9  20  41  65  86 111 144 182 224 269 319
#     4  12  24  37  57  85 113 143 181 222 269 329
#     4  10  20  36  56  80 112 146 182 227 276 325
#     4  11  22  37  56  78 108 145 184 228 278 330
#
# _framework density 19.297416999999999
#
# number of rings (size 3 to 8) (size 9 to 14) (size 15 to 20)
#    0.000    2.167    0.000    5.500    0.000    2.667 
#    0.000    4.167    0.000   12.000    0.000    4.667 
#    0.000    0.000    0.000    0.000    0.000    0.000 
#
# Total GULP energy -267970.893682 kJ/mol
# GULP energy per Si atom -5582.726952 kJ/mol
# Density = 1.925350 g / cm^3
# Si number density = 19.297417 Si / 1000 Ang^3
#
#
#
# Elastic Constant Matrix: (Units=GPa)
#
#
# Indices 1 2 3 4 5 6 
#
# 1 64.0493 24.5789 5.1561 0.0000 0.0000 0.0000
# 2 24.5789 94.7838 -0.8165 0.0000 0.0000 0.0000
# 3 5.1561 -0.8165 15.3329 0.0000 0.0000 0.0000
# 4 0.0000 0.0000 0.0000 9.6014 0.0000 0.0000
# 5 0.0000 0.0000 0.0000 0.0000 20.7851 0.0000
# 6 0.0000 0.0000 0.0000 0.0000 0.0000 27.7655
#
#
#
# Elastic Compliance Matrix: (Units=1/GPa)
#
#
# Indices 1 2 3 4 5 6 
#
# 1 0.017923 -0.004702 -0.006277 0.000000 0.000000 0.000000
# 2 -0.004702 0.011789 0.002209 0.000000 0.000000 0.000000
# 3 -0.006277 0.002209 0.067448 0.000000 0.000000 0.000000
# 4 0.000000 0.000000 0.000000 0.104151 0.000000 0.000000
# 5 0.000000 0.000000 0.000000 0.000000 0.048111 0.000000
# 6 0.000000 0.000000 0.000000 0.000000 0.000000 0.036016
#
#
# Mechanical properties :
#
#
# Convention : Reuss Voigt Hill
#
# Bulk Modulus (GPa) = 12.55991 25.77812 19.16902
# Shear Modulus (GPa) = 15.17372 21.31358 18.24365
#
# Velocity S-wave (km/s) = 2.80716 3.32697 3.07806
# Velocity P-wave (km/s) = 4.12669 5.30525 4.75265
#
# Compressibility (1/GPa) = 0.07961841
#
# Stress axis : x y z
#
# Youngs Moduli (GPa) = 55.79556 84.82795 14.82631
#
# Poissons Ratio (x) = 0.39883 0.09307
# Poissons Ratio (y) = 0.26233 -0.03275
# Poissons Ratio (z) = 0.35025 -0.18737
#
# Static dielectric constant tensor:
#      x y z
#    x 1.654670 0.000000 0.000000 
#    y 0.000000 1.680370 0.000000 
#    z 0.000000 0.000000 1.674660 
# 
# From -- ./inp_files/12863.got.cif
#   From: 2010.05.17/outbox.cif.g08.bks.cpg/sg71_7_cif.got.tgz:12863.got - 2010.06.03 16:22:01.
