data_PCOD9522766
_publ_section_title
;
Structure prediction by ZEFSAII (Michael W. Deem and Ramdas Pophale) SiO2 
 PCOD9522766
Probable space group: I M M M
;
_chemical_formula_sum "Si O2"
_cell_formula_units_Z 88
_cell_length_a 9.929274
_cell_length_b 28.787260
_cell_length_c 14.532944
_cell_angle_alpha 90.000000
_cell_angle_beta 90.000000
_cell_angle_gamma 90.000000
_cell_volume 4154.047188
_symmetry_space_group_name_H-M "I M M M"
_symmetry_group_IT_number 71
_symmetry_cell_setting 'orthorhombic'
loop_
_space_group_symop_operation_xyz
x,y,z
-x,-y,z
x,-y,-z
-x,y,-z
-x,-y,-z
x,y,-z
-x,y,z
x,-y,z
1/2+x,1/2+y,1/2+z
1/2-x,1/2-y,1/2+z
1/2+x,1/2-y,1/2-z
1/2-x,1/2+y,1/2-z
1/2-x,1/2-y,1/2-z
1/2+x,1/2+y,1/2-z
1/2-x,1/2+y,1/2+z
1/2+x,1/2-y,1/2+z
loop_
_atom_site_type_symbol
_atom_site_label
_atom_site_fract_x
_atom_site_fract_y
_atom_site_fract_z
Si Si1 0.843189 0.263631 0.166754
Si Si2 0.655899 0.500000 0.612099
Si Si3 0.647435 0.337557 0.394485
Si Si4 0.345690 0.086119 0.887386
Si Si5 0.347201 0.866604 0.389556
Si Si6 0.655004 0.551960 0.112583
O O1 0.750000 0.250000 0.250000
O O2 0.833890 0.217813 0.104051
O O3 0.802393 0.313759 0.128769
O O4 0.000000 0.267614 0.192867
O O5 0.500000 0.500000 0.644057
O O6 0.650416 0.500000 0.500000
O O7 0.742978 0.454934 0.639103
O O8 0.637515 0.353440 0.500000
O O9 0.500000 0.347045 0.350511
O O10 0.774259 0.365839 0.356219
O O11 0.500000 0.080721 0.855399
O O12 0.353694 0.085415 0.000000
O O13 0.351573 0.871410 0.500000
O O14 0.500000 0.872593 0.355455
O O15 0.249489 0.906698 0.354160
O O16 0.500000 0.558831 0.140228
O O17 0.698030 0.500000 0.140797
O O18 0.656623 0.552384 0.000000
#
# Coordination Sequence:
#
# PCOD9522766 Si02
#       6
#    16   8  16  16  16  16
#     4  10  21  35  50  70  96 128 164 202 245 290
#     4   9  15  23  37  59  89 123 155 185 224 279
#     4   9  17  31  50  69  91 122 159 196 237 288
#     4   9  16  25  39  63  93 120 148 188 236 279
#     4   9  17  30  49  73 100 130 166 206 245 287
#     4   8  14  25  42  68 102 133 159 192 238 291
#
# _framework density 21.184159999999999
#
# number of rings (size 3 to 8) (size 9 to 14) (size 15 to 20)
#    0.000    3.000    0.000    1.909    0.000    7.273 
#    0.000    1.818    0.000    5.455    2.364    0.000 
#    0.000    0.000    0.000    0.000    0.000    0.000 
#
# Total GULP energy -245376.015397 kJ/mol
# GULP energy per Si atom -5576.727623 kJ/mol
# Density = 2.113594 g / cm^3
# Si number density = 21.184160 Si / 1000 Ang^3
#
#
#
# Elastic Constant Matrix: (Units=GPa)
#
#
# Indices 1 2 3 4 5 6 
#
# 1 151.6945 122.7635 15.3570 0.0000 0.0000 0.0000
# 2 122.7635 182.2059 3.2258 0.0001 0.0000 0.0000
# 3 15.3570 3.2258 34.0866 0.0004 -0.0001 -0.0001
# 4 0.0000 0.0001 0.0004 15.0094 0.0000 0.0000
# 5 0.0000 0.0000 -0.0001 0.0000 10.8609 0.0000
# 6 0.0000 0.0000 -0.0001 0.0000 0.0000 37.9901
#
#
#
# Elastic Compliance Matrix: (Units=1/GPa)
#
#
# Indices 1 2 3 4 5 6 
#
# 1 0.015656 -0.010441 -0.006065 0.000000 0.000000 0.000000
# 2 -0.010441 0.012461 0.003525 0.000000 0.000000 0.000000
# 3 -0.006065 0.003525 0.031736 -0.000001 0.000000 0.000000
# 4 0.000000 0.000000 -0.000001 0.066625 0.000000 0.000000
# 5 0.000000 0.000000 0.000000 0.000000 0.092074 0.000000
# 6 0.000000 0.000000 0.000000 0.000000 0.000000 0.026323
#
#
# Mechanical properties :
#
#
# Convention : Reuss Voigt Hill
#
# Bulk Modulus (GPa) = 29.50767 72.29772 50.90269
# Shear Modulus (GPa) = 17.72209 27.88146 22.80177
#
# Velocity S-wave (km/s) = 2.89549 3.63181 3.28435
# Velocity P-wave (km/s) = 5.01377 7.19646 6.20189
#
# Compressibility (1/GPa) = 0.03388950
#
# Stress axis : x y z
#
# Youngs Moduli (GPa) = 63.87354 80.25271 31.50982
#
# Poissons Ratio (x) = 0.83792 0.19112
# Poissons Ratio (y) = 0.66690 -0.11107
# Poissons Ratio (z) = 0.38742 -0.28287
#
# Static dielectric constant tensor:
#      x y z
#    x 1.749860 0.000000 0.000000 
#    y 0.000000 1.787580 0.000000 
#    z 0.000000 0.000000 1.788760 
# 
# From -- ./inp_files/42465.got.cif
#   From: 2010.05.17/outbox.cif.g08.bks.cpg/sg71_22_cif.got.tgz:42465.got - 2010.06.03 16:22:01.
