data_PCOD9522119
_publ_section_title
;
Structure prediction by ZEFSAII (Michael W. Deem and Ramdas Pophale) SiO2 
 PCOD9522119
Probable space group: I M M M
;
_chemical_formula_sum "Si O2"
_cell_formula_units_Z 88
_cell_length_a 26.607027
_cell_length_b 7.725193
_cell_length_c 22.177090
_cell_angle_alpha 90.000000
_cell_angle_beta 90.000000
_cell_angle_gamma 90.000000
_cell_volume 4558.377073
_symmetry_space_group_name_H-M "I M M M"
_symmetry_group_IT_number 71
_symmetry_cell_setting 'orthorhombic'
loop_
_space_group_symop_operation_xyz
x,y,z
-x,-y,z
x,-y,-z
-x,y,-z
-x,-y,-z
x,y,-z
-x,y,z
x,-y,z
1/2+x,1/2+y,1/2+z
1/2-x,1/2-y,1/2+z
1/2+x,1/2-y,1/2-z
1/2-x,1/2+y,1/2-z
1/2-x,1/2-y,1/2-z
1/2+x,1/2+y,1/2-z
1/2-x,1/2+y,1/2+z
1/2+x,1/2-y,1/2+z
loop_
_atom_site_type_symbol
_atom_site_label
_atom_site_fract_x
_atom_site_fract_y
_atom_site_fract_z
Si Si1 0.893792 0.293869 0.871062
Si Si2 0.632236 0.000000 0.070895
Si Si3 0.303546 0.705830 0.865221
Si Si4 0.621093 0.304172 0.234688
Si Si5 0.440904 0.000000 0.825645
Si Si6 0.500000 0.706638 0.431000
Si Si7 0.794133 0.710005 0.066917
O O1 0.888902 0.500000 0.863739
O O2 0.881646 0.213524 0.806234
O O3 0.949326 0.259014 0.896141
O O4 0.850241 0.233027 0.916597
O O5 0.662214 0.830137 0.093809
O O6 0.579786 0.000000 0.106459
O O7 0.627339 0.000000 0.000000
O O8 0.308986 0.500000 0.878981
O O9 0.324903 0.731211 0.797418
O O10 0.246559 0.755624 0.882029
O O11 0.607235 0.500000 0.217851
O O12 0.582850 0.166384 0.207049
O O13 0.500000 0.000000 0.821439
O O14 0.500000 0.500000 0.433967
O O15 0.500000 0.774984 0.500000
O O16 0.795059 0.500000 0.064922
O O17 0.778955 0.770706 0.000000
#
# Coordination Sequence:
#
# PCOD9522119 Si02
#       7
#    16   8  16  16   8   8  16
#     4  11  22  37  60  86 113 151 197 244 293 348
#     4  10  20  35  58  90 118 149 196 234 281 352
#     4   9  19  37  59  84 118 156 190 236 289 340
#     4  10  21  38  59  86 116 150 198 242 289 346
#     4  10  22  39  60  84 116 154 191 241 296 345
#     4  11  25  43  59  81 117 157 199 247 297 348
#     4   9  18  34  57  84 114 150 192 236 289 349
#
# _framework density 19.305115000000001
#
# number of rings (size 3 to 8) (size 9 to 14) (size 15 to 20)
#    0.000    2.091    0.909    1.909    1.273    3.818 
#    3.273    0.000    0.000    0.000    0.000    5.091 
#    0.000    0.000    0.000    0.000    0.000    0.000 
#
# Total GULP energy -245462.479500 kJ/mol
# GULP energy per Si atom -5578.692716 kJ/mol
# Density = 1.926118 g / cm^3
# Si number density = 19.305115 Si / 1000 Ang^3
#
#
#
# Elastic Constant Matrix: (Units=GPa)
#
#
# Indices 1 2 3 4 5 6 
#
# 1 151.4594 21.5580 58.6967 0.0000 0.0000 0.0000
# 2 21.5580 69.1579 12.8236 0.0000 0.0000 0.0000
# 3 58.6967 12.8236 126.3816 0.0000 0.0000 0.0000
# 4 0.0000 0.0000 0.0000 252.1338 0.0000 0.0000
# 5 0.0000 0.0000 0.0000 0.0000 14.8081 0.0000
# 6 0.0000 0.0000 0.0000 0.0000 0.0000 10.9714
#
#
#
# Elastic Compliance Matrix: (Units=1/GPa)
#
#
# Indices 1 2 3 4 5 6 
#
# 1 0.008291 -0.001906 -0.003657 0.000000 0.000000 0.000000
# 2 -0.001906 0.015175 -0.000654 0.000000 0.000000 0.000000
# 3 -0.003657 -0.000654 0.009678 0.000000 0.000000 0.000000
# 4 0.000000 0.000000 0.000000 0.003966 0.000000 0.000000
# 5 0.000000 0.000000 0.000000 0.000000 0.067531 0.000000
# 6 0.000000 0.000000 0.000000 0.000000 0.000000 0.091146
#
#
# Mechanical properties :
#
#
# Convention : Reuss Voigt Hill
#
# Bulk Modulus (GPa) = 48.29099 59.23951 53.76525
# Shear Modulus (GPa) = 23.24227 72.51071 47.87649
#
# Velocity S-wave (km/s) = 3.47355 6.13530 4.98535
# Velocity P-wave (km/s) = 6.41532 8.99676 7.81339
#
# Compressibility (1/GPa) = 0.02070780
#
# Stress axis : x y z
#
# Youngs Moduli (GPa) = 120.61093 65.89669 103.33206
#
# Poissons Ratio (x) = 0.12562 0.37792
# Poissons Ratio (y) = 0.22993 0.06762
# Poissons Ratio (z) = 0.44111 0.04312
#
# Static dielectric constant tensor:
#      x y z
#    x 1.661650 0.000000 0.000000 
#    y 0.000000 1.687080 0.000000 
#    z 0.000000 0.000000 1.677660 
# 
# From -- ./inp_files/55638.got.cif
#   From: 2010.05.17/outbox.cif.g08.bks.cpg/sg71_28_cif.got.tgz:55638.got - 2010.06.03 16:22:01.
