data_PCOD9522873
_publ_section_title
;
Structure prediction by ZEFSAII (Michael W. Deem and Ramdas Pophale) SiO2 
 PCOD9522873
Probable space group: I M M M
;
_chemical_formula_sum "Si O2"
_cell_formula_units_Z 82
_cell_length_a 22.301552
_cell_length_b 22.901527
_cell_length_c 7.834963
_cell_angle_alpha 90.000000
_cell_angle_beta 90.000000
_cell_angle_gamma 90.000000
_cell_volume 4001.625832
_symmetry_space_group_name_H-M "I M M M"
_symmetry_group_IT_number 71
_symmetry_cell_setting 'orthorhombic'
loop_
_space_group_symop_operation_xyz
x,y,z
-x,-y,z
x,-y,-z
-x,y,-z
-x,-y,-z
x,y,-z
-x,y,z
x,-y,z
1/2+x,1/2+y,1/2+z
1/2-x,1/2-y,1/2+z
1/2+x,1/2-y,1/2-z
1/2-x,1/2+y,1/2-z
1/2-x,1/2-y,1/2-z
1/2+x,1/2+y,1/2-z
1/2-x,1/2+y,1/2+z
1/2+x,1/2-y,1/2+z
loop_
_atom_site_type_symbol
_atom_site_label
_atom_site_fract_x
_atom_site_fract_y
_atom_site_fract_z
Si Si1 0.832799 0.091106 0.302046
Si Si2 0.119394 0.665986 0.293234
Si Si3 0.931460 0.000000 0.708059
Si Si4 0.298030 0.062430 0.801248
Si Si5 0.500000 0.000000 0.000000
Si Si6 0.500000 0.099147 0.303041
Si Si7 0.313551 0.721046 0.697271
O O1 0.824904 0.075274 0.500000
O O2 0.892004 0.056812 0.241517
O O3 0.773048 0.069039 0.209739
O O4 0.831779 0.161035 0.288041
O O5 0.119050 0.668702 0.500000
O O6 0.170215 0.619876 0.232022
O O7 0.137104 0.729337 0.226687
O O8 0.057918 0.639553 0.226716
O O9 0.934738 0.000000 0.500000
O O10 0.000000 0.000000 0.770602
O O11 0.316430 0.000000 0.723707
O O12 0.315771 0.060341 0.000000
O O13 0.500000 0.949289 0.846908
O O14 0.500000 0.077247 0.500000
O O15 0.307594 0.705499 0.500000
O O16 0.250000 0.750000 0.750000
#
# Coordination Sequence:
#
# PCOD9522873 Si02
#       7
#    16  16   8  16   2   8  16
#     4  11  21  37  62  92 124 166 214 269 332 396
#     4  11  23  43  68  94 133 179 226 283 346 407
#     4   9  20  40  64  93 129 166 212 265 325 402
#     4  10  21  35  60  92 127 165 206 265 338 401
#     4  12  26  52  72  98 140 180 234 286 338 414
#     4  12  27  47  73 104 137 188 235 286 345 411
#     4  12  24  40  63  95 130 172 222 277 339 411
#
# _framework density 20.491669999999999
#
# number of rings (size 3 to 8) (size 9 to 14) (size 15 to 20)
#    0.000    1.073    3.902    3.073    1.366    0.780 
#    1.756    0.000    0.000    4.098    0.000    0.000 
#    0.000    0.000    0.000    0.000    0.000    0.000 
#
# Total GULP energy -228758.139731 kJ/mol
# GULP energy per Si atom -5579.466823 kJ/mol
# Density = 2.044503 g / cm^3
# Si number density = 20.491670 Si / 1000 Ang^3
#
#
#
# Elastic Constant Matrix: (Units=GPa)
#
#
# Indices 1 2 3 4 5 6 
#
# 1 112.6205 43.9331 -7.3160 0.0000 0.0000 0.0000
# 2 43.9331 154.3169 -2.8373 0.0000 0.0000 0.0000
# 3 -7.3160 -2.8373 70.6847 0.0000 0.0000 0.0000
# 4 0.0000 0.0000 0.0000 22.7148 0.0000 0.0000
# 5 0.0000 0.0000 0.0000 0.0000 29.3958 0.0000
# 6 0.0000 0.0000 0.0000 0.0000 0.0000 -6.1250
#
#
#
# Elastic Compliance Matrix: (Units=1/GPa)
#
#
# Indices 1 2 3 4 5 6 
#
# 1 0.010049 -0.002844 0.000926 0.000000 0.000000 0.000000
# 2 -0.002844 0.007290 -0.000002 0.000000 0.000000 0.000000
# 3 0.000926 -0.000002 0.014243 0.000000 0.000000 0.000000
# 4 0.000000 0.000000 0.000000 0.044024 0.000000 0.000000
# 5 0.000000 0.000000 0.000000 0.000000 0.034018 0.000000
# 6 0.000000 0.000000 0.000000 0.000000 0.000000 -0.163264
#
#
# Mechanical properties :
#
#
# Convention : Reuss Voigt Hill
#
# Bulk Modulus (GPa) = 36.04582 45.02020 40.53301
# Shear Modulus (GPa) = -123.29539 29.45325 -46.92107
#
# Velocity S-wave (km/s) = -7.76525 3.79532 -4.79034
# Velocity P-wave (km/s) = 7.92277 6.42057 3.28227
#
# Compressibility (1/GPa) = 0.02774247
#
# Stress axis : x y z
#
# Youngs Moduli (GPa) = 99.51332 137.17862 70.20947
#
# Poissons Ratio (x) = 0.39011 -0.06501
# Poissons Ratio (y) = 0.28300 0.00012
# Poissons Ratio (z) = -0.09214 0.00024
#
# Static dielectric constant tensor:
#      x y z
#    x 1.763980 0.000000 0.000000 
#    y 0.000000 1.764180 0.000000 
#    z 0.000000 0.000000 1.752630 
# 
# From -- ./inp_files/10331.got.cif
#   From: 2010.05.17/outbox.cif.g08.bks.cpg/sg71_6_cif.got.tgz:10331.got - 2010.06.03 16:22:01.
