data_PCOD9522828
_publ_section_title
;
Structure prediction by ZEFSAII (Michael W. Deem and Ramdas Pophale) SiO2 
 PCOD9522828
Probable space group: I M M M
;
_chemical_formula_sum "Si O2"
_cell_formula_units_Z 104
_cell_length_a 20.878463
_cell_length_b 8.879000
_cell_length_c 26.785416
_cell_angle_alpha 90.000000
_cell_angle_beta 90.000000
_cell_angle_gamma 90.000000
_cell_volume 4965.477016
_symmetry_space_group_name_H-M "I M M M"
_symmetry_group_IT_number 71
_symmetry_cell_setting 'orthorhombic'
loop_
_space_group_symop_operation_xyz
x,y,z
-x,-y,z
x,-y,-z
-x,y,-z
-x,-y,-z
x,y,-z
-x,y,z
x,-y,z
1/2+x,1/2+y,1/2+z
1/2-x,1/2-y,1/2+z
1/2+x,1/2-y,1/2-z
1/2-x,1/2+y,1/2-z
1/2-x,1/2-y,1/2-z
1/2+x,1/2+y,1/2-z
1/2-x,1/2+y,1/2+z
1/2+x,1/2-y,1/2+z
loop_
_atom_site_type_symbol
_atom_site_label
_atom_site_fract_x
_atom_site_fract_y
_atom_site_fract_z
Si Si1 0.100805 0.323879 0.310660
Si Si2 0.205294 0.682088 0.555384
Si Si3 0.425522 0.684072 0.500000
Si Si4 0.429405 0.320363 0.086252
Si Si5 0.576793 0.326841 0.606651
Si Si6 0.871039 0.321417 0.204285
Si Si7 0.749872 0.825003 0.161858
O O1 0.080933 0.500000 0.315440
O O2 0.072119 0.227954 0.355503
O O3 0.092642 0.266864 0.254175
O O4 0.177448 0.318375 0.318817
O O5 0.228814 0.724698 0.500000
O O6 0.203453 0.500000 0.558076
O O7 0.132523 0.741485 0.562180
O O8 0.245689 0.731232 0.604164
O O9 0.425460 0.500000 0.500000
O O10 0.500000 0.732718 0.500000
O O11 0.396997 0.729258 0.553161
O O12 0.500000 0.277847 0.066171
O O13 0.422384 0.500000 0.081488
O O14 0.500000 0.329849 0.602307
O O15 0.597861 0.500000 0.613778
O O16 0.595186 0.229972 0.653810
O O17 0.869443 0.500000 0.208940
O O18 0.799045 0.262372 0.196561
O O19 0.768854 0.000000 0.161662
#
# Coordination Sequence:
#
# PCOD9522828 Si02
#       7
#    16  16   8  16  16  16  16
#     4   9  20  37  55  74 101 140 180 218 260 310
#     4   9  19  37  59  81 107 142 183 224 265 312
#     4   7  12  28  53  73  89 119 165 207 240 281
#     4  10  21  35  53  81 113 143 178 221 269 319
#     4   9  18  34  55  76  99 131 172 215 256 302
#     4  11  22  34  51  79 110 137 169 213 267 321
#     4   9  18  35  56  76 100 134 178 221 259 305
#
# _framework density 20.944611999999999
#
# number of rings (size 3 to 8) (size 9 to 14) (size 15 to 20)
#    0.000    2.692    0.000    3.231    0.000    6.462 
#    1.385    5.000    0.000    1.385    0.000    0.000 
#    0.000    0.000    0.000    0.000    0.000    0.000 
#
# Total GULP energy -290067.362841 kJ/mol
# GULP energy per Si atom -5578.218516 kJ/mol
# Density = 2.089694 g / cm^3
# Si number density = 20.944612 Si / 1000 Ang^3
#
#
#
# Elastic Constant Matrix: (Units=GPa)
#
#
# Indices 1 2 3 4 5 6 
#
# 1 32.1545 -2.0515 -9.2757 0.0000 0.0000 0.0000
# 2 -2.0515 13.9519 6.1176 0.0000 0.0000 0.0000
# 3 -9.2757 6.1176 115.1923 0.0000 0.0000 0.0000
# 4 0.0000 0.0000 0.0000 26.6782 0.0000 0.0000
# 5 0.0000 0.0000 0.0000 0.0000 17.1876 0.0000
# 6 0.0000 0.0000 0.0000 0.0000 0.0000 23.1528
#
#
#
# Elastic Compliance Matrix: (Units=1/GPa)
#
#
# Indices 1 2 3 4 5 6 
#
# 1 0.032021 0.003663 0.002384 0.000000 0.000000 0.000000
# 2 0.003663 0.073803 -0.003625 0.000000 0.000000 0.000000
# 3 0.002384 -0.003625 0.009066 0.000000 0.000000 0.000000
# 4 0.000000 0.000000 0.000000 0.037484 0.000000 0.000000
# 5 0.000000 0.000000 0.000000 0.000000 0.058182 0.000000
# 6 0.000000 0.000000 0.000000 0.000000 0.000000 0.043191
#
#
# Mechanical properties :
#
#
# Convention : Reuss Voigt Hill
#
# Bulk Modulus (GPa) = 8.35179 16.76439 12.55809
# Shear Modulus (GPa) = 17.31226 24.50428 20.90827
#
# Velocity S-wave (km/s) = 2.87814 3.42417 3.16296
# Velocity P-wave (km/s) = 3.87829 4.86362 4.39863
#
# Compressibility (1/GPa) = 0.11973476
#
# Stress axis : x y z
#
# Youngs Moduli (GPa) = 31.22925 13.54963 110.30724
#
# Poissons Ratio (x) = -0.04963 -0.26296
# Poissons Ratio (y) = -0.11440 0.39981
# Poissons Ratio (z) = -0.07445 0.04911
#
# Static dielectric constant tensor:
#      x y z
#    x 1.789120 0.000000 0.000000 
#    y 0.000000 1.700680 0.000000 
#    z 0.000000 0.000000 1.809810 
# 
# From -- ./inp_files/66775.got.cif
#   From: 2010.05.17/outbox.cif.g08.bks.cpg/sg71_34_cif.got.tgz:66775.got - 2010.06.03 16:22:01.
