data_PCOD9522696
_publ_section_title
;
Structure prediction by ZEFSAII (Michael W. Deem and Ramdas Pophale) SiO2 
 PCOD9522696
Probable space group: I M M M
;
_chemical_formula_sum "Si O2"
_cell_formula_units_Z 84
_cell_length_a 17.112164
_cell_length_b 19.579258
_cell_length_c 14.316439
_cell_angle_alpha 90.000000
_cell_angle_beta 90.000000
_cell_angle_gamma 90.000000
_cell_volume 4796.629456
_symmetry_space_group_name_H-M "I M M M"
_symmetry_group_IT_number 71
_symmetry_cell_setting 'orthorhombic'
loop_
_space_group_symop_operation_xyz
x,y,z
-x,-y,z
x,-y,-z
-x,y,-z
-x,-y,-z
x,y,-z
-x,y,z
x,-y,z
1/2+x,1/2+y,1/2+z
1/2-x,1/2-y,1/2+z
1/2+x,1/2-y,1/2-z
1/2-x,1/2+y,1/2-z
1/2-x,1/2-y,1/2-z
1/2+x,1/2+y,1/2-z
1/2-x,1/2+y,1/2+z
1/2+x,1/2-y,1/2+z
loop_
_atom_site_type_symbol
_atom_site_label
_atom_site_fract_x
_atom_site_fract_y
_atom_site_fract_z
Si Si1 0.691534 0.500000 0.500000
Si Si2 0.192168 0.870814 0.674877
Si Si3 0.589885 0.581973 0.000000
Si Si4 0.911589 0.500000 0.808204
Si Si5 0.910524 0.782900 0.807617
Si Si6 0.868016 0.355464 0.108303
Si Si7 0.250127 0.500000 0.293120
Si Si8 0.407720 0.637904 0.500000
O O1 0.738953 0.500000 0.403619
O O2 0.639100 0.432141 0.500000
O O3 0.134928 0.893528 0.592038
O O4 0.150642 0.810552 0.732222
O O5 0.275392 0.852798 0.629167
O O6 0.209886 0.933855 0.745132
O O7 0.591114 0.500000 0.000000
O O8 0.500000 0.605112 0.000000
O O9 0.898047 0.568765 0.867937
O O10 0.841255 0.500000 0.733793
O O11 0.000000 0.500000 0.771450
O O12 0.905391 0.702341 0.826690
O O13 0.000000 0.801397 0.782214
O O14 0.891275 0.819039 0.906568
O O15 0.884113 0.340598 0.000000
O O16 0.500000 0.623049 0.500000
#
# Coordination Sequence:
#
# PCOD9522696 Si02
#       8
#     4  16   8   8  16  16   8   8
#     4  12  19  40  57  84 116 156 206 228 275 342
#     4  11  21  39  56  86 118 157 198 238 286 342
#     4  11  22  35  58  87 121 161 198 236 282 340
#     4  10  23  40  60  88 115 145 193 251 302 349
#     4  11  22  37  56  84 119 152 191 238 293 349
#     4  11  22  37  62  85 114 152 195 245 301 354
#     4  10  22  35  62  84 114 153 197 240 282 346
#     4  10  21  33  55  84 119 152 187 238 282 336
#
# _framework density 17.512297
#
# number of rings (size 3 to 8) (size 9 to 14) (size 15 to 20)
#    0.000    1.238    4.762    2.143    0.000    1.524 
#    0.000    0.238    0.000    0.000    0.000    0.000 
#    0.000    0.000    0.000    0.000    0.000    0.000 
#
# Total GULP energy -234549.157187 kJ/mol
# GULP energy per Si atom -5584.503743 kJ/mol
# Density = 1.747244 g / cm^3
# Si number density = 17.512297 Si / 1000 Ang^3
#
#
#
# Elastic Constant Matrix: (Units=GPa)
#
#
# Indices 1 2 3 4 5 6 
#
# 1 96.0095 28.0695 39.7595 0.0000 0.0000 0.0000
# 2 28.0695 96.1262 24.3731 0.0000 0.0000 0.0000
# 3 39.7595 24.3731 101.5202 0.0000 0.0000 0.0000
# 4 0.0000 0.0000 0.0000 27.8433 0.0000 0.0000
# 5 0.0000 0.0000 0.0000 0.0000 -4.9937 0.0000
# 6 0.0000 0.0000 0.0000 0.0000 0.0000 23.6839
#
#
#
# Elastic Compliance Matrix: (Units=1/GPa)
#
#
# Indices 1 2 3 4 5 6 
#
# 1 0.013049 -0.002678 -0.004468 0.000000 0.000000 0.000000
# 2 -0.002678 0.011627 -0.001743 0.000000 0.000000 0.000000
# 3 -0.004468 -0.001743 0.012018 0.000000 0.000000 0.000000
# 4 0.000000 0.000000 0.000000 0.035915 0.000000 0.000000
# 5 0.000000 0.000000 0.000000 0.000000 -0.200254 0.000000
# 6 0.000000 0.000000 0.000000 0.000000 0.000000 0.042223
#
#
# Mechanical properties :
#
#
# Convention : Reuss Voigt Hill
#
# Bulk Modulus (GPa) = 52.85958 53.11777 52.98868
# Shear Modulus (GPa) = -81.51195 22.73696 -29.38749
#
# Velocity S-wave (km/s) = -6.82983 3.60716 -4.10091
# Velocity P-wave (km/s) = 5.65205 6.90987 2.81076
#
# Compressibility (1/GPa) = 0.01891805
#
# Stress axis : x y z
#
# Youngs Moduli (GPa) = 76.63694 86.00881 83.20624
#
# Poissons Ratio (x) = 0.23029 0.37173
# Poissons Ratio (y) = 0.20520 0.14501
# Poissons Ratio (z) = 0.34238 0.14989
#
# Static dielectric constant tensor:
#      x y z
#    x 1.588210 0.000000 0.000000 
#    y 0.000000 1.593490 0.000000 
#    z 0.000000 0.000000 1.557520 
# 
# From -- ./inp_files/34477.got.cif
#   From: 2010.05.17/outbox.cif.g08.bks.cpg/sg71_18_cif.got.tgz:34477.got - 2010.06.03 16:22:01.
