data_PCOD9522162
_publ_section_title
;
Structure prediction by ZEFSAII (Michael W. Deem and Ramdas Pophale) SiO2 
 PCOD9522162
Probable space group: I M M M
;
_chemical_formula_sum "Si O2"
_cell_formula_units_Z 64
_cell_length_a 19.986526
_cell_length_b 14.261980
_cell_length_c 10.840647
_cell_angle_alpha 90.000000
_cell_angle_beta 90.000000
_cell_angle_gamma 90.000000
_cell_volume 3090.098611
_symmetry_space_group_name_H-M "I M M M"
_symmetry_group_IT_number 71
_symmetry_cell_setting 'orthorhombic'
loop_
_space_group_symop_operation_xyz
x,y,z
-x,-y,z
x,-y,-z
-x,y,-z
-x,-y,-z
x,y,-z
-x,y,z
x,-y,z
1/2+x,1/2+y,1/2+z
1/2-x,1/2-y,1/2+z
1/2+x,1/2-y,1/2-z
1/2-x,1/2+y,1/2-z
1/2-x,1/2-y,1/2-z
1/2+x,1/2+y,1/2-z
1/2-x,1/2+y,1/2+z
1/2+x,1/2-y,1/2+z
loop_
_atom_site_type_symbol
_atom_site_label
_atom_site_fract_x
_atom_site_fract_y
_atom_site_fract_z
Si Si1 0.191486 0.826617 0.238266
Si Si2 0.079395 0.315236 0.773050
Si Si3 0.261094 0.000000 0.134115
Si Si4 0.076247 0.304205 0.500000
Si Si5 0.140028 0.500000 0.134198
Si Si6 0.861926 0.108105 0.500000
O O1 0.250000 0.750000 0.250000
O O2 0.124845 0.773360 0.192477
O O3 0.215726 0.908128 0.149210
O O4 0.178264 0.870676 0.374058
O O5 0.103668 0.336254 0.631418
O O6 0.095996 0.406555 0.851522
O O7 0.000000 0.295892 0.772245
O O8 0.308930 0.000000 0.252724
O O9 0.294609 0.000000 0.000000
O O10 0.082438 0.190776 0.500000
O O11 0.000000 0.335506 0.500000
O O12 0.173616 0.500000 0.000000
O O13 0.884375 0.000000 0.500000
#
# Coordination Sequence:
#
# PCOD9522162 Si02
#       6
#    16  16   8   8   8   8
#     4  11  23  40  64  93 130 173 220 270 329 394
#     4  10  22  41  66  97 136 175 220 274 330 394
#     4  12  28  43  66 101 130 169 222 276 330 392
#     4   8  18  36  60  94 129 170 212 258 325 387
#     4  12  27  42  67 100 133 174 221 273 337 401
#     4  10  20  35  61  89 123 166 213 270 325 378
#
# _framework density 20.711313000000001
#
# number of rings (size 3 to 8) (size 9 to 14) (size 15 to 20)
#    0.000    1.500    3.750    0.375    5.250    2.250 
#    0.000    2.500    0.000    0.750    0.000    0.000 
#    0.000    0.000    0.000    0.000    0.000    0.000 
#
# Total GULP energy -178670.757272 kJ/mol
# GULP energy per Si atom -5583.461165 kJ/mol
# Density = 2.066417 g / cm^3
# Si number density = 20.711313 Si / 1000 Ang^3
#
#
#
# Elastic Constant Matrix: (Units=GPa)
#
#
# Indices 1 2 3 4 5 6 
#
# 1 100.2489 37.3307 24.1417 0.0000 0.0000 0.0000
# 2 37.3307 121.4329 35.1769 0.0000 0.0000 0.0000
# 3 24.1417 35.1769 100.1536 0.0000 0.0000 0.0000
# 4 0.0000 0.0000 0.0000 19.2120 0.0000 0.0000
# 5 0.0000 0.0000 0.0000 0.0000 24.0241 0.0000
# 6 0.0000 0.0000 0.0000 0.0000 0.0000 9.9227
#
#
#
# Elastic Compliance Matrix: (Units=1/GPa)
#
#
# Indices 1 2 3 4 5 6 
#
# 1 0.011521 -0.003047 -0.001707 0.000000 0.000000 0.000000
# 2 -0.003047 0.009974 -0.002769 0.000000 0.000000 0.000000
# 3 -0.001707 -0.002769 0.011368 0.000000 0.000000 0.000000
# 4 0.000000 0.000000 0.000000 0.052051 0.000000 0.000000
# 5 0.000000 0.000000 0.000000 0.000000 0.041625 0.000000
# 6 0.000000 0.000000 0.000000 0.000000 0.000000 0.100779
#
#
# Mechanical properties :
#
#
# Convention : Reuss Voigt Hill
#
# Bulk Modulus (GPa) = 56.12324 57.23710 56.68017
# Shear Modulus (GPa) = 20.13669 25.64416 22.89042
#
# Velocity S-wave (km/s) = 3.12148 3.52258 3.32808
# Velocity P-wave (km/s) = 6.33626 6.65135 6.49572
#
# Compressibility (1/GPa) = 0.01781793
#
# Stress axis : x y z
#
# Youngs Moduli (GPa) = 86.79836 100.26270 87.96260
#
# Poissons Ratio (x) = 0.30553 0.15013
# Poissons Ratio (y) = 0.26450 0.24353
# Poissons Ratio (z) = 0.14815 0.27758
#
# Static dielectric constant tensor:
#      x y z
#    x 1.734740 0.000000 0.000000 
#    y 0.000000 1.729590 0.000000 
#    z 0.000000 0.000000 1.779470 
# 
# From -- ./inp_files/23247.got.cif
#   From: 2010.05.17/outbox.cif.g08.bks.cpg/sg71_12_cif.got.tgz:23247.got - 2010.06.03 16:22:01.
