data_PCOD9522749
_publ_section_title
;
Structure prediction by ZEFSAII (Michael W. Deem and Ramdas Pophale) SiO2 
 PCOD9522749
Probable space group: I M M M
;
_chemical_formula_sum "Si O2"
_cell_formula_units_Z 58
_cell_length_a 8.104966
_cell_length_b 14.778489
_cell_length_c 26.309132
_cell_angle_alpha 90.000000
_cell_angle_beta 90.000000
_cell_angle_gamma 90.000000
_cell_volume 3151.285491
_symmetry_space_group_name_H-M "I M M M"
_symmetry_group_IT_number 71
_symmetry_cell_setting 'orthorhombic'
loop_
_space_group_symop_operation_xyz
x,y,z
-x,-y,z
x,-y,-z
-x,y,-z
-x,-y,-z
x,y,-z
-x,y,z
x,-y,z
1/2+x,1/2+y,1/2+z
1/2-x,1/2-y,1/2+z
1/2+x,1/2-y,1/2-z
1/2-x,1/2+y,1/2-z
1/2-x,1/2-y,1/2-z
1/2+x,1/2+y,1/2-z
1/2-x,1/2+y,1/2+z
1/2+x,1/2-y,1/2+z
loop_
_atom_site_type_symbol
_atom_site_label
_atom_site_fract_x
_atom_site_fract_y
_atom_site_fract_z
Si Si1 0.693525 0.802198 0.300981
Si Si2 0.694948 0.811075 0.895750
Si Si3 0.000000 0.500000 0.500000
Si Si4 0.811328 0.853791 0.000000
Si Si5 0.799982 0.500000 0.655438
Si Si6 0.194362 0.000000 0.727860
O O1 0.500000 0.787770 0.305784
O O2 0.750000 0.750000 0.250000
O O3 0.775807 0.759546 0.350691
O O4 0.731392 0.907872 0.294240
O O5 0.500000 0.815816 0.905521
O O6 0.788384 0.796729 0.948374
O O7 0.748221 0.909767 0.874467
O O8 0.152219 0.422447 0.500000
O O9 0.000000 0.891414 0.000000
O O10 0.728670 0.500000 0.711755
O O11 0.000000 0.500000 0.659356
O O12 0.000000 0.000000 0.719004
#
# Coordination Sequence:
#
# PCOD9522749 Si02
#       6
#    16  16   2   8   8   8
#     4  12  24  40  61  90 124 165 209 260 316 383
#     4  11  22  40  64  89 126 168 211 264 314 373
#     4  12  22  44  60  94 136 166 214 272 316 376
#     4  12  25  41  63  91 126 176 218 260 321 386
#     4  10  21  34  58  86 123 165 203 251 309 369
#     4  12  24  39  60  89 122 162 207 258 318 373
#
# _framework density 18.405189
#
# number of rings (size 3 to 8) (size 9 to 14) (size 15 to 20)
#    0.000    0.552    4.138    5.586    1.931    1.103 
#    0.000    0.000    0.000    0.828    0.000    5.793 
#    0.000    0.000    0.000    0.000    0.000    0.000 
#
# Total GULP energy -161826.796161 kJ/mol
# GULP energy per Si atom -5580.234350 kJ/mol
# Density = 1.836330 g / cm^3
# Si number density = 18.405189 Si / 1000 Ang^3
#
#
#
# Elastic Constant Matrix: (Units=GPa)
#
#
# Indices 1 2 3 4 5 6 
#
# 1 86.4923 7.9020 27.4326 0.0000 0.0000 0.0000
# 2 7.9020 100.9414 50.5550 -0.0001 0.0000 0.0000
# 3 27.4326 50.5550 141.6746 0.0000 0.0000 0.0000
# 4 0.0000 -0.0001 0.0000 -625.7135 0.0000 0.0000
# 5 0.0000 0.0000 0.0000 0.0000 32.2965 0.0000
# 6 0.0000 0.0000 0.0000 0.0000 0.0000 26.9422
#
#
#
# Elastic Compliance Matrix: (Units=1/GPa)
#
#
# Indices 1 2 3 4 5 6 
#
# 1 0.012325 0.000281 -0.002487 0.000000 0.000000 0.000000
# 2 0.000281 0.012069 -0.004361 0.000000 0.000000 0.000000
# 3 -0.002487 -0.004361 0.009096 0.000000 0.000000 0.000000
# 4 0.000000 0.000000 0.000000 -0.001598 0.000000 0.000000
# 5 0.000000 0.000000 0.000000 0.000000 0.030963 0.000000
# 6 0.000000 0.000000 0.000000 0.000000 0.000000 0.037117
#
#
# Mechanical properties :
#
#
# Convention : Reuss Voigt Hill
#
# Bulk Modulus (GPa) = 49.12622 55.65418 52.39020
# Shear Modulus (GPa) = 41.70474 -97.08039 -27.68782
#
# Velocity S-wave (km/s) = 4.76534 -7.27054 -3.88280
# Velocity P-wave (km/s) = 7.55165 6.33853 2.90262
#
# Compressibility (1/GPa) = 0.02035573
#
# Stress axis : x y z
#
# Youngs Moduli (GPa) = 81.13755 82.85751 109.93757
#
# Poissons Ratio (x) = -0.02325 0.27337
# Poissons Ratio (y) = -0.02276 0.47944
# Poissons Ratio (z) = 0.20175 0.36134
#
# Static dielectric constant tensor:
#      x y z
#    x 1.646770 0.000000 0.000000 
#    y 0.000000 1.720370 0.000000 
#    z 0.000000 0.000000 1.883380 
# 
# From -- ./inp_files/38740.got.cif
#   From: 2010.05.17/outbox.cif.g08.bks.cpg/sg71_20_cif.got.tgz:38740.got - 2010.06.03 16:22:01.
