data_PCOD9522890
_publ_section_title
;
Structure prediction by ZEFSAII (Michael W. Deem and Ramdas Pophale) SiO2 
 PCOD9522890
Probable space group: I M M M
;
_chemical_formula_sum "Si O2"
_cell_formula_units_Z 96
_cell_length_a 8.608349
_cell_length_b 24.777950
_cell_length_c 24.686613
_cell_angle_alpha 90.000000
_cell_angle_beta 90.000000
_cell_angle_gamma 90.000000
_cell_volume 5265.586445
_symmetry_space_group_name_H-M "I M M M"
_symmetry_group_IT_number 71
_symmetry_cell_setting 'orthorhombic'
loop_
_space_group_symop_operation_xyz
x,y,z
-x,-y,z
x,-y,-z
-x,y,-z
-x,-y,-z
x,y,-z
-x,y,z
x,-y,z
1/2+x,1/2+y,1/2+z
1/2-x,1/2-y,1/2+z
1/2+x,1/2-y,1/2-z
1/2-x,1/2+y,1/2-z
1/2-x,1/2-y,1/2-z
1/2+x,1/2+y,1/2-z
1/2-x,1/2+y,1/2+z
1/2+x,1/2-y,1/2+z
loop_
_atom_site_type_symbol
_atom_site_label
_atom_site_fract_x
_atom_site_fract_y
_atom_site_fract_z
Si Si1 0.814572 0.938550 0.729998
Si Si2 0.187443 0.648849 0.438452
Si Si3 0.687605 0.061265 0.850496
Si Si4 0.312254 0.230798 0.438435
Si Si5 0.673398 0.436945 0.935665
Si Si6 0.322248 0.139627 0.640972
O O1 0.754288 0.929007 0.790753
O O2 0.758715 0.890888 0.690646
O O3 0.000000 0.939325 0.729623
O O4 0.761591 0.000000 0.714010
O O5 0.226209 0.631784 0.500000
O O6 0.239170 0.605396 0.394157
O O7 0.259258 0.707889 0.429915
O O8 0.000000 0.653491 0.435293
O O9 0.500000 0.063447 0.847387
O O10 0.730789 0.000000 0.866524
O O11 0.260635 0.214563 0.500000
O O12 0.500000 0.227720 0.438381
O O13 0.255950 0.192731 0.389255
O O14 0.500000 0.418439 0.917752
O O15 0.683681 0.500000 0.922620
O O16 0.806294 0.404039 0.906920
O O17 0.680779 0.431371 0.000000
O O18 0.500000 0.150112 0.656081
#
# Coordination Sequence:
#
# PCOD9522890 Si02
#       6
#    16  16  16  16  16  16
#     4  10  21  36  53  74 102 136 174 215 258 305
#     4   9  18  33  55  83 110 135 165 201 245 301
#     4   9  18  34  56  81 109 137 164 200 248 301
#     4   9  19  35  52  72 102 138 173 212 257 301
#     4   9  18  31  45  64  93 127 163 208 262 313
#     4  11  21  32  49  72  97 130 175 219 259 305
#
# _framework density 18.231587000000001
#
# number of rings (size 3 to 8) (size 9 to 14) (size 15 to 20)
#    0.000    2.500    0.000    2.500    0.000    6.667 
#    0.000    5.000    0.000    0.000    0.000    4.667 
#    0.000    0.000    0.000    0.000    0.000    0.000 
#
# Total GULP energy -267524.067054 kJ/mol
# GULP energy per Si atom -5573.418064 kJ/mol
# Density = 1.819009 g / cm^3
# Si number density = 18.231587 Si / 1000 Ang^3
#
#
#
# Elastic Constant Matrix: (Units=GPa)
#
#
# Indices 1 2 3 4 5 6 
#
# 1 13.0474 21.7394 22.8009 0.0000 0.0000 0.0000
# 2 21.7394 112.4550 92.1675 0.0000 0.0000 0.0000
# 3 22.8009 92.1675 122.3158 0.0000 0.0000 0.0000
# 4 0.0000 0.0000 0.0000 38.0781 0.0000 0.0000
# 5 0.0000 0.0000 0.0000 0.0000 20.5733 0.0000
# 6 0.0000 0.0000 0.0000 0.0000 0.0000 23.3743
#
#
#
# Elastic Compliance Matrix: (Units=1/GPa)
#
#
# Indices 1 2 3 4 5 6 
#
# 1 0.120281 -0.012750 -0.012815 0.000000 0.000000 0.000000
# 2 -0.012750 0.024605 -0.016163 0.000000 0.000000 0.000000
# 3 -0.012815 -0.016163 0.022744 0.000000 0.000000 0.000000
# 4 0.000000 0.000000 0.000000 0.026262 0.000000 0.000000
# 5 0.000000 0.000000 0.000000 0.000000 0.048607 0.000000
# 6 0.000000 0.000000 0.000000 0.000000 0.000000 0.042782
#
#
# Mechanical properties :
#
#
# Convention : Reuss Voigt Hill
#
# Bulk Modulus (GPa) = 11.88007 57.91488 34.89748
# Shear Modulus (GPa) = 12.60099 23.81247 18.20673
#
# Velocity S-wave (km/s) = 2.63185 3.61794 3.16355
# Velocity P-wave (km/s) = 3.97062 7.02053 5.70323
#
# Compressibility (1/GPa) = 0.08417456
#
# Stress axis : x y z
#
# Youngs Moduli (GPa) = 8.31384 40.64279 43.96798
#
# Poissons Ratio (x) = 0.51818 0.56343
# Poissons Ratio (y) = 0.10600 0.71067
# Poissons Ratio (z) = 0.10654 0.65693
#
# Static dielectric constant tensor:
#      x y z
#    x 1.639140 0.000000 0.000000 
#    y 0.000000 1.623140 0.000000 
#    z 0.000000 0.000000 1.625860 
# 
# From -- ./inp_files/12810.got.cif
#   From: 2010.05.17/outbox.cif.g08.bks.cpg/sg71_7_cif.got.tgz:12810.got - 2010.06.03 16:22:01.
