data_PCOD9522942
_publ_section_title
;
Structure prediction by ZEFSAII (Michael W. Deem and Ramdas Pophale) SiO2 
 PCOD9522942
Probable space group: I M M M
;
_chemical_formula_sum "Si O2"
_cell_formula_units_Z 80
_cell_length_a 28.893826
_cell_length_b 10.719087
_cell_length_c 14.038552
_cell_angle_alpha 90.000000
_cell_angle_beta 90.000000
_cell_angle_gamma 90.000000
_cell_volume 4347.956235
_symmetry_space_group_name_H-M "I M M M"
_symmetry_group_IT_number 71
_symmetry_cell_setting 'orthorhombic'
loop_
_space_group_symop_operation_xyz
x,y,z
-x,-y,z
x,-y,-z
-x,y,-z
-x,-y,-z
x,y,-z
-x,y,z
x,-y,z
1/2+x,1/2+y,1/2+z
1/2-x,1/2-y,1/2+z
1/2+x,1/2-y,1/2-z
1/2-x,1/2+y,1/2-z
1/2-x,1/2-y,1/2-z
1/2+x,1/2+y,1/2-z
1/2-x,1/2+y,1/2+z
1/2+x,1/2-y,1/2+z
loop_
_atom_site_type_symbol
_atom_site_label
_atom_site_fract_x
_atom_site_fract_y
_atom_site_fract_z
Si Si1 0.603520 0.649905 0.106066
Si Si2 0.448576 0.349318 0.294818
Si Si3 0.208144 0.365698 0.192072
Si Si4 0.793145 0.258197 0.391184
Si Si5 0.146541 0.143544 0.887962
O O1 0.608643 0.500000 0.113014
O O2 0.570136 0.691206 0.191136
O O3 0.654297 0.709513 0.115012
O O4 0.585551 0.678428 0.000000
O O5 0.500000 0.301249 0.316291
O O6 0.451767 0.500000 0.292057
O O7 0.407056 0.323410 0.367628
O O8 0.187296 0.500000 0.168000
O O9 0.214811 0.355928 0.306005
O O10 0.256514 0.348752 0.136960
O O11 0.177705 0.246621 0.162685
O O12 0.784784 0.300251 0.500000
O O13 0.154223 0.000000 0.853597
O O14 0.155993 0.146023 0.000000
#
# Coordination Sequence:
#
# PCOD9522942 Si02
#       5
#    16  16  16  16  16
#     4   9  16  28  49  76 107 140 174 219 274 327
#     4   9  17  30  50  77 107 139 181 231 278 326
#     4  11  23  37  57  85 115 147 185 227 269 320
#     4  10  21  36  54  78 110 148 184 219 265 322
#     4  10  21  37  56  79 111 149 186 227 278 331
#
# _framework density 18.399450000000002
#
# number of rings (size 3 to 8) (size 9 to 14) (size 15 to 20)
#    0.000    2.200    2.000    1.200    0.000    6.800 
#    0.000    4.000    0.000    0.600    0.000    1.400 
#    0.000    3.200    0.000    0.000    0.000    0.000 
#
# Total GULP energy -222926.647941 kJ/mol
# GULP energy per Si atom -5573.166199 kJ/mol
# Density = 1.835757 g / cm^3
# Si number density = 18.399450 Si / 1000 Ang^3
#
#
#
# Elastic Constant Matrix: (Units=GPa)
#
#
# Indices 1 2 3 4 5 6 
#
# 1 74.4616 33.5250 10.8503 0.0000 0.0000 0.0000
# 2 33.5250 74.4408 27.0473 0.0000 0.0000 0.0000
# 3 10.8503 27.0473 81.9713 0.0000 0.0000 0.0000
# 4 0.0000 0.0000 0.0000 1.9407 0.0000 0.0000
# 5 0.0000 0.0000 0.0000 0.0000 16.5699 0.0000
# 6 0.0000 0.0000 0.0000 0.0000 0.0000 7.5134
#
#
#
# Elastic Compliance Matrix: (Units=1/GPa)
#
#
# Indices 1 2 3 4 5 6 
#
# 1 0.016852 -0.007703 0.000311 0.000000 0.000000 0.000000
# 2 -0.007703 0.018784 -0.005178 0.000000 0.000000 0.000000
# 3 0.000311 -0.005178 0.013867 0.000000 0.000000 0.000000
# 4 0.000000 0.000000 0.000000 0.515266 0.000000 0.000000
# 5 0.000000 0.000000 0.000000 0.000000 0.060350 0.000000
# 6 0.000000 0.000000 0.000000 0.000000 0.000000 0.133095
#
#
# Mechanical properties :
#
#
# Convention : Reuss Voigt Hill
#
# Bulk Modulus (GPa) = 41.04583 41.52432 41.28507
# Shear Modulus (GPa) = 6.31731 15.83488 11.07609
#
# Velocity S-wave (km/s) = 1.85496 2.93681 2.45619
# Velocity P-wave (km/s) = 5.19080 5.84098 5.52546
#
# Compressibility (1/GPa) = 0.02436301
#
# Stress axis : x y z
#
# Youngs Moduli (GPa) = 59.33878 53.23703 72.11405
#
# Poissons Ratio (x) = 0.41006 -0.02242
# Poissons Ratio (y) = 0.45706 0.37344
# Poissons Ratio (z) = -0.01844 0.27568
#
# Static dielectric constant tensor:
#      x y z
#    x 1.642780 0.000000 0.000000 
#    y 0.000000 1.634880 0.000000 
#    z 0.000000 0.000000 1.671260 
# 
# From -- ./inp_files/22161.got.cif
#   From: 2010.05.17/outbox.cif.g08.bks.cpg/sg71_12_cif.got.tgz:22161.got - 2010.06.03 16:22:01.
