data_PCOD9522168
_publ_section_title
;
Structure prediction by ZEFSAII (Michael W. Deem and Ramdas Pophale) SiO2 
 PCOD9522168
Probable space group: I M M M
;
_chemical_formula_sum "Si O2"
_cell_formula_units_Z 108
_cell_length_a 25.008278
_cell_length_b 16.253186
_cell_length_c 15.124949
_cell_angle_alpha 90.000000
_cell_angle_beta 90.000000
_cell_angle_gamma 90.000000
_cell_volume 6147.750203
_symmetry_space_group_name_H-M "I M M M"
_symmetry_group_IT_number 71
_symmetry_cell_setting 'orthorhombic'
loop_
_space_group_symop_operation_xyz
x,y,z
-x,-y,z
x,-y,-z
-x,y,-z
-x,-y,-z
x,y,-z
-x,y,z
x,-y,z
1/2+x,1/2+y,1/2+z
1/2-x,1/2-y,1/2+z
1/2+x,1/2-y,1/2-z
1/2-x,1/2+y,1/2-z
1/2-x,1/2-y,1/2-z
1/2+x,1/2+y,1/2-z
1/2-x,1/2+y,1/2+z
1/2+x,1/2-y,1/2+z
loop_
_atom_site_type_symbol
_atom_site_label
_atom_site_fract_x
_atom_site_fract_y
_atom_site_fract_z
Si Si1 0.355037 0.273951 0.397289
Si Si2 0.755256 0.654564 0.865792
Si Si3 0.310207 0.815812 0.902905
Si Si4 0.214407 0.903217 0.823425
Si Si5 0.563984 0.140472 0.398627
Si Si6 0.741910 0.000000 0.500000
Si Si7 0.894607 0.594361 0.711167
Si Si8 0.500000 0.900798 0.100708
O O1 0.347652 0.294644 0.500000
O O2 0.311248 0.203464 0.374142
O O3 0.339782 0.352545 0.340037
O O4 0.412986 0.232763 0.388264
O O5 0.711017 0.722642 0.893449
O O6 0.740403 0.627439 0.767623
O O7 0.757432 0.573343 0.924369
O O8 0.257428 0.872367 0.895241
O O9 0.349379 0.844831 0.825092
O O10 0.335189 0.827210 0.000000
O O11 0.207146 0.000000 0.824556
O O12 0.578898 0.113787 0.500000
O O13 0.500000 0.134148 0.391812
O O14 0.591190 0.095830 0.315338
O O15 0.879672 0.500000 0.688119
O O16 0.947736 0.619568 0.657439
O O17 0.500000 0.000000 0.095043
O O18 0.500000 0.868758 0.000000
#
# Coordination Sequence:
#
# PCOD9522168 Si02
#       8
#    16  16  16  16  16   4  16   8
#     4  10  20  36  53  76 109 145 180 223 274 324
#     4  11  20  37  54  80 113 143 183 227 267 326
#     4  11  22  36  55  80 114 150 184 226 268 319
#     4  11  21  32  54  81 113 145 181 222 272 327
#     4  10  21  38  58  78 104 143 189 235 283 327
#     4  12  20  36  60  76 113 149 182 222 276 324
#     4  11  21  35  53  77 110 145 185 223 268 323
#     4   9  18  32  49  69 101 141 180 221 255 303
#
# _framework density 17.567402999999999
#
# number of rings (size 3 to 8) (size 9 to 14) (size 15 to 20)
#    0.000    1.407    2.963    5.778    0.000    2.963 
#    1.333    0.741    0.000    0.444    0.000    2.074 
#    0.000    1.185    0.000    0.000    0.000    0.000 
#
# Total GULP energy -300742.057790 kJ/mol
# GULP energy per Si atom -5569.297366 kJ/mol
# Density = 1.752742 g / cm^3
# Si number density = 17.567403 Si / 1000 Ang^3
#
#
#
# Elastic Constant Matrix: (Units=GPa)
#
#
# Indices 1 2 3 4 5 6 
#
# 1 38.7083 16.2619 8.7148 0.0000 0.0000 0.0000
# 2 16.2619 75.9920 23.5249 0.0000 0.0000 0.0000
# 3 8.7148 23.5249 107.5785 0.0000 0.0000 0.0000
# 4 0.0000 0.0000 0.0000 27.6138 0.0000 0.0000
# 5 0.0000 0.0000 0.0000 0.0000 27.1490 0.0000
# 6 0.0000 0.0000 0.0000 0.0000 0.0000 5.6984
#
#
#
# Elastic Compliance Matrix: (Units=1/GPa)
#
#
# Indices 1 2 3 4 5 6 
#
# 1 0.028496 -0.005774 -0.001046 0.000000 0.000000 0.000000
# 2 -0.005774 0.015285 -0.002875 0.000000 0.000000 0.000000
# 3 -0.001046 -0.002875 0.010009 0.000000 0.000000 0.000000
# 4 0.000000 0.000000 0.000000 0.036214 0.000000 0.000000
# 5 0.000000 0.000000 0.000000 0.000000 0.036834 0.000000
# 6 0.000000 0.000000 0.000000 0.000000 0.000000 0.175489
#
#
# Mechanical properties :
#
#
# Convention : Reuss Voigt Hill
#
# Bulk Modulus (GPa) = 29.06967 35.47577 32.27272
# Shear Modulus (GPa) = 15.00681 23.67736 19.34209
#
# Velocity S-wave (km/s) = 2.92591 3.67522 3.32176
# Velocity P-wave (km/s) = 5.29132 6.18447 5.75524
#
# Compressibility (1/GPa) = 0.03440012
#
# Stress axis : x y z
#
# Youngs Moduli (GPa) = 35.09324 65.42437 99.91136
#
# Poissons Ratio (x) = 0.37777 0.10448
# Poissons Ratio (y) = 0.20263 0.28721
# Poissons Ratio (z) = 0.03670 0.18807
#
# Static dielectric constant tensor:
#      x y z
#    x 1.617060 0.000000 0.000000 
#    y 0.000000 1.581100 0.000000 
#    z 0.000000 0.000000 1.656950 
# 
# From -- ./inp_files/39294.got.cif
#   From: 2010.05.17/outbox.cif.g08.bks.cpg/sg71_20_cif.got.tgz:39294.got - 2010.06.03 16:22:01.
