data_PCOD9522548
_publ_section_title
;
Structure prediction by ZEFSAII (Michael W. Deem and Ramdas Pophale) SiO2 
 PCOD9522548
Probable space group: I M M M
;
_chemical_formula_sum "Si O2"
_cell_formula_units_Z 88
_cell_length_a 7.813615
_cell_length_b 29.364342
_cell_length_c 19.631681
_cell_angle_alpha 90.000000
_cell_angle_beta 90.000000
_cell_angle_gamma 90.000000
_cell_volume 4504.325538
_symmetry_space_group_name_H-M "I M M M"
_symmetry_group_IT_number 71
_symmetry_cell_setting 'orthorhombic'
loop_
_space_group_symop_operation_xyz
x,y,z
-x,-y,z
x,-y,-z
-x,y,-z
-x,-y,-z
x,y,-z
-x,y,z
x,-y,z
1/2+x,1/2+y,1/2+z
1/2-x,1/2-y,1/2+z
1/2+x,1/2-y,1/2-z
1/2-x,1/2+y,1/2-z
1/2-x,1/2-y,1/2-z
1/2+x,1/2+y,1/2-z
1/2-x,1/2+y,1/2+z
1/2+x,1/2-y,1/2+z
loop_
_atom_site_type_symbol
_atom_site_label
_atom_site_fract_x
_atom_site_fract_y
_atom_site_fract_z
Si Si1 0.297252 0.890704 0.367935
Si Si2 0.802298 0.302420 0.661487
Si Si3 0.000000 0.150548 0.078043
Si Si4 0.295957 0.551568 0.000000
Si Si5 0.698111 0.053036 0.235805
Si Si6 0.500000 0.447960 0.627020
Si Si7 0.198115 0.800275 0.312381
O O1 0.500000 0.885054 0.364072
O O2 0.256781 0.920747 0.433256
O O3 0.242598 0.917003 0.299488
O O4 0.217524 0.840668 0.365947
O O5 0.666990 0.331381 0.618673
O O6 0.748666 0.248983 0.659707
O O7 0.793160 0.313340 0.742395
O O8 0.000000 0.307442 0.638962
O O9 0.000000 0.095629 0.078970
O O10 0.000000 0.166816 0.000000
O O11 0.225826 0.500000 0.000000
O O12 0.500000 0.548714 0.000000
O O13 0.500000 0.064638 0.217854
O O14 0.831715 0.057019 0.174622
O O15 0.698704 0.000000 0.257176
O O16 0.500000 0.500000 0.599434
O O17 0.000000 0.795187 0.292712
#
# Coordination Sequence:
#
# PCOD9522548 Si02
#       7
#    16  16   8   8  16   8  16
#     4  11  22  35  56  85 116 160 203 255 312 370
#     4  10  22  41  65  94 124 163 204 255 307 363
#     4  12  26  43  64  92 127 169 202 244 299 370
#     4  11  25  41  55  75 115 169 219 261 313 380
#     4   9  19  35  57  88 120 151 196 254 306 353
#     4  10  22  39  64  93 120 154 195 245 304 360
#     4  10  20  37  64  94 124 152 203 260 310 361
#
# _framework density 19.536776
#
# number of rings (size 3 to 8) (size 9 to 14) (size 15 to 20)
#    0.000    1.727    0.909    3.000    5.091    4.182 
#    1.636    0.000    0.000    0.000    0.000    3.818 
#    0.000    0.000    0.000    0.000    0.000    0.000 
#
# Total GULP energy -245744.431880 kJ/mol
# GULP energy per Si atom -5585.100725 kJ/mol
# Density = 1.949231 g / cm^3
# Si number density = 19.536776 Si / 1000 Ang^3
#
#
#
# Elastic Constant Matrix: (Units=GPa)
#
#
# Indices 1 2 3 4 5 6 
#
# 1 79.6788 31.2403 22.0023 0.0000 0.0000 0.0000
# 2 31.2403 125.9283 59.4788 0.0000 0.0000 0.0000
# 3 22.0023 59.4788 53.6492 0.0001 0.0000 0.0000
# 4 0.0000 0.0000 0.0001 24.2802 0.0000 0.0000
# 5 0.0000 0.0000 0.0000 0.0000 14.3982 0.0000
# 6 0.0000 0.0000 0.0000 0.0000 0.0000 22.6728
#
#
#
# Elastic Compliance Matrix: (Units=1/GPa)
#
#
# Indices 1 2 3 4 5 6 
#
# 1 0.014312 -0.001634 -0.004058 0.000000 0.000000 0.000000
# 2 -0.001634 0.016857 -0.018019 0.000000 0.000000 0.000000
# 3 -0.004058 -0.018019 0.040281 0.000000 0.000000 0.000000
# 4 0.000000 0.000000 0.000000 0.041186 0.000000 0.000000
# 5 0.000000 0.000000 0.000000 0.000000 0.069453 0.000000
# 6 0.000000 0.000000 0.000000 0.000000 0.000000 0.044106
#
#
# Mechanical properties :
#
#
# Convention : Reuss Voigt Hill
#
# Bulk Modulus (GPa) = 41.61813 53.85547 47.73680
# Shear Modulus (GPa) = 17.75416 22.03922 19.89669
#
# Velocity S-wave (km/s) = 3.01783 3.36235 3.19473
# Velocity P-wave (km/s) = 5.78721 6.53451 6.17218
#
# Compressibility (1/GPa) = 0.02402799
#
# Stress axis : x y z
#
# Youngs Moduli (GPa) = 69.87379 59.32275 24.82585
#
# Poissons Ratio (x) = 0.09691 0.10075
# Poissons Ratio (y) = 0.11415 0.44733
# Poissons Ratio (z) = 0.28356 1.06892
#
# Static dielectric constant tensor:
#      x y z
#    x 1.695270 0.000000 0.000000 
#    y 0.000000 1.721630 0.000000 
#    z 0.000000 0.000000 1.642290 
# 
# From -- ./inp_files/42564.got.cif
#   From: 2010.05.17/outbox.cif.g08.bks.cpg/sg71_22_cif.got.tgz:42564.got - 2010.06.03 16:22:01.
