data_PCOD9522939
_publ_section_title
;
Structure prediction by ZEFSAII (Michael W. Deem and Ramdas Pophale) SiO2 
 PCOD9522939
Probable space group: I M M M
;
_chemical_formula_sum "Si O2"
_cell_formula_units_Z 104
_cell_length_a 21.590290
_cell_length_b 28.609367
_cell_length_c 8.876827
_cell_angle_alpha 90.000000
_cell_angle_beta 90.000000
_cell_angle_gamma 90.000000
_cell_volume 5483.078716
_symmetry_space_group_name_H-M "I M M M"
_symmetry_group_IT_number 71
_symmetry_cell_setting 'orthorhombic'
loop_
_space_group_symop_operation_xyz
x,y,z
-x,-y,z
x,-y,-z
-x,y,-z
-x,-y,-z
x,y,-z
-x,y,z
x,-y,z
1/2+x,1/2+y,1/2+z
1/2-x,1/2-y,1/2+z
1/2+x,1/2-y,1/2-z
1/2-x,1/2+y,1/2-z
1/2-x,1/2-y,1/2-z
1/2+x,1/2+y,1/2-z
1/2-x,1/2+y,1/2+z
1/2+x,1/2-y,1/2+z
loop_
_atom_site_type_symbol
_atom_site_label
_atom_site_fract_x
_atom_site_fract_y
_atom_site_fract_z
Si Si1 0.101339 0.371093 0.680682
Si Si2 0.653692 0.302311 0.821329
Si Si3 0.763096 0.633098 0.180035
Si Si4 0.820585 0.054261 0.177159
Si Si5 0.500000 0.053742 0.183385
Si Si6 0.068299 0.726698 0.820858
Si Si7 0.571948 0.395144 0.821490
O O1 0.101494 0.369872 0.500000
O O2 0.170970 0.371055 0.741909
O O3 0.071849 0.323674 0.743770
O O4 0.060215 0.415859 0.728359
O O5 0.720933 0.322093 0.773656
O O6 0.624218 0.258718 0.736738
O O7 0.606460 0.345703 0.798048
O O8 0.655928 0.292437 0.000000
O O9 0.723174 0.587941 0.226382
O O10 0.770079 0.635236 0.000000
O O11 0.890130 0.067148 0.226556
O O12 0.807513 0.000000 0.203785
O O13 0.812007 0.064263 0.000000
O O14 0.500000 0.000000 0.236315
O O15 0.500000 0.052386 0.000000
O O16 0.000000 0.747558 0.785627
O O17 0.072931 0.721250 0.000000
O O18 0.500000 0.392396 0.782142
O O19 0.577296 0.405835 0.000000
#
# Coordination Sequence:
#
# PCOD9522939 Si02
#       7
#    16  16  16  16   8  16  16
#     4  11  22  39  64  90 117 152 189 231 289 350
#     4   9  19  36  57  81 112 153 197 238 285 344
#     4  10  22  40  60  84 116 151 191 242 295 352
#     4  10  21  36  54  78 109 147 192 240 289 345
#     4   9  20  40  65  93 121 149 189 239 290 349
#     4  11  23  37  57  86 121 156 193 240 287 338
#     4   9  18  33  53  78 110 149 193 242 292 344
#
# _framework density 18.967447
#
# number of rings (size 3 to 8) (size 9 to 14) (size 15 to 20)
#    0.000    2.077    0.769    3.231    0.000    7.692 
#    0.000    3.077    0.000    3.231    0.000    0.000 
#    0.000    0.000    0.000    0.000    0.000    0.000 
#
# Total GULP energy -290287.591139 kJ/mol
# GULP energy per Si atom -5582.453676 kJ/mol
# Density = 1.892428 g / cm^3
# Si number density = 18.967447 Si / 1000 Ang^3
#
#
#
# Elastic Constant Matrix: (Units=GPa)
#
#
# Indices 1 2 3 4 5 6 
#
# 1 146.3837 55.4117 36.7131 0.0000 0.0000 0.0000
# 2 55.4117 104.8857 44.4236 0.0000 0.0000 0.0000
# 3 36.7131 44.4236 35.4243 0.0000 0.0000 0.0000
# 4 0.0000 0.0000 0.0000 25.0433 0.0000 0.0000
# 5 0.0000 0.0000 0.0000 0.0000 22.9740 0.0000
# 6 0.0000 0.0000 0.0000 0.0000 0.0000 13.7233
#
#
#
# Elastic Compliance Matrix: (Units=1/GPa)
#
#
# Indices 1 2 3 4 5 6 
#
# 1 0.009385 -0.001789 -0.007484 0.000000 0.000000 0.000000
# 2 -0.001789 0.020676 -0.024075 0.000000 0.000000 0.000000
# 3 -0.007484 -0.024075 0.066176 0.000000 0.000000 0.000000
# 4 0.000000 0.000000 0.000000 0.039931 0.000000 0.000000
# 5 0.000000 0.000000 0.000000 0.000000 0.043528 0.000000
# 6 0.000000 0.000000 0.000000 0.000000 0.000000 0.072869
#
#
# Mechanical properties :
#
#
# Convention : Reuss Voigt Hill
#
# Bulk Modulus (GPa) = 33.84908 62.19893 48.02401
# Shear Modulus (GPa) = 15.19270 22.35781 18.77525
#
# Velocity S-wave (km/s) = 2.83324 3.43701 3.14963
# Velocity P-wave (km/s) = 5.34674 6.97240 6.21297
#
# Compressibility (1/GPa) = 0.02954290
#
# Stress axis : x y z
#
# Youngs Moduli (GPa) = 106.54891 48.36584 15.11128
#
# Poissons Ratio (x) = 0.08651 0.11309
# Poissons Ratio (y) = 0.19058 0.36380
# Poissons Ratio (z) = 0.79739 1.16439
#
# Static dielectric constant tensor:
#      x y z
#    x 1.681460 0.000000 0.000000 
#    y 0.000000 1.646380 0.000000 
#    z 0.000000 0.000000 1.635060 
# 
# From -- ./inp_files/11156.got.cif
#   From: 2010.05.17/outbox.cif.g08.bks.cpg/sg71_6_cif.got.tgz:11156.got - 2010.06.03 16:22:01.
