data_PCOD9522535
_publ_section_title
;
Structure prediction by ZEFSAII (Michael W. Deem and Ramdas Pophale) SiO2 
 PCOD9522535
Probable space group: I M M M
;
_chemical_formula_sum "Si O2"
_cell_formula_units_Z 112
_cell_length_a 14.274777
_cell_length_b 23.102246
_cell_length_c 15.459139
_cell_angle_alpha 90.000000
_cell_angle_beta 90.000000
_cell_angle_gamma 90.000000
_cell_volume 5098.105736
_symmetry_space_group_name_H-M "I M M M"
_symmetry_group_IT_number 71
_symmetry_cell_setting 'orthorhombic'
loop_
_space_group_symop_operation_xyz
x,y,z
-x,-y,z
x,-y,-z
-x,y,-z
-x,-y,-z
x,y,-z
-x,y,z
x,-y,z
1/2+x,1/2+y,1/2+z
1/2-x,1/2-y,1/2+z
1/2+x,1/2-y,1/2-z
1/2-x,1/2+y,1/2-z
1/2-x,1/2-y,1/2-z
1/2+x,1/2+y,1/2-z
1/2-x,1/2+y,1/2+z
1/2+x,1/2-y,1/2+z
loop_
_atom_site_type_symbol
_atom_site_label
_atom_site_fract_x
_atom_site_fract_y
_atom_site_fract_z
Si Si1 0.767984 0.437160 0.783094
Si Si2 0.722617 0.597741 0.406563
Si Si3 0.610402 0.712462 0.630312
Si Si4 0.396320 0.832081 0.098009
Si Si5 0.613569 0.847802 0.399075
Si Si6 0.607156 0.402514 0.900766
Si Si7 0.889561 0.218093 0.667188
O O1 0.816446 0.500000 0.782388
O O2 0.717807 0.428503 0.689266
O O3 0.835040 0.387003 0.825306
O O4 0.680603 0.438003 0.847620
O O5 0.700182 0.569124 0.500000
O O6 0.667840 0.659086 0.407976
O O7 0.832821 0.612448 0.405834
O O8 0.500000 0.707488 0.607231
O O9 0.637808 0.779077 0.610033
O O10 0.619289 0.703670 0.733152
O O11 0.500000 0.845728 0.130604
O O12 0.347615 0.780994 0.151186
O O13 0.402297 0.809112 0.000000
O O14 0.634950 0.865021 0.500000
O O15 0.500000 0.851805 0.387823
O O16 0.500000 0.405433 0.867614
O O17 0.640078 0.335601 0.890248
O O18 0.606395 0.418985 0.000000
O O19 0.000000 0.226689 0.647146
#
# Coordination Sequence:
#
# PCOD9522535 Si02
#       7
#    16  16  16  16  16  16  16
#     4  12  27  44  64  89 121 167 222 270 312 368
#     4  11  24  40  63  91 121 163 210 262 324 379
#     4  10  20  37  62  94 131 165 203 255 315 381
#     4   9  18  32  52  84 123 156 191 238 297 371
#     4  10  23  43  67  97 132 168 208 259 319 382
#     4  10  21  38  61  90 124 161 201 249 309 373
#     4   9  16  29  53  85 121 159 191 229 290 361
#
# _framework density 21.968942999999999
#
# number of rings (size 3 to 8) (size 9 to 14) (size 15 to 20)
#    0.000    1.857    1.429    2.143    2.000    7.429 
#    0.000    1.429    0.000    0.000    0.000    5.000 
#    0.000    0.000    0.000    0.000    0.000    0.000 
#
# Total GULP energy -312169.503835 kJ/mol
# GULP energy per Si atom -5574.455426 kJ/mol
# Density = 2.191894 g / cm^3
# Si number density = 21.968943 Si / 1000 Ang^3
#
#
#
# Elastic Constant Matrix: (Units=GPa)
#
#
# Indices 1 2 3 4 5 6 
#
# 1 64.3743 23.4623 15.0712 0.0001 0.0000 0.0000
# 2 23.4623 81.7179 29.4433 0.0011 0.0000 0.0000
# 3 15.0712 29.4433 112.6215 0.0005 0.0000 0.0000
# 4 0.0001 0.0011 0.0005 3.5554 0.0000 0.0000
# 5 0.0000 0.0000 0.0000 0.0000 19.0129 0.0000
# 6 0.0000 0.0000 0.0000 0.0000 0.0000 11.3697
#
#
#
# Elastic Compliance Matrix: (Units=1/GPa)
#
#
# Indices 1 2 3 4 5 6 
#
# 1 0.017480 -0.004610 -0.001134 0.000001 0.000000 0.000000
# 2 -0.004610 0.014726 -0.003233 -0.000004 0.000000 0.000000
# 3 -0.001134 -0.003233 0.009876 0.000000 0.000000 0.000000
# 4 0.000001 -0.000004 0.000000 0.281259 0.000000 0.000001
# 5 0.000000 0.000000 0.000000 0.000000 0.052596 0.000000
# 6 0.000000 0.000000 0.000000 0.000001 0.000000 0.087953
#
#
# Mechanical properties :
#
#
# Convention : Reuss Voigt Hill
#
# Bulk Modulus (GPa) = 41.44584 43.85192 42.64888
# Shear Modulus (GPa) = 10.20645 19.50340 14.85493
#
# Velocity S-wave (km/s) = 2.15776 2.98278 2.60316
# Velocity P-wave (km/s) = 5.01144 5.64507 5.33767
#
# Compressibility (1/GPa) = 0.02412787
#
# Stress axis : x y z
#
# Youngs Moduli (GPa) = 57.20866 67.90866 101.25312
#
# Poissons Ratio (x) = 0.31307 0.11481
# Poissons Ratio (y) = 0.26374 0.32734
# Poissons Ratio (z) = 0.06487 0.21954
#
# Static dielectric constant tensor:
#      x y z
#    x 1.836890 0.000000 0.000000 
#    y 0.000000 1.852170 0.000000 
#    z 0.000000 0.000000 1.915700 
# 
# From -- ./inp_files/34867.got.cif
#   From: 2010.05.17/outbox.cif.g08.bks.cpg/sg71_18_cif.got.tgz:34867.got - 2010.06.03 16:22:01.
