data_PCOD9522755
_publ_section_title
;
Structure prediction by ZEFSAII (Michael W. Deem and Ramdas Pophale) SiO2 
 PCOD9522755
Probable space group: I M M M
;
_chemical_formula_sum "Si O2"
_cell_formula_units_Z 80
_cell_length_a 8.482943
_cell_length_b 30.412074
_cell_length_c 15.134281
_cell_angle_alpha 90.000000
_cell_angle_beta 90.000000
_cell_angle_gamma 90.000000
_cell_volume 3904.400689
_symmetry_space_group_name_H-M "I M M M"
_symmetry_group_IT_number 71
_symmetry_cell_setting 'orthorhombic'
loop_
_space_group_symop_operation_xyz
x,y,z
-x,-y,z
x,-y,-z
-x,y,-z
-x,-y,-z
x,y,-z
-x,y,z
x,-y,z
1/2+x,1/2+y,1/2+z
1/2-x,1/2-y,1/2+z
1/2+x,1/2-y,1/2-z
1/2-x,1/2+y,1/2-z
1/2-x,1/2-y,1/2-z
1/2+x,1/2+y,1/2-z
1/2-x,1/2+y,1/2+z
1/2+x,1/2-y,1/2+z
loop_
_atom_site_type_symbol
_atom_site_label
_atom_site_fract_x
_atom_site_fract_y
_atom_site_fract_z
Si Si1 0.312697 0.859261 0.277726
Si Si2 0.309606 0.320219 0.398186
Si Si3 0.808025 0.279869 0.898418
Si Si4 0.679140 0.052575 0.096437
Si Si5 0.316987 0.549391 0.783876
O O1 0.500000 0.857440 0.279244
O O2 0.257874 0.851668 0.176828
O O3 0.249129 0.818042 0.334301
O O4 0.262680 0.906206 0.318501
O O5 0.261218 0.328491 0.500000
O O6 0.500000 0.322423 0.395726
O O7 0.259869 0.269961 0.375683
O O8 0.000000 0.279956 0.895813
O O9 0.762409 0.288299 0.000000
O O10 0.500000 0.068708 0.116003
O O11 0.794775 0.056398 0.178534
O O12 0.664665 0.000000 0.088111
O O13 0.730237 0.069436 0.000000
O O14 0.500000 0.549467 0.806964
O O15 0.252778 0.500000 0.804314
#
# Coordination Sequence:
#
# PCOD9522755 Si02
#       5
#    16  16  16  16  16
#     4  11  21  32  53  81 106 135 171 216 263 304
#     4   9  18  34  55  78 109 146 175 202 243 301
#     4   8  16  33  56  81 107 135 169 209 256 310
#     4   8  14  26  44  64  86 114 152 201 252 296
#     4  10  21  35  49  66  93 132 175 216 257 305
#
# _framework density 20.489699999999999
#
# number of rings (size 3 to 8) (size 9 to 14) (size 15 to 20)
#    0.000    2.800    0.000    3.600    0.000    2.800 
#    0.000    3.000    0.000    5.400    0.000    4.200 
#    0.000    0.000    0.000    0.000    0.000    0.000 
#
# Total GULP energy -222878.193823 kJ/mol
# GULP energy per Si atom -5571.954846 kJ/mol
# Density = 2.044306 g / cm^3
# Si number density = 20.489700 Si / 1000 Ang^3
#
#
#
# Elastic Constant Matrix: (Units=GPa)
#
#
# Indices 1 2 3 4 5 6 
#
# 1 20.3568 19.4482 2.6930 0.0000 0.0000 0.0000
# 2 19.4482 176.3579 39.0994 0.0000 0.0000 0.0000
# 3 2.6930 39.0994 25.4325 0.0000 0.0001 0.0000
# 4 0.0000 0.0000 0.0000 5.9677 0.0000 0.0000
# 5 0.0000 0.0000 0.0001 0.0000 14.6443 0.0000
# 6 0.0000 0.0000 0.0000 0.0000 0.0000 27.2708
#
#
#
# Elastic Compliance Matrix: (Units=1/GPa)
#
#
# Indices 1 2 3 4 5 6 
#
# 1 0.055384 -0.007293 0.005348 0.000000 0.000000 0.000000
# 2 -0.007293 0.009563 -0.013929 0.000000 0.000000 0.000000
# 3 0.005348 -0.013929 0.060168 0.000000 0.000000 0.000000
# 4 0.000000 0.000000 0.000000 0.167569 0.000000 0.000000
# 5 0.000000 0.000000 0.000000 0.000000 0.068286 0.000000
# 6 0.000000 0.000000 0.000000 0.000000 0.000000 0.036669
#
#
# Mechanical properties :
#
#
# Convention : Reuss Voigt Hill
#
# Bulk Modulus (GPa) = 10.71062 38.29205 24.50133
# Shear Modulus (GPa) = 10.85752 20.30368 15.58060
#
# Velocity S-wave (km/s) = 2.30446 3.15131 2.76055
# Velocity P-wave (km/s) = 3.50989 5.65420 4.70581
#
# Compressibility (1/GPa) = 0.09336529
#
# Stress axis : x y z
#
# Youngs Moduli (GPa) = 18.05584 104.57242 16.62008
#
# Poissons Ratio (x) = 0.76266 -0.08888
# Poissons Ratio (y) = 0.13168 0.23151
# Poissons Ratio (z) = -0.09656 1.45662
#
# Static dielectric constant tensor:
#      x y z
#    x 1.716970 0.000000 0.000000 
#    y 0.000000 1.813820 0.000000 
#    z 0.000000 0.000000 1.740900 
# 
# From -- ./inp_files/16531.got.cif
#   From: 2010.05.17/outbox.cif.g08.bks.cpg/sg71_9_cif.got.tgz:16531.got - 2010.06.03 16:22:01.
