data_PCOD9522658
_publ_section_title
;
Structure prediction by ZEFSAII (Michael W. Deem and Ramdas Pophale) SiO2 
 PCOD9522658
Probable space group: I M M M
;
_chemical_formula_sum "Si O2"
_cell_formula_units_Z 54
_cell_length_a 11.375188
_cell_length_b 22.559544
_cell_length_c 10.443162
_cell_angle_alpha 90.000000
_cell_angle_beta 90.000000
_cell_angle_gamma 90.000000
_cell_volume 2679.914355
_symmetry_space_group_name_H-M "I M M M"
_symmetry_group_IT_number 71
_symmetry_cell_setting 'orthorhombic'
loop_
_space_group_symop_operation_xyz
x,y,z
-x,-y,z
x,-y,-z
-x,y,-z
-x,-y,-z
x,y,-z
-x,y,z
x,-y,z
1/2+x,1/2+y,1/2+z
1/2-x,1/2-y,1/2+z
1/2+x,1/2-y,1/2-z
1/2-x,1/2+y,1/2-z
1/2-x,1/2-y,1/2-z
1/2+x,1/2+y,1/2-z
1/2-x,1/2+y,1/2+z
1/2+x,1/2-y,1/2+z
loop_
_atom_site_type_symbol
_atom_site_label
_atom_site_fract_x
_atom_site_fract_y
_atom_site_fract_z
Si Si1 0.500000 0.712540 0.500000
Si Si2 0.764051 0.377184 0.251248
Si Si3 0.500000 0.500000 0.500000
Si Si4 0.140195 0.500000 0.646841
Si Si5 0.641452 0.806323 0.000000
Si Si6 0.289998 0.196170 0.500000
Si Si7 0.500000 0.390640 0.701867
O O1 0.611959 0.753687 0.500000
O O2 0.500000 0.669413 0.619876
O O3 0.819414 0.440949 0.281938
O O4 0.799284 0.337255 0.375249
O O5 0.625338 0.388349 0.230182
O O6 0.805675 0.343471 0.125454
O O7 0.500000 0.447735 0.610411
O O8 0.190373 0.500000 0.500000
O O9 0.000000 0.500000 0.637508
O O10 0.671316 0.736211 0.000000
O O11 0.500000 0.816630 0.000000
#
# Coordination Sequence:
#
# PCOD9522658 Si02
#       7
#     4  16   2   8   8   8   8
#     4  11  24  43  66 101 140 181 230 278 336 413
#     4  12  26  45  70 105 134 185 227 283 343 398
#     4  10  20  40  68 106 122 178 220 300 328 384
#     4  11  25  47  71  99 131 172 232 282 333 408
#     4  12  25  44  72 100 137 184 230 275 338 406
#     4  12  29  43  68 101 147 180 223 281 345 411
#     4  11  23  41  72  99 139 179 235 279 334 409
#
# _framework density 20.149898
#
# number of rings (size 3 to 8) (size 9 to 14) (size 15 to 20)
#    0.000    0.444    4.444    3.556    8.296    0.593 
#    0.000    0.741    0.000    2.667    0.000    0.000 
#    0.000    0.000    0.000    0.000    0.000    0.000 
#
# Total GULP energy -150669.410339 kJ/mol
# GULP energy per Si atom -5580.348531 kJ/mol
# Density = 2.010404 g / cm^3
# Si number density = 20.149898 Si / 1000 Ang^3
#
#
#
# Elastic Constant Matrix: (Units=GPa)
#
#
# Indices 1 2 3 4 5 6 
#
# 1 100.9254 30.8665 13.4611 -0.0008 0.0000 0.0000
# 2 30.8665 184.2221 84.1998 -0.0002 0.0001 -0.0001
# 3 13.4611 84.1998 132.2830 0.0151 0.0005 -0.0006
# 4 -0.0008 -0.0002 0.0151-1005.2115 -0.0196 0.0107
# 5 0.0000 0.0001 0.0005 -0.0196 -3.4676 0.0002
# 6 0.0000 -0.0001 -0.0006 0.0107 0.0002 -31.2172
#
#
#
# Elastic Compliance Matrix: (Units=1/GPa)
#
#
# Indices 1 2 3 4 5 6 
#
# 1 0.010444 -0.001783 0.000072 0.000000 0.000000 0.000000
# 2 -0.001783 0.007960 -0.004885 0.000000 0.000000 0.000000
# 3 0.000072 -0.004885 0.010662 0.000000 0.000001 0.000000
# 4 0.000000 0.000000 0.000000 -0.000995 0.000006 0.000000
# 5 0.000000 0.000000 0.000001 0.000006 -0.288386 -0.000002
# 6 0.000000 0.000000 0.000000 0.000000 -0.000002 -0.032034
#
#
# Mechanical properties :
#
#
# Convention : Reuss Voigt Hill
#
# Bulk Modulus (GPa) = 62.99773 74.94283 68.97028
# Shear Modulus (GPa) = -18.25706 -188.71905 -103.48806
#
# Velocity S-wave (km/s) = -3.01335 -9.68818 -7.17430
# Velocity P-wave (km/s) = 4.38467 9.37414 5.85872
#
# Compressibility (1/GPa) = 0.01587359
#
# Stress axis : x y z
#
# Youngs Moduli (GPa) = 95.74925 125.63353 93.79461
#
# Poissons Ratio (x) = 0.22398 -0.00675
# Poissons Ratio (y) = 0.17070 0.45819
# Poissons Ratio (z) = -0.00689 0.61372
#
# Static dielectric constant tensor:
#      x y z
#    x 1.849360 0.000000 0.000000 
#    y 0.000000 1.673340 0.000000 
#    z 0.000000 0.000000 1.688040 
# 
# From -- ./inp_files/19343.got.cif
#   From: 2010.05.17/outbox.cif.g08.bks.cpg/sg71_10_cif.got.tgz:19343.got - 2010.06.03 16:22:01.
