data_PCOD9522319
_publ_section_title
;
Structure prediction by ZEFSAII (Michael W. Deem and Ramdas Pophale) SiO2 
 PCOD9522319
Probable space group: I M M M
;
_chemical_formula_sum "Si O2"
_cell_formula_units_Z 104
_cell_length_a 24.978670
_cell_length_b 8.680939
_cell_length_c 25.593568
_cell_angle_alpha 90.000000
_cell_angle_beta 90.000000
_cell_angle_gamma 90.000000
_cell_volume 5549.666047
_symmetry_space_group_name_H-M "I M M M"
_symmetry_group_IT_number 71
_symmetry_cell_setting 'orthorhombic'
loop_
_space_group_symop_operation_xyz
x,y,z
-x,-y,z
x,-y,-z
-x,y,-z
-x,-y,-z
x,y,-z
-x,y,z
x,-y,z
1/2+x,1/2+y,1/2+z
1/2-x,1/2-y,1/2+z
1/2+x,1/2-y,1/2-z
1/2-x,1/2+y,1/2-z
1/2-x,1/2-y,1/2-z
1/2+x,1/2+y,1/2-z
1/2-x,1/2+y,1/2+z
1/2+x,1/2-y,1/2+z
loop_
_atom_site_type_symbol
_atom_site_label
_atom_site_fract_x
_atom_site_fract_y
_atom_site_fract_z
Si Si1 0.500000 0.675248 0.936943
Si Si2 0.062950 0.685590 0.058654
Si Si3 0.233615 0.817448 0.805525
Si Si4 0.338700 0.321677 0.153424
Si Si5 0.614702 0.313850 0.336432
Si Si6 0.611495 0.176637 0.937812
Si Si7 0.438760 0.312624 0.772908
O O1 0.500000 0.500000 0.915265
O O2 0.448381 0.772882 0.923300
O O3 0.500000 0.661142 0.000000
O O4 0.066753 0.500000 0.060321
O O5 0.093763 0.752920 0.108257
O O6 0.000000 0.726020 0.063302
O O7 0.080830 0.734738 0.000000
O O8 0.250000 0.750000 0.750000
O O9 0.284271 0.770835 0.839627
O O10 0.175625 0.761360 0.824861
O O11 0.229305 0.000000 0.801295
O O12 0.329944 0.500000 0.167268
O O13 0.353716 0.297856 0.093441
O O14 0.389632 0.265884 0.188628
O O15 0.614009 0.500000 0.338123
O O16 0.578292 0.268532 0.286306
O O17 0.622189 0.000000 0.922214
O O18 0.617353 0.187263 0.000000
O O19 0.500000 0.261242 0.785087
O O20 0.439594 0.500000 0.775363
#
# Coordination Sequence:
#
# PCOD9522319 Si02
#       7
#     8  16  16  16  16  16  16
#     4   9  17  31  53  79 105 141 187 227 270 331
#     4   9  19  36  57  85 123 160 191 230 285 345
#     4  11  22  39  60  83 113 150 194 241 288 340
#     4  11  22  37  58  84 113 149 192 234 288 350
#     4  10  20  36  59  85 113 149 194 237 282 338
#     4  10  21  37  55  78 111 147 184 233 288 336
#     4   9  18  33  53  81 116 147 178 226 284 337
#
# _framework density 18.739865000000002
#
# number of rings (size 3 to 8) (size 9 to 14) (size 15 to 20)
#    0.000    2.077    1.538    2.538    1.077    4.308 
#    0.000    1.538    0.000    1.846    0.000    0.000 
#    0.000    0.000    0.000    0.000    0.000    0.000 
#
# Total GULP energy -289946.182688 kJ/mol
# GULP energy per Si atom -5575.888129 kJ/mol
# Density = 1.869721 g / cm^3
# Si number density = 18.739865 Si / 1000 Ang^3
#
#
#
# Elastic Constant Matrix: (Units=GPa)
#
#
# Indices 1 2 3 4 5 6 
#
# 1 100.3075 16.5697 34.7007 0.0000 0.0000 0.0000
# 2 16.5697 25.0525 19.7119 0.0000 0.0000 0.0000
# 3 34.7007 19.7119 78.8915 0.0000 0.0000 0.0000
# 4 0.0000 0.0000 0.0000 28.3365 0.0000 0.0000
# 5 0.0000 0.0000 0.0000 0.0000 15.2952 0.0000
# 6 0.0000 0.0000 0.0000 0.0000 0.0000 26.7163
#
#
#
# Elastic Compliance Matrix: (Units=1/GPa)
#
#
# Indices 1 2 3 4 5 6 
#
# 1 0.012203 -0.004789 -0.004171 0.000000 0.000000 0.000000
# 2 -0.004789 0.051563 -0.010777 0.000000 0.000000 0.000000
# 3 -0.004171 -0.010777 0.017203 0.000000 0.000000 0.000000
# 4 0.000000 0.000000 0.000000 0.035290 0.000000 0.000000
# 5 0.000000 0.000000 0.000000 0.000000 0.065380 0.000000
# 6 0.000000 0.000000 0.000000 0.000000 0.000000 0.037430
#
#
# Mechanical properties :
#
#
# Convention : Reuss Voigt Hill
#
# Bulk Modulus (GPa) = 24.09932 38.46845 31.28388
# Shear Modulus (GPa) = 18.35689 22.95420 20.65554
#
# Velocity S-wave (km/s) = 3.13319 3.50363 3.32358
# Velocity P-wave (km/s) = 5.09677 6.07778 5.60876
#
# Compressibility (1/GPa) = 0.04149495
#
# Stress axis : x y z
#
# Youngs Moduli (GPa) = 81.94403 19.39356 58.12925
#
# Poissons Ratio (x) = 0.09288 0.24246
# Poissons Ratio (y) = 0.39247 0.62646
# Poissons Ratio (z) = 0.34179 0.20900
#
# Static dielectric constant tensor:
#      x y z
#    x 1.411270 0.000000 0.000000 
#    y 0.000000 1.662250 0.000000 
#    z 0.000000 0.000000 1.751890 
# 
# From -- ./inp_files/66414.got.cif
#   From: 2010.05.17/outbox.cif.g08.bks.cpg/sg71_34_cif.got.tgz:66414.got - 2010.06.03 16:22:01.
