data_PCOD9522667
_publ_section_title
;
Structure prediction by ZEFSAII (Michael W. Deem and Ramdas Pophale) SiO2 
 PCOD9522667
Probable space group: I M M M
;
_chemical_formula_sum "Si O2"
_cell_formula_units_Z 108
_cell_length_a 12.012883
_cell_length_b 28.609606
_cell_length_c 15.569770
_cell_angle_alpha 90.000000
_cell_angle_beta 90.000000
_cell_angle_gamma 90.000000
_cell_volume 5351.078490
_symmetry_space_group_name_H-M "I M M M"
_symmetry_group_IT_number 71
_symmetry_cell_setting 'orthorhombic'
loop_
_space_group_symop_operation_xyz
x,y,z
-x,-y,z
x,-y,-z
-x,y,-z
-x,-y,-z
x,y,-z
-x,y,z
x,-y,z
1/2+x,1/2+y,1/2+z
1/2-x,1/2-y,1/2+z
1/2+x,1/2-y,1/2-z
1/2-x,1/2+y,1/2-z
1/2-x,1/2-y,1/2-z
1/2+x,1/2+y,1/2-z
1/2-x,1/2+y,1/2+z
1/2+x,1/2-y,1/2+z
loop_
_atom_site_type_symbol
_atom_site_label
_atom_site_fract_x
_atom_site_fract_y
_atom_site_fract_z
Si Si1 0.500000 0.206160 0.000000
Si Si2 0.374462 0.054667 0.207069
Si Si3 0.804813 0.289072 0.642268
Si Si4 0.252368 0.384269 0.150856
Si Si5 0.119199 0.143469 0.193578
Si Si6 0.830188 0.946529 0.901234
Si Si7 0.370074 0.208286 0.343651
Si Si8 0.134554 0.056269 0.500000
O O1 0.402245 0.207013 0.925291
O O2 0.500000 0.070928 0.193758
O O3 0.315160 0.084201 0.280942
O O4 0.300660 0.057476 0.121378
O O5 0.375350 0.000000 0.232117
O O6 0.719070 0.332365 0.643144
O O7 0.722505 0.245321 0.625376
O O8 0.854848 0.288805 0.739384
O O9 0.347832 0.358311 0.206687
O O10 0.169440 0.342777 0.123314
O O11 0.308744 0.417427 0.080763
O O12 0.114373 0.090723 0.160139
O O13 0.000000 0.166923 0.180901
O O14 0.862602 0.000000 0.883063
O O15 0.853541 0.936508 0.000000
O O16 0.500000 0.216690 0.364655
O O17 0.000000 0.062546 0.500000
O O18 0.155501 0.000000 0.500000
#
# Coordination Sequence:
#
# PCOD9522667 Si02
#       8
#     4  16  16  16  16  16  16   8
#     4  12  24  46  62 100 131 156 217 270 320 378
#     4   9  17  32  54  80 114 156 201 247 296 365
#     4  10  23  40  66  95 128 170 212 266 328 384
#     4  10  21  38  61  92 120 161 205 259 327 385
#     4  10  21  39  60  88 123 165 213 258 315 389
#     4   9  19  34  51  79 117 158 203 251 307 359
#     4  10  20  42  67  94 127 174 215 261 321 401
#     4  11  24  43  65  91 124 163 213 278 338 395
#
# _framework density 20.182848
#
# number of rings (size 3 to 8) (size 9 to 14) (size 15 to 20)
#    0.000    2.148    0.741    1.778    1.037    2.074 
#    5.333    5.556    0.000    2.667    0.000    0.000 
#    0.000    0.000    0.000    0.000    0.000    0.000 
#
# Total GULP energy -300705.424281 kJ/mol
# GULP energy per Si atom -5568.618968 kJ/mol
# Density = 2.013691 g / cm^3
# Si number density = 20.182848 Si / 1000 Ang^3
#
#
#
# Elastic Constant Matrix: (Units=GPa)
#
#
# Indices 1 2 3 4 5 6 
#
# 1 178.5724 34.8863 44.2163 0.0000 0.0000 0.0000
# 2 34.8863 69.6388 21.1541 0.0001 0.0001 0.0000
# 3 44.2163 21.1541 58.2978 0.0004 0.0003 -0.0001
# 4 0.0000 0.0001 0.0004 7.2575 0.0002 0.0000
# 5 0.0000 0.0001 0.0003 0.0002 44.0581 0.0000
# 6 0.0000 0.0000 -0.0001 0.0000 0.0000 11.8389
#
#
#
# Elastic Compliance Matrix: (Units=1/GPa)
#
#
# Indices 1 2 3 4 5 6 
#
# 1 0.007178 -0.002183 -0.004652 0.000000 0.000000 0.000000
# 2 -0.002183 0.016802 -0.004441 0.000000 0.000000 0.000000
# 3 -0.004652 -0.004441 0.022294 -0.000001 0.000000 0.000000
# 4 0.000000 0.000000 -0.000001 0.137788 -0.000001 0.000000
# 5 0.000000 0.000000 0.000000 -0.000001 0.022697 0.000000
# 6 0.000000 0.000000 0.000000 0.000000 0.000000 0.084467
#
#
# Mechanical properties :
#
#
# Convention : Reuss Voigt Hill
#
# Bulk Modulus (GPa) = 42.15650 56.33580 49.24615
# Shear Modulus (GPa) = 15.54306 26.38107 20.96206
#
# Velocity S-wave (km/s) = 2.77810 3.61931 3.22624
# Velocity P-wave (km/s) = 5.58776 6.74086 6.19121
#
# Compressibility (1/GPa) = 0.02372113
#
# Stress axis : x y z
#
# Youngs Moduli (GPa) = 139.30681 59.51506 44.85595
#
# Poissons Ratio (x) = 0.12991 0.20869
# Poissons Ratio (y) = 0.30408 0.19922
# Poissons Ratio (z) = 0.64812 0.26433
#
# Static dielectric constant tensor:
#      x y z
#    x 1.748090 0.000000 0.000000 
#    y 0.000000 1.754350 0.000000 
#    z 0.000000 0.000000 1.680780 
# 
# From -- ./inp_files/33322.got.cif
#   From: 2010.05.17/outbox.cif.g08.bks.cpg/sg71_17_cif.got.tgz:33322.got - 2010.06.03 16:22:01.
