data_PCOD9522421
_publ_section_title
;
Structure prediction by ZEFSAII (Michael W. Deem and Ramdas Pophale) SiO2 
 PCOD9522421
Probable space group: I M M M
;
_chemical_formula_sum "Si O2"
_cell_formula_units_Z 104
_cell_length_a 21.374034
_cell_length_b 32.708655
_cell_length_c 8.104523
_cell_angle_alpha 90.000000
_cell_angle_beta 90.000000
_cell_angle_gamma 90.000000
_cell_volume 5666.000924
_symmetry_space_group_name_H-M "I M M M"
_symmetry_group_IT_number 71
_symmetry_cell_setting 'orthorhombic'
loop_
_space_group_symop_operation_xyz
x,y,z
-x,-y,z
x,-y,-z
-x,y,-z
-x,-y,-z
x,y,-z
-x,y,z
x,-y,z
1/2+x,1/2+y,1/2+z
1/2-x,1/2-y,1/2+z
1/2+x,1/2-y,1/2-z
1/2-x,1/2+y,1/2-z
1/2-x,1/2-y,1/2-z
1/2+x,1/2+y,1/2-z
1/2-x,1/2+y,1/2+z
1/2+x,1/2-y,1/2+z
loop_
_atom_site_type_symbol
_atom_site_label
_atom_site_fract_x
_atom_site_fract_y
_atom_site_fract_z
Si Si1 0.926465 0.545157 0.500000
Si Si2 0.569875 0.313290 0.800484
Si Si3 0.190654 0.863892 0.700808
Si Si4 0.861127 0.573747 0.819203
Si Si5 0.071174 0.280469 0.803938
Si Si6 0.176873 0.341502 0.308342
Si Si7 0.778815 0.955160 0.304122
O O1 0.897891 0.500000 0.500000
O O2 0.905686 0.565905 0.667730
O O3 0.000000 0.542627 0.500000
O O4 0.500000 0.327412 0.752982
O O5 0.625734 0.343051 0.749369
O O6 0.578284 0.267656 0.731667
O O7 0.571722 0.310523 0.000000
O O8 0.194727 0.864312 0.500000
O O9 0.249525 0.837546 0.766869
O O10 0.195745 0.911360 0.759267
O O11 0.843883 0.621322 0.808302
O O12 0.796215 0.549679 0.792379
O O13 0.886118 0.563207 0.000000
O O14 0.128476 0.304861 0.722504
O O15 0.000000 0.292096 0.747155
O O16 0.073680 0.287532 0.000000
O O17 0.172309 0.353815 0.500000
O O18 0.793762 0.955827 0.500000
O O19 0.797303 0.000000 0.235754
#
# Coordination Sequence:
#
# PCOD9522421 Si02
#       7
#     8  16  16  16  16  16  16
#     4  11  24  38  52  76 106 140 189 235 275 337
#     4   9  18  34  54  76 105 143 184 223 269 329
#     4   9  18  32  52  78 108 141 178 224 278 332
#     4  10  20  37  56  76 106 144 182 230 286 337
#     4  10  21  36  54  76 102 138 183 227 273 330
#     4  11  21  35  55  80 109 138 176 230 283 333
#     4   8  14  27  51  78 101 133 176 220 270 324
#
# _framework density 18.355097000000001
#
# number of rings (size 3 to 8) (size 9 to 14) (size 15 to 20)
#    0.000    2.385    0.769    3.231    0.000    4.000 
#    0.000    0.769    0.000    0.462    0.000    3.231 
#    0.000    0.000    0.000    7.846    0.000    9.231 
#
# Total GULP energy -289751.870891 kJ/mol
# GULP energy per Si atom -5572.151363 kJ/mol
# Density = 1.831332 g / cm^3
# Si number density = 18.355097 Si / 1000 Ang^3
#
#
#
# Elastic Constant Matrix: (Units=GPa)
#
#
# Indices 1 2 3 4 5 6 
#
# 1 121.5484 70.8707 35.9208 0.0000 0.0000 0.0000
# 2 70.8707 83.5260 12.5729 0.0000 0.0000 0.0000
# 3 35.9208 12.5729 59.3189 0.0002 0.0000 0.0000
# 4 0.0000 0.0000 0.0002 9.2200 0.0000 0.0000
# 5 0.0000 0.0000 0.0000 0.0000 16.6613 0.0000
# 6 0.0000 0.0000 0.0000 0.0000 0.0000 18.3252
#
#
#
# Elastic Compliance Matrix: (Units=1/GPa)
#
#
# Indices 1 2 3 4 5 6 
#
# 1 0.019876 -0.015549 -0.008741 0.000000 0.000000 0.000000
# 2 -0.015549 0.024531 0.004216 0.000000 0.000000 0.000000
# 3 -0.008741 0.004216 0.021257 0.000000 0.000000 0.000000
# 4 0.000000 0.000000 0.000000 0.108460 0.000000 0.000000
# 5 0.000000 0.000000 0.000000 0.000000 0.060019 0.000000
# 6 0.000000 0.000000 0.000000 0.000000 0.000000 0.054570
#
#
# Mechanical properties :
#
#
# Convention : Reuss Voigt Hill
#
# Bulk Modulus (GPa) = 39.18807 55.90245 47.54526
# Shear Modulus (GPa) = 14.82070 18.50991 16.66530
#
# Velocity S-wave (km/s) = 2.84464 3.17903 3.01647
# Velocity P-wave (km/s) = 5.67324 6.63304 6.17182
#
# Compressibility (1/GPa) = 0.02551797
#
# Stress axis : x y z
#
# Youngs Moduli (GPa) = 50.31076 40.76483 47.04290
#
# Poissons Ratio (x) = 0.63386 0.41118
# Poissons Ratio (y) = 0.78229 -0.19835
# Poissons Ratio (z) = 0.43974 -0.17188
#
# Static dielectric constant tensor:
#      x y z
#    x 1.628150 0.000000 0.000000 
#    y 0.000000 1.648590 0.000000 
#    z 0.000000 0.000000 1.621140 
# 
# From -- ./inp_files/11476.got.cif
#   From: 2010.05.17/outbox.cif.g08.bks.cpg/sg71_6_cif.got.tgz:11476.got - 2010.06.03 16:22:01.
