data_PCOD9522099
_publ_section_title
;
Structure prediction by ZEFSAII (Michael W. Deem and Ramdas Pophale) SiO2 
 PCOD9522099
Probable space group: I M M M
;
_chemical_formula_sum "Si O2"
_cell_formula_units_Z 88
_cell_length_a 22.795862
_cell_length_b 8.793939
_cell_length_c 23.066988
_cell_angle_alpha 90.000000
_cell_angle_beta 90.000000
_cell_angle_gamma 90.000000
_cell_volume 4624.133435
_symmetry_space_group_name_H-M "I M M M"
_symmetry_group_IT_number 71
_symmetry_cell_setting 'orthorhombic'
loop_
_space_group_symop_operation_xyz
x,y,z
-x,-y,z
x,-y,-z
-x,y,-z
-x,-y,-z
x,y,-z
-x,y,z
x,-y,z
1/2+x,1/2+y,1/2+z
1/2-x,1/2-y,1/2+z
1/2+x,1/2-y,1/2-z
1/2-x,1/2+y,1/2-z
1/2-x,1/2-y,1/2-z
1/2+x,1/2+y,1/2-z
1/2-x,1/2+y,1/2+z
1/2+x,1/2-y,1/2+z
loop_
_atom_site_type_symbol
_atom_site_label
_atom_site_fract_x
_atom_site_fract_y
_atom_site_fract_z
Si Si1 0.207229 0.319417 0.435751
Si Si2 0.668841 0.817410 0.410637
Si Si3 0.500000 0.171546 0.844324
Si Si4 0.875412 0.819501 0.339222
Si Si5 0.626263 0.183812 0.712940
Si Si6 0.567976 0.184197 0.500000
Si Si7 0.500000 0.170283 0.295688
O O1 0.183292 0.284262 0.500000
O O2 0.203440 0.500000 0.426522
O O3 0.274666 0.267305 0.434539
O O4 0.171698 0.234977 0.385820
O O5 0.667074 0.786867 0.341720
O O6 0.608866 0.774397 0.444538
O O7 0.675321 0.000000 0.418495
O O8 0.439450 0.256110 0.857689
O O9 0.500000 0.159059 0.774188
O O10 0.500000 0.000000 0.867925
O O11 0.860432 0.754032 0.275225
O O12 0.877588 0.000000 0.335641
O O13 0.562248 0.242618 0.691863
O O14 0.621458 0.000000 0.720439
O O15 0.500000 0.239404 0.500000
O O16 0.564268 0.000000 0.500000
O O17 0.500000 0.000000 0.322127
#
# Coordination Sequence:
#
# PCOD9522099 Si02
#       7
#    16  16   8  16  16   8   8
#     4  11  24  42  62  81 109 153 199 241 297 360
#     4  10  20  35  58  86 118 155 200 249 294 344
#     4   9  17  35  60  86 120 154 185 226 279 343
#     4  11  22  37  61  90 120 151 190 241 292 345
#     4   9  18  32  53  83 117 155 195 238 294 351
#     4   9  18  32  55  89 125 156 197 250 293 337
#     4   7  12  25  47  75 110 148 185 220 265 332
#
# _framework density 19.030593
#
# number of rings (size 3 to 8) (size 9 to 14) (size 15 to 20)
#    0.000    2.273    0.909    3.545    1.273    2.545 
#    0.000    0.455    0.000    3.818    0.000    0.000 
#    0.000    0.000    0.000    0.000    0.000    0.000 
#
# Total GULP energy -245274.191326 kJ/mol
# GULP energy per Si atom -5574.413439 kJ/mol
# Density = 1.898728 g / cm^3
# Si number density = 19.030593 Si / 1000 Ang^3
#
#
#
# Elastic Constant Matrix: (Units=GPa)
#
#
# Indices 1 2 3 4 5 6 
#
# 1 85.7131 31.7246 52.9298 0.0000 0.0000 0.0000
# 2 31.7246 68.8610 54.0118 0.0000 0.0000 0.0000
# 3 52.9298 54.0118 118.0500 0.0000 0.0000 0.0000
# 4 0.0000 0.0000 0.0000 13.3835 0.0000 0.0000
# 5 0.0000 0.0000 0.0000 0.0000 26.0081 0.0000
# 6 0.0000 0.0000 0.0000 0.0000 0.0000 25.6442
#
#
#
# Elastic Compliance Matrix: (Units=1/GPa)
#
#
# Indices 1 2 3 4 5 6 
#
# 1 0.016473 -0.002801 -0.006104 0.000000 0.000000 0.000000
# 2 -0.002801 0.023127 -0.009325 0.000000 0.000000 0.000000
# 3 -0.006104 -0.009325 0.015475 0.000000 0.000000 0.000000
# 4 0.000000 0.000000 0.000000 0.074719 0.000000 0.000000
# 5 0.000000 0.000000 0.000000 0.000000 0.038450 0.000000
# 6 0.000000 0.000000 0.000000 0.000000 0.000000 0.038995
#
#
# Mechanical properties :
#
#
# Convention : Reuss Voigt Hill
#
# Bulk Modulus (GPa) = 53.72628 61.10627 57.41627
# Shear Modulus (GPa) = 20.00761 21.93768 20.97264
#
# Velocity S-wave (km/s) = 3.24595 3.39891 3.32331
# Velocity P-wave (km/s) = 6.50700 6.89802 6.70536
#
# Compressibility (1/GPa) = 0.01861287
#
# Stress axis : x y z
#
# Youngs Moduli (GPa) = 60.70443 43.23939 64.62162
#
# Poissons Ratio (x) = 0.12112 0.39448
# Poissons Ratio (y) = 0.17005 0.60262
# Poissons Ratio (z) = 0.37056 0.40323
#
# Static dielectric constant tensor:
#      x y z
#    x 1.692290 0.000000 0.000000 
#    y 0.000000 1.645950 0.000000 
#    z 0.000000 0.000000 1.661570 
# 
# From -- ./inp_files/61163.got.cif
#   From: 2010.05.17/outbox.cif.g08.bks.cpg/sg71_31_cif.got.tgz:61163.got - 2010.06.03 16:22:01.
