data_PCOD9522182
_publ_section_title
;
Structure prediction by ZEFSAII (Michael W. Deem and Ramdas Pophale) SiO2 
 PCOD9522182
Probable space group: I M M M
;
_chemical_formula_sum "Si O2"
_cell_formula_units_Z 96
_cell_length_a 21.438451
_cell_length_b 15.900964
_cell_length_c 16.145551
_cell_angle_alpha 90.000000
_cell_angle_beta 90.000000
_cell_angle_gamma 90.000000
_cell_volume 5503.889778
_symmetry_space_group_name_H-M "I M M M"
_symmetry_group_IT_number 71
_symmetry_cell_setting 'orthorhombic'
loop_
_space_group_symop_operation_xyz
x,y,z
-x,-y,z
x,-y,-z
-x,y,-z
-x,-y,-z
x,y,-z
-x,y,z
x,-y,z
1/2+x,1/2+y,1/2+z
1/2-x,1/2-y,1/2+z
1/2+x,1/2-y,1/2-z
1/2-x,1/2+y,1/2-z
1/2-x,1/2-y,1/2-z
1/2+x,1/2+y,1/2-z
1/2-x,1/2+y,1/2+z
1/2+x,1/2-y,1/2+z
loop_
_atom_site_type_symbol
_atom_site_label
_atom_site_fract_x
_atom_site_fract_y
_atom_site_fract_z
Si Si1 0.267729 0.900569 0.239879
Si Si2 0.327141 0.805446 0.091322
Si Si3 0.204117 0.689461 0.908174
Si Si4 0.635554 0.665505 0.674639
Si Si5 0.924332 0.000000 0.595420
Si Si6 0.926754 0.182408 0.658472
Si Si7 0.927358 0.000000 0.900633
O O1 0.313255 0.867855 0.167013
O O2 0.292134 0.871804 0.329613
O O3 0.200838 0.857645 0.220226
O O4 0.260286 0.000000 0.236205
O O5 0.269648 0.739765 0.091806
O O6 0.388440 0.750386 0.106957
O O7 0.328177 0.845700 0.000000
O O8 0.152457 0.760757 0.889053
O O9 0.195495 0.652396 0.000000
O O10 0.588670 0.696110 0.745440
O O11 0.607422 0.582666 0.632667
O O12 0.904552 0.086970 0.637686
O O13 0.904155 0.000000 0.500000
O O14 0.000000 0.000000 0.597239
O O15 0.000000 0.186942 0.641267
O O16 0.000000 0.000000 0.872812
O O17 0.926160 0.000000 0.000000
#
# Coordination Sequence:
#
# PCOD9522182 Si02
#       7
#    16  16  16  16   8  16   8
#     4  11  21  37  58  80 109 142 186 240 283 327
#     4  10  20  36  55  80 113 145 184 229 274 328
#     4  10  20  36  58  80 108 145 183 233 288 331
#     4  11  19  37  54  79 115 149 184 225 275 331
#     4   9  19  31  43  71 111 149 189 219 248 311
#     4  11  20  32  54  79 111 154 187 218 269 334
#     4  11  23  35  51  83 121 155 194 228 261 326
#
# _framework density 17.442208999999998
#
# number of rings (size 3 to 8) (size 9 to 14) (size 15 to 20)
#    0.000    1.500    4.167    3.000    0.000    3.000 
#    0.000    0.000    0.000    0.500    0.000    1.167 
#    0.000    1.333    0.000    0.000    0.000    0.000 
#
# Total GULP energy -267898.232202 kJ/mol
# GULP energy per Si atom -5581.213171 kJ/mol
# Density = 1.740251 g / cm^3
# Si number density = 17.442209 Si / 1000 Ang^3
#
#
#
# Elastic Constant Matrix: (Units=GPa)
#
#
# Indices 1 2 3 4 5 6 
#
# 1 40.5097 -5.7033 8.6065 0.0000 0.0000 0.0000
# 2 -5.7033 15.2532 12.7354 0.0000 0.0000 0.0000
# 3 8.6065 12.7354 122.5767 0.0000 0.0000 0.0000
# 4 0.0000 0.0000 0.0000 13.0240 0.0000 0.0000
# 5 0.0000 0.0000 0.0000 0.0000 8.6030 0.0000
# 6 0.0000 0.0000 0.0000 0.0000 0.0000 26.7012
#
#
#
# Elastic Compliance Matrix: (Units=1/GPa)
#
#
# Indices 1 2 3 4 5 6 
#
# 1 0.027188 0.012877 -0.003247 0.000000 0.000000 0.000000
# 2 0.012877 0.077886 -0.008996 0.000000 0.000000 0.000000
# 3 -0.003247 -0.008996 0.009321 0.000000 0.000000 0.000000
# 4 0.000000 0.000000 0.000000 0.076781 0.000000 0.000000
# 5 0.000000 0.000000 0.000000 0.000000 0.116239 0.000000
# 6 0.000000 0.000000 0.000000 0.000000 0.000000 0.037452
#
#
# Mechanical properties :
#
#
# Convention : Reuss Voigt Hill
#
# Bulk Modulus (GPa) = 8.64588 23.29077 15.96832
# Shear Modulus (GPa) = 13.08377 20.51237 16.79807
#
# Velocity S-wave (km/s) = 2.74181 3.43303 3.10670
# Velocity P-wave (km/s) = 3.87182 5.39411 4.69507
#
# Compressibility (1/GPa) = 0.11566205
#
# Stress axis : x y z
#
# Youngs Moduli (GPa) = 36.78077 12.83930 107.28677
#
# Poissons Ratio (x) = -0.16533 0.34834
# Poissons Ratio (y) = -0.47361 0.96518
# Poissons Ratio (z) = 0.11942 0.11551
#
# Static dielectric constant tensor:
#      x y z
#    x 1.585750 0.000000 0.000000 
#    y 0.000000 1.570050 0.000000 
#    z 0.000000 0.000000 1.634750 
# 
# From -- ./inp_files/39203.got.cif
#   From: 2010.05.17/outbox.cif.g08.bks.cpg/sg71_20_cif.got.tgz:39203.got - 2010.06.03 16:22:01.
