data_PCOD9522467
_publ_section_title
;
Structure prediction by ZEFSAII (Michael W. Deem and Ramdas Pophale) SiO2 
 PCOD9522467
Probable space group: I M M M
;
_chemical_formula_sum "Si O2"
_cell_formula_units_Z 72
_cell_length_a 29.990014
_cell_length_b 7.548813
_cell_length_c 13.965170
_cell_angle_alpha 90.000000
_cell_angle_beta 90.000000
_cell_angle_gamma 90.000000
_cell_volume 3161.560977
_symmetry_space_group_name_H-M "I M M M"
_symmetry_group_IT_number 71
_symmetry_cell_setting 'orthorhombic'
loop_
_space_group_symop_operation_xyz
x,y,z
-x,-y,z
x,-y,-z
-x,y,-z
-x,-y,-z
x,y,-z
-x,y,z
x,-y,z
1/2+x,1/2+y,1/2+z
1/2-x,1/2-y,1/2+z
1/2+x,1/2-y,1/2-z
1/2-x,1/2+y,1/2-z
1/2-x,1/2-y,1/2-z
1/2+x,1/2+y,1/2-z
1/2-x,1/2+y,1/2+z
1/2+x,1/2-y,1/2+z
loop_
_atom_site_type_symbol
_atom_site_label
_atom_site_fract_x
_atom_site_fract_y
_atom_site_fract_z
Si Si1 0.700598 0.787068 0.286876
Si Si2 0.620259 0.196681 0.835371
Si Si3 0.447567 0.216683 0.000000
Si Si4 0.952706 0.795852 0.791933
Si Si5 0.069384 0.712032 0.000000
Si Si6 0.674072 0.214322 0.500000
O O1 0.750000 0.750000 0.250000
O O2 0.665052 0.717338 0.207229
O O3 0.693356 0.723324 0.396796
O O4 0.693357 0.000000 0.289200
O O5 0.584226 0.272348 0.910960
O O6 0.589329 0.187474 0.742116
O O7 0.631914 0.000000 0.872102
O O8 0.500000 0.276019 0.000000
O O9 0.449951 0.000000 0.000000
O O10 0.952222 0.786661 0.905242
O O11 0.000000 0.727098 0.753664
O O12 0.947811 0.000000 0.762946
O O13 0.121750 0.756484 0.000000
O O14 0.064517 0.500000 0.000000
O O15 0.679161 0.000000 0.500000
#
# Coordination Sequence:
#
# PCOD9522467 Si02
#       6
#    16  16   8  16   8   8
#     4  10  21  38  60  86 115 149 193 242 293 349
#     4  10  20  37  60  83 112 153 200 245 292 353
#     4   9  18  33  57  89 118 146 192 253 301 341
#     4  11  23  36  52  82 122 155 188 235 287 343
#     4  11  20  36  60  83 110 151 193 226 275 339
#     4   9  18  37  59  82 115 148 181 234 287 333
#
# _framework density 22.773561000000001
#
# number of rings (size 3 to 8) (size 9 to 14) (size 15 to 20)
#    0.000    1.889    2.222    2.000    0.000    5.778 
#    0.000    2.222    0.000    2.000    0.000    0.000 
#    0.000    0.000    0.000    0.000    0.000    0.000 
#
# Total GULP energy -200751.151219 kJ/mol
# GULP energy per Si atom -5576.420867 kJ/mol
# Density = 2.272173 g / cm^3
# Si number density = 22.773561 Si / 1000 Ang^3
#
#
#
# Elastic Constant Matrix: (Units=GPa)
#
#
# Indices 1 2 3 4 5 6 
#
# 1 208.3273 12.2269 77.0198 0.0000 0.0000 0.0000
# 2 12.2269 65.1981 2.4699 0.0000 0.0000 0.0000
# 3 77.0198 2.4699 136.3890 0.0000 0.0000 0.0000
# 4 0.0000 0.0000 0.0000 8.7196 0.0000 0.0000
# 5 0.0000 0.0000 0.0000 0.0000 32.8832 0.0000
# 6 0.0000 0.0000 0.0000 0.0000 0.0000 -16.8446
#
#
#
# Elastic Compliance Matrix: (Units=1/GPa)
#
#
# Indices 1 2 3 4 5 6 
#
# 1 0.006134 -0.001020 -0.003445 0.000000 0.000000 0.000000
# 2 -0.001020 0.015518 0.000295 0.000000 0.000000 0.000000
# 3 -0.003445 0.000295 0.009272 0.000000 0.000000 0.000000
# 4 0.000000 0.000000 0.000000 0.114684 0.000000 0.000000
# 5 0.000000 0.000000 0.000000 0.000000 0.030411 0.000000
# 6 0.000000 0.000000 0.000000 0.000000 0.000000 -0.059366
#
#
# Mechanical properties :
#
#
# Convention : Reuss Voigt Hill
#
# Bulk Modulus (GPa) = 44.28018 65.92751 55.10385
# Shear Modulus (GPa) = 37.72995 26.16483 31.94739
#
# Velocity S-wave (km/s) = 4.07473 3.39324 3.74950
# Velocity P-wave (km/s) = 6.45165 6.66064 6.55697
#
# Compressibility (1/GPa) = 0.02258347
#
# Stress axis : x y z
#
# Youngs Moduli (GPa) = 163.03280 64.44150 107.84920
#
# Poissons Ratio (x) = 0.06572 0.37157
# Poissons Ratio (y) = 0.16626 -0.03180
# Poissons Ratio (z) = 0.56170 -0.01900
#
# Static dielectric constant tensor:
#      x y z
#    x 1.813540 0.000000 0.000000 
#    y 0.000000 1.896860 0.000000 
#    z 0.000000 0.000000 1.923590 
# 
# From -- ./inp_files/6185.got.cif
#   From: 2010.05.17/outbox.cif.g08.bks.cpg/sg71_4_cif.got.tgz:6185.got - 2010.06.03 16:22:01.
