data_PCOD9522891
_publ_section_title
;
Structure prediction by ZEFSAII (Michael W. Deem and Ramdas Pophale) SiO2 
 PCOD9522891
Probable space group: I M M M
;
_chemical_formula_sum "Si O2"
_cell_formula_units_Z 104
_cell_length_a 8.021667
_cell_length_b 21.586754
_cell_length_c 29.132601
_cell_angle_alpha 90.000000
_cell_angle_beta 90.000000
_cell_angle_gamma 90.000000
_cell_volume 5044.652235
_symmetry_space_group_name_H-M "I M M M"
_symmetry_group_IT_number 71
_symmetry_cell_setting 'orthorhombic'
loop_
_space_group_symop_operation_xyz
x,y,z
-x,-y,z
x,-y,-z
-x,y,-z
-x,-y,-z
x,y,-z
-x,y,z
x,-y,z
1/2+x,1/2+y,1/2+z
1/2-x,1/2-y,1/2+z
1/2+x,1/2-y,1/2-z
1/2-x,1/2+y,1/2-z
1/2-x,1/2-y,1/2-z
1/2+x,1/2+y,1/2-z
1/2-x,1/2+y,1/2+z
1/2+x,1/2-y,1/2+z
loop_
_atom_site_type_symbol
_atom_site_label
_atom_site_fract_x
_atom_site_fract_y
_atom_site_fract_z
Si Si1 0.696180 0.500000 0.448578
Si Si2 0.203957 0.431679 0.272497
Si Si3 0.798228 0.570859 0.893758
Si Si4 0.193415 0.595419 0.373683
Si Si5 0.296869 0.844804 0.693169
Si Si6 0.302751 0.315973 0.948181
Si Si7 0.193971 0.233121 0.864755
O O1 0.500000 0.500000 0.453796
O O2 0.772133 0.500000 0.500000
O O3 0.738096 0.440083 0.417737
O O4 0.247688 0.500000 0.253919
O O5 0.265253 0.426315 0.324659
O O6 0.260722 0.374970 0.240674
O O7 0.000000 0.428917 0.272955
O O8 0.742412 0.500000 0.894182
O O9 0.750877 0.606560 0.846931
O O10 0.729522 0.612789 0.934770
O O11 0.000000 0.571536 0.895901
O O12 0.214333 0.669086 0.373591
O O13 0.000000 0.578983 0.372719
O O14 0.500000 0.841865 0.693866
O O15 0.239799 0.776929 0.676593
O O16 0.500000 0.303282 0.944496
O O17 0.209998 0.275248 0.910164
O O18 0.248181 0.303080 0.000000
O O19 0.000000 0.219194 0.856260
#
# Coordination Sequence:
#
# PCOD9522891 Si02
#       7
#     8  16  16  16  16  16  16
#     4  11  25  45  67  89 115 149 189 237 292 347
#     4   9  16  29  53  85 117 150 188 227 272 328
#     4   9  17  30  50  77 108 145 187 230 275 324
#     4  11  22  38  61  90 118 148 183 225 282 340
#     4   8  15  29  51  80 113 150 191 229 268 321
#     4  10  21  36  53  74 102 139 183 234 289 338
#     4  10  21  37  57  82 112 149 189 233 282 334
#
# _framework density 20.61589
#
# number of rings (size 3 to 8) (size 9 to 14) (size 15 to 20)
#    0.000    2.385    0.769    3.000    0.000    5.538 
#    0.000    1.538    0.000    8.308    0.000    0.000 
#    0.000    0.000    0.000    0.000    0.000    0.000 
#
# Total GULP energy -290148.076712 kJ/mol
# GULP energy per Si atom -5579.770706 kJ/mol
# Density = 2.056897 g / cm^3
# Si number density = 20.615890 Si / 1000 Ang^3
#
#
#
# Elastic Constant Matrix: (Units=GPa)
#
#
# Indices 1 2 3 4 5 6 
#
# 1 21.8562 1.9219 9.1521 0.0000 0.0000 0.0000
# 2 1.9219 132.4583 50.4124 0.0000 0.0000 0.0000
# 3 9.1521 50.4124 126.9408 0.0000 0.0000 0.0000
# 4 0.0000 0.0000 0.0000 -12.0534 0.0000 0.0000
# 5 0.0000 0.0000 0.0000 0.0000 -16.2970 0.0000
# 6 0.0000 0.0000 0.0000 0.0000 0.0000 13.4735
#
#
#
# Elastic Compliance Matrix: (Units=1/GPa)
#
#
# Indices 1 2 3 4 5 6 
#
# 1 0.047236 0.000720 -0.003691 0.000000 0.000000 0.000000
# 2 0.000720 0.008905 -0.003588 0.000000 0.000000 0.000000
# 3 -0.003691 -0.003588 0.009569 0.000000 0.000000 0.000000
# 4 0.000000 0.000000 0.000000 -0.082964 0.000000 0.000000
# 5 0.000000 0.000000 0.000000 0.000000 -0.061361 0.000000
# 6 0.000000 0.000000 0.000000 0.000000 0.000000 0.074220
#
#
# Mechanical properties :
#
#
# Convention : Reuss Voigt Hill
#
# Bulk Modulus (GPa) = 19.01521 44.91424 31.96473
# Shear Modulus (GPa) = 190.44339 11.67587 101.05963
#
# Velocity S-wave (km/s) = 9.62172 2.38240 7.00904
# Velocity P-wave (km/s) = 11.51869 5.42230 9.00227
#
# Compressibility (1/GPa) = 0.05258947
#
# Stress axis : x y z
#
# Youngs Moduli (GPa) = 21.17030 112.29946 104.50590
#
# Poissons Ratio (x) = -0.08080 0.38577
# Poissons Ratio (y) = -0.01523 0.37499
# Poissons Ratio (z) = 0.07815 0.40296
#
# Static dielectric constant tensor:
#      x y z
#    x 1.738300 0.000000 0.000000 
#    y 0.000000 1.739810 0.000000 
#    z 0.000000 0.000000 1.753720 
# 
# From -- ./inp_files/68246.got.cif
#   From: 2010.05.17/outbox.cif.g08.bks.cpg/sg71_35_cif.got.tgz:68246.got - 2010.06.03 16:22:01.
