data_PCOD9522731
_publ_section_title
;
Structure prediction by ZEFSAII (Michael W. Deem and Ramdas Pophale) SiO2 
 PCOD9522731
Probable space group: I M M M
;
_chemical_formula_sum "Si O2"
_cell_formula_units_Z 104
_cell_length_a 19.338542
_cell_length_b 7.764855
_cell_length_c 34.941460
_cell_angle_alpha 90.000000
_cell_angle_beta 90.000000
_cell_angle_gamma 90.000000
_cell_volume 5246.843685
_symmetry_space_group_name_H-M "I M M M"
_symmetry_group_IT_number 71
_symmetry_cell_setting 'orthorhombic'
loop_
_space_group_symop_operation_xyz
x,y,z
-x,-y,z
x,-y,-z
-x,y,-z
-x,-y,-z
x,y,-z
-x,y,z
x,-y,z
1/2+x,1/2+y,1/2+z
1/2-x,1/2-y,1/2+z
1/2+x,1/2-y,1/2-z
1/2-x,1/2+y,1/2-z
1/2-x,1/2-y,1/2-z
1/2+x,1/2+y,1/2-z
1/2-x,1/2+y,1/2+z
1/2+x,1/2-y,1/2+z
loop_
_atom_site_type_symbol
_atom_site_label
_atom_site_fract_x
_atom_site_fract_y
_atom_site_fract_z
Si Si1 0.424145 0.795272 0.242221
Si Si2 0.302334 0.700962 0.102745
Si Si3 0.802554 0.294929 0.689137
Si Si4 0.148101 0.198104 0.905914
Si Si5 0.921488 0.291653 0.456060
Si Si6 0.352657 0.292096 0.317939
Si Si7 0.917303 0.500000 0.044936
O O1 0.500000 0.723850 0.233002
O O2 0.360599 0.722463 0.217384
O O3 0.406522 0.769678 0.286659
O O4 0.426356 0.000000 0.234673
O O5 0.285383 0.500000 0.105546
O O6 0.322475 0.765516 0.144981
O O7 0.231532 0.794310 0.090685
O O8 0.363899 0.727391 0.072967
O O9 0.798211 0.500000 0.695736
O O10 0.724274 0.226918 0.693446
O O11 0.133183 0.254257 0.861957
O O12 0.113918 0.331564 0.934688
O O13 0.125530 0.000000 0.911200
O O14 0.907739 0.238352 0.500000
O O15 0.920354 0.500000 0.455244
O O16 0.000000 0.237340 0.446199
O O17 0.351125 0.500000 0.317196
O O18 0.000000 0.500000 0.049051
O O19 0.900044 0.500000 0.000000
#
# Coordination Sequence:
#
# PCOD9522731 Si02
#       7
#    16  16  16  16  16  16   8
#     4  10  21  34  51  79 114 152 195 246 303 361
#     4  11  21  35  59  89 119 155 203 258 312 363
#     4   9  19  36  54  76 110 152 198 242 296 366
#     4  10  22  43  67  94 126 162 208 256 309 370
#     4   9  19  36  56  79 111 154 200 244 299 365
#     4   9  19  35  58  83 109 150 199 246 297 355
#     4  11  26  46  68  98 131 163 203 251 312 382
#
# _framework density 19.821442000000001
#
# number of rings (size 3 to 8) (size 9 to 14) (size 15 to 20)
#    0.000    2.231    0.769    3.231    1.077    4.615 
#    0.000    4.615    0.000    0.000    0.000    0.000 
#    0.000    0.000    0.000    0.000    0.000    0.000 
#
# Total GULP energy -290355.371819 kJ/mol
# GULP energy per Si atom -5583.757150 kJ/mol
# Density = 1.977633 g / cm^3
# Si number density = 19.821442 Si / 1000 Ang^3
#
#
#
# Elastic Constant Matrix: (Units=GPa)
#
#
# Indices 1 2 3 4 5 6 
#
# 1 60.4746 18.5101 60.7451 0.0000 0.0000 0.0000
# 2 18.5101 55.9402 18.6790 0.0000 0.0000 0.0000
# 3 60.7451 18.6790 82.3230 0.0000 0.0000 0.0000
# 4 0.0000 0.0000 0.0000 21.2036 0.0000 0.0000
# 5 0.0000 0.0000 0.0000 0.0000 63.8876 0.0000
# 6 0.0000 0.0000 0.0000 0.0000 0.0000 14.9239
#
#
#
# Elastic Compliance Matrix: (Units=1/GPa)
#
#
# Indices 1 2 3 4 5 6 
#
# 1 0.065706 -0.006007 -0.047121 0.000000 0.000000 0.000000
# 2 -0.006007 0.019891 -0.000080 0.000000 0.000000 0.000000
# 3 -0.047121 -0.000080 0.046935 0.000000 0.000000 0.000000
# 4 0.000000 0.000000 0.000000 0.047162 0.000000 0.000000
# 5 0.000000 0.000000 0.000000 0.000000 0.015652 0.000000
# 6 0.000000 0.000000 0.000000 0.000000 0.000000 0.067007
#
#
# Mechanical properties :
#
#
# Convention : Reuss Voigt Hill
#
# Bulk Modulus (GPa) = 38.29178 43.84513 41.06845
# Shear Modulus (GPa) = 13.24587 26.72323 19.98455
#
# Velocity S-wave (km/s) = 2.58788 3.67577 3.17871
# Velocity P-wave (km/s) = 5.31881 6.33901 5.85119
#
# Compressibility (1/GPa) = 0.02611527
#
# Stress axis : x y z
#
# Youngs Moduli (GPa) = 15.21924 50.27425 21.30589
#
# Poissons Ratio (x) = 0.30202 1.00395
# Poissons Ratio (y) = 0.09143 0.00171
# Poissons Ratio (z) = 0.71714 0.00404
#
# Static dielectric constant tensor:
#      x y z
#    x 1.700030 0.000000 0.000000 
#    y 0.000000 1.762580 0.000000 
#    z 0.000000 0.000000 1.670220 
# 
# From -- ./inp_files/70742.got.cif
#   From: 2010.05.17/outbox.cif.g08.bks.cpg/sg71_36_cif.got.tgz:70742.got - 2010.06.03 16:22:01.
