data_PCOD9522626
_publ_section_title
;
Structure prediction by ZEFSAII (Michael W. Deem and Ramdas Pophale) SiO2 
 PCOD9522626
Probable space group: I M M M
;
_chemical_formula_sum "Si O2"
_cell_formula_units_Z 90
_cell_length_a 23.528688
_cell_length_b 8.299764
_cell_length_c 22.745420
_cell_angle_alpha 90.000000
_cell_angle_beta 90.000000
_cell_angle_gamma 90.000000
_cell_volume 4441.783792
_symmetry_space_group_name_H-M "I M M M"
_symmetry_group_IT_number 71
_symmetry_cell_setting 'orthorhombic'
loop_
_space_group_symop_operation_xyz
x,y,z
-x,-y,z
x,-y,-z
-x,y,-z
-x,-y,-z
x,y,-z
-x,y,z
x,-y,z
1/2+x,1/2+y,1/2+z
1/2-x,1/2-y,1/2+z
1/2+x,1/2-y,1/2-z
1/2-x,1/2+y,1/2-z
1/2-x,1/2-y,1/2-z
1/2+x,1/2+y,1/2-z
1/2-x,1/2+y,1/2+z
1/2+x,1/2-y,1/2+z
loop_
_atom_site_type_symbol
_atom_site_label
_atom_site_fract_x
_atom_site_fract_y
_atom_site_fract_z
Si Si1 0.735659 0.804616 0.376474
Si Si2 0.119445 0.192443 0.829599
Si Si3 0.500000 0.000000 0.500000
Si Si4 0.663862 0.690438 0.795744
Si Si5 0.000000 0.676012 0.124321
Si Si6 0.561923 0.809480 0.128368
Si Si7 0.917991 0.810289 0.500000
Si Si8 0.717265 0.690836 0.000000
O O1 0.670958 0.752692 0.369845
O O2 0.777258 0.744856 0.323753
O O3 0.758994 0.743263 0.438897
O O4 0.738898 0.000000 0.375817
O O5 0.138492 0.257548 0.765099
O O6 0.058082 0.242960 0.853760
O O7 0.119723 0.000000 0.826849
O O8 0.500000 0.861706 0.553935
O O9 0.672686 0.500000 0.787024
O O10 0.614378 0.716617 0.843339
O O11 0.000000 0.500000 0.153445
O O12 0.500000 0.760952 0.153060
O O13 0.561457 0.772064 0.059323
O O14 0.569411 0.000000 0.137815
O O15 0.850069 0.796000 0.500000
O O16 0.932632 0.000000 0.500000
O O17 0.731449 0.500000 0.000000
#
# Coordination Sequence:
#
# PCOD9522626 Si02
#       8
#    16  16   2  16   8  16   8   8
#     4  10  20  39  63  92 125 169 214 257 312 381
#     4  11  24  41  64 100 133 162 204 264 328 386
#     4   8  24  48  78  96 120 164 226 270 310 408
#     4  10  22  40  63  89 128 171 215 258 309 384
#     4  10  23  47  73  95 123 165 213 258 319 387
#     4  11  24  38  55  86 125 164 213 267 318 362
#     4  11  20  38  62  83 117 166 217 262 316 374
#     4   9  18  35  61  87 115 155 211 264 303 368
#
# _framework density 20.262129000000002
#
# number of rings (size 3 to 8) (size 9 to 14) (size 15 to 20)
#    0.267    1.422    1.778    2.400    1.244    5.333 
#    1.600    2.222    0.000    0.000    0.000    0.000 
#    0.000    0.000    0.000    0.000    0.000    0.000 
#
# Total GULP energy -250820.543748 kJ/mol
# GULP energy per Si atom -5573.789861 kJ/mol
# Density = 2.021601 g / cm^3
# Si number density = 20.262129 Si / 1000 Ang^3
#
#
#
# Elastic Constant Matrix: (Units=GPa)
#
#
# Indices 1 2 3 4 5 6 
#
# 1 146.0941 14.5758 58.8677 0.0000 0.0000 0.0000
# 2 14.5758 25.2353 10.7056 0.0000 0.0000 0.0000
# 3 58.8677 10.7056 108.1012 0.0000 0.0000 0.0000
# 4 0.0000 0.0000 0.0000 21.0990 0.0000 0.0000
# 5 0.0000 0.0000 0.0000 0.0000 1.8711 0.0000
# 6 0.0000 0.0000 0.0000 0.0000 0.0000 15.5081
#
#
#
# Elastic Compliance Matrix: (Units=1/GPa)
#
#
# Indices 1 2 3 4 5 6 
#
# 1 0.009019 -0.003263 -0.004588 0.000000 0.000000 0.000000
# 2 -0.003263 0.042545 -0.002436 0.000000 0.000000 0.000000
# 3 -0.004588 -0.002436 0.011991 0.000000 0.000000 0.000000
# 4 0.000000 0.000000 0.000000 0.047396 0.000000 0.000000
# 5 0.000000 0.000000 0.000000 0.000000 0.534451 0.000000
# 6 0.000000 0.000000 0.000000 0.000000 0.000000 0.064482
#
#
# Mechanical properties :
#
#
# Convention : Reuss Voigt Hill
#
# Bulk Modulus (GPa) = 23.26692 49.74764 36.50728
# Shear Modulus (GPa) = 6.71333 20.71440 13.71386
#
# Velocity S-wave (km/s) = 1.82221 3.20084 2.60440
# Velocity P-wave (km/s) = 3.99188 6.18594 5.20581
#
# Compressibility (1/GPa) = 0.04297947
#
# Stress axis : x y z
#
# Youngs Moduli (GPa) = 110.87297 23.50431 83.39886
#
# Poissons Ratio (x) = 0.07669 0.38267
# Poissons Ratio (y) = 0.36177 0.20320
# Poissons Ratio (z) = 0.50873 0.05727
#
# Static dielectric constant tensor:
#      x y z
#    x 1.741120 0.000000 0.000000 
#    y 0.000000 1.706700 0.000000 
#    z 0.000000 0.000000 1.751010 
# 
# From -- ./inp_files/61196.got.cif
#   From: 2010.05.17/outbox.cif.g08.bks.cpg/sg71_31_cif.got.tgz:61196.got - 2010.06.03 16:22:01.
