data_PCOD9522991
_publ_section_title
;
Structure prediction by ZEFSAII (Michael W. Deem and Ramdas Pophale) SiO2 
 PCOD9522991
Probable space group: I M M M
;
_chemical_formula_sum "Si O2"
_cell_formula_units_Z 88
_cell_length_a 20.558277
_cell_length_b 7.513246
_cell_length_c 25.304627
_cell_angle_alpha 90.000000
_cell_angle_beta 90.000000
_cell_angle_gamma 90.000000
_cell_volume 3908.537312
_symmetry_space_group_name_H-M "I M M M"
_symmetry_group_IT_number 71
_symmetry_cell_setting 'orthorhombic'
loop_
_space_group_symop_operation_xyz
x,y,z
-x,-y,z
x,-y,-z
-x,y,-z
-x,-y,-z
x,y,-z
-x,y,z
x,-y,z
1/2+x,1/2+y,1/2+z
1/2-x,1/2-y,1/2+z
1/2+x,1/2-y,1/2-z
1/2-x,1/2+y,1/2-z
1/2-x,1/2-y,1/2-z
1/2+x,1/2+y,1/2-z
1/2-x,1/2+y,1/2+z
1/2+x,1/2-y,1/2+z
loop_
_atom_site_type_symbol
_atom_site_label
_atom_site_fract_x
_atom_site_fract_y
_atom_site_fract_z
Si Si1 0.759192 0.715943 0.441765
Si Si2 0.391208 0.282628 0.441927
Si Si3 0.569168 0.285901 0.671570
Si Si4 0.124812 0.717973 0.368305
Si Si5 0.673974 0.206962 0.757569
Si Si6 0.500000 0.782358 0.937841
O O1 0.782370 0.769599 0.500000
O O2 0.758388 0.500000 0.440511
O O3 0.684474 0.770176 0.436139
O O4 0.809103 0.773868 0.397751
O O5 0.414389 0.224628 0.500000
O O6 0.393966 0.500000 0.442464
O O7 0.425763 0.222636 0.388848
O O8 0.500000 0.224384 0.694869
O O9 0.568233 0.500000 0.669995
O O10 0.631877 0.238975 0.705428
O O11 0.121204 0.500000 0.368615
O O12 0.134975 0.784019 0.308251
O O13 0.063193 0.774269 0.403684
O O14 0.750000 0.250000 0.750000
O O15 0.674289 0.000000 0.768265
O O16 0.500000 0.000000 0.939299
O O17 0.500000 0.726517 0.000000
#
# Coordination Sequence:
#
# PCOD9522991 Si02
#       6
#    16  16  16  16  16   8
#     4   8  12  20  37  62  93 128 165 208 263 319
#     4   8  14  26  47  75 105 137 176 225 277 324
#     4  10  21  36  55  81 115 149 184 228 279 338
#     4   9  17  27  43  68 101 140 175 214 268 331
#     4  11  23  38  58  80 109 148 193 241 287 341
#     4   9  16  26  42  70 109 143 172 215 278 346
#
# _framework density 22.514817000000001
#
# number of rings (size 3 to 8) (size 9 to 14) (size 15 to 20)
#    0.000    2.818    0.000    3.273    1.273    5.818 
#    0.000    1.818    0.000    0.545    0.000    1.273 
#    0.000   11.636    0.000    0.000    0.000    0.000 
#
# Total GULP energy -245444.010251 kJ/mol
# GULP energy per Si atom -5578.272960 kJ/mol
# Density = 2.246357 g / cm^3
# Si number density = 22.514817 Si / 1000 Ang^3
#
#
#
# Elastic Constant Matrix: (Units=GPa)
#
#
# Indices 1 2 3 4 5 6 
#
# 1 142.9096 4.3562 86.5254 0.0000 0.0000 0.0000
# 2 4.3562 53.7996 2.3560 0.0000 0.0000 0.0000
# 3 86.5254 2.3560 160.3999 0.0000 0.0000 0.0000
# 4 0.0000 0.0000 0.0000 5.9091 0.0000 0.0000
# 5 0.0000 0.0000 0.0000 0.0000 34.6185 0.0000
# 6 0.0000 0.0000 0.0000 0.0000 0.0000 4.2873
#
#
#
# Elastic Compliance Matrix: (Units=1/GPa)
#
#
# Indices 1 2 3 4 5 6 
#
# 1 0.010410 -0.000597 -0.005607 0.000000 0.000000 0.000000
# 2 -0.000597 0.018634 0.000049 0.000000 0.000000 0.000000
# 3 -0.005607 0.000049 0.009258 0.000000 0.000000 0.000000
# 4 0.000000 0.000000 0.000000 0.169231 0.000000 0.000000
# 5 0.000000 0.000000 0.000000 0.000000 0.028886 0.000000
# 6 0.000000 0.000000 0.000000 0.000000 0.000000 0.233246
#
#
# Mechanical properties :
#
#
# Convention : Reuss Voigt Hill
#
# Bulk Modulus (GPa) = 38.47510 60.39827 49.43668
# Shear Modulus (GPa) = 10.19074 26.55441 18.37258
#
# Velocity S-wave (km/s) = 2.12980 3.43799 2.85971
# Velocity P-wave (km/s) = 4.81394 6.53024 5.73663
#
# Compressibility (1/GPa) = 0.02599084
#
# Stress axis : x y z
#
# Youngs Moduli (GPa) = 96.05764 53.66607 108.01114
#
# Poissons Ratio (x) = 0.03206 0.60562
# Poissons Ratio (y) = 0.05738 -0.00524
# Poissons Ratio (z) = 0.53859 -0.00261
#
# Static dielectric constant tensor:
#      x y z
#    x 1.780850 0.000000 0.000000 
#    y 0.000000 1.928480 0.000000 
#    z 0.000000 0.000000 1.842690 
# 
# From -- ./inp_files/50513.got.cif
#   From: 2010.05.17/outbox.cif.g08.bks.cpg/sg71_26_cif.got.tgz:50513.got - 2010.06.03 16:22:01.
