data_PCOD9522338
_publ_section_title
;
Structure prediction by ZEFSAII (Michael W. Deem and Ramdas Pophale) SiO2 
 PCOD9522338
Probable space group: I M M M
;
_chemical_formula_sum "Si O2"
_cell_formula_units_Z 56
_cell_length_a 7.800726
_cell_length_b 33.036392
_cell_length_c 10.186496
_cell_angle_alpha 90.000000
_cell_angle_beta 90.000000
_cell_angle_gamma 90.000000
_cell_volume 2625.139902
_symmetry_space_group_name_H-M "I M M M"
_symmetry_group_IT_number 71
_symmetry_cell_setting 'orthorhombic'
loop_
_space_group_symop_operation_xyz
x,y,z
-x,-y,z
x,-y,-z
-x,y,-z
-x,-y,-z
x,y,-z
-x,y,z
x,-y,z
1/2+x,1/2+y,1/2+z
1/2-x,1/2-y,1/2+z
1/2+x,1/2-y,1/2-z
1/2-x,1/2+y,1/2-z
1/2-x,1/2-y,1/2-z
1/2+x,1/2+y,1/2-z
1/2-x,1/2+y,1/2+z
1/2+x,1/2-y,1/2+z
loop_
_atom_site_type_symbol
_atom_site_label
_atom_site_fract_x
_atom_site_fract_y
_atom_site_fract_z
Si Si1 0.790693 0.781034 0.500000
Si Si2 0.298066 0.933887 0.644951
Si Si3 0.205675 0.688434 0.500000
Si Si4 0.702381 0.656147 0.217694
Si Si5 0.710440 0.000000 0.150500
O O1 0.730192 0.734896 0.500000
O O2 0.734988 0.806802 0.626795
O O3 0.000000 0.779435 0.500000
O O4 0.223923 0.942581 0.500000
O O5 0.500000 0.943225 0.637522
O O6 0.280042 0.886519 0.675297
O O7 0.231833 0.961229 0.764249
O O8 0.264297 0.666271 0.631497
O O9 0.000000 0.689027 0.500000
O O10 0.500000 0.652583 0.194745
O O11 0.500000 0.000000 0.144546
O O12 0.769755 0.000000 0.000000
#
# Coordination Sequence:
#
# PCOD9522338 Si02
#       5
#     8  16   8  16   8
#     4   9  20  39  61  84 117 156 200 244 292 349
#     4  10  20  36  59  87 117 154 198 241 286 343
#     4  11  23  39  59  86 117 156 203 250 291 345
#     4  11  22  39  60  87 121 158 194 242 301 354
#     4   9  19  35  58  87 118 152 192 241 289 336
#
# _framework density 21.332194999999999
#
# number of rings (size 3 to 8) (size 9 to 14) (size 15 to 20)
#    0.000    1.857    1.429    2.571    2.000    1.714 
#    0.000    5.000    0.000    2.571    0.000    0.000 
#    0.000    0.000    0.000    0.000    0.000    0.000 
#
# Total GULP energy -156471.539618 kJ/mol
# GULP energy per Si atom -5588.269272 kJ/mol
# Density = 2.128364 g / cm^3
# Si number density = 21.332195 Si / 1000 Ang^3
#
#
#
# Elastic Constant Matrix: (Units=GPa)
#
#
# Indices 1 2 3 4 5 6 
#
# 1 27.4482 -3.3898 -3.2092 0.0000 0.0000 0.0000
# 2 -3.3898 98.3428 63.9741 -0.0001 0.0000 0.0000
# 3 -3.2092 63.9741 205.9777 -0.0003 0.0000 0.0002
# 4 0.0000 -0.0001 -0.0003 36.9443 0.0001 0.0002
# 5 0.0000 0.0000 0.0000 0.0001 -8.0509 0.0000
# 6 0.0000 0.0000 0.0002 0.0002 0.0000 7.3043
#
#
#
# Elastic Compliance Matrix: (Units=1/GPa)
#
#
# Indices 1 2 3 4 5 6 
#
# 1 0.036596 0.001116 0.000224 0.000000 0.000000 0.000000
# 2 0.001116 0.012777 -0.003951 0.000000 0.000000 0.000000
# 3 0.000224 -0.003951 0.006086 0.000000 0.000000 0.000000
# 4 0.000000 0.000000 0.000000 0.027068 0.000000 -0.000001
# 5 0.000000 0.000000 0.000000 0.000000 -0.124210 -0.000001
# 6 0.000000 0.000000 0.000000 -0.000001 -0.000001 0.136906
#
#
# Mechanical properties :
#
#
# Convention : Reuss Voigt Hill
#
# Bulk Modulus (GPa) = 19.90601 49.61319 34.75960
# Shear Modulus (GPa) = 42.66536 25.53244 34.09890
#
# Velocity S-wave (km/s) = 4.47704 3.46337 4.00243
# Velocity P-wave (km/s) = 6.00640 6.26907 6.13914
#
# Compressibility (1/GPa) = 0.05023609
#
# Stress axis : x y z
#
# Youngs Moduli (GPa) = 27.32519 78.26420 164.32434
#
# Poissons Ratio (x) = -0.08734 -0.03674
# Poissons Ratio (y) = -0.03050 0.64926
# Poissons Ratio (z) = -0.00611 0.30923
#
# Static dielectric constant tensor:
#      x y z
#    x 1.777750 0.000000 0.000000 
#    y 0.000000 1.736820 0.000000 
#    z 0.000000 0.000000 1.753240 
# 
# From -- ./inp_files/3608.got.cif
#   From: 2010.05.17/outbox.cif.g08.bks.cpg/sg71_2_cif.got.tgz:3608.got - 2010.06.03 16:22:01.
