data_PCOD9522225
_publ_section_title
;
Structure prediction by ZEFSAII (Michael W. Deem and Ramdas Pophale) SiO2 
 PCOD9522225
Probable space group: I M M M
;
_chemical_formula_sum "Si O2"
_cell_formula_units_Z 104
_cell_length_a 26.334886
_cell_length_b 8.909814
_cell_length_c 20.358663
_cell_angle_alpha 90.000000
_cell_angle_beta 90.000000
_cell_angle_gamma 90.000000
_cell_volume 4776.935024
_symmetry_space_group_name_H-M "I M M M"
_symmetry_group_IT_number 71
_symmetry_cell_setting 'orthorhombic'
loop_
_space_group_symop_operation_xyz
x,y,z
-x,-y,z
x,-y,-z
-x,y,-z
-x,-y,-z
x,y,-z
-x,y,z
x,-y,z
1/2+x,1/2+y,1/2+z
1/2-x,1/2-y,1/2+z
1/2+x,1/2-y,1/2-z
1/2-x,1/2+y,1/2-z
1/2-x,1/2-y,1/2-z
1/2+x,1/2+y,1/2-z
1/2-x,1/2+y,1/2+z
1/2+x,1/2-y,1/2+z
loop_
_atom_site_type_symbol
_atom_site_label
_atom_site_fract_x
_atom_site_fract_y
_atom_site_fract_z
Si Si1 0.203175 0.322437 0.617347
Si Si2 0.500000 0.172534 0.080783
Si Si3 0.055562 0.180665 0.211364
Si Si4 0.417292 0.178068 0.572091
Si Si5 0.166572 0.820357 0.749028
Si Si6 0.898625 0.832715 0.577642
Si Si7 0.196383 0.323151 0.886384
O O1 0.208698 0.500000 0.615786
O O2 0.196787 0.260976 0.691472
O O3 0.150472 0.268991 0.586275
O O4 0.251940 0.243912 0.584989
O O5 0.449713 0.257805 0.103795
O O6 0.500000 0.000000 0.101348
O O7 0.500000 0.172352 0.000000
O O8 0.061942 0.239478 0.136476
O O9 0.106555 0.224560 0.250763
O O10 0.000000 0.230650 0.235973
O O11 0.056118 0.000000 0.209968
O O12 0.435440 0.228634 0.500000
O O13 0.356005 0.194860 0.574354
O O14 0.428248 0.000000 0.578358
O O15 0.186909 0.765225 0.818795
O O16 0.171310 0.000000 0.743708
O O17 0.906626 0.848094 0.500000
O O18 0.890274 0.000000 0.605725
O O19 0.203239 0.500000 0.874046
#
# Coordination Sequence:
#
# PCOD9522225 Si02
#       7
#    16   8  16  16  16  16  16
#     4  12  24  37  55  82 113 143 182 229 280 334
#     4   9  17  33  57  81 107 139 173 213 262 313
#     4   9  19  36  57  81 110 145 184 229 278 325
#     4   9  19  35  55  81 112 147 186 226 271 327
#     4  10  20  37  58  79 107 143 186 230 279 335
#     4  10  21  38  59  82 109 144 184 223 268 324
#     4  10  20  36  57  79 108 145 186 230 279 331
#
# _framework density 21.771281999999999
#
# number of rings (size 3 to 8) (size 9 to 14) (size 15 to 20)
#    0.000    2.077    0.000    3.462    0.000    4.615 
#    1.385    3.077    0.000    0.000    0.000    0.000 
#    0.000    0.000    0.000    0.000    0.000    0.000 
#
# Total GULP energy -290596.144323 kJ/mol
# GULP energy per Si atom -5588.387391 kJ/mol
# Density = 2.172173 g / cm^3
# Si number density = 21.771282 Si / 1000 Ang^3
#
#
#
# Elastic Constant Matrix: (Units=GPa)
#
#
# Indices 1 2 3 4 5 6 
#
# 1 138.9106 30.2500 -4.8923 0.0000 0.0000 0.0000
# 2 30.2500 86.5271 6.2073 0.0000 0.0000 0.0000
# 3 -4.8923 6.2073 41.9944 0.0000 0.0000 0.0000
# 4 0.0000 0.0000 0.0000 20.7501 0.0000 0.0000
# 5 0.0000 0.0000 0.0000 0.0000-1166.1192 0.0000
# 6 0.0000 0.0000 0.0000 0.0000 0.0000 28.7183
#
#
#
# Elastic Compliance Matrix: (Units=1/GPa)
#
#
# Indices 1 2 3 4 5 6 
#
# 1 0.007866 -0.002846 0.001337 0.000000 0.000000 0.000000
# 2 -0.002846 0.012711 -0.002210 0.000000 0.000000 0.000000
# 3 0.001337 -0.002210 0.024295 0.000000 0.000000 0.000000
# 4 0.000000 0.000000 0.000000 0.048192 0.000000 0.000000
# 5 0.000000 0.000000 0.000000 0.000000 -0.000858 0.000000
# 6 0.000000 0.000000 0.000000 0.000000 0.000000 0.034821
#
#
# Mechanical properties :
#
#
# Convention : Reuss Voigt Hill
#
# Bulk Modulus (GPa) = 26.71424 36.72911 31.72168
# Shear Modulus (GPa) = 34.02674 -207.60569 -86.78948
#
# Velocity S-wave (km/s) = 3.95767 -9.77571 -6.32066
# Velocity P-wave (km/s) = 5.76031 10.51249 6.21817
#
# Compressibility (1/GPa) = 0.03743322
#
# Stress axis : x y z
#
# Youngs Moduli (GPa) = 127.13474 78.67504 41.16040
#
# Poissons Ratio (x) = 0.22389 -0.05503
# Poissons Ratio (y) = 0.36179 0.09098
# Poissons Ratio (z) = -0.16998 0.17390
#
# Static dielectric constant tensor:
#      x y z
#    x 1.835570 0.000000 0.000000 
#    y 0.000000 1.742680 0.000000 
#    z 0.000000 0.000000 1.815530 
# 
# From -- ./inp_files/56246.got.cif
#   From: 2010.05.17/outbox.cif.g08.bks.cpg/sg71_29_cif.got.tgz:56246.got - 2010.06.03 16:22:01.
