data_PCOD9522007
_publ_section_title
;
Structure prediction by ZEFSAII (Michael W. Deem and Ramdas Pophale) SiO2 
 PCOD9522007
Probable space group: I M M M
;
_chemical_formula_sum "Si O2"
_cell_formula_units_Z 72
_cell_length_a 24.800642
_cell_length_b 7.754604
_cell_length_c 18.137473
_cell_angle_alpha 90.000000
_cell_angle_beta 90.000000
_cell_angle_gamma 90.000000
_cell_volume 3488.183529
_symmetry_space_group_name_H-M "I M M M"
_symmetry_group_IT_number 71
_symmetry_cell_setting 'orthorhombic'
loop_
_space_group_symop_operation_xyz
x,y,z
-x,-y,z
x,-y,-z
-x,y,-z
-x,-y,-z
x,y,-z
-x,y,z
x,-y,z
1/2+x,1/2+y,1/2+z
1/2-x,1/2-y,1/2+z
1/2+x,1/2-y,1/2-z
1/2-x,1/2+y,1/2-z
1/2-x,1/2-y,1/2-z
1/2+x,1/2+y,1/2-z
1/2-x,1/2+y,1/2+z
1/2+x,1/2-y,1/2+z
loop_
_atom_site_type_symbol
_atom_site_label
_atom_site_fract_x
_atom_site_fract_y
_atom_site_fract_z
Si Si1 0.621651 0.796363 0.649441
Si Si2 0.758050 0.707309 0.835585
Si Si3 0.439031 0.704358 0.798581
Si Si4 0.350639 0.288429 0.084790
Si Si5 0.561247 0.293233 0.500000
O O1 0.682639 0.726358 0.643546
O O2 0.589036 0.724613 0.719121
O O3 0.590997 0.765455 0.573595
O O4 0.625651 0.000000 0.662801
O O5 0.758353 0.500000 0.844250
O O6 0.750000 0.750000 0.750000
O O7 0.707001 0.770130 0.882579
O O8 0.500000 0.775941 0.799140
O O9 0.443358 0.500000 0.812064
O O10 0.398488 0.772355 0.861320
O O11 0.350518 0.500000 0.086526
O O12 0.357609 0.236700 0.000000
O O13 0.560308 0.500000 0.500000
O O14 0.500000 0.228819 0.500000
#
# Coordination Sequence:
#
# PCOD9522007 Si02
#       5
#    16  16  16  16   8
#     4  11  23  37  58  87 116 148 189 238 291 345
#     4  10  20  35  58  83 111 146 186 230 281 338
#     4  10  20  35  57  83 111 148 193 235 280 341
#     4   9  18  33  55  82 113 146 183 234 286 330
#     4  11  25  43  61  83 115 155 196 237 284 344
#
# _framework density 20.641117000000001
#
# number of rings (size 3 to 8) (size 9 to 14) (size 15 to 20)
#    0.000    1.889    2.222    1.667    1.556    5.333 
#    0.000    2.222    0.000    2.000    0.000    1.556 
#    0.000    0.000    0.000    0.000    0.000    0.000 
#
# Total GULP energy -201101.977511 kJ/mol
# GULP energy per Si atom -5586.166042 kJ/mol
# Density = 2.059414 g / cm^3
# Si number density = 20.641117 Si / 1000 Ang^3
#
#
#
# Elastic Constant Matrix: (Units=GPa)
#
#
# Indices 1 2 3 4 5 6 
#
# 1 243.8855 5.9052 122.7208 0.0000 0.0000 0.0000
# 2 5.9052 24.9578 -16.9263 0.0000 0.0000 0.0000
# 3 122.7208 -16.9263 183.5684 0.0000 0.0000 0.0000
# 4 0.0000 0.0000 0.0000 12.5821 0.0000 0.0000
# 5 0.0000 0.0000 0.0000 0.0000 29.4289 0.0000
# 6 0.0000 0.0000 0.0000 0.0000 0.0000 15.7350
#
#
#
# Elastic Compliance Matrix: (Units=1/GPa)
#
#
# Indices 1 2 3 4 5 6 
#
# 1 0.006704 -0.004934 -0.004937 0.000000 0.000000 0.000000
# 2 -0.004934 0.046372 0.007575 0.000000 0.000000 0.000000
# 3 -0.004937 0.007575 0.009446 0.000000 0.000000 0.000000
# 4 0.000000 0.000000 0.000000 0.079478 0.000000 0.000000
# 5 0.000000 0.000000 0.000000 0.000000 0.033980 0.000000
# 6 0.000000 0.000000 0.000000 0.000000 0.000000 0.063553
#
#
# Mechanical properties :
#
#
# Convention : Reuss Voigt Hill
#
# Bulk Modulus (GPa) = 17.26236 75.09013 46.17625
# Shear Modulus (GPa) = 18.97993 34.26332 26.62163
#
# Velocity S-wave (km/s) = 3.03565 4.07867 3.59519
# Velocity P-wave (km/s) = 4.54622 7.65759 6.29709
#
# Compressibility (1/GPa) = 0.05792950
#
# Stress axis : x y z
#
# Youngs Moduli (GPa) = 149.16798 21.56467 105.86149
#
# Poissons Ratio (x) = 0.10641 0.52261
# Poissons Ratio (y) = 0.73603 -0.80185
# Poissons Ratio (z) = 0.73640 -0.16334
#
# Static dielectric constant tensor:
#      x y z
#    x 1.758610 0.000000 0.000000 
#    y 0.000000 1.782130 0.000000 
#    z 0.000000 0.000000 1.657300 
# 
# From -- ./inp_files/6061.got.cif
#   From: 2010.05.17/outbox.cif.g08.bks.cpg/sg71_4_cif.got.tgz:6061.got - 2010.06.03 16:22:01.
