data_PCOD9522917
_publ_section_title
;
Structure prediction by ZEFSAII (Michael W. Deem and Ramdas Pophale) SiO2 
 PCOD9522917
Probable space group: I M M M
;
_chemical_formula_sum "Si O2"
_cell_formula_units_Z 104
_cell_length_a 20.398752
_cell_length_b 32.979728
_cell_length_c 9.305247
_cell_angle_alpha 90.000000
_cell_angle_beta 90.000000
_cell_angle_gamma 90.000000
_cell_volume 6260.061115
_symmetry_space_group_name_H-M "I M M M"
_symmetry_group_IT_number 71
_symmetry_cell_setting 'orthorhombic'
loop_
_space_group_symop_operation_xyz
x,y,z
-x,-y,z
x,-y,-z
-x,y,-z
-x,-y,-z
x,y,-z
-x,y,z
x,-y,z
1/2+x,1/2+y,1/2+z
1/2-x,1/2-y,1/2+z
1/2+x,1/2-y,1/2-z
1/2-x,1/2+y,1/2-z
1/2-x,1/2-y,1/2-z
1/2+x,1/2+y,1/2-z
1/2-x,1/2+y,1/2+z
1/2+x,1/2-y,1/2+z
loop_
_atom_site_type_symbol
_atom_site_label
_atom_site_fract_x
_atom_site_fract_y
_atom_site_fract_z
Si Si1 0.697876 0.544609 0.174001
Si Si2 0.326047 0.364233 0.173866
Si Si3 0.923076 0.196596 0.169344
Si Si4 0.152046 0.436238 0.167709
Si Si5 0.674962 0.157548 0.330986
Si Si6 0.077159 0.500000 0.341655
Si Si7 0.076277 0.717377 0.672092
O O1 0.674314 0.500000 0.224890
O O2 0.668472 0.588190 0.218602
O O3 0.774975 0.548974 0.207984
O O4 0.692830 0.544316 0.000000
O O5 0.378246 0.336852 0.255166
O O6 0.252506 0.347108 0.204198
O O7 0.333996 0.362398 0.000000
O O8 0.914275 0.239280 0.251125
O O9 0.000000 0.185825 0.181417
O O10 0.907482 0.200820 0.000000
O O11 0.148433 0.388173 0.184876
O O12 0.100796 0.460531 0.259154
O O13 0.143566 0.445760 0.000000
O O14 0.670248 0.168974 0.500000
O O15 0.630587 0.187150 0.236485
O O16 0.106672 0.500000 0.500000
O O17 0.000000 0.500000 0.349843
O O18 0.083430 0.721046 0.500000
O O19 0.000000 0.704692 0.700891
#
# Coordination Sequence:
#
# PCOD9522917 Si02
#       7
#    16  16  16  16  16   8  16
#     4   8  13  26  52  78  99 125 160 204 248 291
#     4   9  18  32  53  82 108 132 167 210 258 307
#     4  10  21  37  56  76 101 135 172 210 253 305
#     4   9  17  32  52  69  90 126 169 208 247 296
#     4   9  19  34  53  79 106 132 168 214 261 307
#     4  11  23  33  41  61  95 131 168 213 260 299
#     4  10  21  36  54  75 100 136 178 215 257 308
#
# _framework density 16.613256
#
# number of rings (size 3 to 8) (size 9 to 14) (size 15 to 20)
#    0.000    2.692    0.769    3.000    0.000    4.923 
#    0.000    5.385    0.000    0.462    0.000    3.231 
#    0.000    0.000    0.000    0.000    0.000    0.000 
#
# Total GULP energy -289644.369347 kJ/mol
# GULP energy per Si atom -5570.084026 kJ/mol
# Density = 1.657544 g / cm^3
# Si number density = 16.613256 Si / 1000 Ang^3
#
#
#
# Elastic Constant Matrix: (Units=GPa)
#
#
# Indices 1 2 3 4 5 6 
#
# 1 65.1762 66.0369 54.4860 0.0001 0.0000 -0.0001
# 2 66.0369 115.6238 63.0918 0.0002 0.0000 -0.0001
# 3 54.4860 63.0918 72.8728 0.0019 -0.0013 0.0001
# 4 0.0001 0.0002 0.0019 21.5191 -0.0005 0.0001
# 5 0.0000 0.0000 -0.0013 -0.0005 32.5453 -0.0004
# 6 -0.0001 -0.0001 0.0001 0.0001 -0.0004 40.0999
#
#
#
# Elastic Compliance Matrix: (Units=1/GPa)
#
#
# Indices 1 2 3 4 5 6 
#
# 1 0.053751 -0.016622 -0.025798 0.000002 -0.000001 0.000000
# 2 -0.016622 0.021534 -0.006215 0.000000 0.000000 0.000000
# 3 -0.025798 -0.006215 0.038392 -0.000003 0.000002 0.000000
# 4 0.000002 0.000000 -0.000003 0.046470 0.000001 0.000000
# 5 -0.000001 0.000000 0.000002 0.000001 0.030726 0.000000
# 6 0.000000 0.000000 0.000000 0.000000 0.000000 0.024938
#
#
# Mechanical properties :
#
#
# Convention : Reuss Voigt Hill
#
# Bulk Modulus (GPa) = 60.95124 68.98913 64.97018
# Shear Modulus (GPa) = 15.69606 23.50340 19.59973
#
# Velocity S-wave (km/s) = 3.07708 3.76538 3.43850
# Velocity P-wave (km/s) = 7.02798 7.77951 7.41328
#
# Compressibility (1/GPa) = 0.01640656
#
# Stress axis : x y z
#
# Youngs Moduli (GPa) = 18.60418 46.43869 26.04697
#
# Poissons Ratio (x) = 0.77192 0.67195
# Poissons Ratio (y) = 0.30925 0.16189
# Poissons Ratio (z) = 0.47995 0.28862
#
# Static dielectric constant tensor:
#      x y z
#    x 1.543830 0.000000 0.000000 
#    y 0.000000 1.565380 0.000000 
#    z 0.000000 0.000000 1.553120 
# 
# From -- ./inp_files/11546.got.cif
#   From: 2010.05.17/outbox.cif.g08.bks.cpg/sg71_6_cif.got.tgz:11546.got - 2010.06.03 16:22:01.
