data_PCOD9522543
_publ_section_title
;
Structure prediction by ZEFSAII (Michael W. Deem and Ramdas Pophale) SiO2 
 PCOD9522543
Probable space group: I M M M
;
_chemical_formula_sum "Si O2"
_cell_formula_units_Z 88
_cell_length_a 11.918680
_cell_length_b 22.187592
_cell_length_c 15.611588
_cell_angle_alpha 90.000000
_cell_angle_beta 90.000000
_cell_angle_gamma 90.000000
_cell_volume 4128.434630
_symmetry_space_group_name_H-M "I M M M"
_symmetry_group_IT_number 71
_symmetry_cell_setting 'orthorhombic'
loop_
_space_group_symop_operation_xyz
x,y,z
-x,-y,z
x,-y,-z
-x,y,-z
-x,-y,-z
x,y,-z
-x,y,z
x,-y,z
1/2+x,1/2+y,1/2+z
1/2-x,1/2-y,1/2+z
1/2+x,1/2-y,1/2-z
1/2-x,1/2+y,1/2-z
1/2-x,1/2-y,1/2-z
1/2+x,1/2+y,1/2-z
1/2-x,1/2+y,1/2+z
1/2+x,1/2-y,1/2+z
loop_
_atom_site_type_symbol
_atom_site_label
_atom_site_fract_x
_atom_site_fract_y
_atom_site_fract_z
Si Si1 0.766154 0.359927 0.349629
Si Si2 0.669128 0.564511 0.900120
Si Si3 0.368789 0.248437 0.400271
Si Si4 0.366638 0.572327 0.500000
Si Si5 0.500000 0.199157 0.899667
Si Si6 0.500000 0.334839 0.104637
Si Si7 0.868745 0.386057 0.174999
O O1 0.696346 0.297904 0.345804
O O2 0.698430 0.400161 0.417897
O O3 0.794890 0.391923 0.260855
O O4 0.889285 0.337966 0.378382
O O5 0.635607 0.500000 0.861232
O O6 0.605505 0.624205 0.867986
O O7 0.801813 0.573184 0.891330
O O8 0.639636 0.562127 0.000000
O O9 0.327095 0.248386 0.500000
O O10 0.500000 0.264110 0.402842
O O11 0.360300 0.182424 0.359608
O O12 0.359362 0.500000 0.500000
O O13 0.500000 0.588779 0.500000
O O14 0.500000 0.266757 0.860240
O O15 0.500000 0.208213 0.000000
O O16 0.500000 0.330670 0.000000
O O17 0.000000 0.399773 0.187225
#
# Coordination Sequence:
#
# PCOD9522543 Si02
#       7
#    16  16  16   8   8   8  16
#     4  12  22  41  65  93 133 167 214 271 330 394
#     4  10  21  40  64  89 126 176 225 269 316 376
#     4  10  20  37  63  94 130 174 217 269 333 389
#     4  11  26  49  75  97 121 168 227 282 334 389
#     4  11  20  35  64  97 129 168 205 249 326 399
#     4   9  19  36  63  96 126 162 209 263 315 379
#     4  11  24  39  59  94 137 171 218 269 332 395
#
# _framework density 21.315584000000001
#
# number of rings (size 3 to 8) (size 9 to 14) (size 15 to 20)
#    0.000    1.364    2.727    3.000    0.000    4.727 
#    3.273    1.818    0.000    0.000    0.000    0.000 
#    0.000    0.000    0.000    0.000    0.000    0.000 
#
# Total GULP energy -245655.979631 kJ/mol
# GULP energy per Si atom -5583.090446 kJ/mol
# Density = 2.126707 g / cm^3
# Si number density = 21.315584 Si / 1000 Ang^3
#
#
#
# Elastic Constant Matrix: (Units=GPa)
#
#
# Indices 1 2 3 4 5 6 
#
# 1 139.7273 49.7406 28.8708 0.0000 0.0000 0.0000
# 2 49.7406 84.6251 3.6079 0.0000 -0.0003 0.0000
# 3 28.8708 3.6079 40.0143 0.0000 -0.0003 0.0000
# 4 0.0000 0.0000 0.0000 1.0373 -0.0002 0.0000
# 5 0.0000 -0.0003 -0.0003 -0.0002 -189.1948 0.0001
# 6 0.0000 0.0000 0.0000 0.0000 0.0001 20.6638
#
#
#
# Elastic Compliance Matrix: (Units=1/GPa)
#
#
# Indices 1 2 3 4 5 6 
#
# 1 0.010806 -0.006042 -0.007252 0.000000 0.000000 0.000000
# 2 -0.006042 0.015241 0.002985 0.000000 0.000000 0.000000
# 3 -0.007252 0.002985 0.029954 0.000000 0.000000 0.000000
# 4 0.000000 0.000000 0.000000 0.964045 -0.000001 0.000000
# 5 0.000000 0.000000 0.000000 -0.000001 -0.005286 0.000000
# 6 0.000000 0.000000 0.000000 0.000000 0.000000 0.048394
#
#
# Mechanical properties :
#
#
# Convention : Reuss Voigt Hill
#
# Bulk Modulus (GPa) = 28.26161 47.64504 37.95332
# Shear Modulus (GPa) = 4.56384 -21.35559 -8.39587
#
# Velocity S-wave (km/s) = 1.46483 -3.16868 -1.98680
# Velocity P-wave (km/s) = 4.01851 3.00223 3.54696
#
# Compressibility (1/GPa) = 0.03538369
#
# Stress axis : x y z
#
# Youngs Moduli (GPa) = 92.53904 65.61182 33.38421
#
# Poissons Ratio (x) = 0.39646 0.24210
# Poissons Ratio (y) = 0.55916 -0.09967
# Poissons Ratio (z) = 0.67109 -0.19588
#
# Static dielectric constant tensor:
#      x y z
#    x 1.772880 0.000000 0.000000 
#    y 0.000000 1.789750 0.000000 
#    z 0.000000 0.000000 1.835370 
# 
# From -- ./inp_files/32779.got.cif
#   From: 2010.05.17/outbox.cif.g08.bks.cpg/sg71_17_cif.got.tgz:32779.got - 2010.06.03 16:22:01.
