data_PCOD9522609
_publ_section_title
;
Structure prediction by ZEFSAII (Michael W. Deem and Ramdas Pophale) SiO2 
 PCOD9522609
Probable space group: I M M M
;
_chemical_formula_sum "Si O2"
_cell_formula_units_Z 88
_cell_length_a 22.524683
_cell_length_b 11.937168
_cell_length_c 18.372481
_cell_angle_alpha 90.000000
_cell_angle_beta 90.000000
_cell_angle_gamma 90.000000
_cell_volume 4940.009688
_symmetry_space_group_name_H-M "I M M M"
_symmetry_group_IT_number 71
_symmetry_cell_setting 'orthorhombic'
loop_
_space_group_symop_operation_xyz
x,y,z
-x,-y,z
x,-y,-z
-x,y,-z
-x,-y,-z
x,y,-z
-x,y,z
x,-y,z
1/2+x,1/2+y,1/2+z
1/2-x,1/2-y,1/2+z
1/2+x,1/2-y,1/2-z
1/2-x,1/2+y,1/2-z
1/2-x,1/2-y,1/2-z
1/2+x,1/2+y,1/2-z
1/2-x,1/2+y,1/2+z
1/2+x,1/2-y,1/2+z
loop_
_atom_site_type_symbol
_atom_site_label
_atom_site_fract_x
_atom_site_fract_y
_atom_site_fract_z
Si Si1 0.000000 0.864392 0.582305
Si Si2 0.223659 0.746057 0.412814
Si Si3 0.882198 0.864808 0.671626
Si Si4 0.602040 0.500000 0.587121
Si Si5 0.349618 0.131913 0.584856
Si Si6 0.568879 0.715468 0.323736
Si Si7 0.241471 0.000000 0.912006
O O1 0.059658 0.833455 0.624467
O O2 0.000000 0.821546 0.500000
O O3 0.000000 0.000000 0.579642
O O4 0.210666 0.751846 0.500000
O O5 0.174833 0.812118 0.367099
O O6 0.288343 0.801469 0.402487
O O7 0.228317 0.616078 0.389314
O O8 0.894690 0.818713 0.751964
O O9 0.877526 0.000000 0.674114
O O10 0.597427 0.500000 0.500000
O O11 0.573576 0.389763 0.621512
O O12 0.671988 0.500000 0.607858
O O13 0.365848 0.150561 0.500000
O O14 0.400036 0.180989 0.636521
O O15 0.340070 0.000000 0.595514
O O16 0.500000 0.734895 0.305735
O O17 0.242364 0.000000 0.000000
#
# Coordination Sequence:
#
# PCOD9522609 Si02
#       7
#     8  16  16   8  16  16   8
#     4   9  18  34  58  85 115 156 199 238 289 352
#     4  10  20  38  64  91 120 155 199 248 299 359
#     4  11  22  37  58  88 124 158 194 248 305 351
#     4  11  21  38  63  88 115 156 202 244 295 357
#     4  10  22  41  63  89 120 155 200 251 296 356
#     4  12  24  39  59  86 124 161 197 250 302 352
#     4   9  18  37  62  90 120 149 193 253 298 345
#
# _framework density 17.81373
#
# number of rings (size 3 to 8) (size 9 to 14) (size 15 to 20)
#    0.000    1.545    3.636    1.909    0.000    4.727 
#    1.636    0.909    0.000    0.545    0.000    2.545 
#    0.000    0.000    0.000    0.000    0.000    0.000 
#
# Total GULP energy -245735.711799 kJ/mol
# GULP energy per Si atom -5584.902541 kJ/mol
# Density = 1.777319 g / cm^3
# Si number density = 17.813730 Si / 1000 Ang^3
#
#
#
# Elastic Constant Matrix: (Units=GPa)
#
#
# Indices 1 2 3 4 5 6 
#
# 1 82.8551 41.1208 36.8336 0.0000 0.0000 0.0000
# 2 41.1208 103.6699 42.2701 0.0000 0.0000 0.0000
# 3 36.8336 42.2701 84.1741 0.0000 0.0000 0.0000
# 4 0.0000 0.0000 0.0000 25.3112 0.0000 0.0000
# 5 0.0000 0.0000 0.0000 0.0000 39.4721 0.0000
# 6 0.0000 0.0000 0.0000 0.0000 0.0000 28.7468
#
#
#
# Elastic Compliance Matrix: (Units=1/GPa)
#
#
# Indices 1 2 3 4 5 6 
#
# 1 0.016521 -0.004534 -0.004953 0.000000 0.000000 0.000000
# 2 -0.004534 0.013374 -0.004732 0.000000 0.000000 0.000000
# 3 -0.004953 -0.004732 0.016424 0.000000 0.000000 0.000000
# 4 0.000000 0.000000 0.000000 0.039508 0.000000 0.000000
# 5 0.000000 0.000000 0.000000 0.000000 0.025334 0.000000
# 6 0.000000 0.000000 0.000000 0.000000 0.000000 0.034786
#
#
# Mechanical properties :
#
#
# Convention : Reuss Voigt Hill
#
# Bulk Modulus (GPa) = 55.92349 56.79423 56.35886
# Shear Modulus (GPa) = 27.72465 28.73767 28.23116
#
# Velocity S-wave (km/s) = 3.94936 4.02086 3.98527
# Velocity P-wave (km/s) = 7.22898 7.31491 7.27207
#
# Compressibility (1/GPa) = 0.01788157
#
# Stress axis : x y z
#
# Youngs Moduli (GPa) = 60.52877 74.77347 60.88757
#
# Poissons Ratio (x) = 0.33900 0.30156
# Poissons Ratio (y) = 0.27442 0.28812
# Poissons Ratio (z) = 0.29978 0.35383
#
# Static dielectric constant tensor:
#      x y z
#    x 1.585330 0.000000 0.000000 
#    y 0.000000 1.595720 0.000000 
#    z 0.000000 0.000000 1.608080 
# 
# From -- ./inp_files/25691.got.cif
#   From: 2010.05.17/outbox.cif.g08.bks.cpg/sg71_13_cif.got.tgz:25691.got - 2010.06.03 16:22:01.
