data_PCOD9522072
_publ_section_title
;
Structure prediction by ZEFSAII (Michael W. Deem and Ramdas Pophale) SiO2 
 PCOD9522072
Probable space group: I M M M
;
_chemical_formula_sum "Si O2"
_cell_formula_units_Z 96
_cell_length_a 21.194104
_cell_length_b 14.384334
_cell_length_c 15.973103
_cell_angle_alpha 90.000000
_cell_angle_beta 90.000000
_cell_angle_gamma 90.000000
_cell_volume 4869.609230
_symmetry_space_group_name_H-M "I M M M"
_symmetry_group_IT_number 71
_symmetry_cell_setting 'orthorhombic'
loop_
_space_group_symop_operation_xyz
x,y,z
-x,-y,z
x,-y,-z
-x,y,-z
-x,-y,-z
x,y,-z
-x,y,z
x,-y,z
1/2+x,1/2+y,1/2+z
1/2-x,1/2-y,1/2+z
1/2+x,1/2-y,1/2-z
1/2-x,1/2+y,1/2-z
1/2-x,1/2-y,1/2-z
1/2+x,1/2+y,1/2-z
1/2-x,1/2+y,1/2+z
1/2+x,1/2-y,1/2+z
loop_
_atom_site_type_symbol
_atom_site_label
_atom_site_fract_x
_atom_site_fract_y
_atom_site_fract_z
Si Si1 0.877683 0.205794 0.828305
Si Si2 0.749595 0.891477 0.154522
Si Si3 0.180217 0.392293 0.830011
Si Si4 0.893746 0.200795 0.500000
Si Si5 0.927048 0.108516 0.672134
Si Si6 0.238943 0.106699 0.500000
Si Si7 0.500000 0.393572 0.400678
Si Si8 0.846279 0.392928 0.500000
O O1 0.810972 0.169653 0.863127
O O2 0.875183 0.316759 0.831558
O O3 0.883331 0.166543 0.734233
O O4 0.937068 0.160081 0.873567
O O5 0.721209 0.871200 0.246546
O O6 0.697140 0.880334 0.082674
O O7 0.769015 0.000000 0.154287
O O8 0.160103 0.500000 0.823839
O O9 0.220361 0.382708 0.915443
O O10 0.922136 0.152779 0.581267
O O11 0.819404 0.175965 0.500000
O O12 0.898117 0.312056 0.500000
O O13 0.000000 0.114789 0.700184
O O14 0.908720 0.000000 0.671232
O O15 0.214266 0.000000 0.500000
O O16 0.500000 0.500000 0.367661
O O17 0.500000 0.398977 0.500000
O O18 0.868978 0.500000 0.500000
#
# Coordination Sequence:
#
# PCOD9522072 Si02
#       8
#    16  16  16   8  16   8   8   8
#     4  12  22  39  63  83 118 158 194 236 296 346
#     4  10  20  35  58  89 119 153 193 238 293 352
#     4  10  22  38  59  89 122 153 194 241 288 348
#     4  12  21  35  61  86 117 156 193 227 290 352
#     4  11  23  39  58  85 116 148 191 242 291 341
#     4  10  20  35  57  89 121 150 187 236 294 351
#     4  11  26  42  59  86 114 148 196 246 293 345
#     4  10  22  37  56  87 123 153 190 236 286 347
#
# _framework density 19.714106999999998
#
# number of rings (size 3 to 8) (size 9 to 14) (size 15 to 20)
#    0.000    1.250    0.833    6.000    2.333    2.000 
#    0.000    0.417    0.000    2.500    0.000    0.000 
#    0.000    0.000    0.000    0.000    0.000    0.000 
#
# Total GULP energy -268358.326711 kJ/mol
# GULP energy per Si atom -5590.798473 kJ/mol
# Density = 1.966924 g / cm^3
# Si number density = 19.714107 Si / 1000 Ang^3
#
#
#
# Elastic Constant Matrix: (Units=GPa)
#
#
# Indices 1 2 3 4 5 6 
#
# 1 43.1169 54.1384 8.3537 0.0000 0.0000 0.0000
# 2 54.1384 142.1406 21.9946 0.0000 0.0000 0.0000
# 3 8.3537 21.9946 96.4502 0.0000 0.0000 0.0000
# 4 0.0000 0.0000 0.0000 22.2332 0.0000 0.0000
# 5 0.0000 0.0000 0.0000 0.0000 -13.8949 0.0000
# 6 0.0000 0.0000 0.0000 0.0000 0.0000 29.2389
#
#
#
# Elastic Compliance Matrix: (Units=1/GPa)
#
#
# Indices 1 2 3 4 5 6 
#
# 1 0.044451 -0.016932 0.000011 0.000000 0.000000 0.000000
# 2 -0.016932 0.013742 -0.001667 0.000000 0.000000 0.000000
# 3 0.000011 -0.001667 0.010747 0.000000 0.000000 0.000000
# 4 0.000000 0.000000 0.000000 0.044978 0.000000 0.000000
# 5 0.000000 0.000000 0.000000 0.000000 -0.071969 0.000000
# 6 0.000000 0.000000 0.000000 0.000000 0.000000 0.034201
#
#
# Mechanical properties :
#
#
# Convention : Reuss Voigt Hill
#
# Bulk Modulus (GPa) = 31.48199 50.07567 40.77883
# Shear Modulus (GPa) = 40.35012 20.66349 30.50680
#
# Velocity S-wave (km/s) = 4.52903 3.24104 3.93805
# Velocity P-wave (km/s) = 6.58433 6.28187 6.43487
#
# Compressibility (1/GPa) = 0.03176420
#
# Stress axis : x y z
#
# Youngs Moduli (GPa) = 22.49668 72.76749 93.04674
#
# Poissons Ratio (x) = 1.23211 -0.00105
# Poissons Ratio (y) = 0.38092 0.15514
# Poissons Ratio (z) = -0.00025 0.12133
#
# Static dielectric constant tensor:
#      x y z
#    x 1.673980 0.000000 0.000000 
#    y 0.000000 1.705240 0.000000 
#    z 0.000000 0.000000 1.717030 
# 
# From -- ./inp_files/37885.got.cif
#   From: 2010.05.17/outbox.cif.g08.bks.cpg/sg71_19_cif.got.tgz:37885.got - 2010.06.03 16:22:01.
