data_PCOD9522473
_publ_section_title
;
Structure prediction by ZEFSAII (Michael W. Deem and Ramdas Pophale) SiO2 
 PCOD9522473
Probable space group: I M M M
;
_chemical_formula_sum "Si O2"
_cell_formula_units_Z 72
_cell_length_a 32.387572
_cell_length_b 9.105598
_cell_length_c 13.623474
_cell_angle_alpha 90.000000
_cell_angle_beta 90.000000
_cell_angle_gamma 90.000000
_cell_volume 4017.674343
_symmetry_space_group_name_H-M "I M M M"
_symmetry_group_IT_number 71
_symmetry_cell_setting 'orthorhombic'
loop_
_space_group_symop_operation_xyz
x,y,z
-x,-y,z
x,-y,-z
-x,y,-z
-x,-y,-z
x,y,-z
-x,y,z
x,-y,z
1/2+x,1/2+y,1/2+z
1/2-x,1/2-y,1/2+z
1/2+x,1/2-y,1/2-z
1/2-x,1/2+y,1/2-z
1/2-x,1/2-y,1/2-z
1/2+x,1/2+y,1/2-z
1/2-x,1/2+y,1/2+z
1/2+x,1/2-y,1/2+z
loop_
_atom_site_type_symbol
_atom_site_label
_atom_site_fract_x
_atom_site_fract_y
_atom_site_fract_z
Si Si1 0.089541 0.822345 0.811687
Si Si2 0.212395 0.155528 0.000000
Si Si3 0.777435 0.664766 0.326928
Si Si4 0.867485 0.673387 0.000000
Si Si5 0.362108 0.323055 0.886814
Si Si6 0.500000 0.322123 0.613945
O O1 0.114185 0.746975 0.901139
O O2 0.107017 0.784166 0.703308
O O3 0.041809 0.780097 0.829997
O O4 0.093069 0.000000 0.821767
O O5 0.244007 0.154936 0.911955
O O6 0.180900 0.288230 0.000000
O O7 0.188062 0.000000 0.000000
O O8 0.789016 0.500000 0.294434
O O9 0.750000 0.750000 0.250000
O O10 0.818363 0.749040 0.360889
O O11 0.875293 0.500000 0.000000
O O12 0.357659 0.500000 0.884796
O O13 0.373905 0.283146 0.000000
O O14 0.500000 0.500000 0.609439
O O15 0.500000 0.270280 0.500000
#
# Coordination Sequence:
#
# PCOD9522473 Si02
#       6
#    16   8  16   8  16   8
#     4  10  20  37  60  84 114 153 191 231 286 350
#     4  10  22  38  53  73 106 147 188 226 273 328
#     4  11  22  37  56  79 107 146 192 237 282 331
#     4  12  24  35  53  86 119 146 187 243 292 340
#     4  10  21  37  57  83 116 153 193 238 288 341
#     4   9  16  32  61  89 111 146 193 232 277 349
#
# _framework density 17.920815999999999
#
# number of rings (size 3 to 8) (size 9 to 14) (size 15 to 20)
#    0.000    1.667    2.222    3.000    0.000    8.000 
#    0.000    1.667    0.000    3.333    0.000    0.000 
#    0.000    3.556    0.000    0.000    0.000    0.000 
#
# Total GULP energy -200631.609763 kJ/mol
# GULP energy per Si atom -5573.100271 kJ/mol
# Density = 1.788003 g / cm^3
# Si number density = 17.920816 Si / 1000 Ang^3
#
#
#
# Elastic Constant Matrix: (Units=GPa)
#
#
# Indices 1 2 3 4 5 6 
#
# 1 129.5494 32.3338 75.0253 0.0000 0.0000 0.0000
# 2 32.3338 45.8590 54.8853 0.0000 0.0000 0.0000
# 3 75.0253 54.8853 175.8931 0.0000 0.0000 0.0000
# 4 0.0000 0.0000 0.0000 9.6700 0.0000 0.0000
# 5 0.0000 0.0000 0.0000 0.0000 36.0617 0.0000
# 6 0.0000 0.0000 0.0000 0.0000 0.0000 17.8097
#
#
#
# Elastic Compliance Matrix: (Units=1/GPa)
#
#
# Indices 1 2 3 4 5 6 
#
# 1 0.010551 -0.003277 -0.003478 0.000000 0.000000 0.000000
# 2 -0.003277 0.035821 -0.009780 0.000000 0.000000 0.000000
# 3 -0.003478 -0.009780 0.010220 0.000000 0.000000 0.000000
# 4 0.000000 0.000000 0.000000 0.103413 0.000000 0.000000
# 5 0.000000 0.000000 0.000000 0.000000 0.027730 0.000000
# 6 0.000000 0.000000 0.000000 0.000000 0.000000 0.056149
#
#
# Mechanical properties :
#
#
# Convention : Reuss Voigt Hill
#
# Bulk Modulus (GPa) = 42.51066 75.08781 58.79924
# Shear Modulus (GPa) = 17.55647 25.31208 21.43428
#
# Velocity S-wave (km/s) = 3.13336 3.76232 3.46215
# Velocity P-wave (km/s) = 6.07153 7.80155 6.99027
#
# Compressibility (1/GPa) = 0.02352351
#
# Stress axis : x y z
#
# Youngs Moduli (GPa) = 94.77706 27.91646 97.84278
#
# Poissons Ratio (x) = 0.09147 0.34030
# Poissons Ratio (y) = 0.31055 0.95689
# Poissons Ratio (z) = 0.32963 0.27302
#
# Static dielectric constant tensor:
#      x y z
#    x 1.588490 0.000000 0.000000 
#    y 0.000000 1.634610 0.000000 
#    z 0.000000 0.000000 1.622010 
# 
# From -- ./inp_files/16432.got.cif
#   From: 2010.05.17/outbox.cif.g08.bks.cpg/sg71_9_cif.got.tgz:16432.got - 2010.06.03 16:22:01.
