data_PCOD9522481
_publ_section_title
;
Structure prediction by ZEFSAII (Michael W. Deem and Ramdas Pophale) SiO2 
 PCOD9522481
Probable space group: I M M M
;
_chemical_formula_sum "Si O2"
_cell_formula_units_Z 66
_cell_length_a 12.257140
_cell_length_b 7.498145
_cell_length_c 29.915195
_cell_angle_alpha 90.000000
_cell_angle_beta 90.000000
_cell_angle_gamma 90.000000
_cell_volume 2749.380318
_symmetry_space_group_name_H-M "I M M M"
_symmetry_group_IT_number 71
_symmetry_cell_setting 'orthorhombic'
loop_
_space_group_symop_operation_xyz
x,y,z
-x,-y,z
x,-y,-z
-x,y,-z
-x,-y,-z
x,y,-z
-x,y,z
x,-y,z
1/2+x,1/2+y,1/2+z
1/2-x,1/2-y,1/2+z
1/2+x,1/2-y,1/2-z
1/2-x,1/2+y,1/2-z
1/2-x,1/2-y,1/2-z
1/2+x,1/2+y,1/2-z
1/2-x,1/2+y,1/2+z
1/2+x,1/2-y,1/2+z
loop_
_atom_site_type_symbol
_atom_site_label
_atom_site_fract_x
_atom_site_fract_y
_atom_site_fract_z
Si Si1 0.500000 0.801137 0.424101
Si Si2 0.871157 0.282729 0.500000
Si Si3 0.253793 0.717578 0.408807
Si Si4 0.000000 0.000000 0.000000
Si Si5 0.664470 0.800492 0.180249
Si Si6 0.116072 0.284535 0.222860
O O1 0.379107 0.779800 0.401814
O O2 0.500000 0.652898 0.461613
O O3 0.500000 0.000000 0.442473
O O4 0.873042 0.500000 0.500000
O O5 0.801180 0.230265 0.456043
O O6 0.000000 0.227021 0.500000
O O7 0.255822 0.500000 0.407520
O O8 0.174029 0.780999 0.368686
O O9 0.789773 0.806371 0.195855
O O10 0.615028 0.721064 0.225489
O O11 0.619788 0.000000 0.175565
O O12 0.134256 0.500000 0.223950
O O13 0.000000 0.250885 0.201855
#
# Coordination Sequence:
#
# PCOD9522481 Si02
#       6
#     8   8  16   2  16  16
#     4  12  25  39  65  96 125 169 210 253 317 371
#     4   9  19  35  59  87 113 152 200 248 302 361
#     4  10  20  37  60  86 126 161 200 260 311 368
#     4  12  22  44  60  86 130 156 206 260 300 368
#     4   9  19  33  52  80 110 152 194 237 301 359
#     4   9  18  33  52  76 111 150 195 249 294 349
#
# _framework density 24.005409
#
# number of rings (size 3 to 8) (size 9 to 14) (size 15 to 20)
#    0.000    2.303    1.212    0.909    3.394    2.424 
#    0.000    4.848    0.000    1.455    0.000    3.394 
#    0.000    0.000    0.000    0.000    0.000    0.000 
#
# Total GULP energy -183739.417973 kJ/mol
# GULP energy per Si atom -5567.861151 kJ/mol
# Density = 2.395077 g / cm^3
# Si number density = 24.005409 Si / 1000 Ang^3
#
#
#
# Elastic Constant Matrix: (Units=GPa)
#
#
# Indices 1 2 3 4 5 6 
#
# 1 148.5546 8.4191 21.8307 0.0000 0.0000 0.0000
# 2 8.4191 102.4473 3.4475 0.0000 0.0000 0.0000
# 3 21.8307 3.4475 138.1136 0.0000 0.0000 0.0000
# 4 0.0000 0.0000 0.0000 13.7395 0.0000 0.0000
# 5 0.0000 0.0000 0.0000 0.0000 -25.8242 0.0000
# 6 0.0000 0.0000 0.0000 0.0000 0.0000 -42.3122
#
#
#
# Elastic Compliance Matrix: (Units=1/GPa)
#
#
# Indices 1 2 3 4 5 6 
#
# 1 0.006921 -0.000532 -0.001081 0.000000 0.000000 0.000000
# 2 -0.000532 0.009810 -0.000161 0.000000 0.000000 0.000000
# 3 -0.001081 -0.000161 0.007415 0.000000 0.000000 0.000000
# 4 0.000000 0.000000 0.000000 0.072783 0.000000 0.000000
# 5 0.000000 0.000000 0.000000 0.000000 -0.038723 0.000000
# 6 0.000000 0.000000 0.000000 0.000000 0.000000 -0.023634
#
#
# Mechanical properties :
#
#
# Convention : Reuss Voigt Hill
#
# Bulk Modulus (GPa) = 48.54689 50.72333 49.63511
# Shear Modulus (GPa) = 111.14779 12.81517 61.98148
#
# Velocity S-wave (km/s) = 6.81188 2.31302 5.08683
# Velocity P-wave (km/s) = 9.06290 5.32064 7.43119
#
# Compressibility (1/GPa) = 0.02059864
#
# Stress axis : x y z
#
# Youngs Moduli (GPa) = 144.49822 101.93398 134.85755
#
# Poissons Ratio (x) = 0.05427 0.14573
# Poissons Ratio (y) = 0.07692 0.02168
# Poissons Ratio (z) = 0.15614 0.01638
#
# Static dielectric constant tensor:
#      x y z
#    x 1.935100 0.000000 0.000000 
#    y 0.000000 1.925660 0.000000 
#    z 0.000000 0.000000 1.909180 
# 
# From -- ./inp_files/68863.got.cif
#   From: 2010.05.17/outbox.cif.g08.bks.cpg/sg71_35_cif.got.tgz:68863.got - 2010.06.03 16:22:01.
