data_PCOD9522578
_publ_section_title
;
Structure prediction by ZEFSAII (Michael W. Deem and Ramdas Pophale) SiO2 
 PCOD9522578
Probable space group: I M M M
;
_chemical_formula_sum "Si O2"
_cell_formula_units_Z 120
_cell_length_a 25.933644
_cell_length_b 7.636929
_cell_length_c 27.892348
_cell_angle_alpha 90.000000
_cell_angle_beta 90.000000
_cell_angle_gamma 90.000000
_cell_volume 5524.174298
_symmetry_space_group_name_H-M "I M M M"
_symmetry_group_IT_number 71
_symmetry_cell_setting 'orthorhombic'
loop_
_space_group_symop_operation_xyz
x,y,z
-x,-y,z
x,-y,-z
-x,y,-z
-x,-y,-z
x,y,-z
-x,y,z
x,-y,z
1/2+x,1/2+y,1/2+z
1/2-x,1/2-y,1/2+z
1/2+x,1/2-y,1/2-z
1/2-x,1/2+y,1/2-z
1/2-x,1/2-y,1/2-z
1/2+x,1/2+y,1/2-z
1/2-x,1/2+y,1/2+z
1/2+x,1/2-y,1/2+z
loop_
_atom_site_type_symbol
_atom_site_label
_atom_site_fract_x
_atom_site_fract_y
_atom_site_fract_z
Si Si1 0.798699 0.798969 0.718659
Si Si2 0.440801 0.790551 0.000000
Si Si3 0.145188 0.284654 0.871062
Si Si4 0.130442 0.791041 0.409499
Si Si5 0.896602 0.693353 0.231038
Si Si6 0.239181 0.204640 0.609817
Si Si7 0.557555 0.786797 0.555014
Si Si8 0.443932 0.706587 0.173054
O O1 0.750000 0.750000 0.750000
O O2 0.845030 0.684288 0.737203
O O3 0.781956 0.785315 0.664051
O O4 0.814757 0.000000 0.726793
O O5 0.408272 0.735558 0.046579
O O6 0.500000 0.723689 0.000000
O O7 0.443268 0.000000 0.000000
O O8 0.148281 0.500000 0.868083
O O9 0.123280 0.226551 0.819112
O O10 0.202518 0.223090 0.886377
O O11 0.103199 0.232150 0.910316
O O12 0.188933 0.721522 0.417999
O O13 0.101285 0.722897 0.361585
O O14 0.137862 0.000000 0.402906
O O15 0.917058 0.500000 0.219575
O O16 0.934486 0.776802 0.269988
O O17 0.245817 0.000000 0.595427
O O18 0.565348 0.731694 0.500000
O O19 0.500000 0.731547 0.570328
O O20 0.557709 0.000000 0.555236
O O21 0.500000 0.782315 0.160763
O O22 0.445290 0.500000 0.162729
#
# Coordination Sequence:
#
# PCOD9522578 Si02
#       8
#    16   8  16  16  16  16  16  16
#     4  11  19  32  52  75 106 145 187 223 261 317
#     4  11  25  43  61  83 111 141 178 231 286 330
#     4   9  17  29  46  74 110 143 177 221 270 321
#     4  10  20  38  62  83 104 139 184 227 276 336
#     4  11  21  32  50  77 110 147 183 220 273 333
#     4   9  17  31  51  75 106 138 175 223 269 320
#     4   8  14  26  44  66  96 137 180 219 263 313
#     4  10  21  37  56  78 107 144 185 233 282 327
#
# _framework density 21.722704
#
# number of rings (size 3 to 8) (size 9 to 14) (size 15 to 20)
#    0.000    2.200    2.667    1.800    0.000    2.400 
#    1.200    1.333    0.000    0.000    0.000    0.000 
#    0.000    0.000    0.000    7.333    0.000    6.400 
#
# Total GULP energy -334434.961345 kJ/mol
# GULP energy per Si atom -5573.916022 kJ/mol
# Density = 2.167326 g / cm^3
# Si number density = 21.722704 Si / 1000 Ang^3
#
#
#
# Elastic Constant Matrix: (Units=GPa)
#
#
# Indices 1 2 3 4 5 6 
#
# 1 168.1971 7.6416 89.2172 0.0000 0.0000 0.0000
# 2 7.6416 41.4726 2.7433 0.0000 0.0000 0.0000
# 3 89.2172 2.7433 96.8944 0.0000 0.0000 0.0000
# 4 0.0000 0.0000 0.0000 5.1766 0.0000 0.0000
# 5 0.0000 0.0000 0.0000 0.0000 36.9425 0.0000
# 6 0.0000 0.0000 0.0000 0.0000 0.0000 6.7360
#
#
#
# Elastic Compliance Matrix: (Units=1/GPa)
#
#
# Indices 1 2 3 4 5 6 
#
# 1 0.011707 -0.001447 -0.010739 0.000000 0.000000 0.000000
# 2 -0.001447 0.024336 0.000643 0.000000 0.000000 0.000000
# 3 -0.010739 0.000643 0.020190 0.000000 0.000000 0.000000
# 4 0.000000 0.000000 0.000000 0.193178 0.000000 0.000000
# 5 0.000000 0.000000 0.000000 0.000000 0.027069 0.000000
# 6 0.000000 0.000000 0.000000 0.000000 0.000000 0.148457
#
#
# Mechanical properties :
#
#
# Convention : Reuss Voigt Hill
#
# Bulk Modulus (GPa) = 30.16675 56.19646 43.18161
# Shear Modulus (GPa) = 10.89153 23.56847 17.23000
#
# Velocity S-wave (km/s) = 2.24160 3.29746 2.81940
# Velocity P-wave (km/s) = 4.54060 6.35797 5.52453
#
# Compressibility (1/GPa) = 0.03314908
#
# Stress axis : x y z
#
# Youngs Moduli (GPa) = 85.41661 41.09079 49.52895
#
# Poissons Ratio (x) = 0.05945 0.53188
# Poissons Ratio (y) = 0.12358 -0.03186
# Poissons Ratio (z) = 0.91727 -0.02643
#
# Static dielectric constant tensor:
#      x y z
#    x 1.826160 0.000000 0.000000 
#    y 0.000000 1.908250 0.000000 
#    z 0.000000 0.000000 1.765300 
# 
# From -- ./inp_files/67150.got.cif
#   From: 2010.05.17/outbox.cif.g08.bks.cpg/sg71_34_cif.got.tgz:67150.got - 2010.06.03 16:22:01.
