data_PCOD9522519
_publ_section_title
;
Structure prediction by ZEFSAII (Michael W. Deem and Ramdas Pophale) SiO2 
 PCOD9522519
Probable space group: I M M M
;
_chemical_formula_sum "Si O2"
_cell_formula_units_Z 64
_cell_length_a 15.431960
_cell_length_b 7.311690
_cell_length_c 29.093213
_cell_angle_alpha 90.000000
_cell_angle_beta 90.000000
_cell_angle_gamma 90.000000
_cell_volume 3282.695089
_symmetry_space_group_name_H-M "I M M M"
_symmetry_group_IT_number 71
_symmetry_cell_setting 'orthorhombic'
loop_
_space_group_symop_operation_xyz
x,y,z
-x,-y,z
x,-y,-z
-x,y,-z
-x,-y,-z
x,y,-z
-x,y,z
x,-y,z
1/2+x,1/2+y,1/2+z
1/2-x,1/2-y,1/2+z
1/2+x,1/2-y,1/2-z
1/2-x,1/2+y,1/2-z
1/2-x,1/2-y,1/2-z
1/2+x,1/2+y,1/2-z
1/2-x,1/2+y,1/2+z
1/2+x,1/2-y,1/2+z
loop_
_atom_site_type_symbol
_atom_site_label
_atom_site_fract_x
_atom_site_fract_y
_atom_site_fract_z
Si Si1 0.093381 0.278551 0.854655
Si Si2 0.325090 0.000000 0.052391
Si Si3 0.170726 0.282584 0.050903
Si Si4 0.601824 0.000000 0.152990
Si Si5 0.732557 0.716446 0.803683
O O1 0.092559 0.500000 0.851156
O O2 0.107450 0.231340 0.907941
O O3 0.179409 0.218838 0.828691
O O4 0.000000 0.213483 0.837675
O O5 0.260365 0.173509 0.055877
O O6 0.384382 0.000000 0.097585
O O7 0.362505 0.000000 0.000000
O O8 0.186612 0.500000 0.054271
O O9 0.136095 0.243051 0.000000
O O10 0.652262 0.828319 0.175677
O O11 0.500000 0.000000 0.163490
O O12 0.721123 0.500000 0.811677
O O13 0.750000 0.750000 0.750000
#
# Coordination Sequence:
#
# PCOD9522519 Si02
#       5
#    16   8  16   8  16
#     4   9  18  33  57  88 118 154 199 245 303 375
#     4  10  20  37  62  87 118 164 218 268 320 375
#     4   9  17  31  54  83 117 158 200 246 308 375
#     4  12  26  43  66  96 128 168 221 269 321 381
#     4  11  23  43  67  90 127 166 206 261 322 377
#
# _framework density 19.496174
#
# number of rings (size 3 to 8) (size 9 to 14) (size 15 to 20)
#    0.000    2.000    3.750    0.000    0.000    2.250 
#    0.000    5.000    0.000    2.250    0.000    5.250 
#    0.000    0.000    0.000    0.000    0.000    0.000 
#
# Total GULP energy -178560.016438 kJ/mol
# GULP energy per Si atom -5580.000514 kJ/mol
# Density = 1.945180 g / cm^3
# Si number density = 19.496174 Si / 1000 Ang^3
#
#
#
# Elastic Constant Matrix: (Units=GPa)
#
#
# Indices 1 2 3 4 5 6 
#
# 1 167.8529 42.4979 74.6737 0.0000 0.0000 0.0000
# 2 42.4979 102.9234 24.4841 0.0000 0.0000 0.0000
# 3 74.6737 24.4841 125.5083 0.0000 0.0000 0.0000
# 4 0.0000 0.0000 0.0000 20.6213 0.0000 0.0000
# 5 0.0000 0.0000 0.0000 0.0000 2.9150 0.0000
# 6 0.0000 0.0000 0.0000 0.0000 0.0000 17.5925
#
#
#
# Elastic Compliance Matrix: (Units=1/GPa)
#
#
# Indices 1 2 3 4 5 6 
#
# 1 0.008660 -0.002464 -0.004672 0.000000 0.000000 0.000000
# 2 -0.002464 0.010890 -0.000658 0.000000 0.000000 0.000000
# 3 -0.004672 -0.000658 0.010875 0.000000 0.000000 0.000000
# 4 0.000000 0.000000 0.000000 0.048494 0.000000 0.000000
# 5 0.000000 0.000000 0.000000 0.000000 0.343055 0.000000
# 6 0.000000 0.000000 0.000000 0.000000 0.000000 0.056843
#
#
# Mechanical properties :
#
#
# Convention : Reuss Voigt Hill
#
# Bulk Modulus (GPa) = 67.39894 75.51068 71.45481
# Shear Modulus (GPa) = 10.01301 25.20100 17.60700
#
# Velocity S-wave (km/s) = 2.26871 3.59919 3.00842
# Velocity P-wave (km/s) = 6.44268 7.48915 6.98554
#
# Compressibility (1/GPa) = 0.01483703
#
# Stress axis : x y z
#
# Youngs Moduli (GPa) = 115.47579 91.82641 91.95021
#
# Poissons Ratio (x) = 0.22630 0.42955
# Poissons Ratio (y) = 0.28458 0.06052
# Poissons Ratio (z) = 0.53945 0.06044
#
# Static dielectric constant tensor:
#      x y z
#    x 1.648850 0.000000 0.000000 
#    y 0.000000 1.690560 0.000000 
#    z 0.000000 0.000000 1.705820 
# 
# From -- ./inp_files/65095.got.cif
#   From: 2010.05.17/outbox.cif.g08.bks.cpg/sg71_33_cif.got.tgz:65095.got - 2010.06.03 16:22:01.
