data_PCOD9522622
_publ_section_title
;
Structure prediction by ZEFSAII (Michael W. Deem and Ramdas Pophale) SiO2 
 PCOD9522622
Probable space group: I M M M
;
_chemical_formula_sum "Si O2"
_cell_formula_units_Z 72
_cell_length_a 13.660662
_cell_length_b 28.382327
_cell_length_c 10.640434
_cell_angle_alpha 90.000000
_cell_angle_beta 90.000000
_cell_angle_gamma 90.000000
_cell_volume 4125.523711
_symmetry_space_group_name_H-M "I M M M"
_symmetry_group_IT_number 71
_symmetry_cell_setting 'orthorhombic'
loop_
_space_group_symop_operation_xyz
x,y,z
-x,-y,z
x,-y,-z
-x,y,-z
-x,-y,-z
x,y,-z
-x,y,z
x,-y,z
1/2+x,1/2+y,1/2+z
1/2-x,1/2-y,1/2+z
1/2+x,1/2-y,1/2-z
1/2-x,1/2+y,1/2-z
1/2-x,1/2-y,1/2-z
1/2+x,1/2+y,1/2-z
1/2-x,1/2+y,1/2+z
1/2+x,1/2-y,1/2+z
loop_
_atom_site_type_symbol
_atom_site_label
_atom_site_fract_x
_atom_site_fract_y
_atom_site_fract_z
Si Si1 0.385965 0.295803 0.729297
Si Si2 0.116840 0.398467 0.259025
Si Si3 0.719793 0.056569 0.000000
Si Si4 0.313812 0.194162 0.643310
Si Si5 0.618837 0.054286 0.500000
Si Si6 0.113509 0.868138 0.000000
O O1 0.500000 0.297887 0.768186
O O2 0.362406 0.244683 0.670100
O O3 0.303037 0.302428 0.834957
O O4 0.369167 0.335268 0.622008
O O5 0.162868 0.424881 0.376984
O O6 0.145691 0.343928 0.242062
O O7 0.000000 0.402343 0.266996
O O8 0.152130 0.421995 0.128832
O O9 0.820647 0.085649 0.000000
O O10 0.728659 0.000000 0.000000
O O11 0.336988 0.180314 0.500000
O O12 0.500000 0.057128 0.500000
O O13 0.647008 0.000000 0.500000
O O14 0.000000 0.881165 0.000000
#
# Coordination Sequence:
#
# PCOD9522622 Si02
#       6
#    16  16   8  16   8   8
#     4  10  21  37  58  83 116 151 186 233 289 352
#     4  11  22  36  56  84 117 152 191 235 289 350
#     4  12  25  41  59  84 115 154 205 258 306 346
#     4  11  21  35  59  88 117 152 194 234 284 353
#     4   9  18  33  53  76 103 142 186 223 270 335
#     4  10  20  39  63  83 108 148 195 241 296 349
#
# _framework density 17.452328999999999
#
# number of rings (size 3 to 8) (size 9 to 14) (size 15 to 20)
#    0.000    1.444    4.444    1.667    0.000    3.333 
#    0.000    0.000    0.000    0.000    0.000    0.000 
#    0.000    7.111    0.000    0.000    0.000    0.000 
#
# Total GULP energy -200882.871560 kJ/mol
# GULP energy per Si atom -5580.079766 kJ/mol
# Density = 1.741261 g / cm^3
# Si number density = 17.452329 Si / 1000 Ang^3
#
#
#
# Elastic Constant Matrix: (Units=GPa)
#
#
# Indices 1 2 3 4 5 6 
#
# 1 70.7542 43.5499 27.8089 0.0000 -0.0001 0.0000
# 2 43.5499 135.2327 53.1494 0.0000 0.0000 0.0000
# 3 27.8089 53.1494 92.5125 0.0006 0.0002 -0.0001
# 4 0.0000 0.0000 0.0006 25.1280 0.0000 0.0000
# 5 -0.0001 0.0000 0.0002 0.0000 17.9108 0.0000
# 6 0.0000 0.0000 -0.0001 0.0000 0.0000 20.3005
#
#
#
# Elastic Compliance Matrix: (Units=1/GPa)
#
#
# Indices 1 2 3 4 5 6 
#
# 1 0.018138 -0.004777 -0.002708 0.000000 0.000000 0.000000
# 2 -0.004777 0.010809 -0.004774 0.000000 0.000000 0.000000
# 3 -0.002708 -0.004774 0.014366 0.000000 0.000000 0.000000
# 4 0.000000 0.000000 0.000000 0.039796 0.000000 0.000000
# 5 0.000000 0.000000 0.000000 0.000000 0.055832 0.000000
# 6 0.000000 0.000000 0.000000 0.000000 0.000000 0.049260
#
#
# Mechanical properties :
#
#
# Convention : Reuss Voigt Hill
#
# Bulk Modulus (GPa) = 53.20379 60.83509 57.01944
# Shear Modulus (GPa) = 22.83264 24.26727 23.54996
#
# Velocity S-wave (km/s) = 3.62095 3.73297 3.67739
# Velocity P-wave (km/s) = 6.93059 7.31530 7.12554
#
# Compressibility (1/GPa) = 0.01879565
#
# Stress axis : x y z
#
# Youngs Moduli (GPa) = 55.13323 92.51270 69.60819
#
# Poissons Ratio (x) = 0.44192 0.18849
# Poissons Ratio (y) = 0.26336 0.33232
# Poissons Ratio (z) = 0.14929 0.44167
#
# Static dielectric constant tensor:
#      x y z
#    x 1.581740 0.000000 0.000000 
#    y 0.000000 1.589390 0.000000 
#    z 0.000000 0.000000 1.590040 
# 
# From -- ./inp_files/6158.got.cif
#   From: 2010.05.17/outbox.cif.g08.bks.cpg/sg71_4_cif.got.tgz:6158.got - 2010.06.03 16:22:01.
