data_PCOD9522453
_publ_section_title
;
Structure prediction by ZEFSAII (Michael W. Deem and Ramdas Pophale) SiO2 
 PCOD9522453
Probable space group: I M M M
;
_chemical_formula_sum "Si O2"
_cell_formula_units_Z 104
_cell_length_a 7.977353
_cell_length_b 21.256843
_cell_length_c 30.989308
_cell_angle_alpha 90.000000
_cell_angle_beta 90.000000
_cell_angle_gamma 90.000000
_cell_volume 5254.960470
_symmetry_space_group_name_H-M "I M M M"
_symmetry_group_IT_number 71
_symmetry_cell_setting 'orthorhombic'
loop_
_space_group_symop_operation_xyz
x,y,z
-x,-y,z
x,-y,-z
-x,y,-z
-x,-y,-z
x,y,-z
-x,y,z
x,-y,z
1/2+x,1/2+y,1/2+z
1/2-x,1/2-y,1/2+z
1/2+x,1/2-y,1/2-z
1/2-x,1/2+y,1/2-z
1/2-x,1/2-y,1/2-z
1/2+x,1/2+y,1/2-z
1/2-x,1/2+y,1/2+z
1/2+x,1/2-y,1/2+z
loop_
_atom_site_type_symbol
_atom_site_label
_atom_site_fract_x
_atom_site_fract_y
_atom_site_fract_z
Si Si1 0.304925 0.645315 0.132069
Si Si2 0.193558 0.785908 0.870187
Si Si3 0.299362 0.136680 0.951180
Si Si4 0.202966 0.813450 0.775797
Si Si5 0.204621 0.928669 0.716473
Si Si6 0.691774 0.000000 0.947648
Si Si7 0.202088 0.573827 0.951662
O O1 0.500000 0.659753 0.140598
O O2 0.209040 0.710855 0.132495
O O3 0.246791 0.597671 0.169381
O O4 0.284857 0.613046 0.085963
O O5 0.268415 0.812503 0.914341
O O6 0.267153 0.811008 0.824963
O O7 0.000000 0.804350 0.871360
O O8 0.500000 0.129178 0.954640
O O9 0.230794 0.067798 0.936855
O O10 0.238206 0.151819 0.000000
O O11 0.250000 0.750000 0.750000
O O12 0.259701 0.875832 0.750584
O O13 0.000000 0.814494 0.777080
O O14 0.000000 0.930318 0.717570
O O15 0.263340 0.000000 0.723706
O O16 0.500000 0.000000 0.930873
O O17 0.684378 0.000000 0.000000
O O18 0.242887 0.500000 0.947064
O O19 0.000000 0.579598 0.948377
O O20 0.251066 0.593806 0.000000
#
# Coordination Sequence:
#
# PCOD9522453 Si02
#       7
#    16  16  16  16  16   8  16
#     4  11  21  34  56  81 105 141 186 232 273 318
#     4  11  23  36  53  81 113 147 183 222 273 330
#     4   9  18  35  59  83 108 142 184 227 272 326
#     4  10  20  37  59  81 109 147 184 222 271 328
#     4   9  18  34  57  83 108 137 177 225 275 324
#     4   7  12  28  55  81 103 135 179 223 269 319
#     4   9  19  36  55  76 108 147 179 216 274 332
#
# _framework density 19.790824000000001
#
# number of rings (size 3 to 8) (size 9 to 14) (size 15 to 20)
#    0.000    2.385    1.538    2.769    0.000    2.769 
#    1.385    1.154    0.000    2.769    0.000    0.000 
#    0.000    0.000    0.000    0.000    0.000    0.000 
#
# Total GULP energy -290029.469046 kJ/mol
# GULP energy per Si atom -5577.489789 kJ/mol
# Density = 1.974578 g / cm^3
# Si number density = 19.790824 Si / 1000 Ang^3
#
#
#
# Elastic Constant Matrix: (Units=GPa)
#
#
# Indices 1 2 3 4 5 6 
#
# 1 15.7827 2.7479 8.7357 0.0000 0.0000 0.0000
# 2 2.7479 131.5771 74.0677 0.0000 0.0000 0.0000
# 3 8.7357 74.0677 141.3865 0.0000 0.0000 0.0000
# 4 0.0000 0.0000 0.0000 38.2099 0.0000 0.0000
# 5 0.0000 0.0000 0.0000 0.0000 11.2810 0.0000
# 6 0.0000 0.0000 0.0000 0.0000 0.0000 -17.1845
#
#
#
# Elastic Compliance Matrix: (Units=1/GPa)
#
#
# Indices 1 2 3 4 5 6 
#
# 1 0.065759 0.001296 -0.004742 0.000000 0.000000 0.000000
# 2 0.001296 0.010804 -0.005740 0.000000 0.000000 0.000000
# 3 -0.004742 -0.005740 0.010373 0.000000 0.000000 0.000000
# 4 0.000000 0.000000 0.000000 0.026171 0.000000 0.000000
# 5 0.000000 0.000000 0.000000 0.000000 0.088644 0.000000
# 6 0.000000 0.000000 0.000000 0.000000 0.000000 -0.058192
#
#
# Mechanical properties :
#
#
# Convention : Reuss Voigt Hill
#
# Bulk Modulus (GPa) = 14.58480 51.09432 32.83956
# Shear Modulus (GPa) = 27.05819 20.00762 23.53290
#
# Velocity S-wave (km/s) = 3.70159 3.18300 3.45205
# Velocity P-wave (km/s) = 5.06503 6.27550 5.70247
#
# Compressibility (1/GPa) = 0.06856453
#
# Stress axis : x y z
#
# Youngs Moduli (GPa) = 15.20694 92.55614 96.40567
#
# Poissons Ratio (x) = -0.11996 0.45715
# Poissons Ratio (y) = -0.01971 0.55338
# Poissons Ratio (z) = 0.07211 0.53128
#
# Static dielectric constant tensor:
#      x y z
#    x 1.730230 0.000000 0.000000 
#    y 0.000000 1.685080 0.000000 
#    z 0.000000 0.000000 1.693120 
# 
# From -- ./inp_files/68257.got.cif
#   From: 2010.05.17/outbox.cif.g08.bks.cpg/sg71_35_cif.got.tgz:68257.got - 2010.06.03 16:22:01.
