data_PCOD9522712
_publ_section_title
;
Structure prediction by ZEFSAII (Michael W. Deem and Ramdas Pophale) SiO2 
 PCOD9522712
Probable space group: I M M M
;
_chemical_formula_sum "Si O2"
_cell_formula_units_Z 104
_cell_length_a 31.777771
_cell_length_b 7.657647
_cell_length_c 20.315961
_cell_angle_alpha 90.000000
_cell_angle_beta 90.000000
_cell_angle_gamma 90.000000
_cell_volume 4943.745938
_symmetry_space_group_name_H-M "I M M M"
_symmetry_group_IT_number 71
_symmetry_cell_setting 'orthorhombic'
loop_
_space_group_symop_operation_xyz
x,y,z
-x,-y,z
x,-y,-z
-x,y,-z
-x,-y,-z
x,y,-z
-x,y,z
x,-y,z
1/2+x,1/2+y,1/2+z
1/2-x,1/2-y,1/2+z
1/2+x,1/2-y,1/2-z
1/2-x,1/2+y,1/2-z
1/2-x,1/2-y,1/2-z
1/2+x,1/2+y,1/2-z
1/2-x,1/2+y,1/2+z
1/2+x,1/2-y,1/2+z
loop_
_atom_site_type_symbol
_atom_site_label
_atom_site_fract_x
_atom_site_fract_y
_atom_site_fract_z
Si Si1 0.679433 0.290366 0.072609
Si Si2 0.546262 0.788471 0.788723
Si Si3 0.419558 0.210122 0.927233
Si Si4 0.292613 0.289760 0.211803
Si Si5 0.593378 0.294552 0.426194
Si Si6 0.128483 0.207537 0.794868
Si Si7 0.500000 0.802750 0.420165
O O1 0.684257 0.500000 0.070392
O O2 0.629762 0.253317 0.082332
O O3 0.704150 0.224153 0.136581
O O4 0.691209 0.221480 0.000000
O O5 0.500000 0.730543 0.766174
O O6 0.554903 0.728421 0.863777
O O7 0.585228 0.730925 0.744704
O O8 0.546503 0.000000 0.788522
O O9 0.423432 0.000000 0.928525
O O10 0.432054 0.275461 0.000000
O O11 0.296532 0.500000 0.208071
O O12 0.250000 0.250000 0.250000
O O13 0.332579 0.221365 0.253116
O O14 0.597332 0.218885 0.500000
O O15 0.602479 0.500000 0.431329
O O16 0.621836 0.218529 0.368182
O O17 0.544659 0.279974 0.403442
O O18 0.135517 0.000000 0.801732
O O19 0.500000 0.804687 0.500000
O O20 0.500000 0.000000 0.394649
#
# Coordination Sequence:
#
# PCOD9522712 Si02
#       7
#    16  16  16  16  16  16   8
#     4   9  17  32  55  79 105 138 174 213 256 306
#     4  10  21  34  49  75 110 145 179 215 261 311
#     4   9  17  30  50  75 104 140 180 218 255 300
#     4  10  21  37  57  82 108 135 172 216 266 320
#     4   9  18  33  52  72  98 135 176 216 260 309
#     4  10  21  37  55  76 103 136 177 220 263 314
#     4   9  17  29  47  73 103 133 170 215 256 303
#
# _framework density 21.03668
#
# number of rings (size 3 to 8) (size 9 to 14) (size 15 to 20)
#    0.000    2.538    1.538    0.231    1.077    3.385 
#    0.000    2.308    0.000    0.923    0.000    3.231 
#    0.000    0.000    0.000    0.000    0.000    0.000 
#
# Total GULP energy -290111.141169 kJ/mol
# GULP energy per Si atom -5579.060407 kJ/mol
# Density = 2.098880 g / cm^3
# Si number density = 21.036680 Si / 1000 Ang^3
#
#
#
# Elastic Constant Matrix: (Units=GPa)
#
#
# Indices 1 2 3 4 5 6 
#
# 1 107.0358 -5.2808 80.2978 0.0000 0.0000 0.0000
# 2 -5.2808 38.6035 8.3291 0.0000 0.0000 0.0000
# 3 80.2978 8.3291 160.4753 0.0000 0.0000 0.0000
# 4 0.0000 0.0000 0.0000 10.0360 0.0000 0.0000
# 5 0.0000 0.0000 0.0000 0.0000 -0.0790 0.0000
# 6 0.0000 0.0000 0.0000 0.0000 0.0000 13.8575
#
#
#
# Elastic Compliance Matrix: (Units=1/GPa)
#
#
# Indices 1 2 3 4 5 6 
#
# 1 0.015500 0.003837 -0.007955 0.000000 0.000000 0.000000
# 2 0.003837 0.027147 -0.003329 0.000000 0.000000 0.000000
# 3 -0.007955 -0.003329 0.010385 0.000000 0.000000 0.000000
# 4 0.000000 0.000000 0.000000 0.099641 0.000000 0.000000
# 5 0.000000 0.000000 0.000000 0.000000-12.655607 0.000000
# 6 0.000000 0.000000 0.000000 0.000000 0.000000 0.072163
#
#
# Mechanical properties :
#
#
# Convention : Reuss Voigt Hill
#
# Bulk Modulus (GPa) = 26.22073 52.53411 39.37742
# Shear Modulus (GPa) = -0.40312 19.61413 9.60551
#
# Velocity S-wave (km/s) = -0.43823 3.05680 2.13916
# Velocity P-wave (km/s) = 3.49790 6.12254 4.98602
#
# Compressibility (1/GPa) = 0.03813776
#
# Stress axis : x y z
#
# Youngs Moduli (GPa) = 64.51801 36.83594 96.29649
#
# Poissons Ratio (x) = -0.14132 0.76601
# Poissons Ratio (y) = -0.24753 0.32055
# Poissons Ratio (z) = 0.51322 0.12262
#
# Static dielectric constant tensor:
#      x y z
#    x 1.712620 0.000000 0.000000 
#    y 0.000000 1.462440 0.000000 
#    z 0.000000 0.000000 1.816370 
# 
# From -- ./inp_files/56693.got.cif
#   From: 2010.05.17/outbox.cif.g08.bks.cpg/sg71_29_cif.got.tgz:56693.got - 2010.06.03 16:22:01.
