data_PCOD9522602
_publ_section_title
;
Structure prediction by ZEFSAII (Michael W. Deem and Ramdas Pophale) SiO2 
 PCOD9522602
Probable space group: I M M M
;
_chemical_formula_sum "Si O2"
_cell_formula_units_Z 116
_cell_length_a 29.912484
_cell_length_b 7.833757
_cell_length_c 25.112956
_cell_angle_alpha 90.000000
_cell_angle_beta 90.000000
_cell_angle_gamma 90.000000
_cell_volume 5884.646928
_symmetry_space_group_name_H-M "I M M M"
_symmetry_group_IT_number 71
_symmetry_cell_setting 'orthorhombic'
loop_
_space_group_symop_operation_xyz
x,y,z
-x,-y,z
x,-y,-z
-x,y,-z
-x,-y,-z
x,y,-z
-x,y,z
x,-y,z
1/2+x,1/2+y,1/2+z
1/2-x,1/2-y,1/2+z
1/2+x,1/2-y,1/2-z
1/2-x,1/2+y,1/2-z
1/2-x,1/2-y,1/2-z
1/2+x,1/2+y,1/2-z
1/2-x,1/2+y,1/2+z
1/2+x,1/2-y,1/2+z
loop_
_atom_site_type_symbol
_atom_site_label
_atom_site_fract_x
_atom_site_fract_y
_atom_site_fract_z
Si Si1 0.948453 0.793703 0.252324
Si Si2 0.116687 0.306636 0.653362
Si Si3 0.798082 0.804995 0.701920
Si Si4 0.949670 0.206245 0.561015
Si Si5 0.834481 0.500000 0.000000
Si Si6 0.550217 0.292791 0.369272
Si Si7 0.856958 0.199555 0.916990
Si Si8 0.300455 0.199035 0.681193
O O1 0.915023 0.722154 0.295715
O O2 0.940207 0.736727 0.191554
O O3 0.000000 0.751112 0.265329
O O4 0.944575 0.000000 0.253786
O O5 0.198655 0.500000 0.833430
O O6 0.161557 0.199733 0.660761
O O7 0.087212 0.267177 0.601917
O O8 0.868056 0.500000 0.651842
O O9 0.751076 0.736555 0.679841
O O10 0.813040 0.716120 0.756636
O O11 0.941627 0.259854 0.500000
O O12 0.000000 0.262277 0.576254
O O13 0.949755 0.000000 0.562020
O O14 0.836233 0.345574 0.954124
O O15 0.500000 0.235121 0.383984
O O16 0.549033 0.500000 0.367579
O O17 0.591010 0.249268 0.407536
O O18 0.832611 0.206056 0.859526
O O19 0.855092 0.000000 0.935305
O O20 0.211291 0.000000 0.717363
#
# Coordination Sequence:
#
# PCOD9522602 Si02
#       8
#    16  16  16  16   4  16  16  16
#     4   9  17  31  52  77 109 150 193 233 282 353
#     4  12  23  32  48  78 118 151 186 238 288 338
#     4  10  21  36  59  89 121 156 188 228 292 361
#     4   9  19  37  59  77  98 140 196 244 289 347
#     4  12  26  44  61  92 124 152 216 260 279 360
#     4   8  16  33  57  85 115 152 196 238 293 357
#     4  11  22  40  67  88 118 163 200 251 306 345
#     4  10  20  38  63  92 122 149 189 245 298 359
#
# _framework density 19.712313000000002
#
# number of rings (size 3 to 8) (size 9 to 14) (size 15 to 20)
#    0.000    2.069    0.690    4.759    0.000    5.241 
#    1.241    1.724    1.517    1.655    0.000    0.000 
#    0.000    0.000    0.000    0.000    0.000    0.000 
#
# Total GULP energy -323163.110898 kJ/mol
# GULP energy per Si atom -5571.777774 kJ/mol
# Density = 1.966745 g / cm^3
# Si number density = 19.712313 Si / 1000 Ang^3
#
#
#
# Elastic Constant Matrix: (Units=GPa)
#
#
# Indices 1 2 3 4 5 6 
#
# 1 69.6298 10.3063 31.2077 0.0000 0.0000 0.0000
# 2 10.3063 66.6266 11.0971 0.0000 0.0000 0.0000
# 3 31.2077 11.0971 40.8817 0.0000 0.0000 0.0000
# 4 0.0000 0.0000 0.0000 76.9979 0.0000 0.0000
# 5 0.0000 0.0000 0.0000 0.0000 10.7328 0.0000
# 6 0.0000 0.0000 0.0000 0.0000 0.0000 13.5295
#
#
#
# Elastic Compliance Matrix: (Units=1/GPa)
#
#
# Indices 1 2 3 4 5 6 
#
# 1 0.021856 -0.000631 -0.016513 0.000000 0.000000 0.000000
# 2 -0.000631 0.015738 -0.003791 0.000000 0.000000 0.000000
# 3 -0.016513 -0.003791 0.038095 0.000000 0.000000 0.000000
# 4 0.000000 0.000000 0.000000 0.012987 0.000000 0.000000
# 5 0.000000 0.000000 0.000000 0.000000 0.093172 0.000000
# 6 0.000000 0.000000 0.000000 0.000000 0.000000 0.073913
#
#
# Mechanical properties :
#
#
# Convention : Reuss Voigt Hill
#
# Bulk Modulus (GPa) = 29.56756 31.37337 30.47047
# Shear Modulus (GPa) = 16.18630 28.55384 22.37007
#
# Velocity S-wave (km/s) = 2.86864 3.81008 3.37237
# Velocity P-wave (km/s) = 5.09943 5.94187 5.53670
#
# Compressibility (1/GPa) = 0.03382085
#
# Stress axis : x y z
#
# Youngs Moduli (GPa) = 45.75402 63.54082 26.25000
#
# Poissons Ratio (x) = 0.04006 0.43347
# Poissons Ratio (y) = 0.02885 0.09950
# Poissons Ratio (z) = 0.75554 0.24086
#
# Static dielectric constant tensor:
#      x y z
#    x 1.707800 0.000000 0.000000 
#    y 0.000000 1.724510 0.000000 
#    z 0.000000 0.000000 1.678810 
# 
# From -- ./inp_files/62395.got.cif
#   From: 2010.05.17/outbox.cif.g08.bks.cpg/sg71_32_cif.got.tgz:62395.got - 2010.06.03 16:22:01.
