data_PCOD9522440
_publ_section_title
;
Structure prediction by ZEFSAII (Michael W. Deem and Ramdas Pophale) SiO2 
 PCOD9522440
Probable space group: I M M M
;
_chemical_formula_sum "Si O2"
_cell_formula_units_Z 66
_cell_length_a 15.645898
_cell_length_b 24.767349
_cell_length_c 7.279052
_cell_angle_alpha 90.000000
_cell_angle_beta 90.000000
_cell_angle_gamma 90.000000
_cell_volume 2820.686633
_symmetry_space_group_name_H-M "I M M M"
_symmetry_group_IT_number 71
_symmetry_cell_setting 'orthorhombic'
loop_
_space_group_symop_operation_xyz
x,y,z
-x,-y,z
x,-y,-z
-x,y,-z
-x,-y,-z
x,y,-z
-x,y,z
x,-y,z
1/2+x,1/2+y,1/2+z
1/2-x,1/2-y,1/2+z
1/2+x,1/2-y,1/2-z
1/2-x,1/2+y,1/2-z
1/2-x,1/2-y,1/2-z
1/2+x,1/2+y,1/2-z
1/2-x,1/2+y,1/2+z
1/2+x,1/2-y,1/2+z
loop_
_atom_site_type_symbol
_atom_site_label
_atom_site_fract_x
_atom_site_fract_y
_atom_site_fract_z
Si Si1 0.500000 0.239492 0.722451
Si Si2 0.000000 0.437836 0.223520
Si Si3 0.186678 0.116654 0.284460
Si Si4 0.500000 0.500000 0.000000
Si Si5 0.500000 0.636835 0.205796
Si Si6 0.840928 0.000000 0.784886
Si Si7 0.363825 0.848602 0.276292
O O1 0.500000 0.244716 0.500000
O O2 0.500000 0.298722 0.803571
O O3 0.417876 0.203964 0.775896
O O4 0.081878 0.401532 0.278977
O O5 0.000000 0.500000 0.284857
O O6 0.000000 0.438667 0.000000
O O7 0.177455 0.130310 0.500000
O O8 0.210131 0.054117 0.262890
O O9 0.266281 0.150291 0.211378
O O10 0.090889 0.122225 0.206969
O O11 0.424902 0.500000 0.159998
O O12 0.500000 0.609711 0.000000
O O13 0.861157 0.000000 0.000000
O O14 0.362081 0.849473 0.500000
#
# Coordination Sequence:
#
# PCOD9522440 Si02
#       7
#     8   8  16   2   8   8  16
#     4   9  18  36  56  81 113 143 203 260 306 358
#     4   8  13  22  42  77 111 132 193 248 290 353
#     4  10  20  37  58  81 119 159 202 244 306 364
#     4  12  22  44  60  82 120 174 198 252 308 334
#     4  10  22  35  53  78 109 151 201 247 297 379
#     4  12  25  39  63  93 124 162 209 249 298 369
#     4   8  16  30  52  80 109 152 193 249 303 359
#
# _framework density 23.398558000000001
#
# number of rings (size 3 to 8) (size 9 to 14) (size 15 to 20)
#    0.000    2.545    1.212    2.364    3.394    1.939 
#    0.000    1.212    0.000    0.000    0.000    1.697 
#    0.000    0.000    0.000    0.000    0.000    0.000 
#
# Total GULP energy -184099.222159 kJ/mol
# GULP energy per Si atom -5578.764308 kJ/mol
# Density = 2.334530 g / cm^3
# Si number density = 23.398558 Si / 1000 Ang^3
#
#
#
# Elastic Constant Matrix: (Units=GPa)
#
#
# Indices 1 2 3 4 5 6 
#
# 1 158.5388 13.8667 1.6800 0.0000 0.0000 0.0000
# 2 13.8667 73.6952 -26.9842 0.0000 0.0000 0.0000
# 3 1.6800 -26.9842 116.0186 0.0000 -0.0002 -0.0001
# 4 0.0000 0.0000 0.0000 10.4844 -0.0001 0.0000
# 5 0.0000 0.0000 -0.0002 -0.0001 -19.2767 -0.0001
# 6 0.0000 0.0000 -0.0001 0.0000 -0.0001 -5.5743
#
#
#
# Elastic Compliance Matrix: (Units=1/GPa)
#
#
# Indices 1 2 3 4 5 6 
#
# 1 0.006431 -0.001360 -0.000409 0.000000 0.000000 0.000000
# 2 -0.001360 0.015120 0.003536 0.000000 0.000000 0.000000
# 3 -0.000409 0.003536 0.009448 0.000000 0.000000 0.000000
# 4 0.000000 0.000000 0.000000 0.095380 0.000000 -0.000001
# 5 0.000000 0.000000 0.000000 0.000000 -0.051876 0.000001
# 6 0.000000 0.000000 0.000000 -0.000001 0.000001 -0.179393
#
#
# Mechanical properties :
#
#
# Convention : Reuss Voigt Hill
#
# Bulk Modulus (GPa) = 28.95790 36.15306 32.55548
# Shear Modulus (GPa) = -51.59235 21.10600 -15.24318
#
# Velocity S-wave (km/s) = -4.70077 3.00663 -2.55514
# Velocity P-wave (km/s) = 4.13040 5.24763 2.28882
#
# Compressibility (1/GPa) = 0.03453290
#
# Stress axis : x y z
#
# Youngs Moduli (GPa) = 155.49934 66.13667 105.84526
#
# Poissons Ratio (x) = 0.08994 0.04334
# Poissons Ratio (y) = 0.21148 -0.37431
# Poissons Ratio (z) = 0.06367 -0.23389
#
# Static dielectric constant tensor:
#      x y z
#    x 1.883160 0.000000 0.000000 
#    y 0.000000 1.891960 0.000000 
#    z 0.000000 0.000000 1.882110 
# 
# From -- ./inp_files/5960.got.cif
#   From: 2010.05.17/outbox.cif.g08.bks.cpg/sg71_3_cif.got.tgz:5960.got - 2010.06.03 16:22:01.
