data_PCOD9522114
_publ_section_title
;
Structure prediction by ZEFSAII (Michael W. Deem and Ramdas Pophale) SiO2 
 PCOD9522114
Probable space group: I M M M
;
_chemical_formula_sum "Si O2"
_cell_formula_units_Z 64
_cell_length_a 12.185527
_cell_length_b 14.167548
_cell_length_c 18.711196
_cell_angle_alpha 90.000000
_cell_angle_beta 90.000000
_cell_angle_gamma 90.000000
_cell_volume 3230.282890
_symmetry_space_group_name_H-M "I M M M"
_symmetry_group_IT_number 71
_symmetry_cell_setting 'orthorhombic'
loop_
_space_group_symop_operation_xyz
x,y,z
-x,-y,z
x,-y,-z
-x,y,-z
-x,-y,-z
x,y,-z
-x,y,z
x,-y,z
1/2+x,1/2+y,1/2+z
1/2-x,1/2-y,1/2+z
1/2+x,1/2-y,1/2-z
1/2-x,1/2+y,1/2-z
1/2-x,1/2-y,1/2-z
1/2+x,1/2+y,1/2-z
1/2-x,1/2+y,1/2+z
1/2+x,1/2-y,1/2+z
loop_
_atom_site_type_symbol
_atom_site_label
_atom_site_fract_x
_atom_site_fract_y
_atom_site_fract_z
Si Si1 0.500000 0.136575 0.082416
Si Si2 0.741854 0.604432 0.085457
Si Si3 0.000000 0.137966 0.582496
Si Si4 0.816003 0.608275 0.697582
Si Si5 0.874273 0.249005 0.822912
O O1 0.500000 0.249719 0.081532
O O2 0.392354 0.107908 0.127154
O O3 0.500000 0.105342 0.000000
O O4 0.787436 0.500000 0.099812
O O5 0.616589 0.608158 0.114505
O O6 0.813182 0.686803 0.118592
O O7 0.735631 0.616758 0.000000
O O8 0.000000 0.104011 0.500000
O O9 0.811511 0.500000 0.723964
O O10 0.868443 0.683658 0.752747
O O11 0.696549 0.653997 0.685480
O O12 0.000000 0.230047 0.840079
#
# Coordination Sequence:
#
# PCOD9522114 Si02
#       5
#     8  16   8  16  16
#     4  11  21  39  69  96 120 155 206 267 317 352
#     4  10  20  35  58  88 122 163 206 249 300 358
#     4   9  17  33  57  88 123 156 198 255 306 346
#     4  11  24  42  63  89 121 157 202 253 306 362
#     4  11  24  41  61  86 124 164 199 242 301 367
#
# _framework density 19.812508000000001
#
# number of rings (size 3 to 8) (size 9 to 14) (size 15 to 20)
#    0.000    1.500    3.750    1.500    0.000    5.000 
#    0.000    1.250    0.000    0.000    0.000    3.500 
#    0.000    0.000    0.000    0.000    0.000    0.000 
#
# Total GULP energy -178640.155198 kJ/mol
# GULP energy per Si atom -5582.504850 kJ/mol
# Density = 1.976741 g / cm^3
# Si number density = 19.812508 Si / 1000 Ang^3
#
#
#
# Elastic Constant Matrix: (Units=GPa)
#
#
# Indices 1 2 3 4 5 6 
#
# 1 148.3077 26.6480 27.8470 0.0000 0.0000 0.0000
# 2 26.6480 100.5399 16.8940 0.0000 0.0000 0.0000
# 3 27.8470 16.8940 81.6522 0.0000 0.0000 0.0000
# 4 0.0000 0.0000 0.0000 12.5180 0.0000 0.0000
# 5 0.0000 0.0000 0.0000 0.0000 25.3928 0.0000
# 6 0.0000 0.0000 0.0000 0.0000 0.0000 -31.9680
#
#
#
# Elastic Compliance Matrix: (Units=1/GPa)
#
#
# Indices 1 2 3 4 5 6 
#
# 1 0.007445 -0.001602 -0.002208 0.000000 0.000000 0.000000
# 2 -0.001602 0.010649 -0.001657 0.000000 0.000000 0.000000
# 3 -0.002208 -0.001657 0.013343 0.000000 0.000000 0.000000
# 4 0.000000 0.000000 0.000000 0.079885 0.000000 0.000000
# 5 0.000000 0.000000 0.000000 0.000000 0.039381 0.000000
# 6 0.000000 0.000000 0.000000 0.000000 0.000000 -0.031281
#
#
# Mechanical properties :
#
#
# Convention : Reuss Voigt Hill
#
# Bulk Modulus (GPa) = 48.77193 52.58643 50.67918
# Shear Modulus (GPa) = 36.44563 18.46261 27.45412
#
# Velocity S-wave (km/s) = 4.29362 3.05596 3.72653
# Velocity P-wave (km/s) = 7.01787 6.24912 6.64462
#
# Compressibility (1/GPa) = 0.02050360
#
# Stress axis : x y z
#
# Youngs Moduli (GPa) = 134.31540 93.90181 74.94692
#
# Poissons Ratio (x) = 0.15047 0.16545
# Poissons Ratio (y) = 0.21522 0.12418
# Poissons Ratio (z) = 0.29651 0.15559
#
# Static dielectric constant tensor:
#      x y z
#    x 1.694570 0.000000 0.000000 
#    y 0.000000 1.694330 0.000000 
#    z 0.000000 0.000000 1.736020 
# 
# From -- ./inp_files/23232.got.cif
#   From: 2010.05.17/outbox.cif.g08.bks.cpg/sg71_12_cif.got.tgz:23232.got - 2010.06.03 16:22:01.
