data_PCOD9522402
_publ_section_title
;
Structure prediction by ZEFSAII (Michael W. Deem and Ramdas Pophale) SiO2 
 PCOD9522402
Probable space group: I M M M
;
_chemical_formula_sum "Si O2"
_cell_formula_units_Z 88
_cell_length_a 22.012606
_cell_length_b 11.637603
_cell_length_c 18.904019
_cell_angle_alpha 90.000000
_cell_angle_beta 90.000000
_cell_angle_gamma 90.000000
_cell_volume 4842.717589
_symmetry_space_group_name_H-M "I M M M"
_symmetry_group_IT_number 71
_symmetry_cell_setting 'orthorhombic'
loop_
_space_group_symop_operation_xyz
x,y,z
-x,-y,z
x,-y,-z
-x,y,-z
-x,-y,-z
x,y,-z
-x,y,z
x,-y,z
1/2+x,1/2+y,1/2+z
1/2-x,1/2-y,1/2+z
1/2+x,1/2-y,1/2-z
1/2-x,1/2+y,1/2-z
1/2-x,1/2-y,1/2-z
1/2+x,1/2+y,1/2-z
1/2-x,1/2+y,1/2+z
1/2+x,1/2-y,1/2+z
loop_
_atom_site_type_symbol
_atom_site_label
_atom_site_fract_x
_atom_site_fract_y
_atom_site_fract_z
Si Si1 0.500000 0.363255 0.584771
Si Si2 0.699412 0.500000 0.914035
Si Si3 0.572765 0.135715 0.798869
Si Si4 0.351322 0.745594 0.916930
Si Si5 0.614845 0.233424 0.651514
Si Si6 0.159185 0.500000 0.915511
Si Si7 0.720560 0.363094 0.580828
O O1 0.500000 0.500000 0.599077
O O2 0.500000 0.348070 0.500000
O O3 0.558920 0.303131 0.618154
O O4 0.664784 0.384039 0.893099
O O5 0.770016 0.500000 0.890774
O O6 0.701559 0.500000 0.000000
O O7 0.500000 0.144818 0.794979
O O8 0.598697 0.193248 0.869497
O O9 0.601578 0.201902 0.732361
O O10 0.588547 0.000000 0.796112
O O11 0.288312 0.815684 0.910486
O O12 0.367902 0.743546 0.000000
O O13 0.675201 0.306525 0.636283
O O14 0.625587 0.112739 0.612087
O O15 0.159957 0.500000 0.000000
O O16 0.700946 0.331227 0.500000
O O17 0.719766 0.500000 0.586109
#
# Coordination Sequence:
#
# PCOD9522402 Si02
#       7
#     8   8  16  16  16   8  16
#     4  11  24  41  61  87 124 172 220 260 296 352
#     4   9  18  38  64  96 128 149 186 256 313 361
#     4  11  25  45  62  85 125 162 203 261 308 355
#     4  10  21  41  68  94 119 156 202 252 314 374
#     4  12  22  39  59  89 127 167 205 251 305 365
#     4  11  20  35  64  94 123 163 205 246 302 368
#     4  10  20  36  61  94 127 159 204 258 304 361
#
# _framework density 18.171614000000002
#
# number of rings (size 3 to 8) (size 9 to 14) (size 15 to 20)
#    0.000    1.364    3.636    2.727    0.000    4.000 
#    3.273    2.273    0.000    1.636    0.000    0.000 
#    0.000    0.000    0.000    0.000    0.000    0.000 
#
# Total GULP energy -245827.746654 kJ/mol
# GULP energy per Si atom -5586.994242 kJ/mol
# Density = 1.813025 g / cm^3
# Si number density = 18.171614 Si / 1000 Ang^3
#
#
#
# Elastic Constant Matrix: (Units=GPa)
#
#
# Indices 1 2 3 4 5 6 
#
# 1 35.8272 30.6499 36.4765 0.0000 0.0000 0.0000
# 2 30.6499 115.4534 48.0508 0.0000 0.0000 0.0000
# 3 36.4765 48.0508 90.1526 0.0000 0.0000 0.0000
# 4 0.0000 0.0000 0.0000 26.5858 0.0000 0.0000
# 5 0.0000 0.0000 0.0000 0.0000 -4.0145 0.0000
# 6 0.0000 0.0000 0.0000 0.0000 0.0000 36.9956
#
#
#
# Elastic Compliance Matrix: (Units=1/GPa)
#
#
# Indices 1 2 3 4 5 6 
#
# 1 0.050838 -0.006342 -0.017189 0.000000 0.000000 0.000000
# 2 -0.006342 0.011922 -0.003788 0.000000 0.000000 0.000000
# 3 -0.017189 -0.003788 0.020066 0.000000 0.000000 0.000000
# 4 0.000000 0.000000 0.000000 0.037614 0.000000 0.000000
# 5 0.000000 0.000000 0.000000 0.000000 -0.249098 0.000000
# 6 0.000000 0.000000 0.000000 0.000000 0.000000 0.027030
#
#
# Mechanical properties :
#
#
# Convention : Reuss Voigt Hill
#
# Bulk Modulus (GPa) = 35.47716 52.42085 43.94900
# Shear Modulus (GPa) = -133.00516 20.33044 -56.33736
#
# Velocity S-wave (km/s) = -8.56463 3.34848 -5.57407
# Velocity P-wave (km/s) = 8.84522 6.62269 4.14596
#
# Compressibility (1/GPa) = 0.02818715
#
# Stress axis : x y z
#
# Youngs Moduli (GPa) = 19.67024 83.88006 49.83485
#
# Poissons Ratio (x) = 0.53198 0.85662
# Poissons Ratio (y) = 0.12475 0.18878
# Poissons Ratio (z) = 0.33812 0.31775
#
# Static dielectric constant tensor:
#      x y z
#    x 1.600210 0.000000 0.000000 
#    y 0.000000 1.624120 0.000000 
#    z 0.000000 0.000000 1.611360 
# 
# From -- ./inp_files/43388.got.cif
#   From: 2010.05.17/outbox.cif.g08.bks.cpg/sg71_22_cif.got.tgz:43388.got - 2010.06.03 16:22:01.
