data_PCOD9522179
_publ_section_title
;
Structure prediction by ZEFSAII (Michael W. Deem and Ramdas Pophale) SiO2 
 PCOD9522179
Probable space group: I M M M
;
_chemical_formula_sum "Si O2"
_cell_formula_units_Z 96
_cell_length_a 25.934082
_cell_length_b 22.660680
_cell_length_c 7.530264
_cell_angle_alpha 90.000000
_cell_angle_beta 90.000000
_cell_angle_gamma 90.000000
_cell_volume 4425.415166
_symmetry_space_group_name_H-M "I M M M"
_symmetry_group_IT_number 71
_symmetry_cell_setting 'orthorhombic'
loop_
_space_group_symop_operation_xyz
x,y,z
-x,-y,z
x,-y,-z
-x,y,-z
-x,-y,-z
x,y,-z
-x,y,z
x,-y,z
1/2+x,1/2+y,1/2+z
1/2-x,1/2-y,1/2+z
1/2+x,1/2-y,1/2-z
1/2-x,1/2+y,1/2-z
1/2-x,1/2-y,1/2-z
1/2+x,1/2+y,1/2-z
1/2-x,1/2+y,1/2+z
1/2+x,1/2-y,1/2+z
loop_
_atom_site_type_symbol
_atom_site_label
_atom_site_fract_x
_atom_site_fract_y
_atom_site_fract_z
Si Si1 0.794789 0.500000 0.716247
Si Si2 0.055987 0.369007 0.792819
Si Si3 0.845482 0.295096 0.705548
Si Si4 0.559648 0.566501 0.216779
Si Si5 0.136974 0.833762 0.292371
Si Si6 0.586040 0.000000 0.213437
Si Si7 0.248368 0.374238 0.716100
O O1 0.794938 0.500000 0.500000
O O2 0.854341 0.500000 0.771866
O O3 0.767588 0.560104 0.773738
O O4 0.105862 0.338823 0.709261
O O5 0.060798 0.439475 0.775785
O O6 0.000000 0.350675 0.719791
O O7 0.057448 0.353579 0.000000
O O8 0.832163 0.283116 0.500000
O O9 0.861411 0.232239 0.786027
O O10 0.795304 0.328191 0.780331
O O11 0.500000 0.576498 0.266852
O O12 0.574625 0.500000 0.273402
O O13 0.597395 0.617879 0.282156
O O14 0.561341 0.566111 0.000000
O O15 0.122492 0.827786 0.500000
O O16 0.194965 0.857659 0.277969
O O17 0.584412 0.000000 0.000000
O O18 0.247951 0.373665 0.500000
#
# Coordination Sequence:
#
# PCOD9522179 Si02
#       7
#     8  16  16  16  16   8  16
#     4   9  18  34  56  79 107 143 184 226 267 327
#     4  11  24  39  56  83 117 149 189 241 290 335
#     4  10  21  38  57  78 109 150 192 231 277 335
#     4   8  15  30  51  75 107 141 169 212 277 334
#     4  10  21  34  55  87 111 135 184 237 275 331
#     4  11  20  38  63  84 112 151 195 237 281 335
#     4  10  20  36  55  77 110 148 181 221 279 338
#
# _framework density 21.692879999999999
#
# number of rings (size 3 to 8) (size 9 to 14) (size 15 to 20)
#    0.000    2.167    1.667    2.000    1.167    4.333 
#    0.000    1.667    0.000    0.500    0.000    1.167 
#    0.000    0.000    0.000    0.000    0.000    0.000 
#
# Total GULP energy -268123.561271 kJ/mol
# GULP energy per Si atom -5585.907526 kJ/mol
# Density = 2.164351 g / cm^3
# Si number density = 21.692880 Si / 1000 Ang^3
#
#
#
# Elastic Constant Matrix: (Units=GPa)
#
#
# Indices 1 2 3 4 5 6 
#
# 1 115.4863 81.1937 -15.0463 0.0000 0.0000 0.0000
# 2 81.1937 176.9027 -1.7083 0.0000 0.0000 0.0000
# 3 -15.0463 -1.7083 55.1116 0.0000 0.0000 0.0000
# 4 0.0000 0.0000 0.0000 -3.0861 0.0000 0.0000
# 5 0.0000 0.0000 0.0000 0.0000 36.1256 0.0000
# 6 0.0000 0.0000 0.0000 0.0000 0.0000 3.1560
#
#
#
# Elastic Compliance Matrix: (Units=1/GPa)
#
#
# Indices 1 2 3 4 5 6 
#
# 1 0.013418 -0.006125 0.003473 0.000000 0.000000 0.000000
# 2 -0.006125 0.008450 -0.001410 0.000000 0.000000 0.000000
# 3 0.003473 -0.001410 0.019050 0.000000 0.000000 0.000000
# 4 0.000000 0.000000 0.000000 -0.324038 0.000000 0.000000
# 5 0.000000 0.000000 0.000000 0.000000 0.027681 0.000000
# 6 0.000000 0.000000 0.000000 0.000000 0.000000 0.316855
#
#
# Mechanical properties :
#
#
# Convention : Reuss Voigt Hill
#
# Bulk Modulus (GPa) = 30.49315 52.93097 41.71206
# Shear Modulus (GPa) = 62.13501 26.10988 44.12244
#
# Velocity S-wave (km/s) = 5.35773 3.47308 4.51484
# Velocity P-wave (km/s) = 7.23608 6.36680 6.81532
#
# Compressibility (1/GPa) = 0.03279425
#
# Stress axis : x y z
#
# Youngs Moduli (GPa) = 74.52858 118.33851 52.49461
#
# Poissons Ratio (x) = 0.72480 -0.18233
# Poissons Ratio (y) = 0.45647 0.07403
# Poissons Ratio (z) = -0.25887 0.16688
#
# Static dielectric constant tensor:
#      x y z
#    x 1.746310 0.000000 0.000000 
#    y 0.000000 1.782900 0.000000 
#    z 0.000000 0.000000 1.811300 
# 
# From -- ./inp_files/12943.got.cif
#   From: 2010.05.17/outbox.cif.g08.bks.cpg/sg71_7_cif.got.tgz:12943.got - 2010.06.03 16:22:01.
