data_PCOD9522153
_publ_section_title
;
Structure prediction by ZEFSAII (Michael W. Deem and Ramdas Pophale) SiO2 
 PCOD9522153
Probable space group: I M M M
;
_chemical_formula_sum "Si O2"
_cell_formula_units_Z 90
_cell_length_a 25.916627
_cell_length_b 21.062244
_cell_length_c 7.983027
_cell_angle_alpha 90.000000
_cell_angle_beta 90.000000
_cell_angle_gamma 90.000000
_cell_volume 4357.633651
_symmetry_space_group_name_H-M "I M M M"
_symmetry_group_IT_number 71
_symmetry_cell_setting 'orthorhombic'
loop_
_space_group_symop_operation_xyz
x,y,z
-x,-y,z
x,-y,-z
-x,y,-z
-x,-y,-z
x,y,-z
-x,y,z
x,-y,z
1/2+x,1/2+y,1/2+z
1/2-x,1/2-y,1/2+z
1/2+x,1/2-y,1/2-z
1/2-x,1/2+y,1/2-z
1/2-x,1/2-y,1/2-z
1/2+x,1/2+y,1/2-z
1/2-x,1/2+y,1/2+z
1/2+x,1/2-y,1/2+z
loop_
_atom_site_type_symbol
_atom_site_label
_atom_site_fract_x
_atom_site_fract_y
_atom_site_fract_z
Si Si1 0.500000 0.500000 0.500000
Si Si2 0.055665 0.344819 0.799916
Si Si3 0.297589 0.294310 0.308393
Si Si4 0.913882 0.201898 0.202210
Si Si5 0.500000 0.396194 0.192588
Si Si6 0.238842 0.071935 0.307681
Si Si7 0.648869 0.928791 0.808299
O O1 0.500000 0.445148 0.348137
O O2 0.059857 0.269888 0.771889
O O3 0.104062 0.379479 0.721282
O O4 0.000000 0.368203 0.738828
O O5 0.058374 0.355075 0.000000
O O6 0.304456 0.275465 0.500000
O O7 0.250000 0.250000 0.250000
O O8 0.355056 0.290179 0.231950
O O9 0.283108 0.368389 0.291078
O O10 0.949001 0.147843 0.283832
O O11 0.912399 0.189636 0.000000
O O12 0.500000 0.421039 0.000000
O O13 0.221038 0.075821 0.500000
O O14 0.300662 0.080033 0.302964
O O15 0.227822 0.000000 0.244968
O O16 0.628740 0.000000 0.778919
O O17 0.667304 0.924775 0.000000
#
# Coordination Sequence:
#
# PCOD9522153 Si02
#       7
#     2  16  16  16   8  16  16
#     4  12  26  52  76  98 156 168 224 304 336 424
#     4  10  20  35  60  86 115 159 206 252 312 372
#     4  11  23  38  64  96 131 172 214 267 331 388
#     4  10  21  43  66  91 133 172 212 279 338 393
#     4  12  25  45  77 106 132 184 229 273 354 419
#     4  10  21  39  60  83 117 159 205 256 308 373
#     4  10  21  36  55  81 119 161 205 259 313 368
#
# _framework density 20.653411999999999
#
# number of rings (size 3 to 8) (size 9 to 14) (size 15 to 20)
#    0.000    1.600    1.778    2.800    0.000    6.400 
#    1.600    1.778    0.000    0.000    0.000    0.000 
#    0.000    0.000    0.000    0.000    0.000    0.000 
#
# Total GULP energy -250849.862769 kJ/mol
# GULP energy per Si atom -5574.441395 kJ/mol
# Density = 2.060640 g / cm^3
# Si number density = 20.653412 Si / 1000 Ang^3
#
#
#
# Elastic Constant Matrix: (Units=GPa)
#
#
# Indices 1 2 3 4 5 6 
#
# 1 102.5836 29.2791 12.9109 0.0000 0.0000 0.0000
# 2 29.2791 48.2120 18.7190 0.0000 0.0000 0.0000
# 3 12.9109 18.7190 65.2155 0.0000 0.0000 0.0000
# 4 0.0000 0.0000 0.0000 24.3432 0.0000 0.0000
# 5 0.0000 0.0000 0.0000 0.0000 19.9130 0.0000
# 6 0.0000 0.0000 0.0000 0.0000 0.0000 8.2776
#
#
#
# Elastic Compliance Matrix: (Units=1/GPa)
#
#
# Indices 1 2 3 4 5 6 
#
# 1 0.011798 -0.007043 -0.000314 0.000000 0.000000 0.000000
# 2 -0.007043 0.027547 -0.006513 0.000000 0.000000 0.000000
# 3 -0.000314 -0.006513 0.017265 0.000000 0.000000 0.000000
# 4 0.000000 0.000000 0.000000 0.041079 0.000000 0.000000
# 5 0.000000 0.000000 0.000000 0.000000 0.050218 0.000000
# 6 0.000000 0.000000 0.000000 0.000000 0.000000 0.120809
#
#
# Mechanical properties :
#
#
# Convention : Reuss Voigt Hill
#
# Bulk Modulus (GPa) = 34.63653 37.53655 36.08654
# Shear Modulus (GPa) = 16.33559 20.84689 18.59124
#
# Velocity S-wave (km/s) = 2.81542 3.18050 3.00351
# Velocity P-wave (km/s) = 5.23216 5.63040 5.43493
#
# Compressibility (1/GPa) = 0.02887126
#
# Stress axis : x y z
#
# Youngs Moduli (GPa) = 84.76135 36.30095 57.91952
#
# Poissons Ratio (x) = 0.25566 0.01819
# Poissons Ratio (y) = 0.59696 0.37721
# Poissons Ratio (z) = 0.02663 0.23642
#
# Static dielectric constant tensor:
#      x y z
#    x 1.815870 0.000000 0.000000 
#    y 0.000000 1.723450 0.000000 
#    z 0.000000 0.000000 1.755970 
# 
# From -- ./inp_files/10573.got.cif
#   From: 2010.05.17/outbox.cif.g08.bks.cpg/sg71_6_cif.got.tgz:10573.got - 2010.06.03 16:22:01.
