data_PCOD9522933
_publ_section_title
;
Structure prediction by ZEFSAII (Michael W. Deem and Ramdas Pophale) SiO2 
 PCOD9522933
Probable space group: I M M M
;
_chemical_formula_sum "Si O2"
_cell_formula_units_Z 96
_cell_length_a 27.290493
_cell_length_b 7.734027
_cell_length_c 20.469481
_cell_angle_alpha 90.000000
_cell_angle_beta 90.000000
_cell_angle_gamma 90.000000
_cell_volume 4320.399394
_symmetry_space_group_name_H-M "I M M M"
_symmetry_group_IT_number 71
_symmetry_cell_setting 'orthorhombic'
loop_
_space_group_symop_operation_xyz
x,y,z
-x,-y,z
x,-y,-z
-x,y,-z
-x,-y,-z
x,y,-z
-x,y,z
x,-y,z
1/2+x,1/2+y,1/2+z
1/2-x,1/2-y,1/2+z
1/2+x,1/2-y,1/2-z
1/2-x,1/2+y,1/2-z
1/2-x,1/2-y,1/2-z
1/2+x,1/2+y,1/2-z
1/2-x,1/2+y,1/2+z
1/2+x,1/2-y,1/2+z
loop_
_atom_site_type_symbol
_atom_site_label
_atom_site_fract_x
_atom_site_fract_y
_atom_site_fract_z
Si Si1 0.946851 0.797976 0.656503
Si Si2 0.743958 0.703353 0.427466
Si Si3 0.094690 0.298246 0.210225
Si Si4 0.203338 0.792920 0.794301
Si Si5 0.057869 0.290021 0.928204
Si Si6 0.355180 0.292625 0.076293
O O1 0.937363 0.787981 0.733699
O O2 0.899543 0.723270 0.619855
O O3 0.000000 0.721360 0.640631
O O4 0.948277 0.000000 0.637529
O O5 0.736712 0.779363 0.500000
O O6 0.732578 0.500000 0.431236
O O7 0.713428 0.776761 0.367423
O O8 0.801419 0.719112 0.410041
O O9 0.081491 0.500000 0.210102
O O10 0.151485 0.277696 0.229013
O O11 0.085341 0.228952 0.136935
O O12 0.250000 0.750000 0.750000
O O13 0.199135 0.000000 0.795926
O O14 0.061580 0.500000 0.929327
O O15 0.000000 0.248786 0.922313
O O16 0.075069 0.228395 0.000000
O O17 0.350854 0.500000 0.085968
O O18 0.365809 0.260779 0.000000
#
# Coordination Sequence:
#
# PCOD9522933 Si02
#       6
#    16  16  16  16  16  16
#     4  10  21  36  54  77 107 142 178 219 265 311
#     4   9  19  36  56  77 103 137 174 212 259 313
#     4  11  22  35  54  80 108 139 176 219 265 314
#     4  11  23  38  56  78 106 140 177 219 264 313
#     4   8  15  30  52  77 105 137 174 216 259 303
#     4   9  18  33  54  79 105 135 173 216 260 307
#
# _framework density 22.220168000000001
#
# number of rings (size 3 to 8) (size 9 to 14) (size 15 to 20)
#    0.000    2.333    0.000    3.000    0.000    6.667 
#    0.000    1.667    0.000    1.500    0.000    9.333 
#    0.000    0.000    0.000    0.000    0.000    0.000 
#
# Total GULP energy -268062.958930 kJ/mol
# GULP energy per Si atom -5584.644978 kJ/mol
# Density = 2.216959 g / cm^3
# Si number density = 22.220168 Si / 1000 Ang^3
#
#
#
# Elastic Constant Matrix: (Units=GPa)
#
#
# Indices 1 2 3 4 5 6 
#
# 1 34.0421 -8.9663 -3.9072 0.0000 0.0000 0.0000
# 2 -8.9663 37.6605 -1.5484 0.0000 0.0000 0.0000
# 3 -3.9072 -1.5484 30.8252 0.0000 0.0000 0.0000
# 4 0.0000 0.0000 0.0000 19.0061 0.0000 0.0000
# 5 0.0000 0.0000 0.0000 0.0000 38.4410 0.0000
# 6 0.0000 0.0000 0.0000 0.0000 0.0000 10.1674
#
#
#
# Elastic Compliance Matrix: (Units=1/GPa)
#
#
# Indices 1 2 3 4 5 6 
#
# 1 0.031936 0.007786 0.004439 0.000000 0.000000 0.000000
# 2 0.007786 0.028506 0.002419 0.000000 0.000000 0.000000
# 3 0.004439 0.002419 0.033125 0.000000 0.000000 0.000000
# 4 0.000000 0.000000 0.000000 0.052615 0.000000 0.000000
# 5 0.000000 0.000000 0.000000 0.000000 0.026014 0.000000
# 6 0.000000 0.000000 0.000000 0.000000 0.000000 0.098354
#
#
# Mechanical properties :
#
#
# Convention : Reuss Voigt Hill
#
# Bulk Modulus (GPa) = 8.13974 8.18712 8.16343
# Shear Modulus (GPa) = 17.71710 21.31955 19.51833
#
# Velocity S-wave (km/s) = 2.82679 3.10089 2.96701
# Velocity P-wave (km/s) = 3.78490 4.06365 3.92675
#
# Compressibility (1/GPa) = 0.12285399
#
# Stress axis : x y z
#
# Youngs Moduli (GPa) = 31.31304 35.08020 30.18856
#
# Poissons Ratio (x) = -0.27313 -0.13401
# Poissons Ratio (y) = -0.24380 -0.07302
# Poissons Ratio (z) = -0.13900 -0.08485
#
# Static dielectric constant tensor:
#      x y z
#    x 1.790520 0.000000 0.000000 
#    y 0.000000 1.825660 0.000000 
#    z 0.000000 0.000000 1.852650 
# 
# From -- ./inp_files/10925.got.cif
#   From: 2010.05.17/outbox.cif.g08.bks.cpg/sg71_6_cif.got.tgz:10925.got - 2010.06.03 16:22:01.
