data_PCOD9522352
_publ_section_title
;
Structure prediction by ZEFSAII (Michael W. Deem and Ramdas Pophale) SiO2 
 PCOD9522352
Probable space group: I M M M
;
_chemical_formula_sum "Si O2"
_cell_formula_units_Z 112
_cell_length_a 14.024168
_cell_length_b 15.881277
_cell_length_c 25.492209
_cell_angle_alpha 90.000000
_cell_angle_beta 90.000000
_cell_angle_gamma 90.000000
_cell_volume 5677.668041
_symmetry_space_group_name_H-M "I M M M"
_symmetry_group_IT_number 71
_symmetry_cell_setting 'orthorhombic'
loop_
_space_group_symop_operation_xyz
x,y,z
-x,-y,z
x,-y,-z
-x,y,-z
-x,-y,-z
x,y,-z
-x,y,z
x,-y,z
1/2+x,1/2+y,1/2+z
1/2-x,1/2-y,1/2+z
1/2+x,1/2-y,1/2-z
1/2-x,1/2+y,1/2-z
1/2-x,1/2-y,1/2-z
1/2+x,1/2+y,1/2-z
1/2-x,1/2+y,1/2+z
1/2+x,1/2-y,1/2+z
loop_
_atom_site_type_symbol
_atom_site_label
_atom_site_fract_x
_atom_site_fract_y
_atom_site_fract_z
Si Si1 0.606924 0.400080 0.342917
Si Si2 0.389558 0.136399 0.439253
Si Si3 0.807807 0.178028 0.056055
Si Si4 0.795506 0.904529 0.628585
Si Si5 0.891686 0.263717 0.590229
Si Si6 0.106667 0.593174 0.679212
Si Si7 0.271738 0.348706 0.248398
O O1 0.500000 0.372180 0.355288
O O2 0.609324 0.500000 0.337883
O O3 0.672479 0.373692 0.391524
O O4 0.640446 0.363240 0.287665
O O5 0.375254 0.108257 0.500000
O O6 0.500000 0.118511 0.424887
O O7 0.370366 0.236945 0.439471
O O8 0.307303 0.102045 0.400861
O O9 0.697297 0.205504 0.056020
O O10 0.830773 0.136481 0.000000
O O11 0.864104 0.831665 0.605914
O O12 0.785045 0.882114 0.689948
O O13 0.830824 0.000000 0.622317
O O14 0.887387 0.328348 0.639548
O O15 0.000000 0.267872 0.569579
O O16 0.119122 0.500000 0.653852
O O17 0.184603 0.604008 0.723671
O O18 0.000000 0.595213 0.701572
O O19 0.250000 0.250000 0.250000
#
# Coordination Sequence:
#
# PCOD9522352 Si02
#       7
#    16  16  16  16  16  16  16
#     4  11  24  40  59  87 125 166 204 246 305 373
#     4   9  19  38  62  88 122 162 204 254 311 369
#     4  10  20  37  62  90 119 156 204 256 305 361
#     4  11  23  37  58  90 124 161 209 259 305 364
#     4  10  21  39  60  86 119 156 199 249 307 366
#     4  10  20  36  60  84 110 150 196 245 303 362
#     4  12  22  39  60  84 122 162 202 255 305 361
#
# _framework density 19.726407999999999
#
# number of rings (size 3 to 8) (size 9 to 14) (size 15 to 20)
#    0.000    1.571    2.857    2.571    0.000    4.000 
#    0.000    1.429    0.000    0.000    0.000    7.000 
#    0.000    0.000    0.000    0.000    0.000    0.000 
#
# Total GULP energy -312432.707089 kJ/mol
# GULP energy per Si atom -5579.155484 kJ/mol
# Density = 1.968151 g / cm^3
# Si number density = 19.726408 Si / 1000 Ang^3
#
#
#
# Elastic Constant Matrix: (Units=GPa)
#
#
# Indices 1 2 3 4 5 6 
#
# 1 109.2814 27.5540 26.7047 0.0000 0.0000 0.0000
# 2 27.5540 94.1186 17.8048 0.0000 0.0000 0.0000
# 3 26.7047 17.8048 91.3899 0.0000 0.0000 0.0000
# 4 0.0000 0.0000 0.0000 566.5031 0.0000 0.0000
# 5 0.0000 0.0000 0.0000 0.0000 10.8248 0.0000
# 6 0.0000 0.0000 0.0000 0.0000 0.0000 23.5203
#
#
#
# Elastic Compliance Matrix: (Units=1/GPa)
#
#
# Indices 1 2 3 4 5 6 
#
# 1 0.010420 -0.002569 -0.002544 0.000000 0.000000 0.000000
# 2 -0.002569 0.011665 -0.001522 0.000000 0.000000 0.000000
# 3 -0.002544 -0.001522 0.011982 0.000000 0.000000 0.000000
# 4 0.000000 0.000000 0.000000 0.001765 0.000000 0.000000
# 5 0.000000 0.000000 0.000000 0.000000 0.092381 0.000000
# 6 0.000000 0.000000 0.000000 0.000000 0.000000 0.042516
#
#
# Mechanical properties :
#
#
# Convention : Reuss Voigt Hill
#
# Bulk Modulus (GPa) = 48.08519 48.76853 48.42686
# Shear Modulus (GPa) = 26.18723 135.01807 80.60265
#
# Velocity S-wave (km/s) = 3.64747 8.28215 6.39914
# Velocity P-wave (km/s) = 6.49366 10.78122 8.89951
#
# Compressibility (1/GPa) = 0.02079642
#
# Stress axis : x y z
#
# Youngs Moduli (GPa) = 95.96700 85.72679 83.45802
#
# Poissons Ratio (x) = 0.22026 0.21234
# Poissons Ratio (y) = 0.24657 0.12701
# Poissons Ratio (z) = 0.24417 0.13046
#
# Static dielectric constant tensor:
#      x y z
#    x 1.702820 0.000000 0.000000 
#    y 0.000000 1.704500 0.000000 
#    z 0.000000 0.000000 1.696070 
# 
# From -- ./inp_files/59922.got.cif
#   From: 2010.05.17/outbox.cif.g08.bks.cpg/sg71_30_cif.got.tgz:59922.got - 2010.06.03 16:22:01.
