data_PCOD9522191
_publ_section_title
;
Structure prediction by ZEFSAII (Michael W. Deem and Ramdas Pophale) SiO2 
 PCOD9522191
Probable space group: I M M M
;
_chemical_formula_sum "Si O2"
_cell_formula_units_Z 112
_cell_length_a 19.953395
_cell_length_b 18.300730
_cell_length_c 17.630704
_cell_angle_alpha 90.000000
_cell_angle_beta 90.000000
_cell_angle_gamma 90.000000
_cell_volume 6438.057747
_symmetry_space_group_name_H-M "I M M M"
_symmetry_group_IT_number 71
_symmetry_cell_setting 'orthorhombic'
loop_
_space_group_symop_operation_xyz
x,y,z
-x,-y,z
x,-y,-z
-x,y,-z
-x,-y,-z
x,y,-z
-x,y,z
x,-y,z
1/2+x,1/2+y,1/2+z
1/2-x,1/2-y,1/2+z
1/2+x,1/2-y,1/2-z
1/2-x,1/2+y,1/2-z
1/2-x,1/2-y,1/2-z
1/2+x,1/2+y,1/2-z
1/2-x,1/2+y,1/2+z
1/2+x,1/2-y,1/2+z
loop_
_atom_site_type_symbol
_atom_site_label
_atom_site_fract_x
_atom_site_fract_y
_atom_site_fract_z
Si Si1 0.920770 0.919340 0.192719
Si Si2 0.420039 0.145272 0.410626
Si Si3 0.775092 0.304361 0.684678
Si Si4 0.695625 0.085701 0.686871
Si Si5 0.304019 0.675875 0.085869
Si Si6 0.858221 0.192831 0.088675
Si Si7 0.578071 0.412178 0.860855
O O1 0.907940 0.865166 0.125083
O O2 0.896984 0.892833 0.275285
O O3 0.000000 0.926358 0.203416
O O4 0.892315 0.000000 0.178135
O O5 0.410951 0.126157 0.500000
O O6 0.500000 0.145011 0.395515
O O7 0.375850 0.095332 0.355241
O O8 0.388832 0.226468 0.399548
O O9 0.750000 0.250000 0.750000
O O10 0.803771 0.373071 0.731388
O O11 0.818119 0.252294 0.629196
O O12 0.710188 0.321010 0.633979
O O13 0.748958 0.128891 0.632967
O O14 0.712881 0.000000 0.693252
O O15 0.371453 0.628890 0.085143
O O16 0.279325 0.688789 0.000000
O O17 0.848829 0.182157 0.000000
O O18 0.500000 0.392405 0.870878
O O19 0.582513 0.500000 0.867534
#
# Coordination Sequence:
#
# PCOD9522191 Si02
#       7
#    16  16  16  16  16  16  16
#     4   9  18  32  49  72 107 149 186 217 255 313
#     4  10  21  36  55  83 116 148 183 229 286 339
#     4  10  20  36  56  75 104 141 180 223 269 322
#     4  11  23  38  58  83 110 144 190 231 277 334
#     4  11  21  35  56  81 108 142 182 225 275 331
#     4  11  20  33  53  79 110 144 182 225 273 327
#     4   9  19  34  52  78 111 145 180 221 272 327
#
# _framework density 17.396550999999999
#
# number of rings (size 3 to 8) (size 9 to 14) (size 15 to 20)
#    0.000    1.857    2.857    4.286    0.000    5.429 
#    0.000    2.143    0.000    1.286    0.000    0.000 
#    0.000    0.000    0.000    6.429    0.000    0.000 
#
# Total GULP energy -312157.997564 kJ/mol
# GULP energy per Si atom -5574.249957 kJ/mol
# Density = 1.735696 g / cm^3
# Si number density = 17.396551 Si / 1000 Ang^3
#
#
#
# Elastic Constant Matrix: (Units=GPa)
#
#
# Indices 1 2 3 4 5 6 
#
# 1 71.8999 18.0225 31.4832 0.0000 0.0000 0.0000
# 2 18.0225 76.9773 53.0034 0.0000 0.0000 0.0000
# 3 31.4832 53.0034 102.4530 0.0000 0.0000 0.0000
# 4 0.0000 0.0000 0.0000 30.3421 0.0000 0.0000
# 5 0.0000 0.0000 0.0000 0.0000 25.1693 0.0000
# 6 0.0000 0.0000 0.0000 0.0000 0.0000 19.0760
#
#
#
# Elastic Compliance Matrix: (Units=1/GPa)
#
#
# Indices 1 2 3 4 5 6 
#
# 1 0.016086 -0.000563 -0.004652 0.000000 0.000000 0.000000
# 2 -0.000563 0.020199 -0.010277 0.000000 0.000000 0.000000
# 3 -0.004652 -0.010277 0.016507 0.000000 0.000000 0.000000
# 4 0.000000 0.000000 0.000000 0.032957 0.000000 0.000000
# 5 0.000000 0.000000 0.000000 0.000000 0.039731 0.000000
# 6 0.000000 0.000000 0.000000 0.000000 0.000000 0.052422
#
#
# Mechanical properties :
#
#
# Convention : Reuss Voigt Hill
#
# Bulk Modulus (GPa) = 45.85398 50.70535 48.27967
# Shear Modulus (GPa) = 23.13157 24.83890 23.98524
#
# Velocity S-wave (km/s) = 3.65041 3.78273 3.71716
# Velocity P-wave (km/s) = 6.64700 6.94901 6.79969
#
# Compressibility (1/GPa) = 0.02180836
#
# Stress axis : x y z
#
# Youngs Moduli (GPa) = 62.16458 49.50802 60.58176
#
# Poissons Ratio (x) = 0.02788 0.28182
# Poissons Ratio (y) = 0.03501 0.62258
# Poissons Ratio (z) = 0.28918 0.50878
#
# Static dielectric constant tensor:
#      x y z
#    x 1.634130 0.000000 0.000000 
#    y 0.000000 1.615360 0.000000 
#    z 0.000000 0.000000 1.572530 
# 
# From -- ./inp_files/46396.got.cif
#   From: 2010.05.17/outbox.cif.g08.bks.cpg/sg71_24_cif.got.tgz:46396.got - 2010.06.03 16:22:01.
