data_PCOD9522963
_publ_section_title
;
Structure prediction by ZEFSAII (Michael W. Deem and Ramdas Pophale) SiO2 
 PCOD9522963
Probable space group: I M M M
;
_chemical_formula_sum "Si O2"
_cell_formula_units_Z 72
_cell_length_a 32.595353
_cell_length_b 8.698282
_cell_length_c 13.529888
_cell_angle_alpha 90.000000
_cell_angle_beta 90.000000
_cell_angle_gamma 90.000000
_cell_volume 3836.042178
_symmetry_space_group_name_H-M "I M M M"
_symmetry_group_IT_number 71
_symmetry_cell_setting 'orthorhombic'
loop_
_space_group_symop_operation_xyz
x,y,z
-x,-y,z
x,-y,-z
-x,y,-z
-x,-y,-z
x,y,-z
-x,y,z
x,-y,z
1/2+x,1/2+y,1/2+z
1/2-x,1/2-y,1/2+z
1/2+x,1/2-y,1/2-z
1/2-x,1/2+y,1/2-z
1/2-x,1/2-y,1/2-z
1/2+x,1/2+y,1/2-z
1/2-x,1/2+y,1/2+z
1/2+x,1/2-y,1/2+z
loop_
_atom_site_type_symbol
_atom_site_label
_atom_site_fract_x
_atom_site_fract_y
_atom_site_fract_z
Si Si1 0.594655 0.815905 0.197754
Si Si2 0.951894 0.185440 0.887582
Si Si3 0.952862 0.312533 0.500000
Si Si4 0.263893 0.683815 0.608788
Si Si5 0.684899 0.316497 0.799396
O O1 0.574958 0.752704 0.298994
O O2 0.569556 0.762860 0.100662
O O3 0.641337 0.761482 0.186146
O O4 0.593076 0.000000 0.200858
O O5 0.000000 0.226704 0.873731
O O6 0.949127 0.000000 0.884131
O O7 0.940067 0.232694 0.000000
O O8 0.952318 0.500000 0.500000
O O9 0.000000 0.262499 0.500000
O O10 0.279982 0.717454 0.500000
O O11 0.257632 0.500000 0.617985
O O12 0.295633 0.729992 0.693519
O O13 0.220228 0.764025 0.625372
O O14 0.680116 0.500000 0.802021
#
# Coordination Sequence:
#
# PCOD9522963 Si02
#       5
#    16  16   8  16  16
#     4  11  22  36  57  84 114 150 192 238 283 338
#     4   9  19  37  59  82 111 147 184 229 289 346
#     4   9  20  38  57  79 111 153 195 237 287 335
#     4   9  19  37  59  78 104 144 185 227 279 338
#     4  10  21  36  54  82 113 143 183 230 282 337
#
# _framework density 18.769345000000001
#
# number of rings (size 3 to 8) (size 9 to 14) (size 15 to 20)
#    0.000    2.333    0.000    2.667    1.556    4.000 
#    0.000    5.000    0.000    4.000    0.000    0.000 
#    0.000    0.000    0.000    0.000    0.000    0.000 
#
# Total GULP energy -200916.478255 kJ/mol
# GULP energy per Si atom -5581.013285 kJ/mol
# Density = 1.872663 g / cm^3
# Si number density = 18.769345 Si / 1000 Ang^3
#
#
#
# Elastic Constant Matrix: (Units=GPa)
#
#
# Indices 1 2 3 4 5 6 
#
# 1 119.2036 21.8197 53.5089 0.0000 0.0000 0.0000
# 2 21.8197 19.2432 20.4356 0.0000 0.0000 0.0000
# 3 53.5089 20.4356 112.8435 0.0000 0.0000 0.0000
# 4 0.0000 0.0000 0.0000 10.1005 0.0000 0.0000
# 5 0.0000 0.0000 0.0000 0.0000 1.7718 0.0000
# 6 0.0000 0.0000 0.0000 0.0000 0.0000 36.5998
#
#
#
# Elastic Compliance Matrix: (Units=1/GPa)
#
#
# Indices 1 2 3 4 5 6 
#
# 1 0.011853 -0.009251 -0.003945 0.000000 0.000000 0.000000
# 2 -0.009251 0.071560 -0.008573 0.000000 0.000000 0.000000
# 3 -0.003945 -0.008573 0.012285 0.000000 0.000000 0.000000
# 4 0.000000 0.000000 0.000000 0.099005 0.000000 0.000000
# 5 0.000000 0.000000 0.000000 0.000000 0.564402 0.000000
# 6 0.000000 0.000000 0.000000 0.000000 0.000000 0.027323
#
#
# Mechanical properties :
#
#
# Convention : Reuss Voigt Hill
#
# Bulk Modulus (GPa) = 19.17150 49.20209 34.18679
# Shear Modulus (GPa) = 5.90073 20.06281 12.98177
#
# Velocity S-wave (km/s) = 1.77500 3.27297 2.63277
# Velocity P-wave (km/s) = 3.79964 6.36821 5.24363
#
# Compressibility (1/GPa) = 0.05216075
#
# Stress axis : x y z
#
# Youngs Moduli (GPa) = 84.36444 13.97435 81.39866
#
# Poissons Ratio (x) = 0.12927 0.32115
# Poissons Ratio (y) = 0.78041 0.69781
# Poissons Ratio (z) = 0.33286 0.11980
#
# Static dielectric constant tensor:
#      x y z
#    x 1.611350 0.000000 0.000000 
#    y 0.000000 1.638510 0.000000 
#    z 0.000000 0.000000 1.654980 
# 
# From -- ./inp_files/31442.got.cif
#   From: 2010.05.17/outbox.cif.g08.bks.cpg/sg71_16_cif.got.tgz:31442.got - 2010.06.03 16:22:01.
