data_PCOD9522564
_publ_section_title
;
Structure prediction by ZEFSAII (Michael W. Deem and Ramdas Pophale) SiO2 
 PCOD9522564
Probable space group: I M M M
;
_chemical_formula_sum "Si O2"
_cell_formula_units_Z 88
_cell_length_a 18.961812
_cell_length_b 8.519959
_cell_length_c 29.037988
_cell_angle_alpha 90.000000
_cell_angle_beta 90.000000
_cell_angle_gamma 90.000000
_cell_volume 4691.199071
_symmetry_space_group_name_H-M "I M M M"
_symmetry_group_IT_number 71
_symmetry_cell_setting 'orthorhombic'
loop_
_space_group_symop_operation_xyz
x,y,z
-x,-y,z
x,-y,-z
-x,y,-z
-x,-y,-z
x,y,-z
-x,y,z
x,-y,z
1/2+x,1/2+y,1/2+z
1/2-x,1/2-y,1/2+z
1/2+x,1/2-y,1/2-z
1/2-x,1/2+y,1/2-z
1/2-x,1/2-y,1/2-z
1/2+x,1/2+y,1/2-z
1/2-x,1/2+y,1/2+z
1/2+x,1/2-y,1/2+z
loop_
_atom_site_type_symbol
_atom_site_label
_atom_site_fract_x
_atom_site_fract_y
_atom_site_fract_z
Si Si1 0.292136 0.312358 0.886425
Si Si2 0.811070 0.688587 0.716572
Si Si3 0.500000 0.311850 0.446603
Si Si4 0.420116 0.190911 0.709375
Si Si5 0.134495 0.310021 0.890056
Si Si6 0.578771 0.810723 0.946342
O O1 0.291517 0.500000 0.887135
O O2 0.303242 0.256819 0.834098
O O3 0.213911 0.259187 0.902834
O O4 0.356578 0.252682 0.917038
O O5 0.808447 0.500000 0.714075
O O6 0.750000 0.750000 0.750000
O O7 0.882038 0.736975 0.743570
O O8 0.500000 0.500000 0.445336
O O9 0.500000 0.260308 0.500000
O O10 0.429585 0.252301 0.420877
O O11 0.500000 0.247161 0.706582
O O12 0.379244 0.238863 0.663080
O O13 0.420859 0.000000 0.708713
O O14 0.131692 0.500000 0.891781
O O15 0.500000 0.760095 0.930779
O O16 0.580029 0.000000 0.944126
O O17 0.586165 0.765774 0.000000
#
# Coordination Sequence:
#
# PCOD9522564 Si02
#       6
#    16  16   8  16  16  16
#     4  11  23  38  59  91 125 156 199 248 294 355
#     4  11  21  35  56  84 118 155 196 243 292 345
#     4  11  25  41  57  85 121 151 191 251 308 353
#     4   9  17  33  57  80 105 145 195 238 276 330
#     4  10  20  38  61  82 110 154 201 239 287 352
#     4   9  20  41  66  89 116 154 198 243 300 368
#
# _framework density 18.758531000000001
#
# number of rings (size 3 to 8) (size 9 to 14) (size 15 to 20)
#    0.000    1.909    2.727    1.909    0.000    4.364 
#    0.000    6.364    0.000    0.000    0.000    0.000 
#    0.000    0.000    0.000    0.000    0.000    0.000 
#
# Total GULP energy -245565.109349 kJ/mol
# GULP energy per Si atom -5581.025212 kJ/mol
# Density = 1.871584 g / cm^3
# Si number density = 18.758531 Si / 1000 Ang^3
#
#
#
# Elastic Constant Matrix: (Units=GPa)
#
#
# Indices 1 2 3 4 5 6 
#
# 1 200.8911 38.5593 93.2059 0.0000 0.0000 0.0000
# 2 38.5593 23.2448 26.5367 0.0000 0.0000 0.0000
# 3 93.2059 26.5367 112.4558 0.0000 0.0000 0.0000
# 4 0.0000 0.0000 0.0000 30.6722 0.0000 0.0000
# 5 0.0000 0.0000 0.0000 0.0000 38.2983 0.0000
# 6 0.0000 0.0000 0.0000 0.0000 0.0000 29.3564
#
#
#
# Elastic Compliance Matrix: (Units=1/GPa)
#
#
# Indices 1 2 3 4 5 6 
#
# 1 0.009304 -0.009075 -0.005570 0.000000 0.000000 0.000000
# 2 -0.009075 0.067735 -0.008462 0.000000 0.000000 0.000000
# 3 -0.005570 -0.008462 0.015506 0.000000 0.000000 0.000000
# 4 0.000000 0.000000 0.000000 0.032603 0.000000 0.000000
# 5 0.000000 0.000000 0.000000 0.000000 0.026111 0.000000
# 6 0.000000 0.000000 0.000000 0.000000 0.000000 0.034064
#
#
# Mechanical properties :
#
#
# Convention : Reuss Voigt Hill
#
# Bulk Modulus (GPa) = 21.58403 72.57728 47.08066
# Shear Modulus (GPa) = 20.24459 31.55136 25.89797
#
# Velocity S-wave (km/s) = 3.28871 4.10564 3.71967
# Velocity P-wave (km/s) = 5.09432 7.82619 6.60308
#
# Compressibility (1/GPa) = 0.04633054
#
# Stress axis : x y z
#
# Youngs Moduli (GPa) = 107.48212 14.76343 64.49286
#
# Poissons Ratio (x) = 0.13398 0.35921
# Poissons Ratio (y) = 0.97541 0.54575
# Poissons Ratio (z) = 0.59865 0.12493
#
# Static dielectric constant tensor:
#      x y z
#    x 1.666810 0.000000 0.000000 
#    y 0.000000 1.644620 0.000000 
#    z 0.000000 0.000000 1.620670 
# 
# From -- ./inp_files/70366.got.cif
#   From: 2010.05.17/outbox.cif.g08.bks.cpg/sg71_36_cif.got.tgz:70366.got - 2010.06.03 16:22:01.
