data_PCOD9522400
_publ_section_title
;
Structure prediction by ZEFSAII (Michael W. Deem and Ramdas Pophale) SiO2 
 PCOD9522400
Probable space group: I M M M
;
_chemical_formula_sum "Si O2"
_cell_formula_units_Z 64
_cell_length_a 8.424742
_cell_length_b 24.466105
_cell_length_c 15.921423
_cell_angle_alpha 90.000000
_cell_angle_beta 90.000000
_cell_angle_gamma 90.000000
_cell_volume 3281.733618
_symmetry_space_group_name_H-M "I M M M"
_symmetry_group_IT_number 71
_symmetry_cell_setting 'orthorhombic'
loop_
_space_group_symop_operation_xyz
x,y,z
-x,-y,z
x,-y,-z
-x,y,-z
-x,-y,-z
x,y,-z
-x,y,z
x,-y,z
1/2+x,1/2+y,1/2+z
1/2-x,1/2-y,1/2+z
1/2+x,1/2-y,1/2-z
1/2-x,1/2+y,1/2-z
1/2-x,1/2-y,1/2-z
1/2+x,1/2+y,1/2-z
1/2-x,1/2+y,1/2+z
1/2+x,1/2-y,1/2+z
loop_
_atom_site_type_symbol
_atom_site_label
_atom_site_fract_x
_atom_site_fract_y
_atom_site_fract_z
Si Si1 0.190077 0.118242 0.158073
Si Si2 0.306727 0.500000 0.402126
Si Si3 0.306539 0.000000 0.597946
Si Si4 0.308263 0.881976 0.339750
Si Si5 0.692190 0.189345 0.500000
Si Si6 0.811465 0.687010 0.500000
O O1 0.248219 0.136471 0.249268
O O2 0.248911 0.155882 0.082431
O O3 0.000000 0.117964 0.156503
O O4 0.247407 0.055965 0.141056
O O5 0.500000 0.500000 0.400516
O O6 0.259426 0.500000 0.500000
O O7 0.253303 0.055892 0.641669
O O8 0.500000 0.000000 0.599094
O O9 0.259875 0.000000 0.500000
O O10 0.500000 0.882312 0.339094
O O11 0.257069 0.843628 0.416778
O O12 0.500000 0.190213 0.500000
O O13 0.753625 0.250721 0.500000
O O14 0.000000 0.685256 0.500000
#
# Coordination Sequence:
#
# PCOD9522400 Si02
#       6
#    16   8   8  16   8   8
#     4  11  22  39  63  89 121 158 193 236 295 356
#     4   9  17  34  60  87 117 155 192 228 283 356
#     4   9  15  30  59  92 124 158 192 235 291 346
#     4  10  20  36  61  92 123 156 197 241 288 347
#     4  10  22  41  63  85 116 160 202 242 293 346
#     4  12  26  43  62  85 114 150 201 256 297 344
#
# _framework density 19.501887
#
# number of rings (size 3 to 8) (size 9 to 14) (size 15 to 20)
#    0.000    1.750    2.500    2.625    0.000    2.000 
#    0.000    2.500    0.000    0.750    0.000    0.000 
#    0.000    0.000    0.000    0.000    0.000    0.000 
#
# Total GULP energy -178814.854801 kJ/mol
# GULP energy per Si atom -5587.964213 kJ/mol
# Density = 1.945750 g / cm^3
# Si number density = 19.501887 Si / 1000 Ang^3
#
#
#
# Elastic Constant Matrix: (Units=GPa)
#
#
# Indices 1 2 3 4 5 6 
#
# 1 27.9305 31.7909 34.0993 0.0000 0.0000 0.0000
# 2 31.7909 159.8170 96.0136 0.0000 0.0000 0.0000
# 3 34.0993 96.0136 208.0491 -0.0001 -0.0001 0.0001
# 4 0.0000 0.0000 -0.0001 -1.8243 0.0000 0.0000
# 5 0.0000 0.0000 -0.0001 0.0000 13.4053 0.0000
# 6 0.0000 0.0000 0.0001 0.0000 0.0000 -3.7284
#
#
#
# Elastic Compliance Matrix: (Units=1/GPa)
#
#
# Indices 1 2 3 4 5 6 
#
# 1 0.049726 -0.006911 -0.004961 0.000000 0.000000 0.000000
# 2 -0.006911 0.009618 -0.003306 0.000000 0.000000 0.000000
# 3 -0.004961 -0.003306 0.007145 0.000000 0.000000 0.000000
# 4 0.000000 0.000000 0.000000 -0.548156 -0.000001 0.000000
# 5 0.000000 0.000000 0.000000 -0.000001 0.074597 0.000000
# 6 0.000000 0.000000 0.000000 0.000000 0.000000 -0.268211
#
#
# Mechanical properties :
#
#
# Convention : Reuss Voigt Hill
#
# Bulk Modulus (GPa) = 27.67507 79.95604 53.81555
# Shear Modulus (GPa) = -7.90039 17.16337 4.63149
#
# Velocity S-wave (km/s) = -2.01492 2.96985 1.54274
# Velocity P-wave (km/s) = 2.96793 7.26967 5.55233
#
# Compressibility (1/GPa) = 0.03613360
#
# Stress axis : x y z
#
# Youngs Moduli (GPa) = 20.11026 103.97096 139.95303
#
# Poissons Ratio (x) = 0.71858 0.69424
# Poissons Ratio (y) = 0.13899 0.46267
# Poissons Ratio (z) = 0.09976 0.34372
#
# Static dielectric constant tensor:
#      x y z
#    x 1.665190 0.000000 0.000000 
#    y 0.000000 1.671130 0.000000 
#    z 0.000000 0.000000 1.661940 
# 
# From -- ./inp_files/5623.got.cif
#   From: 2010.05.17/outbox.cif.g08.bks.cpg/sg71_3_cif.got.tgz:5623.got - 2010.06.03 16:22:01.
