data_PCOD9522948
_publ_section_title
;
Structure prediction by ZEFSAII (Michael W. Deem and Ramdas Pophale) SiO2 
 PCOD9522948
Probable space group: I M M M
;
_chemical_formula_sum "Si O2"
_cell_formula_units_Z 72
_cell_length_a 9.298566
_cell_length_b 29.215128
_cell_length_c 14.226995
_cell_angle_alpha 90.000000
_cell_angle_beta 90.000000
_cell_angle_gamma 90.000000
_cell_volume 3864.888331
_symmetry_space_group_name_H-M "I M M M"
_symmetry_group_IT_number 71
_symmetry_cell_setting 'orthorhombic'
loop_
_space_group_symop_operation_xyz
x,y,z
-x,-y,z
x,-y,-z
-x,y,-z
-x,-y,-z
x,y,-z
-x,y,z
x,-y,z
1/2+x,1/2+y,1/2+z
1/2-x,1/2-y,1/2+z
1/2+x,1/2-y,1/2-z
1/2-x,1/2+y,1/2-z
1/2-x,1/2-y,1/2-z
1/2+x,1/2+y,1/2-z
1/2-x,1/2+y,1/2+z
1/2+x,1/2-y,1/2+z
loop_
_atom_site_type_symbol
_atom_site_label
_atom_site_fract_x
_atom_site_fract_y
_atom_site_fract_z
Si Si1 0.833797 0.627292 0.605144
Si Si2 0.328172 0.201851 0.738439
Si Si3 0.171986 0.946340 0.000000
Si Si4 0.662167 0.361308 0.887412
Si Si5 0.335337 0.051551 0.385424
O O1 0.830668 0.648853 0.500000
O O2 0.788199 0.664936 0.680372
O O3 0.739243 0.581713 0.588627
O O4 0.000000 0.614543 0.625001
O O5 0.500000 0.207210 0.739210
O O6 0.250000 0.250000 0.750000
O O7 0.269350 0.178084 0.644781
O O8 0.000000 0.942261 0.000000
O O9 0.210525 0.000000 0.000000
O O10 0.500000 0.353605 0.852600
O O11 0.727098 0.409553 0.852959
O O12 0.657548 0.363227 0.000000
O O13 0.333277 0.051357 0.500000
O O14 0.500000 0.062214 0.357787
O O15 0.300021 0.000000 0.354858
#
# Coordination Sequence:
#
# PCOD9522948 Si02
#       5
#    16  16   8  16  16
#     4   8  18  37  58  81 111 146 183 227 281 344
#     4  11  23  39  59  82 109 145 189 238 290 341
#     4   9  17  31  57  91 121 147 181 231 286 339
#     4  10  21  36  54  79 113 150 187 231 278 328
#     4   8  14  27  49  75 103 137 176 218 264 315
#
# _framework density 18.629258
#
# number of rings (size 3 to 8) (size 9 to 14) (size 15 to 20)
#    0.667    2.111    0.000    2.000    0.000    5.333 
#    0.000    5.556    0.000    1.333    0.000    0.000 
#    0.000    0.000    0.000    0.000    0.000    0.000 
#
# Total GULP energy -200470.168084 kJ/mol
# GULP energy per Si atom -5568.615780 kJ/mol
# Density = 1.858686 g / cm^3
# Si number density = 18.629258 Si / 1000 Ang^3
#
#
#
# Elastic Constant Matrix: (Units=GPa)
#
#
# Indices 1 2 3 4 5 6 
#
# 1 87.3475 78.7087 24.8532 0.0000 0.0000 0.0000
# 2 78.7087 138.3317 31.7449 0.0000 0.0000 0.0000
# 3 24.8532 31.7449 27.4914 0.0001 0.0000 0.0000
# 4 0.0000 0.0000 0.0001 24.7436 0.0000 0.0000
# 5 0.0000 0.0000 0.0000 0.0000 17.4700 0.0000
# 6 0.0000 0.0000 0.0000 0.0000 0.0000 37.9589
#
#
#
# Elastic Compliance Matrix: (Units=1/GPa)
#
#
# Indices 1 2 3 4 5 6 
#
# 1 0.024825 -0.012211 -0.008343 0.000000 0.000000 0.000000
# 2 -0.012211 0.015841 -0.007253 0.000000 0.000000 0.000000
# 3 -0.008343 -0.007253 0.052293 0.000000 0.000000 0.000000
# 4 0.000000 0.000000 0.000000 0.040415 0.000000 0.000000
# 5 0.000000 0.000000 0.000000 0.000000 0.057241 0.000000
# 6 0.000000 0.000000 0.000000 0.000000 0.000000 0.026344
#
#
# Mechanical properties :
#
#
# Convention : Reuss Voigt Hill
#
# Bulk Modulus (GPa) = 26.77698 58.19825 42.48762
# Shear Modulus (GPa) = 17.54247 23.89208 20.71728
#
# Velocity S-wave (km/s) = 3.07198 3.58509 3.33841
# Velocity P-wave (km/s) = 5.19496 6.96026 6.14137
#
# Compressibility (1/GPa) = 0.03734551
#
# Stress axis : x y z
#
# Youngs Moduli (GPa) = 40.28117 63.12644 19.12294
#
# Poissons Ratio (x) = 0.77082 0.15955
# Poissons Ratio (y) = 0.49186 0.13870
# Poissons Ratio (z) = 0.33607 0.45787
#
# Static dielectric constant tensor:
#      x y z
#    x 1.643960 0.000000 0.000000 
#    y 0.000000 1.670290 0.000000 
#    z 0.000000 0.000000 1.694780 
# 
# From -- ./inp_files/31666.got.cif
#   From: 2010.05.17/outbox.cif.g08.bks.cpg/sg71_16_cif.got.tgz:31666.got - 2010.06.03 16:22:01.
