data_PCOD9522025
_publ_section_title
;
Structure prediction by ZEFSAII (Michael W. Deem and Ramdas Pophale) SiO2 
 PCOD9522025
Probable space group: I M M M
;
_chemical_formula_sum "Si O2"
_cell_formula_units_Z 104
_cell_length_a 22.081462
_cell_length_b 24.982814
_cell_length_c 8.420864
_cell_angle_alpha 90.000000
_cell_angle_beta 90.000000
_cell_angle_gamma 90.000000
_cell_volume 4645.429060
_symmetry_space_group_name_H-M "I M M M"
_symmetry_group_IT_number 71
_symmetry_cell_setting 'orthorhombic'
loop_
_space_group_symop_operation_xyz
x,y,z
-x,-y,z
x,-y,-z
-x,y,-z
-x,-y,-z
x,y,-z
-x,y,z
x,-y,z
1/2+x,1/2+y,1/2+z
1/2-x,1/2-y,1/2+z
1/2+x,1/2-y,1/2-z
1/2-x,1/2+y,1/2-z
1/2-x,1/2-y,1/2-z
1/2+x,1/2+y,1/2-z
1/2-x,1/2+y,1/2+z
1/2+x,1/2-y,1/2+z
loop_
_atom_site_type_symbol
_atom_site_label
_atom_site_fract_x
_atom_site_fract_y
_atom_site_fract_z
Si Si1 0.570909 0.660630 0.679867
Si Si2 0.796367 0.294903 0.687986
Si Si3 0.568695 0.221966 0.188010
Si Si4 0.232388 0.416883 0.684903
Si Si5 0.071021 0.438736 0.500000
Si Si6 0.109684 0.561704 0.829073
Si Si7 0.861284 0.941962 0.688677
O O1 0.593769 0.671148 0.500000
O O2 0.500000 0.648701 0.670459
O O3 0.576018 0.714213 0.783259
O O4 0.602846 0.609401 0.752563
O O5 0.802871 0.285164 0.500000
O O6 0.750000 0.250000 0.750000
O O7 0.865763 0.297863 0.753866
O O8 0.766984 0.353074 0.709743
O O9 0.500000 0.207919 0.251109
O O10 0.566707 0.209868 0.000000
O O11 0.215586 0.427067 0.500000
O O12 0.181410 0.439214 0.801962
O O13 0.297059 0.440135 0.724095
O O14 0.096910 0.500000 0.500000
O O15 0.087456 0.411541 0.333808
O O16 0.000000 0.443586 0.500000
O O17 0.086759 0.500000 0.828568
O O18 0.093515 0.585218 0.000000
O O19 0.851683 0.937952 0.500000
O O20 0.890613 0.000000 0.721425
#
# Coordination Sequence:
#
# PCOD9522025 Si02
#       7
#    16  16  16  16   8  16  16
#     4  10  21  37  58  85 116 150 189 235 291 355
#     4  10  22  37  56  84 117 150 194 243 299 360
#     4   9  18  36  61  85 113 152 197 242 291 351
#     4  11  22  37  57  82 117 152 193 242 302 359
#     4   9  18  34  56  82 112 148 189 235 287 339
#     4  10  20  35  57  84 114 151 195 240 291 353
#     4  11  24  39  56  82 114 151 198 246 293 351
#
# _framework density 22.387597
#
# number of rings (size 3 to 8) (size 9 to 14) (size 15 to 20)
#    0.000    1.923    0.769    2.769    0.000    8.923 
#    0.000    3.846    0.000    0.000    0.000    0.000 
#    0.000    0.000    0.000    0.000    0.000    0.000 
#
# Total GULP energy -290282.065819 kJ/mol
# GULP energy per Si atom -5582.347420 kJ/mol
# Density = 2.233664 g / cm^3
# Si number density = 22.387597 Si / 1000 Ang^3
#
#
#
# Elastic Constant Matrix: (Units=GPa)
#
#
# Indices 1 2 3 4 5 6 
#
# 1 49.3927 32.3716 7.3463 0.0000 0.0000 0.0000
# 2 32.3716 69.4646 13.0584 0.0000 0.0000 0.0000
# 3 7.3463 13.0584 107.1679 0.0000 0.0000 0.0000
# 4 0.0000 0.0000 0.0000 7.9915 0.0000 0.0000
# 5 0.0000 0.0000 0.0000 0.0000 11.2262 0.0000
# 6 0.0000 0.0000 0.0000 0.0000 0.0000 19.3974
#
#
#
# Elastic Compliance Matrix: (Units=1/GPa)
#
#
# Indices 1 2 3 4 5 6 
#
# 1 0.029162 -0.013524 -0.000351 0.000000 0.000000 0.000000
# 2 -0.013524 0.021005 -0.001632 0.000000 0.000000 0.000000
# 3 -0.000351 -0.001632 0.009554 0.000000 0.000000 0.000000
# 4 0.000000 0.000000 0.000000 0.125133 0.000000 0.000000
# 5 0.000000 0.000000 0.000000 0.000000 0.089077 0.000000
# 6 0.000000 0.000000 0.000000 0.000000 0.000000 0.051553
#
#
# Mechanical properties :
#
#
# Convention : Reuss Voigt Hill
#
# Bulk Modulus (GPa) = 34.83586 36.84199 35.83893
# Shear Modulus (GPa) = 13.65870 19.27295 16.46583
#
# Velocity S-wave (km/s) = 2.47270 2.93725 2.71493
# Velocity P-wave (km/s) = 4.87303 5.29107 5.08635
#
# Compressibility (1/GPa) = 0.02870605
#
# Stress axis : x y z
#
# Youngs Moduli (GPa) = 34.29177 47.60777 104.66678
#
# Poissons Ratio (x) = 0.64383 0.03675
# Poissons Ratio (y) = 0.46375 0.17086
# Poissons Ratio (z) = 0.01204 0.07772
#
# Static dielectric constant tensor:
#      x y z
#    x 1.829380 0.000000 0.000000 
#    y 0.000000 1.867860 0.000000 
#    z 0.000000 0.000000 1.849480 
# 
# From -- ./inp_files/11090.got.cif
#   From: 2010.05.17/outbox.cif.g08.bks.cpg/sg71_6_cif.got.tgz:11090.got - 2010.06.03 16:22:01.
