data_PCOD9522412
_publ_section_title
;
Structure prediction by ZEFSAII (Michael W. Deem and Ramdas Pophale) SiO2 
 PCOD9522412
Probable space group: I M M M
;
_chemical_formula_sum "Si O2"
_cell_formula_units_Z 108
_cell_length_a 14.418140
_cell_length_b 15.309447
_cell_length_c 24.558410
_cell_angle_alpha 90.000000
_cell_angle_beta 90.000000
_cell_angle_gamma 90.000000
_cell_volume 5420.869937
_symmetry_space_group_name_H-M "I M M M"
_symmetry_group_IT_number 71
_symmetry_cell_setting 'orthorhombic'
loop_
_space_group_symop_operation_xyz
x,y,z
-x,-y,z
x,-y,-z
-x,y,-z
-x,-y,-z
x,y,-z
-x,y,z
x,-y,z
1/2+x,1/2+y,1/2+z
1/2-x,1/2-y,1/2+z
1/2+x,1/2-y,1/2-z
1/2-x,1/2+y,1/2-z
1/2-x,1/2-y,1/2-z
1/2+x,1/2+y,1/2-z
1/2-x,1/2+y,1/2+z
1/2+x,1/2-y,1/2+z
loop_
_atom_site_type_symbol
_atom_site_label
_atom_site_fract_x
_atom_site_fract_y
_atom_site_fract_z
Si Si1 0.401065 0.218380 0.814404
Si Si2 0.863448 0.398776 0.791814
Si Si3 0.354468 0.599720 0.771573
Si Si4 0.398315 0.397145 0.351854
Si Si5 0.605556 0.161039 0.415326
Si Si6 0.122299 0.500000 0.000000
Si Si7 0.611685 0.894004 0.000000
Si Si8 0.242077 0.692222 0.590232
O O1 0.500000 0.192559 0.839968
O O2 0.392315 0.163302 0.758424
O O3 0.402141 0.321635 0.802720
O O4 0.314570 0.204632 0.853848
O O5 0.894108 0.500000 0.784844
O O6 0.752075 0.400346 0.789173
O O7 0.891970 0.362606 0.850837
O O8 0.389823 0.500000 0.778199
O O9 0.362759 0.625785 0.708245
O O10 0.500000 0.357419 0.359808
O O11 0.407192 0.500000 0.351123
O O12 0.324632 0.374169 0.397051
O O13 0.500000 0.193997 0.427569
O O14 0.618224 0.076061 0.452453
O O15 0.695513 0.223230 0.425652
O O16 0.666461 0.848092 0.049757
O O17 0.500000 0.877703 0.000000
O O18 0.623849 0.000000 0.000000
#
# Coordination Sequence:
#
# PCOD9522412 Si02
#       8
#    16  16  16  16  16   4   8  16
#     4  12  24  38  62  95 132 175 221 274 338 402
#     4  11  22  39  63  97 140 183 225 278 342 405
#     4  10  20  38  60  89 131 179 221 264 329 401
#     4  10  20  36  62  94 133 177 213 258 326 395
#     4  12  24  41  67  96 134 179 227 280 340 406
#     4  12  27  46  66  94 127 178 235 280 342 408
#     4  11  27  51  76  97 123 168 218 272 338 402
#     4  12  24  44  66  97 129 168 218 281 332 400
#
# _framework density 19.923000999999999
#
# number of rings (size 3 to 8) (size 9 to 14) (size 15 to 20)
#    0.000    0.815    3.704    4.667    0.000    2.370 
#    0.000    1.111    0.000    2.667    0.000    1.556 
#    0.000    0.000    0.000    0.000    0.000    0.000 
#
# Total GULP energy -300695.939186 kJ/mol
# GULP energy per Si atom -5568.443318 kJ/mol
# Density = 1.987766 g / cm^3
# Si number density = 19.923001 Si / 1000 Ang^3
#
#
#
# Elastic Constant Matrix: (Units=GPa)
#
#
# Indices 1 2 3 4 5 6 
#
# 1 163.0035 49.5417 51.8268 0.0000 0.0000 0.0000
# 2 49.5417 92.4901 46.8818 0.0000 0.0000 0.0000
# 3 51.8268 46.8818 104.5775 0.0000 0.0000 0.0000
# 4 0.0000 0.0000 0.0000 28.5485 0.0000 0.0000
# 5 0.0000 0.0000 0.0000 0.0000 52.2709 0.0000
# 6 0.0000 0.0000 0.0000 0.0000 0.0000 -38.2715
#
#
#
# Elastic Compliance Matrix: (Units=1/GPa)
#
#
# Indices 1 2 3 4 5 6 
#
# 1 0.007835 -0.002884 -0.002590 0.000000 0.000000 0.000000
# 2 -0.002884 0.015053 -0.005319 0.000000 0.000000 0.000000
# 3 -0.002590 -0.005319 0.013230 0.000000 0.000000 0.000000
# 4 0.000000 0.000000 0.000000 0.035028 0.000000 0.000000
# 5 0.000000 0.000000 0.000000 0.000000 0.019131 0.000000
# 6 0.000000 0.000000 0.000000 0.000000 0.000000 -0.026129
#
#
# Mechanical properties :
#
#
# Convention : Reuss Voigt Hill
#
# Bulk Modulus (GPa) = 68.81189 72.95239 70.88214
# Shear Modulus (GPa) = 55.20136 22.63099 38.91618
#
# Velocity S-wave (km/s) = 5.26949 3.37400 4.42444
# Velocity P-wave (km/s) = 8.46388 7.20244 7.85851
#
# Compressibility (1/GPa) = 0.01453237
#
# Stress axis : x y z
#
# Youngs Moduli (GPa) = 127.63567 66.43303 75.58413
#
# Poissons Ratio (x) = 0.19158 0.19576
# Poissons Ratio (y) = 0.36808 0.40203
# Poissons Ratio (z) = 0.33057 0.35335
#
# Static dielectric constant tensor:
#      x y z
#    x 1.842850 0.000000 0.000000 
#    y 0.000000 1.730790 0.000000 
#    z 0.000000 0.000000 1.700240 
# 
# From -- ./inp_files/59971.got.cif
#   From: 2010.05.17/outbox.cif.g08.bks.cpg/sg71_30_cif.got.tgz:59971.got - 2010.06.03 16:22:01.
