data_PCOD9522686
_publ_section_title
;
Structure prediction by ZEFSAII (Michael W. Deem and Ramdas Pophale) SiO2 
 PCOD9522686
Probable space group: I M M M
;
_chemical_formula_sum "Si O2"
_cell_formula_units_Z 104
_cell_length_a 33.476773
_cell_length_b 13.973364
_cell_length_c 13.443461
_cell_angle_alpha 90.000000
_cell_angle_beta 90.000000
_cell_angle_gamma 90.000000
_cell_volume 6288.624327
_symmetry_space_group_name_H-M "I M M M"
_symmetry_group_IT_number 71
_symmetry_cell_setting 'orthorhombic'
loop_
_space_group_symop_operation_xyz
x,y,z
-x,-y,z
x,-y,-z
-x,y,-z
-x,-y,-z
x,y,-z
-x,y,z
x,-y,z
1/2+x,1/2+y,1/2+z
1/2-x,1/2-y,1/2+z
1/2+x,1/2-y,1/2-z
1/2-x,1/2+y,1/2-z
1/2-x,1/2-y,1/2-z
1/2+x,1/2+y,1/2-z
1/2-x,1/2+y,1/2+z
1/2+x,1/2-y,1/2+z
loop_
_atom_site_type_symbol
_atom_site_label
_atom_site_fract_x
_atom_site_fract_y
_atom_site_fract_z
Si Si1 0.548170 0.889398 0.385686
Si Si2 0.276699 0.114202 0.114567
Si Si3 0.000000 0.883815 0.379475
Si Si4 0.345040 0.258345 0.883063
Si Si5 0.198635 0.885047 0.229499
Si Si6 0.121328 0.885677 0.109651
Si Si7 0.927379 0.776268 0.732283
O O1 0.560900 0.864443 0.500000
O O2 0.500000 0.888078 0.386529
O O3 0.561009 0.816360 0.298805
O O4 0.560692 0.000000 0.366956
O O5 0.319029 0.163015 0.134522
O O6 0.241899 0.145475 0.189890
O O7 0.279829 0.000000 0.120658
O O8 0.265276 0.138103 0.000000
O O9 0.962106 0.827760 0.331335
O O10 0.000000 0.874677 0.500000
O O11 0.000000 0.000000 0.358018
O O12 0.318195 0.339283 0.829850
O O13 0.388888 0.253861 0.835817
O O14 0.348292 0.275639 0.000000
O O15 0.165142 0.856916 0.148158
O O16 0.198876 0.000000 0.237444
O O17 0.088599 0.851493 0.186768
O O18 0.121188 0.000000 0.106494
O O19 0.113707 0.847501 0.000000
#
# Coordination Sequence:
#
# PCOD9522686 Si02
#       7
#    16  16   8  16  16  16  16
#     4   9  18  34  57  82 104 129 165 210 264 323
#     4   9  17  31  51  74  99 128 164 207 256 307
#     4  11  24  40  56  73  98 136 180 221 260 308
#     4  10  21  33  48  73 103 136 174 215 255 299
#     4   9  17  30  50  72  98 134 171 205 247 303
#     4   9  17  29  47  75 106 131 160 203 255 309
#     4  11  20  35  54  75 102 137 175 215 260 310
#
# _framework density 16.537797999999999
#
# number of rings (size 3 to 8) (size 9 to 14) (size 15 to 20)
#    0.000    2.385    0.769    2.769    0.000    3.385 
#    0.000    0.000    0.000    4.615    0.000    0.000 
#    0.000    0.000    0.000    0.000    0.000    0.000 
#
# Total GULP energy -289535.402087 kJ/mol
# GULP energy per Si atom -5567.988502 kJ/mol
# Density = 1.650016 g / cm^3
# Si number density = 16.537798 Si / 1000 Ang^3
#
#
#
# Elastic Constant Matrix: (Units=GPa)
#
#
# Indices 1 2 3 4 5 6 
#
# 1 113.5159 45.5499 74.5365 0.0000 0.0000 0.0000
# 2 45.5499 67.6404 54.0307 0.0000 0.0000 0.0000
# 3 74.5365 54.0307 131.9058 0.0000 0.0000 0.0000
# 4 0.0000 0.0000 0.0000 27.8446 0.0000 0.0000
# 5 0.0000 0.0000 0.0000 0.0000 16.4469 0.0000
# 6 0.0000 0.0000 0.0000 0.0000 0.0000 21.1896
#
#
#
# Elastic Compliance Matrix: (Units=1/GPa)
#
#
# Indices 1 2 3 4 5 6 
#
# 1 0.015051 -0.004967 -0.006470 0.000000 0.000000 0.000000
# 2 -0.004967 0.023613 -0.006866 0.000000 0.000000 0.000000
# 3 -0.006470 -0.006866 0.014050 0.000000 0.000000 0.000000
# 4 0.000000 0.000000 0.000000 0.035914 0.000000 0.000000
# 5 0.000000 0.000000 0.000000 0.000000 0.060802 0.000000
# 6 0.000000 0.000000 0.000000 0.000000 0.000000 0.047193
#
#
# Mechanical properties :
#
#
# Convention : Reuss Voigt Hill
#
# Bulk Modulus (GPa) = 62.08163 73.47735 67.77949
# Shear Modulus (GPa) = 20.95582 22.35921 21.65751
#
# Velocity S-wave (km/s) = 3.56356 3.68095 3.62273
# Velocity P-wave (km/s) = 7.38598 7.91153 7.65327
#
# Compressibility (1/GPa) = 0.01610782
#
# Stress axis : x y z
#
# Youngs Moduli (GPa) = 66.44091 42.34943 71.17637
#
# Poissons Ratio (x) = 0.21035 0.46053
# Poissons Ratio (y) = 0.33002 0.48866
# Poissons Ratio (z) = 0.42989 0.29075
#
# Static dielectric constant tensor:
#      x y z
#    x 1.545170 0.000000 0.000000 
#    y 0.000000 1.559580 0.000000 
#    z 0.000000 0.000000 1.563910 
# 
# From -- ./inp_files/22684.got.cif
#   From: 2010.05.17/outbox.cif.g08.bks.cpg/sg71_12_cif.got.tgz:22684.got - 2010.06.03 16:22:01.
