data_PCOD9522947
_publ_section_title
;
Structure prediction by ZEFSAII (Michael W. Deem and Ramdas Pophale) SiO2 
 PCOD9522947
Probable space group: I M M M
;
_chemical_formula_sum "Si O2"
_cell_formula_units_Z 104
_cell_length_a 28.380841
_cell_length_b 8.813469
_cell_length_c 21.465425
_cell_angle_alpha 90.000000
_cell_angle_beta 90.000000
_cell_angle_gamma 90.000000
_cell_volume 5369.225369
_symmetry_space_group_name_H-M "I M M M"
_symmetry_group_IT_number 71
_symmetry_cell_setting 'orthorhombic'
loop_
_space_group_symop_operation_xyz
x,y,z
-x,-y,z
x,-y,-z
-x,y,-z
-x,-y,-z
x,y,-z
-x,y,z
x,-y,z
1/2+x,1/2+y,1/2+z
1/2-x,1/2-y,1/2+z
1/2+x,1/2-y,1/2-z
1/2-x,1/2+y,1/2-z
1/2-x,1/2-y,1/2-z
1/2+x,1/2+y,1/2-z
1/2-x,1/2+y,1/2+z
1/2+x,1/2-y,1/2+z
loop_
_atom_site_type_symbol
_atom_site_label
_atom_site_fract_x
_atom_site_fract_y
_atom_site_fract_z
Si Si1 0.724853 0.679592 0.568596
Si Si2 0.301227 0.680003 0.154775
Si Si3 0.554744 0.822324 0.180857
Si Si4 0.625627 0.180119 0.598758
Si Si5 0.894704 0.179865 0.572314
Si Si6 0.366182 0.319351 0.734771
Si Si7 0.444811 0.317856 0.500000
O O1 0.746840 0.710001 0.500000
O O2 0.716658 0.500000 0.573599
O O3 0.757460 0.733812 0.625091
O O4 0.675159 0.764074 0.570917
O O5 0.291139 0.500000 0.156725
O O6 0.344953 0.703451 0.107269
O O7 0.321125 0.726626 0.222586
O O8 0.500000 0.797614 0.194188
O O9 0.567218 0.775298 0.110430
O O10 0.588360 0.720881 0.223704
O O11 0.565754 0.000000 0.190623
O O12 0.628075 0.234256 0.670048
O O13 0.583121 0.254708 0.559991
O O14 0.621593 0.000000 0.594605
O O15 0.891781 0.219827 0.500000
O O16 0.905454 0.000000 0.577466
O O17 0.363177 0.500000 0.724708
O O18 0.441813 0.500000 0.500000
O O19 0.500000 0.274616 0.500000
#
# Coordination Sequence:
#
# PCOD9522947 Si02
#       7
#    16  16  16  16  16  16   8
#     4  11  23  38  60  89 125 165 204 248 297 357
#     4   9  19  36  58  85 117 157 204 250 299 354
#     4  10  21  36  54  79 112 149 193 247 302 359
#     4  12  25  42  67  95 124 159 197 245 300 355
#     4   9  18  33  53  78 111 153 200 250 298 353
#     4  10  22  41  63  86 118 158 200 251 304 364
#     4  11  25  47  73  99 129 163 201 249 306 371
#
# _framework density 19.369648000000002
#
# number of rings (size 3 to 8) (size 9 to 14) (size 15 to 20)
#    0.000    1.769    0.769    4.385    0.000    8.308 
#    0.000    1.538    0.000    0.000    0.000    0.000 
#    0.000    0.000    0.000    0.000    0.000    0.000 
#
# Total GULP energy -290478.697830 kJ/mol
# GULP energy per Si atom -5586.128804 kJ/mol
# Density = 1.932556 g / cm^3
# Si number density = 19.369648 Si / 1000 Ang^3
#
#
#
# Elastic Constant Matrix: (Units=GPa)
#
#
# Indices 1 2 3 4 5 6 
#
# 1 95.4802 55.0173 46.7245 0.0000 0.0000 0.0000
# 2 55.0173 69.0883 43.3204 0.0000 0.0000 0.0000
# 3 46.7245 43.3204 136.1408 0.0000 0.0000 0.0000
# 4 0.0000 0.0000 0.0000 24.1259 0.0000 0.0000
# 5 0.0000 0.0000 0.0000 0.0000 64.3013 0.0000
# 6 0.0000 0.0000 0.0000 0.0000 0.0000 32.7285
#
#
#
# Elastic Compliance Matrix: (Units=1/GPa)
#
#
# Indices 1 2 3 4 5 6 
#
# 1 0.019882 -0.014434 -0.002231 0.000000 0.000000 0.000000
# 2 -0.014434 0.028561 -0.004134 0.000000 0.000000 0.000000
# 3 -0.002231 -0.004134 0.009426 0.000000 0.000000 0.000000
# 4 0.000000 0.000000 0.000000 0.041449 0.000000 0.000000
# 5 0.000000 0.000000 0.000000 0.000000 0.015552 0.000000
# 6 0.000000 0.000000 0.000000 0.000000 0.000000 0.030554
#
#
# Mechanical properties :
#
#
# Convention : Reuss Voigt Hill
#
# Bulk Modulus (GPa) = 61.45774 65.64817 63.55296
# Shear Modulus (GPa) = 25.98119 34.60761 30.29440
#
# Velocity S-wave (km/s) = 3.66640 4.23151 3.95905
# Velocity P-wave (km/s) = 7.05132 7.60527 7.33353
#
# Compressibility (1/GPa) = 0.01627134
#
# Stress axis : x y z
#
# Youngs Moduli (GPa) = 50.29632 35.01291 106.08422
#
# Poissons Ratio (x) = 0.50538 0.23665
# Poissons Ratio (y) = 0.72598 0.43858
# Poissons Ratio (z) = 0.11220 0.14475
#
# Static dielectric constant tensor:
#      x y z
#    x 1.657400 0.000000 0.000000 
#    y 0.000000 1.650840 0.000000 
#    z 0.000000 0.000000 1.705080 
# 
# From -- ./inp_files/56247.got.cif
#   From: 2010.05.17/outbox.cif.g08.bks.cpg/sg71_29_cif.got.tgz:56247.got - 2010.06.03 16:22:01.
