data_PCOD9522630
_publ_section_title
;
Structure prediction by ZEFSAII (Michael W. Deem and Ramdas Pophale) SiO2 
 PCOD9522630
Probable space group: I M M M
;
_chemical_formula_sum "Si O2"
_cell_formula_units_Z 56
_cell_length_a 27.846037
_cell_length_b 13.887363
_cell_length_c 7.710329
_cell_angle_alpha 90.000000
_cell_angle_beta 90.000000
_cell_angle_gamma 90.000000
_cell_volume 2981.646091
_symmetry_space_group_name_H-M "I M M M"
_symmetry_group_IT_number 71
_symmetry_cell_setting 'orthorhombic'
loop_
_space_group_symop_operation_xyz
x,y,z
-x,-y,z
x,-y,-z
-x,y,-z
-x,-y,-z
x,y,-z
-x,y,z
x,-y,z
1/2+x,1/2+y,1/2+z
1/2-x,1/2-y,1/2+z
1/2+x,1/2-y,1/2-z
1/2-x,1/2+y,1/2-z
1/2-x,1/2-y,1/2-z
1/2+x,1/2+y,1/2-z
1/2-x,1/2+y,1/2+z
1/2+x,1/2-y,1/2+z
loop_
_atom_site_type_symbol
_atom_site_label
_atom_site_fract_x
_atom_site_fract_y
_atom_site_fract_z
Si Si1 0.665049 0.115359 0.000000
Si Si2 0.898879 0.704813 0.801296
Si Si3 0.500000 0.112168 0.209092
Si Si4 0.774391 0.116499 0.000000
Si Si5 0.151189 0.113248 0.296395
O O1 0.636526 0.151768 0.168042
O O2 0.719876 0.151625 0.000000
O O3 0.664862 0.000000 0.000000
O O4 0.952161 0.664870 0.772949
O O5 0.892557 0.817457 0.755439
O O6 0.884781 0.688909 0.000000
O O7 0.500000 0.000000 0.263670
O O8 0.500000 0.113986 0.000000
O O9 0.804900 0.142798 0.170732
O O10 0.771799 0.000000 0.000000
O O11 0.162128 0.125997 0.500000
O O12 0.141420 0.000000 0.267003
#
# Coordination Sequence:
#
# PCOD9522630 Si02
#       5
#     8  16   8   8  16
#     4  11  24  41  59  88 127 163 209 260 298 356
#     4  12  24  40  63  94 121 162 207 250 305 370
#     4  11  23  43  68  88 122 163 200 254 308 356
#     4   9  20  38  61  88 123 164 205 252 306 356
#     4  10  20  39  64  89 123 164 203 251 306 361
#
# _framework density 18.781569999999999
#
# number of rings (size 3 to 8) (size 9 to 14) (size 15 to 20)
#    0.000    1.286    4.286    1.286    0.000    5.143 
#    0.000    3.571    0.000    4.286    0.000    0.000 
#    0.000    0.000    0.000    0.000    0.000    0.000 
#
# Total GULP energy -156400.055878 kJ/mol
# GULP energy per Si atom -5585.716281 kJ/mol
# Density = 1.873882 g / cm^3
# Si number density = 18.781570 Si / 1000 Ang^3
#
#
#
# Elastic Constant Matrix: (Units=GPa)
#
#
# Indices 1 2 3 4 5 6 
#
# 1 149.4603 78.5605 66.8049 0.0000 0.0000 0.0000
# 2 78.5605 107.4127 57.5641 0.0000 0.0000 0.0000
# 3 66.8049 57.5641 167.0588 0.0000 0.0000 0.0000
# 4 0.0000 0.0000 0.0000 21.4729 0.0000 0.0000
# 5 0.0000 0.0000 0.0000 0.0000 4.6538 0.0000
# 6 0.0000 0.0000 0.0000 0.0000 0.0000 33.1914
#
#
#
# Elastic Compliance Matrix: (Units=1/GPa)
#
#
# Indices 1 2 3 4 5 6 
#
# 1 0.011426 -0.007246 -0.002072 0.000000 0.000000 0.000000
# 2 -0.007246 0.016014 -0.002620 0.000000 0.000000 0.000000
# 3 -0.002072 -0.002620 0.007717 0.000000 0.000000 0.000000
# 4 0.000000 0.000000 0.000000 0.046570 0.000000 0.000000
# 5 0.000000 0.000000 0.000000 0.000000 0.214877 0.000000
# 6 0.000000 0.000000 0.000000 0.000000 0.000000 0.030128
#
#
# Mechanical properties :
#
#
# Convention : Reuss Voigt Hill
#
# Bulk Modulus (GPa) = 88.65414 92.19896 90.42655
# Shear Modulus (GPa) = 14.10956 26.59712 20.35334
#
# Velocity S-wave (km/s) = 2.74386 3.76723 3.29551
# Velocity P-wave (km/s) = 7.57255 8.25345 7.92032
#
# Compressibility (1/GPa) = 0.01127979
#
# Stress axis : x y z
#
# Youngs Moduli (GPa) = 87.52176 62.44573 129.57637
#
# Poissons Ratio (x) = 0.45249 0.26851
# Poissons Ratio (y) = 0.63419 0.33953
# Poissons Ratio (z) = 0.18136 0.16363
#
# Static dielectric constant tensor:
#      x y z
#    x 1.619150 0.000000 0.000000 
#    y 0.000000 1.678110 0.000000 
#    z 0.000000 0.000000 1.648060 
# 
# From -- ./inp_files/11914.got.cif
#   From: 2010.05.17/outbox.cif.g08.bks.cpg/sg71_6_cif.got.tgz:11914.got - 2010.06.03 16:22:01.
