data_PCOD9522871
_publ_section_title
;
Structure prediction by ZEFSAII (Michael W. Deem and Ramdas Pophale) SiO2 
 PCOD9522871
Probable space group: I M M M
;
_chemical_formula_sum "Si O2"
_cell_formula_units_Z 48
_cell_length_a 5.243163
_cell_length_b 14.978351
_cell_length_c 32.790148
_cell_angle_alpha 90.000000
_cell_angle_beta 90.000000
_cell_angle_gamma 90.000000
_cell_volume 2575.139377
_symmetry_space_group_name_H-M "I M M M"
_symmetry_group_IT_number 71
_symmetry_cell_setting 'orthorhombic'
loop_
_space_group_symop_operation_xyz
x,y,z
-x,-y,z
x,-y,-z
-x,y,-z
-x,-y,-z
x,y,-z
-x,y,z
x,-y,z
1/2+x,1/2+y,1/2+z
1/2-x,1/2-y,1/2+z
1/2+x,1/2-y,1/2-z
1/2-x,1/2+y,1/2-z
1/2-x,1/2-y,1/2-z
1/2+x,1/2+y,1/2-z
1/2-x,1/2+y,1/2+z
1/2+x,1/2-y,1/2+z
loop_
_atom_site_type_symbol
_atom_site_label
_atom_site_fract_x
_atom_site_fract_y
_atom_site_fract_z
Si Si1 0.000000 0.720785 0.951456
Si Si2 0.500000 0.666048 0.093945
Si Si3 0.500000 0.810793 0.759658
Si Si4 0.500000 0.500000 0.154174
Si Si5 0.500000 0.000000 0.289367
Si Si6 0.000000 0.348363 0.644507
Si Si7 0.500000 0.403336 0.401119
O O1 0.750162 0.672388 0.933921
O O2 0.000000 0.821016 0.932560
O O3 0.000000 0.723764 0.000000
O O4 0.500000 0.583711 0.124154
O O5 0.500000 0.751897 0.123240
O O6 0.750000 0.750000 0.750000
O O7 0.500000 0.836107 0.807303
O O8 0.500000 0.906018 0.735723
O O9 0.251187 0.500000 0.182572
O O10 0.252609 0.395077 0.627466
O O11 0.500000 0.500000 0.421828
#
# Coordination Sequence:
#
# PCOD9522871 Si02
#       7
#     8   8   8   4   4   8   8
#     4  10  21  39  60  89 122 150 195 247 302 365
#     4  10  21  39  63  86 113 166 192 246 308 354
#     4  12  25  42  62  90 126 165 208 263 319 361
#     4  12  24  44  65  86 124 152 222 254 297 384
#     4  12  26  40  66  96 123 168 211 266 318 358
#     4  10  21  38  58  82 120 152 201 244 292 366
#     4  10  21  35  59  86 115 159 196 232 296 358
#
# _framework density 18.639769000000001
#
# number of rings (size 3 to 8) (size 9 to 14) (size 15 to 20)
#    0.000    1.333    0.000    6.000    2.333    3.000 
#    0.000    2.500    0.000    6.000    0.000    0.000 
#    0.000    0.000    0.000    0.000    0.000    0.000 
#
# Total GULP energy -134092.177409 kJ/mol
# GULP energy per Si atom -5587.174059 kJ/mol
# Density = 1.859734 g / cm^3
# Si number density = 18.639769 Si / 1000 Ang^3
#
#
#
# Elastic Constant Matrix: (Units=GPa)
#
#
# Indices 1 2 3 4 5 6 
#
# 1 201.4812 67.5560 89.1814 0.0000 0.0000 0.0000
# 2 67.5560 122.6165 57.2642 0.0000 0.0000 0.0000
# 3 89.1814 57.2642 173.3697 0.0000 0.0000 0.0000
# 4 0.0000 0.0000 0.0000 16.7206 0.0000 0.0000
# 5 0.0000 0.0000 0.0000 0.0000 16.9497 0.0000
# 6 0.0000 0.0000 0.0000 0.0000 0.0000 2.4198
#
#
#
# Elastic Compliance Matrix: (Units=1/GPa)
#
#
# Indices 1 2 3 4 5 6 
#
# 1 0.007062 -0.002594 -0.002776 0.000000 0.000000 0.000000
# 2 -0.002594 0.010596 -0.002165 0.000000 0.000000 0.000000
# 3 -0.002776 -0.002165 0.007911 0.000000 0.000000 0.000000
# 4 0.000000 0.000000 0.000000 0.059807 0.000000 0.000000
# 5 0.000000 0.000000 0.000000 0.000000 0.058998 0.000000
# 6 0.000000 0.000000 0.000000 0.000000 0.000000 0.413255
#
#
# Mechanical properties :
#
#
# Convention : Reuss Voigt Hill
#
# Bulk Modulus (GPa) = 95.25501 102.83006 99.04253
# Shear Modulus (GPa) = 8.67756 26.11573 17.39665
#
# Velocity S-wave (km/s) = 2.15998 3.74716 3.05832
# Velocity P-wave (km/s) = 7.57857 8.60281 8.10688
#
# Compressibility (1/GPa) = 0.01049814
#
# Stress axis : x y z
#
# Youngs Moduli (GPa) = 141.60901 94.37364 126.40605
#
# Poissons Ratio (x) = 0.24484 0.35085
# Poissons Ratio (y) = 0.36739 0.27372
# Poissons Ratio (z) = 0.39305 0.20435
#
# Static dielectric constant tensor:
#      x y z
#    x 1.644780 0.000000 0.000000 
#    y 0.000000 1.707170 0.000000 
#    z 0.000000 0.000000 1.584140 
# 
# From -- ./inp_files/62500.got.cif
#   From: 2010.05.17/outbox.cif.g08.bks.cpg/sg71_32_cif.got.tgz:62500.got - 2010.06.03 16:22:01.
