data_PCOD9522389
_publ_section_title
;
Structure prediction by ZEFSAII (Michael W. Deem and Ramdas Pophale) SiO2 
 PCOD9522389
Probable space group: I M M M
;
_chemical_formula_sum "Si O2"
_cell_formula_units_Z 88
_cell_length_a 16.134021
_cell_length_b 31.029048
_cell_length_c 7.506917
_cell_angle_alpha 90.000000
_cell_angle_beta 90.000000
_cell_angle_gamma 90.000000
_cell_volume 3758.137652
_symmetry_space_group_name_H-M "I M M M"
_symmetry_group_IT_number 71
_symmetry_cell_setting 'orthorhombic'
loop_
_space_group_symop_operation_xyz
x,y,z
-x,-y,z
x,-y,-z
-x,y,-z
-x,-y,-z
x,y,-z
-x,y,z
x,-y,z
1/2+x,1/2+y,1/2+z
1/2-x,1/2-y,1/2+z
1/2+x,1/2-y,1/2-z
1/2-x,1/2+y,1/2-z
1/2-x,1/2-y,1/2-z
1/2+x,1/2+y,1/2-z
1/2-x,1/2+y,1/2+z
1/2+x,1/2-y,1/2+z
loop_
_atom_site_type_symbol
_atom_site_label
_atom_site_fract_x
_atom_site_fract_y
_atom_site_fract_z
Si Si1 0.670689 0.780131 0.286526
Si Si2 0.167433 0.549399 0.205125
Si Si3 0.096991 0.000000 0.299059
Si Si4 0.161068 0.910852 0.800948
Si Si5 0.000000 0.137665 0.782937
Si Si6 0.500000 0.262241 0.716545
Si Si7 0.093240 0.634173 0.217674
O O1 0.667017 0.782124 0.500000
O O2 0.750000 0.750000 0.250000
O O3 0.586087 0.757955 0.220545
O O4 0.661214 0.830020 0.224948
O O5 0.175208 0.500000 0.278239
O O6 0.252997 0.576832 0.208931
O O7 0.106759 0.585428 0.285655
O O8 0.143313 0.543861 0.000000
O O9 0.120836 0.957882 0.194921
O O10 0.135656 0.000000 0.500000
O O11 0.000000 0.000000 0.321541
O O12 0.087073 0.882533 0.718402
O O13 0.178876 0.894535 0.000000
O O14 0.000000 0.187562 0.742391
O O15 0.000000 0.131101 0.000000
O O16 0.500000 0.257819 0.500000
O O17 0.000000 0.648950 0.262873
O O18 0.096733 0.632429 0.000000
#
# Coordination Sequence:
#
# PCOD9522389 Si02
#       7
#    16  16   8  16   8   8  16
#     4  10  20  36  61  87 114 150 190 236 288 342
#     4  10  21  35  53  80 112 142 180 233 285 333
#     4  11  21  33  51  73 102 143 188 233 279 324
#     4  11  21  34  52  74 106 147 189 228 271 328
#     4   9  20  33  48  75 106 141 190 231 261 318
#     4   9  18  36  58  80 112 152 191 229 279 348
#     4   9  18  36  60  84 110 145 189 231 278 341
#
# _framework density 23.415852999999998
#
# number of rings (size 3 to 8) (size 9 to 14) (size 15 to 20)
#    0.000    2.091    2.727    0.818    2.545    0.727 
#    0.000    2.273    0.000    3.818    0.000    1.273 
#    0.000    0.000    0.000    0.000    0.000    0.000 
#
# Total GULP energy -245219.504304 kJ/mol
# GULP energy per Si atom -5573.170552 kJ/mol
# Density = 2.336256 g / cm^3
# Si number density = 23.415853 Si / 1000 Ang^3
#
#
#
# Elastic Constant Matrix: (Units=GPa)
#
#
# Indices 1 2 3 4 5 6 
#
# 1 113.3563 75.0496 0.2762 0.0019 -0.0140 0.0189
# 2 75.0496 177.0011 7.3808 -0.0134 0.1227 -0.0872
# 3 0.2762 7.3808 70.4474 -0.0246 0.4074 -0.3639
# 4 0.0019 -0.0134 -0.0246 6.0658 0.1959 -0.0951
# 5 -0.0140 0.1227 0.4074 0.1959 91.8220 1.7179
# 6 0.0189 -0.0872 -0.3639 -0.0951 1.7179 -980.0308
#
#
#
# Elastic Compliance Matrix: (Units=1/GPa)
#
#
# Indices 1 2 3 4 5 6 
#
# 1 0.012282 -0.005229 0.000500 -0.000014 0.000007 0.000001
# 2 -0.005229 0.007900 -0.000807 0.000016 -0.000008 -0.000001
# 3 0.000500 -0.000807 0.014278 0.000058 -0.000062 -0.000005
# 4 -0.000014 0.000016 0.000058 0.164871 -0.000352 -0.000017
# 5 0.000007 -0.000008 -0.000062 -0.000352 0.010891 0.000019
# 6 0.000001 -0.000001 -0.000005 -0.000017 0.000019 -0.001020
#
#
# Mechanical properties :
#
#
# Convention : Reuss Voigt Hill
#
# Bulk Modulus (GPa) = 42.75666 58.46867 50.61266
# Shear Modulus (GPa) = 21.92306 -157.88873 -67.98284
#
# Velocity S-wave (km/s) = 3.06314 -8.22037 -5.39406
# Velocity P-wave (km/s) = 5.55065 8.06694 4.13918
#
# Compressibility (1/GPa) = 0.02338817
#
# Stress axis : x y z
#
# Youngs Moduli (GPa) = 81.41870 126.57753 70.03809
#
# Poissons Ratio (x) = 0.66182 -0.03499
# Poissons Ratio (y) = 0.42570 0.05653
# Poissons Ratio (z) = -0.04068 0.10217
#
# Static dielectric constant tensor:
#      x y z
#    x 1.943180 0.000000 0.000010 
#    y 0.000000 1.881050 -0.000010 
#    z 0.000010 -0.000010 1.976250 
# 
# From -- ./inp_files/8893.got.cif
#   From: 2010.05.17/outbox.cif.g08.bks.cpg/sg71_5_cif.got.tgz:8893.got - 2010.06.03 16:22:01.
