data_PCOD9522273
_publ_section_title
;
Structure prediction by ZEFSAII (Michael W. Deem and Ramdas Pophale) SiO2 
 PCOD9522273
Probable space group: I M M M
;
_chemical_formula_sum "Si O2"
_cell_formula_units_Z 120
_cell_length_a 23.030011
_cell_length_b 21.724035
_cell_length_c 13.915833
_cell_angle_alpha 90.000000
_cell_angle_beta 90.000000
_cell_angle_gamma 90.000000
_cell_volume 6962.157559
_symmetry_space_group_name_H-M "I M M M"
_symmetry_group_IT_number 71
_symmetry_cell_setting 'orthorhombic'
loop_
_space_group_symop_operation_xyz
x,y,z
-x,-y,z
x,-y,-z
-x,y,-z
-x,-y,-z
x,y,-z
-x,y,z
x,-y,z
1/2+x,1/2+y,1/2+z
1/2-x,1/2-y,1/2+z
1/2+x,1/2-y,1/2-z
1/2-x,1/2+y,1/2-z
1/2-x,1/2-y,1/2-z
1/2+x,1/2+y,1/2-z
1/2-x,1/2+y,1/2+z
1/2+x,1/2-y,1/2+z
loop_
_atom_site_type_symbol
_atom_site_label
_atom_site_fract_x
_atom_site_fract_y
_atom_site_fract_z
Si Si1 0.431362 0.671333 0.290336
Si Si2 0.374258 0.732143 0.887196
Si Si3 0.879848 0.291854 0.888063
Si Si4 0.500000 0.073342 0.889625
Si Si5 0.733369 0.927346 0.771327
Si Si6 0.111389 0.366214 0.296905
Si Si7 0.150276 0.927068 0.887734
Si Si8 0.750406 0.325294 0.888223
O O1 0.500000 0.661968 0.298476
O O2 0.413307 0.689970 0.182048
O O3 0.411227 0.729844 0.354426
O O4 0.394650 0.613392 0.327233
O O5 0.382871 0.802286 0.854697
O O6 0.307235 0.713680 0.868780
O O7 0.386542 0.724436 0.000000
O O8 0.897132 0.345877 0.814313
O O9 0.809889 0.286980 0.874113
O O10 0.891005 0.304658 0.000000
O O11 0.443174 0.097674 0.836636
O O12 0.500000 0.000000 0.889978
O O13 0.500000 0.095474 0.000000
O O14 0.670547 0.904726 0.806865
O O15 0.784672 0.916688 0.848034
O O16 0.747425 0.884493 0.679946
O O17 0.732028 0.000000 0.748852
O O18 0.138197 0.000000 0.878311
O O19 0.146674 0.910351 0.000000
O O20 0.749143 0.343933 0.000000
#
# Coordination Sequence:
#
# PCOD9522273 Si02
#       8
#    16  16  16   8  16  16  16  16
#     4  11  23  37  56  81 111 151 191 229 281 338
#     4  10  21  36  59  87 116 144 180 231 286 340
#     4   9  20  35  56  85 117 144 178 229 280 337
#     4  11  24  42  59  79 113 153 195 238 280 336
#     4  10  20  36  58  83 113 146 184 231 277 330
#     4  10  22  36  58  84 113 149 190 228 280 336
#     4  10  22  38  56  80 110 144 186 236 285 335
#     4   9  18  35  58  86 113 143 177 222 286 340
#
# _framework density 17.236035999999999
#
# number of rings (size 3 to 8) (size 9 to 14) (size 15 to 20)
#    0.000    2.067    1.333    1.200    5.600    4.533 
#    0.000    2.000    0.000    2.000    0.000    0.933 
#    0.000    0.000    0.000    0.000    0.000    0.000 
#
# Total GULP energy -334893.400786 kJ/mol
# GULP energy per Si atom -5581.556680 kJ/mol
# Density = 1.719681 g / cm^3
# Si number density = 17.236036 Si / 1000 Ang^3
#
#
#
# Elastic Constant Matrix: (Units=GPa)
#
#
# Indices 1 2 3 4 5 6 
#
# 1 129.7503 59.9001 63.8785 0.0000 0.0000 0.0000
# 2 59.9001 63.7175 46.0019 0.0000 0.0000 0.0000
# 3 63.8785 46.0019 115.8604 0.0000 0.0000 0.0000
# 4 0.0000 0.0000 0.0000 12.8825 0.0000 0.0000
# 5 0.0000 0.0000 0.0000 0.0000 22.1183 0.0000
# 6 0.0000 0.0000 0.0000 0.0000 0.0000 -63.9077
#
#
#
# Elastic Compliance Matrix: (Units=1/GPa)
#
#
# Indices 1 2 3 4 5 6 
#
# 1 0.014644 -0.011127 -0.003656 0.000000 0.000000 0.000000
# 2 -0.011127 0.030456 -0.005958 0.000000 0.000000 0.000000
# 3 -0.003656 -0.005958 0.013012 0.000000 0.000000 0.000000
# 4 0.000000 0.000000 0.000000 0.077625 0.000000 0.000000
# 5 0.000000 0.000000 0.000000 0.000000 0.045211 0.000000
# 6 0.000000 0.000000 0.000000 0.000000 0.000000 -0.015648
#
#
# Mechanical properties :
#
#
# Convention : Reuss Voigt Hill
#
# Bulk Modulus (GPa) = 60.12895 72.09879 66.11387
# Shear Modulus (GPa) = 23.54882 3.52181 13.53532
#
# Velocity S-wave (km/s) = 3.70030 1.43099 2.80535
# Velocity P-wave (km/s) = 7.29504 6.68217 6.99532
#
# Compressibility (1/GPa) = 0.01663092
#
# Stress axis : x y z
#
# Youngs Moduli (GPa) = 68.28810 32.83426 76.85190
#
# Poissons Ratio (x) = 0.36535 0.28095
# Poissons Ratio (y) = 0.75986 0.45785
# Poissons Ratio (z) = 0.24964 0.19561
#
# Static dielectric constant tensor:
#      x y z
#    x 1.571020 0.000000 0.000000 
#    y 0.000000 1.554520 0.000000 
#    z 0.000000 0.000000 1.587630 
# 
# From -- ./inp_files/38437.got.cif
#   From: 2010.05.17/outbox.cif.g08.bks.cpg/sg71_20_cif.got.tgz:38437.got - 2010.06.03 16:22:01.
