data_PCOD9522291
_publ_section_title
;
Structure prediction by ZEFSAII (Michael W. Deem and Ramdas Pophale) SiO2 
 PCOD9522291
Probable space group: I M M M
;
_chemical_formula_sum "Si O2"
_cell_formula_units_Z 96
_cell_length_a 16.314394
_cell_length_b 20.849498
_cell_length_c 14.085506
_cell_angle_alpha 90.000000
_cell_angle_beta 90.000000
_cell_angle_gamma 90.000000
_cell_volume 4791.141554
_symmetry_space_group_name_H-M "I M M M"
_symmetry_group_IT_number 71
_symmetry_cell_setting 'orthorhombic'
loop_
_space_group_symop_operation_xyz
x,y,z
-x,-y,z
x,-y,-z
-x,y,-z
-x,-y,-z
x,y,-z
-x,y,z
x,-y,z
1/2+x,1/2+y,1/2+z
1/2-x,1/2-y,1/2+z
1/2+x,1/2-y,1/2-z
1/2-x,1/2+y,1/2-z
1/2-x,1/2-y,1/2-z
1/2+x,1/2+y,1/2-z
1/2-x,1/2+y,1/2+z
1/2+x,1/2-y,1/2+z
loop_
_atom_site_type_symbol
_atom_site_label
_atom_site_fract_x
_atom_site_fract_y
_atom_site_fract_z
Si Si1 0.654791 0.371350 0.199366
Si Si2 0.725518 0.638676 0.389004
Si Si3 0.500000 0.075190 0.692417
Si Si4 0.409145 0.500000 0.769206
Si Si5 0.823007 0.423175 0.114144
Si Si6 0.143268 0.261955 0.610189
Si Si7 0.768645 0.000000 0.109171
Si Si8 0.500000 0.865768 0.893193
O O1 0.653420 0.367128 0.313764
O O2 0.605467 0.435048 0.171956
O O3 0.748121 0.385385 0.163664
O O4 0.624518 0.303871 0.161417
O O5 0.704707 0.645018 0.500000
O O6 0.775427 0.700996 0.357924
O O7 0.773859 0.569695 0.380227
O O8 0.586838 0.099244 0.649580
O O9 0.500000 0.086644 0.805048
O O10 0.500000 0.000000 0.669355
O O11 0.500000 0.500000 0.728833
O O12 0.339855 0.500000 0.687358
O O13 0.814088 0.500000 0.136550
O O14 0.818095 0.416381 0.000000
O O15 0.153929 0.245470 0.500000
O O16 0.075947 0.317275 0.615913
O O17 0.799564 0.000000 0.000000
O O18 0.500000 0.893959 0.000000
#
# Coordination Sequence:
#
# PCOD9522291 Si02
#       8
#    16  16   8   8  16  16   8   8
#     4  11  20  36  60  84 113 152 193 236 286 338
#     4   9  18  33  54  83 112 142 184 232 284 340
#     4  10  21  37  60  87 116 151 185 224 291 347
#     4  10  22  35  53  85 114 144 195 238 279 333
#     4  10  20  36  58  86 118 147 185 234 283 341
#     4  10  21  36  55  79 109 150 193 234 282 336
#     4   8  16  33  56  80 111 144 177 232 286 335
#     4  10  22  40  55  79 118 151 191 237 281 337
#
# _framework density 20.036978000000001
#
# number of rings (size 3 to 8) (size 9 to 14) (size 15 to 20)
#    0.000    2.167    0.833    2.250    1.167    1.333 
#    1.500    0.000    0.000    3.000    0.000    0.000 
#    0.000    0.000    0.000    0.000    0.000    0.000 
#
# Total GULP energy -267351.044316 kJ/mol
# GULP energy per Si atom -5569.813423 kJ/mol
# Density = 1.999137 g / cm^3
# Si number density = 20.036978 Si / 1000 Ang^3
#
#
#
# Elastic Constant Matrix: (Units=GPa)
#
#
# Indices 1 2 3 4 5 6 
#
# 1 43.9727 -11.9426 3.8726 0.0000 0.0000 0.0000
# 2 -11.9426 55.7983 1.5708 0.0000 0.0000 0.0000
# 3 3.8726 1.5708 54.5004 0.0000 0.0000 0.0000
# 4 0.0000 0.0000 0.0000 34.6586 0.0000 0.0000
# 5 0.0000 0.0000 0.0000 0.0000 10.5112 0.0000
# 6 0.0000 0.0000 0.0000 0.0000 0.0000 -7.8873
#
#
#
# Elastic Compliance Matrix: (Units=1/GPa)
#
#
# Indices 1 2 3 4 5 6 
#
# 1 0.024336 0.005262 -0.001881 0.000000 0.000000 0.000000
# 2 0.005262 0.019074 -0.000924 0.000000 0.000000 0.000000
# 3 -0.001881 -0.000924 0.018509 0.000000 0.000000 0.000000
# 4 0.000000 0.000000 0.000000 0.028853 0.000000 0.000000
# 5 0.000000 0.000000 0.000000 0.000000 0.095136 0.000000
# 6 0.000000 0.000000 0.000000 0.000000 0.000000 -0.126787
#
#
# Mechanical properties :
#
#
# Convention : Reuss Voigt Hill
#
# Bulk Modulus (GPa) = 14.96270 15.69701 15.32985
# Shear Modulus (GPa) = 65.37292 18.17456 41.77374
#
# Velocity S-wave (km/s) = 5.71813 3.01500 4.57095
# Velocity P-wave (km/s) = 7.14701 4.46893 5.96033
#
# Compressibility (1/GPa) = 0.06683287
#
# Stress axis : x y z
#
# Youngs Moduli (GPa) = 41.09130 52.42785 54.02847
#
# Poissons Ratio (x) = -0.27586 0.10162
# Poissons Ratio (y) = -0.21621 0.04990
# Poissons Ratio (z) = 0.07729 0.04842
#
# Static dielectric constant tensor:
#      x y z
#    x 1.759240 0.000000 0.000000 
#    y 0.000000 1.765630 0.000000 
#    z 0.000000 0.000000 1.716380 
# 
# From -- ./inp_files/34590.got.cif
#   From: 2010.05.17/outbox.cif.g08.bks.cpg/sg71_18_cif.got.tgz:34590.got - 2010.06.03 16:22:01.
