data_PCOD9522238
_publ_section_title
;
Structure prediction by ZEFSAII (Michael W. Deem and Ramdas Pophale) SiO2 
 PCOD9522238
Probable space group: I M M M
;
_chemical_formula_sum "Si O2"
_cell_formula_units_Z 60
_cell_length_a 19.953895
_cell_length_b 17.014719
_cell_length_c 9.884379
_cell_angle_alpha 90.000000
_cell_angle_beta 90.000000
_cell_angle_gamma 90.000000
_cell_volume 3355.844688
_symmetry_space_group_name_H-M "I M M M"
_symmetry_group_IT_number 71
_symmetry_cell_setting 'orthorhombic'
loop_
_space_group_symop_operation_xyz
x,y,z
-x,-y,z
x,-y,-z
-x,y,-z
-x,-y,-z
x,y,-z
-x,y,z
x,-y,z
1/2+x,1/2+y,1/2+z
1/2-x,1/2-y,1/2+z
1/2+x,1/2-y,1/2-z
1/2-x,1/2+y,1/2-z
1/2-x,1/2-y,1/2-z
1/2+x,1/2+y,1/2-z
1/2-x,1/2+y,1/2+z
1/2+x,1/2-y,1/2+z
loop_
_atom_site_type_symbol
_atom_site_label
_atom_site_fract_x
_atom_site_fract_y
_atom_site_fract_z
Si Si1 0.772193 0.638323 0.500000
Si Si2 0.076759 0.000000 0.731157
Si Si3 0.688406 0.905648 0.290848
Si Si4 0.165054 0.000000 0.000000
Si Si5 0.221944 0.816742 0.500000
Si Si6 0.424477 0.904909 0.500000
Si Si7 0.422820 0.369429 0.000000
O O1 0.812444 0.620741 0.636728
O O2 0.711240 0.577144 0.500000
O O3 0.750331 0.728670 0.500000
O O4 0.085192 0.925424 0.631561
O O5 0.000000 0.000000 0.778343
O O6 0.123370 0.000000 0.861300
O O7 0.749003 0.863834 0.371062
O O8 0.620644 0.883585 0.370626
O O9 0.697174 0.000000 0.299471
O O10 0.141356 0.813114 0.500000
O O11 0.500000 0.873867 0.500000
O O12 0.428274 0.000000 0.500000
O O13 0.500000 0.339328 0.000000
#
# Coordination Sequence:
#
# PCOD9522238 Si02
#       7
#     8   8  16   4   8   8   8
#     4  12  23  35  52  86 118 148 182 244 294 342
#     4   9  19  33  55  83 107 144 188 228 276 347
#     4  10  20  36  57  82 114 146 188 236 286 342
#     4  12  21  34  56  76 121 152 182 222 296 342
#     4  11  22  35  57  81 114 151 196 236 284 344
#     4   8  16  33  58  80 101 140 191 232 270 330
#     4   9  19  35  55  79 108 144 193 234 275 331
#
# _framework density 17.879255000000001
#
# number of rings (size 3 to 8) (size 9 to 14) (size 15 to 20)
#    0.000    2.000    1.333    4.600    3.733    0.000 
#    0.000    2.000    0.000   12.800    0.000    0.000 
#    0.000    0.000    0.000    0.000    0.000    0.000 
#
# Total GULP energy -167348.953237 kJ/mol
# GULP energy per Si atom -5578.298441 kJ/mol
# Density = 1.783856 g / cm^3
# Si number density = 17.879255 Si / 1000 Ang^3
#
#
#
# Elastic Constant Matrix: (Units=GPa)
#
#
# Indices 1 2 3 4 5 6 
#
# 1 120.4658 20.1752 64.0805 0.0000 0.0000 0.0000
# 2 20.1752 76.2259 24.6631 0.0000 0.0000 0.0000
# 3 64.0805 24.6631 168.3631 0.0000 0.0000 0.0000
# 4 0.0000 0.0000 0.0000 10.7725 0.0000 0.0000
# 5 0.0000 0.0000 0.0000 0.0000 -4.9303 0.0000
# 6 0.0000 0.0000 0.0000 0.0000 0.0000 -8.2525
#
#
#
# Elastic Compliance Matrix: (Units=1/GPa)
#
#
# Indices 1 2 3 4 5 6 
#
# 1 0.010585 -0.001573 -0.003798 0.000000 0.000000 0.000000
# 2 -0.001573 0.014005 -0.001453 0.000000 0.000000 0.000000
# 3 -0.003798 -0.001453 0.007598 0.000000 0.000000 0.000000
# 4 0.000000 0.000000 0.000000 0.092829 0.000000 0.000000
# 5 0.000000 0.000000 0.000000 0.000000 -0.202826 0.000000
# 6 0.000000 0.000000 0.000000 0.000000 0.000000 -0.121175
#
#
# Mechanical properties :
#
#
# Convention : Reuss Voigt Hill
#
# Bulk Modulus (GPa) = 53.93659 64.76579 59.35119
# Shear Modulus (GPa) = -27.90880 16.59366 -5.65757
#
# Velocity S-wave (km/s) = -3.95518 3.04977 -1.78078
# Velocity P-wave (km/s) = 3.06180 6.97883 5.38882
#
# Compressibility (1/GPa) = 0.01854029
#
# Stress axis : x y z
#
# Youngs Moduli (GPa) = 94.47339 71.40164 131.61208
#
# Poissons Ratio (x) = 0.11229 0.49991
# Poissons Ratio (y) = 0.14857 0.19124
# Poissons Ratio (z) = 0.35884 0.10375
#
# Static dielectric constant tensor:
#      x y z
#    x 1.618940 0.000000 0.000000 
#    y 0.000000 1.592220 0.000000 
#    z 0.000000 0.000000 1.604000 
# 
# From -- ./inp_files/9616.got.cif
#   From: 2010.05.17/outbox.cif.g08.bks.cpg/sg71_5_cif.got.tgz:9616.got - 2010.06.03 16:22:01.
