data_PCOD9522432
_publ_section_title
;
Structure prediction by ZEFSAII (Michael W. Deem and Ramdas Pophale) SiO2 
 PCOD9522432
Probable space group: I M M M
;
_chemical_formula_sum "Si O2"
_cell_formula_units_Z 64
_cell_length_a 8.058361
_cell_length_b 15.326019
_cell_length_c 25.646600
_cell_angle_alpha 90.000000
_cell_angle_beta 90.000000
_cell_angle_gamma 90.000000
_cell_volume 3167.421622
_symmetry_space_group_name_H-M "I M M M"
_symmetry_group_IT_number 71
_symmetry_cell_setting 'orthorhombic'
loop_
_space_group_symop_operation_xyz
x,y,z
-x,-y,z
x,-y,-z
-x,y,-z
-x,-y,-z
x,y,-z
-x,y,z
x,-y,z
1/2+x,1/2+y,1/2+z
1/2-x,1/2-y,1/2+z
1/2+x,1/2-y,1/2-z
1/2-x,1/2+y,1/2-z
1/2-x,1/2-y,1/2-z
1/2+x,1/2+y,1/2-z
1/2-x,1/2+y,1/2+z
1/2+x,1/2-y,1/2+z
loop_
_atom_site_type_symbol
_atom_site_label
_atom_site_fract_x
_atom_site_fract_y
_atom_site_fract_z
Si Si1 0.500000 0.599303 0.672961
Si Si2 0.807814 0.778189 0.441638
Si Si3 0.302553 0.601266 0.157101
Si Si4 0.320317 0.106939 0.230392
Si Si5 0.500000 0.646433 0.442931
O O1 0.500000 0.500000 0.693549
O O2 0.668344 0.639648 0.695475
O O3 0.500000 0.595725 0.610999
O O4 0.798990 0.818586 0.500000
O O5 0.770853 0.843724 0.394607
O O6 0.667027 0.704664 0.440760
O O7 0.000000 0.747194 0.435442
O O8 0.500000 0.605225 0.168247
O O9 0.259381 0.500000 0.148055
O O10 0.210719 0.630700 0.209479
O O11 0.500000 0.138605 0.212320
O O12 0.323135 0.000000 0.228288
O O13 0.500000 0.602624 0.500000
#
# Coordination Sequence:
#
# PCOD9522432 Si02
#       5
#     8  16  16  16   8
#     4  10  20  37  58  79 102 126 166 218 263 317
#     4   9  19  35  53  73 105 145 177 211 255 301
#     4   9  16  29  52  78 107 142 179 215 247 289
#     4   9  17  30  51  77 105 137 165 201 260 310
#     4  10  22  39  57  76 100 134 172 212 265 317
#
# _framework density 20.20571
#
# number of rings (size 3 to 8) (size 9 to 14) (size 15 to 20)
#    0.000    2.750    1.250    0.000    1.750    1.750 
#    0.000    3.750    0.000    2.250    0.000    7.000 
#    0.000    0.000    0.000    0.000    0.000    0.000 
#
# Total GULP energy -178425.082120 kJ/mol
# GULP energy per Si atom -5575.783816 kJ/mol
# Density = 2.015972 g / cm^3
# Si number density = 20.205710 Si / 1000 Ang^3
#
#
#
# Elastic Constant Matrix: (Units=GPa)
#
#
# Indices 1 2 3 4 5 6 
#
# 1 137.6628 28.4585 76.6288 0.0000 0.0000 0.0000
# 2 28.4585 24.4083 17.2436 0.0000 0.0000 0.0000
# 3 76.6288 17.2436 117.2340 0.0000 0.0000 0.0000
# 4 0.0000 0.0000 0.0000 31.9272 0.0000 0.0000
# 5 0.0000 0.0000 0.0000 0.0000 7.4642 0.0000
# 6 0.0000 0.0000 0.0000 0.0000 0.0000 -2.7364
#
#
#
# Elastic Compliance Matrix: (Units=1/GPa)
#
#
# Indices 1 2 3 4 5 6 
#
# 1 0.013501 -0.010609 -0.007264 0.000000 0.000000 0.000000
# 2 -0.010609 0.054058 -0.001017 0.000000 0.000000 0.000000
# 3 -0.007264 -0.001017 0.013428 0.000000 0.000000 0.000000
# 4 0.000000 0.000000 0.000000 0.031321 0.000000 0.000000
# 5 0.000000 0.000000 0.000000 0.000000 0.133972 0.000000
# 6 0.000000 0.000000 0.000000 0.000000 0.000000 -0.365440
#
#
# Mechanical properties :
#
#
# Convention : Reuss Voigt Hill
#
# Bulk Modulus (GPa) = 23.14489 58.21853 40.68171
# Shear Modulus (GPa) = -74.65085 17.79595 -28.42745
#
# Velocity S-wave (km/s) = -6.08487 2.97094 -3.75494
# Velocity P-wave (km/s) = 6.15532 6.37528 1.17391
#
# Compressibility (1/GPa) = 0.04320608
#
# Stress axis : x y z
#
# Youngs Moduli (GPa) = 74.06904 18.49880 74.47315
#
# Poissons Ratio (x) = 0.19626 0.54099
# Poissons Ratio (y) = 0.78582 0.07570
# Poissons Ratio (z) = 0.53806 0.01880
#
# Static dielectric constant tensor:
#      x y z
#    x 1.743070 0.000000 0.000000 
#    y 0.000000 1.707480 0.000000 
#    z 0.000000 0.000000 1.702590 
# 
# From -- ./inp_files/5488.got.cif
#   From: 2010.05.17/outbox.cif.g08.bks.cpg/sg71_3_cif.got.tgz:5488.got - 2010.06.03 16:22:01.
