data_PCOD9522410
_publ_section_title
;
Structure prediction by ZEFSAII (Michael W. Deem and Ramdas Pophale) SiO2 
 PCOD9522410
Probable space group: I M M M
;
_chemical_formula_sum "Si O2"
_cell_formula_units_Z 72
_cell_length_a 23.103457
_cell_length_b 19.331581
_cell_length_c 8.738341
_cell_angle_alpha 90.000000
_cell_angle_beta 90.000000
_cell_angle_gamma 90.000000
_cell_volume 3902.773349
_symmetry_space_group_name_H-M "I M M M"
_symmetry_group_IT_number 71
_symmetry_cell_setting 'orthorhombic'
loop_
_space_group_symop_operation_xyz
x,y,z
-x,-y,z
x,-y,-z
-x,y,-z
-x,-y,-z
x,y,-z
-x,y,z
x,-y,z
1/2+x,1/2+y,1/2+z
1/2-x,1/2-y,1/2+z
1/2+x,1/2-y,1/2-z
1/2-x,1/2+y,1/2-z
1/2-x,1/2-y,1/2-z
1/2+x,1/2+y,1/2-z
1/2-x,1/2+y,1/2+z
1/2+x,1/2-y,1/2+z
loop_
_atom_site_type_symbol
_atom_site_label
_atom_site_fract_x
_atom_site_fract_y
_atom_site_fract_z
Si Si1 0.433366 0.317631 0.816785
Si Si2 0.604050 0.829300 0.682271
Si Si3 0.269578 0.824021 0.817534
Si Si4 0.170273 0.080452 0.315836
Si Si5 0.500000 0.081746 0.817305
O O1 0.500000 0.334962 0.782646
O O2 0.415386 0.247736 0.731395
O O3 0.388655 0.378436 0.778670
O O4 0.429007 0.304661 0.000000
O O5 0.606783 0.834204 0.500000
O O6 0.667139 0.841630 0.753339
O O7 0.556401 0.881798 0.747209
O O8 0.250000 0.750000 0.750000
O O9 0.222978 0.880452 0.764648
O O10 0.271588 0.818904 0.000000
O O11 0.178280 0.085043 0.500000
O O12 0.167101 0.000000 0.274073
O O13 0.500000 0.000000 0.786563
O O14 0.500000 0.092707 0.000000
#
# Coordination Sequence:
#
# PCOD9522410 Si02
#       5
#    16  16  16  16   8
#     4  10  20  36  62  92 126 166 209 254 303 368
#     4  12  24  39  64  95 126 163 208 258 313 375
#     4  12  24  40  64  92 124 164 213 262 316 376
#     4  10  22  40  62  92 130 168 208 258 314 371
#     4  11  25  45  67  93 128 167 208 259 317 374
#
# _framework density 18.448419999999999
#
# number of rings (size 3 to 8) (size 9 to 14) (size 15 to 20)
#    0.000    1.000    3.333    4.333    0.000    2.667 
#    0.000    2.222    0.000    0.000    0.000    3.111 
#    0.000    0.000    0.000    0.000    0.000    0.000 
#
# Total GULP energy -201361.859981 kJ/mol
# GULP energy per Si atom -5593.384999 kJ/mol
# Density = 1.840643 g / cm^3
# Si number density = 18.448420 Si / 1000 Ang^3
#
#
#
# Elastic Constant Matrix: (Units=GPa)
#
#
# Indices 1 2 3 4 5 6 
#
# 1 208.1918 101.4035 97.1837 0.0000 0.0000 0.0000
# 2 101.4035 159.2072 95.0603 0.0000 0.0000 0.0000
# 3 97.1837 95.0603 112.2710 0.0000 0.0000 0.0000
# 4 0.0000 0.0000 0.0000 20.8175 0.0000 0.0000
# 5 0.0000 0.0000 0.0000 0.0000 32.6603 0.0000
# 6 0.0000 0.0000 0.0000 0.0000 0.0000 33.3529
#
#
#
# Elastic Compliance Matrix: (Units=1/GPa)
#
#
# Indices 1 2 3 4 5 6 
#
# 1 0.008373 -0.002034 -0.005526 0.000000 0.000000 0.000000
# 2 -0.002034 0.013197 -0.009414 0.000000 0.000000 0.000000
# 3 -0.005526 -0.009414 0.021661 0.000000 0.000000 0.000000
# 4 0.000000 0.000000 0.000000 0.048036 0.000000 0.000000
# 5 0.000000 0.000000 0.000000 0.000000 0.030618 0.000000
# 6 0.000000 0.000000 0.000000 0.000000 0.000000 0.029982
#
#
# Mechanical properties :
#
#
# Convention : Reuss Voigt Hill
#
# Bulk Modulus (GPa) = 107.70544 118.55165 113.12855
# Shear Modulus (GPa) = 26.46738 29.76764 28.11751
#
# Velocity S-wave (km/s) = 3.79181 4.02127 3.90823
# Velocity P-wave (km/s) = 8.81358 9.27154 9.04546
#
# Compressibility (1/GPa) = 0.00928458
#
# Stress axis : x y z
#
# Youngs Moduli (GPa) = 119.42498 75.77346 46.16488
#
# Poissons Ratio (x) = 0.15409 0.25512
# Poissons Ratio (y) = 0.24286 0.43459
# Poissons Ratio (z) = 0.65999 0.71332
#
# Static dielectric constant tensor:
#      x y z
#    x 1.616080 0.000000 0.000000 
#    y 0.000000 1.600080 0.000000 
#    z 0.000000 0.000000 1.622590 
# 
# From -- ./inp_files/7880.got.cif
#   From: 2010.05.17/outbox.cif.g08.bks.cpg/sg71_4_cif.got.tgz:7880.got - 2010.06.03 16:22:01.
