data_PCOD9522243
_publ_section_title
;
Structure prediction by ZEFSAII (Michael W. Deem and Ramdas Pophale) SiO2 
 PCOD9522243
Probable space group: I M M M
;
_chemical_formula_sum "Si O2"
_cell_formula_units_Z 90
_cell_length_a 8.983865
_cell_length_b 24.225037
_cell_length_c 23.471831
_cell_angle_alpha 90.000000
_cell_angle_beta 90.000000
_cell_angle_gamma 90.000000
_cell_volume 5108.279312
_symmetry_space_group_name_H-M "I M M M"
_symmetry_group_IT_number 71
_symmetry_cell_setting 'orthorhombic'
loop_
_space_group_symop_operation_xyz
x,y,z
-x,-y,z
x,-y,-z
-x,y,-z
-x,-y,-z
x,y,-z
-x,y,z
x,-y,z
1/2+x,1/2+y,1/2+z
1/2-x,1/2-y,1/2+z
1/2+x,1/2-y,1/2-z
1/2-x,1/2+y,1/2-z
1/2-x,1/2-y,1/2-z
1/2+x,1/2+y,1/2-z
1/2-x,1/2+y,1/2+z
1/2+x,1/2-y,1/2+z
loop_
_atom_site_type_symbol
_atom_site_label
_atom_site_fract_x
_atom_site_fract_y
_atom_site_fract_z
Si Si1 0.177069 0.934345 0.437414
Si Si2 0.321491 0.873630 0.332372
Si Si3 0.679071 0.360793 0.380378
Si Si4 0.320894 0.250035 0.312427
Si Si5 0.820560 0.565100 0.715820
Si Si6 0.500000 0.000000 0.000000
Si Si7 0.334829 0.884672 0.000000
O O1 0.228128 0.914943 0.500000
O O2 0.256880 0.906266 0.385199
O O3 0.000000 0.925090 0.433718
O O4 0.201052 0.000000 0.434804
O O5 0.500000 0.877214 0.332986
O O6 0.279065 0.809562 0.337371
O O7 0.273837 0.901036 0.272321
O O8 0.500000 0.363254 0.383033
O O9 0.722838 0.302461 0.350683
O O10 0.741961 0.408280 0.338737
O O11 0.748275 0.368115 0.442831
O O12 0.500000 0.251841 0.306629
O O13 0.250000 0.250000 0.250000
O O14 0.787786 0.500000 0.722068
O O15 0.000000 0.570580 0.709289
O O16 0.372404 0.049733 0.000000
O O17 0.500000 0.857964 0.000000
#
# Coordination Sequence:
#
# PCOD9522243 Si02
#       7
#    16  16  16  16  16   2   8
#     4   9  19  36  56  79 112 151 186 229 284 337
#     4  10  20  36  57  83 112 148 191 235 279 335
#     4  11  23  39  60  88 119 152 193 246 298 351
#     4  10  21  38  60  84 114 150 190 232 284 340
#     4  10  21  35  56  84 117 152 188 233 286 349
#     4   8  24  44  70  88 112 156 214 244 296 372
#     4  10  23  43  65  85 113 156 197 244 294 356
#
# _framework density 17.618456999999999
#
# number of rings (size 3 to 8) (size 9 to 14) (size 15 to 20)
#    0.267    1.778    1.778    1.867    1.244    3.911 
#    1.600    1.333    0.000    0.000    0.000    0.000 
#    0.000    0.000    0.000    0.000    0.000    0.000 
#
# Total GULP energy -250747.203352 kJ/mol
# GULP energy per Si atom -5572.160074 kJ/mol
# Density = 1.757836 g / cm^3
# Si number density = 17.618457 Si / 1000 Ang^3
#
#
#
# Elastic Constant Matrix: (Units=GPa)
#
#
# Indices 1 2 3 4 5 6 
#
# 1 26.7075 39.7994 41.2634 0.0000 0.0000 0.0000
# 2 39.7994 103.8797 62.6527 0.0000 0.0000 0.0000
# 3 41.2634 62.6527 148.4955 0.0000 0.0000 0.0000
# 4 0.0000 0.0000 0.0000 20.3381 0.0000 0.0000
# 5 0.0000 0.0000 0.0000 0.0000 34.8472 0.0000
# 6 0.0000 0.0000 0.0000 0.0000 0.0000 27.3454
#
#
#
# Elastic Compliance Matrix: (Units=1/GPa)
#
#
# Indices 1 2 3 4 5 6 
#
# 1 0.114046 -0.032971 -0.017780 0.000000 0.000000 0.000000
# 2 -0.032971 0.022444 -0.000308 0.000000 0.000000 0.000000
# 3 -0.017780 -0.000308 0.011805 0.000000 0.000000 0.000000
# 4 0.000000 0.000000 0.000000 0.049169 0.000000 0.000000
# 5 0.000000 0.000000 0.000000 0.000000 0.028697 0.000000
# 6 0.000000 0.000000 0.000000 0.000000 0.000000 0.036569
#
#
# Mechanical properties :
#
#
# Convention : Reuss Voigt Hill
#
# Bulk Modulus (GPa) = 21.65534 62.94596 42.30065
# Shear Modulus (GPa) = 13.14961 25.53062 19.34011
#
# Velocity S-wave (km/s) = 2.73491 3.81081 3.31678
# Velocity P-wave (km/s) = 4.72133 7.42751 6.22330
#
# Compressibility (1/GPa) = 0.04617799
#
# Stress axis : x y z
#
# Youngs Moduli (GPa) = 8.76839 44.55463 84.71265
#
# Poissons Ratio (x) = 1.46901 1.50616
# Poissons Ratio (y) = 0.28910 0.02607
# Poissons Ratio (z) = 0.15590 0.01371
#
# Static dielectric constant tensor:
#      x y z
#    x 1.593440 0.000000 0.000000 
#    y 0.000000 1.607810 0.000000 
#    z 0.000000 0.000000 1.584060 
# 
# From -- ./inp_files/50616.got.cif
#   From: 2010.05.17/outbox.cif.g08.bks.cpg/sg71_26_cif.got.tgz:50616.got - 2010.06.03 16:22:01.
