data_PCOD9522923
_publ_section_title
;
Structure prediction by ZEFSAII (Michael W. Deem and Ramdas Pophale) SiO2 
 PCOD9522923
Probable space group: I M M M
;
_chemical_formula_sum "Si O2"
_cell_formula_units_Z 96
_cell_length_a 19.710527
_cell_length_b 7.681545
_cell_length_c 31.196411
_cell_angle_alpha 90.000000
_cell_angle_beta 90.000000
_cell_angle_gamma 90.000000
_cell_volume 4723.364363
_symmetry_space_group_name_H-M "I M M M"
_symmetry_group_IT_number 71
_symmetry_cell_setting 'orthorhombic'
loop_
_space_group_symop_operation_xyz
x,y,z
-x,-y,z
x,-y,-z
-x,y,-z
-x,-y,-z
x,y,-z
-x,y,z
x,-y,z
1/2+x,1/2+y,1/2+z
1/2-x,1/2-y,1/2+z
1/2+x,1/2-y,1/2-z
1/2-x,1/2+y,1/2-z
1/2-x,1/2-y,1/2-z
1/2+x,1/2+y,1/2-z
1/2-x,1/2+y,1/2+z
1/2+x,1/2-y,1/2+z
loop_
_atom_site_type_symbol
_atom_site_label
_atom_site_fract_x
_atom_site_fract_y
_atom_site_fract_z
Si Si1 0.076344 0.207052 0.873911
Si Si2 0.324533 0.291852 0.699353
Si Si3 0.327712 0.207750 0.451373
Si Si4 0.078054 0.713510 0.375247
Si Si5 0.174259 0.291731 0.451420
Si Si6 0.170494 0.289966 0.703361
O O1 0.123607 0.279150 0.835829
O O2 0.115957 0.231047 0.918322
O O3 0.000000 0.278601 0.874751
O O4 0.070972 0.000000 0.866691
O O5 0.320512 0.500000 0.693360
O O6 0.247306 0.224670 0.694871
O O7 0.347396 0.258523 0.748012
O O8 0.337029 0.275198 0.500000
O O9 0.251648 0.258240 0.437236
O O10 0.330538 0.000000 0.452810
O O11 0.078407 0.500000 0.375469
O O12 0.120354 0.772783 0.416815
O O13 0.118003 0.770027 0.332605
O O14 0.000000 0.768886 0.375916
O O15 0.166463 0.222261 0.500000
O O16 0.166022 0.500000 0.453621
O O17 0.172278 0.500000 0.701324
#
# Coordination Sequence:
#
# PCOD9522923 Si02
#       6
#    16  16  16  16  16  16
#     4  10  21  36  54  76 102 133 167 204 249 299
#     4   9  18  33  51  71  97 128 165 209 250 289
#     4  10  21  36  54  76 102 132 166 206 250 295
#     4   9  17  29  47  74 106 135 165 206 253 298
#     4   9  17  31  53  77 100 131 171 211 249 292
#     4   9  17  30  49  71  96 130 169 206 246 293
#
# _framework density 20.324497000000001
#
# number of rings (size 3 to 8) (size 9 to 14) (size 15 to 20)
#    0.000    2.667    0.000    1.500    0.000    6.000 
#    0.000    7.500    0.000    1.500    0.000    2.333 
#    0.000    0.000    0.000    0.000    0.000    0.000 
#
# Total GULP energy -267922.042134 kJ/mol
# GULP energy per Si atom -5581.709211 kJ/mol
# Density = 2.027824 g / cm^3
# Si number density = 20.324497 Si / 1000 Ang^3
#
#
#
# Elastic Constant Matrix: (Units=GPa)
#
#
# Indices 1 2 3 4 5 6 
#
# 1 171.0578 -0.5092 120.1937 0.0000 0.0000 0.0000
# 2 -0.5092 32.6980 -4.6688 0.0000 0.0000 0.0000
# 3 120.1937 -4.6688 127.1258 0.0000 0.0000 0.0000
# 4 0.0000 0.0000 0.0000 -109.3405 0.0000 0.0000
# 5 0.0000 0.0000 0.0000 0.0000 -10.2419 0.0000
# 6 0.0000 0.0000 0.0000 0.0000 0.0000 -5.8921
#
#
#
# Elastic Compliance Matrix: (Units=1/GPa)
#
#
# Indices 1 2 3 4 5 6 
#
# 1 0.017559 -0.002108 -0.016679 0.000000 0.000000 0.000000
# 2 -0.002108 0.030997 0.003132 0.000000 0.000000 0.000000
# 3 -0.016679 0.003132 0.023751 0.000000 0.000000 0.000000
# 4 0.000000 0.000000 0.000000 -0.009146 0.000000 0.000000
# 5 0.000000 0.000000 0.000000 0.000000 -0.097638 0.000000
# 6 0.000000 0.000000 0.000000 0.000000 0.000000 -0.169720
#
#
# Mechanical properties :
#
#
# Convention : Reuss Voigt Hill
#
# Bulk Modulus (GPa) = 24.39267 62.32368 43.35818
# Shear Modulus (GPa) = -31.40332 -10.70383 -21.05358
#
# Velocity S-wave (km/s) = -3.93504 -2.29737 -3.22199
# Velocity P-wave (km/s) = 2.93570 4.86762 2.74548
#
# Compressibility (1/GPa) = 0.04099592
#
# Stress axis : x y z
#
# Youngs Moduli (GPa) = 56.94936 32.26095 42.10332
#
# Poissons Ratio (x) = 0.06801 0.70226
# Poissons Ratio (y) = 0.12006 -0.13185
# Poissons Ratio (z) = 0.94988 -0.10103
#
# Static dielectric constant tensor:
#      x y z
#    x 1.700460 0.000000 0.000000 
#    y 0.000000 1.759710 0.000000 
#    z 0.000000 0.000000 1.696030 
# 
# From -- ./inp_files/10914.got.cif
#   From: 2010.05.17/outbox.cif.g08.bks.cpg/sg71_6_cif.got.tgz:10914.got - 2010.06.03 16:22:01.
