data_PCOD9522157
_publ_section_title
;
Structure prediction by ZEFSAII (Michael W. Deem and Ramdas Pophale) SiO2 
 PCOD9522157
Probable space group: I M M M
;
_chemical_formula_sum "Si O2"
_cell_formula_units_Z 72
_cell_length_a 23.213294
_cell_length_b 19.494423
_cell_length_c 8.703084
_cell_angle_alpha 90.000000
_cell_angle_beta 90.000000
_cell_angle_gamma 90.000000
_cell_volume 3938.404622
_symmetry_space_group_name_H-M "I M M M"
_symmetry_group_IT_number 71
_symmetry_cell_setting 'orthorhombic'
loop_
_space_group_symop_operation_xyz
x,y,z
-x,-y,z
x,-y,-z
-x,y,-z
-x,-y,-z
x,y,-z
-x,y,z
x,-y,z
1/2+x,1/2+y,1/2+z
1/2-x,1/2-y,1/2+z
1/2+x,1/2-y,1/2-z
1/2-x,1/2+y,1/2-z
1/2-x,1/2-y,1/2-z
1/2+x,1/2+y,1/2-z
1/2-x,1/2+y,1/2+z
1/2+x,1/2-y,1/2+z
loop_
_atom_site_type_symbol
_atom_site_label
_atom_site_fract_x
_atom_site_fract_y
_atom_site_fract_z
Si Si1 0.166012 0.920328 0.815782
Si Si2 0.734713 0.824830 0.684196
Si Si3 0.000000 0.578327 0.812763
Si Si4 0.433347 0.673898 0.184112
Si Si5 0.102512 0.678359 0.185400
O O1 0.220981 0.879828 0.750667
O O2 0.109318 0.882048 0.754591
O O3 0.166760 0.000000 0.769997
O O4 0.166836 0.916053 0.000000
O O5 0.740019 0.822979 0.500000
O O6 0.750000 0.750000 0.750000
O O7 0.668234 0.840052 0.724048
O O8 0.943557 0.621093 0.766046
O O9 0.000000 0.500000 0.758497
O O10 0.000000 0.576634 0.000000
O O11 0.500000 0.662768 0.227989
O O12 0.413938 0.748745 0.242256
O O13 0.429004 0.671973 0.000000
O O14 0.099011 0.685420 0.000000
#
# Coordination Sequence:
#
# PCOD9522157 Si02
#       5
#    16  16   8  16  16
#     4  11  25  43  62  87 121 161 204 252 306 360
#     4  11  22  36  60  92 122 158 203 248 297 358
#     4   9  18  34  57  87 120 153 194 243 291 344
#     4  11  23  38  61  91 120 155 198 248 306 368
#     4  10  20  35  60  89 118 157 200 245 294 353
#
# _framework density 18.281513
#
# number of rings (size 3 to 8) (size 9 to 14) (size 15 to 20)
#    0.000    1.444    3.333    2.000    0.000    5.333 
#    0.000    4.444    0.000    1.333    0.000    0.000 
#    0.000    0.000    0.000    0.000    0.000    0.000 
#
# Total GULP energy -201189.361942 kJ/mol
# GULP energy per Si atom -5588.593387 kJ/mol
# Density = 1.823990 g / cm^3
# Si number density = 18.281513 Si / 1000 Ang^3
#
#
#
# Elastic Constant Matrix: (Units=GPa)
#
#
# Indices 1 2 3 4 5 6 
#
# 1 210.6049 120.3912 59.1256 0.0000 0.0000 0.0000
# 2 120.3912 193.3399 48.7953 0.0000 0.0000 0.0000
# 3 59.1256 48.7953 37.6079 0.0000 0.0000 0.0000
# 4 0.0000 0.0000 0.0000 22.3608 0.0000 0.0000
# 5 0.0000 0.0000 0.0000 0.0000 26.7643 0.0000
# 6 0.0000 0.0000 0.0000 0.0000 0.0000 33.4022
#
#
#
# Elastic Compliance Matrix: (Units=1/GPa)
#
#
# Indices 1 2 3 4 5 6 
#
# 1 0.009711 -0.003262 -0.011035 0.000000 0.000000 0.000000
# 2 -0.003262 0.008786 -0.006272 0.000000 0.000000 0.000000
# 3 -0.011035 -0.006272 0.052076 0.000000 0.000000 0.000000
# 4 0.000000 0.000000 0.000000 0.044721 0.000000 0.000000
# 5 0.000000 0.000000 0.000000 0.000000 0.037363 0.000000
# 6 0.000000 0.000000 0.000000 0.000000 0.000000 0.029938
#
#
# Mechanical properties :
#
#
# Convention : Reuss Voigt Hill
#
# Bulk Modulus (GPa) = 33.97164 99.79744 66.88454
# Shear Modulus (GPa) = 21.40924 30.72150 26.06537
#
# Velocity S-wave (km/s) = 3.42583 4.10380 3.78004
# Velocity P-wave (km/s) = 5.85416 8.78423 7.46438
#
# Compressibility (1/GPa) = 0.02943632
#
# Stress axis : x y z
#
# Youngs Moduli (GPa) = 102.97867 113.81421 19.20274
#
# Poissons Ratio (x) = 0.37125 0.21190
# Poissons Ratio (y) = 0.33590 0.12043
# Poissons Ratio (z) = 1.13634 0.71382
#
# Static dielectric constant tensor:
#      x y z
#    x 1.624100 0.000000 0.000000 
#    y 0.000000 1.587160 0.000000 
#    z 0.000000 0.000000 1.618420 
# 
# From -- ./inp_files/12178.got.cif
#   From: 2010.05.17/outbox.cif.g08.bks.cpg/sg71_7_cif.got.tgz:12178.got - 2010.06.03 16:22:01.
