data_PCOD9522639
_publ_section_title
;
Structure prediction by ZEFSAII (Michael W. Deem and Ramdas Pophale) SiO2 
 PCOD9522639
Probable space group: I M M M
;
_chemical_formula_sum "Si O2"
_cell_formula_units_Z 68
_cell_length_a 9.763113
_cell_length_b 21.898603
_cell_length_c 16.076941
_cell_angle_alpha 90.000000
_cell_angle_beta 90.000000
_cell_angle_gamma 90.000000
_cell_volume 3437.226443
_symmetry_space_group_name_H-M "I M M M"
_symmetry_group_IT_number 71
_symmetry_cell_setting 'orthorhombic'
loop_
_space_group_symop_operation_xyz
x,y,z
-x,-y,z
x,-y,-z
-x,y,-z
-x,-y,-z
x,y,-z
-x,y,z
x,-y,z
1/2+x,1/2+y,1/2+z
1/2-x,1/2-y,1/2+z
1/2+x,1/2-y,1/2-z
1/2-x,1/2+y,1/2-z
1/2-x,1/2-y,1/2-z
1/2+x,1/2+y,1/2-z
1/2-x,1/2+y,1/2+z
1/2+x,1/2-y,1/2+z
loop_
_atom_site_type_symbol
_atom_site_label
_atom_site_fract_x
_atom_site_fract_y
_atom_site_fract_z
Si Si1 0.339236 0.745511 0.099375
Si Si2 0.500000 0.390133 0.500000
Si Si3 0.844158 0.890027 0.338007
Si Si4 0.716584 0.631216 0.648626
Si Si5 0.841927 0.500000 0.099929
Si Si6 0.000000 0.572991 0.402838
O O1 0.500000 0.756683 0.119640
O O2 0.307258 0.676678 0.126333
O O3 0.244521 0.796185 0.141558
O O4 0.323982 0.751717 0.000000
O O5 0.381132 0.388460 0.573411
O O6 0.840804 0.885567 0.238413
O O7 0.739007 0.940833 0.368205
O O8 0.000000 0.904299 0.365525
O O9 0.863430 0.599361 0.637496
O O10 0.000000 0.500000 0.128295
O O11 0.840618 0.500000 0.000000
O O12 0.000000 0.500000 0.398251
O O13 0.000000 0.591682 0.500000
#
# Coordination Sequence:
#
# PCOD9522639 Si02
#       6
#    16   4  16  16   8   8
#     4  10  20  39  67  95 129 177 223 271 335 405
#     4  12  24  42  65  96 144 179 218 280 344 398
#     4  11  25  42  68 101 133 174 228 277 340 406
#     4  12  23  43  65  99 136 177 222 279 336 402
#     4  11  27  51  71  99 136 176 225 282 339 400
#     4  11  24  42  67  92 124 181 232 263 331 402
#
# _framework density 19.783393
#
# number of rings (size 3 to 8) (size 9 to 14) (size 15 to 20)
#    0.000    0.941    4.706    1.765    3.294    1.882 
#    2.118    1.176    0.000    0.000    0.000    0.000 
#    0.000    0.000    0.000    0.000    0.000    0.000 
#
# Total GULP energy -189644.082348 kJ/mol
# GULP energy per Si atom -5577.767128 kJ/mol
# Density = 1.973837 g / cm^3
# Si number density = 19.783393 Si / 1000 Ang^3
#
#
#
# Elastic Constant Matrix: (Units=GPa)
#
#
# Indices 1 2 3 4 5 6 
#
# 1 131.8083 49.9533 26.3921 0.0000 0.0000 0.0000
# 2 49.9533 69.0692 30.1948 0.0000 0.0000 0.0000
# 3 26.3921 30.1948 63.1984 0.0001 0.0000 0.0000
# 4 0.0000 0.0000 0.0001 32.5520 0.0000 0.0000
# 5 0.0000 0.0000 0.0000 0.0000 33.9011 0.0000
# 6 0.0000 0.0000 0.0000 0.0000 0.0000 -3.8498
#
#
#
# Elastic Compliance Matrix: (Units=1/GPa)
#
#
# Indices 1 2 3 4 5 6 
#
# 1 0.010497 -0.007174 -0.000956 0.000000 0.000000 0.000000
# 2 -0.007174 0.023203 -0.008090 0.000000 0.000000 0.000000
# 3 -0.000956 -0.008090 0.020088 0.000000 0.000000 0.000000
# 4 0.000000 0.000000 0.000000 0.030720 0.000000 0.000000
# 5 0.000000 0.000000 0.000000 0.000000 0.029498 0.000000
# 6 0.000000 0.000000 0.000000 0.000000 0.000000 -0.259750
#
#
# Mechanical properties :
#
#
# Convention : Reuss Voigt Hill
#
# Bulk Modulus (GPa) = 46.84315 53.01736 49.93025
# Shear Modulus (GPa) = -47.08618 23.02301 -12.03158
#
# Velocity S-wave (km/s) = -4.88391 3.41509 -2.46878
# Velocity P-wave (km/s) = 2.84147 6.51211 4.14328
#
# Compressibility (1/GPa) = 0.02134784
#
# Stress axis : x y z
#
# Youngs Moduli (GPa) = 95.26550 43.09718 49.78143
#
# Poissons Ratio (x) = 0.30917 0.04760
# Poissons Ratio (y) = 0.68342 0.40274
# Poissons Ratio (z) = 0.09109 0.34867
#
# Static dielectric constant tensor:
#      x y z
#    x 1.695930 0.000000 0.000000 
#    y 0.000000 1.691550 0.000000 
#    z 0.000000 0.000000 1.673600 
# 
# From -- ./inp_files/41950.got.cif
#   From: 2010.05.17/outbox.cif.g08.bks.cpg/sg71_21_cif.got.tgz:41950.got - 2010.06.03 16:22:01.
