data_PCOD9522557
_publ_section_title
;
Structure prediction by ZEFSAII (Michael W. Deem and Ramdas Pophale) SiO2 
 PCOD9522557
Probable space group: I M M M
;
_chemical_formula_sum "Si O2"
_cell_formula_units_Z 116
_cell_length_a 26.245721
_cell_length_b 28.455350
_cell_length_c 7.858422
_cell_angle_alpha 90.000000
_cell_angle_beta 90.000000
_cell_angle_gamma 90.000000
_cell_volume 5868.914552
_symmetry_space_group_name_H-M "I M M M"
_symmetry_group_IT_number 71
_symmetry_cell_setting 'orthorhombic'
loop_
_space_group_symop_operation_xyz
x,y,z
-x,-y,z
x,-y,-z
-x,y,-z
-x,-y,-z
x,y,-z
-x,y,z
x,-y,z
1/2+x,1/2+y,1/2+z
1/2-x,1/2-y,1/2+z
1/2+x,1/2-y,1/2-z
1/2-x,1/2+y,1/2-z
1/2-x,1/2-y,1/2-z
1/2+x,1/2+y,1/2-z
1/2-x,1/2+y,1/2+z
1/2+x,1/2-y,1/2+z
loop_
_atom_site_type_symbol
_atom_site_label
_atom_site_fract_x
_atom_site_fract_y
_atom_site_fract_z
Si Si1 0.877514 0.172588 0.201175
Si Si2 0.558154 0.237546 0.796705
Si Si3 0.635012 0.947152 0.295056
Si Si4 0.234893 0.802084 0.203475
Si Si5 0.058869 0.634116 0.795278
Si Si6 0.142883 0.927344 0.307947
Si Si7 0.876372 0.000000 0.000000
Si Si8 0.758083 0.402579 0.295321
O O1 0.914494 0.216235 0.228974
O O2 0.822362 0.189430 0.264658
O O3 0.885855 0.122791 0.290101
O O4 0.874027 0.162948 0.000000
O O5 0.500000 0.237463 0.733604
O O6 0.579428 0.186200 0.748331
O O7 0.558443 0.240375 0.000000
O O8 0.630623 0.947865 0.500000
O O9 0.595619 0.907406 0.231498
O O10 0.692904 0.932733 0.253009
O O11 0.624262 0.000000 0.232355
O O12 0.250000 0.750000 0.250000
O O13 0.266290 0.848066 0.259798
O O14 0.235047 0.803867 0.000000
O O15 0.000000 0.630190 0.732590
O O16 0.057065 0.630947 0.000000
O O17 0.135041 0.945055 0.500000
O O18 0.125914 0.959672 0.152084
O O19 0.204052 0.919063 0.281257
O O20 0.752155 0.404627 0.500000
#
# Coordination Sequence:
#
# PCOD9522557 Si02
#       8
#    16  16  16  16  16  16   4  16
#     4  10  20  38  57  83 122 153 194 245 295 356
#     4  10  21  36  58  88 117 149 193 242 298 366
#     4  10  22  36  53  79 106 144 198 249 305 367
#     4   9  20  34  51  75 108 149 188 233 286 351
#     4   9  19  37  57  78 107 143 188 245 309 372
#     4  11  22  38  61  88 120 165 204 251 298 345
#     4  12  22  40  60  90 125 162 211 244 302 344
#     4  10  21  38  52  76 115 149 197 248 296 354
#
# _framework density 19.765153999999999
#
# number of rings (size 3 to 8) (size 9 to 14) (size 15 to 20)
#    0.000    2.069    1.379    2.276    2.897    5.241 
#    0.000    1.379    0.000    0.000    0.000    3.862 
#    0.000    2.207    0.000    0.000    0.000    0.000 
#
# Total GULP energy -322998.067909 kJ/mol
# GULP energy per Si atom -5568.932205 kJ/mol
# Density = 1.972017 g / cm^3
# Si number density = 19.765154 Si / 1000 Ang^3
#
#
#
# Elastic Constant Matrix: (Units=GPa)
#
#
# Indices 1 2 3 4 5 6 
#
# 1 39.2266 43.7005 4.8539 0.0000 0.0000 0.0000
# 2 43.7005 172.6427 35.9454 0.0000 0.0000 0.0000
# 3 4.8539 35.9454 82.7578 0.0000 0.0000 0.0000
# 4 0.0000 0.0000 0.0000 17.4638 0.0000 0.0000
# 5 0.0000 0.0000 0.0000 0.0000 15.6069 0.0000
# 6 0.0000 0.0000 0.0000 0.0000 0.0000 14.3159
#
#
#
# Elastic Compliance Matrix: (Units=1/GPa)
#
#
# Indices 1 2 3 4 5 6 
#
# 1 0.035810 -0.009485 0.002019 0.000000 0.000000 0.000000
# 2 -0.009485 0.008880 -0.003301 0.000000 0.000000 0.000000
# 3 0.002019 -0.003301 0.013399 0.000000 0.000000 0.000000
# 4 0.000000 0.000000 0.000000 0.057261 0.000000 0.000000
# 5 0.000000 0.000000 0.000000 0.000000 0.064074 0.000000
# 6 0.000000 0.000000 0.000000 0.000000 0.000000 0.069852
#
#
# Mechanical properties :
#
#
# Convention : Reuss Voigt Hill
#
# Bulk Modulus (GPa) = 27.35513 51.51408 39.43460
# Shear Modulus (GPa) = 17.66818 23.48582 20.57700
#
# Velocity S-wave (km/s) = 2.99307 3.45083 3.23007
# Velocity P-wave (km/s) = 5.08082 6.48053 5.82289
#
# Compressibility (1/GPa) = 0.03655622
#
# Stress axis : x y z
#
# Youngs Moduli (GPa) = 27.92541 112.60702 74.63397
#
# Poissons Ratio (x) = 1.06806 -0.15072
# Poissons Ratio (y) = 0.26487 0.24636
# Poissons Ratio (z) = -0.05639 0.37170
#
# Static dielectric constant tensor:
#      x y z
#    x 1.703560 0.000000 0.000000 
#    y 0.000000 1.728430 0.000000 
#    z 0.000000 0.000000 1.707930 
# 
# From -- ./inp_files/13420.got.cif
#   From: 2010.05.17/outbox.cif.g08.bks.cpg/sg71_7_cif.got.tgz:13420.got - 2010.06.03 16:22:01.
