data_PCOD9522252
_publ_section_title
;
Structure prediction by ZEFSAII (Michael W. Deem and Ramdas Pophale) SiO2 
 PCOD9522252
Probable space group: I M M M
;
_chemical_formula_sum "Si O2"
_cell_formula_units_Z 60
_cell_length_a 10.478930
_cell_length_b 27.968667
_cell_length_c 11.715184
_cell_angle_alpha 90.000000
_cell_angle_beta 90.000000
_cell_angle_gamma 90.000000
_cell_volume 3433.506086
_symmetry_space_group_name_H-M "I M M M"
_symmetry_group_IT_number 71
_symmetry_cell_setting 'orthorhombic'
loop_
_space_group_symop_operation_xyz
x,y,z
-x,-y,z
x,-y,-z
-x,y,-z
-x,-y,-z
x,y,-z
-x,y,z
x,-y,z
1/2+x,1/2+y,1/2+z
1/2-x,1/2-y,1/2+z
1/2+x,1/2-y,1/2-z
1/2-x,1/2+y,1/2-z
1/2-x,1/2-y,1/2-z
1/2+x,1/2+y,1/2-z
1/2-x,1/2+y,1/2+z
1/2+x,1/2-y,1/2+z
loop_
_atom_site_type_symbol
_atom_site_label
_atom_site_fract_x
_atom_site_fract_y
_atom_site_fract_z
Si Si1 0.150125 0.055113 0.750116
Si Si2 0.745289 0.852494 0.864109
Si Si3 0.242747 0.444646 0.000000
Si Si4 0.500000 0.185967 0.268529
Si Si5 0.500000 0.708330 0.636407
Si Si6 0.000000 0.624717 0.000000
O O1 0.230289 0.093960 0.818974
O O2 0.176436 0.062181 0.615313
O O3 0.000000 0.061619 0.773923
O O4 0.183543 0.000000 0.777405
O O5 0.625078 0.829270 0.801519
O O6 0.873514 0.822340 0.838004
O O7 0.726817 0.852524 0.000000
O O8 0.124339 0.408868 0.000000
O O9 0.198309 0.500000 0.000000
O O10 0.500000 0.242103 0.296246
O O11 0.500000 0.157314 0.387675
O O12 0.500000 0.718135 0.500000
#
# Coordination Sequence:
#
# PCOD9522252 Si02
#       6
#    16  16   8   8   8   4
#     4  10  20  36  61  89 118 154 195 244 293 345
#     4  11  23  40  62  87 122 157 194 238 294 353
#     4  10  20  36  57  87 120 154 196 242 295 342
#     4  12  23  41  61  87 121 153 196 245 296 350
#     4  10  22  41  65  88 111 153 204 246 289 342
#     4  12  21  34  62  86 112 154 199 238 292 358
#
# _framework density 17.474848999999999
#
# number of rings (size 3 to 8) (size 9 to 14) (size 15 to 20)
#    0.000    1.333    4.667    1.800    0.000    2.133 
#    0.000    2.000    2.933    1.600    0.000    0.000 
#    0.000    0.000    0.000    0.000    0.000    0.000 
#
# Total GULP energy -167573.547669 kJ/mol
# GULP energy per Si atom -5585.784922 kJ/mol
# Density = 1.743508 g / cm^3
# Si number density = 17.474849 Si / 1000 Ang^3
#
#
#
# Elastic Constant Matrix: (Units=GPa)
#
#
# Indices 1 2 3 4 5 6 
#
# 1 118.6683 61.0114 53.9463 0.0003 0.0002 0.0000
# 2 61.0114 125.8227 61.1783 0.0001 0.0000 -0.0001
# 3 53.9463 61.1783 98.0166 0.0006 0.0007 0.0000
# 4 0.0003 0.0001 0.0006 26.0339 0.0001 0.0000
# 5 0.0002 0.0000 0.0007 0.0001 25.3168 0.0000
# 6 0.0000 -0.0001 0.0000 0.0000 0.0000 21.0030
#
#
#
# Elastic Compliance Matrix: (Units=1/GPa)
#
#
# Indices 1 2 3 4 5 6 
#
# 1 0.012430 -0.003878 -0.004421 0.000000 0.000000 0.000000
# 2 -0.003878 0.012620 -0.005743 0.000000 0.000000 0.000000
# 3 -0.004421 -0.005743 0.016220 0.000000 0.000000 0.000000
# 4 0.000000 0.000000 0.000000 0.038411 0.000000 0.000000
# 5 0.000000 0.000000 0.000000 0.000000 0.039499 0.000000
# 6 0.000000 0.000000 0.000000 0.000000 0.000000 0.047612
#
#
# Mechanical properties :
#
#
# Convention : Reuss Voigt Hill
#
# Bulk Modulus (GPa) = 75.83028 77.19772 76.51400
# Shear Modulus (GPa) = 25.09120 25.56221 25.32670
#
# Velocity S-wave (km/s) = 3.79337 3.82881 3.81113
# Velocity P-wave (km/s) = 7.91671 7.98866 7.95277
#
# Compressibility (1/GPa) = 0.01318734
#
# Stress axis : x y z
#
# Youngs Moduli (GPa) = 80.44819 79.23672 61.65204
#
# Poissons Ratio (x) = 0.30727 0.27256
# Poissons Ratio (y) = 0.31197 0.35406
# Poissons Ratio (z) = 0.35566 0.45505
#
# Static dielectric constant tensor:
#      x y z
#    x 1.562790 0.000000 0.000000 
#    y 0.000000 1.574770 0.000000 
#    z 0.000000 0.000000 1.569600 
# 
# From -- ./inp_files/18328.got.cif
#   From: 2010.05.17/outbox.cif.g08.bks.cpg/sg71_10_cif.got.tgz:18328.got - 2010.06.03 16:22:01.
