data_PCOD9522533
_publ_section_title
;
Structure prediction by ZEFSAII (Michael W. Deem and Ramdas Pophale) SiO2 
 PCOD9522533
Probable space group: I M M M
;
_chemical_formula_sum "Si O2"
_cell_formula_units_Z 90
_cell_length_a 22.863052
_cell_length_b 23.442625
_cell_length_c 7.391700
_cell_angle_alpha 90.000000
_cell_angle_beta 90.000000
_cell_angle_gamma 90.000000
_cell_volume 3961.729112
_symmetry_space_group_name_H-M "I M M M"
_symmetry_group_IT_number 71
_symmetry_cell_setting 'orthorhombic'
loop_
_space_group_symop_operation_xyz
x,y,z
-x,-y,z
x,-y,-z
-x,y,-z
-x,-y,-z
x,y,-z
-x,y,z
x,-y,z
1/2+x,1/2+y,1/2+z
1/2-x,1/2-y,1/2+z
1/2+x,1/2-y,1/2-z
1/2-x,1/2+y,1/2-z
1/2-x,1/2-y,1/2-z
1/2+x,1/2+y,1/2-z
1/2-x,1/2+y,1/2+z
1/2+x,1/2-y,1/2+z
loop_
_atom_site_type_symbol
_atom_site_label
_atom_site_fract_x
_atom_site_fract_y
_atom_site_fract_z
Si Si1 0.123647 0.270397 0.719932
Si Si2 0.500000 0.588962 0.782800
Si Si3 0.888737 0.500000 0.223562
Si Si4 0.319487 0.887079 0.292213
Si Si5 0.500000 0.720295 0.220068
Si Si6 0.296865 0.331610 0.205886
Si Si7 0.369517 0.561280 0.709136
Si Si8 0.000000 0.500000 0.500000
O O1 0.124593 0.269509 0.500000
O O2 0.136584 0.333926 0.782645
O O3 0.172709 0.224886 0.783799
O O4 0.059789 0.249782 0.778718
O O5 0.500000 0.654716 0.724292
O O6 0.439540 0.562519 0.718983
O O7 0.500000 0.585884 0.000000
O O8 0.850773 0.556072 0.274844
O O9 0.948134 0.500000 0.339631
O O10 0.897874 0.500000 0.000000
O O11 0.304059 0.900803 0.500000
O O12 0.260228 0.860686 0.208058
O O13 0.500000 0.720865 0.000000
O O14 0.344866 0.381888 0.201270
O O15 0.280647 0.315889 0.000000
O O16 0.351850 0.564188 0.500000
O O17 0.348842 0.500000 0.783445
#
# Coordination Sequence:
#
# PCOD9522533 Si02
#       8
#    16   8   8  16   8  16  16   2
#     4  10  20  37  62  93 127 164 214 270 322 390
#     4  11  20  38  62  81 115 162 213 259 308 377
#     4  10  25  49  73 106 143 176 225 288 339 415
#     4  10  23  42  64  95 133 168 213 268 332 393
#     4   9  18  35  57  85 119 152 200 265 310 359
#     4  10  21  39  64  91 125 171 218 264 320 391
#     4  11  24  38  54  86 125 165 209 267 321 367
#     4  12  26  48  84 106 132 184 230 278 366 422
#
# _framework density 22.717354
#
# number of rings (size 3 to 8) (size 9 to 14) (size 15 to 20)
#    0.000    1.778    1.778    1.733    2.489    4.622 
#    1.600    1.333    0.000    0.000    0.000    0.000 
#    0.000    0.000    0.000    0.000    0.000    0.000 
#
# Total GULP energy -251130.637622 kJ/mol
# GULP energy per Si atom -5580.680836 kJ/mol
# Density = 2.266565 g / cm^3
# Si number density = 22.717354 Si / 1000 Ang^3
#
#
#
# Elastic Constant Matrix: (Units=GPa)
#
#
# Indices 1 2 3 4 5 6 
#
# 1 135.9155 71.4013 10.5874 0.0000 0.0000 0.0000
# 2 71.4013 192.9736 3.0023 0.0000 0.0000 0.0000
# 3 10.5874 3.0023 96.2761 0.0000 0.0000 0.0000
# 4 0.0000 0.0000 0.0000 10.9494 0.0000 0.0000
# 5 0.0000 0.0000 0.0000 0.0000 -5.0102 0.0000
# 6 0.0000 0.0000 0.0000 0.0000 0.0000 33.0137
#
#
#
# Elastic Compliance Matrix: (Units=1/GPa)
#
#
# Indices 1 2 3 4 5 6 
#
# 1 0.009211 -0.003394 -0.000907 0.000000 0.000000 0.000000
# 2 -0.003394 0.006435 0.000173 0.000000 0.000000 0.000000
# 3 -0.000907 0.000173 0.010481 0.000000 0.000000 0.000000
# 4 0.000000 0.000000 0.000000 0.091329 0.000000 0.000000
# 5 0.000000 0.000000 0.000000 0.000000 -0.199591 0.000000
# 6 0.000000 0.000000 0.000000 0.000000 0.000000 0.030290
#
#
# Mechanical properties :
#
#
# Convention : Reuss Voigt Hill
#
# Bulk Modulus (GPa) = 55.95868 66.12746 61.04307
# Shear Modulus (GPa) = -132.87209 30.46886 -51.20162
#
# Velocity S-wave (km/s) = -7.65612 3.66623 -4.75263
# Velocity P-wave (km/s) = 7.31224 6.86248 1.78539
#
# Compressibility (1/GPa) = 0.01787033
#
# Stress axis : x y z
#
# Youngs Moduli (GPa) = 108.56339 155.39534 95.40927
#
# Poissons Ratio (x) = 0.52742 0.08655
# Poissons Ratio (y) = 0.36847 -0.01646
# Poissons Ratio (z) = 0.09848 -0.02682
#
# Static dielectric constant tensor:
#      x y z
#    x 1.834530 0.000000 0.000000 
#    y 0.000000 1.815550 0.000000 
#    z 0.000000 0.000000 1.877370 
# 
# From -- ./inp_files/10585.got.cif
#   From: 2010.05.17/outbox.cif.g08.bks.cpg/sg71_6_cif.got.tgz:10585.got - 2010.06.03 16:22:01.
