data_PCOD9522820
_publ_section_title
;
Structure prediction by ZEFSAII (Michael W. Deem and Ramdas Pophale) SiO2 
 PCOD9522820
Probable space group: I M M M
;
_chemical_formula_sum "Si O2"
_cell_formula_units_Z 66
_cell_length_a 19.074273
_cell_length_b 9.400596
_cell_length_c 22.512738
_cell_angle_alpha 90.000000
_cell_angle_beta 90.000000
_cell_angle_gamma 90.000000
_cell_volume 4036.748570
_symmetry_space_group_name_H-M "I M M M"
_symmetry_group_IT_number 71
_symmetry_cell_setting 'orthorhombic'
loop_
_space_group_symop_operation_xyz
x,y,z
-x,-y,z
x,-y,-z
-x,y,-z
-x,-y,-z
x,y,-z
-x,y,z
x,-y,z
1/2+x,1/2+y,1/2+z
1/2-x,1/2-y,1/2+z
1/2+x,1/2-y,1/2-z
1/2-x,1/2+y,1/2-z
1/2-x,1/2-y,1/2-z
1/2+x,1/2+y,1/2-z
1/2-x,1/2+y,1/2+z
1/2+x,1/2-y,1/2+z
loop_
_atom_site_type_symbol
_atom_site_label
_atom_site_fract_x
_atom_site_fract_y
_atom_site_fract_z
Si Si1 0.149840 0.159503 0.429433
Si Si2 0.500000 0.762720 0.894129
Si Si3 0.500000 0.000000 0.000000
Si Si4 0.000000 0.334059 0.745177
Si Si5 0.724990 0.166404 0.836828
Si Si6 0.140173 0.167759 0.235166
O O1 0.145242 0.178164 0.500000
O O2 0.071894 0.176711 0.402931
O O3 0.200187 0.275555 0.399960
O O4 0.175602 0.000000 0.416546
O O5 0.500000 0.822115 0.827005
O O6 0.500000 0.877888 0.946967
O O7 0.931608 0.253294 0.769202
O O8 0.000000 0.500000 0.760812
O O9 0.806731 0.181535 0.820462
O O10 0.682218 0.262009 0.789934
O O11 0.706392 0.000000 0.829573
O O12 0.128025 0.000000 0.245724
#
# Coordination Sequence:
#
# PCOD9522820 Si02
#       6
#    16   8   2   8  16  16
#     4  11  23  36  52  74 104 142 181 218 259 307
#     4  12  23  33  49  72 105 145 182 216 255 296
#     4  12  24  36  46  72 112 144 186 230 254 280
#     4  12  23  33  53  81 104 135 181 217 262 314
#     4  10  21  35  53  75 103 136 177 215 261 310
#     4  10  21  36  53  75 103 138 171 217 266 314
#
# _framework density 16.349791
#
# number of rings (size 3 to 8) (size 9 to 14) (size 15 to 20)
#    0.000    1.212    4.242    2.182    1.697    5.333 
#    0.000    0.000    0.000    0.000    0.000    0.848 
#    0.000    6.788    0.000    0.000    0.000    0.000 
#
# Total GULP energy -183932.247135 kJ/mol
# GULP energy per Si atom -5573.704459 kJ/mol
# Density = 1.631258 g / cm^3
# Si number density = 16.349791 Si / 1000 Ang^3
#
#
#
# Elastic Constant Matrix: (Units=GPa)
#
#
# Indices 1 2 3 4 5 6 
#
# 1 106.7109 69.9047 29.1432 0.0000 0.0000 0.0000
# 2 69.9047 136.3508 32.3158 0.0000 0.0000 0.0000
# 3 29.1432 32.3158 40.1478 0.0000 0.0000 0.0000
# 4 0.0000 0.0000 0.0000 25.1493 0.0000 0.0000
# 5 0.0000 0.0000 0.0000 0.0000 19.9873 0.0000
# 6 0.0000 0.0000 0.0000 0.0000 0.0000 1.8590
#
#
#
# Elastic Compliance Matrix: (Units=1/GPa)
#
#
# Indices 1 2 3 4 5 6 
#
# 1 0.015151 -0.006378 -0.005864 0.000000 0.000000 0.000000
# 2 -0.006378 0.011748 -0.004826 0.000000 0.000000 0.000000
# 3 -0.005864 -0.004826 0.033050 0.000000 0.000000 0.000000
# 4 0.000000 0.000000 0.000000 0.039763 0.000000 0.000000
# 5 0.000000 0.000000 0.000000 0.000000 0.050032 0.000000
# 6 0.000000 0.000000 0.000000 0.000000 0.000000 0.537919
#
#
# Mechanical properties :
#
#
# Convention : Reuss Voigt Hill
#
# Bulk Modulus (GPa) = 38.74271 60.65965 49.70118
# Shear Modulus (GPa) = 6.84555 19.52218 13.18386
#
# Velocity S-wave (km/s) = 2.04842 3.45923 2.84273
# Velocity P-wave (km/s) = 5.41685 7.28949 6.42180
#
# Compressibility (1/GPa) = 0.02581131
#
# Stress axis : x y z
#
# Youngs Moduli (GPa) = 66.00440 85.12404 30.25736
#
# Poissons Ratio (x) = 0.54288 0.17744
# Poissons Ratio (y) = 0.42094 0.14604
# Poissons Ratio (z) = 0.38707 0.41085
#
# Static dielectric constant tensor:
#      x y z
#    x 1.550170 0.000000 0.000000 
#    y 0.000000 1.558130 0.000000 
#    z 0.000000 0.000000 1.543320 
# 
# From -- ./inp_files/50037.got.cif
#   From: 2010.05.17/outbox.cif.g08.bks.cpg/sg71_26_cif.got.tgz:50037.got - 2010.06.03 16:22:01.
