data_PCOD9522488
_publ_section_title
;
Structure prediction by ZEFSAII (Michael W. Deem and Ramdas Pophale) SiO2 
 PCOD9522488
Probable space group: I M M M
;
_chemical_formula_sum "Si O2"
_cell_formula_units_Z 60
_cell_length_a 7.602026
_cell_length_b 19.579898
_cell_length_c 19.423563
_cell_angle_alpha 90.000000
_cell_angle_beta 90.000000
_cell_angle_gamma 90.000000
_cell_volume 2891.137017
_symmetry_space_group_name_H-M "I M M M"
_symmetry_group_IT_number 71
_symmetry_cell_setting 'orthorhombic'
loop_
_space_group_symop_operation_xyz
x,y,z
-x,-y,z
x,-y,-z
-x,y,-z
-x,-y,-z
x,y,-z
-x,y,z
x,-y,z
1/2+x,1/2+y,1/2+z
1/2-x,1/2-y,1/2+z
1/2+x,1/2-y,1/2-z
1/2-x,1/2+y,1/2-z
1/2-x,1/2-y,1/2-z
1/2+x,1/2+y,1/2-z
1/2-x,1/2+y,1/2+z
1/2+x,1/2-y,1/2+z
loop_
_atom_site_type_symbol
_atom_site_label
_atom_site_fract_x
_atom_site_fract_y
_atom_site_fract_z
Si Si1 0.700906 0.766925 0.829330
Si Si2 0.807204 0.500000 0.743568
Si Si3 0.500000 0.500000 0.367691
Si Si4 0.197055 0.920730 0.500000
Si Si5 0.205188 0.891542 0.644396
Si Si6 0.500000 0.654426 0.583091
O O1 0.500000 0.793251 0.832399
O O2 0.750000 0.750000 0.750000
O O3 0.706547 0.689615 0.855777
O O4 0.833962 0.813481 0.873891
O O5 0.665133 0.500000 0.683997
O O6 0.785414 0.566749 0.792395
O O7 0.000000 0.500000 0.712992
O O8 0.500000 0.428081 0.408451
O O9 0.289930 0.907605 0.571450
O O10 0.000000 0.886093 0.500000
O O11 0.167263 0.000000 0.500000
O O12 0.000000 0.914288 0.644056
O O13 0.500000 0.670787 0.500000
#
# Coordination Sequence:
#
# PCOD9522488 Si02
#       6
#    16   8   4   8  16   8
#     4  11  24  44  72 105 144 185 236 294 360 431
#     4  12  24  38  68 104 134 179 241 290 343 419
#     4  12  27  52  74  91 136 182 236 304 369 412
#     4   9  16  30  54  84 126 182 217 255 322 411
#     4  10  20  37  60  92 138 182 224 275 344 417
#     4  12  29  50  76 107 140 187 246 305 368 434
#
# _framework density 20.753081999999999
#
# number of rings (size 3 to 8) (size 9 to 14) (size 15 to 20)
#    0.000    1.200    4.000    1.800    3.733    3.733 
#    0.000    1.333    0.000    2.400    0.000    0.000 
#    0.000    0.000    0.000    0.000    0.000    0.000 
#
# Total GULP energy -167230.847980 kJ/mol
# GULP energy per Si atom -5574.361599 kJ/mol
# Density = 2.070585 g / cm^3
# Si number density = 20.753082 Si / 1000 Ang^3
#
#
#
# Elastic Constant Matrix: (Units=GPa)
#
#
# Indices 1 2 3 4 5 6 
#
# 1 160.2379 36.9660 56.8913 0.0000 0.0000 0.0000
# 2 36.9660 95.1040 34.0953 0.0000 0.0000 0.0000
# 3 56.8913 34.0953 138.3658 0.0000 0.0000 0.0000
# 4 0.0000 0.0000 0.0000 50.4645 0.0000 0.0000
# 5 0.0000 0.0000 0.0000 0.0000 13.3791 0.0000
# 6 0.0000 0.0000 0.0000 0.0000 0.0000 6.6433
#
#
#
# Elastic Compliance Matrix: (Units=1/GPa)
#
#
# Indices 1 2 3 4 5 6 
#
# 1 0.007647 -0.002024 -0.002645 0.000000 0.000000 0.000000
# 2 -0.002024 0.012069 -0.002142 0.000000 0.000000 0.000000
# 3 -0.002645 -0.002142 0.008843 0.000000 0.000000 0.000000
# 4 0.000000 0.000000 0.000000 0.019816 0.000000 0.000000
# 5 0.000000 0.000000 0.000000 0.000000 0.074743 0.000000
# 6 0.000000 0.000000 0.000000 0.000000 0.000000 0.150528
#
#
# Mechanical properties :
#
#
# Convention : Reuss Voigt Hill
#
# Bulk Modulus (GPa) = 66.94994 72.17922 69.56458
# Shear Modulus (GPa) = 17.10881 31.81439 24.46160
#
# Velocity S-wave (km/s) = 2.87435 3.91960 3.43694
# Velocity P-wave (km/s) = 6.58378 7.43907 7.02445
#
# Compressibility (1/GPa) = 0.01493653
#
# Stress axis : x y z
#
# Youngs Moduli (GPa) = 130.77282 82.85452 113.08741
#
# Poissons Ratio (x) = 0.16769 0.29916
# Poissons Ratio (y) = 0.26467 0.24222
# Poissons Ratio (z) = 0.34595 0.17747
#
# Static dielectric constant tensor:
#      x y z
#    x 1.771160 0.000000 0.000000 
#    y 0.000000 1.697590 0.000000 
#    z 0.000000 0.000000 1.776420 
# 
# From -- ./inp_files/41895.got.cif
#   From: 2010.05.17/outbox.cif.g08.bks.cpg/sg71_21_cif.got.tgz:41895.got - 2010.06.03 16:22:01.
