data_PCOD9522055
_publ_section_title
;
Structure prediction by ZEFSAII (Michael W. Deem and Ramdas Pophale) SiO2 
 PCOD9522055
Probable space group: I M M M
;
_chemical_formula_sum "Si O2"
_cell_formula_units_Z 90
_cell_length_a 24.860287
_cell_length_b 7.798559
_cell_length_c 22.686887
_cell_angle_alpha 90.000000
_cell_angle_beta 90.000000
_cell_angle_gamma 90.000000
_cell_volume 4398.406944
_symmetry_space_group_name_H-M "I M M M"
_symmetry_group_IT_number 71
_symmetry_cell_setting 'orthorhombic'
loop_
_space_group_symop_operation_xyz
x,y,z
-x,-y,z
x,-y,-z
-x,y,-z
-x,-y,-z
x,y,-z
-x,y,z
x,-y,z
1/2+x,1/2+y,1/2+z
1/2-x,1/2-y,1/2+z
1/2+x,1/2-y,1/2-z
1/2-x,1/2+y,1/2-z
1/2-x,1/2-y,1/2-z
1/2+x,1/2+y,1/2-z
1/2-x,1/2+y,1/2+z
1/2+x,1/2-y,1/2+z
loop_
_atom_site_type_symbol
_atom_site_label
_atom_site_fract_x
_atom_site_fract_y
_atom_site_fract_z
Si Si1 0.500000 0.791993 0.168895
Si Si2 0.500000 0.000000 0.500000
Si Si3 0.382202 0.793419 0.839660
Si Si4 0.824406 0.302361 0.907888
Si Si5 0.116763 0.795200 0.797732
Si Si6 0.297646 0.205613 0.934676
Si Si7 0.000000 0.802407 0.804525
Si Si8 0.910979 0.809176 0.000000
O O1 0.557060 0.744635 0.140744
O O2 0.500000 0.706541 0.233399
O O3 0.500000 0.000000 0.177186
O O4 0.453030 0.153432 0.500000
O O5 0.375924 0.741490 0.771379
O O6 0.336556 0.726290 0.883393
O O7 0.379859 0.000000 0.840130
O O8 0.827652 0.500000 0.924941
O O9 0.837727 0.280572 0.839105
O O10 0.764812 0.239183 0.921968
O O11 0.870695 0.206629 0.944230
O O12 0.058098 0.725421 0.819708
O O13 0.115837 0.000000 0.804748
O O14 0.304689 0.000000 0.935935
O O15 0.310885 0.272361 0.000000
O O16 0.000000 0.000000 0.824454
O O17 0.935352 0.000000 0.000000
#
# Coordination Sequence:
#
# PCOD9522055 Si02
#       8
#     8   2  16  16  16  16   8   8
#     4   8  14  28  52  79 116 153 182 236 303 362
#     4  12  26  48  68 106 132 172 230 278 318 386
#     4   9  18  34  56  87 120 155 201 252 315 385
#     4  12  24  41  62  89 121 161 214 265 316 382
#     4  10  20  35  57  86 118 156 199 249 319 381
#     4  10  21  38  61  84 112 159 211 257 316 384
#     4   8  16  31  51  77 109 147 192 231 282 368
#     4  12  25  47  71  94 133 174 219 276 329 377
#
# _framework density 20.461953999999999
#
# number of rings (size 3 to 8) (size 9 to 14) (size 15 to 20)
#    0.000    1.956    1.778    2.267    0.000    2.844 
#    0.000    2.222    0.000    2.667    0.000    0.000 
#    0.000    8.533    0.000    0.000    0.000    0.000 
#
# Total GULP energy -250853.540317 kJ/mol
# GULP energy per Si atom -5574.523118 kJ/mol
# Density = 2.041538 g / cm^3
# Si number density = 20.461954 Si / 1000 Ang^3
#
#
#
# Elastic Constant Matrix: (Units=GPa)
#
#
# Indices 1 2 3 4 5 6 
#
# 1 103.7958 16.7388 60.4667 0.0000 0.0000 0.0000
# 2 16.7388 71.8534 7.6012 0.0000 0.0000 0.0000
# 3 60.4667 7.6012 98.9696 0.0000 0.0000 0.0000
# 4 0.0000 0.0000 0.0000 12.8019 0.0000 0.0000
# 5 0.0000 0.0000 0.0000 0.0000 -33.6604 0.0000
# 6 0.0000 0.0000 0.0000 0.0000 0.0000 21.3906
#
#
#
# Elastic Compliance Matrix: (Units=1/GPa)
#
#
# Indices 1 2 3 4 5 6 
#
# 1 0.015432 -0.002619 -0.009227 0.000000 0.000000 0.000000
# 2 -0.002619 0.014476 0.000488 0.000000 0.000000 0.000000
# 3 -0.009227 0.000488 0.015704 0.000000 0.000000 0.000000
# 4 0.000000 0.000000 0.000000 0.078113 0.000000 0.000000
# 5 0.000000 0.000000 0.000000 0.000000 -0.029709 0.000000
# 6 0.000000 0.000000 0.000000 0.000000 0.000000 0.046749
#
#
# Mechanical properties :
#
#
# Convention : Reuss Voigt Hill
#
# Bulk Modulus (GPa) = 43.67565 49.35915 46.51740
# Shear Modulus (GPa) = 29.22036 12.76058 20.99047
#
# Velocity S-wave (km/s) = 3.78303 2.49996 3.20633
# Velocity P-wave (km/s) = 6.36183 5.70156 6.04073
#
# Compressibility (1/GPa) = 0.02289606
#
# Stress axis : x y z
#
# Youngs Moduli (GPa) = 64.80035 69.08147 63.67754
#
# Poissons Ratio (x) = 0.18092 0.58757
# Poissons Ratio (y) = 0.16970 -0.03109
# Poissons Ratio (z) = 0.59793 -0.03373
#
# Static dielectric constant tensor:
#      x y z
#    x 1.740960 0.000000 0.000000 
#    y 0.000000 1.750040 0.000000 
#    z 0.000000 0.000000 1.740880 
# 
# From -- ./inp_files/55666.got.cif
#   From: 2010.05.17/outbox.cif.g08.bks.cpg/sg71_28_cif.got.tgz:55666.got - 2010.06.03 16:22:01.
