data_PCOD9522366
_publ_section_title
;
Structure prediction by ZEFSAII (Michael W. Deem and Ramdas Pophale) SiO2 
 PCOD9522366
Probable space group: I M M M
;
_chemical_formula_sum "Si O2"
_cell_formula_units_Z 80
_cell_length_a 7.700513
_cell_length_b 24.130903
_cell_length_c 18.724306
_cell_angle_alpha 90.000000
_cell_angle_beta 90.000000
_cell_angle_gamma 90.000000
_cell_volume 3479.356762
_symmetry_space_group_name_H-M "I M M M"
_symmetry_group_IT_number 71
_symmetry_cell_setting 'orthorhombic'
loop_
_space_group_symop_operation_xyz
x,y,z
-x,-y,z
x,-y,-z
-x,y,-z
-x,-y,-z
x,y,-z
-x,y,z
x,-y,z
1/2+x,1/2+y,1/2+z
1/2-x,1/2-y,1/2+z
1/2+x,1/2-y,1/2-z
1/2-x,1/2+y,1/2-z
1/2-x,1/2-y,1/2-z
1/2+x,1/2+y,1/2-z
1/2-x,1/2+y,1/2+z
1/2+x,1/2-y,1/2+z
loop_
_atom_site_type_symbol
_atom_site_label
_atom_site_fract_x
_atom_site_fract_y
_atom_site_fract_z
Si Si1 0.293981 0.565376 0.000000
Si Si2 0.204819 0.560695 0.652093
Si Si3 0.712460 0.835274 0.226361
Si Si4 0.703535 0.216371 0.076835
Si Si5 0.708338 0.837502 0.610731
Si Si6 0.706401 0.435405 0.500000
O O1 0.248071 0.604905 0.068758
O O2 0.227383 0.500000 0.000000
O O3 0.500000 0.560620 0.000000
O O4 0.285578 0.500000 0.652502
O O5 0.271016 0.602272 0.709928
O O6 0.228695 0.587518 0.574398
O O7 0.000000 0.555536 0.663214
O O8 0.500000 0.830945 0.226730
O O9 0.773350 0.801684 0.155683
O O10 0.770038 0.827730 0.307375
O O11 0.500000 0.200988 0.077069
O O12 0.718995 0.282719 0.073997
O O13 0.780069 0.196171 0.000000
O O14 0.500000 0.833889 0.610695
O O15 0.770479 0.500000 0.500000
O O16 0.500000 0.435753 0.500000
#
# Coordination Sequence:
#
# PCOD9522366 Si02
#       6
#     8  16  16  16  16   8
#     4  11  25  45  68  93 122 161 209 251 300 375
#     4   9  17  31  52  76 104 143 190 235 280 338
#     4   9  20  35  56  89 121 155 199 247 301 361
#     4  10  20  36  60  86 120 164 204 242 293 362
#     4  11  22  39  63  91 124 154 192 252 312 362
#     4   9  17  29  44  65  98 137 176 219 268 319
#
# _framework density 22.992754999999999
#
# number of rings (size 3 to 8) (size 9 to 14) (size 15 to 20)
#    0.000    2.200    1.000    1.800    1.400    2.800 
#    0.000    6.000    0.000    2.400    0.000    0.000 
#    0.000    0.000    0.000    0.000    0.000    0.000 
#
# Total GULP energy -222845.391340 kJ/mol
# GULP energy per Si atom -5571.134783 kJ/mol
# Density = 2.294042 g / cm^3
# Si number density = 22.992755 Si / 1000 Ang^3
#
#
#
# Elastic Constant Matrix: (Units=GPa)
#
#
# Indices 1 2 3 4 5 6 
#
# 1 53.8917 2.8212 2.7842 0.0000 0.0000 0.0000
# 2 2.8212 122.7044 71.7539 0.0000 0.0000 0.0000
# 3 2.7842 71.7539 212.6902 0.0000 0.0000 0.0000
# 4 0.0000 0.0000 0.0000 42.9431 0.0000 0.0000
# 5 0.0000 0.0000 0.0000 0.0000 4.4526 0.0000
# 6 0.0000 0.0000 0.0000 0.0000 0.0000 15.3215
#
#
#
# Elastic Compliance Matrix: (Units=1/GPa)
#
#
# Indices 1 2 3 4 5 6 
#
# 1 0.018581 -0.000355 -0.000123 0.000000 0.000000 0.000000
# 2 -0.000355 0.010159 -0.003423 0.000000 0.000000 0.000000
# 3 -0.000123 -0.003423 0.005858 0.000000 0.000000 0.000000
# 4 0.000000 0.000000 0.000000 0.023287 0.000000 0.000000
# 5 0.000000 0.000000 0.000000 0.000000 0.224589 0.000000
# 6 0.000000 0.000000 0.000000 0.000000 0.000000 0.065268
#
#
# Mechanical properties :
#
#
# Convention : Reuss Voigt Hill
#
# Bulk Modulus (GPa) = 37.31955 60.44500 48.88228
# Shear Modulus (GPa) = 13.71833 33.33857 23.52845
#
# Velocity S-wave (km/s) = 2.44527 3.81196 3.20237
# Velocity P-wave (km/s) = 4.92328 6.76170 5.91436
#
# Compressibility (1/GPa) = 0.02679560
#
# Stress axis : x y z
#
# Youngs Moduli (GPa) = 53.81932 98.43142 170.70666
#
# Poissons Ratio (x) = 0.03494 0.02108
# Poissons Ratio (y) = 0.01911 0.58429
# Poissons Ratio (z) = 0.00664 0.33691
#
# Static dielectric constant tensor:
#      x y z
#    x 1.860140 0.000000 0.000000 
#    y 0.000000 1.917820 0.000000 
#    z 0.000000 0.000000 1.918520 
# 
# From -- ./inp_files/42270.got.cif
#   From: 2010.05.17/outbox.cif.g08.bks.cpg/sg71_22_cif.got.tgz:42270.got - 2010.06.03 16:22:01.
