data_PCOD9522967
_publ_section_title
;
Structure prediction by ZEFSAII (Michael W. Deem and Ramdas Pophale) SiO2 
 PCOD9522967
Probable space group: I M M M
;
_chemical_formula_sum "Si O2"
_cell_formula_units_Z 88
_cell_length_a 7.446646
_cell_length_b 25.080617
_cell_length_c 20.706547
_cell_angle_alpha 90.000000
_cell_angle_beta 90.000000
_cell_angle_gamma 90.000000
_cell_volume 3867.288819
_symmetry_space_group_name_H-M "I M M M"
_symmetry_group_IT_number 71
_symmetry_cell_setting 'orthorhombic'
loop_
_space_group_symop_operation_xyz
x,y,z
-x,-y,z
x,-y,-z
-x,y,-z
-x,-y,-z
x,y,-z
-x,y,z
x,-y,z
1/2+x,1/2+y,1/2+z
1/2-x,1/2-y,1/2+z
1/2+x,1/2-y,1/2-z
1/2-x,1/2+y,1/2-z
1/2-x,1/2-y,1/2-z
1/2+x,1/2+y,1/2-z
1/2-x,1/2+y,1/2+z
1/2+x,1/2-y,1/2+z
loop_
_atom_site_type_symbol
_atom_site_label
_atom_site_fract_x
_atom_site_fract_y
_atom_site_fract_z
Si Si1 0.783267 0.058694 0.389570
Si Si2 0.780706 0.937118 0.000000
Si Si3 0.719393 0.367844 0.625207
Si Si4 0.788744 0.325638 0.068641
Si Si5 0.281973 0.440675 0.741605
Si Si6 0.784974 0.753508 0.826450
O O1 0.727958 0.110941 0.426914
O O2 0.722886 0.066204 0.315234
O O3 0.000000 0.057602 0.390054
O O4 0.722808 0.000000 0.411814
O O5 0.724991 0.902709 0.936942
O O6 0.000000 0.938542 0.000000
O O7 0.724613 0.000000 0.000000
O O8 0.500000 0.367644 0.623047
O O9 0.778142 0.397978 0.690161
O O10 0.777926 0.306923 0.636272
O O11 0.715879 0.296928 0.132496
O O12 0.000000 0.313348 0.067218
O O13 0.711465 0.307096 0.000000
O O14 0.500000 0.438856 0.742923
O O15 0.230866 0.500000 0.720058
O O16 0.750000 0.750000 0.750000
O O17 0.000000 0.754866 0.829824
#
# Coordination Sequence:
#
# PCOD9522967 Si02
#       6
#    16   8  16  16  16  16
#     4   9  18  33  54  78 102 131 171 218 265 315
#     4   9  16  24  38  68 107 139 168 207 260 324
#     4   9  16  25  42  66  96 134 169 205 254 308
#     4  10  22  37  52  73 105 141 174 213 264 323
#     4   8  13  23  41  66  95 124 157 202 254 302
#     4  10  21  36  55  77 103 139 182 226 267 316
#
# _framework density 22.754960000000001
#
# number of rings (size 3 to 8) (size 9 to 14) (size 15 to 20)
#    0.000    2.818    0.000    2.727    1.273    5.455 
#    0.000    1.818    0.000    0.000    0.000    0.000 
#    0.000    0.727    0.000    0.000    0.000    0.364 
#
# Total GULP energy -245527.087782 kJ/mol
# GULP energy per Si atom -5580.161086 kJ/mol
# Density = 2.270317 g / cm^3
# Si number density = 22.754960 Si / 1000 Ang^3
#
#
#
# Elastic Constant Matrix: (Units=GPa)
#
#
# Indices 1 2 3 4 5 6 
#
# 1 68.1006 2.2494 6.0289 0.0000 0.0000 0.0000
# 2 2.2494 152.1382 92.4586 0.0000 0.0000 0.0000
# 3 6.0289 92.4586 147.8964 0.0000 0.0000 0.0000
# 4 0.0000 0.0000 0.0000 4.7447 0.0000 0.0000
# 5 0.0000 0.0000 0.0000 0.0000 4.6248 0.0000
# 6 0.0000 0.0000 0.0000 0.0000 0.0000 4.1872
#
#
#
# Elastic Compliance Matrix: (Units=1/GPa)
#
#
# Indices 1 2 3 4 5 6 
#
# 1 0.014743 0.000237 -0.000749 0.000000 0.000000 0.000000
# 2 0.000237 0.010604 -0.006639 0.000000 0.000000 0.000000
# 3 -0.000749 -0.006639 0.010942 0.000000 0.000000 0.000000
# 4 0.000000 0.000000 0.000000 0.210761 0.000000 0.000000
# 5 0.000000 0.000000 0.000000 0.000000 0.216225 0.000000
# 6 0.000000 0.000000 0.000000 0.000000 0.000000 0.238824
#
#
# Mechanical properties :
#
#
# Convention : Reuss Voigt Hill
#
# Bulk Modulus (GPa) = 45.48057 63.28992 54.38524
# Shear Modulus (GPa) = 6.90865 20.53789 13.72327
#
# Velocity S-wave (km/s) = 1.74433 3.00754 2.45845
# Velocity P-wave (km/s) = 4.90789 6.31937 5.65782
#
# Compressibility (1/GPa) = 0.02198741
#
# Stress axis : x y z
#
# Youngs Moduli (GPa) = 67.83037 94.30293 91.38739
#
# Poissons Ratio (x) = -0.02240 0.06849
# Poissons Ratio (y) = -0.01611 0.60672
# Poissons Ratio (z) = 0.05083 0.62607
#
# Static dielectric constant tensor:
#      x y z
#    x 1.921750 0.000000 0.000000 
#    y 0.000000 1.844980 0.000000 
#    z 0.000000 0.000000 1.857390 
# 
# From -- ./inp_files/50514.got.cif
#   From: 2010.05.17/outbox.cif.g08.bks.cpg/sg71_26_cif.got.tgz:50514.got - 2010.06.03 16:22:01.
