data_PCOD9522125
_publ_section_title
;
Structure prediction by ZEFSAII (Michael W. Deem and Ramdas Pophale) SiO2 
 PCOD9522125
Probable space group: I M M M
;
_chemical_formula_sum "Si O2"
_cell_formula_units_Z 64
_cell_length_a 34.843213
_cell_length_b 7.481107
_cell_length_c 10.889700
_cell_angle_alpha 90.000000
_cell_angle_beta 90.000000
_cell_angle_gamma 90.000000
_cell_volume 2838.572413
_symmetry_space_group_name_H-M "I M M M"
_symmetry_group_IT_number 71
_symmetry_cell_setting 'orthorhombic'
loop_
_space_group_symop_operation_xyz
x,y,z
-x,-y,z
x,-y,-z
-x,y,-z
-x,-y,-z
x,y,-z
-x,y,z
x,-y,z
1/2+x,1/2+y,1/2+z
1/2-x,1/2-y,1/2+z
1/2+x,1/2-y,1/2-z
1/2-x,1/2+y,1/2-z
1/2-x,1/2-y,1/2-z
1/2+x,1/2+y,1/2-z
1/2-x,1/2+y,1/2+z
1/2+x,1/2-y,1/2+z
loop_
_atom_site_type_symbol
_atom_site_label
_atom_site_fract_x
_atom_site_fract_y
_atom_site_fract_z
Si Si1 0.162704 0.212187 0.744804
Si Si2 0.210911 0.712958 0.500000
Si Si3 0.078036 0.205465 0.260456
Si Si4 0.045491 0.716126 0.000000
Si Si5 0.799014 0.780706 0.000000
Si Si6 0.500000 0.703996 0.143940
O O1 0.189112 0.234822 0.625167
O O2 0.119992 0.285591 0.719927
O O3 0.157755 0.000000 0.763840
O O4 0.180755 0.278858 0.873148
O O5 0.212423 0.500000 0.500000
O O6 0.254720 0.778791 0.500000
O O7 0.039939 0.291066 0.317653
O O8 0.079517 0.000000 0.307485
O O9 0.067717 0.210746 0.117411
O O10 0.047092 0.500000 0.000000
O O11 0.000000 0.765233 0.000000
O O12 0.799149 0.000000 0.000000
O O13 0.500000 0.500000 0.198405
O O14 0.500000 0.689291 0.000000
#
# Coordination Sequence:
#
# PCOD9522125 Si02
#       6
#    16   8  16   8   8   8
#     4  10  21  38  62  89 115 148 195 248 291 336
#     4  11  23  38  58  85 120 158 189 230 293 360
#     4  10  20  35  59  84 110 145 189 237 282 325
#     4  11  22  35  53  79 115 151 185 226 277 334
#     4   9  19  38  60  85 117 151 193 242 292 345
#     4   9  18  31  51  80 110 139 180 233 278 321
#
# _framework density 22.546544999999998
#
# number of rings (size 3 to 8) (size 9 to 14) (size 15 to 20)
#    0.000    2.000    1.250    2.250    1.750    3.500 
#    0.000    1.875    0.000    0.750    0.000    0.000 
#    0.000    0.000    0.000    0.000    0.000    0.000 
#
# Total GULP energy -178678.199236 kJ/mol
# GULP energy per Si atom -5583.693726 kJ/mol
# Density = 2.249523 g / cm^3
# Si number density = 22.546545 Si / 1000 Ang^3
#
#
#
# Elastic Constant Matrix: (Units=GPa)
#
#
# Indices 1 2 3 4 5 6 
#
# 1 244.9707 11.6425 83.3883 0.0000 0.0000 0.0000
# 2 11.6425 71.5308 -7.7981 0.0000 0.0000 0.0000
# 3 83.3883 -7.7981 132.4281 0.0000 0.0000 0.0000
# 4 0.0000 0.0000 0.0000 -46.2036 0.0000 0.0000
# 5 0.0000 0.0000 0.0000 0.0000 -105.3714 0.0000
# 6 0.0000 0.0000 0.0000 0.0000 0.0000 -340.3563
#
#
#
# Elastic Compliance Matrix: (Units=1/GPa)
#
#
# Indices 1 2 3 4 5 6 
#
# 1 0.005302 -0.001235 -0.003411 0.000000 0.000000 0.000000
# 2 -0.001235 0.014358 0.001623 0.000000 0.000000 0.000000
# 3 -0.003411 0.001623 0.009795 0.000000 0.000000 0.000000
# 4 0.000000 0.000000 0.000000 -0.021643 0.000000 0.000000
# 5 0.000000 0.000000 0.000000 0.000000 -0.009490 0.000000
# 6 0.000000 0.000000 0.000000 0.000000 0.000000 -0.002938
#
#
# Mechanical properties :
#
#
# Convention : Reuss Voigt Hill
#
# Bulk Modulus (GPa) = 42.71940 69.26611 55.99276
# Shear Modulus (GPa) = 541.57163 -74.27315 233.64924
#
# Velocity S-wave (km/s) = 15.51525 -5.74575 10.19091
# Velocity P-wave (km/s) = 18.43780 3.63732 12.78128
#
# Compressibility (1/GPa) = 0.02340857
#
# Stress axis : x y z
#
# Youngs Moduli (GPa) = 188.60689 69.64797 102.09372
#
# Poissons Ratio (x) = 0.08601 0.34828
# Poissons Ratio (y) = 0.23290 -0.16570
# Poissons Ratio (z) = 0.64340 -0.11304
#
# Static dielectric constant tensor:
#      x y z
#    x 1.868090 0.000000 0.000000 
#    y 0.000000 1.880480 0.000000 
#    z 0.000000 0.000000 1.758060 
# 
# From -- ./inp_files/29497.got.cif
#   From: 2010.05.17/outbox.cif.g08.bks.cpg/sg71_15_cif.got.tgz:29497.got - 2010.06.03 16:22:01.
