data_PCOD9522884
_publ_section_title
;
Structure prediction by ZEFSAII (Michael W. Deem and Ramdas Pophale) SiO2 
 PCOD9522884
Probable space group: I M M M
;
_chemical_formula_sum "Si O2"
_cell_formula_units_Z 88
_cell_length_a 23.670806
_cell_length_b 25.101613
_cell_length_c 8.364828
_cell_angle_alpha 90.000000
_cell_angle_beta 90.000000
_cell_angle_gamma 90.000000
_cell_volume 4970.175120
_symmetry_space_group_name_H-M "I M M M"
_symmetry_group_IT_number 71
_symmetry_cell_setting 'orthorhombic'
loop_
_space_group_symop_operation_xyz
x,y,z
-x,-y,z
x,-y,-z
-x,y,-z
-x,-y,-z
x,y,-z
-x,y,z
x,-y,z
1/2+x,1/2+y,1/2+z
1/2-x,1/2-y,1/2+z
1/2+x,1/2-y,1/2-z
1/2-x,1/2+y,1/2-z
1/2-x,1/2-y,1/2-z
1/2+x,1/2+y,1/2-z
1/2-x,1/2+y,1/2+z
1/2+x,1/2-y,1/2+z
loop_
_atom_site_type_symbol
_atom_site_label
_atom_site_fract_x
_atom_site_fract_y
_atom_site_fract_z
Si Si1 0.564790 0.354025 0.695194
Si Si2 0.934581 0.733245 0.192771
Si Si3 0.843327 0.060912 0.807083
Si Si4 0.611661 0.125057 0.809392
Si Si5 0.218905 0.561000 0.190895
Si Si6 0.000000 0.561680 0.304789
O O1 0.564892 0.354643 0.500000
O O2 0.500000 0.364652 0.744574
O O3 0.580059 0.293539 0.742928
O O4 0.609238 0.397991 0.750907
O O5 0.896709 0.686224 0.260381
O O6 0.000000 0.723659 0.240994
O O7 0.932529 0.731410 0.000000
O O8 0.780243 0.076929 0.756711
O O9 0.852841 0.000000 0.751091
O O10 0.845613 0.060367 0.000000
O O11 0.668402 0.098747 0.744392
O O12 0.556441 0.092269 0.750772
O O13 0.612485 0.121208 0.000000
O O14 0.207906 0.500000 0.246770
O O15 0.221712 0.560588 0.000000
O O16 0.000000 0.500000 0.254692
O O17 0.000000 0.562408 0.500000
#
# Coordination Sequence:
#
# PCOD9522884 Si02
#       6
#    16  16  16  16  16   8
#     4   8  15  29  51  79 107 134 164 202 250 300
#     4   9  17  31  50  71 101 138 170 202 246 300
#     4   9  17  31  53  79 104 131 166 207 250 298
#     4  11  20  32  51  74 100 130 169 212 254 298
#     4  10  21  36  52  71  99 135 171 206 250 304
#     4   9  18  30  45  69  99 125 152 199 256 298
#
# _framework density 17.705613
#
# number of rings (size 3 to 8) (size 9 to 14) (size 15 to 20)
#    0.000    2.636    0.909    2.727    0.000    2.182 
#    0.000    3.636    0.000    3.818    0.000    2.545 
#    0.000    0.000    0.000    0.000    0.000    0.000 
#
# Total GULP energy -245391.867117 kJ/mol
# GULP energy per Si atom -5577.087889 kJ/mol
# Density = 1.766531 g / cm^3
# Si number density = 17.705613 Si / 1000 Ang^3
#
#
#
# Elastic Constant Matrix: (Units=GPa)
#
#
# Indices 1 2 3 4 5 6 
#
# 1 146.5316 114.8903 15.2508 0.0000 0.0000 0.0000
# 2 114.8903 135.1112 14.7633 0.0000 0.0000 0.0000
# 3 15.2508 14.7633 9.5233 0.0000 0.0000 0.0000
# 4 0.0000 0.0000 0.0000 15.7502 0.0000 0.0000
# 5 0.0000 0.0000 0.0000 0.0000 11.0152 0.0000
# 6 0.0000 0.0000 0.0000 0.0000 0.0000 28.3535
#
#
#
# Elastic Compliance Matrix: (Units=1/GPa)
#
#
# Indices 1 2 3 4 5 6 
#
# 1 0.020870 -0.016969 -0.007116 0.000000 0.000000 0.000000
# 2 -0.016969 0.022708 -0.008028 0.000000 0.000000 0.000000
# 3 -0.007116 -0.008028 0.128846 0.000000 0.000000 0.000000
# 4 0.000000 0.000000 0.000000 0.063491 0.000000 0.000000
# 5 0.000000 0.000000 0.000000 0.000000 0.090783 0.000000
# 6 0.000000 0.000000 0.000000 0.000000 0.000000 0.035269
#
#
# Mechanical properties :
#
#
# Convention : Reuss Voigt Hill
#
# Bulk Modulus (GPa) = 9.24227 64.55277 36.89752
# Shear Modulus (GPa) = 10.81647 20.77458 15.79553
#
# Velocity S-wave (km/s) = 2.47433 3.42911 2.99008
# Velocity P-wave (km/s) = 3.65984 7.22610 5.72760
#
# Compressibility (1/GPa) = 0.10819856
#
# Stress axis : x y z
#
# Youngs Moduli (GPa) = 47.91651 44.03792 7.76120
#
# Poissons Ratio (x) = 0.74727 0.05523
# Poissons Ratio (y) = 0.81308 0.06231
# Poissons Ratio (z) = 0.34095 0.35354
#
# Static dielectric constant tensor:
#      x y z
#    x 1.577420 0.000000 0.000000 
#    y 0.000000 1.604620 0.000000 
#    z 0.000000 0.000000 1.609460 
# 
# From -- ./inp_files/10501.got.cif
#   From: 2010.05.17/outbox.cif.g08.bks.cpg/sg71_6_cif.got.tgz:10501.got - 2010.06.03 16:22:01.
