data_PCOD9522349
_publ_section_title
;
Structure prediction by ZEFSAII (Michael W. Deem and Ramdas Pophale) SiO2 
 PCOD9522349
Probable space group: I M M M
;
_chemical_formula_sum "Si O2"
_cell_formula_units_Z 104
_cell_length_a 27.714283
_cell_length_b 8.782064
_cell_length_c 22.879290
_cell_angle_alpha 90.000000
_cell_angle_beta 90.000000
_cell_angle_gamma 90.000000
_cell_volume 5568.558523
_symmetry_space_group_name_H-M "I M M M"
_symmetry_group_IT_number 71
_symmetry_cell_setting 'orthorhombic'
loop_
_space_group_symop_operation_xyz
x,y,z
-x,-y,z
x,-y,-z
-x,y,-z
-x,-y,-z
x,y,-z
-x,y,z
x,-y,z
1/2+x,1/2+y,1/2+z
1/2-x,1/2-y,1/2+z
1/2+x,1/2-y,1/2-z
1/2-x,1/2+y,1/2-z
1/2-x,1/2-y,1/2-z
1/2+x,1/2+y,1/2-z
1/2-x,1/2+y,1/2+z
1/2+x,1/2-y,1/2+z
loop_
_atom_site_type_symbol
_atom_site_label
_atom_site_fract_x
_atom_site_fract_y
_atom_site_fract_z
Si Si1 0.173726 0.684665 0.500000
Si Si2 0.576051 0.320100 0.659710
Si Si3 0.000000 0.316660 0.930736
Si Si4 0.945348 0.683162 0.712671
Si Si5 0.671323 0.174619 0.380805
Si Si6 0.640226 0.183304 0.872721
Si Si7 0.230705 0.826810 0.691937
Si Si8 0.282378 0.184787 0.500000
O O1 0.175916 0.500000 0.500000
O O2 0.146981 0.734023 0.440146
O O3 0.228693 0.746280 0.500000
O O4 0.567877 0.500000 0.658935
O O5 0.545417 0.245061 0.606884
O O6 0.561947 0.254838 0.723265
O O7 0.631790 0.277923 0.649557
O O8 0.000000 0.500000 0.928861
O O9 0.000000 0.272148 0.000000
O O10 0.940160 0.500000 0.719283
O O11 0.906163 0.735283 0.664712
O O12 0.000000 0.714980 0.693188
O O13 0.722494 0.170573 0.348825
O O14 0.685835 0.229302 0.444659
O O15 0.652612 0.000000 0.382813
O O16 0.687510 0.236322 0.837930
O O17 0.638603 0.000000 0.873829
O O18 0.250000 0.750000 0.750000
O O19 0.214731 0.000000 0.702729
O O20 0.277100 0.000000 0.500000
#
# Coordination Sequence:
#
# PCOD9522349 Si02
#       8
#     8  16   8  16  16  16  16   8
#     4  10  20  36  59  88 125 159 196 256 320 365
#     4  12  25  40  62  92 123 153 196 255 309 351
#     4  11  25  45  67  87 115 160 205 242 293 363
#     4  10  21  40  64  86 115 161 210 250 302 372
#     4  10  22  38  57  82 114 154 195 233 281 354
#     4  10  21  37  59  88 120 158 203 253 312 372
#     4  11  22  36  56  83 116 153 194 241 294 355
#     4  10  20  38  60  82 112 155 206 242 280 360
#
# _framework density 18.676286999999999
#
# number of rings (size 3 to 8) (size 9 to 14) (size 15 to 20)
#    0.000    1.462    2.308    3.000    1.077    6.769 
#    0.000    0.385    0.000    2.308    0.000    0.000 
#    0.000    3.077    0.000    0.000    0.000    0.000 
#
# Total GULP energy -290323.349447 kJ/mol
# GULP energy per Si atom -5583.141336 kJ/mol
# Density = 1.863378 g / cm^3
# Si number density = 18.676287 Si / 1000 Ang^3
#
#
#
# Elastic Constant Matrix: (Units=GPa)
#
#
# Indices 1 2 3 4 5 6 
#
# 1 116.7201 23.7824 52.0141 0.0000 0.0000 0.0000
# 2 23.7824 27.9916 20.3853 0.0000 0.0000 0.0000
# 3 52.0141 20.3853 125.1737 0.0000 0.0000 0.0000
# 4 0.0000 0.0000 0.0000 15.4141 0.0000 0.0000
# 5 0.0000 0.0000 0.0000 0.0000 23.8770 0.0000
# 6 0.0000 0.0000 0.0000 0.0000 0.0000 25.9433
#
#
#
# Elastic Compliance Matrix: (Units=1/GPa)
#
#
# Indices 1 2 3 4 5 6 
#
# 1 0.011682 -0.007250 -0.003673 0.000000 0.000000 0.000000
# 2 -0.007250 0.045032 -0.004321 0.000000 0.000000 0.000000
# 3 -0.003673 -0.004321 0.010219 0.000000 0.000000 0.000000
# 4 0.000000 0.000000 0.000000 0.064876 0.000000 0.000000
# 5 0.000000 0.000000 0.000000 0.000000 0.041881 0.000000
# 6 0.000000 0.000000 0.000000 0.000000 0.000000 0.038546
#
#
# Mechanical properties :
#
#
# Convention : Reuss Voigt Hill
#
# Bulk Modulus (GPa) = 27.43970 51.36100 39.40035
# Shear Modulus (GPa) = 19.61769 24.62709 22.12239
#
# Velocity S-wave (km/s) = 3.24451 3.63523 3.44542
# Velocity P-wave (km/s) = 5.36283 6.72162 6.08031
#
# Compressibility (1/GPa) = 0.03644355
#
# Stress axis : x y z
#
# Youngs Moduli (GPa) = 85.60376 22.20662 97.85608
#
# Poissons Ratio (x) = 0.16099 0.35947
# Poissons Ratio (y) = 0.62061 0.42285
# Poissons Ratio (z) = 0.31447 0.09596
#
# Static dielectric constant tensor:
#      x y z
#    x 1.810980 0.000000 0.000000 
#    y 0.000000 1.643350 0.000000 
#    z 0.000000 0.000000 1.624790 
# 
# From -- ./inp_files/56302.got.cif
#   From: 2010.05.17/outbox.cif.g08.bks.cpg/sg71_29_cif.got.tgz:56302.got - 2010.06.03 16:22:01.
