data_PCOD9522043
_publ_section_title
;
Structure prediction by ZEFSAII (Michael W. Deem and Ramdas Pophale) SiO2 
 PCOD9522043
Probable space group: I M M M
;
_chemical_formula_sum "Si O2"
_cell_formula_units_Z 72
_cell_length_a 24.277479
_cell_length_b 8.437492
_cell_length_c 18.322342
_cell_angle_alpha 90.000000
_cell_angle_beta 90.000000
_cell_angle_gamma 90.000000
_cell_volume 3753.167496
_symmetry_space_group_name_H-M "I M M M"
_symmetry_group_IT_number 71
_symmetry_cell_setting 'orthorhombic'
loop_
_space_group_symop_operation_xyz
x,y,z
-x,-y,z
x,-y,-z
-x,y,-z
-x,-y,-z
x,y,-z
-x,y,z
x,-y,z
1/2+x,1/2+y,1/2+z
1/2-x,1/2-y,1/2+z
1/2+x,1/2-y,1/2-z
1/2-x,1/2+y,1/2-z
1/2-x,1/2-y,1/2-z
1/2+x,1/2+y,1/2-z
1/2-x,1/2+y,1/2+z
1/2+x,1/2-y,1/2+z
loop_
_atom_site_type_symbol
_atom_site_label
_atom_site_fract_x
_atom_site_fract_y
_atom_site_fract_z
Si Si1 0.740193 0.189621 0.084615
Si Si2 0.563009 0.191554 0.715391
Si Si3 0.063438 0.193252 0.500000
Si Si4 0.361413 0.808518 0.583348
Si Si5 0.628700 0.689750 0.855431
O O1 0.800736 0.249848 0.105389
O O2 0.691337 0.254981 0.134208
O O3 0.739518 0.000000 0.086344
O O4 0.730558 0.241565 0.000000
O O5 0.500000 0.248191 0.720909
O O6 0.592928 0.244570 0.641027
O O7 0.598986 0.245859 0.783902
O O8 0.561963 0.000000 0.714798
O O9 0.095189 0.245255 0.427314
O O10 0.000000 0.245086 0.500000
O O11 0.063599 0.000000 0.500000
O O12 0.371685 0.755027 0.500000
O O13 0.360743 0.000000 0.583104
O O14 0.627261 0.500000 0.853887
#
# Coordination Sequence:
#
# PCOD9522043 Si02
#       5
#    16  16   8  16  16
#     4  10  20  35  57  85 117 147 183 233 285 333
#     4  10  22  39  57  82 116 148 184 234 285 333
#     4   9  18  32  51  77 107 143 188 229 264 313
#     4   9  19  37  61  85 110 145 188 231 280 339
#     4  11  21  35  57  82 113 152 191 231 275 328
#
# _framework density 19.183796999999998
#
# number of rings (size 3 to 8) (size 9 to 14) (size 15 to 20)
#    0.000    2.111    1.111    2.000    0.000    4.444 
#    0.000    2.222    0.000    2.667    0.000    4.667 
#    0.000    0.000    0.000    0.000    0.000    0.000 
#
# Total GULP energy -201059.871478 kJ/mol
# GULP energy per Si atom -5584.996430 kJ/mol
# Density = 1.914013 g / cm^3
# Si number density = 19.183797 Si / 1000 Ang^3
#
#
#
# Elastic Constant Matrix: (Units=GPa)
#
#
# Indices 1 2 3 4 5 6 
#
# 1 119.3182 21.2344 78.4098 0.0000 0.0000 0.0000
# 2 21.2344 13.7251 20.1642 0.0000 0.0000 0.0000
# 3 78.4098 20.1642 119.1533 0.0000 0.0000 0.0000
# 4 0.0000 0.0000 0.0000 22.4736 0.0000 0.0000
# 5 0.0000 0.0000 0.0000 0.0000 26.7041 0.0000
# 6 0.0000 0.0000 0.0000 0.0000 0.0000 19.3053
#
#
#
# Elastic Compliance Matrix: (Units=1/GPa)
#
#
# Indices 1 2 3 4 5 6 
#
# 1 0.016242 -0.012545 -0.008565 0.000000 0.000000 0.000000
# 2 -0.012545 0.106657 -0.009794 0.000000 0.000000 0.000000
# 3 -0.008565 -0.009794 0.015686 0.000000 0.000000 0.000000
# 4 0.000000 0.000000 0.000000 0.044497 0.000000 0.000000
# 5 0.000000 0.000000 0.000000 0.000000 0.037447 0.000000
# 6 0.000000 0.000000 0.000000 0.000000 0.000000 0.051799
#
#
# Mechanical properties :
#
#
# Convention : Reuss Voigt Hill
#
# Bulk Modulus (GPa) = 13.02476 54.64593 33.83534
# Shear Modulus (GPa) = 13.89929 22.52247 18.21088
#
# Velocity S-wave (km/s) = 2.69464 3.43014 3.08439
# Velocity P-wave (km/s) = 4.06025 6.65095 5.51002
#
# Compressibility (1/GPa) = 0.07677687
#
# Stress axis : x y z
#
# Youngs Moduli (GPa) = 61.56798 9.37584 63.74909
#
# Poissons Ratio (x) = 0.11762 0.54603
# Poissons Ratio (y) = 0.77237 0.62437
# Poissons Ratio (z) = 0.52735 0.09183
#
# Static dielectric constant tensor:
#      x y z
#    x 1.643680 0.000000 0.000000 
#    y 0.000000 1.653410 0.000000 
#    z 0.000000 0.000000 1.661660 
# 
# From -- ./inp_files/7887.got.cif
#   From: 2010.05.17/outbox.cif.g08.bks.cpg/sg71_4_cif.got.tgz:7887.got - 2010.06.03 16:22:01.
