data_PCOD9522126
_publ_section_title
;
Structure prediction by ZEFSAII (Michael W. Deem and Ramdas Pophale) SiO2 
 PCOD9522126
Probable space group: I M M M
;
_chemical_formula_sum "Si O2"
_cell_formula_units_Z 104
_cell_length_a 8.592751
_cell_length_b 30.625139
_cell_length_c 20.890362
_cell_angle_alpha 90.000000
_cell_angle_beta 90.000000
_cell_angle_gamma 90.000000
_cell_volume 5497.386370
_symmetry_space_group_name_H-M "I M M M"
_symmetry_group_IT_number 71
_symmetry_cell_setting 'orthorhombic'
loop_
_space_group_symop_operation_xyz
x,y,z
-x,-y,z
x,-y,-z
-x,y,-z
-x,-y,-z
x,y,-z
-x,y,z
x,-y,z
1/2+x,1/2+y,1/2+z
1/2-x,1/2-y,1/2+z
1/2+x,1/2-y,1/2-z
1/2-x,1/2+y,1/2-z
1/2-x,1/2-y,1/2-z
1/2+x,1/2+y,1/2-z
1/2-x,1/2+y,1/2+z
1/2+x,1/2-y,1/2+z
loop_
_atom_site_type_symbol
_atom_site_label
_atom_site_fract_x
_atom_site_fract_y
_atom_site_fract_z
Si Si1 0.818100 0.824669 0.376407
Si Si2 0.186905 0.134276 0.136674
Si Si3 0.687707 0.224995 0.500000
Si Si4 0.817098 0.078467 0.341771
Si Si5 0.810763 0.827159 0.000000
Si Si6 0.809673 0.000000 0.428456
Si Si7 0.182421 0.298535 0.742851
Si Si8 0.185551 0.551251 0.293608
O O1 0.753701 0.798832 0.437078
O O2 0.809144 0.876757 0.380909
O O3 0.718521 0.816857 0.312935
O O4 0.000000 0.812784 0.365694
O O5 0.239578 0.149607 0.065897
O O6 0.241633 0.170316 0.189047
O O7 0.245743 0.085990 0.155756
O O8 0.000000 0.133907 0.138140
O O9 0.500000 0.222692 0.500000
O O10 0.734193 0.276068 0.500000
O O11 0.759382 0.041511 0.388904
O O12 0.729242 0.072590 0.274925
O O13 0.000000 0.071822 0.325873
O O14 0.000000 0.827985 0.000000
O O15 0.752201 0.000000 0.500000
O O16 0.000000 0.000000 0.430031
O O17 0.250000 0.250000 0.750000
O O18 0.000000 0.296622 0.729691
O O19 0.239299 0.500000 0.296702
O O20 0.000000 0.550708 0.300416
#
# Coordination Sequence:
#
# PCOD9522126 Si02
#       8
#    16  16   8  16   8   8  16  16
#     4  11  23  38  58  89 124 161 208 261 309 365
#     4  11  22  41  67  94 123 160 207 261 321 384
#     4  11  23  41  63  87 123 173 213 258 321 384
#     4  10  20  35  59  85 115 157 206 255 306 361
#     4   9  22  43  66  90 118 155 204 255 312 382
#     4   9  18  32  55  85 113 152 203 252 301 353
#     4  12  24  39  61  91 125 161 206 257 312 374
#     4  11  23  39  61  91 127 163 204 257 317 378
#
# _framework density 18.918081999999998
#
# number of rings (size 3 to 8) (size 9 to 14) (size 15 to 20)
#    0.000    1.308    2.308    3.923    1.077    2.769 
#    0.000    4.231    0.000    2.769    0.000    0.000 
#    0.000    0.000    0.000    0.000    0.000    0.000 
#
# Total GULP energy -290247.823291 kJ/mol
# GULP energy per Si atom -5581.688909 kJ/mol
# Density = 1.887502 g / cm^3
# Si number density = 18.918082 Si / 1000 Ang^3
#
#
#
# Elastic Constant Matrix: (Units=GPa)
#
#
# Indices 1 2 3 4 5 6 
#
# 1 69.2037 38.0287 25.0492 0.0000 0.0000 0.0000
# 2 38.0287 130.4327 69.4933 0.0000 0.0000 0.0000
# 3 25.0492 69.4933 149.3565 0.0000 0.0000 0.0000
# 4 0.0000 0.0000 0.0000 22.0776 0.0000 0.0000
# 5 0.0000 0.0000 0.0000 0.0000 17.0826 0.0000
# 6 0.0000 0.0000 0.0000 0.0000 0.0000 24.0276
#
#
#
# Elastic Compliance Matrix: (Units=1/GPa)
#
#
# Indices 1 2 3 4 5 6 
#
# 1 0.017268 -0.004642 -0.000736 0.000000 0.000000 0.000000
# 2 -0.004642 0.011442 -0.004545 0.000000 0.000000 0.000000
# 3 -0.000736 -0.004545 0.008934 0.000000 0.000000 0.000000
# 4 0.000000 0.000000 0.000000 0.045295 0.000000 0.000000
# 5 0.000000 0.000000 0.000000 0.000000 0.058539 0.000000
# 6 0.000000 0.000000 0.000000 0.000000 0.000000 0.041619
#
#
# Mechanical properties :
#
#
# Convention : Reuss Voigt Hill
#
# Bulk Modulus (GPa) = 56.19219 68.23725 62.21472
# Shear Modulus (GPa) = 23.93782 27.06571 25.50176
#
# Velocity S-wave (km/s) = 3.56102 3.78654 3.67551
# Velocity P-wave (km/s) = 6.83193 7.43406 7.13935
#
# Compressibility (1/GPa) = 0.01779607
#
# Stress axis : x y z
#
# Youngs Moduli (GPa) = 57.91208 87.39791 111.93673
#
# Poissons Ratio (x) = 0.40573 0.08238
# Poissons Ratio (y) = 0.26885 0.50877
# Poissons Ratio (z) = 0.04262 0.39724
#
# Static dielectric constant tensor:
#      x y z
#    x 1.680790 0.000000 0.000000 
#    y 0.000000 1.528880 0.000000 
#    z 0.000000 0.000000 1.513100 
# 
# From -- ./inp_files/50953.got.cif
#   From: 2010.05.17/outbox.cif.g08.bks.cpg/sg71_26_cif.got.tgz:50953.got - 2010.06.03 16:22:01.
