data_PCOD9522444
_publ_section_title
;
Structure prediction by ZEFSAII (Michael W. Deem and Ramdas Pophale) SiO2 
 PCOD9522444
Probable space group: I M M M
;
_chemical_formula_sum "Si O2"
_cell_formula_units_Z 120
_cell_length_a 25.050401
_cell_length_b 9.863324
_cell_length_c 26.782656
_cell_angle_alpha 90.000000
_cell_angle_beta 90.000000
_cell_angle_gamma 90.000000
_cell_volume 6617.464574
_symmetry_space_group_name_H-M "I M M M"
_symmetry_group_IT_number 71
_symmetry_cell_setting 'orthorhombic'
loop_
_space_group_symop_operation_xyz
x,y,z
-x,-y,z
x,-y,-z
-x,y,-z
-x,-y,-z
x,y,-z
-x,y,z
x,-y,z
1/2+x,1/2+y,1/2+z
1/2-x,1/2-y,1/2+z
1/2+x,1/2-y,1/2-z
1/2-x,1/2+y,1/2-z
1/2-x,1/2-y,1/2-z
1/2+x,1/2+y,1/2-z
1/2-x,1/2+y,1/2+z
1/2+x,1/2-y,1/2+z
loop_
_atom_site_type_symbol
_atom_site_label
_atom_site_fract_x
_atom_site_fract_y
_atom_site_fract_z
Si Si1 0.780159 0.652734 0.712038
Si Si2 0.564192 0.838540 0.000000
Si Si3 0.143118 0.340956 0.882085
Si Si4 0.118048 0.841484 0.415197
Si Si5 0.891070 0.651622 0.231307
Si Si6 0.232721 0.156659 0.619068
Si Si7 0.560323 0.658621 0.559883
Si Si8 0.561389 0.657931 0.189346
O O1 0.757852 0.500000 0.709793
O O2 0.750000 0.750000 0.750000
O O3 0.839506 0.643526 0.733276
O O4 0.777967 0.729711 0.660081
O O5 0.589283 0.761109 0.952450
O O6 0.500000 0.823625 0.000000
O O7 0.576173 0.000000 0.000000
O O8 0.131101 0.500000 0.889103
O O9 0.130726 0.309760 0.823630
O O10 0.205599 0.323417 0.895993
O O11 0.104690 0.249210 0.914661
O O12 0.182621 0.832344 0.418315
O O13 0.098979 0.811275 0.358321
O O14 0.103520 0.000000 0.425168
O O15 0.914732 0.500000 0.227433
O O16 0.928154 0.755015 0.261076
O O17 0.230046 0.000000 0.639099
O O18 0.563207 0.670455 0.500000
O O19 0.500000 0.698120 0.575246
O O20 0.567544 0.500000 0.572350
O O21 0.500000 0.675934 0.173141
O O22 0.570208 0.500000 0.201410
#
# Coordination Sequence:
#
# PCOD9522444 Si02
#       8
#    16   8  16  16  16  16  16  16
#     4  11  20  32  53  79 111 153 196 233 274 328
#     4  11  25  43  63  87 115 149 194 249 302 351
#     4  10  21  37  57  87 122 152 188 232 279 339
#     4  10  21  39  64  86 111 150 194 242 294 350
#     4  10  21  35  52  78 115 154 188 228 281 335
#     4  10  20  37  58  84 117 151 190 236 288 343
#     4   9  20  41  65  86 111 145 188 237 285 334
#     4  10  21  36  56  83 112 147 195 245 289 338
#
# _framework density 18.133832999999999
#
# number of rings (size 3 to 8) (size 9 to 14) (size 15 to 20)
#    0.000    1.933    2.667    1.400    0.000    5.067 
#    1.200    3.333    0.000    0.000    0.000    0.000 
#    0.000    0.000    0.000    0.000    0.000    0.000 
#
# Total GULP energy -334440.796567 kJ/mol
# GULP energy per Si atom -5574.013276 kJ/mol
# Density = 1.809256 g / cm^3
# Si number density = 18.133833 Si / 1000 Ang^3
#
#
#
# Elastic Constant Matrix: (Units=GPa)
#
#
# Indices 1 2 3 4 5 6 
#
# 1 116.3165 70.1751 48.2287 0.0000 0.0000 0.0000
# 2 70.1751 104.3413 50.1416 0.0000 0.0000 0.0000
# 3 48.2287 50.1416 41.4252 0.0000 0.0000 0.0000
# 4 0.0000 0.0000 0.0000 24.1568 0.0000 0.0000
# 5 0.0000 0.0000 0.0000 0.0000 30.8099 0.0000
# 6 0.0000 0.0000 0.0000 0.0000 0.0000 32.6520
#
#
#
# Elastic Compliance Matrix: (Units=1/GPa)
#
#
# Indices 1 2 3 4 5 6 
#
# 1 0.017551 -0.004744 -0.014691 0.000000 0.000000 0.000000
# 2 -0.004744 0.024192 -0.023759 0.000000 0.000000 0.000000
# 3 -0.014691 -0.023759 0.070002 0.000000 0.000000 0.000000
# 4 0.000000 0.000000 0.000000 0.041396 0.000000 0.000000
# 5 0.000000 0.000000 0.000000 0.000000 0.032457 0.000000
# 6 0.000000 0.000000 0.000000 0.000000 0.000000 0.030626
#
#
# Mechanical properties :
#
#
# Convention : Reuss Voigt Hill
#
# Bulk Modulus (GPa) = 39.43759 66.57485 53.00622
# Shear Modulus (GPa) = 16.07379 23.75959 19.91669
#
# Velocity S-wave (km/s) = 2.98047 3.62364 3.31768
# Velocity P-wave (km/s) = 5.79996 7.36889 6.63099
#
# Compressibility (1/GPa) = 0.02535652
#
# Stress axis : x y z
#
# Youngs Moduli (GPa) = 56.97781 41.33567 14.28523
#
# Poissons Ratio (x) = 0.19610 0.20986
# Poissons Ratio (y) = 0.27030 0.33941
# Poissons Ratio (z) = 0.83706 0.98211
#
# Static dielectric constant tensor:
#      x y z
#    x 1.610910 0.000000 0.000000 
#    y 0.000000 1.612380 0.000000 
#    z 0.000000 0.000000 1.604780 
# 
# From -- ./inp_files/67148.got.cif
#   From: 2010.05.17/outbox.cif.g08.bks.cpg/sg71_34_cif.got.tgz:67148.got - 2010.06.03 16:22:01.
