data_PCOD9522185
_publ_section_title
;
Structure prediction by ZEFSAII (Michael W. Deem and Ramdas Pophale) SiO2 
 PCOD9522185
Probable space group: I M M M
;
_chemical_formula_sum "Si O2"
_cell_formula_units_Z 96
_cell_length_a 28.025531
_cell_length_b 7.482197
_cell_length_c 25.705825
_cell_angle_alpha 90.000000
_cell_angle_beta 90.000000
_cell_angle_gamma 90.000000
_cell_volume 5390.319839
_symmetry_space_group_name_H-M "I M M M"
_symmetry_group_IT_number 71
_symmetry_cell_setting 'orthorhombic'
loop_
_space_group_symop_operation_xyz
x,y,z
-x,-y,z
x,-y,-z
-x,y,-z
-x,-y,-z
x,y,-z
-x,y,z
x,-y,z
1/2+x,1/2+y,1/2+z
1/2-x,1/2-y,1/2+z
1/2+x,1/2-y,1/2-z
1/2-x,1/2+y,1/2-z
1/2-x,1/2-y,1/2-z
1/2+x,1/2+y,1/2-z
1/2-x,1/2+y,1/2+z
1/2+x,1/2-y,1/2+z
loop_
_atom_site_type_symbol
_atom_site_label
_atom_site_fract_x
_atom_site_fract_y
_atom_site_fract_z
Si Si1 0.370970 0.706427 0.654404
Si Si2 0.556323 0.000000 0.684821
Si Si3 0.803451 0.782699 0.559468
Si Si4 0.870024 0.783404 0.346136
Si Si5 0.556329 0.000000 0.189781
Si Si6 0.804271 0.716084 0.939948
Si Si7 0.694272 0.712365 0.251380
O O1 0.382668 0.500000 0.665502
O O2 0.344151 0.717563 0.599426
O O3 0.332853 0.777156 0.697217
O O4 0.417085 0.829129 0.660499
O O5 0.563405 0.000000 0.747526
O O6 0.500000 0.000000 0.674904
O O7 0.811879 0.725184 0.500000
O O8 0.843997 0.731694 0.600171
O O9 0.749687 0.726487 0.575133
O O10 0.802582 0.000000 0.559376
O O11 0.917664 0.673320 0.334432
O O12 0.833417 0.729430 0.300163
O O13 0.876793 0.000000 0.345096
O O14 0.500000 0.000000 0.179840
O O15 0.805094 0.500000 0.938154
O O16 0.811859 0.769149 0.000000
O O17 0.689840 0.500000 0.252473
O O18 0.750000 0.750000 0.250000
#
# Coordination Sequence:
#
# PCOD9522185 Si02
#       7
#    16   8  16  16   8  16  16
#     4  11  22  37  56  83 115 145 186 234 284 336
#     4  11  24  42  63  81 107 149 194 243 297 342
#     4   8  15  30  54  83 116 157 194 223 269 333
#     4  10  20  36  55  81 114 145 186 235 284 334
#     4  11  24  40  61  83 107 147 196 243 297 344
#     4   9  17  32  56  84 117 157 192 223 266 331
#     4  10  21  31  49  80 112 149 181 216 275 340
#
# _framework density 17.809704
#
# number of rings (size 3 to 8) (size 9 to 14) (size 15 to 20)
#    0.000    2.167    2.500    2.000    2.333    2.333 
#    1.500    2.083    0.000    2.000    0.000    3.500 
#    0.000    0.000    0.000    0.000    0.000    0.000 
#
# Total GULP energy -267883.293835 kJ/mol
# GULP energy per Si atom -5580.901955 kJ/mol
# Density = 1.776917 g / cm^3
# Si number density = 17.809704 Si / 1000 Ang^3
#
#
#
# Elastic Constant Matrix: (Units=GPa)
#
#
# Indices 1 2 3 4 5 6 
#
# 1 156.9027 52.4359 71.8880 0.0000 0.0000 0.0000
# 2 52.4359 86.1383 29.8334 0.0000 0.0000 0.0000
# 3 71.8880 29.8334 92.3358 0.0000 0.0000 0.0000
# 4 0.0000 0.0000 0.0000 10.7779 0.0000 0.0000
# 5 0.0000 0.0000 0.0000 0.0000 25.4417 0.0000
# 6 0.0000 0.0000 0.0000 0.0000 0.0000 15.1924
#
#
#
# Elastic Compliance Matrix: (Units=1/GPa)
#
#
# Indices 1 2 3 4 5 6 
#
# 1 0.011138 -0.004253 -0.007298 0.000000 0.000000 0.000000
# 2 -0.004253 0.014696 -0.001437 0.000000 0.000000 0.000000
# 3 -0.007298 -0.001437 0.016976 0.000000 0.000000 0.000000
# 4 0.000000 0.000000 0.000000 0.092783 0.000000 0.000000
# 5 0.000000 0.000000 0.000000 0.000000 0.039306 0.000000
# 6 0.000000 0.000000 0.000000 0.000000 0.000000 0.065823
#
#
# Mechanical properties :
#
#
# Convention : Reuss Voigt Hill
#
# Bulk Modulus (GPa) = 59.40057 71.52128 65.46092
# Shear Modulus (GPa) = 18.36161 22.36369 20.36265
#
# Velocity S-wave (km/s) = 3.21439 3.54743 3.38501
# Velocity P-wave (km/s) = 6.87035 7.55148 7.21895
#
# Compressibility (1/GPa) = 0.01683486
#
# Stress axis : x y z
#
# Youngs Moduli (GPa) = 89.78173 68.04652 58.90718
#
# Poissons Ratio (x) = 0.28939 0.42988
# Poissons Ratio (y) = 0.38182 0.08466
# Poissons Ratio (z) = 0.65518 0.09780
#
# Static dielectric constant tensor:
#      x y z
#    x 1.584370 0.000000 0.000000 
#    y 0.000000 1.635710 0.000000 
#    z 0.000000 0.000000 1.617920 
# 
# From -- ./inp_files/61560.got.cif
#   From: 2010.05.17/outbox.cif.g08.bks.cpg/sg71_31_cif.got.tgz:61560.got - 2010.06.03 16:22:01.
