data_PCOD9522029
_publ_section_title
;
Structure prediction by ZEFSAII (Michael W. Deem and Ramdas Pophale) SiO2 
 PCOD9522029
Probable space group: I M M M
;
_chemical_formula_sum "Si O2"
_cell_formula_units_Z 72
_cell_length_a 18.706410
_cell_length_b 14.234577
_cell_length_c 14.250943
_cell_angle_alpha 90.000000
_cell_angle_beta 90.000000
_cell_angle_gamma 90.000000
_cell_volume 3794.710228
_symmetry_space_group_name_H-M "I M M M"
_symmetry_group_IT_number 71
_symmetry_cell_setting 'orthorhombic'
loop_
_space_group_symop_operation_xyz
x,y,z
-x,-y,z
x,-y,-z
-x,y,-z
-x,-y,-z
x,y,-z
-x,y,z
x,-y,z
1/2+x,1/2+y,1/2+z
1/2-x,1/2-y,1/2+z
1/2+x,1/2-y,1/2-z
1/2-x,1/2+y,1/2-z
1/2-x,1/2-y,1/2-z
1/2+x,1/2+y,1/2-z
1/2-x,1/2+y,1/2+z
1/2+x,1/2-y,1/2+z
loop_
_atom_site_type_symbol
_atom_site_label
_atom_site_fract_x
_atom_site_fract_y
_atom_site_fract_z
Si Si1 0.288784 0.301489 0.388121
Si Si2 0.082192 0.000000 0.613652
Si Si3 0.778930 0.500000 0.612975
Si Si4 0.640531 0.297534 0.111586
Si Si5 0.582271 0.000000 0.762031
Si Si6 0.580469 0.792808 0.715229
O O1 0.300315 0.302913 0.500000
O O2 0.262959 0.405420 0.359266
O O3 0.222219 0.231723 0.369384
O O4 0.359318 0.265733 0.337598
O O5 0.122040 0.095858 0.639648
O O6 0.079459 0.000000 0.500000
O O7 0.000000 0.000000 0.647739
O O8 0.785849 0.500000 0.500000
O O9 0.856792 0.500000 0.659351
O O10 0.591679 0.230314 0.174629
O O11 0.627812 0.286156 0.000000
O O12 0.591075 0.904218 0.703540
O O13 0.500000 0.000000 0.797581
O O14 0.500000 0.767681 0.687164
#
# Coordination Sequence:
#
# PCOD9522029 Si02
#       6
#    16   8   8  16   8  16
#     4  10  22  40  61  86 115 154 202 246 291 348
#     4   9  18  32  50  80 120 152 184 230 282 347
#     4  10  20  38  62  89 119 152 196 248 298 349
#     4  10  20  35  57  84 116 153 191 238 297 356
#     4  10  22  36  56  89 123 153 193 244 296 354
#     4  11  23  39  59  86 119 156 197 243 296 352
#
# _framework density 18.973780999999999
#
# number of rings (size 3 to 8) (size 9 to 14) (size 15 to 20)
#    0.000    1.889    2.222    1.333    0.000    3.778 
#    0.000    5.556    0.000    4.000    0.000    0.000 
#    0.000    0.000    0.000    0.000    0.000    0.000 
#
# Total GULP energy -200991.364617 kJ/mol
# GULP energy per Si atom -5583.093462 kJ/mol
# Density = 1.893060 g / cm^3
# Si number density = 18.973781 Si / 1000 Ang^3
#
#
#
# Elastic Constant Matrix: (Units=GPa)
#
#
# Indices 1 2 3 4 5 6 
#
# 1 165.6323 96.2842 46.6248 0.0000 0.0000 0.0000
# 2 96.2842 146.1392 31.0753 0.0000 0.0000 0.0000
# 3 46.6248 31.0753 33.3641 0.0000 0.0000 0.0000
# 4 0.0000 0.0000 0.0000 12.1755 0.0000 0.0000
# 5 0.0000 0.0000 0.0000 0.0000 19.8238 0.0000
# 6 0.0000 0.0000 0.0000 0.0000 0.0000 31.6772
#
#
#
# Elastic Compliance Matrix: (Units=1/GPa)
#
#
# Indices 1 2 3 4 5 6 
#
# 1 0.013049 -0.005885 -0.012753 0.000000 0.000000 0.000000
# 2 -0.005885 0.011187 -0.002195 0.000000 0.000000 0.000000
# 3 -0.012753 -0.002195 0.049839 0.000000 0.000000 0.000000
# 4 0.000000 0.000000 0.000000 0.082132 0.000000 0.000000
# 5 0.000000 0.000000 0.000000 0.000000 0.050444 0.000000
# 6 0.000000 0.000000 0.000000 0.000000 0.000000 0.031568
#
#
# Mechanical properties :
#
#
# Convention : Reuss Voigt Hill
#
# Bulk Modulus (GPa) = 30.85738 77.01157 53.93448
# Shear Modulus (GPa) = 17.20044 24.14539 20.67292
#
# Velocity S-wave (km/s) = 3.01414 3.57117 3.30442
# Velocity P-wave (km/s) = 5.33028 7.59480 6.56098
#
# Compressibility (1/GPa) = 0.03240716
#
# Stress axis : x y z
#
# Youngs Moduli (GPa) = 76.63628 89.38855 20.06452
#
# Poissons Ratio (x) = 0.52607 0.25589
# Poissons Ratio (y) = 0.45102 0.04405
# Poissons Ratio (z) = 0.97737 0.19624
#
# Static dielectric constant tensor:
#      x y z
#    x 1.634010 0.000000 0.000000 
#    y 0.000000 1.673320 0.000000 
#    z 0.000000 0.000000 1.662170 
# 
# From -- ./inp_files/34120.got.cif
#   From: 2010.05.17/outbox.cif.g08.bks.cpg/sg71_18_cif.got.tgz:34120.got - 2010.06.03 16:22:01.
