data_PCOD9522253
_publ_section_title
;
Structure prediction by ZEFSAII (Michael W. Deem and Ramdas Pophale) SiO2 
 PCOD9522253
Probable space group: I M M M
;
_chemical_formula_sum "Si O2"
_cell_formula_units_Z 90
_cell_length_a 20.467520
_cell_length_b 25.089257
_cell_length_c 7.607679
_cell_angle_alpha 90.000000
_cell_angle_beta 90.000000
_cell_angle_gamma 90.000000
_cell_volume 3906.656288
_symmetry_space_group_name_H-M "I M M M"
_symmetry_group_IT_number 71
_symmetry_cell_setting 'orthorhombic'
loop_
_space_group_symop_operation_xyz
x,y,z
-x,-y,z
x,-y,-z
-x,y,-z
-x,-y,-z
x,y,-z
-x,y,z
x,-y,z
1/2+x,1/2+y,1/2+z
1/2-x,1/2-y,1/2+z
1/2+x,1/2-y,1/2-z
1/2-x,1/2+y,1/2-z
1/2-x,1/2-y,1/2-z
1/2+x,1/2+y,1/2-z
1/2-x,1/2+y,1/2+z
1/2+x,1/2-y,1/2+z
loop_
_atom_site_type_symbol
_atom_site_label
_atom_site_fract_x
_atom_site_fract_y
_atom_site_fract_z
Si Si1 0.885645 0.701714 0.785759
Si Si2 0.430082 0.084642 0.793557
Si Si3 0.500000 0.407512 0.805000
Si Si4 0.500000 0.500000 0.500000
Si Si5 0.258745 0.328089 0.201307
Si Si6 0.404741 0.684076 0.700763
Si Si7 0.712601 0.057609 0.786334
O O1 0.921052 0.648300 0.724411
O O2 0.809230 0.696677 0.729357
O O3 0.917900 0.756774 0.725500
O O4 0.885594 0.701209 0.000000
O O5 0.500000 0.068865 0.716574
O O6 0.362740 0.060639 0.724629
O O7 0.431463 0.070990 0.000000
O O8 0.500000 0.452371 0.654736
O O9 0.561577 0.366598 0.788316
O O10 0.500000 0.430999 0.000000
O O11 0.326135 0.317802 0.297519
O O12 0.247872 0.391559 0.209217
O O13 0.266363 0.310852 0.000000
O O14 0.427027 0.682877 0.500000
O O15 0.740726 0.000000 0.741532
O O16 0.713278 0.062832 0.000000
#
# Coordination Sequence:
#
# PCOD9522253 Si02
#       7
#    16  16   8   2  16  16  16
#     4   9  20  35  57  85 125 165 199 250 314 380
#     4   9  18  31  49  78 113 152 199 246 298 362
#     4  12  27  49  77 104 131 173 219 272 332 398
#     4  12  26  60  76  98 140 172 218 280 340 386
#     4  10  20  36  57  88 121 160 206 255 320 389
#     4  11  22  41  64  94 128 162 207 259 316 387
#     4   9  18  34  53  75 107 151 200 252 307 362
#
# _framework density 23.037604000000002
#
# number of rings (size 3 to 8) (size 9 to 14) (size 15 to 20)
#    0.000    2.133    0.889    1.733    1.244    3.200 
#    1.600    1.778    0.000    0.000    0.000    4.978 
#    0.000    0.000    0.000    0.000    0.000    0.000 
#
# Total GULP energy -251124.434723 kJ/mol
# GULP energy per Si atom -5580.542994 kJ/mol
# Density = 2.298517 g / cm^3
# Si number density = 23.037604 Si / 1000 Ang^3
#
#
#
# Elastic Constant Matrix: (Units=GPa)
#
#
# Indices 1 2 3 4 5 6 
#
# 1 76.1156 5.1766 4.1715 0.0000 0.0000 0.0000
# 2 5.1766 146.3882 20.5296 0.0000 0.0000 0.0000
# 3 4.1715 20.5296 92.5783 0.0000 0.0000 0.0000
# 4 0.0000 0.0000 0.0000 16.7776 0.0000 0.0000
# 5 0.0000 0.0000 0.0000 0.0000 -7.6948 0.0000
# 6 0.0000 0.0000 0.0000 0.0000 0.0000 -7.6844
#
#
#
# Elastic Compliance Matrix: (Units=1/GPa)
#
#
# Indices 1 2 3 4 5 6 
#
# 1 0.013193 -0.000395 -0.000507 0.000000 0.000000 0.000000
# 2 -0.000395 0.007062 -0.001548 0.000000 0.000000 0.000000
# 3 -0.000507 -0.001548 0.011168 0.000000 0.000000 0.000000
# 4 0.000000 0.000000 0.000000 0.059603 0.000000 0.000000
# 5 0.000000 0.000000 0.000000 0.000000 -0.129958 0.000000
# 6 0.000000 0.000000 0.000000 0.000000 0.000000 -0.130134
#
#
# Mechanical properties :
#
#
# Convention : Reuss Voigt Hill
#
# Bulk Modulus (GPa) = 37.70493 41.64863 39.67678
# Shear Modulus (GPa) = -32.19078 19.29330 -6.44874
#
# Velocity S-wave (km/s) = -3.74212 2.89705 -1.67490
# Velocity P-wave (km/s) = 1.50635 5.41371 3.67690
#
# Compressibility (1/GPa) = 0.02652173
#
# Stress axis : x y z
#
# Youngs Moduli (GPa) = 75.80017 141.59765 89.54288
#
# Poissons Ratio (x) = 0.05600 0.04538
# Poissons Ratio (y) = 0.02998 0.13864
# Poissons Ratio (z) = 0.03841 0.21923
#
# Static dielectric constant tensor:
#      x y z
#    x 1.870910 0.000000 0.000000 
#    y 0.000000 1.855710 0.000000 
#    z 0.000000 0.000000 1.872310 
# 
# From -- ./inp_files/10576.got.cif
#   From: 2010.05.17/outbox.cif.g08.bks.cpg/sg71_6_cif.got.tgz:10576.got - 2010.06.03 16:22:01.
