data_PCOD9522028
_publ_section_title
;
Structure prediction by ZEFSAII (Michael W. Deem and Ramdas Pophale) SiO2 
 PCOD9522028
Probable space group: I M M M
;
_chemical_formula_sum "Si O2"
_cell_formula_units_Z 80
_cell_length_a 15.230893
_cell_length_b 22.540565
_cell_length_c 13.262188
_cell_angle_alpha 90.000000
_cell_angle_beta 90.000000
_cell_angle_gamma 90.000000
_cell_volume 4553.080669
_symmetry_space_group_name_H-M "I M M M"
_symmetry_group_IT_number 71
_symmetry_cell_setting 'orthorhombic'
loop_
_space_group_symop_operation_xyz
x,y,z
-x,-y,z
x,-y,-z
-x,y,-z
-x,-y,-z
x,y,-z
-x,y,z
x,-y,z
1/2+x,1/2+y,1/2+z
1/2-x,1/2-y,1/2+z
1/2+x,1/2-y,1/2-z
1/2-x,1/2+y,1/2-z
1/2-x,1/2-y,1/2-z
1/2+x,1/2+y,1/2-z
1/2-x,1/2+y,1/2+z
1/2+x,1/2-y,1/2+z
loop_
_atom_site_type_symbol
_atom_site_label
_atom_site_fract_x
_atom_site_fract_y
_atom_site_fract_z
Si Si1 0.500000 0.066287 0.122042
Si Si2 0.105480 0.000000 0.379860
Si Si3 0.329031 0.139597 0.881714
Si Si4 0.000000 0.895565 0.111597
Si Si5 0.000000 0.247818 0.884806
Si Si6 0.158816 0.109760 0.253320
Si Si7 0.647827 0.255848 0.222993
O O1 0.588478 0.099857 0.149235
O O2 0.500000 0.000000 0.162054
O O3 0.500000 0.064366 0.000000
O O4 0.153892 0.058251 0.335649
O O5 0.109934 0.000000 0.500000
O O6 0.000000 0.000000 0.353283
O O7 0.247982 0.122172 0.809235
O O8 0.360909 0.207391 0.864457
O O9 0.306520 0.130949 0.000000
O O10 0.000000 0.823648 0.105983
O O11 0.913300 0.910857 0.172262
O O12 0.000000 0.920321 0.000000
O O13 0.914545 0.262282 0.817051
O O14 0.000000 0.271317 0.000000
O O15 0.130797 0.174548 0.297257
O O16 0.750000 0.250000 0.250000
#
# Coordination Sequence:
#
# PCOD9522028 Si02
#       7
#     8   8  16   8   8  16  16
#     4   9  19  34  50  75 107 143 181 217 264 329
#     4  11  24  42  58  77 110 155 197 234 274 329
#     4  10  20  35  57  84 116 146 181 230 291 343
#     4   9  16  30  51  79 112 140 178 228 284 336
#     4   9  17  31  53  77 111 156 188 227 284 336
#     4  10  20  36  56  82 110 149 188 233 278 340
#     4   9  19  33  54  85 116 144 188 239 285 343
#
# _framework density 17.570520999999999
#
# number of rings (size 3 to 8) (size 9 to 14) (size 15 to 20)
#    0.000    2.400    1.000    1.200    1.400    5.600 
#    0.000    5.000    0.000    0.000    0.000    0.700 
#    0.000    0.000    0.000    0.000    0.000    0.000 
#
# Total GULP energy -222687.228979 kJ/mol
# GULP energy per Si atom -5567.180724 kJ/mol
# Density = 1.753053 g / cm^3
# Si number density = 17.570521 Si / 1000 Ang^3
#
#
#
# Elastic Constant Matrix: (Units=GPa)
#
#
# Indices 1 2 3 4 5 6 
#
# 1 108.3373 35.2558 48.1746 0.0000 0.0000 0.0000
# 2 35.2558 114.9306 45.0189 0.0000 0.0000 0.0000
# 3 48.1746 45.0189 82.3564 0.0000 0.0000 0.0000
# 4 0.0000 0.0000 0.0000 28.3294 0.0000 0.0000
# 5 0.0000 0.0000 0.0000 0.0000 24.6778 0.0000
# 6 0.0000 0.0000 0.0000 0.0000 0.0000 22.6276
#
#
#
# Elastic Compliance Matrix: (Units=1/GPa)
#
#
# Indices 1 2 3 4 5 6 
#
# 1 0.012614 -0.001246 -0.006698 0.000000 0.000000 0.000000
# 2 -0.001246 0.011195 -0.005391 0.000000 0.000000 0.000000
# 3 -0.006698 -0.005391 0.019007 0.000000 0.000000 0.000000
# 4 0.000000 0.000000 0.000000 0.035299 0.000000 0.000000
# 5 0.000000 0.000000 0.000000 0.000000 0.040522 0.000000
# 6 0.000000 0.000000 0.000000 0.000000 0.000000 0.044194
#
#
# Mechanical properties :
#
#
# Convention : Reuss Voigt Hill
#
# Bulk Modulus (GPa) = 61.92975 62.50256 62.21616
# Shear Modulus (GPa) = 25.65667 26.93863 26.29765
#
# Velocity S-wave (km/s) = 3.82542 3.91982 3.87291
# Velocity P-wave (km/s) = 7.40504 7.49242 7.44886
#
# Compressibility (1/GPa) = 0.01614733
#
# Stress axis : x y z
#
# Youngs Moduli (GPa) = 79.27613 89.32866 52.61292
#
# Poissons Ratio (x) = 0.11130 0.35238
# Poissons Ratio (y) = 0.09878 0.28361
# Poissons Ratio (z) = 0.53096 0.48153
#
# Static dielectric constant tensor:
#      x y z
#    x 1.594900 0.000000 0.000000 
#    y 0.000000 1.637170 0.000000 
#    z 0.000000 0.000000 1.597200 
# 
# From -- ./inp_files/21965.got.cif
#   From: 2010.05.17/outbox.cif.g08.bks.cpg/sg71_11_cif.got.tgz:21965.got - 2010.06.03 16:22:01.
