data_PCOD9522088
_publ_section_title
;
Structure prediction by ZEFSAII (Michael W. Deem and Ramdas Pophale) SiO2 
 PCOD9522088
Probable space group: I M M M
;
_chemical_formula_sum "Si O2"
_cell_formula_units_Z 104
_cell_length_a 28.876953
_cell_length_b 7.941495
_cell_length_c 21.691948
_cell_angle_alpha 90.000000
_cell_angle_beta 90.000000
_cell_angle_gamma 90.000000
_cell_volume 4974.531525
_symmetry_space_group_name_H-M "I M M M"
_symmetry_group_IT_number 71
_symmetry_cell_setting 'orthorhombic'
loop_
_space_group_symop_operation_xyz
x,y,z
-x,-y,z
x,-y,-z
-x,y,-z
-x,-y,-z
x,y,-z
-x,y,z
x,-y,z
1/2+x,1/2+y,1/2+z
1/2-x,1/2-y,1/2+z
1/2+x,1/2-y,1/2-z
1/2-x,1/2+y,1/2-z
1/2-x,1/2-y,1/2-z
1/2+x,1/2+y,1/2-z
1/2-x,1/2+y,1/2+z
1/2+x,1/2-y,1/2+z
loop_
_atom_site_type_symbol
_atom_site_label
_atom_site_fract_x
_atom_site_fract_y
_atom_site_fract_z
Si Si1 0.867561 0.199599 0.734311
Si Si2 0.447118 0.794753 0.000000
Si Si3 0.884882 0.297657 0.930558
Si Si4 0.870119 0.696293 0.405189
Si Si5 0.448411 0.297550 0.325582
Si Si6 0.302673 0.203213 0.337739
Si Si7 0.731114 0.697657 0.066759
O O1 0.871463 0.282334 0.667974
O O2 0.909317 0.264132 0.777961
O O3 0.820051 0.229112 0.772171
O O4 0.872527 0.000000 0.725500
O O5 0.416220 0.744498 0.940710
O O6 0.500000 0.732649 0.000000
O O7 0.449713 0.000000 0.000000
O O8 0.882862 0.500000 0.933144
O O9 0.930725 0.247147 0.893637
O O10 0.841984 0.244884 0.887609
O O11 0.882487 0.232097 0.000000
O O12 0.864328 0.500000 0.420605
O O13 0.823784 0.786660 0.427846
O O14 0.500000 0.233745 0.313313
O O15 0.448943 0.500000 0.320598
O O16 0.255806 0.263357 0.371270
O O17 0.302207 0.000000 0.331523
O O18 0.743619 0.500000 0.064928
O O19 0.745881 0.770319 0.000000
#
# Coordination Sequence:
#
# PCOD9522088 Si02
#       7
#    16   8  16  16  16  16  16
#     4  10  21  37  56  79 109 144 183 230 277 326
#     4   9  20  40  63  87 115 145 181 227 280 339
#     4   9  17  30  49  74 105 138 178 226 269 313
#     4  11  22  38  60  85 112 143 178 221 274 330
#     4   9  19  35  52  71 100 138 178 222 273 326
#     4   9  18  34  55  80 109 147 188 224 268 322
#     4  10  20  35  58  85 115 148 183 225 273 325
#
# _framework density 20.906493000000001
#
# number of rings (size 3 to 8) (size 9 to 14) (size 15 to 20)
#    0.000    2.385    0.769    1.385    0.000    5.231 
#    0.000    1.538    0.000    6.000    0.000    0.000 
#    0.000    0.000    0.000    0.000    0.000    0.000 
#
# Total GULP energy -290131.112508 kJ/mol
# GULP energy per Si atom -5579.444471 kJ/mol
# Density = 2.085891 g / cm^3
# Si number density = 20.906493 Si / 1000 Ang^3
#
#
#
# Elastic Constant Matrix: (Units=GPa)
#
#
# Indices 1 2 3 4 5 6 
#
# 1 105.3478 -2.4343 38.8247 0.0000 0.0000 0.0000
# 2 -2.4343 19.3425 -0.3051 0.0000 0.0000 0.0000
# 3 38.8247 -0.3051 139.7922 0.0000 0.0000 0.0000
# 4 0.0000 0.0000 0.0000 6.7806 0.0000 0.0000
# 5 0.0000 0.0000 0.0000 0.0000 13.8366 0.0000
# 6 0.0000 0.0000 0.0000 0.0000 0.0000 20.8130
#
#
#
# Elastic Compliance Matrix: (Units=1/GPa)
#
#
# Indices 1 2 3 4 5 6 
#
# 1 0.010607 0.001288 -0.002943 0.000000 0.000000 0.000000
# 2 0.001288 0.051858 -0.000245 0.000000 0.000000 0.000000
# 3 -0.002943 -0.000245 0.007970 0.000000 0.000000 0.000000
# 4 0.000000 0.000000 0.000000 0.147480 0.000000 0.000000
# 5 0.000000 0.000000 0.000000 0.000000 0.072272 0.000000
# 6 0.000000 0.000000 0.000000 0.000000 0.000000 0.048047
#
#
# Mechanical properties :
#
#
# Convention : Reuss Voigt Hill
#
# Bulk Modulus (GPa) = 15.00678 37.40590 26.20634
# Shear Modulus (GPa) = 13.72704 23.51252 18.61978
#
# Velocity S-wave (km/s) = 2.56518 3.35722 2.98757
# Velocity P-wave (km/s) = 3.99590 5.74097 4.94601
#
# Compressibility (1/GPa) = 0.06663653
#
# Stress axis : x y z
#
# Youngs Moduli (GPa) = 94.27956 19.28346 125.46564
#
# Poissons Ratio (x) = -0.02485 0.36925
# Poissons Ratio (y) = -0.12148 0.03070
# Poissons Ratio (z) = 0.27747 0.00472
#
# Static dielectric constant tensor:
#      x y z
#    x 1.763750 0.000000 0.000000 
#    y 0.000000 1.746640 0.000000 
#    z 0.000000 0.000000 1.769900 
# 
# From -- ./inp_files/11158.got.cif
#   From: 2010.05.17/outbox.cif.g08.bks.cpg/sg71_6_cif.got.tgz:11158.got - 2010.06.03 16:22:01.
