data_PCOD9522244
_publ_section_title
;
Structure prediction by ZEFSAII (Michael W. Deem and Ramdas Pophale) SiO2 
 PCOD9522244
Probable space group: I M M M
;
_chemical_formula_sum "Si O2"
_cell_formula_units_Z 88
_cell_length_a 26.647531
_cell_length_b 11.107712
_cell_length_c 16.827210
_cell_angle_alpha 90.000000
_cell_angle_beta 90.000000
_cell_angle_gamma 90.000000
_cell_volume 4980.738050
_symmetry_space_group_name_H-M "I M M M"
_symmetry_group_IT_number 71
_symmetry_cell_setting 'orthorhombic'
loop_
_space_group_symop_operation_xyz
x,y,z
-x,-y,z
x,-y,-z
-x,y,-z
-x,-y,-z
x,y,-z
-x,y,z
x,-y,z
1/2+x,1/2+y,1/2+z
1/2-x,1/2-y,1/2+z
1/2+x,1/2-y,1/2-z
1/2-x,1/2+y,1/2-z
1/2-x,1/2-y,1/2-z
1/2+x,1/2+y,1/2-z
1/2-x,1/2+y,1/2+z
1/2+x,1/2-y,1/2+z
loop_
_atom_site_type_symbol
_atom_site_label
_atom_site_fract_x
_atom_site_fract_y
_atom_site_fract_z
Si Si1 0.059323 0.500000 0.095548
Si Si2 0.185525 0.364033 0.670146
Si Si3 0.369553 0.201070 0.329361
Si Si4 0.870888 0.136850 0.405789
Si Si5 0.444514 0.640399 0.228774
Si Si6 0.209988 0.137377 0.909413
O O1 0.091345 0.611569 0.129446
O O2 0.000000 0.500000 0.119183
O O3 0.060617 0.500000 0.000000
O O4 0.172006 0.500000 0.640474
O O5 0.165772 0.356539 0.760632
O O6 0.161461 0.249504 0.625285
O O7 0.244807 0.351871 0.653645
O O8 0.403791 0.296898 0.283402
O O9 0.333113 0.268007 0.390389
O O10 0.875074 0.142608 0.500000
O O11 0.923913 0.149224 0.360900
O O12 0.851902 0.000000 0.385049
O O13 0.500000 0.693030 0.237280
O O14 0.446400 0.500000 0.248965
O O15 0.190723 0.000000 0.903696
O O16 0.229233 0.153691 0.000000
#
# Coordination Sequence:
#
# PCOD9522244 Si02
#       6
#     8  16  16  16  16  16
#     4  11  24  40  58  80 111 151 193 237 289 340
#     4  10  20  36  57  83 112 151 191 229 281 343
#     4  11  20  37  56  81 107 145 186 237 281 335
#     4   9  18  32  51  78 113 149 186 232 284 336
#     4   9  18  32  53  79 104 137 183 233 284 337
#     4  10  21  36  56  82 113 145 180 227 284 346
#
# _framework density 17.668064000000001
#
# number of rings (size 3 to 8) (size 9 to 14) (size 15 to 20)
#    0.000    2.091    0.909    2.727    0.000    2.182 
#    1.636    1.818    0.000    0.000    0.000   10.182 
#    0.000    0.000    0.000    0.000    0.000    0.000 
#
# Total GULP energy -245054.250926 kJ/mol
# GULP energy per Si atom -5569.414794 kJ/mol
# Density = 1.762785 g / cm^3
# Si number density = 17.668064 Si / 1000 Ang^3
#
#
#
# Elastic Constant Matrix: (Units=GPa)
#
#
# Indices 1 2 3 4 5 6 
#
# 1 99.0573 50.2287 33.1721 0.0000 0.0000 0.0000
# 2 50.2287 83.1721 34.1054 0.0000 0.0000 0.0000
# 3 33.1721 34.1054 71.0733 0.0000 0.0000 0.0000
# 4 0.0000 0.0000 0.0000 24.2600 0.0000 0.0000
# 5 0.0000 0.0000 0.0000 0.0000 23.6650 0.0000
# 6 0.0000 0.0000 0.0000 0.0000 0.0000 28.0755
#
#
#
# Elastic Compliance Matrix: (Units=1/GPa)
#
#
# Indices 1 2 3 4 5 6 
#
# 1 0.015162 -0.007787 -0.003340 0.000000 0.000000 0.000000
# 2 -0.007787 0.018968 -0.005468 0.000000 0.000000 0.000000
# 3 -0.003340 -0.005468 0.018253 0.000000 0.000000 0.000000
# 4 0.000000 0.000000 0.000000 0.041220 0.000000 0.000000
# 5 0.000000 0.000000 0.000000 0.000000 0.042257 0.000000
# 6 0.000000 0.000000 0.000000 0.000000 0.000000 0.035618
#
#
# Mechanical properties :
#
#
# Convention : Reuss Voigt Hill
#
# Bulk Modulus (GPa) = 52.10082 54.25723 53.17903
# Shear Modulus (GPa) = 23.68942 24.25319 23.97130
#
# Velocity S-wave (km/s) = 3.66567 3.70903 3.68742
# Velocity P-wave (km/s) = 6.88977 7.00846 6.94937
#
# Compressibility (1/GPa) = 0.01919356
#
# Stress axis : x y z
#
# Youngs Moduli (GPa) = 65.95346 52.72036 54.78697
#
# Poissons Ratio (x) = 0.41054 0.18299
# Poissons Ratio (y) = 0.51359 0.29955
# Poissons Ratio (z) = 0.22028 0.28825
#
# Static dielectric constant tensor:
#      x y z
#    x 1.589060 0.000000 0.000000 
#    y 0.000000 1.636370 0.000000 
#    z 0.000000 0.000000 1.593840 
# 
# From -- ./inp_files/21993.got.cif
#   From: 2010.05.17/outbox.cif.g08.bks.cpg/sg71_11_cif.got.tgz:21993.got - 2010.06.03 16:22:01.
