data_PCOD9522098
_publ_section_title
;
Structure prediction by ZEFSAII (Michael W. Deem and Ramdas Pophale) SiO2 
 PCOD9522098
Probable space group: I M M M
;
_chemical_formula_sum "Si O2"
_cell_formula_units_Z 88
_cell_length_a 21.653471
_cell_length_b 18.383147
_cell_length_c 11.884860
_cell_angle_alpha 90.000000
_cell_angle_beta 90.000000
_cell_angle_gamma 90.000000
_cell_volume 4730.874779
_symmetry_space_group_name_H-M "I M M M"
_symmetry_group_IT_number 71
_symmetry_cell_setting 'orthorhombic'
loop_
_space_group_symop_operation_xyz
x,y,z
-x,-y,z
x,-y,-z
-x,y,-z
-x,-y,-z
x,y,-z
-x,y,z
x,-y,z
1/2+x,1/2+y,1/2+z
1/2-x,1/2-y,1/2+z
1/2+x,1/2-y,1/2-z
1/2-x,1/2+y,1/2-z
1/2-x,1/2-y,1/2-z
1/2+x,1/2+y,1/2-z
1/2-x,1/2+y,1/2+z
1/2+x,1/2-y,1/2+z
loop_
_atom_site_type_symbol
_atom_site_label
_atom_site_fract_x
_atom_site_fract_y
_atom_site_fract_z
Si Si1 0.255623 0.417737 0.199443
Si Si2 0.875631 0.838211 0.220456
Si Si3 0.500000 0.415705 0.634699
Si Si4 0.778751 0.265258 0.124037
Si Si5 0.646459 0.079333 0.865871
Si Si6 0.569969 0.217411 0.865453
O O1 0.253943 0.500000 0.153284
O O2 0.324286 0.395087 0.237062
O O3 0.225518 0.353127 0.125627
O O4 0.213482 0.416903 0.311287
O O5 0.937317 0.876049 0.174937
O O6 0.841970 0.781094 0.135517
O O7 0.894794 0.788316 0.325399
O O8 0.500000 0.500000 0.673254
O O9 0.500000 0.415253 0.500000
O O10 0.750000 0.250000 0.250000
O O11 0.751221 0.243519 0.000000
O O12 0.605486 0.145917 0.824395
O O13 0.619437 0.000000 0.837207
O O14 0.650980 0.083828 0.000000
O O15 0.500000 0.218808 0.822846
O O16 0.568342 0.214462 0.000000
#
# Coordination Sequence:
#
# PCOD9522098 Si02
#       6
#    16  16   8  16  16  16
#     4  10  21  36  56  85 118 154 193 242 297 355
#     4  11  21  38  58  85 114 152 197 244 294 348
#     4  11  24  40  59  81 110 149 193 241 293 352
#     4  10  22  38  60  88 116 153 198 247 298 356
#     4   9  18  33  55  86 121 154 192 243 298 352
#     4  10  20  35  58  86 116 154 200 243 291 349
#
# _framework density 18.601210999999999
#
# number of rings (size 3 to 8) (size 9 to 14) (size 15 to 20)
#    0.000    1.909    2.727    1.091    0.000    7.273 
#    0.000    3.636    0.000    2.182    0.000    0.000 
#    0.000    5.818    0.000    0.000    0.000    0.000 
#
# Total GULP energy -244948.434680 kJ/mol
# GULP energy per Si atom -5567.009879 kJ/mol
# Density = 1.855887 g / cm^3
# Si number density = 18.601211 Si / 1000 Ang^3
#
#
#
# Elastic Constant Matrix: (Units=GPa)
#
#
# Indices 1 2 3 4 5 6 
#
# 1 74.6071 42.9430 22.7238 0.0000 0.0000 0.0000
# 2 42.9430 139.8631 28.7224 0.0000 0.0000 0.0000
# 3 22.7238 28.7224 60.8816 0.0000 0.0000 0.0000
# 4 0.0000 0.0000 0.0000 20.9444 0.0000 0.0000
# 5 0.0000 0.0000 0.0000 0.0000 13.5046 0.0000
# 6 0.0000 0.0000 0.0000 0.0000 0.0000 31.7360
#
#
#
# Elastic Compliance Matrix: (Units=1/GPa)
#
#
# Indices 1 2 3 4 5 6 
#
# 1 0.017269 -0.004405 -0.004367 0.000000 0.000000 0.000000
# 2 -0.004405 0.009041 -0.002621 0.000000 0.000000 0.000000
# 3 -0.004367 -0.002621 0.019292 0.000000 0.000000 0.000000
# 4 0.000000 0.000000 0.000000 0.047746 0.000000 0.000000
# 5 0.000000 0.000000 0.000000 0.000000 0.074049 0.000000
# 6 0.000000 0.000000 0.000000 0.000000 0.000000 0.031510
#
#
# Mechanical properties :
#
#
# Convention : Reuss Voigt Hill
#
# Bulk Modulus (GPa) = 43.83139 51.57002 47.70071
# Shear Modulus (GPa) = 21.80561 25.30116 23.55338
#
# Velocity S-wave (km/s) = 3.42756 3.69207 3.56227
# Velocity P-wave (km/s) = 6.26730 6.77934 6.52834
#
# Compressibility (1/GPa) = 0.02281470
#
# Stress axis : x y z
#
# Youngs Moduli (GPa) = 57.90558 110.61075 51.83524
#
# Poissons Ratio (x) = 0.48729 0.22638
# Poissons Ratio (y) = 0.25510 0.13585
# Poissons Ratio (z) = 0.25289 0.28990
#
# Static dielectric constant tensor:
#      x y z
#    x 1.681520 0.000000 0.000000 
#    y 0.000000 1.694510 0.000000 
#    z 0.000000 0.000000 1.649930 
# 
# From -- ./inp_files/23972.got.cif
#   From: 2010.05.17/outbox.cif.g08.bks.cpg/sg71_12_cif.got.tgz:23972.got - 2010.06.03 16:22:01.
