data_PCOD9522033
_publ_section_title
;
Structure prediction by ZEFSAII (Michael W. Deem and Ramdas Pophale) SiO2 
 PCOD9522033
Probable space group: I M M M
;
_chemical_formula_sum "Si O2"
_cell_formula_units_Z 68
_cell_length_a 11.421863
_cell_length_b 20.459131
_cell_length_c 14.793678
_cell_angle_alpha 90.000000
_cell_angle_beta 90.000000
_cell_angle_gamma 90.000000
_cell_volume 3457.007259
_symmetry_space_group_name_H-M "I M M M"
_symmetry_group_IT_number 71
_symmetry_cell_setting 'orthorhombic'
loop_
_space_group_symop_operation_xyz
x,y,z
-x,-y,z
x,-y,-z
-x,y,-z
-x,-y,-z
x,y,-z
-x,y,z
x,-y,z
1/2+x,1/2+y,1/2+z
1/2-x,1/2-y,1/2+z
1/2+x,1/2-y,1/2-z
1/2-x,1/2+y,1/2-z
1/2-x,1/2-y,1/2-z
1/2+x,1/2+y,1/2-z
1/2-x,1/2+y,1/2+z
1/2+x,1/2-y,1/2+z
loop_
_atom_site_type_symbol
_atom_site_label
_atom_site_fract_x
_atom_site_fract_y
_atom_site_fract_z
Si Si1 0.366364 0.268575 0.105504
Si Si2 0.698173 0.880269 0.342106
Si Si3 0.633851 0.500000 0.808064
Si Si4 0.803845 0.000000 0.901663
Si Si5 0.000000 0.385667 0.000000
Si Si6 0.368228 0.883086 0.863091
O O1 0.500000 0.278254 0.140179
O O2 0.269582 0.312395 0.153439
O O3 0.340351 0.191527 0.111280
O O4 0.365144 0.287539 0.000000
O O5 0.603282 0.885454 0.420997
O O6 0.637138 0.886772 0.245251
O O7 0.795097 0.937452 0.343823
O O8 0.500000 0.500000 0.838230
O O9 0.634949 0.500000 0.697227
O O10 0.722489 0.935755 0.898975
O O11 0.865755 0.000000 0.000000
O O12 0.500000 0.897560 0.893705
#
# Coordination Sequence:
#
# PCOD9522033 Si02
#       6
#    16  16   8   8   4  16
#     4  10  20  35  57  84 117 157 202 250 297 356
#     4  11  22  40  60  87 122 157 202 250 303 363
#     4  10  24  43  65  88 120 161 201 242 301 362
#     4  10  21  37  62  91 123 156 196 251 295 364
#     4  12  24  41  64  88 124 157 202 254 310 353
#     4  10  20  35  58  87 121 161 201 247 304 355
#
# _framework density 19.670193000000001
#
# number of rings (size 3 to 8) (size 9 to 14) (size 15 to 20)
#    0.000    1.647    2.353    2.471    0.000    3.529 
#    0.000    0.588    2.588    0.000    0.000    0.000 
#    0.000    0.000    0.000    0.000    0.000    0.000 
#
# Total GULP energy -189270.250084 kJ/mol
# GULP energy per Si atom -5566.772061 kJ/mol
# Density = 1.962542 g / cm^3
# Si number density = 19.670193 Si / 1000 Ang^3
#
#
#
# Elastic Constant Matrix: (Units=GPa)
#
#
# Indices 1 2 3 4 5 6 
#
# 1 139.0510 60.8124 31.7304 0.0000 0.0000 0.0000
# 2 60.8124 67.9445 0.6124 0.0000 0.0000 0.0000
# 3 31.7304 0.6124 115.1781 0.0000 0.0000 0.0000
# 4 0.0000 0.0000 0.0000 24.2459 0.0000 0.0000
# 5 0.0000 0.0000 0.0000 0.0000 7.9673 0.0000
# 6 0.0000 0.0000 0.0000 0.0000 0.0000 26.5427
#
#
#
# Elastic Compliance Matrix: (Units=1/GPa)
#
#
# Indices 1 2 3 4 5 6 
#
# 1 0.013127 -0.011717 -0.003554 0.000000 0.000000 0.000000
# 2 -0.011717 0.025177 0.003094 0.000000 0.000000 0.000000
# 3 -0.003554 0.003094 0.009645 0.000000 0.000000 0.000000
# 4 0.000000 0.000000 0.000000 0.041244 0.000000 0.000000
# 5 0.000000 0.000000 0.000000 0.000000 0.125513 0.000000
# 6 0.000000 0.000000 0.000000 0.000000 0.000000 0.037675
#
#
# Mechanical properties :
#
#
# Convention : Reuss Voigt Hill
#
# Bulk Modulus (GPa) = 42.38203 56.49821 49.44012
# Shear Modulus (GPa) = 17.56853 27.01907 22.29380
#
# Velocity S-wave (km/s) = 2.99181 3.71024 3.37022
# Velocity P-wave (km/s) = 5.79031 6.86583 6.35088
#
# Compressibility (1/GPa) = 0.02359490
#
# Stress axis : x y z
#
# Youngs Moduli (GPa) = 76.17965 39.71882 103.68221
#
# Poissons Ratio (x) = 0.46538 0.36849
# Poissons Ratio (y) = 0.89259 -0.32080
# Poissons Ratio (z) = 0.27074 -0.12289
#
# Static dielectric constant tensor:
#      x y z
#    x 1.656560 0.000000 0.000000 
#    y 0.000000 1.679670 0.000000 
#    z 0.000000 0.000000 1.706960 
# 
# From -- ./inp_files/32488.got.cif
#   From: 2010.05.17/outbox.cif.g08.bks.cpg/sg71_17_cif.got.tgz:32488.got - 2010.06.03 16:22:01.
