data_PCOD9522118
_publ_section_title
;
Structure prediction by ZEFSAII (Michael W. Deem and Ramdas Pophale) SiO2 
 PCOD9522118
Probable space group: I M M M
;
_chemical_formula_sum "Si O2"
_cell_formula_units_Z 116
_cell_length_a 23.150160
_cell_length_b 20.475815
_cell_length_c 12.497005
_cell_angle_alpha 90.000000
_cell_angle_beta 90.000000
_cell_angle_gamma 90.000000
_cell_volume 5923.810232
_symmetry_space_group_name_H-M "I M M M"
_symmetry_group_IT_number 71
_symmetry_cell_setting 'orthorhombic'
loop_
_space_group_symop_operation_xyz
x,y,z
-x,-y,z
x,-y,-z
-x,y,-z
-x,-y,-z
x,y,-z
-x,y,z
x,-y,z
1/2+x,1/2+y,1/2+z
1/2-x,1/2-y,1/2+z
1/2+x,1/2-y,1/2-z
1/2-x,1/2+y,1/2-z
1/2-x,1/2-y,1/2-z
1/2+x,1/2+y,1/2-z
1/2-x,1/2+y,1/2+z
1/2+x,1/2-y,1/2+z
loop_
_atom_site_type_symbol
_atom_site_label
_atom_site_fract_x
_atom_site_fract_y
_atom_site_fract_z
Si Si1 0.930501 0.667973 0.616237
Si Si2 0.770417 0.095546 0.209783
Si Si3 0.934095 0.577801 0.812675
Si Si4 0.232596 0.000000 0.000000
Si Si5 0.431928 0.303658 0.774332
Si Si6 0.124877 0.072952 0.375413
Si Si7 0.317369 0.126952 0.617937
Si Si8 0.672156 0.281159 0.625336
O O1 0.904971 0.655343 0.500000
O O2 0.919242 0.610635 0.699050
O O3 0.913894 0.739062 0.659255
O O4 0.000000 0.670359 0.607954
O O5 0.768438 0.056179 0.098210
O O6 0.822755 0.075676 0.289931
O O7 0.714371 0.090496 0.285186
O O8 0.782606 0.171364 0.182585
O O9 0.932532 0.500000 0.808174
O O10 0.883722 0.604777 0.885877
O O11 0.000000 0.597378 0.841576
O O12 0.500000 0.299785 0.750462
O O13 0.417494 0.368704 0.840798
O O14 0.390706 0.300346 0.671595
O O15 0.142631 0.082339 0.500000
O O16 0.099103 0.000000 0.367805
O O17 0.291095 0.114795 0.500000
O O18 0.316454 0.204432 0.639972
O O19 0.673649 0.294156 0.500000
#
# Coordination Sequence:
#
# PCOD9522118 Si02
#       8
#    16  16  16   4  16  16  16  16
#     4   9  17  33  55  79 111 155 205 251 298 356
#     4  11  23  43  64  94 125 162 208 256 324 380
#     4  10  22  40  59  86 125 163 202 250 309 369
#     4  12  24  44  70  92 130 172 202 260 316 400
#     4  10  20  35  58  89 127 167 210 258 311 376
#     4  10  21  37  60  90 126 167 211 260 315 376
#     4  11  24  42  67  95 123 162 209 265 313 372
#     4  10  21  40  65  90 124 161 208 266 319 370
#
# _framework density 19.581992
#
# number of rings (size 3 to 8) (size 9 to 14) (size 15 to 20)
#    0.000    1.793    2.759    1.241    0.966    2.207 
#    1.241    4.138    0.000    0.000    0.000    3.862 
#    0.000    0.000    0.000    0.000    0.000    0.000 
#
# Total GULP energy -322884.946949 kJ/mol
# GULP energy per Si atom -5566.981844 kJ/mol
# Density = 1.953742 g / cm^3
# Si number density = 19.581992 Si / 1000 Ang^3
#
#
#
# Elastic Constant Matrix: (Units=GPa)
#
#
# Indices 1 2 3 4 5 6 
#
# 1 61.1517 10.3988 36.0193 0.0000 0.0000 0.0000
# 2 10.3988 80.9420 29.5211 0.0000 0.0000 0.0000
# 3 36.0193 29.5211 111.6912 0.0000 0.0000 0.0000
# 4 0.0000 0.0000 0.0000 27.9657 0.0000 0.0000
# 5 0.0000 0.0000 0.0000 0.0000 21.7502 0.0000
# 6 0.0000 0.0000 0.0000 0.0000 0.0000 8.0571
#
#
#
# Elastic Compliance Matrix: (Units=1/GPa)
#
#
# Indices 1 2 3 4 5 6 
#
# 1 0.020192 -0.000243 -0.006448 0.000000 0.000000 0.000000
# 2 -0.000243 0.013675 -0.003536 0.000000 0.000000 0.000000
# 3 -0.006448 -0.003536 0.011967 0.000000 0.000000 0.000000
# 4 0.000000 0.000000 0.000000 0.035758 0.000000 0.000000
# 5 0.000000 0.000000 0.000000 0.000000 0.045977 0.000000
# 6 0.000000 0.000000 0.000000 0.000000 0.000000 0.124114
#
#
# Mechanical properties :
#
#
# Convention : Reuss Voigt Hill
#
# Bulk Modulus (GPa) = 39.39869 45.07372 42.23620
# Shear Modulus (GPa) = 17.81921 23.41099 20.61510
#
# Velocity S-wave (km/s) = 3.01986 3.46140 3.24814
# Velocity P-wave (km/s) = 5.68533 6.24844 5.97352
#
# Compressibility (1/GPa) = 0.02538156
#
# Stress axis : x y z
#
# Youngs Moduli (GPa) = 49.52527 73.12374 83.56168
#
# Poissons Ratio (x) = 0.01774 0.53877
# Poissons Ratio (y) = 0.01201 0.29550
# Poissons Ratio (z) = 0.31932 0.25859
#
# Static dielectric constant tensor:
#      x y z
#    x 1.686480 0.000000 0.000000 
#    y 0.000000 1.691220 0.000000 
#    z 0.000000 0.000000 1.710980 
# 
# From -- ./inp_files/28966.got.cif
#   From: 2010.05.17/outbox.cif.g08.bks.cpg/sg71_15_cif.got.tgz:28966.got - 2010.06.03 16:22:01.
