data_PCOD9522013
_publ_section_title
;
Structure prediction by ZEFSAII (Michael W. Deem and Ramdas Pophale) SiO2 
 PCOD9522013
Probable space group: I M M M
;
_chemical_formula_sum "Si O2"
_cell_formula_units_Z 104
_cell_length_a 28.605607
_cell_length_b 22.778960
_cell_length_c 8.924773
_cell_angle_alpha 90.000000
_cell_angle_beta 90.000000
_cell_angle_gamma 90.000000
_cell_volume 5815.435436
_symmetry_space_group_name_H-M "I M M M"
_symmetry_group_IT_number 71
_symmetry_cell_setting 'orthorhombic'
loop_
_space_group_symop_operation_xyz
x,y,z
-x,-y,z
x,-y,-z
-x,y,-z
-x,-y,-z
x,y,-z
-x,y,z
x,-y,z
1/2+x,1/2+y,1/2+z
1/2-x,1/2-y,1/2+z
1/2+x,1/2-y,1/2-z
1/2-x,1/2+y,1/2-z
1/2-x,1/2-y,1/2-z
1/2+x,1/2+y,1/2-z
1/2-x,1/2+y,1/2+z
1/2+x,1/2-y,1/2+z
loop_
_atom_site_type_symbol
_atom_site_label
_atom_site_fract_x
_atom_site_fract_y
_atom_site_fract_z
Si Si1 0.204259 0.182628 0.678091
Si Si2 0.110819 0.837594 0.825962
Si Si3 0.944113 0.931578 0.667014
Si Si4 0.945122 0.731334 0.323607
Si Si5 0.945250 0.500000 0.817908
Si Si6 0.696759 0.822394 0.821081
Si Si7 0.103840 0.622359 0.819690
O O1 0.206761 0.175609 0.500000
O O2 0.160494 0.150458 0.750164
O O3 0.252768 0.162796 0.751963
O O4 0.193923 0.252027 0.709081
O O5 0.078805 0.893502 0.794847
O O6 0.085540 0.783339 0.744636
O O7 0.116508 0.824187 0.000000
O O8 0.929773 0.909880 0.500000
O O9 0.000000 0.926754 0.673791
O O10 0.932078 0.000000 0.677440
O O11 0.934377 0.724937 0.500000
O O12 0.931884 0.671763 0.238888
O O13 0.000000 0.744684 0.307582
O O14 0.916798 0.441233 0.773789
O O15 0.000000 0.500000 0.767627
O O16 0.946790 0.500000 0.000000
O O17 0.653978 0.858167 0.748372
O O18 0.696154 0.830422 0.000000
O O19 0.106953 0.623870 0.000000
#
# Coordination Sequence:
#
# PCOD9522013 Si02
#       7
#    16  16  16  16   8  16  16
#     4  10  20  35  57  83 115 149 184 226 277 337
#     4  12  23  34  54  84 116 148 184 230 282 334
#     4   9  19  37  59  80 107 148 192 229 271 328
#     4  11  23  37  53  78 114 151 188 233 284 337
#     4   9  20  38  59  85 117 155 199 245 290 345
#     4  10  20  35  57  84 115 146 182 229 280 337
#     4  11  21  36  60  85 113 150 193 238 289 347
#
# _framework density 17.883441999999999
#
# number of rings (size 3 to 8) (size 9 to 14) (size 15 to 20)
#    0.000    1.615    1.538    4.615    0.000    5.538 
#    0.000    2.308    1.692    2.769    0.000    0.000 
#    0.000    0.000    0.000    0.000    0.000    0.000 
#
# Total GULP energy -290340.552847 kJ/mol
# GULP energy per Si atom -5583.472170 kJ/mol
# Density = 1.784274 g / cm^3
# Si number density = 17.883442 Si / 1000 Ang^3
#
#
#
# Elastic Constant Matrix: (Units=GPa)
#
#
# Indices 1 2 3 4 5 6 
#
# 1 99.0955 35.1235 37.7896 0.0000 0.0000 0.0000
# 2 35.1235 36.9774 13.4531 0.0000 0.0000 0.0000
# 3 37.7896 13.4531 45.7584 0.0000 0.0000 0.0000
# 4 0.0000 0.0000 0.0000 23.6424 0.0000 0.0000
# 5 0.0000 0.0000 0.0000 0.0000 33.3188 0.0000
# 6 0.0000 0.0000 0.0000 0.0000 0.0000 16.8933
#
#
#
# Elastic Compliance Matrix: (Units=1/GPa)
#
#
# Indices 1 2 3 4 5 6 
#
# 1 0.019831 -0.014421 -0.012138 0.000000 0.000000 0.000000
# 2 -0.014421 0.040770 -0.000077 0.000000 0.000000 0.000000
# 3 -0.012138 -0.000077 0.031901 0.000000 0.000000 0.000000
# 4 0.000000 0.000000 0.000000 0.042297 0.000000 0.000000
# 5 0.000000 0.000000 0.000000 0.000000 0.030013 0.000000
# 6 0.000000 0.000000 0.000000 0.000000 0.000000 0.059195
#
#
# Mechanical properties :
#
#
# Convention : Reuss Voigt Hill
#
# Bulk Modulus (GPa) = 25.49068 39.39599 32.44334
# Shear Modulus (GPa) = 17.22030 21.13523 19.17777
#
# Velocity S-wave (km/s) = 3.10646 3.44151 3.27827
# Velocity P-wave (km/s) = 5.21071 6.15379 5.70178
#
# Compressibility (1/GPa) = 0.03923002
#
# Stress axis : x y z
#
# Youngs Moduli (GPa) = 50.42488 24.52812 31.34739
#
# Poissons Ratio (x) = 0.35372 0.38049
# Poissons Ratio (y) = 0.72719 0.00240
# Poissons Ratio (z) = 0.61206 0.00188
#
# Static dielectric constant tensor:
#      x y z
#    x 1.620210 0.000000 0.000000 
#    y 0.000000 1.604900 0.000000 
#    z 0.000000 0.000000 1.610750 
# 
# From -- ./inp_files/16956.got.cif
#   From: 2010.05.17/outbox.cif.g08.bks.cpg/sg71_9_cif.got.tgz:16956.got - 2010.06.03 16:22:01.
