data_PCOD9522715
_publ_section_title
;
Structure prediction by ZEFSAII (Michael W. Deem and Ramdas Pophale) SiO2 
 PCOD9522715
Probable space group: I M M M
;
_chemical_formula_sum "Si O2"
_cell_formula_units_Z 88
_cell_length_a 13.568578
_cell_length_b 28.251363
_cell_length_c 13.476532
_cell_angle_alpha 90.000000
_cell_angle_beta 90.000000
_cell_angle_gamma 90.000000
_cell_volume 5165.970096
_symmetry_space_group_name_H-M "I M M M"
_symmetry_group_IT_number 71
_symmetry_cell_setting 'orthorhombic'
loop_
_space_group_symop_operation_xyz
x,y,z
-x,-y,z
x,-y,-z
-x,y,-z
-x,-y,-z
x,y,-z
-x,y,z
x,-y,z
1/2+x,1/2+y,1/2+z
1/2-x,1/2-y,1/2+z
1/2+x,1/2-y,1/2-z
1/2-x,1/2+y,1/2-z
1/2-x,1/2-y,1/2-z
1/2+x,1/2+y,1/2-z
1/2-x,1/2+y,1/2+z
1/2+x,1/2-y,1/2+z
loop_
_atom_site_type_symbol
_atom_site_label
_atom_site_fract_x
_atom_site_fract_y
_atom_site_fract_z
Si Si1 0.616307 0.361536 0.229529
Si Si2 0.388999 0.733887 0.118823
Si Si3 0.263225 0.945316 0.305675
Si Si4 0.387910 0.057333 0.500000
Si Si5 0.235563 0.678731 0.614745
Si Si6 0.117149 0.416678 0.613249
O O1 0.500000 0.368451 0.243356
O O2 0.631931 0.319886 0.149236
O O3 0.671609 0.409786 0.201634
O O4 0.671601 0.340723 0.325588
O O5 0.500000 0.745034 0.155301
O O6 0.311179 0.772758 0.154879
O O7 0.390087 0.737701 0.000000
O O8 0.330446 0.929860 0.399298
O O9 0.325180 0.941489 0.203096
O O10 0.234415 0.000000 0.320570
O O11 0.500000 0.075391 0.500000
O O12 0.392687 0.000000 0.500000
O O13 0.262339 0.685338 0.500000
O O14 0.151531 0.638086 0.619112
O O15 0.141683 0.432802 0.500000
O O16 0.000000 0.421471 0.625944
#
# Coordination Sequence:
#
# PCOD9522715 Si02
#       6
#    16  16  16   8  16  16
#     4  10  21  34  50  73 100 135 176 214 249 291
#     4   9  17  30  51  77 101 126 161 206 256 308
#     4  10  21  35  51  73 101 136 176 215 256 301
#     4   9  18  34  55  75  97 129 168 210 261 317
#     4   9  17  31  51  75 102 133 163 200 251 306
#     4   9  17  30  51  79 107 130 158 202 256 314
#
# _framework density 17.034554
#
# number of rings (size 3 to 8) (size 9 to 14) (size 15 to 20)
#    0.000    2.636    0.000    1.636    1.273    4.364 
#    0.000    0.909    0.000    2.727    0.000    5.091 
#    0.000    0.000    0.000    0.000    0.000    0.000 
#
# Total GULP energy -245127.279808 kJ/mol
# GULP energy per Si atom -5571.074541 kJ/mol
# Density = 1.699578 g / cm^3
# Si number density = 17.034554 Si / 1000 Ang^3
#
#
#
# Elastic Constant Matrix: (Units=GPa)
#
#
# Indices 1 2 3 4 5 6 
#
# 1 118.1693 68.9207 46.3382 0.0000 0.0000 0.0000
# 2 68.9207 95.4968 35.5934 0.0001 0.0000 0.0000
# 3 46.3382 35.5934 73.8870 0.0001 0.0001 0.0001
# 4 0.0000 0.0001 0.0001 24.4827 0.0000 0.0000
# 5 0.0000 0.0000 0.0001 0.0000 19.7301 0.0000
# 6 0.0000 0.0000 0.0001 0.0000 0.0000 17.2595
#
#
#
# Elastic Compliance Matrix: (Units=1/GPa)
#
#
# Indices 1 2 3 4 5 6 
#
# 1 0.016288 -0.009687 -0.005548 0.000000 0.000000 0.000000
# 2 -0.009687 0.018525 -0.002848 0.000000 0.000000 0.000000
# 3 -0.005548 -0.002848 0.018386 0.000000 0.000000 0.000000
# 4 0.000000 0.000000 0.000000 0.040845 0.000000 0.000000
# 5 0.000000 0.000000 0.000000 0.000000 0.050684 0.000000
# 6 0.000000 0.000000 0.000000 0.000000 0.000000 0.057939
#
#
# Mechanical properties :
#
#
# Convention : Reuss Voigt Hill
#
# Bulk Modulus (GPa) = 58.71840 65.47310 62.09575
# Shear Modulus (GPa) = 20.44886 21.40783 20.92835
#
# Velocity S-wave (km/s) = 3.46849 3.54888 3.50892
# Velocity P-wave (km/s) = 7.11235 7.43718 7.27658
#
# Compressibility (1/GPa) = 0.01703044
#
# Stress axis : x y z
#
# Youngs Moduli (GPa) = 61.39442 53.98241 54.38894
#
# Poissons Ratio (x) = 0.52294 0.30178
# Poissons Ratio (y) = 0.59474 0.15492
# Poissons Ratio (z) = 0.34065 0.15377
#
# Static dielectric constant tensor:
#      x y z
#    x 1.558120 0.000000 0.000000 
#    y 0.000000 1.576170 0.000000 
#    z 0.000000 0.000000 1.585790 
# 
# From -- ./inp_files/20267.got.cif
#   From: 2010.05.17/outbox.cif.g08.bks.cpg/sg71_11_cif.got.tgz:20267.got - 2010.06.03 16:22:01.
