data_PCOD9522744
_publ_section_title
;
Structure prediction by ZEFSAII (Michael W. Deem and Ramdas Pophale) SiO2 
 PCOD9522744
Probable space group: I M M M
;
_chemical_formula_sum "Si O2"
_cell_formula_units_Z 88
_cell_length_a 8.269868
_cell_length_b 21.527598
_cell_length_c 24.862581
_cell_angle_alpha 90.000000
_cell_angle_beta 90.000000
_cell_angle_gamma 90.000000
_cell_volume 4426.295087
_symmetry_space_group_name_H-M "I M M M"
_symmetry_group_IT_number 71
_symmetry_cell_setting 'orthorhombic'
loop_
_space_group_symop_operation_xyz
x,y,z
-x,-y,z
x,-y,-z
-x,y,-z
-x,-y,-z
x,y,-z
-x,y,z
x,-y,z
1/2+x,1/2+y,1/2+z
1/2-x,1/2-y,1/2+z
1/2+x,1/2-y,1/2-z
1/2-x,1/2+y,1/2-z
1/2-x,1/2-y,1/2-z
1/2+x,1/2+y,1/2-z
1/2-x,1/2+y,1/2+z
1/2+x,1/2-y,1/2+z
loop_
_atom_site_type_symbol
_atom_site_label
_atom_site_fract_x
_atom_site_fract_y
_atom_site_fract_z
Si Si1 0.805685 0.867519 0.393284
Si Si2 0.692927 0.068107 0.216164
Si Si3 0.305787 0.812827 0.719686
Si Si4 0.304508 0.343073 0.500000
Si Si5 0.694652 0.702703 0.000000
Si Si6 0.694074 0.569902 0.404825
Si Si7 0.806243 0.500000 0.063923
O O1 0.745707 0.829216 0.341268
O O2 0.747664 0.831566 0.446531
O O3 0.749495 0.938503 0.403578
O O4 0.000000 0.867856 0.391371
O O5 0.500000 0.066767 0.224758
O O6 0.758012 0.127304 0.247407
O O7 0.726637 0.076091 0.153188
O O8 0.758171 0.000000 0.232383
O O9 0.500000 0.811597 0.721040
O O10 0.250000 0.750000 0.750000
O O11 0.500000 0.345623 0.500000
O O12 0.247996 0.273273 0.500000
O O13 0.248370 0.379759 0.447254
O O14 0.500000 0.699673 0.000000
O O15 0.500000 0.575721 0.398159
O O16 0.725212 0.500000 0.425194
O O17 0.000000 0.500000 0.062186
O O18 0.749587 0.500000 0.000000
#
# Coordination Sequence:
#
# PCOD9522744 Si02
#       7
#    16  16  16   8   8  16   8
#     4  11  24  44  67  94 128 168 212 260 319 383
#     4   9  20  39  60  83 115 154 196 245 300 356
#     4  11  25  43  65  92 126 167 213 266 321 382
#     4  10  21  34  55  85 116 153 197 247 300 358
#     4  10  24  42  60  85 123 163 200 249 310 373
#     4   9  18  34  56  83 115 150 192 242 296 354
#     4  11  23  41  69 103 135 169 211 264 325 390
#
# _framework density 19.881187000000001
#
# number of rings (size 3 to 8) (size 9 to 14) (size 15 to 20)
#    0.000    1.909    0.909    1.636    3.818    5.091 
#    0.000    0.000    0.000    2.727    0.000    0.000 
#    0.000    0.000    0.000    0.000    0.000    0.000 
#
# Total GULP energy -245561.397106 kJ/mol
# GULP energy per Si atom -5580.940843 kJ/mol
# Density = 1.983594 g / cm^3
# Si number density = 19.881187 Si / 1000 Ang^3
#
#
#
# Elastic Constant Matrix: (Units=GPa)
#
#
# Indices 1 2 3 4 5 6 
#
# 1 28.7331 28.5991 22.0823 0.0000 0.0000 0.0000
# 2 28.5991 188.5247 108.3324 0.0000 0.0000 0.0000
# 3 22.0823 108.3324 130.6451 0.0000 0.0000 0.0000
# 4 0.0000 0.0000 0.0000 38.3232 0.0000 0.0000
# 5 0.0000 0.0000 0.0000 0.0000 29.5905 0.0000
# 6 0.0000 0.0000 0.0000 0.0000 0.0000 33.9770
#
#
#
# Elastic Compliance Matrix: (Units=1/GPa)
#
#
# Indices 1 2 3 4 5 6 
#
# 1 0.041792 -0.004357 -0.003451 0.000000 0.000000 0.000000
# 2 -0.004357 0.010586 -0.008042 0.000000 0.000000 0.000000
# 3 -0.003451 -0.008042 0.014906 0.000000 0.000000 0.000000
# 4 0.000000 0.000000 0.000000 0.026094 0.000000 0.000000
# 5 0.000000 0.000000 0.000000 0.000000 0.033795 0.000000
# 6 0.000000 0.000000 0.000000 0.000000 0.000000 0.029432
#
#
# Mechanical properties :
#
#
# Convention : Reuss Voigt Hill
#
# Bulk Modulus (GPa) = 28.10208 73.99226 51.04717
# Shear Modulus (GPa) = 24.97929 32.97076 28.97503
#
# Velocity S-wave (km/s) = 3.54846 4.07675 3.82174
# Velocity P-wave (km/s) = 5.56367 7.71089 6.72355
#
# Compressibility (1/GPa) = 0.03558455
#
# Stress axis : x y z
#
# Youngs Moduli (GPa) = 23.92820 94.46042 67.08599
#
# Poissons Ratio (x) = 0.41152 0.23154
# Poissons Ratio (y) = 0.10424 0.53951
# Poissons Ratio (z) = 0.08258 0.75965
#
# Static dielectric constant tensor:
#      x y z
#    x 1.701260 0.000000 0.000000 
#    y 0.000000 1.698020 0.000000 
#    z 0.000000 0.000000 1.696620 
# 
# From -- ./inp_files/57613.got.cif
#   From: 2010.05.17/outbox.cif.g08.bks.cpg/sg71_29_cif.got.tgz:57613.got - 2010.06.03 16:22:01.
