data_PCOD9522574
_publ_section_title
;
Structure prediction by ZEFSAII (Michael W. Deem and Ramdas Pophale) SiO2 
 PCOD9522574
Probable space group: I M M M
;
_chemical_formula_sum "Si O2"
_cell_formula_units_Z 62
_cell_length_a 18.330056
_cell_length_b 14.572385
_cell_length_c 13.630204
_cell_angle_alpha 90.000000
_cell_angle_beta 90.000000
_cell_angle_gamma 90.000000
_cell_volume 3640.799680
_symmetry_space_group_name_H-M "I M M M"
_symmetry_group_IT_number 71
_symmetry_cell_setting 'orthorhombic'
loop_
_space_group_symop_operation_xyz
x,y,z
-x,-y,z
x,-y,-z
-x,y,-z
-x,-y,-z
x,y,-z
-x,y,z
x,-y,z
1/2+x,1/2+y,1/2+z
1/2-x,1/2-y,1/2+z
1/2+x,1/2-y,1/2-z
1/2-x,1/2+y,1/2-z
1/2-x,1/2-y,1/2-z
1/2+x,1/2+y,1/2-z
1/2-x,1/2+y,1/2+z
1/2+x,1/2-y,1/2+z
loop_
_atom_site_type_symbol
_atom_site_label
_atom_site_fract_x
_atom_site_fract_y
_atom_site_fract_z
Si Si1 0.295152 0.303378 0.112243
Si Si2 0.919619 0.500000 0.797204
Si Si3 0.632879 0.500000 0.111977
Si Si4 0.500000 0.307258 0.618142
Si Si5 0.000000 0.500000 0.000000
Si Si6 0.138402 0.700466 0.792541
Si Si7 0.500000 0.500000 0.734467
O O1 0.318048 0.409561 0.121962
O O2 0.211029 0.290731 0.142039
O O3 0.343987 0.248122 0.189295
O O4 0.307058 0.275181 0.000000
O O5 0.878849 0.406114 0.775298
O O6 0.000000 0.500000 0.748280
O O7 0.937880 0.500000 0.913208
O O8 0.570154 0.500000 0.193817
O O9 0.602466 0.500000 0.000000
O O10 0.500000 0.313157 0.500000
O O11 0.429585 0.250019 0.654908
O O12 0.500000 0.407901 0.668159
#
# Coordination Sequence:
#
# PCOD9522574 Si02
#       7
#    16   8   8   8   2  16   4
#     4  10  22  38  61  86 116 155 194 236 293 345
#     4  10  21  33  57  87 116 144 187 243 295 334
#     4  10  20  38  61  87 114 152 195 245 290 334
#     4  12  24  38  62  86 118 155 193 239 291 348
#     4   8  20  32  56  88 106 142 188 234 300 340
#     4  11  22  39  60  87 120 149 193 244 288 349
#     4  12  22  40  56  88 122 156 196 232 282 350
#
# _framework density 17.029226000000001
#
# number of rings (size 3 to 8) (size 9 to 14) (size 15 to 20)
#    0.387    1.032    3.871    1.935    5.419    0.000 
#    0.000    1.290    0.000    0.774    0.000    0.000 
#    0.000    0.000    0.000    0.000    0.000    0.000 
#
# Total GULP energy -172730.066560 kJ/mol
# GULP energy per Si atom -5571.937631 kJ/mol
# Density = 1.699047 g / cm^3
# Si number density = 17.029226 Si / 1000 Ang^3
#
#
#
# Elastic Constant Matrix: (Units=GPa)
#
#
# Indices 1 2 3 4 5 6 
#
# 1 104.2395 42.9586 74.0179 0.0000 0.0000 0.0000
# 2 42.9586 137.6991 76.9872 0.0000 0.0000 0.0000
# 3 74.0179 76.9872 154.5582 0.0000 0.0000 0.0000
# 4 0.0000 0.0000 0.0000 14.7900 0.0000 0.0000
# 5 0.0000 0.0000 0.0000 0.0000 12.6557 0.0000
# 6 0.0000 0.0000 0.0000 0.0000 0.0000 32.4200
#
#
#
# Elastic Compliance Matrix: (Units=1/GPa)
#
#
# Indices 1 2 3 4 5 6 
#
# 1 0.014616 -0.000896 -0.006553 0.000000 0.000000 0.000000
# 2 -0.000896 0.010120 -0.004612 0.000000 0.000000 0.000000
# 3 -0.006553 -0.004612 0.011906 0.000000 0.000000 0.000000
# 4 0.000000 0.000000 0.000000 0.067613 0.000000 0.000000
# 5 0.000000 0.000000 0.000000 0.000000 0.079016 0.000000
# 6 0.000000 0.000000 0.000000 0.000000 0.000000 0.030845
#
#
# Mechanical properties :
#
#
# Convention : Reuss Voigt Hill
#
# Bulk Modulus (GPa) = 79.87517 87.15824 83.51671
# Shear Modulus (GPa) = 20.62610 25.47535 23.05072
#
# Velocity S-wave (km/s) = 3.48403 3.87198 3.68312
# Velocity P-wave (km/s) = 7.94929 8.44289 8.19980
#
# Compressibility (1/GPa) = 0.01251953
#
# Stress axis : x y z
#
# Youngs Moduli (GPa) = 68.41909 98.81191 83.99335
#
# Poissons Ratio (x) = 0.08852 0.55043
# Poissons Ratio (y) = 0.06129 0.38738
# Poissons Ratio (z) = 0.44837 0.45572
#
# Static dielectric constant tensor:
#      x y z
#    x 1.573270 0.000000 0.000000 
#    y 0.000000 1.584120 0.000000 
#    z 0.000000 0.000000 1.550990 
# 
# From -- ./inp_files/35871.got.cif
#   From: 2010.05.17/outbox.cif.g08.bks.cpg/sg71_18_cif.got.tgz:35871.got - 2010.06.03 16:22:01.
