data_PCOD9522583
_publ_section_title
;
Structure prediction by ZEFSAII (Michael W. Deem and Ramdas Pophale) SiO2 
 PCOD9522583
Probable space group: I M M M
;
_chemical_formula_sum "Si O2"
_cell_formula_units_Z 80
_cell_length_a 20.396772
_cell_length_b 11.923930
_cell_length_c 18.939279
_cell_angle_alpha 90.000000
_cell_angle_beta 90.000000
_cell_angle_gamma 90.000000
_cell_volume 4606.216014
_symmetry_space_group_name_H-M "I M M M"
_symmetry_group_IT_number 71
_symmetry_cell_setting 'orthorhombic'
loop_
_space_group_symop_operation_xyz
x,y,z
-x,-y,z
x,-y,-z
-x,y,-z
-x,-y,-z
x,y,-z
-x,y,z
x,-y,z
1/2+x,1/2+y,1/2+z
1/2-x,1/2-y,1/2+z
1/2+x,1/2-y,1/2-z
1/2-x,1/2+y,1/2-z
1/2-x,1/2-y,1/2-z
1/2+x,1/2+y,1/2-z
1/2-x,1/2+y,1/2+z
1/2+x,1/2-y,1/2+z
loop_
_atom_site_type_symbol
_atom_site_label
_atom_site_fract_x
_atom_site_fract_y
_atom_site_fract_z
Si Si1 0.577219 0.632969 0.181879
Si Si2 0.274485 0.000000 0.914335
Si Si3 0.680350 0.756180 0.084379
Si Si4 0.924472 0.222866 0.160491
Si Si5 0.878776 0.000000 0.915459
Si Si6 0.818529 0.633069 0.082706
O O1 0.500000 0.644581 0.164677
O O2 0.591804 0.500000 0.185562
O O3 0.623048 0.693896 0.125619
O O4 0.587887 0.688058 0.258569
O O5 0.309496 0.885194 0.892322
O O6 0.198007 0.000000 0.893154
O O7 0.273913 0.000000 0.000000
O O8 0.749242 0.692945 0.097057
O O9 0.668525 0.754063 0.000000
O O10 0.912476 0.110470 0.115077
O O11 0.874246 0.314504 0.131595
O O12 0.000000 0.258658 0.153497
O O13 0.881262 0.000000 0.000000
O O14 0.812435 0.500000 0.091755
O O15 0.834507 0.655911 0.000000
#
# Coordination Sequence:
#
# PCOD9522583 Si02
#       6
#    16   8  16  16   8  16
#     4  10  22  40  59  82 115 148 183 234 284 327
#     4   9  18  35  59  87 115 138 175 237 284 318
#     4  10  20  38  62  86 112 144 185 232 282 336
#     4  11  22  37  55  81 117 152 188 232 278 328
#     4  11  19  34  59  85 111 146 189 230 275 329
#     4  10  21  37  57  84 116 149 188 233 277 328
#
# _framework density 17.367834999999999
#
# number of rings (size 3 to 8) (size 9 to 14) (size 15 to 20)
#    0.000    1.800    3.000    1.500    0.000    4.800 
#    1.800    2.500    0.000    1.800    0.000    0.000 
#    0.000    0.000    0.000    0.000    0.000    0.000 
#
# Total GULP energy -223357.830673 kJ/mol
# GULP energy per Si atom -5583.945767 kJ/mol
# Density = 1.732830 g / cm^3
# Si number density = 17.367835 Si / 1000 Ang^3
#
#
#
# Elastic Constant Matrix: (Units=GPa)
#
#
# Indices 1 2 3 4 5 6 
#
# 1 111.4973 79.5278 77.4636 0.0000 0.0000 0.0000
# 2 79.5278 125.5828 57.3343 0.0000 0.0000 0.0000
# 3 77.4636 57.3343 76.7447 0.0000 0.0000 0.0000
# 4 0.0000 0.0000 0.0000 29.5667 0.0000 0.0000
# 5 0.0000 0.0000 0.0000 0.0000 38.9950 0.0000
# 6 0.0000 0.0000 0.0000 0.0000 0.0000 34.9458
#
#
#
# Elastic Compliance Matrix: (Units=1/GPa)
#
#
# Indices 1 2 3 4 5 6 
#
# 1 0.036179 -0.009468 -0.029444 0.000000 0.000000 0.000000
# 2 -0.009468 0.014563 -0.001322 0.000000 0.000000 0.000000
# 3 -0.029444 -0.001322 0.043738 0.000000 0.000000 0.000000
# 4 0.000000 0.000000 0.000000 0.033822 0.000000 0.000000
# 5 0.000000 0.000000 0.000000 0.000000 0.025644 0.000000
# 6 0.000000 0.000000 0.000000 0.000000 0.000000 0.028616
#
#
# Mechanical properties :
#
#
# Convention : Reuss Voigt Hill
#
# Bulk Modulus (GPa) = 71.37854 82.49735 76.93795
# Shear Modulus (GPa) = 18.67754 27.33477 23.00615
#
# Velocity S-wave (km/s) = 3.28290 3.97151 3.64351
# Velocity P-wave (km/s) = 7.45367 8.28455 7.88007
#
# Compressibility (1/GPa) = 0.01400981
#
# Stress axis : x y z
#
# Youngs Moduli (GPa) = 27.64041 68.66885 22.86339
#
# Poissons Ratio (x) = 0.65019 0.67319
# Poissons Ratio (y) = 0.26171 0.03023
# Poissons Ratio (z) = 0.81385 0.09080
#
# Static dielectric constant tensor:
#      x y z
#    x 1.565850 0.000000 0.000000 
#    y 0.000000 1.579170 0.000000 
#    z 0.000000 0.000000 1.575050 
# 
# From -- ./inp_files/23853.got.cif
#   From: 2010.05.17/outbox.cif.g08.bks.cpg/sg71_12_cif.got.tgz:23853.got - 2010.06.03 16:22:01.
