data_PCOD9522830
_publ_section_title
;
Structure prediction by ZEFSAII (Michael W. Deem and Ramdas Pophale) SiO2 
 PCOD9522830
Probable space group: I M M M
;
_chemical_formula_sum "Si O2"
_cell_formula_units_Z 104
_cell_length_a 20.813764
_cell_length_b 8.705576
_cell_length_c 26.377420
_cell_angle_alpha 90.000000
_cell_angle_beta 90.000000
_cell_angle_gamma 90.000000
_cell_volume 4779.477834
_symmetry_space_group_name_H-M "I M M M"
_symmetry_group_IT_number 71
_symmetry_cell_setting 'orthorhombic'
loop_
_space_group_symop_operation_xyz
x,y,z
-x,-y,z
x,-y,-z
-x,y,-z
-x,-y,-z
x,y,-z
-x,y,z
x,-y,z
1/2+x,1/2+y,1/2+z
1/2-x,1/2-y,1/2+z
1/2+x,1/2-y,1/2-z
1/2-x,1/2+y,1/2-z
1/2-x,1/2-y,1/2-z
1/2+x,1/2+y,1/2-z
1/2-x,1/2+y,1/2+z
1/2+x,1/2-y,1/2+z
loop_
_atom_site_type_symbol
_atom_site_label
_atom_site_fract_x
_atom_site_fract_y
_atom_site_fract_z
Si Si1 0.576340 0.325319 0.334546
Si Si2 0.616087 0.317881 0.444748
Si Si3 0.622247 0.677777 0.057252
Si Si4 0.000000 0.320246 0.441201
Si Si5 0.924151 0.683103 0.274331
Si Si6 0.787116 0.814820 0.298364
Si Si7 0.765075 0.321389 0.096654
O O1 0.500000 0.340728 0.334648
O O2 0.603864 0.500000 0.329885
O O3 0.592267 0.257526 0.390123
O O4 0.590370 0.226533 0.284714
O O5 0.593389 0.258891 0.500000
O O6 0.602424 0.500000 0.444312
O O7 0.691305 0.282162 0.438929
O O8 0.602935 0.500000 0.055426
O O9 0.564934 0.765248 0.084315
O O10 0.691516 0.685650 0.080421
O O11 0.628397 0.738903 0.000000
O O12 0.000000 0.500000 0.444150
O O13 0.000000 0.258241 0.500000
O O14 0.922662 0.500000 0.281271
O O15 0.861207 0.755385 0.301996
O O16 0.000000 0.732345 0.284658
O O17 0.750000 0.750000 0.250000
O O18 0.740465 0.770638 0.345280
O O19 0.790165 0.000000 0.297665
O O20 0.786230 0.500000 0.092712
#
# Coordination Sequence:
#
# PCOD9522830 Si02
#       7
#    16  16  16   8  16  16  16
#     4   9  18  34  57  83 112 149 190 229 274 333
#     4  10  21  35  53  81 115 149 185 229 281 333
#     4   9  17  32  53  73  97 132 172 211 253 305
#     4   9  17  29  47  73 101 129 163 203 249 299
#     4  10  21  38  60  86 117 152 191 238 292 349
#     4  11  23  39  60  85 113 147 190 239 290 345
#     4  10  22  38  55  78 105 140 184 227 273 325
#
# _framework density 21.759699999999999
#
# number of rings (size 3 to 8) (size 9 to 14) (size 15 to 20)
#    0.000    2.231    0.000    2.538    0.000    8.000 
#    1.385    3.077    0.000    0.000    0.000    3.231 
#    0.000    0.000    0.000    0.000    0.000    0.000 
#
# Total GULP energy -289805.091121 kJ/mol
# GULP energy per Si atom -5573.174829 kJ/mol
# Density = 2.171017 g / cm^3
# Si number density = 21.759700 Si / 1000 Ang^3
#
#
#
# Elastic Constant Matrix: (Units=GPa)
#
#
# Indices 1 2 3 4 5 6 
#
# 1 37.7387 7.8175 -10.7333 0.0000 0.0000 0.0000
# 2 7.8175 12.9297 -9.0997 0.0000 0.0000 0.0000
# 3 -10.7333 -9.0997 51.1170 0.0000 0.0000 0.0000
# 4 0.0000 0.0000 0.0000 14.5533 0.0000 0.0000
# 5 0.0000 0.0000 0.0000 0.0000 -4.2218 0.0000
# 6 0.0000 0.0000 0.0000 0.0000 0.0000 32.4252
#
#
#
# Elastic Compliance Matrix: (Units=1/GPa)
#
#
# Indices 1 2 3 4 5 6 
#
# 1 0.030864 -0.016120 0.003611 0.000000 0.000000 0.000000
# 2 -0.016120 0.096838 0.013854 0.000000 0.000000 0.000000
# 3 0.003611 0.013854 0.022787 0.000000 0.000000 0.000000
# 4 0.000000 0.000000 0.000000 0.068713 0.000000 0.000000
# 5 0.000000 0.000000 0.000000 0.000000 -0.236863 0.000000
# 6 0.000000 0.000000 0.000000 0.000000 0.000000 0.030840
#
#
# Mechanical properties :
#
#
# Convention : Reuss Voigt Hill
#
# Bulk Modulus (GPa) = 6.52823 8.63938 7.58381
# Shear Modulus (GPa) = 81.23674 16.13805 48.68740
#
# Velocity S-wave (km/s) = 6.11675 2.72628 4.73536
# Velocity P-wave (km/s) = 7.27275 3.72681 5.77849
#
# Compressibility (1/GPa) = 0.15318081
#
# Stress axis : x y z
#
# Youngs Moduli (GPa) = 32.39996 10.32653 43.88371
#
# Poissons Ratio (x) = 0.16646 -0.15847
# Poissons Ratio (y) = 0.52228 -0.60797
# Poissons Ratio (z) = -0.11700 -0.14306
#
# Static dielectric constant tensor:
#      x y z
#    x 1.861950 0.000000 0.000000 
#    y 0.000000 1.773170 0.000000 
#    z 0.000000 0.000000 1.927890 
# 
# From -- ./inp_files/14998.got.cif
#   From: 2010.05.17/outbox.cif.g08.bks.cpg/sg71_8_cif.got.tgz:14998.got - 2010.06.03 16:22:01.
