data_PCOD9522277
_publ_section_title
;
Structure prediction by ZEFSAII (Michael W. Deem and Ramdas Pophale) SiO2 
 PCOD9522277
Probable space group: I M M M
;
_chemical_formula_sum "Si O2"
_cell_formula_units_Z 66
_cell_length_a 7.577054
_cell_length_b 20.580219
_cell_length_c 19.280224
_cell_angle_alpha 90.000000
_cell_angle_beta 90.000000
_cell_angle_gamma 90.000000
_cell_volume 3006.508594
_symmetry_space_group_name_H-M "I M M M"
_symmetry_group_IT_number 71
_symmetry_cell_setting 'orthorhombic'
loop_
_space_group_symop_operation_xyz
x,y,z
-x,-y,z
x,-y,-z
-x,y,-z
-x,-y,-z
x,y,-z
-x,y,z
x,-y,z
1/2+x,1/2+y,1/2+z
1/2-x,1/2-y,1/2+z
1/2+x,1/2-y,1/2-z
1/2-x,1/2+y,1/2-z
1/2-x,1/2-y,1/2-z
1/2+x,1/2+y,1/2-z
1/2-x,1/2+y,1/2+z
1/2+x,1/2-y,1/2+z
loop_
_atom_site_type_symbol
_atom_site_label
_atom_site_fract_x
_atom_site_fract_y
_atom_site_fract_z
Si Si1 0.789748 0.232244 0.423124
Si Si2 0.000000 0.500000 0.000000
Si Si3 0.213565 0.134070 0.851325
Si Si4 0.794787 0.139780 0.695930
Si Si5 0.694103 0.000000 0.644899
Si Si6 0.715906 0.500000 0.419870
O O1 0.716914 0.219637 0.500000
O O2 0.762449 0.306304 0.400475
O O3 0.714539 0.185919 0.363063
O O4 0.000000 0.220251 0.426594
O O5 0.848327 0.500000 0.937322
O O6 0.280844 0.145638 0.773151
O O7 0.000000 0.131108 0.848588
O O8 0.274538 0.065282 0.881403
O O9 0.784942 0.065855 0.669507
O O10 0.000000 0.158629 0.702341
O O11 0.500000 0.000000 0.679174
O O12 0.500000 0.500000 0.419135
O O13 0.770432 0.500000 0.500000
#
# Coordination Sequence:
#
# PCOD9522277 Si02
#       6
#    16   2  16  16   8   8
#     4  10  22  37  54  79 114 150 189 234 287 345
#     4   8  24  40  54  84 128 140 188 242 288 316
#     4  10  20  36  58  84 110 144 189 237 282 339
#     4  10  21  38  60  83 112 151 194 234 284 341
#     4  10  22  38  58  84 117 147 187 237 281 329
#     4   9  17  30  52  79 109 138 174 223 280 334
#
# _framework density 21.952375
#
# number of rings (size 3 to 8) (size 9 to 14) (size 15 to 20)
#    0.364    1.818    0.000    2.545    1.697    5.333 
#    0.000    1.212    0.000    2.182    0.000    0.000 
#    0.000    0.000    0.000    0.000    0.000    0.000 
#
# Total GULP energy -184043.160032 kJ/mol
# GULP energy per Si atom -5577.065456 kJ/mol
# Density = 2.190241 g / cm^3
# Si number density = 21.952375 Si / 1000 Ang^3
#
#
#
# Elastic Constant Matrix: (Units=GPa)
#
#
# Indices 1 2 3 4 5 6 
#
# 1 50.0892 -10.0211 13.1968 0.0000 0.0000 0.0000
# 2 -10.0211 108.1882 48.2547 0.0000 0.0000 0.0000
# 3 13.1968 48.2547 183.0735 0.0000 0.0000 0.0000
# 4 0.0000 0.0000 0.0000 28.3757 0.0000 0.0000
# 5 0.0000 0.0000 0.0000 0.0000 -4.3344 0.0000
# 6 0.0000 0.0000 0.0000 0.0000 0.0000 9.2370
#
#
#
# Elastic Compliance Matrix: (Units=1/GPa)
#
#
# Indices 1 2 3 4 5 6 
#
# 1 0.021173 0.002994 -0.002315 0.000000 0.000000 0.000000
# 2 0.002994 0.010898 -0.003088 0.000000 0.000000 0.000000
# 3 -0.002315 -0.003088 0.006443 0.000000 0.000000 0.000000
# 4 0.000000 0.000000 0.000000 0.035241 0.000000 0.000000
# 5 0.000000 0.000000 0.000000 0.000000 -0.230711 0.000000
# 6 0.000000 0.000000 0.000000 0.000000 0.000000 0.108260
#
#
# Mechanical properties :
#
#
# Convention : Reuss Voigt Hill
#
# Bulk Modulus (GPa) = 29.67801 49.35687 39.51744
# Shear Modulus (GPa) = -153.16860 25.98369 -63.59246
#
# Velocity S-wave (km/s) = -8.36209 3.44414 -5.38807
# Velocity P-wave (km/s) = 8.92660 6.19262 4.54619
#
# Compressibility (1/GPa) = 0.03369498
#
# Stress axis : x y z
#
# Youngs Moduli (GPa) = 47.22908 91.76046 155.20208
#
# Poissons Ratio (x) = -0.27473 0.35936
# Poissons Ratio (y) = -0.14140 0.47931
# Poissons Ratio (z) = 0.10936 0.28338
#
# Static dielectric constant tensor:
#      x y z
#    x 1.834960 0.000000 0.000000 
#    y 0.000000 1.756690 0.000000 
#    z 0.000000 0.000000 1.803170 
# 
# From -- ./inp_files/41955.got.cif
#   From: 2010.05.17/outbox.cif.g08.bks.cpg/sg71_21_cif.got.tgz:41955.got - 2010.06.03 16:22:01.
