data_PCOD9522465
_publ_section_title
;
Structure prediction by ZEFSAII (Michael W. Deem and Ramdas Pophale) SiO2 
 PCOD9522465
Probable space group: I M M M
;
_chemical_formula_sum "Si O2"
_cell_formula_units_Z 88
_cell_length_a 7.772477
_cell_length_b 19.989479
_cell_length_c 28.013577
_cell_angle_alpha 90.000000
_cell_angle_beta 90.000000
_cell_angle_gamma 90.000000
_cell_volume 4352.406870
_symmetry_space_group_name_H-M "I M M M"
_symmetry_group_IT_number 71
_symmetry_cell_setting 'orthorhombic'
loop_
_space_group_symop_operation_xyz
x,y,z
-x,-y,z
x,-y,-z
-x,y,-z
-x,-y,-z
x,y,-z
-x,y,z
x,-y,z
1/2+x,1/2+y,1/2+z
1/2-x,1/2-y,1/2+z
1/2+x,1/2-y,1/2-z
1/2-x,1/2+y,1/2-z
1/2-x,1/2-y,1/2-z
1/2+x,1/2+y,1/2-z
1/2-x,1/2+y,1/2+z
1/2+x,1/2-y,1/2+z
loop_
_atom_site_type_symbol
_atom_site_label
_atom_site_fract_x
_atom_site_fract_y
_atom_site_fract_z
Si Si1 0.704535 0.678748 0.772592
Si Si2 0.294504 0.924684 0.808940
Si Si3 0.795159 0.076574 0.000000
Si Si4 0.211349 0.196269 0.380627
Si Si5 0.290140 0.573589 0.944850
Si Si6 0.206881 0.653531 0.597502
O O1 0.500000 0.672973 0.775026
O O2 0.750000 0.750000 0.750000
O O3 0.765723 0.620305 0.737663
O O4 0.769496 0.680467 0.826845
O O5 0.500000 0.929311 0.815060
O O6 0.226979 0.887813 0.856572
O O7 0.225785 0.000000 0.804292
O O8 0.745319 0.116719 0.047834
O O9 0.000000 0.071968 0.000000
O O10 0.725421 0.000000 0.000000
O O11 0.269199 0.136409 0.414576
O O12 0.267756 0.269685 0.398100
O O13 0.000000 0.196940 0.380698
O O14 0.500000 0.574250 0.943978
O O15 0.236347 0.500000 0.927097
O O16 0.238614 0.579692 0.000000
O O17 0.000000 0.656252 0.601436
#
# Coordination Sequence:
#
# PCOD9522465 Si02
#       6
#    16  16   8  16  16  16
#     4  11  21  36  56  80 113 148 185 230 282 335
#     4  10  21  38  59  83 112 146 189 236 282 340
#     4  11  25  41  55  79 116 147 178 228 285 339
#     4   9  18  31  51  79 109 141 183 229 268 321
#     4   8  14  25  43  70 105 139 167 206 264 317
#     4  10  20  37  60  83 107 144 190 232 278 332
#
# _framework density 20.218699999999998
#
# number of rings (size 3 to 8) (size 9 to 14) (size 15 to 20)
#    0.000    2.273    1.818    1.909    1.273    3.273 
#    0.000    1.818    0.000    0.000    0.000    0.000 
#    0.000    0.727    0.000    0.000    0.000    0.000 
#
# Total GULP energy -245611.959630 kJ/mol
# GULP energy per Si atom -5582.089992 kJ/mol
# Density = 2.017268 g / cm^3
# Si number density = 20.218700 Si / 1000 Ang^3
#
#
#
# Elastic Constant Matrix: (Units=GPa)
#
#
# Indices 1 2 3 4 5 6 
#
# 1 26.3257 8.5045 0.9072 0.0000 0.0000 0.0000
# 2 8.5045 251.5462 139.3363 0.0000 0.0000 0.0000
# 3 0.9072 139.3363 164.4425 0.0000 0.0000 0.0000
# 4 0.0000 0.0000 0.0000 37.2626 0.0000 0.0000
# 5 0.0000 0.0000 0.0000 0.0000 23.1370 0.0000
# 6 0.0000 0.0000 0.0000 0.0000 0.0000 13.4066
#
#
#
# Elastic Compliance Matrix: (Units=1/GPa)
#
#
# Indices 1 2 3 4 5 6 
#
# 1 0.038651 -0.002240 0.001685 0.000000 0.000000 0.000000
# 2 -0.002240 0.007621 -0.006445 0.000000 0.000000 0.000000
# 3 0.001685 -0.006445 0.011533 0.000000 0.000000 0.000000
# 4 0.000000 0.000000 0.000000 0.026837 0.000000 0.000000
# 5 0.000000 0.000000 0.000000 0.000000 0.043221 0.000000
# 6 0.000000 0.000000 0.000000 0.000000 0.000000 0.074590
#
#
# Mechanical properties :
#
#
# Convention : Reuss Voigt Hill
#
# Bulk Modulus (GPa) = 22.82863 82.20116 52.51490
# Shear Modulus (GPa) = 21.63972 34.33233 27.98603
#
# Velocity S-wave (km/s) = 3.27507 4.12521 3.72447
# Velocity P-wave (km/s) = 5.06130 7.96455 6.67274
#
# Compressibility (1/GPa) = 0.04380464
#
# Stress axis : x y z
#
# Youngs Moduli (GPa) = 25.87234 131.20949 86.70587
#
# Poissons Ratio (x) = 0.29391 -0.14608
# Poissons Ratio (y) = 0.05795 0.55886
# Poissons Ratio (z) = -0.04359 0.84570
#
# Static dielectric constant tensor:
#      x y z
#    x 1.759820 0.000000 0.000000 
#    y 0.000000 1.700140 0.000000 
#    z 0.000000 0.000000 1.705390 
# 
# From -- ./inp_files/10482.got.cif
#   From: 2010.05.17/outbox.cif.g08.bks.cpg/sg71_6_cif.got.tgz:10482.got - 2010.06.03 16:22:01.
