data_PCOD9522892
_publ_section_title
;
Structure prediction by ZEFSAII (Michael W. Deem and Ramdas Pophale) SiO2 
 PCOD9522892
Probable space group: I M M M
;
_chemical_formula_sum "Si O2"
_cell_formula_units_Z 104
_cell_length_a 7.828940
_cell_length_b 23.142383
_cell_length_c 27.481403
_cell_angle_alpha 90.000000
_cell_angle_beta 90.000000
_cell_angle_gamma 90.000000
_cell_volume 4979.089608
_symmetry_space_group_name_H-M "I M M M"
_symmetry_group_IT_number 71
_symmetry_cell_setting 'orthorhombic'
loop_
_space_group_symop_operation_xyz
x,y,z
-x,-y,z
x,-y,-z
-x,y,-z
-x,-y,-z
x,y,-z
-x,y,z
x,-y,z
1/2+x,1/2+y,1/2+z
1/2-x,1/2-y,1/2+z
1/2+x,1/2-y,1/2-z
1/2-x,1/2+y,1/2-z
1/2-x,1/2-y,1/2-z
1/2+x,1/2+y,1/2-z
1/2-x,1/2+y,1/2+z
1/2+x,1/2-y,1/2+z
loop_
_atom_site_type_symbol
_atom_site_label
_atom_site_fract_x
_atom_site_fract_y
_atom_site_fract_z
Si Si1 0.707141 0.388281 0.444475
Si Si2 0.297462 0.061927 0.846613
Si Si3 0.707992 0.307749 0.188094
Si Si4 0.197918 0.759907 0.058576
Si Si5 0.799062 0.435193 0.000000
Si Si6 0.704076 0.179104 0.800520
Si Si7 0.691898 0.638820 0.906367
O O1 0.761812 0.399192 0.500000
O O2 0.500000 0.387688 0.444444
O O3 0.772077 0.431878 0.404355
O O4 0.763260 0.323623 0.428597
O O5 0.500000 0.061681 0.836220
O O6 0.223397 0.120521 0.823593
O O7 0.226469 0.000000 0.830068
O O8 0.500000 0.307747 0.186008
O O9 0.767692 0.241209 0.179562
O O10 0.761624 0.321929 0.242833
O O11 0.772729 0.352791 0.147287
O O12 0.303363 0.705369 0.075972
O O13 0.000000 0.752909 0.074098
O O14 0.196438 0.759191 0.000000
O O15 0.759899 0.399365 0.950834
O O16 0.721351 0.500000 0.000000
O O17 0.000000 0.441524 0.000000
O O18 0.500000 0.179613 0.808343
O O19 0.500000 0.618049 0.898995
#
# Coordination Sequence:
#
# PCOD9522892 Si02
#       7
#    16  16  16  16   8  16  16
#     4   9  19  34  51  75 107 142 181 223 265 310
#     4  10  21  36  53  74 103 141 182 223 268 319
#     4   9  19  34  55  84 112 135 170 222 280 334
#     4   9  17  30  49  75 108 141 173 214 260 310
#     4  11  25  43  59  77 109 153 196 235 276 333
#     4   9  18  35  56  79 109 142 177 220 271 328
#     4  11  21  34  56  85 113 143 179 223 276 332
#
# _framework density 20.887353000000001
#
# number of rings (size 3 to 8) (size 9 to 14) (size 15 to 20)
#    0.000    2.385    0.769    2.538    0.000    5.231 
#    0.000    6.923    0.000    2.769    0.000    0.000 
#    0.000    0.000    0.000    0.000    0.000    0.000 
#
# Total GULP energy -289990.059667 kJ/mol
# GULP energy per Si atom -5576.731917 kJ/mol
# Density = 2.083981 g / cm^3
# Si number density = 20.887353 Si / 1000 Ang^3
#
#
#
# Elastic Constant Matrix: (Units=GPa)
#
#
# Indices 1 2 3 4 5 6 
#
# 1 25.1573 2.3868 -1.9700 0.0000 0.0000 0.0000
# 2 2.3868 116.6314 65.2772 0.0000 0.0000 0.0000
# 3 -1.9700 65.2772 100.8427 0.0000 0.0000 0.0000
# 4 0.0000 0.0000 0.0000 9.2559 0.0000 0.0000
# 5 0.0000 0.0000 0.0000 0.0000 22.4708 0.0000
# 6 0.0000 0.0000 0.0000 0.0000 0.0000 4.0469
#
#
#
# Elastic Compliance Matrix: (Units=1/GPa)
#
#
# Indices 1 2 3 4 5 6 
#
# 1 0.040099 -0.001974 0.002061 0.000000 0.000000 0.000000
# 2 -0.001974 0.013542 -0.008805 0.000000 0.000000 0.000000
# 3 0.002061 -0.008805 0.015656 0.000000 0.000000 0.000000
# 4 0.000000 0.000000 0.000000 0.108040 0.000000 0.000000
# 5 0.000000 0.000000 0.000000 0.000000 0.044502 0.000000
# 6 0.000000 0.000000 0.000000 0.000000 0.000000 0.247103
#
#
# Mechanical properties :
#
#
# Convention : Reuss Voigt Hill
#
# Bulk Modulus (GPa) = 19.28204 41.55772 30.41988
# Shear Modulus (GPa) = 9.92725 18.95053 14.43889
#
# Velocity S-wave (km/s) = 2.18245 3.01537 2.63206
# Velocity P-wave (km/s) = 3.94997 5.66238 4.88184
#
# Compressibility (1/GPa) = 0.05186175
#
# Stress axis : x y z
#
# Youngs Moduli (GPa) = 24.93847 73.84254 63.87261
#
# Poissons Ratio (x) = 0.14579 -0.13166
# Poissons Ratio (y) = 0.04924 0.56238
# Poissons Ratio (z) = -0.05141 0.65016
#
# Static dielectric constant tensor:
#      x y z
#    x 1.761890 0.000000 0.000000 
#    y 0.000000 1.778960 0.000000 
#    z 0.000000 0.000000 1.786250 
# 
# From -- ./inp_files/57986.got.cif
#   From: 2010.05.17/outbox.cif.g08.bks.cpg/sg71_29_cif.got.tgz:57986.got - 2010.06.03 16:22:01.
