data_PCOD9522069
_publ_section_title
;
Structure prediction by ZEFSAII (Michael W. Deem and Ramdas Pophale) SiO2 
 PCOD9522069
Probable space group: I M M M
;
_chemical_formula_sum "Si O2"
_cell_formula_units_Z 108
_cell_length_a 15.072368
_cell_length_b 14.172050
_cell_length_c 25.578653
_cell_angle_alpha 90.000000
_cell_angle_beta 90.000000
_cell_angle_gamma 90.000000
_cell_volume 5463.762780
_symmetry_space_group_name_H-M "I M M M"
_symmetry_group_IT_number 71
_symmetry_cell_setting 'orthorhombic'
loop_
_space_group_symop_operation_xyz
x,y,z
-x,-y,z
x,-y,-z
-x,y,-z
-x,-y,-z
x,y,-z
-x,y,z
x,-y,z
1/2+x,1/2+y,1/2+z
1/2-x,1/2-y,1/2+z
1/2+x,1/2-y,1/2-z
1/2-x,1/2+y,1/2-z
1/2-x,1/2-y,1/2-z
1/2+x,1/2+y,1/2-z
1/2-x,1/2+y,1/2+z
1/2+x,1/2-y,1/2+z
loop_
_atom_site_type_symbol
_atom_site_label
_atom_site_fract_x
_atom_site_fract_y
_atom_site_fract_z
Si Si1 0.500000 0.764262 0.000000
Si Si2 0.291526 0.887721 0.603881
Si Si3 0.106965 0.607195 0.314926
Si Si4 0.399644 0.885302 0.500000
Si Si5 0.891805 0.694650 0.796285
Si Si6 0.604316 0.395084 0.670880
Si Si7 0.830546 0.111956 0.056061
Si Si8 0.159587 0.270920 0.585292
O O1 0.422126 0.765650 0.954111
O O2 0.348072 0.859091 0.552559
O O3 0.345664 0.856768 0.655083
O O4 0.199896 0.831046 0.599346
O O5 0.279069 0.000000 0.603446
O O6 0.138679 0.500000 0.323087
O O7 0.132699 0.646021 0.258143
O O8 0.137004 0.674410 0.361429
O O9 0.000000 0.605342 0.315705
O O10 0.500000 0.850120 0.500000
O O11 0.402835 0.000000 0.500000
O O12 0.861881 0.804336 0.797966
O O13 0.000000 0.690827 0.801985
O O14 0.500000 0.400812 0.681826
O O15 0.642379 0.500000 0.680902
O O16 0.616275 0.371280 0.609420
O O17 0.739714 0.169083 0.060312
O O18 0.811633 0.000000 0.056198
O O19 0.874475 0.134029 0.000000
#
# Coordination Sequence:
#
# PCOD9522069 Si02
#       8
#     4  16  16   8  16  16  16  16
#     4  12  26  44  72  90 118 164 214 268 336 392
#     4  11  23  39  61  93 128 163 210 263 311 372
#     4  10  22  41  65  93 124 159 204 260 321 385
#     4   9  19  36  59  88 124 164 203 248 302 365
#     4  10  20  38  64  93 128 170 207 252 309 375
#     4   9  18  34  56  88 129 173 209 238 291 368
#     4  10  20  35  57  87 123 161 203 254 309 370
#     4  12  23  43  63  88 122 159 205 268 323 386
#
# _framework density 19.766597999999998
#
# number of rings (size 3 to 8) (size 9 to 14) (size 15 to 20)
#    0.000    1.704    2.963    1.778    0.000    2.370 
#    0.000    4.444    0.000    0.889    0.000    0.000 
#    0.000    0.000    0.000    0.000    0.000    0.000 
#
# Total GULP energy -301028.584972 kJ/mol
# GULP energy per Si atom -5574.603425 kJ/mol
# Density = 1.972161 g / cm^3
# Si number density = 19.766598 Si / 1000 Ang^3
#
#
#
# Elastic Constant Matrix: (Units=GPa)
#
#
# Indices 1 2 3 4 5 6 
#
# 1 58.7272 49.2066 46.5868 0.0000 0.0000 0.0000
# 2 49.2066 126.9508 75.3085 0.0000 0.0000 0.0000
# 3 46.5868 75.3085 154.7992 0.0000 0.0000 0.0000
# 4 0.0000 0.0000 0.0000 18.6589 0.0000 0.0000
# 5 0.0000 0.0000 0.0000 0.0000 28.7745 0.0000
# 6 0.0000 0.0000 0.0000 0.0000 0.0000 22.0869
#
#
#
# Elastic Compliance Matrix: (Units=1/GPa)
#
#
# Indices 1 2 3 4 5 6 
#
# 1 0.027096 -0.007963 -0.004280 0.000000 0.000000 0.000000
# 2 -0.007963 0.013413 -0.004129 0.000000 0.000000 0.000000
# 3 -0.004280 -0.004129 0.009757 0.000000 0.000000 0.000000
# 4 0.000000 0.000000 0.000000 0.053594 0.000000 0.000000
# 5 0.000000 0.000000 0.000000 0.000000 0.034753 0.000000
# 6 0.000000 0.000000 0.000000 0.000000 0.000000 0.045276
#
#
# Mechanical properties :
#
#
# Convention : Reuss Voigt Hill
#
# Bulk Modulus (GPa) = 57.07558 75.85342 66.46450
# Shear Modulus (GPa) = 22.47470 25.19576 23.83523
#
# Velocity S-wave (km/s) = 3.37561 3.57412 3.47628
# Velocity P-wave (km/s) = 6.64307 7.44918 7.05764
#
# Compressibility (1/GPa) = 0.01752063
#
# Stress axis : x y z
#
# Youngs Moduli (GPa) = 36.90626 74.55560 102.49323
#
# Poissons Ratio (x) = 0.59370 0.43871
# Poissons Ratio (y) = 0.29389 0.42316
# Poissons Ratio (z) = 0.15797 0.30782
#
# Static dielectric constant tensor:
#      x y z
#    x 1.689270 0.000000 0.000000 
#    y 0.000000 1.721380 0.000000 
#    z 0.000000 0.000000 1.683930 
# 
# From -- ./inp_files/59954.got.cif
#   From: 2010.05.17/outbox.cif.g08.bks.cpg/sg71_30_cif.got.tgz:59954.got - 2010.06.03 16:22:01.
