data_PCOD9522644
_publ_section_title
;
Structure prediction by ZEFSAII (Michael W. Deem and Ramdas Pophale) SiO2 
 PCOD9522644
Probable space group: I M M M
;
_chemical_formula_sum "Si O2"
_cell_formula_units_Z 84
_cell_length_a 11.586529
_cell_length_b 16.221832
_cell_length_c 22.951432
_cell_angle_alpha 90.000000
_cell_angle_beta 90.000000
_cell_angle_gamma 90.000000
_cell_volume 4313.830134
_symmetry_space_group_name_H-M "I M M M"
_symmetry_group_IT_number 71
_symmetry_cell_setting 'orthorhombic'
loop_
_space_group_symop_operation_xyz
x,y,z
-x,-y,z
x,-y,-z
-x,y,-z
-x,-y,-z
x,y,-z
-x,y,z
x,-y,z
1/2+x,1/2+y,1/2+z
1/2-x,1/2-y,1/2+z
1/2+x,1/2-y,1/2-z
1/2-x,1/2+y,1/2-z
1/2-x,1/2-y,1/2-z
1/2+x,1/2+y,1/2-z
1/2-x,1/2+y,1/2+z
1/2+x,1/2-y,1/2+z
loop_
_atom_site_type_symbol
_atom_site_label
_atom_site_fract_x
_atom_site_fract_y
_atom_site_fract_z
Si Si1 0.000000 0.410519 0.403850
Si Si2 0.755876 0.149956 0.593353
Si Si3 0.263420 0.093406 0.167038
Si Si4 0.362934 0.316149 0.436851
Si Si5 0.000000 0.777697 0.567097
Si Si6 0.135143 0.600102 0.786422
Si Si7 0.260378 0.500000 0.000000
O O1 0.112005 0.410485 0.363409
O O2 0.000000 0.500000 0.435156
O O3 0.000000 0.321848 0.434707
O O4 0.678202 0.222189 0.566227
O O5 0.698402 0.126658 0.654684
O O6 0.884713 0.188134 0.597334
O O7 0.759892 0.072079 0.550902
O O8 0.185911 0.141151 0.120801
O O9 0.290739 0.129563 0.230653
O O10 0.218450 0.000000 0.173664
O O11 0.320783 0.350766 0.500000
O O12 0.500000 0.321671 0.436314
O O13 0.000000 0.807872 0.500000
O O14 0.133240 0.500000 0.783266
O O15 0.000000 0.626837 0.784828
#
# Coordination Sequence:
#
# PCOD9522644 Si02
#       7
#     8  16  16  16   8  16   4
#     4  10  20  39  68  98 126 166 214 267 322 384
#     4  12  24  43  65  97 129 174 223 267 329 389
#     4  10  21  41  69  97 129 168 215 265 330 397
#     4  11  24  43  64  94 136 171 213 272 327 383
#     4  12  24  41  66  94 138 170 211 273 332 390
#     4  10  21  41  67  96 130 171 220 275 329 384
#     4  12  24  45  69  96 134 178 219 265 320 400
#
# _framework density 19.472255000000001
#
# number of rings (size 3 to 8) (size 9 to 14) (size 15 to 20)
#    0.000    1.143    5.714    0.571    0.000    2.476 
#    1.714    4.762    0.000    0.000    0.000    0.000 
#    0.000    0.000    0.000    0.000    0.000    0.000 
#
# Total GULP energy -233807.193592 kJ/mol
# GULP energy per Si atom -5566.837943 kJ/mol
# Density = 1.942794 g / cm^3
# Si number density = 19.472255 Si / 1000 Ang^3
#
#
#
# Elastic Constant Matrix: (Units=GPa)
#
#
# Indices 1 2 3 4 5 6 
#
# 1 87.5360 35.8768 67.1791 0.0000 0.0000 0.0000
# 2 35.8768 97.8917 58.9787 0.0000 0.0000 0.0000
# 3 67.1791 58.9787 181.2394 0.0000 0.0000 0.0000
# 4 0.0000 0.0000 0.0000 19.2468 0.0000 0.0000
# 5 0.0000 0.0000 0.0000 0.0000 -50.3294 0.0000
# 6 0.0000 0.0000 0.0000 0.0000 0.0000 14.0257
#
#
#
# Elastic Compliance Matrix: (Units=1/GPa)
#
#
# Indices 1 2 3 4 5 6 
#
# 1 0.016628 -0.002961 -0.005200 0.000000 0.000000 0.000000
# 2 -0.002961 0.013234 -0.003209 0.000000 0.000000 0.000000
# 3 -0.005200 -0.003209 0.008489 0.000000 0.000000 0.000000
# 4 0.000000 0.000000 0.000000 0.051957 0.000000 0.000000
# 5 0.000000 0.000000 0.000000 0.000000 -0.019869 0.000000
# 6 0.000000 0.000000 0.000000 0.000000 0.000000 0.071298
#
#
# Mechanical properties :
#
#
# Convention : Reuss Voigt Hill
#
# Bulk Modulus (GPa) = 64.05636 76.74847 70.40242
# Shear Modulus (GPa) = 29.46712 10.23079 19.84896
#
# Velocity S-wave (km/s) = 3.89432 2.29466 3.19618
# Velocity P-wave (km/s) = 7.29305 6.82059 7.06077
#
# Compressibility (1/GPa) = 0.01561125
#
# Stress axis : x y z
#
# Youngs Moduli (GPa) = 60.13909 75.56277 117.79680
#
# Poissons Ratio (x) = 0.22376 0.61252
# Poissons Ratio (y) = 0.17809 0.37800
# Poissons Ratio (z) = 0.31271 0.24248
#
# Static dielectric constant tensor:
#      x y z
#    x 1.680150 0.000000 0.000000 
#    y 0.000000 1.697130 0.000000 
#    z 0.000000 0.000000 1.703550 
# 
# From -- ./inp_files/58752.got.cif
#   From: 2010.05.17/outbox.cif.g08.bks.cpg/sg71_30_cif.got.tgz:58752.got - 2010.06.03 16:22:01.
