data_PCOD9522140
_publ_section_title
;
Structure prediction by ZEFSAII (Michael W. Deem and Ramdas Pophale) SiO2 
 PCOD9522140
Probable space group: I M M M
;
_chemical_formula_sum "Si O2"
_cell_formula_units_Z 96
_cell_length_a 20.991012
_cell_length_b 13.631344
_cell_length_c 14.859162
_cell_angle_alpha 90.000000
_cell_angle_beta 90.000000
_cell_angle_gamma 90.000000
_cell_volume 4251.736802
_symmetry_space_group_name_H-M "I M M M"
_symmetry_group_IT_number 71
_symmetry_cell_setting 'orthorhombic'
loop_
_space_group_symop_operation_xyz
x,y,z
-x,-y,z
x,-y,-z
-x,y,-z
-x,-y,-z
x,y,-z
-x,y,z
x,-y,z
1/2+x,1/2+y,1/2+z
1/2-x,1/2-y,1/2+z
1/2+x,1/2-y,1/2-z
1/2-x,1/2+y,1/2-z
1/2-x,1/2-y,1/2-z
1/2+x,1/2+y,1/2-z
1/2-x,1/2+y,1/2+z
1/2+x,1/2-y,1/2+z
loop_
_atom_site_type_symbol
_atom_site_label
_atom_site_fract_x
_atom_site_fract_y
_atom_site_fract_z
Si Si1 0.794436 0.109898 0.392110
Si Si2 0.824658 0.267374 0.826151
Si Si3 0.431847 0.309568 0.893060
Si Si4 0.253032 0.388274 0.399692
Si Si5 0.927591 0.111307 0.891895
Si Si6 0.885497 0.387949 0.333538
O O1 0.802442 0.106937 0.500000
O O2 0.862714 0.153223 0.357443
O O3 0.728554 0.167974 0.377845
O O4 0.787565 0.000000 0.356819
O O5 0.777412 0.172678 0.813775
O O6 0.882034 0.201851 0.867500
O O7 0.858828 0.341524 0.758809
O O8 0.772699 0.147916 0.000000
O O9 0.500000 0.350918 0.858738
O O10 0.431319 0.193620 0.873697
O O11 0.431429 0.326746 0.000000
O O12 0.274072 0.500000 0.393429
O O13 0.177158 0.387379 0.396168
O O14 0.000000 0.132060 0.862917
O O15 0.911620 0.000000 0.858840
O O16 0.927019 0.105169 0.000000
O O17 0.907892 0.500000 0.324654
#
# Coordination Sequence:
#
# PCOD9522140 Si02
#       6
#    16  16  16  16  16  16
#     4  10  21  37  60  91 126 164 206 252 301 363
#     4  12  21  35  59  92 125 164 198 243 308 374
#     4  10  22  42  66  89 116 159 215 266 313 365
#     4  10  20  35  59  89 117 151 199 253 303 352
#     4   9  19  37  62  92 124 160 205 256 310 369
#     4  11  24  39  57  86 123 160 199 252 310 368
#
# _framework density 22.579007000000001
#
# number of rings (size 3 to 8) (size 9 to 14) (size 15 to 20)
#    0.000    1.667    1.667    4.000    0.000    3.667 
#    0.000    3.333    0.000    1.500    0.000    5.833 
#    0.000    0.000    0.000    0.000    0.000    0.000 
#
# Total GULP energy -267350.340114 kJ/mol
# GULP energy per Si atom -5569.798752 kJ/mol
# Density = 2.252762 g / cm^3
# Si number density = 22.579007 Si / 1000 Ang^3
#
#
#
# Elastic Constant Matrix: (Units=GPa)
#
#
# Indices 1 2 3 4 5 6 
#
# 1 179.1412 61.3205 11.7366 0.0000 0.0000 0.0000
# 2 61.3205 140.8592 22.5920 0.0000 0.0000 0.0000
# 3 11.7366 22.5920 52.1594 0.0000 0.0000 0.0000
# 4 0.0000 0.0000 0.0000 23.0406 0.0000 0.0000
# 5 0.0000 0.0000 0.0000 0.0000 5.1126 0.0000
# 6 0.0000 0.0000 0.0000 0.0000 0.0000 251.2332
#
#
#
# Elastic Compliance Matrix: (Units=1/GPa)
#
#
# Indices 1 2 3 4 5 6 
#
# 1 0.006563 -0.002816 -0.000257 0.000000 0.000000 0.000000
# 2 -0.002816 0.008837 -0.003194 0.000000 0.000000 0.000000
# 3 -0.000257 -0.003194 0.020613 0.000000 0.000000 0.000000
# 4 0.000000 0.000000 0.000000 0.043402 0.000000 0.000000
# 5 0.000000 0.000000 0.000000 0.000000 0.195597 0.000000
# 6 0.000000 0.000000 0.000000 0.000000 0.000000 0.003980
#
#
# Mechanical properties :
#
#
# Convention : Reuss Voigt Hill
#
# Bulk Modulus (GPa) = 42.59044 62.60644 52.59844
# Shear Modulus (GPa) = 16.70267 74.31133 45.50700
#
# Velocity S-wave (km/s) = 2.72277 5.74309 4.49425
# Velocity P-wave (km/s) = 5.36549 8.47145 7.09062
#
# Compressibility (1/GPa) = 0.02347945
#
# Stress axis : x y z
#
# Youngs Moduli (GPa) = 152.37192 113.15549 48.51224
#
# Poissons Ratio (x) = 0.31862 0.01247
# Poissons Ratio (y) = 0.42905 0.15496
# Poissons Ratio (z) = 0.03918 0.36144
#
# Static dielectric constant tensor:
#      x y z
#    x 1.910810 0.000000 0.000000 
#    y 0.000000 1.863250 0.000000 
#    z 0.000000 0.000000 1.933990 
# 
# From -- ./inp_files/48056.got.cif
#   From: 2010.05.17/outbox.cif.g08.bks.cpg/sg71_25_cif.got.tgz:48056.got - 2010.06.03 16:22:01.
