data_PCOD9522821
_publ_section_title
;
Structure prediction by ZEFSAII (Michael W. Deem and Ramdas Pophale) SiO2 
 PCOD9522821
Probable space group: I M M M
;
_chemical_formula_sum "Si O2"
_cell_formula_units_Z 104
_cell_length_a 20.275469
_cell_length_b 30.316871
_cell_length_c 7.596309
_cell_angle_alpha 90.000000
_cell_angle_beta 90.000000
_cell_angle_gamma 90.000000
_cell_volume 4669.365898
_symmetry_space_group_name_H-M "I M M M"
_symmetry_group_IT_number 71
_symmetry_cell_setting 'orthorhombic'
loop_
_space_group_symop_operation_xyz
x,y,z
-x,-y,z
x,-y,-z
-x,y,-z
-x,-y,-z
x,y,-z
-x,y,z
x,-y,z
1/2+x,1/2+y,1/2+z
1/2-x,1/2-y,1/2+z
1/2+x,1/2-y,1/2-z
1/2-x,1/2+y,1/2-z
1/2-x,1/2-y,1/2-z
1/2+x,1/2+y,1/2-z
1/2-x,1/2+y,1/2+z
1/2+x,1/2-y,1/2+z
loop_
_atom_site_type_symbol
_atom_site_label
_atom_site_fract_x
_atom_site_fract_y
_atom_site_fract_z
Si Si1 0.189756 0.718570 0.711798
Si Si2 0.925159 0.596656 0.200605
Si Si3 0.075356 0.782053 0.288425
Si Si4 0.689562 0.449030 0.284616
Si Si5 0.075290 0.882454 0.210847
Si Si6 0.078884 0.500000 0.303575
Si Si7 0.211105 0.375520 0.697169
O O1 0.181461 0.712833 0.500000
O O2 0.250000 0.750000 0.750000
O O3 0.124062 0.743671 0.777048
O O4 0.212818 0.671657 0.788483
O O5 0.907842 0.544863 0.204757
O O6 0.867217 0.617350 0.310438
O O7 0.000000 0.602427 0.266702
O O8 0.922714 0.612535 0.000000
O O9 0.073572 0.778598 0.500000
O O10 0.098288 0.832257 0.248871
O O11 0.000000 0.777865 0.222375
O O12 0.689809 0.451355 0.500000
O O13 0.691449 0.500000 0.223995
O O14 0.625309 0.420596 0.228820
O O15 0.751313 0.418131 0.228543
O O16 0.000000 0.886813 0.278951
O O17 0.072508 0.886368 0.000000
O O18 0.109312 0.500000 0.500000
O O19 0.000000 0.500000 0.324013
O O20 0.239344 0.370838 0.500000
#
# Coordination Sequence:
#
# PCOD9522821 Si02
#       7
#    16  16  16  16  16   8  16
#     4  10  21  36  55  79 106 139 179 222 269 322
#     4  10  21  36  53  76 107 139 174 222 275 319
#     4   9  18  33  53  77 106 139 173 212 263 320
#     4   9  18  32  50  75 107 139 174 218 263 307
#     4   9  17  31  54  82 108 135 170 212 259 314
#     4   9  17  31  53  77  99 131 174 213 254 309
#     4  10  21  35  53  77 104 140 185 227 266 316
#
# _framework density 22.272831
#
# number of rings (size 3 to 8) (size 9 to 14) (size 15 to 20)
#    0.000    2.538    0.000    1.615    1.077    5.231 
#    0.000    3.846    0.000    3.231    0.000    2.154 
#    0.000    0.000    0.000    0.000    0.000    0.000 
#
# Total GULP energy -289910.769628 kJ/mol
# GULP energy per Si atom -5575.207108 kJ/mol
# Density = 2.222214 g / cm^3
# Si number density = 22.272831 Si / 1000 Ang^3
#
#
#
# Elastic Constant Matrix: (Units=GPa)
#
#
# Indices 1 2 3 4 5 6 
#
# 1 103.0763 65.2653 4.7866 0.0000 0.0000 0.0000
# 2 65.2653 149.9550 5.1998 0.0000 0.0000 0.0000
# 3 4.7866 5.1998 55.5210 0.0000 0.0000 0.0000
# 4 0.0000 0.0000 0.0000 88.7616 0.0000 0.0000
# 5 0.0000 0.0000 0.0000 0.0000 10.8595 0.0000
# 6 0.0000 0.0000 0.0000 0.0000 0.0000 36.3353
#
#
#
# Elastic Compliance Matrix: (Units=1/GPa)
#
#
# Indices 1 2 3 4 5 6 
#
# 1 0.013413 -0.005816 -0.000612 0.000000 0.000000 0.000000
# 2 -0.005816 0.009213 -0.000361 0.000000 0.000000 0.000000
# 3 -0.000612 -0.000361 0.018098 0.000000 0.000000 0.000000
# 4 0.000000 0.000000 0.000000 0.011266 0.000000 0.000000
# 5 0.000000 0.000000 0.000000 0.000000 0.092086 0.000000
# 6 0.000000 0.000000 0.000000 0.000000 0.000000 0.027521
#
#
# Mechanical properties :
#
#
# Convention : Reuss Voigt Hill
#
# Bulk Modulus (GPa) = 36.84005 51.00619 43.92312
# Shear Modulus (GPa) = 25.74355 42.74464 34.24409
#
# Velocity S-wave (km/s) = 3.40343 4.38555 3.92533
# Velocity P-wave (km/s) = 5.65869 6.97097 6.34882
#
# Compressibility (1/GPa) = 0.02714437
#
# Stress axis : x y z
#
# Youngs Moduli (GPa) = 74.55562 108.54557 55.25546
#
# Poissons Ratio (x) = 0.63135 0.03380
# Poissons Ratio (y) = 0.43365 0.01997
# Poissons Ratio (z) = 0.04560 0.03922
#
# Static dielectric constant tensor:
#      x y z
#    x 1.819120 0.000000 0.000000 
#    y 0.000000 1.831000 0.000000 
#    z 0.000000 0.000000 1.887670 
# 
# From -- ./inp_files/11059.got.cif
#   From: 2010.05.17/outbox.cif.g08.bks.cpg/sg71_6_cif.got.tgz:11059.got - 2010.06.03 16:22:01.
