data_PCOD9522925
_publ_section_title
;
Structure prediction by ZEFSAII (Michael W. Deem and Ramdas Pophale) SiO2 
 PCOD9522925
Probable space group: I M M M
;
_chemical_formula_sum "Si O2"
_cell_formula_units_Z 96
_cell_length_a 13.422769
_cell_length_b 15.085494
_cell_length_c 24.506878
_cell_angle_alpha 90.000000
_cell_angle_beta 90.000000
_cell_angle_gamma 90.000000
_cell_volume 4962.375700
_symmetry_space_group_name_H-M "I M M M"
_symmetry_group_IT_number 71
_symmetry_cell_setting 'orthorhombic'
loop_
_space_group_symop_operation_xyz
x,y,z
-x,-y,z
x,-y,-z
-x,y,-z
-x,-y,-z
x,y,-z
-x,y,z
x,-y,z
1/2+x,1/2+y,1/2+z
1/2-x,1/2-y,1/2+z
1/2+x,1/2-y,1/2-z
1/2-x,1/2+y,1/2-z
1/2-x,1/2-y,1/2-z
1/2+x,1/2+y,1/2-z
1/2-x,1/2+y,1/2+z
1/2+x,1/2-y,1/2+z
loop_
_atom_site_type_symbol
_atom_site_label
_atom_site_fract_x
_atom_site_fract_y
_atom_site_fract_z
Si Si1 0.809083 0.106219 0.223544
Si Si2 0.615591 0.365376 0.061792
Si Si3 0.108833 0.602986 0.331678
Si Si4 0.297278 0.830537 0.061957
Si Si5 0.386263 0.269540 0.366189
Si Si6 0.241279 0.401261 0.840242
O O1 0.698300 0.138424 0.205128
O O2 0.879810 0.163450 0.185187
O O3 0.811010 0.119774 0.288152
O O4 0.819597 0.000000 0.212666
O O5 0.500000 0.381486 0.074690
O O6 0.639647 0.260509 0.061553
O O7 0.689905 0.402940 0.106444
O O8 0.634525 0.396779 0.000000
O O9 0.101157 0.500000 0.317232
O O10 0.146443 0.609694 0.393889
O O11 0.000000 0.644914 0.325112
O O12 0.188966 0.807541 0.087565
O O13 0.290709 0.863887 0.000000
O O14 0.500000 0.261311 0.384577
O O15 0.340389 0.174948 0.348234
O O16 0.198747 0.500000 0.830544
#
# Coordination Sequence:
#
# PCOD9522925 Si02
#       6
#    16  16  16  16  16  16
#     4   9  19  36  55  77 107 139 172 212 258 309
#     4   9  18  33  53  76 102 133 169 212 264 317
#     4   9  17  29  48  76 107 136 166 206 259 314
#     4   9  18  33  51  72 101 136 174 215 258 307
#     4  10  21  36  54  76 103 138 178 219 260 300
#     4  10  21  36  54  78 107 138 174 215 259 310
#
# _framework density 19.345572000000001
#
# number of rings (size 3 to 8) (size 9 to 14) (size 15 to 20)
#    0.000    2.667    0.000    1.000    0.000    4.333 
#    0.000    5.000    0.000    0.000    0.000    9.333 
#    0.000    0.000    0.000    0.000    0.000    0.000 
#
# Total GULP energy -267594.698281 kJ/mol
# GULP energy per Si atom -5574.889548 kJ/mol
# Density = 1.930154 g / cm^3
# Si number density = 19.345572 Si / 1000 Ang^3
#
#
#
# Elastic Constant Matrix: (Units=GPa)
#
#
# Indices 1 2 3 4 5 6 
#
# 1 82.4302 20.2962 10.9344 0.0000 0.0000 0.0000
# 2 20.2962 45.8434 6.7791 0.0000 0.0000 0.0000
# 3 10.9344 6.7791 70.0338 0.0000 0.0000 0.0000
# 4 0.0000 0.0000 0.0000 15.4610 0.0000 0.0000
# 5 0.0000 0.0000 0.0000 0.0000 7.7280 0.0000
# 6 0.0000 0.0000 0.0000 0.0000 0.0000 2.7584
#
#
#
# Elastic Compliance Matrix: (Units=1/GPa)
#
#
# Indices 1 2 3 4 5 6 
#
# 1 0.013787 -0.005870 -0.001584 0.000000 0.000000 0.000000
# 2 -0.005870 0.024629 -0.001468 0.000000 0.000000 0.000000
# 3 -0.001584 -0.001468 0.014668 0.000000 0.000000 0.000000
# 4 0.000000 0.000000 0.000000 0.064679 0.000000 0.000000
# 5 0.000000 0.000000 0.000000 0.000000 0.129400 0.000000
# 6 0.000000 0.000000 0.000000 0.000000 0.000000 0.362526
#
#
# Mechanical properties :
#
#
# Convention : Reuss Voigt Hill
#
# Bulk Modulus (GPa) = 28.37599 30.48073 29.42836
# Shear Modulus (GPa) = 7.82132 15.87600 11.84866
#
# Velocity S-wave (km/s) = 2.01289 2.86781 2.47751
# Velocity P-wave (km/s) = 4.48354 5.17261 4.84035
#
# Compressibility (1/GPa) = 0.03524106
#
# Stress axis : x y z
#
# Youngs Moduli (GPa) = 72.53282 40.60250 68.17441
#
# Poissons Ratio (x) = 0.23832 0.10801
# Poissons Ratio (y) = 0.42573 0.10005
# Poissons Ratio (z) = 0.11492 0.05959
#
# Static dielectric constant tensor:
#      x y z
#    x 1.678380 0.000000 0.000000 
#    y 0.000000 1.712690 0.000000 
#    z 0.000000 0.000000 1.680780 
# 
# From -- ./inp_files/24193.got.cif
#   From: 2010.05.17/outbox.cif.g08.bks.cpg/sg71_13_cif.got.tgz:24193.got - 2010.06.03 16:22:01.
