data_PCOD9522499
_publ_section_title
;
Structure prediction by ZEFSAII (Michael W. Deem and Ramdas Pophale) SiO2 
 PCOD9522499
Probable space group: I M M M
;
_chemical_formula_sum "Si O2"
_cell_formula_units_Z 104
_cell_length_a 27.279124
_cell_length_b 9.162845
_cell_length_c 22.250194
_cell_angle_alpha 90.000000
_cell_angle_beta 90.000000
_cell_angle_gamma 90.000000
_cell_volume 5561.533556
_symmetry_space_group_name_H-M "I M M M"
_symmetry_group_IT_number 71
_symmetry_cell_setting 'orthorhombic'
loop_
_space_group_symop_operation_xyz
x,y,z
-x,-y,z
x,-y,-z
-x,y,-z
-x,-y,-z
x,y,-z
-x,y,z
x,-y,z
1/2+x,1/2+y,1/2+z
1/2-x,1/2-y,1/2+z
1/2+x,1/2-y,1/2-z
1/2-x,1/2+y,1/2-z
1/2-x,1/2-y,1/2-z
1/2+x,1/2+y,1/2-z
1/2-x,1/2+y,1/2+z
1/2+x,1/2-y,1/2+z
loop_
_atom_site_type_symbol
_atom_site_label
_atom_site_fract_x
_atom_site_fract_y
_atom_site_fract_z
Si Si1 0.650889 0.172878 0.933924
Si Si2 0.412658 0.171793 0.643713
Si Si3 0.441325 0.338590 0.757590
Si Si4 0.185165 0.673491 0.802995
Si Si5 0.800125 0.172698 0.678844
Si Si6 0.942620 0.829408 0.398709
Si Si7 0.500000 0.326228 0.428280
O O1 0.677525 0.254534 0.879906
O O2 0.594712 0.225793 0.932051
O O3 0.653747 0.000000 0.925045
O O4 0.671362 0.208806 0.000000
O O5 0.426007 0.212982 0.712334
O O6 0.354732 0.211527 0.645609
O O7 0.451197 0.257772 0.602191
O O8 0.418159 0.000000 0.631900
O O9 0.500000 0.346293 0.753615
O O10 0.422165 0.500000 0.739285
O O11 0.430727 0.315477 0.827567
O O12 0.179342 0.500000 0.791291
O O13 0.178495 0.759560 0.740433
O O14 0.241470 0.698876 0.821091
O O15 0.809062 0.000000 0.678578
O O16 0.000000 0.796596 0.407689
O O17 0.935086 0.000000 0.414743
O O18 0.500000 0.500000 0.417413
O O19 0.500000 0.299984 0.500000
#
# Coordination Sequence:
#
# PCOD9522499 Si02
#       7
#    16  16  16  16  16  16   8
#     4  11  24  39  54  75 108 151 193 233 279 329
#     4  11  21  34  56  85 113 144 182 225 277 336
#     4   9  17  30  49  76 111 144 174 215 264 316
#     4   9  20  37  59  90 121 144 176 228 289 347
#     4  10  20  37  61  87 115 149 187 230 283 339
#     4   9  19  35  55  81 110 143 186 232 276 325
#     4  11  25  43  59  77 109 153 196 237 282 339
#
# _framework density 18.699877999999998
#
# number of rings (size 3 to 8) (size 9 to 14) (size 15 to 20)
#    0.000    2.077    0.769    3.462    0.000    7.385 
#    0.000    3.846    0.000    4.615    0.000    0.000 
#    0.000    0.000    0.000    0.000    0.000    0.000 
#
# Total GULP energy -290182.217666 kJ/mol
# GULP energy per Si atom -5580.427263 kJ/mol
# Density = 1.865732 g / cm^3
# Si number density = 18.699878 Si / 1000 Ang^3
#
#
#
# Elastic Constant Matrix: (Units=GPa)
#
#
# Indices 1 2 3 4 5 6 
#
# 1 103.5472 56.6061 64.7639 0.0000 0.0000 0.0000
# 2 56.6061 63.2543 57.8153 0.0000 0.0000 0.0000
# 3 64.7639 57.8153 89.8777 0.0000 0.0000 0.0000
# 4 0.0000 0.0000 0.0000 18.5236 0.0000 0.0000
# 5 0.0000 0.0000 0.0000 0.0000 14.9113 0.0000
# 6 0.0000 0.0000 0.0000 0.0000 0.0000 25.2734
#
#
#
# Elastic Compliance Matrix: (Units=1/GPa)
#
#
# Indices 1 2 3 4 5 6 
#
# 1 0.020700 -0.011870 -0.007280 0.000000 0.000000 0.000000
# 2 -0.011870 0.045174 -0.020506 0.000000 0.000000 0.000000
# 3 -0.007280 -0.020506 0.029563 0.000000 0.000000 0.000000
# 4 0.000000 0.000000 0.000000 0.053985 0.000000 0.000000
# 5 0.000000 0.000000 0.000000 0.000000 0.067063 0.000000
# 6 0.000000 0.000000 0.000000 0.000000 0.000000 0.039567
#
#
# Mechanical properties :
#
#
# Convention : Reuss Voigt Hill
#
# Bulk Modulus (GPa) = 62.01609 68.33887 65.17748
# Shear Modulus (GPa) = 14.67395 16.90791 15.79093
#
# Velocity S-wave (km/s) = 2.80430 3.01021 2.90908
# Velocity P-wave (km/s) = 6.61221 6.97898 6.79807
#
# Compressibility (1/GPa) = 0.01612485
#
# Stress axis : x y z
#
# Youngs Moduli (GPa) = 48.30955 22.13657 33.82607
#
# Poissons Ratio (x) = 0.26276 0.24627
# Poissons Ratio (y) = 0.57343 0.69363
# Poissons Ratio (z) = 0.35171 0.45393
#
# Static dielectric constant tensor:
#      x y z
#    x 1.702820 0.000000 0.000000 
#    y 0.000000 1.633350 0.000000 
#    z 0.000000 0.000000 1.642840 
# 
# From -- ./inp_files/56269.got.cif
#   From: 2010.05.17/outbox.cif.g08.bks.cpg/sg71_29_cif.got.tgz:56269.got - 2010.06.03 16:22:01.
