data_PCOD9522915
_publ_section_title
;
Structure prediction by ZEFSAII (Michael W. Deem and Ramdas Pophale) SiO2 
 PCOD9522915
Probable space group: I M M M
;
_chemical_formula_sum "Si O2"
_cell_formula_units_Z 100
_cell_length_a 18.958707
_cell_length_b 30.169666
_cell_length_c 9.083669
_cell_angle_alpha 90.000000
_cell_angle_beta 90.000000
_cell_angle_gamma 90.000000
_cell_volume 5195.657537
_symmetry_space_group_name_H-M "I M M M"
_symmetry_group_IT_number 71
_symmetry_cell_setting 'orthorhombic'
loop_
_space_group_symop_operation_xyz
x,y,z
-x,-y,z
x,-y,-z
-x,y,-z
-x,-y,-z
x,y,-z
-x,y,z
x,-y,z
1/2+x,1/2+y,1/2+z
1/2-x,1/2-y,1/2+z
1/2+x,1/2-y,1/2-z
1/2-x,1/2+y,1/2-z
1/2-x,1/2-y,1/2-z
1/2+x,1/2+y,1/2-z
1/2-x,1/2+y,1/2+z
1/2+x,1/2-y,1/2+z
loop_
_atom_site_type_symbol
_atom_site_label
_atom_site_fract_x
_atom_site_fract_y
_atom_site_fract_z
Si Si1 0.584635 0.629909 0.170977
Si Si2 0.667618 0.049996 0.173766
Si Si3 0.140530 0.362585 0.161400
Si Si4 0.084461 0.220643 0.830802
Si Si5 0.690650 0.779963 0.173516
Si Si6 0.336993 0.550815 0.673030
Si Si7 0.000000 0.340238 0.000000
O O1 0.500000 0.623845 0.182233
O O2 0.603605 0.671734 0.273463
O O3 0.623971 0.586524 0.228072
O O4 0.601148 0.639410 0.000000
O O5 0.633784 0.089529 0.264934
O O6 0.752433 0.053922 0.190147
O O7 0.647396 0.000000 0.219732
O O8 0.652059 0.054449 0.000000
O O9 0.185375 0.329158 0.260401
O O10 0.175369 0.367249 0.000000
O O11 0.063283 0.342996 0.125199
O O12 0.119031 0.255380 0.721282
O O13 0.000000 0.224599 0.829988
O O14 0.107984 0.228202 0.000000
O O15 0.750000 0.750000 0.250000
O O16 0.700671 0.781113 0.000000
O O17 0.352862 0.558717 0.500000
O O18 0.357269 0.500000 0.707554
#
# Coordination Sequence:
#
# PCOD9522915 Si02
#       7
#    16  16  16  16  16  16   4
#     4  10  21  36  53  79 116 156 202 254 306 362
#     4   9  19  38  63  91 123 162 207 260 319 378
#     4  10  22  42  65  91 126 164 205 251 308 372
#     4  10  22  40  63  86 117 161 203 247 302 365
#     4  12  26  42  63  94 126 163 207 256 311 363
#     4   9  19  35  56  81 112 154 202 252 312 375
#     4   8  24  44  67  94 128 176 204 252 321 378
#
# _framework density 19.246842999999998
#
# number of rings (size 3 to 8) (size 9 to 14) (size 15 to 20)
#    0.480    1.600    0.000    3.840    3.360    3.520 
#    0.000    5.200    0.000    0.960    0.000    0.000 
#    0.000    0.000    0.000    0.000    0.000    0.000 
#
# Total GULP energy -278582.977109 kJ/mol
# GULP energy per Si atom -5571.659542 kJ/mol
# Density = 1.920304 g / cm^3
# Si number density = 19.246843 Si / 1000 Ang^3
#
#
#
# Elastic Constant Matrix: (Units=GPa)
#
#
# Indices 1 2 3 4 5 6 
#
# 1 23.6888 22.5343 27.7253 0.0000 0.0000 0.0000
# 2 22.5343 77.4462 40.4694 0.0000 0.0001 0.0000
# 3 27.7253 40.4694 106.7038 -0.0001 0.0002 -0.0001
# 4 0.0000 0.0000 -0.0001 28.9216 0.0000 0.0000
# 5 0.0000 0.0001 0.0002 0.0000 43.1805 0.0000
# 6 0.0000 0.0000 -0.0001 0.0000 0.0000 15.4155
#
#
#
# Elastic Compliance Matrix: (Units=1/GPa)
#
#
# Indices 1 2 3 4 5 6 
#
# 1 0.070629 -0.013670 -0.013167 0.000000 0.000000 0.000000
# 2 -0.013670 0.018750 -0.003559 0.000000 0.000000 0.000000
# 3 -0.013167 -0.003559 0.014143 0.000000 0.000000 0.000000
# 4 0.000000 0.000000 0.000000 0.034576 0.000000 0.000000
# 5 0.000000 0.000000 0.000000 0.000000 0.023159 0.000000
# 6 0.000000 0.000000 0.000000 0.000000 0.000000 0.064870
#
#
# Mechanical properties :
#
#
# Convention : Reuss Voigt Hill
#
# Bulk Modulus (GPa) = 23.40368 43.25519 33.32944
# Shear Modulus (GPa) = 16.60238 25.31084 20.95661
#
# Velocity S-wave (km/s) = 2.94020 3.63032 3.30333
# Velocity P-wave (km/s) = 4.86955 6.33206 5.64834
#
# Compressibility (1/GPa) = 0.04272833
#
# Stress axis : x y z
#
# Youngs Moduli (GPa) = 14.15854 53.33451 70.70692
#
# Poissons Ratio (x) = 0.72909 0.93101
# Poissons Ratio (y) = 0.19355 0.25166
# Poissons Ratio (z) = 0.18643 0.18983
#
# Static dielectric constant tensor:
#      x y z
#    x 1.680000 0.000000 0.000000 
#    y 0.000000 1.677760 0.000000 
#    z 0.000000 0.000000 1.662540 
# 
# From -- ./inp_files/11170.got.cif
#   From: 2010.05.17/outbox.cif.g08.bks.cpg/sg71_6_cif.got.tgz:11170.got - 2010.06.03 16:22:01.
