data_PCOD9522275
_publ_section_title
;
Structure prediction by ZEFSAII (Michael W. Deem and Ramdas Pophale) SiO2 
 PCOD9522275
Probable space group: I M M M
;
_chemical_formula_sum "Si O2"
_cell_formula_units_Z 64
_cell_length_a 7.469040
_cell_length_b 29.041639
_cell_length_c 12.112201
_cell_angle_alpha 90.000000
_cell_angle_beta 90.000000
_cell_angle_gamma 90.000000
_cell_volume 2627.295834
_symmetry_space_group_name_H-M "I M M M"
_symmetry_group_IT_number 71
_symmetry_cell_setting 'orthorhombic'
loop_
_space_group_symop_operation_xyz
x,y,z
-x,-y,z
x,-y,-z
-x,y,-z
-x,-y,-z
x,y,-z
-x,y,z
x,-y,z
1/2+x,1/2+y,1/2+z
1/2-x,1/2-y,1/2+z
1/2+x,1/2-y,1/2-z
1/2-x,1/2+y,1/2-z
1/2-x,1/2-y,1/2-z
1/2+x,1/2+y,1/2-z
1/2-x,1/2+y,1/2+z
1/2+x,1/2-y,1/2+z
loop_
_atom_site_type_symbol
_atom_site_label
_atom_site_fract_x
_atom_site_fract_y
_atom_site_fract_z
Si Si1 0.297284 0.000000 0.634079
Si Si2 0.215520 0.235903 0.878995
Si Si3 0.281398 0.553450 0.500000
Si Si4 0.216732 0.599031 0.123358
Si Si5 0.709001 0.634733 0.653913
O O1 0.212354 0.048712 0.660338
O O2 0.500000 0.000000 0.678629
O O3 0.309452 0.000000 0.500000
O O4 0.250000 0.250000 0.750000
O O5 0.283886 0.183129 0.884543
O O6 0.000000 0.236990 0.883807
O O7 0.272884 0.257662 0.000000
O O8 0.219113 0.500000 0.500000
O O9 0.500000 0.550313 0.500000
O O10 0.222793 0.586715 0.398276
O O11 0.271083 0.634287 0.215056
O O12 0.000000 0.595987 0.120770
O O13 0.277299 0.608991 0.000000
O O14 0.500000 0.635284 0.625826
#
# Coordination Sequence:
#
# PCOD9522275 Si02
#       5
#     8  16   8  16  16
#     4   7  12  26  45  64  95 144 190 225 268 323
#     4  10  22  42  65  89 120 156 196 248 308 364
#     4   9  18  34  57  83 113 153 193 227 278 343
#     4   9  18  32  50  74 108 148 187 228 278 335
#     4  10  20  36  58  83 114 148 186 236 287 338
#
# _framework density 24.359648
#
# number of rings (size 3 to 8) (size 9 to 14) (size 15 to 20)
#    0.000    2.750    1.250    1.500    1.750    3.000 
#    0.000    5.625    0.000    3.000    0.000    0.000 
#    0.000    0.000    0.000    0.000    0.000    0.000 
#
# Total GULP energy -178145.795475 kJ/mol
# GULP energy per Si atom -5567.056109 kJ/mol
# Density = 2.430420 g / cm^3
# Si number density = 24.359648 Si / 1000 Ang^3
#
#
#
# Elastic Constant Matrix: (Units=GPa)
#
#
# Indices 1 2 3 4 5 6 
#
# 1 76.3845 0.8704 6.7885 -0.0001 0.0000 0.0000
# 2 0.8704 87.0853 63.6393 -0.0006 0.0000 0.0001
# 3 6.7885 63.6393 229.3590 -0.0006 0.0000 0.0001
# 4 -0.0001 -0.0006 -0.0006 23.8516 0.0001 0.0002
# 5 0.0000 0.0000 0.0000 0.0001 21.8568 -0.0001
# 6 0.0000 0.0001 0.0001 0.0002 -0.0001 4.5938
#
#
#
# Elastic Compliance Matrix: (Units=1/GPa)
#
#
# Indices 1 2 3 4 5 6 
#
# 1 0.013129 0.000192 -0.000442 0.000000 0.000000 0.000000
# 2 0.000192 0.014406 -0.004003 0.000000 0.000000 0.000000
# 3 -0.000442 -0.004003 0.005484 0.000000 0.000000 0.000000
# 4 0.000000 0.000000 0.000000 0.041926 0.000000 -0.000001
# 5 0.000000 0.000000 0.000000 0.000000 0.045752 0.000001
# 6 0.000000 0.000000 0.000000 -0.000001 0.000001 0.217687
#
#
# Mechanical properties :
#
#
# Convention : Reuss Voigt Hill
#
# Bulk Modulus (GPa) = 40.79535 59.49169 50.14352
# Shear Modulus (GPa) = 14.08211 31.49581 22.78896
#
# Velocity S-wave (km/s) = 2.40696 3.59966 3.06195
# Velocity P-wave (km/s) = 4.95056 6.46158 5.75587
#
# Compressibility (1/GPa) = 0.02451260
#
# Stress axis : x y z
#
# Youngs Moduli (GPa) = 76.16883 69.41411 182.35770
#
# Poissons Ratio (x) = -0.01330 0.08055
# Poissons Ratio (y) = -0.01459 0.72996
# Poissons Ratio (z) = 0.03365 0.27786
#
# Static dielectric constant tensor:
#      x y z
#    x 1.984000 0.000000 0.000000 
#    y 0.000000 1.979170 0.000000 
#    z 0.000000 0.000000 2.008060 
# 
# From -- ./inp_files/18479.got.cif
#   From: 2010.05.17/outbox.cif.g08.bks.cpg/sg71_10_cif.got.tgz:18479.got - 2010.06.03 16:22:01.
