data_PCOD9522906
_publ_section_title
;
Structure prediction by ZEFSAII (Michael W. Deem and Ramdas Pophale) SiO2 
 PCOD9522906
Probable space group: I M M M
;
_chemical_formula_sum "Si O2"
_cell_formula_units_Z 104
_cell_length_a 16.741269
_cell_length_b 15.026334
_cell_length_c 23.406897
_cell_angle_alpha 90.000000
_cell_angle_beta 90.000000
_cell_angle_gamma 90.000000
_cell_volume 5888.236659
_symmetry_space_group_name_H-M "I M M M"
_symmetry_group_IT_number 71
_symmetry_cell_setting 'orthorhombic'
loop_
_space_group_symop_operation_xyz
x,y,z
-x,-y,z
x,-y,-z
-x,y,-z
-x,-y,-z
x,y,-z
-x,y,z
x,-y,z
1/2+x,1/2+y,1/2+z
1/2-x,1/2-y,1/2+z
1/2+x,1/2-y,1/2-z
1/2-x,1/2+y,1/2-z
1/2-x,1/2-y,1/2-z
1/2+x,1/2+y,1/2-z
1/2-x,1/2+y,1/2+z
1/2+x,1/2-y,1/2+z
loop_
_atom_site_type_symbol
_atom_site_label
_atom_site_fract_x
_atom_site_fract_y
_atom_site_fract_z
Si Si1 0.095245 0.102239 0.210351
Si Si2 0.812547 0.742926 0.143459
Si Si3 0.908869 0.500000 0.569762
Si Si4 0.092837 0.863607 0.434457
Si Si5 0.403800 0.101554 0.566204
Si Si6 0.826547 0.320548 0.566218
Si Si7 0.694281 0.401826 0.176544
O O1 0.138173 0.180501 0.175230
O O2 0.126967 0.109002 0.275209
O O3 0.000000 0.112822 0.207902
O O4 0.114007 0.000000 0.191005
O O5 0.866815 0.676026 0.106413
O O6 0.749115 0.789926 0.101883
O O7 0.758689 0.676592 0.181904
O O8 0.910155 0.500000 0.500000
O O9 0.863523 0.411715 0.588271
O O10 0.000000 0.500000 0.589179
O O11 0.112337 0.890868 0.500000
O O12 0.107183 0.757283 0.431997
O O13 0.151944 0.898666 0.385672
O O14 0.000000 0.885612 0.423791
O O15 0.380034 0.116498 0.500000
O O16 0.500000 0.104922 0.568719
O O17 0.379471 0.000000 0.581323
O O18 0.803648 0.331740 0.500000
O O19 0.730541 0.500000 0.184091
#
# Coordination Sequence:
#
# PCOD9522906 Si02
#       7
#    16  16   8  16  16  16  16
#     4  10  22  39  57  75  99 136 181 223 265 320
#     4  11  20  33  55  79 105 134 177 223 269 308
#     4   9  16  28  46  66  95 137 177 207 247 310
#     4   9  17  30  49  75 107 139 171 207 251 311
#     4   9  18  33  54  81 113 147 179 214 264 325
#     4   9  18  29  45  72 103 134 168 212 264 307
#     4  10  21  36  53  77 106 138 172 214 267 320
#
# _framework density 17.662334000000001
#
# number of rings (size 3 to 8) (size 9 to 14) (size 15 to 20)
#    0.000    2.385    0.000    3.231    1.077    3.692 
#    0.000    0.769    0.000    0.000    0.000    3.231 
#    0.000    0.000    0.000    0.000    0.000    0.000 
#
# Total GULP energy -289963.474298 kJ/mol
# GULP energy per Si atom -5576.220660 kJ/mol
# Density = 1.762213 g / cm^3
# Si number density = 17.662334 Si / 1000 Ang^3
#
#
#
# Elastic Constant Matrix: (Units=GPa)
#
#
# Indices 1 2 3 4 5 6 
#
# 1 79.0475 61.5149 35.5221 0.0000 0.0000 0.0000
# 2 61.5149 154.3226 51.6774 0.0000 0.0000 0.0000
# 3 35.5221 51.6774 58.2647 0.0000 0.0000 0.0000
# 4 0.0000 0.0000 0.0000 15.0166 0.0000 0.0000
# 5 0.0000 0.0000 0.0000 0.0000 24.6371 0.0000
# 6 0.0000 0.0000 0.0000 0.0000 0.0000 21.7342
#
#
#
# Elastic Compliance Matrix: (Units=1/GPa)
#
#
# Indices 1 2 3 4 5 6 
#
# 1 0.020371 -0.005635 -0.007422 0.000000 0.000000 0.000000
# 2 -0.005635 0.010776 -0.006123 0.000000 0.000000 0.000000
# 3 -0.007422 -0.006123 0.027118 0.000000 0.000000 0.000000
# 4 0.000000 0.000000 0.000000 0.066593 0.000000 0.000000
# 5 0.000000 0.000000 0.000000 0.000000 0.040589 0.000000
# 6 0.000000 0.000000 0.000000 0.000000 0.000000 0.046011
#
#
# Mechanical properties :
#
#
# Convention : Reuss Voigt Hill
#
# Bulk Modulus (GPa) = 50.23326 65.45151 57.84239
# Shear Modulus (GPa) = 19.49687 21.80560 20.65124
#
# Velocity S-wave (km/s) = 3.32605 3.51747 3.42310
# Velocity P-wave (km/s) = 6.57669 7.32355 6.96014
#
# Compressibility (1/GPa) = 0.01990713
#
# Stress axis : x y z
#
# Youngs Moduli (GPa) = 49.09004 92.79652 36.87570
#
# Poissons Ratio (x) = 0.52289 0.27368
# Poissons Ratio (y) = 0.27661 0.22577
# Poissons Ratio (z) = 0.36433 0.56815
#
# Static dielectric constant tensor:
#      x y z
#    x 1.583250 0.000000 0.000000 
#    y 0.000000 1.621420 0.000000 
#    z 0.000000 0.000000 1.590010 
# 
# From -- ./inp_files/59915.got.cif
#   From: 2010.05.17/outbox.cif.g08.bks.cpg/sg71_30_cif.got.tgz:59915.got - 2010.06.03 16:22:01.
