data_PCOD9522484
_publ_section_title
;
Structure prediction by ZEFSAII (Michael W. Deem and Ramdas Pophale) SiO2 
 PCOD9522484
Probable space group: I M M M
;
_chemical_formula_sum "Si O2"
_cell_formula_units_Z 116
_cell_length_a 24.234592
_cell_length_b 27.324011
_cell_length_c 7.664458
_cell_angle_alpha 90.000000
_cell_angle_beta 90.000000
_cell_angle_gamma 90.000000
_cell_volume 5075.298766
_symmetry_space_group_name_H-M "I M M M"
_symmetry_group_IT_number 71
_symmetry_cell_setting 'orthorhombic'
loop_
_space_group_symop_operation_xyz
x,y,z
-x,-y,z
x,-y,-z
-x,y,-z
-x,-y,-z
x,y,-z
-x,y,z
x,-y,z
1/2+x,1/2+y,1/2+z
1/2-x,1/2-y,1/2+z
1/2+x,1/2-y,1/2-z
1/2-x,1/2+y,1/2-z
1/2-x,1/2-y,1/2-z
1/2+x,1/2+y,1/2-z
1/2-x,1/2+y,1/2+z
1/2+x,1/2-y,1/2+z
loop_
_atom_site_type_symbol
_atom_site_label
_atom_site_fract_x
_atom_site_fract_y
_atom_site_fract_z
Si Si1 0.333254 0.444993 0.791019
Si Si2 0.783210 0.404124 0.202032
Si Si3 0.263646 0.305624 0.707276
Si Si4 0.435920 0.813815 0.289644
Si Si5 0.404182 0.076327 0.192367
Si Si6 0.614426 0.286830 0.287029
Si Si7 0.559131 0.382560 0.709699
Si Si8 0.571735 0.000000 0.500000
O O1 0.339966 0.500000 0.724938
O O2 0.275343 0.422969 0.725380
O O3 0.387611 0.414074 0.754730
O O4 0.327406 0.446298 0.000000
O O5 0.776779 0.345371 0.209760
O O6 0.837343 0.423865 0.294791
O O7 0.789144 0.419277 0.000000
O O8 0.261345 0.313311 0.500000
O O9 0.250000 0.250000 0.750000
O O10 0.326980 0.309388 0.769110
O O11 0.430282 0.816582 0.500000
O O12 0.500000 0.803064 0.250539
O O13 0.420477 0.866857 0.217987
O O14 0.398924 0.768020 0.227317
O O15 0.426872 0.042704 0.346594
O O16 0.421763 0.060491 0.000000
O O17 0.615971 0.284880 0.500000
O O18 0.569178 0.326562 0.234283
O O19 0.557210 0.382050 0.500000
O O20 0.500000 0.401043 0.775310
#
# Coordination Sequence:
#
# PCOD9522484 Si02
#       8
#    16  16  16  16  16  16  16   4
#     4  10  23  40  61  86 119 168 217 268 330 394
#     4  11  22  40  65  91 132 173 220 280 338 403
#     4  11  21  34  56  89 130 173 216 266 328 401
#     4  10  20  40  69  99 136 182 228 279 343 412
#     4  12  26  45  73 105 138 181 229 282 346 408
#     4   9  18  34  59  91 128 172 222 268 329 407
#     4  10  20  37  60  88 123 162 214 276 330 390
#     4  12  26  52  73 104 144 178 231 290 340 412
#
# _framework density 22.855798
#
# number of rings (size 3 to 8) (size 9 to 14) (size 15 to 20)
#    0.000    1.517    2.759    2.276    0.966    4.414 
#    0.000    3.448    0.000    2.483    0.000    0.000 
#    0.000    0.000    0.000    0.000    0.000    0.000 
#
# Total GULP energy -323811.254506 kJ/mol
# GULP energy per Si atom -5582.952664 kJ/mol
# Density = 2.280378 g / cm^3
# Si number density = 22.855798 Si / 1000 Ang^3
#
#
#
# Elastic Constant Matrix: (Units=GPa)
#
#
# Indices 1 2 3 4 5 6 
#
# 1 56.6111 -5.2115 6.5182 0.0000 0.0000 0.0000
# 2 -5.2115 106.4989 12.2508 0.0000 0.0000 0.0000
# 3 6.5182 12.2508 96.3511 0.0000 0.0000 0.0000
# 4 0.0000 0.0000 0.0000 21.9101 0.0000 0.0000
# 5 0.0000 0.0000 0.0000 0.0000 -0.0858 0.0000
# 6 0.0000 0.0000 0.0000 0.0000 0.0000 -13.8449
#
#
#
# Elastic Compliance Matrix: (Units=1/GPa)
#
#
# Indices 1 2 3 4 5 6 
#
# 1 0.017914 0.001031 -0.001343 0.000000 0.000000 0.000000
# 2 0.001031 0.009588 -0.001289 0.000000 0.000000 0.000000
# 3 -0.001343 -0.001289 0.010633 0.000000 0.000000 0.000000
# 4 0.000000 0.000000 0.000000 0.045641 0.000000 0.000000
# 5 0.000000 0.000000 0.000000 0.000000-11.651868 0.000000
# 6 0.000000 0.000000 0.000000 0.000000 0.000000 -0.072229
#
#
# Mechanical properties :
#
#
# Convention : Reuss Voigt Hill
#
# Bulk Modulus (GPa) = 28.62516 31.84177 30.23347
# Shear Modulus (GPa) = -0.43009 17.98945 8.77968
#
# Velocity S-wave (km/s) = -0.43426 2.80855 1.96206
# Velocity P-wave (km/s) = 3.50713 4.94763 4.28830
#
# Compressibility (1/GPa) = 0.03493430
#
# Stress axis : x y z
#
# Youngs Moduli (GPa) = 55.82244 104.29167 94.04292
#
# Poissons Ratio (x) = -0.10754 0.12630
# Poissons Ratio (y) = -0.05756 0.12121
# Poissons Ratio (z) = 0.07497 0.13442
#
# Static dielectric constant tensor:
#      x y z
#    x 1.883760 0.000000 0.000000 
#    y 0.000000 1.836220 0.000000 
#    z 0.000000 0.000000 1.838440 
# 
# From -- ./inp_files/13409.got.cif
#   From: 2010.05.17/outbox.cif.g08.bks.cpg/sg71_7_cif.got.tgz:13409.got - 2010.06.03 16:22:01.
