data_PCOD9522700
_publ_section_title
;
Structure prediction by ZEFSAII (Michael W. Deem and Ramdas Pophale) SiO2 
 PCOD9522700
Probable space group: I M M M
;
_chemical_formula_sum "Si O2"
_cell_formula_units_Z 96
_cell_length_a 31.257856
_cell_length_b 7.447649
_cell_length_c 19.686024
_cell_angle_alpha 90.000000
_cell_angle_beta 90.000000
_cell_angle_gamma 90.000000
_cell_volume 4582.857959
_symmetry_space_group_name_H-M "I M M M"
_symmetry_group_IT_number 71
_symmetry_cell_setting 'orthorhombic'
loop_
_space_group_symop_operation_xyz
x,y,z
-x,-y,z
x,-y,-z
-x,y,-z
-x,-y,-z
x,y,-z
-x,y,z
x,-y,z
1/2+x,1/2+y,1/2+z
1/2-x,1/2-y,1/2+z
1/2+x,1/2-y,1/2-z
1/2-x,1/2+y,1/2-z
1/2-x,1/2-y,1/2-z
1/2+x,1/2+y,1/2-z
1/2-x,1/2+y,1/2+z
1/2+x,1/2-y,1/2+z
loop_
_atom_site_type_symbol
_atom_site_label
_atom_site_fract_x
_atom_site_fract_y
_atom_site_fract_z
Si Si1 0.624176 0.720070 0.578236
Si Si2 0.199798 0.282063 0.680152
Si Si3 0.451025 0.281203 0.678101
Si Si4 0.703776 0.710534 0.664829
Si Si5 0.048377 0.783756 0.667956
Si Si6 0.628618 0.788033 0.076207
O O1 0.621317 0.774949 0.500000
O O2 0.624297 0.500000 0.579386
O O3 0.583794 0.778060 0.623563
O O4 0.667902 0.782740 0.614276
O O5 0.200395 0.500000 0.679996
O O6 0.247838 0.216556 0.663184
O O7 0.188909 0.227904 0.757096
O O8 0.165170 0.215730 0.626298
O O9 0.500000 0.226582 0.663540
O O10 0.450723 0.500000 0.677893
O O11 0.440249 0.224412 0.755285
O O12 0.707621 0.500000 0.648834
O O13 0.083197 0.730638 0.613063
O O14 0.000000 0.722471 0.653002
O O15 0.047611 0.000000 0.669362
O O16 0.637296 0.000000 0.070807
O O17 0.628753 0.713312 0.000000
#
# Coordination Sequence:
#
# PCOD9522700 Si02
#       6
#    16  16  16  16  16  16
#     4   9  16  24  38  64  93 119 148 181 220 267
#     4   9  18  32  49  68  90 119 155 192 230 273
#     4   8  14  25  41  62  89 119 149 183 223 265
#     4   9  17  30  49  70  91 118 154 195 232 267
#     4   9  18  33  52  71  91 119 156 195 232 271
#     4  10  21  34  47  67  96 126 153 186 233 285
#
# _framework density 20.947626
#
# number of rings (size 3 to 8) (size 9 to 14) (size 15 to 20)
#    0.000    3.000    0.000    2.000    0.000    4.000 
#    0.000    6.667    0.000    0.500    0.000    4.667 
#    0.000    0.000    0.000   14.333    0.000   11.667 
#
# Total GULP energy -267913.360654 kJ/mol
# GULP energy per Si atom -5581.528347 kJ/mol
# Density = 2.089995 g / cm^3
# Si number density = 20.947626 Si / 1000 Ang^3
#
#
#
# Elastic Constant Matrix: (Units=GPa)
#
#
# Indices 1 2 3 4 5 6 
#
# 1 102.3184 -13.1068 91.3631 0.0000 0.0000 0.0000
# 2 -13.1068 57.9075 -16.2154 0.0000 0.0000 0.0000
# 3 91.3631 -16.2154 140.6902 0.0000 0.0000 0.0000
# 4 0.0000 0.0000 0.0000 4.9957 0.0000 0.0000
# 5 0.0000 0.0000 0.0000 0.0000 -8.0869 0.0000
# 6 0.0000 0.0000 0.0000 0.0000 0.0000 2.7270
#
#
#
# Elastic Compliance Matrix: (Units=1/GPa)
#
#
# Indices 1 2 3 4 5 6 
#
# 1 0.023327 0.001073 -0.015024 0.000000 0.000000 0.000000
# 2 0.001073 0.017894 0.001366 0.000000 0.000000 0.000000
# 3 -0.015024 0.001366 0.017022 0.000000 0.000000 0.000000
# 4 0.000000 0.000000 0.000000 0.200171 0.000000 0.000000
# 5 0.000000 0.000000 0.000000 0.000000 -0.123657 0.000000
# 6 0.000000 0.000000 0.000000 0.000000 0.000000 0.366699
#
#
# Mechanical properties :
#
#
# Convention : Reuss Voigt Hill
#
# Bulk Modulus (GPa) = 30.23822 47.22199 38.73011
# Shear Modulus (GPa) = 9.29969 15.85219 12.57594
#
# Velocity S-wave (km/s) = 2.10930 2.75390 2.45287
# Velocity P-wave (km/s) = 4.51649 5.71872 5.15279
#
# Compressibility (1/GPa) = 0.03307073
#
# Stress axis : x y z
#
# Youngs Moduli (GPa) = 42.86953 55.88413 58.74743
#
# Poissons Ratio (x) = -0.05994 0.88265
# Poissons Ratio (y) = -0.04598 -0.08024
# Poissons Ratio (z) = 0.64409 -0.07633
#
# Static dielectric constant tensor:
#      x y z
#    x 1.736570 0.000000 0.000000 
#    y 0.000000 1.815460 0.000000 
#    z 0.000000 0.000000 1.708830 
# 
# From -- ./inp_files/10889.got.cif
#   From: 2010.05.17/outbox.cif.g08.bks.cpg/sg71_6_cif.got.tgz:10889.got - 2010.06.03 16:22:01.
