data_PCOD9522469
_publ_section_title
;
Structure prediction by ZEFSAII (Michael W. Deem and Ramdas Pophale) SiO2 
 PCOD9522469
Probable space group: I M M M
;
_chemical_formula_sum "Si O2"
_cell_formula_units_Z 104
_cell_length_a 22.043092
_cell_length_b 30.081731
_cell_length_c 7.848547
_cell_angle_alpha 90.000000
_cell_angle_beta 90.000000
_cell_angle_gamma 90.000000
_cell_volume 5204.327281
_symmetry_space_group_name_H-M "I M M M"
_symmetry_group_IT_number 71
_symmetry_cell_setting 'orthorhombic'
loop_
_space_group_symop_operation_xyz
x,y,z
-x,-y,z
x,-y,-z
-x,y,-z
-x,-y,-z
x,y,-z
-x,y,z
x,-y,z
1/2+x,1/2+y,1/2+z
1/2-x,1/2-y,1/2+z
1/2+x,1/2-y,1/2-z
1/2-x,1/2+y,1/2-z
1/2-x,1/2-y,1/2-z
1/2+x,1/2+y,1/2-z
1/2-x,1/2+y,1/2+z
1/2+x,1/2-y,1/2+z
loop_
_atom_site_type_symbol
_atom_site_label
_atom_site_fract_x
_atom_site_fract_y
_atom_site_fract_z
Si Si1 0.568557 0.053809 0.500000
Si Si2 0.874081 0.858795 0.698001
Si Si3 0.157344 0.447994 0.694728
Si Si4 0.928455 0.048862 0.205228
Si Si5 0.811941 0.275910 0.205154
Si Si6 0.433074 0.271535 0.699795
Si Si7 0.262510 0.131414 0.706935
O O1 0.500000 0.071234 0.500000
O O2 0.606707 0.065919 0.667699
O O3 0.565129 0.000000 0.500000
O O4 0.873514 0.846132 0.500000
O O5 0.895658 0.909188 0.716301
O O6 0.918029 0.823884 0.787527
O O7 0.805404 0.856732 0.764265
O O8 0.135656 0.444768 0.500000
O O9 0.172894 0.500000 0.726405
O O10 0.213340 0.414865 0.721110
O O11 0.000000 0.051351 0.244800
O O12 0.906213 0.000000 0.259962
O O13 0.922590 0.051288 0.000000
O O14 0.750000 0.250000 0.250000
O O15 0.873515 0.253205 0.272359
O O16 0.804602 0.327178 0.258141
O O17 0.814793 0.275273 0.000000
O O18 0.435815 0.259816 0.500000
O O19 0.500000 0.262440 0.773959
O O20 0.261904 0.128129 0.500000
#
# Coordination Sequence:
#
# PCOD9522469 Si02
#       7
#     8  16  16  16  16  16  16
#     4   9  18  36  62  88 120 162 199 245 307 359
#     4  11  22  34  53  82 112 146 190 238 291 349
#     4  10  21  37  60  91 124 161 205 250 300 363
#     4   9  19  36  54  72 102 145 189 234 284 340
#     4  10  20  37  60  83 114 150 195 242 294 357
#     4  10  21  37  58  84 113 148 192 240 290 349
#     4  10  21  37  56  81 118 156 197 243 301 361
#
# _framework density 19.983369
#
# number of rings (size 3 to 8) (size 9 to 14) (size 15 to 20)
#    0.000    2.077    2.308    1.385    0.000    5.538 
#    0.000    6.154    0.000    0.000    0.000    0.000 
#    0.000    0.000    0.000    0.000    0.000    0.000 
#
# Total GULP energy -290203.184106 kJ/mol
# GULP energy per Si atom -5580.830464 kJ/mol
# Density = 1.993789 g / cm^3
# Si number density = 19.983369 Si / 1000 Ang^3
#
#
#
# Elastic Constant Matrix: (Units=GPa)
#
#
# Indices 1 2 3 4 5 6 
#
# 1 128.0834 46.2796 21.7077 0.0000 0.0000 0.0000
# 2 46.2796 92.9037 11.5071 0.0000 0.0000 0.0000
# 3 21.7077 11.5071 47.5494 0.0000 0.0000 0.0000
# 4 0.0000 0.0000 0.0000 11.4045 0.0000 0.0000
# 5 0.0000 0.0000 0.0000 0.0000 11.9737 0.0000
# 6 0.0000 0.0000 0.0000 0.0000 0.0000 32.1885
#
#
#
# Elastic Compliance Matrix: (Units=1/GPa)
#
#
# Indices 1 2 3 4 5 6 
#
# 1 0.010051 -0.004576 -0.003481 0.000000 0.000000 0.000000
# 2 -0.004576 0.013179 -0.001101 0.000000 0.000000 0.000000
# 3 -0.003481 -0.001101 0.022886 0.000000 0.000000 0.000000
# 4 0.000000 0.000000 0.000000 0.087685 0.000000 0.000000
# 5 0.000000 0.000000 0.000000 0.000000 0.083516 0.000000
# 6 0.000000 0.000000 0.000000 0.000000 0.000000 0.031067
#
#
# Mechanical properties :
#
#
# Convention : Reuss Voigt Hill
#
# Bulk Modulus (GPa) = 35.96875 47.50281 41.73578
# Shear Modulus (GPa) = 18.11816 23.71616 20.91716
#
# Velocity S-wave (km/s) = 3.01435 3.44873 3.23883
# Velocity P-wave (km/s) = 5.49122 6.29929 5.90908
#
# Compressibility (1/GPa) = 0.02780191
#
# Stress axis : x y z
#
# Youngs Moduli (GPa) = 99.49618 75.87589 43.69422
#
# Poissons Ratio (x) = 0.34717 0.15210
# Poissons Ratio (y) = 0.45525 0.04809
# Poissons Ratio (z) = 0.34636 0.08351
#
# Static dielectric constant tensor:
#      x y z
#    x 1.711680 0.000000 0.000000 
#    y 0.000000 1.697950 0.000000 
#    z 0.000000 0.000000 1.730020 
# 
# From -- ./inp_files/11492.got.cif
#   From: 2010.05.17/outbox.cif.g08.bks.cpg/sg71_6_cif.got.tgz:11492.got - 2010.06.03 16:22:01.
