data_PCOD9522100
_publ_section_title
;
Structure prediction by ZEFSAII (Michael W. Deem and Ramdas Pophale) SiO2 
 PCOD9522100
Probable space group: I M M M
;
_chemical_formula_sum "Si O2"
_cell_formula_units_Z 104
_cell_length_a 8.794267
_cell_length_b 28.563108
_cell_length_c 22.581221
_cell_angle_alpha 90.000000
_cell_angle_beta 90.000000
_cell_angle_gamma 90.000000
_cell_volume 5672.212990
_symmetry_space_group_name_H-M "I M M M"
_symmetry_group_IT_number 71
_symmetry_cell_setting 'orthorhombic'
loop_
_space_group_symop_operation_xyz
x,y,z
-x,-y,z
x,-y,-z
-x,y,-z
-x,-y,-z
x,y,-z
-x,y,z
x,-y,z
1/2+x,1/2+y,1/2+z
1/2-x,1/2-y,1/2+z
1/2+x,1/2-y,1/2-z
1/2-x,1/2+y,1/2-z
1/2-x,1/2-y,1/2-z
1/2+x,1/2+y,1/2-z
1/2-x,1/2+y,1/2+z
1/2+x,1/2-y,1/2+z
loop_
_atom_site_type_symbol
_atom_site_label
_atom_site_fract_x
_atom_site_fract_y
_atom_site_fract_z
Si Si1 0.824372 0.613104 0.162451
Si Si2 0.316571 0.444160 0.500000
Si Si3 0.681739 0.101367 0.119234
Si Si4 0.820460 0.945605 0.768428
Si Si5 0.669616 0.444109 0.930956
Si Si6 0.318181 0.694460 0.678265
Si Si7 0.819098 0.206524 0.682168
O O1 0.744412 0.587440 0.217493
O O2 0.798739 0.579512 0.107072
O O3 0.741553 0.661597 0.148248
O O4 0.000000 0.621242 0.176200
O O5 0.275186 0.500000 0.500000
O O6 0.500000 0.441738 0.500000
O O7 0.252669 0.417746 0.441887
O O8 0.500000 0.102911 0.114553
O O9 0.734633 0.066101 0.171005
O O10 0.742671 0.152070 0.141975
O O11 0.000000 0.936362 0.776459
O O12 0.801312 0.000000 0.752135
O O13 0.500000 0.430126 0.908806
O O14 0.677914 0.500000 0.925855
O O15 0.679159 0.432198 0.000000
O O16 0.500000 0.690712 0.672833
O O17 0.259639 0.745911 0.660707
O O18 0.279722 0.694546 0.748794
O O19 0.000000 0.211804 0.678931
#
# Coordination Sequence:
#
# PCOD9522100 Si02
#       7
#    16   8  16  16  16  16  16
#     4  12  23  34  54  85 119 152 189 237 292 345
#     4  11  25  45  67  89 119 163 211 255 304 365
#     4  12  24  39  62  90 121 155 197 247 302 359
#     4  11  23  38  56  81 116 156 196 239 291 349
#     4   9  19  37  59  80 107 149 196 236 280 340
#     4  10  20  36  60  87 118 153 191 235 288 348
#     4  10  20  35  58  86 119 154 192 236 287 344
#
# _framework density 18.334996
#
# number of rings (size 3 to 8) (size 9 to 14) (size 15 to 20)
#    0.000    1.308    1.538    5.769    0.000    7.385 
#    0.000    0.769    1.692    0.000    0.000    0.000 
#    0.000    0.000    0.000    0.000    0.000    0.000 
#
# Total GULP energy -290478.574125 kJ/mol
# GULP energy per Si atom -5586.126425 kJ/mol
# Density = 1.829327 g / cm^3
# Si number density = 18.334996 Si / 1000 Ang^3
#
#
#
# Elastic Constant Matrix: (Units=GPa)
#
#
# Indices 1 2 3 4 5 6 
#
# 1 61.6704 35.2795 13.1288 0.0000 0.0000 0.0000
# 2 35.2795 93.7470 29.3495 0.0000 0.0000 0.0000
# 3 13.1288 29.3495 37.1095 -0.0001 0.0000 0.0000
# 4 0.0000 0.0000 -0.0001 -15.3361 0.0000 0.0000
# 5 0.0000 0.0000 0.0000 0.0000 23.7799 0.0000
# 6 0.0000 0.0000 0.0000 0.0000 0.0000 33.8106
#
#
#
# Elastic Compliance Matrix: (Units=1/GPa)
#
#
# Indices 1 2 3 4 5 6 
#
# 1 0.020730 -0.007317 -0.001547 0.000000 0.000000 0.000000
# 2 -0.007317 0.016760 -0.010667 0.000000 0.000000 0.000000
# 3 -0.001547 -0.010667 0.035931 0.000000 0.000000 0.000000
# 4 0.000000 0.000000 0.000000 -0.065206 0.000000 0.000000
# 5 0.000000 0.000000 0.000000 0.000000 0.042052 0.000000
# 6 0.000000 0.000000 0.000000 0.000000 0.000000 0.029577
#
#
# Mechanical properties :
#
#
# Convention : Reuss Voigt Hill
#
# Bulk Modulus (GPa) = 29.10401 38.67138 33.88770
# Shear Modulus (GPa) = 38.35553 16.10215 27.22884
#
# Velocity S-wave (km/s) = 4.57872 2.96669 3.85785
# Velocity P-wave (km/s) = 6.62276 5.73344 6.19408
#
# Compressibility (1/GPa) = 0.03435953
#
# Stress axis : x y z
#
# Youngs Moduli (GPa) = 48.23830 59.66583 27.83127
#
# Poissons Ratio (x) = 0.43658 0.04306
# Poissons Ratio (y) = 0.35296 0.29687
# Poissons Ratio (z) = 0.07463 0.63643
#
# Static dielectric constant tensor:
#      x y z
#    x 1.631520 0.000000 0.000000 
#    y 0.000000 1.645410 0.000000 
#    z 0.000000 0.000000 1.621420 
# 
# From -- ./inp_files/50911.got.cif
#   From: 2010.05.17/outbox.cif.g08.bks.cpg/sg71_26_cif.got.tgz:50911.got - 2010.06.03 16:22:01.
