data_PCOD9522537
_publ_section_title
;
Structure prediction by ZEFSAII (Michael W. Deem and Ramdas Pophale) SiO2 
 PCOD9522537
Probable space group: I M M M
;
_chemical_formula_sum "Si O2"
_cell_formula_units_Z 68
_cell_length_a 21.639224
_cell_length_b 15.303052
_cell_length_c 9.489596
_cell_angle_alpha 90.000000
_cell_angle_beta 90.000000
_cell_angle_gamma 90.000000
_cell_volume 3142.443371
_symmetry_space_group_name_H-M "I M M M"
_symmetry_group_IT_number 71
_symmetry_cell_setting 'orthorhombic'
loop_
_space_group_symop_operation_xyz
x,y,z
-x,-y,z
x,-y,-z
-x,y,-z
-x,-y,-z
x,y,-z
-x,y,z
x,-y,z
1/2+x,1/2+y,1/2+z
1/2-x,1/2-y,1/2+z
1/2+x,1/2-y,1/2-z
1/2-x,1/2+y,1/2-z
1/2-x,1/2-y,1/2-z
1/2+x,1/2+y,1/2-z
1/2-x,1/2+y,1/2+z
1/2+x,1/2-y,1/2+z
loop_
_atom_site_type_symbol
_atom_site_label
_atom_site_fract_x
_atom_site_fract_y
_atom_site_fract_z
Si Si1 0.421465 0.000000 0.000000
Si Si2 0.572259 0.894772 0.500000
Si Si3 0.237720 0.840756 0.166506
Si Si4 0.120212 0.151899 0.339029
Si Si5 0.000000 0.104150 0.160481
Si Si6 0.125862 0.357454 0.296997
O O1 0.418103 0.923269 0.879255
O O2 0.500000 0.870474 0.500000
O O3 0.606960 0.859088 0.635760
O O4 0.576012 0.000000 0.500000
O O5 0.250000 0.750000 0.250000
O O6 0.179853 0.880124 0.250339
O O7 0.303580 0.889070 0.177390
O O8 0.224148 0.827790 0.000000
O O9 0.119117 0.118738 0.500000
O O10 0.059863 0.130591 0.249356
O O11 0.123016 0.257627 0.346854
O O12 0.000000 0.000000 0.150207
O O13 0.000000 0.139989 0.000000
#
# Coordination Sequence:
#
# PCOD9522537 Si02
#       6
#     4   8  16  16   8  16
#     4  12  20  46  61 100 144 175 222 284 328 406
#     4  11  26  42  57  90 130 177 224 275 331 384
#     4  10  20  37  62  97 131 171 223 282 336 397
#     4  11  24  42  69 102 133 178 228 274 345 411
#     4  11  27  51  73  99 134 174 223 288 353 406
#     4  11  23  40  67  95 137 180 224 277 335 400
#
# _framework density 21.639213999999999
#
# number of rings (size 3 to 8) (size 9 to 14) (size 15 to 20)
#    0.000    1.176    3.529    3.176   11.529    0.941 
#    2.118    1.176    0.000    0.000    0.000    0.000 
#    0.000    0.000    0.000    0.000    0.000    0.000 
#
# Total GULP energy -189492.104609 kJ/mol
# GULP energy per Si atom -5573.297194 kJ/mol
# Density = 2.158996 g / cm^3
# Si number density = 21.639214 Si / 1000 Ang^3
#
#
#
# Elastic Constant Matrix: (Units=GPa)
#
#
# Indices 1 2 3 4 5 6 
#
# 1 147.8352 3.3244 77.2861 0.0000 0.0000 0.0000
# 2 3.3244 53.6809 5.8679 0.0000 0.0000 0.0000
# 3 77.2861 5.8679 257.9134 0.0000 0.0000 0.0000
# 4 0.0000 0.0000 0.0000 2.5620 0.0000 0.0000
# 5 0.0000 0.0000 0.0000 0.0000 38.0386 0.0000
# 6 0.0000 0.0000 0.0000 0.0000 0.0000 101.8394
#
#
#
# Elastic Compliance Matrix: (Units=1/GPa)
#
#
# Indices 1 2 3 4 5 6 
#
# 1 0.008024 -0.000235 -0.002399 0.000000 0.000000 0.000000
# 2 -0.000235 0.018682 -0.000355 0.000000 0.000000 0.000000
# 3 -0.002399 -0.000355 0.004604 0.000000 0.000000 0.000000
# 4 0.000000 0.000000 0.000000 0.390326 0.000000 0.000000
# 5 0.000000 0.000000 0.000000 0.000000 0.026289 0.000000
# 6 0.000000 0.000000 0.000000 0.000000 0.000000 0.009819
#
#
# Mechanical properties :
#
#
# Convention : Reuss Voigt Hill
#
# Bulk Modulus (GPa) = 39.47412 70.26514 54.86963
# Shear Modulus (GPa) = 10.58950 53.35140 31.97045
#
# Velocity S-wave (km/s) = 2.21456 4.97076 3.84791
# Velocity P-wave (km/s) = 4.98203 8.09236 6.71963
#
# Compressibility (1/GPa) = 0.02533305
#
# Stress axis : x y z
#
# Youngs Moduli (GPa) = 124.62993 53.52769 217.19117
#
# Poissons Ratio (x) = 0.01256 0.52105
# Poissons Ratio (y) = 0.02925 0.07704
# Poissons Ratio (z) = 0.29899 0.01899
#
# Static dielectric constant tensor:
#      x y z
#    x 1.855930 0.000000 0.000000 
#    y 0.000000 1.780480 0.000000 
#    z 0.000000 0.000000 1.765660 
# 
# From -- ./inp_files/9683.got.cif
#   From: 2010.05.17/outbox.cif.g08.bks.cpg/sg71_5_cif.got.tgz:9683.got - 2010.06.03 16:22:01.
