data_PCOD9522526
_publ_section_title
;
Structure prediction by ZEFSAII (Michael W. Deem and Ramdas Pophale) SiO2 
 PCOD9522526
Probable space group: I M M M
;
_chemical_formula_sum "Si O2"
_cell_formula_units_Z 66
_cell_length_a 11.936568
_cell_length_b 30.787665
_cell_length_c 9.913360
_cell_angle_alpha 90.000000
_cell_angle_beta 90.000000
_cell_angle_gamma 90.000000
_cell_volume 3643.150450
_symmetry_space_group_name_H-M "I M M M"
_symmetry_group_IT_number 71
_symmetry_cell_setting 'orthorhombic'
loop_
_space_group_symop_operation_xyz
x,y,z
-x,-y,z
x,-y,-z
-x,y,-z
-x,-y,-z
x,y,-z
-x,y,z
x,-y,z
1/2+x,1/2+y,1/2+z
1/2-x,1/2-y,1/2+z
1/2+x,1/2-y,1/2-z
1/2-x,1/2+y,1/2-z
1/2-x,1/2-y,1/2-z
1/2+x,1/2+y,1/2-z
1/2-x,1/2+y,1/2+z
1/2+x,1/2-y,1/2+z
loop_
_atom_site_type_symbol
_atom_site_label
_atom_site_fract_x
_atom_site_fract_y
_atom_site_fract_z
Si Si1 0.766620 0.707681 0.339764
Si Si2 0.500000 0.063494 0.259944
Si Si3 0.500000 0.000000 0.000000
Si Si4 0.749998 0.549193 0.844818
Si Si5 0.500000 0.839673 0.840458
Si Si6 0.866736 0.120786 0.158829
O O1 0.758538 0.717637 0.500000
O O2 0.750000 0.750000 0.250000
O O3 0.888849 0.687626 0.312160
O O4 0.679137 0.668928 0.309461
O O5 0.384531 0.051915 0.333556
O O6 0.500000 0.115015 0.236151
O O7 0.500000 0.037668 0.118933
O O8 0.716845 0.500000 0.805284
O O9 0.695697 0.584866 0.747831
O O10 0.716757 0.556488 0.000000
O O11 0.500000 0.849658 0.000000
O O12 0.000000 0.118452 0.178201
O O13 0.841637 0.113094 0.000000
#
# Coordination Sequence:
#
# PCOD9522526 Si02
#       6
#    16   8   2  16   8  16
#     4  10  22  40  62  88 120 155 197 250 307 363
#     4  12  21  37  60  96 129 157 206 249 308 364
#     4  12  24  28  70 104 122 176 206 252 308 382
#     4  11  24  40  60  88 127 164 198 248 307 368
#     4  10  20  37  62  89 121 154 197 254 304 357
#     4  10  23  42  64  88 118 158 206 257 301 356
#
# _framework density 18.116188000000001
#
# number of rings (size 3 to 8) (size 9 to 14) (size 15 to 20)
#    0.000    1.455    4.242    0.364    3.394    3.394 
#    0.000    2.424    0.000    0.000    0.000    0.000 
#    0.000    0.000    0.000    0.000    0.000    0.000 
#
# Total GULP energy -184046.817217 kJ/mol
# GULP energy per Si atom -5577.176279 kJ/mol
# Density = 1.807495 g / cm^3
# Si number density = 18.116188 Si / 1000 Ang^3
#
#
#
# Elastic Constant Matrix: (Units=GPa)
#
#
# Indices 1 2 3 4 5 6 
#
# 1 79.5169 55.7042 40.8504 0.0070 0.0001 0.0002
# 2 55.7042 180.3077 90.1241 -0.0006 0.0002 0.0000
# 3 40.8504 90.1241 80.1168 0.0049 0.0007 0.0005
# 4 0.0070 -0.0006 0.0049 41.0007 0.0000 -0.0010
# 5 0.0001 0.0002 0.0007 0.0000 4.4990 0.0094
# 6 0.0002 0.0000 0.0005 -0.0010 0.0094 -43.4172
#
#
#
# Elastic Compliance Matrix: (Units=1/GPa)
#
#
# Indices 1 2 3 4 5 6 
#
# 1 0.017396 -0.002149 -0.006452 -0.000002 0.000001 0.000000
# 2 -0.002149 0.012936 -0.013455 0.000002 0.000002 0.000000
# 3 -0.006452 -0.013455 0.030908 -0.000003 -0.000004 0.000000
# 4 -0.000002 0.000002 -0.000003 0.024390 0.000000 -0.000001
# 5 0.000001 0.000002 -0.000004 0.000000 0.222271 0.000048
# 6 0.000000 0.000000 0.000000 -0.000001 0.000048 -0.023032
#
#
# Mechanical properties :
#
#
# Convention : Reuss Voigt Hill
#
# Bulk Modulus (GPa) = 58.39214 79.25544 68.82379
# Shear Modulus (GPa) = 14.93913 10.63402 12.78657
#
# Velocity S-wave (km/s) = 2.87475 2.42542 2.65959
# Velocity P-wave (km/s) = 6.58186 7.18936 6.89231
#
# Compressibility (1/GPa) = 0.01712559
#
# Stress axis : x y z
#
# Youngs Moduli (GPa) = 57.48317 77.30608 32.35417
#
# Poissons Ratio (x) = 0.16616 0.20876
# Poissons Ratio (y) = 0.12355 0.43534
# Poissons Ratio (z) = 0.37090 1.04019
#
# Static dielectric constant tensor:
#      x y z
#    x 1.623550 0.000000 0.000000 
#    y 0.000000 1.595040 0.000000 
#    z 0.000000 0.000000 1.603160 
# 
# From -- ./inp_files/3838.got.cif
#   From: 2010.05.17/outbox.cif.g08.bks.cpg/sg71_2_cif.got.tgz:3838.got - 2010.06.03 16:22:01.
