data_PCOD9522608
_publ_section_title
;
Structure prediction by ZEFSAII (Michael W. Deem and Ramdas Pophale) SiO2 
 PCOD9522608
Probable space group: I M M M
;
_chemical_formula_sum "Si O2"
_cell_formula_units_Z 64
_cell_length_a 15.526137
_cell_length_b 25.971798
_cell_length_c 7.511657
_cell_angle_alpha 90.000000
_cell_angle_beta 90.000000
_cell_angle_gamma 90.000000
_cell_volume 3029.013293
_symmetry_space_group_name_H-M "I M M M"
_symmetry_group_IT_number 71
_symmetry_cell_setting 'orthorhombic'
loop_
_space_group_symop_operation_xyz
x,y,z
-x,-y,z
x,-y,-z
-x,y,-z
-x,-y,-z
x,y,-z
-x,y,z
x,-y,z
1/2+x,1/2+y,1/2+z
1/2-x,1/2-y,1/2+z
1/2+x,1/2-y,1/2-z
1/2-x,1/2+y,1/2-z
1/2-x,1/2-y,1/2-z
1/2+x,1/2+y,1/2-z
1/2-x,1/2+y,1/2+z
1/2+x,1/2-y,1/2+z
loop_
_atom_site_type_symbol
_atom_site_label
_atom_site_fract_x
_atom_site_fract_y
_atom_site_fract_z
Si Si1 0.356928 0.641054 0.717117
Si Si2 0.500000 0.559542 0.282866
Si Si3 0.344176 0.865000 0.704327
Si Si4 0.601899 0.056801 0.000000
Si Si5 0.852453 0.252996 0.212359
O O1 0.353038 0.641152 0.500000
O O2 0.417566 0.593890 0.771194
O O3 0.259895 0.636463 0.786557
O O4 0.389617 0.698162 0.773298
O O5 0.500000 0.500000 0.223305
O O6 0.500000 0.558474 0.500000
O O7 0.371179 0.871141 0.500000
O O8 0.378614 0.809670 0.776429
O O9 0.372038 0.911089 0.827987
O O10 0.500000 0.052532 0.000000
O O11 0.641685 0.000000 0.000000
O O12 0.750000 0.250000 0.250000
O O13 0.864751 0.254840 0.000000
#
# Coordination Sequence:
#
# PCOD9522608 Si02
#       5
#    16   8  16   8  16
#     4   9  16  32  55  84 124 164 203 242 292 343
#     4   9  18  30  49  81 121 166 209 246 279 327
#     4  10  20  38  64  91 117 150 198 246 300 363
#     4  11  26  46  64  85 117 151 191 250 312 367
#     4   8  15  27  51  82 115 152 187 240 295 342
#
# _framework density 21.128990999999999
#
# number of rings (size 3 to 8) (size 9 to 14) (size 15 to 20)
#    0.000    2.750    1.250    0.000    1.750    2.000 
#    2.250    1.875    0.000    0.750    0.000    0.000 
#    0.000    0.000    0.000    0.000    0.000    0.000 
#
# Total GULP energy -178476.753360 kJ/mol
# GULP energy per Si atom -5577.398543 kJ/mol
# Density = 2.108090 g / cm^3
# Si number density = 21.128991 Si / 1000 Ang^3
#
#
#
# Elastic Constant Matrix: (Units=GPa)
#
#
# Indices 1 2 3 4 5 6 
#
# 1 43.6621 43.3926 3.7387 0.0002 -0.0001 0.0000
# 2 43.3926 247.6847 55.4358 0.0000 -0.0001 0.0001
# 3 3.7387 55.4358 86.8711 -0.0034 0.0011 0.0003
# 4 0.0002 0.0000 -0.0034 22.2873 0.0004 0.0001
# 5 -0.0001 -0.0001 0.0011 0.0004 -6.0510 -0.0005
# 6 0.0000 0.0001 0.0003 0.0001 -0.0005 37.2140
#
#
#
# Elastic Compliance Matrix: (Units=1/GPa)
#
#
# Indices 1 2 3 4 5 6 
#
# 1 0.028105 -0.005428 0.002254 0.000000 0.000000 0.000000
# 2 -0.005428 0.005759 -0.003441 0.000000 -0.000001 0.000000
# 3 0.002254 -0.003441 0.013610 0.000002 0.000003 0.000000
# 4 0.000000 0.000000 0.000002 0.044869 0.000003 0.000000
# 5 0.000000 -0.000001 0.000003 0.000003 -0.165262 -0.000002
# 6 0.000000 0.000000 0.000000 0.000000 -0.000002 0.026872
#
#
# Mechanical properties :
#
#
# Convention : Reuss Voigt Hill
#
# Bulk Modulus (GPa) = 29.20250 64.81690 47.00970
# Shear Modulus (GPa) = -233.60514 29.06678 -102.26918
#
# Velocity S-wave (km/s) = -10.52623 3.71304 -6.96472
# Velocity P-wave (km/s) = 11.57083 7.00897 6.50994
#
# Compressibility (1/GPa) = 0.03424365
#
# Stress axis : x y z
#
# Youngs Moduli (GPa) = 35.58093 173.65369 73.47428
#
# Poissons Ratio (x) = 0.94266 -0.16565
# Poissons Ratio (y) = 0.19315 0.25284
# Poissons Ratio (z) = -0.08022 0.59757
#
# Static dielectric constant tensor:
#      x y z
#    x 1.749050 0.000000 0.000000 
#    y 0.000000 1.799650 0.000000 
#    z 0.000000 0.000000 1.767220 
# 
# From -- ./inp_files/5850.got.cif
#   From: 2010.05.17/outbox.cif.g08.bks.cpg/sg71_3_cif.got.tgz:5850.got - 2010.06.03 16:22:01.
