data_PCOD9522847
_publ_section_title
;
Structure prediction by ZEFSAII (Michael W. Deem and Ramdas Pophale) SiO2 
 PCOD9522847
Probable space group: I M M M
;
_chemical_formula_sum "Si O2"
_cell_formula_units_Z 88
_cell_length_a 13.291885
_cell_length_b 16.877252
_cell_length_c 21.280496
_cell_angle_alpha 90.000000
_cell_angle_beta 90.000000
_cell_angle_gamma 90.000000
_cell_volume 4773.864153
_symmetry_space_group_name_H-M "I M M M"
_symmetry_group_IT_number 71
_symmetry_cell_setting 'orthorhombic'
loop_
_space_group_symop_operation_xyz
x,y,z
-x,-y,z
x,-y,-z
-x,y,-z
-x,-y,-z
x,y,-z
-x,y,z
x,-y,z
1/2+x,1/2+y,1/2+z
1/2-x,1/2-y,1/2+z
1/2+x,1/2-y,1/2-z
1/2-x,1/2+y,1/2-z
1/2-x,1/2-y,1/2-z
1/2+x,1/2+y,1/2-z
1/2-x,1/2+y,1/2+z
1/2+x,1/2-y,1/2+z
loop_
_atom_site_type_symbol
_atom_site_label
_atom_site_fract_x
_atom_site_fract_y
_atom_site_fract_z
Si Si1 0.696603 0.592324 0.924879
Si Si2 0.750096 0.165228 0.885321
Si Si3 0.384955 0.707681 0.175511
Si Si4 0.881320 0.911504 0.786562
Si Si5 0.387360 0.188748 0.425073
Si Si6 0.619739 0.095707 0.000000
O O1 0.679130 0.500000 0.912359
O O2 0.626339 0.649999 0.884905
O O3 0.809791 0.619529 0.906019
O O4 0.685182 0.605458 0.000000
O O5 0.682617 0.216512 0.837578
O O6 0.812536 0.100366 0.847255
O O7 0.831403 0.228762 0.911002
O O8 0.678501 0.131082 0.939674
O O9 0.500000 0.731466 0.183437
O O10 0.355003 0.654749 0.235211
O O11 0.000000 0.902400 0.801928
O O12 0.868048 0.000000 0.760274
O O13 0.395840 0.182230 0.500000
O O14 0.500000 0.184937 0.397907
O O15 0.500000 0.116337 0.000000
O O16 0.626925 0.000000 0.000000
#
# Coordination Sequence:
#
# PCOD9522847 Si02
#       6
#    16  16  16  16  16   8
#     4   9  18  31  48  75 109 146 188 232 280 331
#     4  11  20  37  57  82 109 148 185 229 276 336
#     4  10  21  35  55  80 110 147 189 234 278 329
#     4  10  21  37  57  82 111 145 185 231 283 334
#     4   9  17  30  49  74 104 139 176 221 273 322
#     4  11  24  40  59  85 116 147 183 229 281 335
#
# _framework density 18.433703999999999
#
# number of rings (size 3 to 8) (size 9 to 14) (size 15 to 20)
#    0.000    2.091    0.909    2.727    1.273    1.818 
#    0.000    2.727    0.000    3.273    0.000    0.000 
#    0.000    0.000    0.000    0.000    0.000    0.000 
#
# Total GULP energy -245379.659468 kJ/mol
# GULP energy per Si atom -5576.810442 kJ/mol
# Density = 1.839175 g / cm^3
# Si number density = 18.433704 Si / 1000 Ang^3
#
#
#
# Elastic Constant Matrix: (Units=GPa)
#
#
# Indices 1 2 3 4 5 6 
#
# 1 61.6744 16.2648 37.6058 0.0000 0.0000 0.0000
# 2 16.2648 60.6473 20.1368 0.0000 0.0000 0.0000
# 3 37.6058 20.1368 59.2020 0.0000 0.0000 0.0000
# 4 0.0000 0.0000 0.0000 27.0101 0.0000 0.0000
# 5 0.0000 0.0000 0.0000 0.0000 26.0886 0.0000
# 6 0.0000 0.0000 0.0000 0.0000 0.0000 11.7508
#
#
#
# Elastic Compliance Matrix: (Units=1/GPa)
#
#
# Indices 1 2 3 4 5 6 
#
# 1 0.026622 -0.001719 -0.016326 0.000000 0.000000 0.000000
# 2 -0.001719 0.018699 -0.005268 0.000000 0.000000 0.000000
# 3 -0.016326 -0.005268 0.029054 0.000000 0.000000 0.000000
# 4 0.000000 0.000000 0.000000 0.037023 0.000000 0.000000
# 5 0.000000 0.000000 0.000000 0.000000 0.038331 0.000000
# 6 0.000000 0.000000 0.000000 0.000000 0.000000 0.085101
#
#
# Mechanical properties :
#
#
# Convention : Reuss Voigt Hill
#
# Bulk Modulus (GPa) = 36.03819 36.61539 36.32679
# Shear Modulus (GPa) = 17.19949 20.13766 18.66857
#
# Velocity S-wave (km/s) = 3.05789 3.30879 3.18581
# Velocity P-wave (km/s) = 5.66217 5.87400 5.76906
#
# Compressibility (1/GPa) = 0.02774834
#
# Stress axis : x y z
#
# Youngs Moduli (GPa) = 37.56243 53.47865 34.41890
#
# Poissons Ratio (x) = 0.09193 0.56193
# Poissons Ratio (y) = 0.06457 0.18133
# Poissons Ratio (z) = 0.61325 0.28174
#
# Static dielectric constant tensor:
#      x y z
#    x 1.656770 0.000000 0.000000 
#    y 0.000000 1.615310 0.000000 
#    z 0.000000 0.000000 1.632760 
# 
# From -- ./inp_files/23960.got.cif
#   From: 2010.05.17/outbox.cif.g08.bks.cpg/sg71_12_cif.got.tgz:23960.got - 2010.06.03 16:22:01.
