data_PCOD9522290
_publ_section_title
;
Structure prediction by ZEFSAII (Michael W. Deem and Ramdas Pophale) SiO2 
 PCOD9522290
Probable space group: I M M M
;
_chemical_formula_sum "Si O2"
_cell_formula_units_Z 104
_cell_length_a 22.357911
_cell_length_b 8.639973
_cell_length_c 27.991923
_cell_angle_alpha 90.000000
_cell_angle_beta 90.000000
_cell_angle_gamma 90.000000
_cell_volume 5407.248678
_symmetry_space_group_name_H-M "I M M M"
_symmetry_group_IT_number 71
_symmetry_cell_setting 'orthorhombic'
loop_
_space_group_symop_operation_xyz
x,y,z
-x,-y,z
x,-y,-z
-x,y,-z
-x,-y,-z
x,y,-z
-x,y,z
x,-y,z
1/2+x,1/2+y,1/2+z
1/2-x,1/2-y,1/2+z
1/2+x,1/2-y,1/2-z
1/2-x,1/2+y,1/2-z
1/2-x,1/2-y,1/2-z
1/2+x,1/2+y,1/2-z
1/2-x,1/2+y,1/2+z
1/2+x,1/2-y,1/2+z
loop_
_atom_site_type_symbol
_atom_site_label
_atom_site_fract_x
_atom_site_fract_y
_atom_site_fract_z
Si Si1 0.500000 0.172744 0.055746
Si Si2 0.931500 0.311452 0.813005
Si Si3 0.822137 0.320662 0.878498
Si Si4 0.775215 0.314936 0.444424
Si Si5 0.892755 0.818661 0.393094
Si Si6 0.903854 0.319715 0.704087
Si Si7 0.721815 0.320701 0.796795
O O1 0.558831 0.266142 0.068920
O O2 0.500000 0.000000 0.078462
O O3 0.500000 0.152576 0.000000
O O4 0.926696 0.500000 0.812123
O O5 0.882133 0.258773 0.851879
O O6 0.918718 0.262466 0.757768
O O7 0.000000 0.270704 0.824923
O O8 0.833180 0.500000 0.892049
O O9 0.788714 0.235827 0.921954
O O10 0.771929 0.319182 0.837122
O O11 0.781196 0.263487 0.500000
O O12 0.778924 0.500000 0.443531
O O13 0.829513 0.251858 0.411388
O O14 0.924717 0.766492 0.343326
O O15 0.882537 0.000000 0.389871
O O16 0.920123 0.500000 0.702241
O O17 0.833673 0.291362 0.695256
O O18 0.702065 0.500000 0.790861
O O19 0.750000 0.250000 0.750000
#
# Coordination Sequence:
#
# PCOD9522290 Si02
#       7
#     8  16  16  16  16  16  16
#     4  11  25  45  65  83 109 155 211 255 296 351
#     4   9  19  36  58  85 117 156 199 242 289 349
#     4  10  20  36  58  86 117 150 195 245 300 359
#     4  11  24  41  62  88 116 150 196 247 303 366
#     4  12  25  40  59  88 123 157 198 248 302 353
#     4  11  21  35  56  83 117 157 199 237 284 345
#     4  11  20  32  52  82 116 150 188 233 286 342
#
# _framework density 19.233442
#
# number of rings (size 3 to 8) (size 9 to 14) (size 15 to 20)
#    0.000    1.308    3.077    3.462    1.077    4.308 
#    0.000    0.000    0.000    2.769    0.000    3.231 
#    0.000    0.000    0.000    0.000    0.000    0.000 
#
# Total GULP energy -289853.265470 kJ/mol
# GULP energy per Si atom -5574.101259 kJ/mol
# Density = 1.918967 g / cm^3
# Si number density = 19.233442 Si / 1000 Ang^3
#
#
#
# Elastic Constant Matrix: (Units=GPa)
#
#
# Indices 1 2 3 4 5 6 
#
# 1 119.8677 15.5412 45.8041 0.0000 0.0000 0.0000
# 2 15.5412 59.4252 30.1195 0.0000 0.0000 0.0000
# 3 45.8041 30.1195 94.0078 0.0000 0.0000 0.0000
# 4 0.0000 0.0000 0.0000 14.3470 0.0000 0.0000
# 5 0.0000 0.0000 0.0000 0.0000 72.7753 0.0000
# 6 0.0000 0.0000 0.0000 0.0000 0.0000 18.0138
#
#
#
# Elastic Compliance Matrix: (Units=1/GPa)
#
#
# Indices 1 2 3 4 5 6 
#
# 1 0.010253 -0.000178 -0.004938 0.000000 0.000000 0.000000
# 2 -0.000178 0.020093 -0.006351 0.000000 0.000000 0.000000
# 3 -0.004938 -0.006351 0.015078 0.000000 0.000000 0.000000
# 4 0.000000 0.000000 0.000000 0.069701 0.000000 0.000000
# 5 0.000000 0.000000 0.000000 0.000000 0.013741 0.000000
# 6 0.000000 0.000000 0.000000 0.000000 0.000000 0.055513
#
#
# Mechanical properties :
#
#
# Convention : Reuss Voigt Hill
#
# Bulk Modulus (GPa) = 44.46562 50.69225 47.57893
# Shear Modulus (GPa) = 23.27626 33.14961 28.21294
#
# Velocity S-wave (km/s) = 3.48256 4.15606 3.83413
# Velocity P-wave (km/s) = 6.27217 7.03164 6.66273
#
# Compressibility (1/GPa) = 0.02248929
#
# Stress axis : x y z
#
# Youngs Moduli (GPa) = 97.53518 49.76737 66.32024
#
# Poissons Ratio (x) = 0.00888 0.32751
# Poissons Ratio (y) = 0.01740 0.42119
# Poissons Ratio (z) = 0.48166 0.31607
#
# Static dielectric constant tensor:
#      x y z
#    x 1.620570 0.000000 0.000000 
#    y 0.000000 1.684240 0.000000 
#    z 0.000000 0.000000 1.849410 
# 
# From -- ./inp_files/66459.got.cif
#   From: 2010.05.17/outbox.cif.g08.bks.cpg/sg71_34_cif.got.tgz:66459.got - 2010.06.03 16:22:01.
