data_PCOD9522483
_publ_section_title
;
Structure prediction by ZEFSAII (Michael W. Deem and Ramdas Pophale) SiO2 
 PCOD9522483
Probable space group: I M M M
;
_chemical_formula_sum "Si O2"
_cell_formula_units_Z 104
_cell_length_a 23.757779
_cell_length_b 24.933785
_cell_length_c 8.098086
_cell_angle_alpha 90.000000
_cell_angle_beta 90.000000
_cell_angle_gamma 90.000000
_cell_volume 4797.074166
_symmetry_space_group_name_H-M "I M M M"
_symmetry_group_IT_number 71
_symmetry_cell_setting 'orthorhombic'
loop_
_space_group_symop_operation_xyz
x,y,z
-x,-y,z
x,-y,-z
-x,y,-z
-x,-y,-z
x,y,-z
-x,y,z
x,-y,z
1/2+x,1/2+y,1/2+z
1/2-x,1/2-y,1/2+z
1/2+x,1/2-y,1/2-z
1/2-x,1/2+y,1/2-z
1/2-x,1/2-y,1/2-z
1/2+x,1/2+y,1/2-z
1/2-x,1/2+y,1/2+z
1/2+x,1/2-y,1/2+z
loop_
_atom_site_type_symbol
_atom_site_label
_atom_site_fract_x
_atom_site_fract_y
_atom_site_fract_z
Si Si1 0.434616 0.000000 0.196792
Si Si2 0.157430 0.586512 0.200039
Si Si3 0.000000 0.736273 0.202529
Si Si4 0.594233 0.441813 0.199432
Si Si5 0.500000 0.359068 0.696037
Si Si6 0.200760 0.789491 0.696295
Si Si7 0.218051 0.911258 0.702029
Si Si8 0.618715 0.202090 0.698075
O O1 0.395609 0.050572 0.248409
O O2 0.500000 0.000000 0.260331
O O3 0.438227 0.000000 0.000000
O O4 0.220193 0.568287 0.254716
O O5 0.149262 0.648182 0.257316
O O6 0.158114 0.585809 0.000000
O O7 0.055025 0.704750 0.256222
O O8 0.000000 0.798041 0.260732
O O9 0.000000 0.737326 0.000000
O O10 0.571686 0.500000 0.252928
O O11 0.554902 0.393077 0.253410
O O12 0.659345 0.437610 0.254312
O O13 0.594311 0.440766 0.000000
O O14 0.500000 0.355191 0.500000
O O15 0.199755 0.792873 0.500000
O O16 0.250000 0.750000 0.750000
O O17 0.211536 0.849352 0.756493
O O18 0.145660 0.758805 0.755126
O O19 0.218481 0.913532 0.500000
O O20 0.620572 0.199088 0.500000
#
# Coordination Sequence:
#
# PCOD9522483 Si02
#       8
#     8  16   8  16   8  16  16  16
#     4  11  27  47  63  85 123 160 195 248 307 359
#     4  10  21  39  66  92 116 150 198 248 293 351
#     4   9  20  36  58  86 119 154 187 232 289 344
#     4  10  21  37  60  83 110 150 197 243 291 338
#     4  11  22  38  57  82 119 157 192 234 287 340
#     4  11  20  34  55  83 120 157 192 233 288 349
#     4   9  19  36  58  89 120 150 193 246 292 340
#     4  10  20  37  60  88 119 152 195 242 288 349
#
# _framework density 21.679881000000002
#
# number of rings (size 3 to 8) (size 9 to 14) (size 15 to 20)
#    0.000    1.923    1.538    2.077    2.154    2.462 
#    0.000    2.692    0.000    0.000    0.000    0.000 
#    0.000    0.000    0.000    0.000    0.000    0.000 
#
# Total GULP energy -290253.673010 kJ/mol
# GULP energy per Si atom -5581.801404 kJ/mol
# Density = 2.163054 g / cm^3
# Si number density = 21.679881 Si / 1000 Ang^3
#
#
#
# Elastic Constant Matrix: (Units=GPa)
#
#
# Indices 1 2 3 4 5 6 
#
# 1 151.7395 25.6751 12.8113 0.0000 0.0000 0.0000
# 2 25.6751 85.6987 7.1443 0.0000 0.0000 0.0000
# 3 12.8113 7.1443 12.4394 0.0000 0.0000 0.0000
# 4 0.0000 0.0000 0.0000 22.2530 0.0000 0.0000
# 5 0.0000 0.0000 0.0000 0.0000 22.8383 0.0000
# 6 0.0000 0.0000 0.0000 0.0000 0.0000 34.5499
#
#
#
# Elastic Compliance Matrix: (Units=1/GPa)
#
#
# Indices 1 2 3 4 5 6 
#
# 1 0.007439 -0.001670 -0.006702 0.000000 0.000000 0.000000
# 2 -0.001670 0.012630 -0.005534 0.000000 0.000000 0.000000
# 3 -0.006702 -0.005534 0.090470 0.000000 0.000000 0.000000
# 4 0.000000 0.000000 0.000000 0.044938 0.000000 0.000000
# 5 0.000000 0.000000 0.000000 0.000000 0.043786 0.000000
# 6 0.000000 0.000000 0.000000 0.000000 0.000000 0.028944
#
#
# Mechanical properties :
#
#
# Convention : Reuss Voigt Hill
#
# Bulk Modulus (GPa) = 12.08792 37.90433 24.99613
# Shear Modulus (GPa) = 17.63080 29.54470 23.58775
#
# Velocity S-wave (km/s) = 2.85482 3.69558 3.30207
# Velocity P-wave (km/s) = 4.05640 5.97757 5.10812
#
# Compressibility (1/GPa) = 0.08272720
#
# Stress axis : x y z
#
# Youngs Moduli (GPa) = 134.43325 79.17373 11.05336
#
# Poissons Ratio (x) = 0.13221 0.07408
# Poissons Ratio (y) = 0.22449 0.06117
# Poissons Ratio (z) = 0.90096 0.43817
#
# Static dielectric constant tensor:
#      x y z
#    x 1.845900 0.000000 0.000000 
#    y 0.000000 1.840940 0.000000 
#    z 0.000000 0.000000 1.775580 
# 
# From -- ./inp_files/11215.got.cif
#   From: 2010.05.17/outbox.cif.g08.bks.cpg/sg71_6_cif.got.tgz:11215.got - 2010.06.03 16:22:01.
