data_PCOD9522795
_publ_section_title
;
Structure prediction by ZEFSAII (Michael W. Deem and Ramdas Pophale) SiO2 
 PCOD9522795
Probable space group: I M M M
;
_chemical_formula_sum "Si O2"
_cell_formula_units_Z 72
_cell_length_a 17.329030
_cell_length_b 26.010711
_cell_length_c 9.002433
_cell_angle_alpha 90.000000
_cell_angle_beta 90.000000
_cell_angle_gamma 90.000000
_cell_volume 4057.760173
_symmetry_space_group_name_H-M "I M M M"
_symmetry_group_IT_number 71
_symmetry_cell_setting 'orthorhombic'
loop_
_space_group_symop_operation_xyz
x,y,z
-x,-y,z
x,-y,-z
-x,y,-z
-x,-y,-z
x,y,-z
-x,y,z
x,-y,z
1/2+x,1/2+y,1/2+z
1/2-x,1/2-y,1/2+z
1/2+x,1/2-y,1/2-z
1/2-x,1/2+y,1/2-z
1/2-x,1/2-y,1/2-z
1/2+x,1/2+y,1/2-z
1/2-x,1/2+y,1/2+z
1/2+x,1/2-y,1/2+z
loop_
_atom_site_type_symbol
_atom_site_label
_atom_site_fract_x
_atom_site_fract_y
_atom_site_fract_z
Si Si1 0.585880 0.343205 0.172733
Si Si2 0.626248 0.441257 0.329083
Si Si3 0.737804 0.305041 0.676829
Si Si4 0.590968 0.000000 0.321776
Si Si5 0.694569 0.912514 0.824784
O O1 0.500000 0.322827 0.199833
O O2 0.587912 0.403340 0.212951
O O3 0.651413 0.320518 0.277186
O O4 0.605391 0.335011 0.000000
O O5 0.608336 0.425727 0.500000
O O6 0.603630 0.500000 0.310043
O O7 0.719066 0.436084 0.312293
O O8 0.745111 0.301622 0.500000
O O9 0.750000 0.250000 0.750000
O O10 0.793267 0.352902 0.725041
O O11 0.634985 0.949386 0.259363
O O12 0.500000 0.000000 0.280637
O O13 0.596400 0.000000 0.500000
O O14 0.674745 0.912453 0.000000
#
# Coordination Sequence:
#
# PCOD9522795 Si02
#       5
#    16  16  16   8  16
#     4  10  21  35  51  76 110 143 177 219 265 315
#     4   9  17  31  51  75 104 139 179 218 259 315
#     4  10  21  38  61  85 108 140 185 232 280 337
#     4  11  23  35  51  81 116 147 184 233 285 334
#     4   9  18  35  56  78 106 141 182 223 269 330
#
# _framework density 17.743779
#
# number of rings (size 3 to 8) (size 9 to 14) (size 15 to 20)
#    0.000    2.333    1.111    3.000    0.000    8.000 
#    0.000    3.333    0.000    1.333    0.000    0.000 
#    0.000    0.000    0.000    0.000    0.000    0.000 
#
# Total GULP energy -200671.298958 kJ/mol
# GULP energy per Si atom -5574.202749 kJ/mol
# Density = 1.770339 g / cm^3
# Si number density = 17.743779 Si / 1000 Ang^3
#
#
#
# Elastic Constant Matrix: (Units=GPa)
#
#
# Indices 1 2 3 4 5 6 
#
# 1 77.5487 41.9117 34.9436 0.0000 0.0000 0.0000
# 2 41.9117 129.6073 43.0206 0.0000 0.0000 0.0000
# 3 34.9436 43.0206 47.6263 0.0000 0.0000 0.0000
# 4 0.0000 0.0000 0.0000 35.4853 0.0000 0.0000
# 5 0.0000 0.0000 0.0000 0.0000 12.7415 0.0000
# 6 0.0000 0.0000 0.0000 0.0000 0.0000 7.6301
#
#
#
# Elastic Compliance Matrix: (Units=1/GPa)
#
#
# Indices 1 2 3 4 5 6 
#
# 1 0.019712 -0.002248 -0.012432 0.000000 0.000000 0.000000
# 2 -0.002248 0.011276 -0.008536 0.000000 0.000000 0.000000
# 3 -0.012432 -0.008536 0.037829 0.000000 0.000000 0.000000
# 4 0.000000 0.000000 0.000000 0.028181 0.000000 0.000000
# 5 0.000000 0.000000 0.000000 0.000000 0.078483 0.000000
# 6 0.000000 0.000000 0.000000 0.000000 0.000000 0.131060
#
#
# Mechanical properties :
#
#
# Convention : Reuss Voigt Hill
#
# Bulk Modulus (GPa) = 44.67409 54.94823 49.81116
# Shear Modulus (GPa) = 13.87211 20.16514 17.01863
#
# Velocity S-wave (km/s) = 2.79910 3.37480 3.10035
# Velocity P-wave (km/s) = 5.97316 6.79857 6.39919
#
# Compressibility (1/GPa) = 0.02238434
#
# Stress axis : x y z
#
# Youngs Moduli (GPa) = 50.73056 88.68454 26.43448
#
# Poissons Ratio (x) = 0.19933 0.32865
# Poissons Ratio (y) = 0.11402 0.22565
# Poissons Ratio (z) = 0.63071 0.75704
#
# Static dielectric constant tensor:
#      x y z
#    x 1.613440 0.000000 0.000000 
#    y 0.000000 1.644370 0.000000 
#    z 0.000000 0.000000 1.593450 
# 
# From -- ./inp_files/6102.got.cif
#   From: 2010.05.17/outbox.cif.g08.bks.cpg/sg71_4_cif.got.tgz:6102.got - 2010.06.03 16:22:01.
