data_PCOD9522782
_publ_section_title
;
Structure prediction by ZEFSAII (Michael W. Deem and Ramdas Pophale) SiO2 
 PCOD9522782
Probable space group: I M M M
;
_chemical_formula_sum "Si O2"
_cell_formula_units_Z 96
_cell_length_a 7.799942
_cell_length_b 21.060675
_cell_length_c 28.901956
_cell_angle_alpha 90.000000
_cell_angle_beta 90.000000
_cell_angle_gamma 90.000000
_cell_volume 4747.783373
_symmetry_space_group_name_H-M "I M M M"
_symmetry_group_IT_number 71
_symmetry_cell_setting 'orthorhombic'
loop_
_space_group_symop_operation_xyz
x,y,z
-x,-y,z
x,-y,-z
-x,y,-z
-x,-y,-z
x,y,-z
-x,y,z
x,-y,z
1/2+x,1/2+y,1/2+z
1/2-x,1/2-y,1/2+z
1/2+x,1/2-y,1/2-z
1/2-x,1/2+y,1/2-z
1/2-x,1/2-y,1/2-z
1/2+x,1/2+y,1/2-z
1/2-x,1/2+y,1/2+z
1/2+x,1/2-y,1/2+z
loop_
_atom_site_type_symbol
_atom_site_label
_atom_site_fract_x
_atom_site_fract_y
_atom_site_fract_z
Si Si1 0.290726 0.572012 0.886935
Si Si2 0.206960 0.072211 0.052586
Si Si3 0.210222 0.191286 0.553079
Si Si4 0.297194 0.810310 0.781102
Si Si5 0.704996 0.190831 0.885285
Si Si6 0.793844 0.928873 0.281494
O O1 0.500000 0.572391 0.887143
O O2 0.237491 0.500000 0.898489
O O3 0.234522 0.626379 0.921950
O O4 0.236210 0.585986 0.834037
O O5 0.263748 0.124442 0.089067
O O6 0.000000 0.071851 0.052209
O O7 0.263586 0.000000 0.063032
O O8 0.264117 0.087980 0.000000
O O9 0.265910 0.195204 0.500000
O O10 0.269920 0.251452 0.583005
O O11 0.000000 0.191589 0.552930
O O12 0.500000 0.808973 0.785918
O O13 0.250000 0.750000 0.750000
O O14 0.223767 0.807759 0.833124
O O15 0.252334 0.874705 0.754402
O O16 0.500000 0.199617 0.882501
O O17 0.000000 0.931201 0.283248
O O18 0.732436 0.000000 0.269423
#
# Coordination Sequence:
#
# PCOD9522782 Si02
#       6
#    16  16  16  16  16  16
#     4   8  14  26  45  69  98 131 163 195 237 292
#     4   9  19  36  56  78 105 136 170 210 256 308
#     4   9  16  26  43  68  97 127 160 200 242 286
#     4  11  23  37  54  76 104 138 177 223 270 317
#     4  10  21  35  51  73 102 136 172 212 260 312
#     4   9  18  34  55  76 102 138 173 207 256 315
#
# _framework density 20.219961999999999
#
# number of rings (size 3 to 8) (size 9 to 14) (size 15 to 20)
#    0.000    2.667    0.000    3.500    0.000    6.667 
#    0.000    5.833    0.000    0.000    0.000    0.000 
#    0.000    0.000    0.000   12.167    0.000   11.667 
#
# Total GULP energy -267906.406817 kJ/mol
# GULP energy per Si atom -5581.383475 kJ/mol
# Density = 2.017394 g / cm^3
# Si number density = 20.219962 Si / 1000 Ang^3
#
#
#
# Elastic Constant Matrix: (Units=GPa)
#
#
# Indices 1 2 3 4 5 6 
#
# 1 23.3070 3.9933 9.4469 0.0000 0.0000 0.0000
# 2 3.9933 174.4502 149.9779 0.0000 0.0000 0.0000
# 3 9.4469 149.9779 208.5285 0.0000 0.0000 0.0000
# 4 0.0000 0.0000 0.0000 40.8889 0.0000 0.0000
# 5 0.0000 0.0000 0.0000 0.0000 17.8633 0.0000
# 6 0.0000 0.0000 0.0000 0.0000 0.0000 15.6651
#
#
#
# Elastic Compliance Matrix: (Units=1/GPa)
#
#
# Indices 1 2 3 4 5 6 
#
# 1 0.043934 0.001848 -0.003320 0.000000 0.000000 0.000000
# 2 0.001848 0.015097 -0.010942 0.000000 0.000000 0.000000
# 3 -0.003320 -0.010942 0.012815 0.000000 0.000000 0.000000
# 4 0.000000 0.000000 0.000000 0.024457 0.000000 0.000000
# 5 0.000000 0.000000 0.000000 0.000000 0.055981 0.000000
# 6 0.000000 0.000000 0.000000 0.000000 0.000000 0.063836
#
#
# Mechanical properties :
#
#
# Convention : Reuss Voigt Hill
#
# Bulk Modulus (GPa) = 21.26729 81.45798 51.36264
# Shear Modulus (GPa) = 19.48415 31.07465 25.27940
#
# Velocity S-wave (km/s) = 3.10757 3.92450 3.53968
# Velocity P-wave (km/s) = 4.83909 7.80442 6.49329
#
# Compressibility (1/GPa) = 0.04702056
#
# Stress axis : x y z
#
# Youngs Moduli (GPa) = 22.76116 66.24012 78.03201
#
# Poissons Ratio (x) = -0.12243 0.25904
# Poissons Ratio (y) = -0.04207 0.85379
# Poissons Ratio (z) = 0.07556 0.72477
#
# Static dielectric constant tensor:
#      x y z
#    x 1.768700 0.000000 0.000000 
#    y 0.000000 1.679700 0.000000 
#    z 0.000000 0.000000 1.709230 
# 
# From -- ./inp_files/10906.got.cif
#   From: 2010.05.17/outbox.cif.g08.bks.cpg/sg71_6_cif.got.tgz:10906.got - 2010.06.03 16:22:01.
