data_PCOD9522090
_publ_section_title
;
Structure prediction by ZEFSAII (Michael W. Deem and Ramdas Pophale) SiO2 
 PCOD9522090
Probable space group: I M M M
;
_chemical_formula_sum "Si O2"
_cell_formula_units_Z 100
_cell_length_a 7.574787
_cell_length_b 21.634743
_cell_length_c 30.482996
_cell_angle_alpha 90.000000
_cell_angle_beta 90.000000
_cell_angle_gamma 90.000000
_cell_volume 4995.509795
_symmetry_space_group_name_H-M "I M M M"
_symmetry_group_IT_number 71
_symmetry_cell_setting 'orthorhombic'
loop_
_space_group_symop_operation_xyz
x,y,z
-x,-y,z
x,-y,-z
-x,y,-z
-x,-y,-z
x,y,-z
-x,y,z
x,-y,z
1/2+x,1/2+y,1/2+z
1/2-x,1/2-y,1/2+z
1/2+x,1/2-y,1/2-z
1/2-x,1/2+y,1/2-z
1/2-x,1/2-y,1/2-z
1/2+x,1/2+y,1/2-z
1/2-x,1/2+y,1/2+z
1/2+x,1/2-y,1/2+z
loop_
_atom_site_type_symbol
_atom_site_label
_atom_site_fract_x
_atom_site_fract_y
_atom_site_fract_z
Si Si1 0.290926 0.568406 0.367040
Si Si2 0.500000 0.000000 0.394772
Si Si3 0.797258 0.322704 0.302367
Si Si4 0.287848 0.721179 0.950156
Si Si5 0.287173 0.315136 0.202357
Si Si6 0.709000 0.638939 0.549443
Si Si7 0.214185 0.110167 0.615509
O O1 0.500000 0.562418 0.373686
O O2 0.221046 0.500000 0.356159
O O3 0.273488 0.619833 0.329486
O O4 0.216052 0.595375 0.412660
O O5 0.657025 0.053718 0.393990
O O6 0.782978 0.332898 0.250158
O O7 0.719758 0.253880 0.309672
O O8 0.000000 0.318353 0.315864
O O9 0.500000 0.723104 0.951158
O O10 0.228762 0.789545 0.936541
O O11 0.241307 0.666211 0.917652
O O12 0.223978 0.710355 0.000000
O O13 0.500000 0.310846 0.206605
O O14 0.250411 0.363741 0.164343
O O15 0.782928 0.632552 0.500000
O O16 0.500000 0.626829 0.546270
O O17 0.000000 0.097490 0.611925
#
# Coordination Sequence:
#
# PCOD9522090 Si02
#       7
#    16   4  16  16  16  16  16
#     4  10  21  36  51  74 114 158 192 225 282 347
#     4  12  26  40  61  88 116 160 206 230 289 362
#     4  10  20  35  58  86 110 138 187 243 289 346
#     4   9  18  35  60  87 115 147 185 236 298 349
#     4   9  19  37  60  84 111 143 183 238 298 341
#     4   9  18  32  54  84 112 143 191 244 284 333
#     4  10  22  41  60  84 120 157 196 245 291 351
#
# _framework density 20.017977999999999
#
# number of rings (size 3 to 8) (size 9 to 14) (size 15 to 20)
#    0.000    2.400    0.000    1.680    2.240    3.200 
#    1.440    2.400    0.000    1.920    0.000    3.360 
#    0.000    0.000    0.000    0.000    0.000    0.000 
#
# Total GULP energy -278372.441499 kJ/mol
# GULP energy per Si atom -5567.448830 kJ/mol
# Density = 1.997242 g / cm^3
# Si number density = 20.017978 Si / 1000 Ang^3
#
#
#
# Elastic Constant Matrix: (Units=GPa)
#
#
# Indices 1 2 3 4 5 6 
#
# 1 59.2148 24.7885 10.2190 0.0000 0.0000 0.0000
# 2 24.7885 130.7645 72.0597 0.0000 0.0000 0.0000
# 3 10.2190 72.0597 69.4203 0.0000 0.0000 0.0000
# 4 0.0000 0.0000 0.0000 -5.9628 0.0000 0.0000
# 5 0.0000 0.0000 0.0000 0.0000 45.3995 0.0000
# 6 0.0000 0.0000 0.0000 0.0000 0.0000 30.9409
#
#
#
# Elastic Compliance Matrix: (Units=1/GPa)
#
#
# Indices 1 2 3 4 5 6 
#
# 1 0.018478 -0.004682 0.002140 0.000000 0.000000 0.000000
# 2 -0.004682 0.019055 -0.019090 0.000000 0.000000 0.000000
# 3 0.002140 -0.019090 0.033906 0.000000 0.000000 0.000000
# 4 0.000000 0.000000 0.000000 -0.167707 0.000000 0.000000
# 5 0.000000 0.000000 0.000000 0.000000 0.022027 0.000000
# 6 0.000000 0.000000 0.000000 0.000000 0.000000 0.032320
#
#
# Mechanical properties :
#
#
# Convention : Reuss Voigt Hill
#
# Bulk Modulus (GPa) = 35.49278 52.61489 44.05384
# Shear Modulus (GPa) = 465.84651 24.23104 245.03878
#
# Velocity S-wave (km/s) = 15.27152 3.48295 11.07588
# Velocity P-wave (km/s) = 18.13086 6.52039 13.62431
#
# Compressibility (1/GPa) = 0.02817474
#
# Stress axis : x y z
#
# Youngs Moduli (GPa) = 54.11725 52.48058 29.49365
#
# Poissons Ratio (x) = 0.24573 -0.06312
# Poissons Ratio (y) = 0.25339 0.56303
# Poissons Ratio (z) = -0.11582 1.00185
#
# Static dielectric constant tensor:
#      x y z
#    x 1.748070 0.000000 0.000000 
#    y 0.000000 1.694160 0.000000 
#    z 0.000000 0.000000 1.712970 
# 
# From -- ./inp_files/63324.got.cif
#   From: 2010.05.17/outbox.cif.g08.bks.cpg/sg71_32_cif.got.tgz:63324.got - 2010.06.03 16:22:01.
