data_PCOD9522805
_publ_section_title
;
Structure prediction by ZEFSAII (Michael W. Deem and Ramdas Pophale) SiO2 
 PCOD9522805
Probable space group: I M M M
;
_chemical_formula_sum "Si O2"
_cell_formula_units_Z 120
_cell_length_a 9.168998
_cell_length_b 27.506062
_cell_length_c 27.794631
_cell_angle_alpha 90.000000
_cell_angle_beta 90.000000
_cell_angle_gamma 90.000000
_cell_volume 7009.890085
_symmetry_space_group_name_H-M "I M M M"
_symmetry_group_IT_number 71
_symmetry_cell_setting 'orthorhombic'
loop_
_space_group_symop_operation_xyz
x,y,z
-x,-y,z
x,-y,-z
-x,y,-z
-x,-y,-z
x,y,-z
-x,y,z
x,-y,z
1/2+x,1/2+y,1/2+z
1/2-x,1/2-y,1/2+z
1/2+x,1/2-y,1/2-z
1/2-x,1/2+y,1/2-z
1/2-x,1/2-y,1/2-z
1/2+x,1/2+y,1/2-z
1/2-x,1/2+y,1/2+z
1/2+x,1/2-y,1/2+z
loop_
_atom_site_type_symbol
_atom_site_label
_atom_site_fract_x
_atom_site_fract_y
_atom_site_fract_z
Si Si1 0.326777 0.800744 0.739267
Si Si2 0.674833 0.555755 0.816474
Si Si3 0.172626 0.500000 0.442720
Si Si4 0.673690 0.590424 0.392257
Si Si5 0.173442 0.646870 0.138101
Si Si6 0.173131 0.108077 0.217290
Si Si7 0.827008 0.320977 0.557206
Si Si8 0.325296 0.707971 0.943801
O O1 0.500000 0.796511 0.745624
O O2 0.250000 0.750000 0.750000
O O3 0.297430 0.819172 0.684852
O O4 0.262407 0.842911 0.773118
O O5 0.500000 0.559633 0.823273
O O6 0.718067 0.500000 0.824783
O O7 0.754842 0.594967 0.849715
O O8 0.705373 0.571476 0.761187
O O9 0.193723 0.500000 0.500000
O O10 0.246162 0.452565 0.420110
O O11 0.000000 0.500000 0.433066
O O12 0.500000 0.587215 0.399406
O O13 0.703879 0.587195 0.335270
O O14 0.733615 0.641426 0.412319
O O15 0.242768 0.672299 0.091862
O O16 0.000000 0.641952 0.133146
O O17 0.000000 0.119289 0.219520
O O18 0.804240 0.329163 0.500000
O O19 0.791162 0.264574 0.567285
O O20 0.000000 0.328030 0.566420
O O21 0.500000 0.702370 0.938407
O O22 0.290005 0.699586 0.000000
#
# Coordination Sequence:
#
# PCOD9522805 Si02
#       8
#    16  16   8  16  16  16  16  16
#     4  10  21  35  52  76 110 147 184 221 263 317
#     4   9  18  35  60  81 103 141 183 219 262 323
#     4  11  25  43  59  75 101 141 187 233 282 339
#     4  11  23  36  56  82 108 136 175 231 285 330
#     4  10  21  35  53  81 114 144 178 222 274 323
#     4   9  20  36  53  78 110 140 176 220 270 322
#     4   9  19  36  55  76 105 141 181 223 268 323
#     4   9  19  36  58  83 111 146 186 223 261 315
#
# _framework density 17.118670999999999
#
# number of rings (size 3 to 8) (size 9 to 14) (size 15 to 20)
#    0.000    2.333    0.000    2.600    2.800    6.133 
#    0.000    1.333    0.000    0.400    0.000    2.800 
#    0.000    0.000    0.000    0.000    0.000    0.000 
#
# Total GULP energy -334950.589961 kJ/mol
# GULP energy per Si atom -5582.509833 kJ/mol
# Density = 1.707971 g / cm^3
# Si number density = 17.118671 Si / 1000 Ang^3
#
#
#
# Elastic Constant Matrix: (Units=GPa)
#
#
# Indices 1 2 3 4 5 6 
#
# 1 64.3909 75.5002 69.1248 0.0000 0.0000 0.0000
# 2 75.5002 146.5675 81.2972 0.0000 0.0000 0.0000
# 3 69.1248 81.2972 101.2043 0.0000 0.0000 0.0000
# 4 0.0000 0.0000 0.0000 15.8922 0.0000 0.0000
# 5 0.0000 0.0000 0.0000 0.0000 26.9220 0.0000
# 6 0.0000 0.0000 0.0000 0.0000 0.0000 14.4995
#
#
#
# Elastic Compliance Matrix: (Units=1/GPa)
#
#
# Indices 1 2 3 4 5 6 
#
# 1 0.081511 -0.020034 -0.039581 0.000000 0.000000 0.000000
# 2 -0.020034 0.017230 -0.000157 0.000000 0.000000 0.000000
# 3 -0.039581 -0.000157 0.037042 0.000000 0.000000 0.000000
# 4 0.000000 0.000000 0.000000 0.062924 0.000000 0.000000
# 5 0.000000 0.000000 0.000000 0.000000 0.037144 0.000000
# 6 0.000000 0.000000 0.000000 0.000000 0.000000 0.068968
#
#
# Mechanical properties :
#
#
# Convention : Reuss Voigt Hill
#
# Bulk Modulus (GPa) = 61.57920 84.88967 73.23444
# Shear Modulus (GPa) = 11.63399 17.21210 14.42305
#
# Velocity S-wave (km/s) = 2.60976 3.17434 2.90579
# Velocity P-wave (km/s) = 6.71797 7.94555 7.35741
#
# Compressibility (1/GPa) = 0.01623925
#
# Stress axis : x y z
#
# Youngs Moduli (GPa) = 12.26828 58.03900 26.99650
#
# Poissons Ratio (x) = 1.16274 1.06854
# Poissons Ratio (y) = 0.24578 0.00424
# Poissons Ratio (z) = 0.48559 0.00912
#
# Static dielectric constant tensor:
#      x y z
#    x 1.565050 0.000000 0.000000 
#    y 0.000000 1.554690 0.000000 
#    z 0.000000 0.000000 1.568290 
# 
# From -- ./inp_files/63840.got.cif
#   From: 2010.05.17/outbox.cif.g08.bks.cpg/sg71_32_cif.got.tgz:63840.got - 2010.06.03 16:22:01.
