data_PCOD9522174
_publ_section_title
;
Structure prediction by ZEFSAII (Michael W. Deem and Ramdas Pophale) SiO2 
 PCOD9522174
Probable space group: I M M M
;
_chemical_formula_sum "Si O2"
_cell_formula_units_Z 120
_cell_length_a 14.015158
_cell_length_b 15.959068
_cell_length_c 28.996187
_cell_angle_alpha 90.000000
_cell_angle_beta 90.000000
_cell_angle_gamma 90.000000
_cell_volume 6485.544078
_symmetry_space_group_name_H-M "I M M M"
_symmetry_group_IT_number 71
_symmetry_cell_setting 'orthorhombic'
loop_
_space_group_symop_operation_xyz
x,y,z
-x,-y,z
x,-y,-z
-x,y,-z
-x,-y,-z
x,y,-z
-x,y,z
x,-y,z
1/2+x,1/2+y,1/2+z
1/2-x,1/2-y,1/2+z
1/2+x,1/2-y,1/2-z
1/2-x,1/2+y,1/2-z
1/2-x,1/2-y,1/2-z
1/2+x,1/2+y,1/2-z
1/2-x,1/2+y,1/2+z
1/2+x,1/2-y,1/2+z
loop_
_atom_site_type_symbol
_atom_site_label
_atom_site_fract_x
_atom_site_fract_y
_atom_site_fract_z
Si Si1 0.198553 0.404276 0.319685
Si Si2 0.768586 0.164641 0.445241
Si Si3 0.392820 0.500000 0.055261
Si Si4 0.613867 0.755682 0.878584
Si Si5 0.114525 0.091961 0.320175
Si Si6 0.612660 0.901401 0.620887
Si Si7 0.612984 0.848603 0.276839
Si Si8 0.110962 0.851479 0.783682
O O1 0.179236 0.500000 0.331788
O O2 0.144257 0.338754 0.351890
O O3 0.164401 0.386805 0.267247
O O4 0.311604 0.385409 0.319233
O O5 0.752183 0.167379 0.500000
O O6 0.834910 0.083617 0.434185
O O7 0.828585 0.242451 0.425758
O O8 0.673136 0.150933 0.415769
O O9 0.500000 0.500000 0.074883
O O10 0.401675 0.500000 0.000000
O O11 0.500000 0.752890 0.885132
O O12 0.644302 0.675645 0.846976
O O13 0.129614 0.105891 0.265824
O O14 0.000000 0.089729 0.325972
O O15 0.152051 0.000000 0.334490
O O16 0.500000 0.880629 0.618653
O O17 0.644102 0.884182 0.673626
O O18 0.623330 0.000000 0.610733
O O19 0.500000 0.866007 0.272045
O O20 0.625539 0.748263 0.277494
O O21 0.000000 0.865416 0.795951
#
# Coordination Sequence:
#
# PCOD9522174 Si02
#       8
#    16  16   8  16  16  16  16  16
#     4  12  24  37  59  87 119 162 205 249 296 350
#     4  11  23  39  59  84 113 149 196 247 303 363
#     4   9  18  34  55  81 111 141 178 232 299 363
#     4  11  24  40  58  84 116 152 199 250 303 363
#     4   9  18  32  50  75 109 149 191 234 284 342
#     4  10  21  36  55  84 121 161 204 244 290 357
#     4  10  20  36  57  82 117 160 200 243 293 349
#     4  10  20  36  54  78 116 156 200 246 291 346
#
# _framework density 18.502687999999999
#
# number of rings (size 3 to 8) (size 9 to 14) (size 15 to 20)
#    0.000    1.667    2.000    2.800    2.800    3.467 
#    0.000    0.667    0.000    0.400    0.000    0.933 
#    0.000    0.000    0.000    7.467    0.000    0.000 
#
# Total GULP energy -335428.051259 kJ/mol
# GULP energy per Si atom -5590.467521 kJ/mol
# Density = 1.846058 g / cm^3
# Si number density = 18.502688 Si / 1000 Ang^3
#
#
#
# Elastic Constant Matrix: (Units=GPa)
#
#
# Indices 1 2 3 4 5 6 
#
# 1 80.8575 28.8529 41.5914 0.0000 0.0000 0.0000
# 2 28.8529 96.3963 33.6081 0.0000 0.0000 0.0000
# 3 41.5914 33.6081 84.6969 0.0000 0.0000 0.0000
# 4 0.0000 0.0000 0.0000 19.9994 0.0000 0.0000
# 5 0.0000 0.0000 0.0000 0.0000 22.1437 0.0000
# 6 0.0000 0.0000 0.0000 0.0000 0.0000 19.5128
#
#
#
# Elastic Compliance Matrix: (Units=1/GPa)
#
#
# Indices 1 2 3 4 5 6 
#
# 1 0.017066 -0.002537 -0.007373 0.000000 0.000000 0.000000
# 2 -0.002537 0.012417 -0.003681 0.000000 0.000000 0.000000
# 3 -0.007373 -0.003681 0.016888 0.000000 0.000000 0.000000
# 4 0.000000 0.000000 0.000000 0.050001 0.000000 0.000000
# 5 0.000000 0.000000 0.000000 0.000000 0.045160 0.000000
# 6 0.000000 0.000000 0.000000 0.000000 0.000000 0.051249
#
#
# Mechanical properties :
#
#
# Convention : Reuss Voigt Hill
#
# Bulk Modulus (GPa) = 52.11859 52.22838 52.17348
# Shear Modulus (GPa) = 22.08878 22.85772 22.47325
#
# Velocity S-wave (km/s) = 3.45891 3.51860 3.48888
# Velocity P-wave (km/s) = 6.64691 6.69299 6.66999
#
# Compressibility (1/GPa) = 0.01918701
#
# Stress axis : x y z
#
# Youngs Moduli (GPa) = 58.59748 80.53691 59.21266
#
# Poissons Ratio (x) = 0.20434 0.43660
# Poissons Ratio (y) = 0.14868 0.21796
# Poissons Ratio (z) = 0.43207 0.29646
#
# Static dielectric constant tensor:
#      x y z
#    x 1.683150 0.000000 0.000000 
#    y 0.000000 1.632190 0.000000 
#    z 0.000000 0.000000 1.631450 
# 
# From -- ./inp_files/70147.got.cif
#   From: 2010.05.17/outbox.cif.g08.bks.cpg/sg71_36_cif.got.tgz:70147.got - 2010.06.03 16:22:01.
