data_PCOD9522001
_publ_section_title
;
Structure prediction by ZEFSAII (Michael W. Deem and Ramdas Pophale) SiO2 
 PCOD9522001
Probable space group: I M M M
;
_chemical_formula_sum "Si O2"
_cell_formula_units_Z 56
_cell_length_a 10.326642
_cell_length_b 7.449312
_cell_length_c 32.168486
_cell_angle_alpha 90.000000
_cell_angle_beta 90.000000
_cell_angle_gamma 90.000000
_cell_volume 2474.605119
_symmetry_space_group_name_H-M "I M M M"
_symmetry_group_IT_number 71
_symmetry_cell_setting 'orthorhombic'
loop_
_space_group_symop_operation_xyz
x,y,z
-x,-y,z
x,-y,-z
-x,y,-z
-x,-y,-z
x,y,-z
-x,y,z
x,-y,z
1/2+x,1/2+y,1/2+z
1/2-x,1/2-y,1/2+z
1/2+x,1/2-y,1/2-z
1/2-x,1/2+y,1/2-z
1/2-x,1/2-y,1/2-z
1/2+x,1/2+y,1/2-z
1/2-x,1/2+y,1/2+z
1/2+x,1/2-y,1/2+z
loop_
_atom_site_type_symbol
_atom_site_label
_atom_site_fract_x
_atom_site_fract_y
_atom_site_fract_z
Si Si1 0.851120 0.719663 0.000000
Si Si2 0.500000 0.782072 0.222714
Si Si3 0.642249 0.286816 0.065851
Si Si4 0.780119 0.716067 0.340233
Si Si5 0.000000 0.208241 0.819519
O O1 0.764854 0.778964 0.960519
O O2 0.856669 0.500000 0.000000
O O3 0.000000 0.781030 0.000000
O O4 0.374716 0.721950 0.196523
O O5 0.500000 0.716183 0.269631
O O6 0.500000 0.000000 0.224069
O O7 0.500000 0.214549 0.054000
O O8 0.637781 0.500000 0.058221
O O9 0.663507 0.258350 0.114685
O O10 0.775978 0.500000 0.336523
O O11 0.634702 0.787517 0.335470
O O12 0.000000 0.000000 0.832726
#
# Coordination Sequence:
#
# PCOD9522001 Si02
#       5
#     8   8  16  16   8
#     4   9  19  35  56  83 114 142 173 220 272 318
#     4  10  20  36  56  77 106 145 185 224 269 322
#     4  10  20  35  57  83 109 142 183 223 264 317
#     4  10  21  37  55  79 112 146 179 222 274 322
#     4  10  22  36  54  79 110 145 181 226 275 318
#
# _framework density 22.629871000000001
#
# number of rings (size 3 to 8) (size 9 to 14) (size 15 to 20)
#    0.000    2.143    1.429    1.286    2.000    4.000 
#    0.000    0.714    0.000    2.571    0.000    0.000 
#    0.000    0.000    0.000    0.000    0.000    0.000 
#
# Total GULP energy -156488.232517 kJ/mol
# GULP energy per Si atom -5588.865447 kJ/mol
# Density = 2.257836 g / cm^3
# Si number density = 22.629871 Si / 1000 Ang^3
#
#
#
# Elastic Constant Matrix: (Units=GPa)
#
#
# Indices 1 2 3 4 5 6 
#
# 1 227.8936 9.5313 47.9360 0.0000 0.0000 0.0000
# 2 9.5313 69.6011 -18.5251 0.0000 0.0000 0.0000
# 3 47.9360 -18.5251 74.2920 0.0000 0.0000 0.0000
# 4 0.0000 0.0000 0.0000 -0.1255 0.0000 0.0000
# 5 0.0000 0.0000 0.0000 0.0000 38.9000 0.0000
# 6 0.0000 0.0000 0.0000 0.0000 0.0000 -16.8978
#
#
#
# Elastic Compliance Matrix: (Units=1/GPa)
#
#
# Indices 1 2 3 4 5 6 
#
# 1 0.005267 -0.001741 -0.003833 0.000000 0.000000 0.000000
# 2 -0.001741 0.015965 0.005104 0.000000 0.000000 0.000000
# 3 -0.003833 0.005104 0.017206 0.000000 0.000000 0.000000
# 4 0.000000 0.000000 0.000000 -7.970488 0.000000 0.000000
# 5 0.000000 0.000000 0.000000 0.000000 0.025707 0.000000
# 6 0.000000 0.000000 0.000000 0.000000 0.000000 -0.059179
#
#
# Mechanical properties :
#
#
# Convention : Reuss Voigt Hill
#
# Bulk Modulus (GPa) = 26.66757 49.96344 38.31550
# Shear Modulus (GPa) = -0.62877 26.56498 12.96811
#
# Velocity S-wave (km/s) = -0.52768 3.42992 2.39645
# Velocity P-wave (km/s) = 3.38209 6.14917 4.96240
#
# Compressibility (1/GPa) = 0.03749873
#
# Stress axis : x y z
#
# Youngs Moduli (GPa) = 189.86035 62.63826 58.11846
#
# Poissons Ratio (x) = 0.10908 0.22275
# Poissons Ratio (y) = 0.33062 -0.29667
# Poissons Ratio (z) = 0.72768 -0.31974
#
# Static dielectric constant tensor:
#      x y z
#    x 1.852480 0.000000 0.000000 
#    y 0.000000 1.860480 0.000000 
#    z 0.000000 0.000000 1.766490 
# 
# From -- ./inp_files/3609.got.cif
#   From: 2010.05.17/outbox.cif.g08.bks.cpg/sg71_2_cif.got.tgz:3609.got - 2010.06.03 16:22:01.
