data_PCOD9522897
_publ_section_title
;
Structure prediction by ZEFSAII (Michael W. Deem and Ramdas Pophale) SiO2 
 PCOD9522897
Probable space group: I M M M
;
_chemical_formula_sum "Si O2"
_cell_formula_units_Z 96
_cell_length_a 14.586587
_cell_length_b 26.068081
_cell_length_c 13.893778
_cell_angle_alpha 90.000000
_cell_angle_beta 90.000000
_cell_angle_gamma 90.000000
_cell_volume 5283.030327
_symmetry_space_group_name_H-M "I M M M"
_symmetry_group_IT_number 71
_symmetry_cell_setting 'orthorhombic'
loop_
_space_group_symop_operation_xyz
x,y,z
-x,-y,z
x,-y,-z
-x,y,-z
-x,-y,-z
x,y,-z
-x,y,z
x,-y,z
1/2+x,1/2+y,1/2+z
1/2-x,1/2-y,1/2+z
1/2+x,1/2-y,1/2-z
1/2-x,1/2+y,1/2-z
1/2-x,1/2-y,1/2-z
1/2+x,1/2+y,1/2-z
1/2-x,1/2+y,1/2+z
1/2+x,1/2-y,1/2+z
loop_
_atom_site_type_symbol
_atom_site_label
_atom_site_fract_x
_atom_site_fract_y
_atom_site_fract_z
Si Si1 0.890997 0.500000 0.737763
Si Si2 0.392801 0.411153 0.799380
Si Si3 0.606259 0.358040 0.388325
Si Si4 0.894818 0.202232 0.384074
Si Si5 0.219181 0.701520 0.616143
Si Si6 0.231288 0.000000 0.385564
Si Si7 0.390798 0.898971 0.887085
O O1 0.828452 0.500000 0.831758
O O2 0.870449 0.550632 0.674676
O O3 0.000000 0.500000 0.758327
O O4 0.500000 0.425132 0.813901
O O5 0.375277 0.404265 0.685344
O O6 0.379618 0.353972 0.841187
O O7 0.326668 0.450981 0.849806
O O8 0.620090 0.372327 0.500000
O O9 0.500000 0.343427 0.374905
O O10 0.674997 0.311568 0.365680
O O11 0.887919 0.198055 0.500000
O O12 0.824267 0.245517 0.348890
O O13 0.000000 0.217899 0.362139
O O14 0.208037 0.703044 0.500000
O O15 0.162651 0.651336 0.648376
O O16 0.240032 0.000000 0.500000
O O17 0.500000 0.889454 0.882182
O O18 0.368026 0.907566 0.000000
#
# Coordination Sequence:
#
# PCOD9522897 Si02
#       7
#     8  16  16  16  16   8  16
#     4  10  21  36  53  75 106 143 179 212 249 300
#     4  10  21  37  57  80 103 129 166 214 269 319
#     4   9  18  33  51  73 106 144 174 201 241 301
#     4   9  17  30  49  75 105 133 165 212 266 309
#     4   9  16  27  47  75 107 141 174 209 250 297
#     4  12  25  40  59  78  98 129 171 218 265 313
#     4   9  16  28  50  81 113 141 171 211 258 304
#
# _framework density 18.171389999999999
#
# number of rings (size 3 to 8) (size 9 to 14) (size 15 to 20)
#    0.000    2.500    0.000    2.500    0.000    5.167 
#    0.000    1.250    0.000    3.000    0.000    2.333 
#    0.000    0.000    0.000    0.000    0.000    0.000 
#
# Total GULP energy -267777.589848 kJ/mol
# GULP energy per Si atom -5578.699789 kJ/mol
# Density = 1.813003 g / cm^3
# Si number density = 18.171390 Si / 1000 Ang^3
#
#
#
# Elastic Constant Matrix: (Units=GPa)
#
#
# Indices 1 2 3 4 5 6 
#
# 1 82.4000 53.5045 52.6667 0.0000 0.0000 0.0000
# 2 53.5045 83.9857 43.5675 -0.0001 0.0000 0.0000
# 3 52.6667 43.5675 95.3208 0.0000 0.0000 0.0000
# 4 0.0000 -0.0001 0.0000 16.5900 0.0000 0.0000
# 5 0.0000 0.0000 0.0000 0.0000 22.6795 0.0000
# 6 0.0000 0.0000 0.0000 0.0000 0.0000 22.5455
#
#
#
# Elastic Compliance Matrix: (Units=1/GPa)
#
#
# Indices 1 2 3 4 5 6 
#
# 1 0.025138 -0.011547 -0.008611 0.000000 0.000000 0.000000
# 2 -0.011547 0.020912 -0.003178 0.000000 0.000000 0.000000
# 3 -0.008611 -0.003178 0.016701 0.000000 0.000000 0.000000
# 4 0.000000 0.000000 0.000000 0.060277 0.000000 0.000000
# 5 0.000000 0.000000 0.000000 0.000000 0.044093 0.000000
# 6 0.000000 0.000000 0.000000 0.000000 0.000000 0.044355
#
#
# Mechanical properties :
#
#
# Convention : Reuss Voigt Hill
#
# Bulk Modulus (GPa) = 62.19725 62.35377 62.27551
# Shear Modulus (GPa) = 18.97475 19.82753 19.40114
#
# Velocity S-wave (km/s) = 3.23493 3.30682 3.27107
# Velocity P-wave (km/s) = 6.94661 6.99778 6.97224
#
# Compressibility (1/GPa) = 0.01607788
#
# Stress axis : x y z
#
# Youngs Moduli (GPa) = 39.78037 47.81998 59.87566
#
# Poissons Ratio (x) = 0.55220 0.51561
# Poissons Ratio (y) = 0.45936 0.19027
# Poissons Ratio (z) = 0.34256 0.15196
#
# Static dielectric constant tensor:
#      x y z
#    x 1.640470 0.000000 0.000000 
#    y 0.000000 1.594720 0.000000 
#    z 0.000000 0.000000 1.643560 
# 
# From -- ./inp_files/34776.got.cif
#   From: 2010.05.17/outbox.cif.g08.bks.cpg/sg71_18_cif.got.tgz:34776.got - 2010.06.03 16:22:01.
