data_PCOD9522306
_publ_section_title
;
Structure prediction by ZEFSAII (Michael W. Deem and Ramdas Pophale) SiO2 
 PCOD9522306
Probable space group: I M M M
;
_chemical_formula_sum "Si O2"
_cell_formula_units_Z 64
_cell_length_a 12.664612
_cell_length_b 7.415177
_cell_length_c 29.711185
_cell_angle_alpha 90.000000
_cell_angle_beta 90.000000
_cell_angle_gamma 90.000000
_cell_volume 2790.187474
_symmetry_space_group_name_H-M "I M M M"
_symmetry_group_IT_number 71
_symmetry_cell_setting 'orthorhombic'
loop_
_space_group_symop_operation_xyz
x,y,z
-x,-y,z
x,-y,-z
-x,y,-z
-x,-y,-z
x,y,-z
-x,y,z
x,-y,z
1/2+x,1/2+y,1/2+z
1/2-x,1/2-y,1/2+z
1/2+x,1/2-y,1/2-z
1/2-x,1/2+y,1/2-z
1/2-x,1/2-y,1/2-z
1/2+x,1/2+y,1/2-z
1/2-x,1/2+y,1/2+z
1/2+x,1/2-y,1/2+z
loop_
_atom_site_type_symbol
_atom_site_label
_atom_site_fract_x
_atom_site_fract_y
_atom_site_fract_z
Si Si1 0.877642 0.715775 0.000000
Si Si2 0.317185 0.701708 0.323494
Si Si3 0.769486 0.712526 0.585480
Si Si4 0.500000 0.220233 0.052856
Si Si5 0.613073 0.281398 0.230015
O O1 0.807848 0.771194 0.042984
O O2 0.882495 0.500000 0.000000
O O3 0.000000 0.781572 0.000000
O O4 0.360284 0.500000 0.331553
O O5 0.292208 0.790207 0.371231
O O6 0.382541 0.781515 0.281965
O O7 0.203437 0.695769 0.299342
O O8 0.783568 0.500000 0.595402
O O9 0.888372 0.780805 0.574827
O O10 0.500000 0.000000 0.053820
O O11 0.500000 0.271514 0.000000
O O12 0.500000 0.241774 0.209938
O O13 0.627800 0.500000 0.230630
#
# Coordination Sequence:
#
# PCOD9522306 Si02
#       5
#     8  16  16   8  16
#     4  11  25  42  57  78 112 147 180 223 272 325
#     4   9  19  33  53  80 106 136 180 225 264 313
#     4  10  20  36  59  84 109 142 184 228 273 322
#     4   9  16  30  54  82 112 136 166 224 282 317
#     4   9  18  33  50  72 108 146 178 218 266 314
#
# _framework density 22.937525999999998
#
# number of rings (size 3 to 8) (size 9 to 14) (size 15 to 20)
#    0.000    2.500    1.250    0.375    1.750    3.500 
#    0.000    3.750    0.000    0.000    0.000    0.000 
#    0.000    0.000    0.000    0.000    0.000    0.000 
#
# Total GULP energy -178423.523428 kJ/mol
# GULP energy per Si atom -5575.735107 kJ/mol
# Density = 2.288532 g / cm^3
# Si number density = 22.937526 Si / 1000 Ang^3
#
#
#
# Elastic Constant Matrix: (Units=GPa)
#
#
# Indices 1 2 3 4 5 6 
#
# 1 119.9688 -4.1949 6.1648 0.0000 0.0000 0.0000
# 2 -4.1949 78.5588 -7.9448 0.0000 0.0000 0.0000
# 3 6.1648 -7.9448 130.9371 0.0000 0.0000 0.0000
# 4 0.0000 0.0000 0.0000 -7.6098 0.0000 0.0000
# 5 0.0000 0.0000 0.0000 0.0000 -58.0078 0.0000
# 6 0.0000 0.0000 0.0000 0.0000 0.0000 11.1433
#
#
#
# Elastic Compliance Matrix: (Units=1/GPa)
#
#
# Indices 1 2 3 4 5 6 
#
# 1 0.008369 0.000410 -0.000369 0.000000 0.000000 0.000000
# 2 0.000410 0.012828 0.000759 0.000000 0.000000 0.000000
# 3 -0.000369 0.000759 0.007701 0.000000 0.000000 0.000000
# 4 0.000000 0.000000 0.000000 -0.131410 0.000000 0.000000
# 5 0.000000 0.000000 0.000000 0.000000 -0.017239 0.000000
# 6 0.000000 0.000000 0.000000 0.000000 0.000000 0.089740
#
#
# Mechanical properties :
#
#
# Convention : Reuss Voigt Hill
#
# Bulk Modulus (GPa) = 32.79082 35.27943 34.03513
# Shear Modulus (GPa) = -233.14852 11.46780 -110.84036
#
# Velocity S-wave (km/s) = -10.09285 2.23840 -6.95900
# Velocity P-wave (km/s) = 11.02244 4.70049 7.04981
#
# Compressibility (1/GPa) = 0.03049634
#
# Stress axis : x y z
#
# Youngs Moduli (GPa) = 119.49159 77.95472 129.85844
#
# Poissons Ratio (x) = -0.03193 0.04794
# Poissons Ratio (y) = -0.04894 -0.09857
# Poissons Ratio (z) = 0.04411 -0.05917
#
# Static dielectric constant tensor:
#      x y z
#    x 1.832680 0.000000 0.000000 
#    y 0.000000 1.883380 0.000000 
#    z 0.000000 0.000000 1.860760 
# 
# From -- ./inp_files/31358.got.cif
#   From: 2010.05.17/outbox.cif.g08.bks.cpg/sg71_16_cif.got.tgz:31358.got - 2010.06.03 16:22:01.
