data_PCOD9522641
_publ_section_title
;
Structure prediction by ZEFSAII (Michael W. Deem and Ramdas Pophale) SiO2 
 PCOD9522641
Probable space group: I M M M
;
_chemical_formula_sum "Si O2"
_cell_formula_units_Z 104
_cell_length_a 16.383720
_cell_length_b 15.169550
_cell_length_c 20.638062
_cell_angle_alpha 90.000000
_cell_angle_beta 90.000000
_cell_angle_gamma 90.000000
_cell_volume 5129.253079
_symmetry_space_group_name_H-M "I M M M"
_symmetry_group_IT_number 71
_symmetry_cell_setting 'orthorhombic'
loop_
_space_group_symop_operation_xyz
x,y,z
-x,-y,z
x,-y,-z
-x,y,-z
-x,-y,-z
x,y,-z
-x,y,z
x,-y,z
1/2+x,1/2+y,1/2+z
1/2-x,1/2-y,1/2+z
1/2+x,1/2-y,1/2-z
1/2-x,1/2+y,1/2-z
1/2-x,1/2-y,1/2-z
1/2+x,1/2+y,1/2-z
1/2-x,1/2+y,1/2+z
1/2+x,1/2-y,1/2+z
loop_
_atom_site_type_symbol
_atom_site_label
_atom_site_fract_x
_atom_site_fract_y
_atom_site_fract_z
Si Si1 0.904471 0.597507 0.500000
Si Si2 0.593727 0.356174 0.244791
Si Si3 0.409196 0.852553 0.729706
Si Si4 0.726589 0.274710 0.574724
Si Si5 0.404416 0.404584 0.392313
Si Si6 0.746830 0.600998 0.150399
Si Si7 0.657746 0.101918 0.863370
O O1 0.864697 0.500000 0.500000
O O2 0.884703 0.633302 0.570392
O O3 0.000000 0.588387 0.500000
O O4 0.500000 0.373911 0.220941
O O5 0.597873 0.252593 0.262257
O O6 0.603450 0.402734 0.314174
O O7 0.666830 0.379391 0.195249
O O8 0.500000 0.873636 0.703735
O O9 0.330873 0.887991 0.691306
O O10 0.399575 0.888492 0.802310
O O11 0.754039 0.290214 0.500000
O O12 0.637260 0.317943 0.578355
O O13 0.743048 0.174434 0.594552
O O14 0.767128 0.331639 0.633522
O O15 0.500000 0.402094 0.406959
O O16 0.371250 0.500000 0.415918
O O17 0.740766 0.500000 0.127950
O O18 0.683013 0.000000 0.866473
#
# Coordination Sequence:
#
# PCOD9522641 Si02
#       7
#     8  16  16  16  16  16  16
#     4   9  18  32  50  78 118 158 192 223 272 354
#     4  10  20  39  67  96 127 162 200 250 316 377
#     4  11  22  39  65  96 130 165 202 250 311 375
#     4  12  25  42  61  84 119 163 213 262 308 364
#     4  10  21  38  63  95 127 158 196 250 317 384
#     4  12  25  42  65  91 123 165 213 264 315 364
#     4  11  21  35  58  89 123 160 196 237 298 369
#
# _framework density 20.275856999999998
#
# number of rings (size 3 to 8) (size 9 to 14) (size 15 to 20)
#    0.000    1.154    3.846    3.231    0.000    4.308 
#    0.000    0.769    0.000    0.000    0.000    3.231 
#    0.000    0.000    0.000    0.000    0.000    0.000 
#
# Total GULP energy -289819.308702 kJ/mol
# GULP energy per Si atom -5573.448244 kJ/mol
# Density = 2.022971 g / cm^3
# Si number density = 20.275857 Si / 1000 Ang^3
#
#
#
# Elastic Constant Matrix: (Units=GPa)
#
#
# Indices 1 2 3 4 5 6 
#
# 1 105.0551 27.1468 12.1700 0.0000 0.0000 0.0000
# 2 27.1468 131.6931 11.4835 0.0000 0.0000 0.0000
# 3 12.1700 11.4835 46.4963 0.0000 0.0000 0.0000
# 4 0.0000 0.0000 0.0000 4.4723 0.0000 0.0000
# 5 0.0000 0.0000 0.0000 0.0000 10.4194 0.0000
# 6 0.0000 0.0000 0.0000 0.0000 0.0000 31.5780
#
#
#
# Elastic Compliance Matrix: (Units=1/GPa)
#
#
# Indices 1 2 3 4 5 6 
#
# 1 0.010273 -0.001925 -0.002213 0.000000 0.000000 0.000000
# 2 -0.001925 0.008121 -0.001502 0.000000 0.000000 0.000000
# 3 -0.002213 -0.001502 0.022457 0.000000 0.000000 0.000000
# 4 0.000000 0.000000 0.000000 0.223598 0.000000 0.000000
# 5 0.000000 0.000000 0.000000 0.000000 0.095975 0.000000
# 6 0.000000 0.000000 0.000000 0.000000 0.000000 0.031668
#
#
# Mechanical properties :
#
#
# Convention : Reuss Voigt Hill
#
# Bulk Modulus (GPa) = 33.81678 42.76058 38.28868
# Shear Modulus (GPa) = 12.09984 24.79022 18.44503
#
# Velocity S-wave (km/s) = 2.44552 3.50043 3.01940
# Velocity P-wave (km/s) = 4.96877 6.12148 5.57500
#
# Compressibility (1/GPa) = 0.02957112
#
# Stress axis : x y z
#
# Youngs Moduli (GPa) = 97.34695 123.13599 44.52874
#
# Poissons Ratio (x) = 0.23698 0.09856
# Poissons Ratio (y) = 0.18735 0.06688
# Poissons Ratio (z) = 0.21547 0.18495
#
# Static dielectric constant tensor:
#      x y z
#    x 1.809960 0.000000 0.000000 
#    y 0.000000 1.845480 0.000000 
#    z 0.000000 0.000000 1.724040 
# 
# From -- ./inp_files/54133.got.cif
#   From: 2010.05.17/outbox.cif.g08.bks.cpg/sg71_28_cif.got.tgz:54133.got - 2010.06.03 16:22:01.
