data_PCOD9522762
_publ_section_title
;
Structure prediction by ZEFSAII (Michael W. Deem and Ramdas Pophale) SiO2 
 PCOD9522762
Probable space group: I M M M
;
_chemical_formula_sum "Si O2"
_cell_formula_units_Z 116
_cell_length_a 7.672930
_cell_length_b 29.499415
_cell_length_c 25.777562
_cell_angle_alpha 90.000000
_cell_angle_beta 90.000000
_cell_angle_gamma 90.000000
_cell_volume 5834.672443
_symmetry_space_group_name_H-M "I M M M"
_symmetry_group_IT_number 71
_symmetry_cell_setting 'orthorhombic'
loop_
_space_group_symop_operation_xyz
x,y,z
-x,-y,z
x,-y,-z
-x,y,-z
-x,-y,-z
x,y,-z
-x,y,z
x,-y,z
1/2+x,1/2+y,1/2+z
1/2-x,1/2-y,1/2+z
1/2+x,1/2-y,1/2-z
1/2-x,1/2+y,1/2-z
1/2-x,1/2-y,1/2-z
1/2+x,1/2+y,1/2-z
1/2-x,1/2+y,1/2+z
1/2+x,1/2-y,1/2+z
loop_
_atom_site_type_symbol
_atom_site_label
_atom_site_fract_x
_atom_site_fract_y
_atom_site_fract_z
Si Si1 0.204139 0.852247 0.056871
Si Si2 0.211657 0.447935 0.748446
Si Si3 0.792713 0.778389 0.699279
Si Si4 0.292006 0.848595 0.443826
Si Si5 0.298443 0.071123 0.869469
Si Si6 0.000000 0.000000 0.898969
Si Si7 0.208830 0.747656 0.412296
Si Si8 0.204935 0.622382 0.167627
O O1 0.290995 0.880190 0.103000
O O2 0.223219 0.798478 0.063653
O O3 0.000000 0.862919 0.057989
O O4 0.274367 0.865334 0.000000
O O5 0.272616 0.500000 0.750736
O O6 0.251724 0.428379 0.691483
O O7 0.278260 0.416577 0.795134
O O8 0.000000 0.448613 0.751702
O O9 0.750000 0.750000 0.750000
O O10 0.732096 0.752495 0.647480
O O11 0.719239 0.829179 0.696384
O O12 0.000000 0.783153 0.695536
O O13 0.222556 0.863779 0.500000
O O14 0.500000 0.856219 0.443955
O O15 0.264070 0.794587 0.438738
O O16 0.220869 0.870604 0.390535
O O17 0.500000 0.054747 0.872445
O O18 0.155603 0.039133 0.896255
O O19 0.000000 0.745607 0.414147
O O20 0.000000 0.612557 0.161116
#
# Coordination Sequence:
#
# PCOD9522762 Si02
#       8
#    16  16  16  16  16   4  16  16
#     4  11  24  41  59  84 115 147 191 241 287 344
#     4   9  18  35  59  83 109 144 187 233 287 350
#     4  10  21  35  49  74 110 146 183 225 276 340
#     4   9  17  31  52  78 108 146 190 233 278 332
#     4  11  23  41  65  89 116 150 191 240 296 354
#     4  12  22  44  65  92 116 146 195 242 298 356
#     4  10  21  35  53  77 108 148 191 229 279 341
#     4   9  18  33  53  77 108 144 184 230 281 335
#
# _framework density 19.881149000000001
#
# number of rings (size 3 to 8) (size 9 to 14) (size 15 to 20)
#    0.000    2.069    1.379    1.862    1.931    4.690 
#    1.241    0.690    0.000    1.241    0.000    2.897 
#    0.000    0.000    0.000    7.517    0.000    8.690 
#
# Total GULP energy -323113.732484 kJ/mol
# GULP energy per Si atom -5570.926422 kJ/mol
# Density = 1.983590 g / cm^3
# Si number density = 19.881149 Si / 1000 Ang^3
#
#
#
# Elastic Constant Matrix: (Units=GPa)
#
#
# Indices 1 2 3 4 5 6 
#
# 1 64.3140 3.7952 2.8912 0.0000 0.0000 0.0000
# 2 3.7952 92.5614 75.2352 0.0000 0.0000 0.0000
# 3 2.8912 75.2352 144.1187 0.0000 0.0000 0.0000
# 4 0.0000 0.0000 0.0000 -7.8690 0.0000 0.0000
# 5 0.0000 0.0000 0.0000 0.0000 6.2608 0.0000
# 6 0.0000 0.0000 0.0000 0.0000 0.0000 25.0588
#
#
#
# Elastic Compliance Matrix: (Units=1/GPa)
#
#
# Indices 1 2 3 4 5 6 
#
# 1 0.015587 -0.000669 0.000036 0.000000 0.000000 0.000000
# 2 -0.000669 0.018795 -0.009798 0.000000 0.000000 0.000000
# 3 0.000036 -0.009798 0.012053 0.000000 0.000000 0.000000
# 4 0.000000 0.000000 0.000000 -0.127081 0.000000 0.000000
# 5 0.000000 0.000000 0.000000 0.000000 0.159725 0.000000
# 6 0.000000 0.000000 0.000000 0.000000 0.000000 0.039906
#
#
# Mechanical properties :
#
#
# Convention : Reuss Voigt Hill
#
# Bulk Modulus (GPa) = 39.10282 51.64859 45.37570
# Shear Modulus (GPa) = 33.69934 19.29495 26.49714
#
# Velocity S-wave (km/s) = 4.12155 3.11869 3.65468
# Velocity P-wave (km/s) = 6.50850 6.24527 6.37824
#
# Compressibility (1/GPa) = 0.02557360
#
# Stress axis : x y z
#
# Youngs Moduli (GPa) = 64.15792 53.20462 82.96591
#
# Poissons Ratio (x) = 0.03557 -0.00302
# Poissons Ratio (y) = 0.04290 0.81294
# Poissons Ratio (z) = -0.00233 0.52132
#
# Static dielectric constant tensor:
#      x y z
#    x 1.729370 0.000000 0.000000 
#    y 0.000000 1.678290 0.000000 
#    z 0.000000 0.000000 1.747210 
# 
# From -- ./inp_files/63834.got.cif
#   From: 2010.05.17/outbox.cif.g08.bks.cpg/sg71_32_cif.got.tgz:63834.got - 2010.06.03 16:22:01.
