data_PCOD9522512
_publ_section_title
;
Structure prediction by ZEFSAII (Michael W. Deem and Ramdas Pophale) SiO2 
 PCOD9522512
Probable space group: I M M M
;
_chemical_formula_sum "Si O2"
_cell_formula_units_Z 88
_cell_length_a 13.220751
_cell_length_b 24.468016
_cell_length_c 13.703772
_cell_angle_alpha 90.000000
_cell_angle_beta 90.000000
_cell_angle_gamma 90.000000
_cell_volume 4432.972181
_symmetry_space_group_name_H-M "I M M M"
_symmetry_group_IT_number 71
_symmetry_cell_setting 'orthorhombic'
loop_
_space_group_symop_operation_xyz
x,y,z
-x,-y,z
x,-y,-z
-x,y,-z
-x,-y,-z
x,y,-z
-x,y,z
x,-y,z
1/2+x,1/2+y,1/2+z
1/2-x,1/2-y,1/2+z
1/2+x,1/2-y,1/2-z
1/2-x,1/2+y,1/2-z
1/2-x,1/2-y,1/2-z
1/2+x,1/2+y,1/2-z
1/2-x,1/2+y,1/2+z
1/2+x,1/2-y,1/2+z
loop_
_atom_site_type_symbol
_atom_site_label
_atom_site_fract_x
_atom_site_fract_y
_atom_site_fract_z
Si Si1 0.619057 0.000000 0.381133
Si Si2 0.794852 0.689765 0.772361
Si Si3 0.000000 0.705385 0.111767
Si Si4 0.381157 0.500000 0.617648
Si Si5 0.209176 0.116821 0.882931
Si Si6 0.000000 0.165116 0.891575
Si Si7 0.500000 0.435751 0.108971
Si Si8 0.219426 0.092584 0.616721
O O1 0.687502 0.052924 0.351554
O O2 0.500000 0.000000 0.348920
O O3 0.615230 0.000000 0.500000
O O4 0.750000 0.750000 0.750000
O O5 0.902877 0.692181 0.824074
O O6 0.792335 0.650417 0.677202
O O7 0.732556 0.654784 0.851342
O O8 0.000000 0.770536 0.100782
O O9 0.000000 0.681980 0.000000
O O10 0.500000 0.500000 0.654314
O O11 0.391662 0.500000 0.500000
O O12 0.314854 0.553744 0.640087
O O13 0.105291 0.146391 0.849381
O O14 0.223230 0.122690 0.000000
O O15 0.000000 0.138934 0.000000
O O16 0.500000 0.500000 0.097148
O O17 0.391628 0.423512 0.154720
O O18 0.500000 0.409655 0.000000
O O19 0.217691 0.086569 0.500000
#
# Coordination Sequence:
#
# PCOD9522512 Si02
#       8
#     8  16   8   8  16   8   8  16
#     4   9  18  34  59  91 122 155 203 264 319 375
#     4  12  26  40  61  92 123 163 217 261 308 378
#     4  11  24  45  69  91 124 168 212 264 319 372
#     4   9  16  31  60  95 129 164 206 259 325 385
#     4  10  20  37  61  93 131 166 205 260 320 382
#     4   9  16  32  63  93 123 164 198 246 315 369
#     4   9  16  34  60  86 123 160 189 240 324 406
#     4  10  21  37  60  90 124 162 205 258 324 385
#
# _framework density 19.851241999999999
#
# number of rings (size 3 to 8) (size 9 to 14) (size 15 to 20)
#    0.000    1.909    3.636    0.545    1.273    2.909 
#    0.000    0.455    0.000    0.000    0.000    1.909 
#    0.000    0.000    0.000    0.000    0.000    0.000 
#
# Total GULP energy -245091.040648 kJ/mol
# GULP energy per Si atom -5570.250924 kJ/mol
# Density = 1.980606 g / cm^3
# Si number density = 19.851242 Si / 1000 Ang^3
#
#
#
# Elastic Constant Matrix: (Units=GPa)
#
#
# Indices 1 2 3 4 5 6 
#
# 1 160.7767 69.5156 52.0860 0.0000 0.0000 0.0000
# 2 69.5156 129.5058 36.1070 -0.0001 0.0000 0.0001
# 3 52.0860 36.1070 108.5685 0.0000 -0.0001 0.0000
# 4 0.0000 -0.0001 0.0000 26.4991 0.0000 0.0000
# 5 0.0000 0.0000 -0.0001 0.0000 31.5259 0.0000
# 6 0.0000 0.0001 0.0000 0.0000 0.0000 23.4374
#
#
#
# Elastic Compliance Matrix: (Units=1/GPa)
#
#
# Indices 1 2 3 4 5 6 
#
# 1 0.008881 -0.003945 -0.002949 0.000000 0.000000 0.000000
# 2 -0.003945 0.010263 -0.001521 0.000000 0.000000 0.000000
# 3 -0.002949 -0.001521 0.011131 0.000000 0.000000 0.000000
# 4 0.000000 0.000000 0.000000 0.037737 0.000000 0.000000
# 5 0.000000 0.000000 0.000000 0.000000 0.031720 0.000000
# 6 0.000000 0.000000 0.000000 0.000000 0.000000 0.042667
#
#
# Mechanical properties :
#
#
# Convention : Reuss Voigt Hill
#
# Bulk Modulus (GPa) = 74.36782 79.36314 76.86548
# Shear Modulus (GPa) = 30.54194 32.36865 31.45530
#
# Velocity S-wave (km/s) = 3.92668 4.04240 3.98496
# Velocity P-wave (km/s) = 7.62249 7.86471 7.74455
#
# Compressibility (1/GPa) = 0.01344668
#
# Stress axis : x y z
#
# Youngs Moduli (GPa) = 112.60385 97.43605 89.83837
#
# Poissons Ratio (x) = 0.38437 0.26490
# Poissons Ratio (y) = 0.44421 0.13662
# Poissons Ratio (z) = 0.33202 0.14817
#
# Static dielectric constant tensor:
#      x y z
#    x 1.749240 0.000000 0.000000 
#    y 0.000000 1.718490 0.000000 
#    z 0.000000 0.000000 1.775880 
# 
# From -- ./inp_files/32806.got.cif
#   From: 2010.05.17/outbox.cif.g08.bks.cpg/sg71_17_cif.got.tgz:32806.got - 2010.06.03 16:22:01.
