data_PCOD9522521
_publ_section_title
;
Structure prediction by ZEFSAII (Michael W. Deem and Ramdas Pophale) SiO2 
 PCOD9522521
Probable space group: I M M M
;
_chemical_formula_sum "Si O2"
_cell_formula_units_Z 104
_cell_length_a 17.174865
_cell_length_b 18.075689
_cell_length_c 16.774224
_cell_angle_alpha 90.000000
_cell_angle_beta 90.000000
_cell_angle_gamma 90.000000
_cell_volume 5207.516213
_symmetry_space_group_name_H-M "I M M M"
_symmetry_group_IT_number 71
_symmetry_cell_setting 'orthorhombic'
loop_
_space_group_symop_operation_xyz
x,y,z
-x,-y,z
x,-y,-z
-x,y,-z
-x,-y,-z
x,y,-z
-x,y,z
x,-y,z
1/2+x,1/2+y,1/2+z
1/2-x,1/2-y,1/2+z
1/2+x,1/2-y,1/2-z
1/2-x,1/2+y,1/2-z
1/2-x,1/2-y,1/2-z
1/2+x,1/2+y,1/2-z
1/2-x,1/2+y,1/2+z
1/2+x,1/2-y,1/2+z
loop_
_atom_site_type_symbol
_atom_site_label
_atom_site_fract_x
_atom_site_fract_y
_atom_site_fract_z
Si Si1 0.913841 0.293221 0.090647
Si Si2 0.405876 0.677624 0.087600
Si Si3 0.092679 0.661730 0.365210
Si Si4 0.839663 0.915770 0.263394
Si Si5 0.588474 0.000000 0.905533
Si Si6 0.302586 0.820286 0.723706
Si Si7 0.089833 0.885280 0.911009
O O1 0.836517 0.317350 0.135827
O O2 0.911170 0.203927 0.090574
O O3 0.000000 0.314224 0.123322
O O4 0.911485 0.319070 0.000000
O O5 0.500000 0.676606 0.091252
O O6 0.380246 0.764076 0.089853
O O7 0.376536 0.636220 0.167224
O O8 0.382887 0.646930 0.000000
O O9 0.124537 0.579981 0.385349
O O10 0.119873 0.678421 0.276382
O O11 0.000000 0.658282 0.376886
O O12 0.750117 0.891234 0.261637
O O13 0.870729 0.907333 0.172526
O O14 0.851760 0.000000 0.287579
O O15 0.500000 0.000000 0.870438
O O16 0.581623 0.000000 0.000000
O O17 0.250000 0.750000 0.750000
O O18 0.000000 0.910378 0.908142
O O19 0.121079 0.906963 0.000000
#
# Coordination Sequence:
#
# PCOD9522521 Si02
#       7
#    16  16  16  16   8  16  16
#     4   9  18  36  64  92 115 146 198 256 301 353
#     4  10  21  39  63  88 115 156 207 248 290 355
#     4  10  20  37  62  88 117 154 196 242 291 354
#     4  12  26  40  55  84 127 163 202 254 304 355
#     4   9  18  34  58  90 121 147 182 233 291 349
#     4  12  22  38  59  87 117 156 198 244 299 365
#     4   9  18  36  63  91 118 153 198 246 300 365
#
# _framework density 19.971133999999999
#
# number of rings (size 3 to 8) (size 9 to 14) (size 15 to 20)
#    0.000    1.769    3.077    2.308    1.077    6.769 
#    0.000    3.077    0.000    0.000    0.000    1.077 
#    0.000    0.000    0.000    0.000    0.000    0.000 
#
# Total GULP energy -289529.350587 kJ/mol
# GULP energy per Si atom -5567.872127 kJ/mol
# Density = 1.992568 g / cm^3
# Si number density = 19.971134 Si / 1000 Ang^3
#
#
#
# Elastic Constant Matrix: (Units=GPa)
#
#
# Indices 1 2 3 4 5 6 
#
# 1 45.6935 17.4240 44.3392 0.0000 0.0000 0.0000
# 2 17.4240 97.5981 47.6065 0.0000 0.0000 0.0000
# 3 44.3392 47.6065 129.7130 0.0000 0.0000 0.0000
# 4 0.0000 0.0000 0.0000 13.8308 0.0000 0.0000
# 5 0.0000 0.0000 0.0000 0.0000 26.1185 0.0000
# 6 0.0000 0.0000 0.0000 0.0000 0.0000 3.5369
#
#
#
# Elastic Compliance Matrix: (Units=1/GPa)
#
#
# Indices 1 2 3 4 5 6 
#
# 1 0.032765 -0.000471 -0.011027 0.000000 0.000000 0.000000
# 2 -0.000471 0.012487 -0.004422 0.000000 0.000000 0.000000
# 3 -0.011027 -0.004422 0.013102 0.000000 0.000000 0.000000
# 4 0.000000 0.000000 0.000000 0.072302 0.000000 0.000000
# 5 0.000000 0.000000 0.000000 0.000000 0.038287 0.000000
# 6 0.000000 0.000000 0.000000 0.000000 0.000000 0.282733
#
#
# Mechanical properties :
#
#
# Convention : Reuss Voigt Hill
#
# Bulk Modulus (GPa) = 37.71614 54.63822 46.17718
# Shear Modulus (GPa) = 10.15531 19.60624 14.88078
#
# Velocity S-wave (km/s) = 2.25744 3.13665 2.73264
# Velocity P-wave (km/s) = 5.07159 6.36680 5.75574
#
# Compressibility (1/GPa) = 0.02651385
#
# Stress axis : x y z
#
# Youngs Moduli (GPa) = 30.52076 80.08243 76.32651
#
# Poissons Ratio (x) = 0.03769 0.84165
# Poissons Ratio (y) = 0.01436 0.33752
# Poissons Ratio (z) = 0.33655 0.35413
#
# Static dielectric constant tensor:
#      x y z
#    x 1.768500 0.000000 0.000000 
#    y 0.000000 1.797860 0.000000 
#    z 0.000000 0.000000 1.735900 
# 
# From -- ./inp_files/46129.got.cif
#   From: 2010.05.17/outbox.cif.g08.bks.cpg/sg71_24_cif.got.tgz:46129.got - 2010.06.03 16:22:01.
