data_PCOD9522309
_publ_section_title
;
Structure prediction by ZEFSAII (Michael W. Deem and Ramdas Pophale) SiO2 
 PCOD9522309
Probable space group: I M M M
;
_chemical_formula_sum "Si O2"
_cell_formula_units_Z 88
_cell_length_a 8.966304
_cell_length_b 27.827018
_cell_length_c 19.135400
_cell_angle_alpha 90.000000
_cell_angle_beta 90.000000
_cell_angle_gamma 90.000000
_cell_volume 4774.387598
_symmetry_space_group_name_H-M "I M M M"
_symmetry_group_IT_number 71
_symmetry_cell_setting 'orthorhombic'
loop_
_space_group_symop_operation_xyz
x,y,z
-x,-y,z
x,-y,-z
-x,y,-z
-x,-y,-z
x,y,-z
-x,y,z
x,-y,z
1/2+x,1/2+y,1/2+z
1/2-x,1/2-y,1/2+z
1/2+x,1/2-y,1/2-z
1/2-x,1/2+y,1/2-z
1/2-x,1/2-y,1/2-z
1/2+x,1/2+y,1/2-z
1/2-x,1/2+y,1/2+z
1/2+x,1/2-y,1/2+z
loop_
_atom_site_type_symbol
_atom_site_label
_atom_site_fract_x
_atom_site_fract_y
_atom_site_fract_z
Si Si1 0.679270 0.657825 0.332333
Si Si2 0.329915 0.918118 0.642917
Si Si3 0.671810 0.191983 0.690855
Si Si4 0.331419 0.442495 0.000000
Si Si5 0.321518 0.763989 0.080844
Si Si6 0.179428 0.947434 0.215121
O O1 0.500000 0.660791 0.335515
O O2 0.738245 0.685740 0.263122
O O3 0.754454 0.684528 0.397172
O O4 0.724399 0.601665 0.324381
O O5 0.500000 0.935478 0.641551
O O6 0.330670 0.861433 0.658810
O O7 0.252298 0.926810 0.569555
O O8 0.242558 0.942462 0.706671
O O9 0.500000 0.206853 0.704598
O O10 0.748375 0.226557 0.634787
O O11 0.336979 0.500000 0.000000
O O12 0.500000 0.423336 0.000000
O O13 0.500000 0.763965 0.089184
O O14 0.286706 0.752584 0.000000
O O15 0.000000 0.946433 0.218284
O O16 0.224628 0.000000 0.186535
#
# Coordination Sequence:
#
# PCOD9522309 Si02
#       6
#    16  16  16   8  16  16
#     4  10  20  36  59  84 111 144 180 221 268 320
#     4  10  21  34  50  75 104 136 177 224 269 315
#     4  10  21  37  57  80 109 143 180 223 269 321
#     4  11  23  35  47  65  97 143 185 223 270 319
#     4  11  24  39  56  80 110 144 182 225 272 323
#     4   9  18  34  56  81 107 136 174 218 265 319
#
# _framework density 18.431681999999999
#
# number of rings (size 3 to 8) (size 9 to 14) (size 15 to 20)
#    0.000    1.909    0.000    3.545    1.273    7.636 
#    0.000    0.000    0.000    0.545    0.000    3.818 
#    0.000    0.000    0.000    0.000    0.000    0.000 
#
# Total GULP energy -245683.681796 kJ/mol
# GULP energy per Si atom -5583.720041 kJ/mol
# Density = 1.838973 g / cm^3
# Si number density = 18.431682 Si / 1000 Ang^3
#
#
#
# Elastic Constant Matrix: (Units=GPa)
#
#
# Indices 1 2 3 4 5 6 
#
# 1 53.8698 26.0339 21.2091 0.0000 0.0000 0.0000
# 2 26.0339 97.4961 26.1558 0.0000 0.0000 0.0000
# 3 21.2091 26.1558 40.7315 0.0000 0.0000 0.0000
# 4 0.0000 0.0000 0.0000 6.1857 0.0000 0.0000
# 5 0.0000 0.0000 0.0000 0.0000 30.8940 0.0000
# 6 0.0000 0.0000 0.0000 0.0000 0.0000 23.8978
#
#
#
# Elastic Compliance Matrix: (Units=1/GPa)
#
#
# Indices 1 2 3 4 5 6 
#
# 1 0.024440 -0.003760 -0.010312 0.000000 0.000000 0.000000
# 2 -0.003760 0.012970 -0.006371 0.000000 0.000000 0.000000
# 3 -0.010312 -0.006371 0.034012 0.000000 0.000000 0.000000
# 4 0.000000 0.000000 0.000000 0.161664 0.000000 0.000000
# 5 0.000000 0.000000 0.000000 0.000000 0.032369 0.000000
# 6 0.000000 0.000000 0.000000 0.000000 0.000000 0.041845
#
#
# Mechanical properties :
#
#
# Convention : Reuss Voigt Hill
#
# Bulk Modulus (GPa) = 32.74752 37.65500 35.20126
# Shear Modulus (GPa) = 13.95233 20.10875 17.03054
#
# Velocity S-wave (km/s) = 2.75430 3.30659 3.04300
# Velocity P-wave (km/s) = 5.28398 5.92047 5.61126
#
# Compressibility (1/GPa) = 0.03053666
#
# Stress axis : x y z
#
# Youngs Moduli (GPa) = 40.91641 77.10141 29.40180
#
# Poissons Ratio (x) = 0.28988 0.30318
# Poissons Ratio (y) = 0.15383 0.18732
# Poissons Ratio (z) = 0.42192 0.49121
#
# Static dielectric constant tensor:
#      x y z
#    x 1.630430 0.000000 0.000000 
#    y 0.000000 1.679400 0.000000 
#    z 0.000000 0.000000 1.594530 
# 
# From -- ./inp_files/8771.got.cif
#   From: 2010.05.17/outbox.cif.g08.bks.cpg/sg71_5_cif.got.tgz:8771.got - 2010.06.03 16:22:01.
