data_PCOD9522267
_publ_section_title
;
Structure prediction by ZEFSAII (Michael W. Deem and Ramdas Pophale) SiO2 
 PCOD9522267
Probable space group: I M M M
;
_chemical_formula_sum "Si O2"
_cell_formula_units_Z 88
_cell_length_a 28.165792
_cell_length_b 7.723788
_cell_length_c 19.861467
_cell_angle_alpha 90.000000
_cell_angle_beta 90.000000
_cell_angle_gamma 90.000000
_cell_volume 4320.794741
_symmetry_space_group_name_H-M "I M M M"
_symmetry_group_IT_number 71
_symmetry_cell_setting 'orthorhombic'
loop_
_space_group_symop_operation_xyz
x,y,z
-x,-y,z
x,-y,-z
-x,y,-z
-x,-y,-z
x,y,-z
-x,y,z
x,-y,z
1/2+x,1/2+y,1/2+z
1/2-x,1/2-y,1/2+z
1/2+x,1/2-y,1/2-z
1/2-x,1/2+y,1/2-z
1/2-x,1/2-y,1/2-z
1/2+x,1/2+y,1/2-z
1/2-x,1/2+y,1/2+z
1/2+x,1/2-y,1/2+z
loop_
_atom_site_type_symbol
_atom_site_label
_atom_site_fract_x
_atom_site_fract_y
_atom_site_fract_z
Si Si1 0.727942 0.206101 0.322288
Si Si2 0.054534 0.209052 0.074733
Si Si3 0.377731 0.794578 0.303006
Si Si4 0.000000 0.711659 0.578287
Si Si5 0.904067 0.712376 0.654553
Si Si6 0.189710 0.706050 0.575654
O O1 0.750000 0.250000 0.250000
O O2 0.674264 0.276935 0.321623
O O3 0.763253 0.267968 0.380309
O O4 0.725821 0.000000 0.329172
O O5 0.087011 0.268501 0.135354
O O6 0.000000 0.265711 0.083832
O O7 0.054637 0.000000 0.074736
O O8 0.070447 0.266090 0.000000
O O9 0.398313 0.728783 0.231935
O O10 0.371386 0.000000 0.292682
O O11 0.047590 0.767132 0.617584
O O12 0.000000 0.500000 0.577947
O O13 0.000000 0.766202 0.500000
O O14 0.904782 0.500000 0.654291
O O15 0.857102 0.771117 0.614413
O O16 0.193751 0.776568 0.500000
O O17 0.182911 0.500000 0.570584
#
# Coordination Sequence:
#
# PCOD9522267 Si02
#       6
#    16  16  16   8  16  16
#     4  11  22  38  57  79 111 147 187 234 282 331
#     4   9  20  39  59  80 110 146 183 224 271 329
#     4  10  21  35  55  82 112 143 179 228 279 327
#     4   9  16  26  46  76 108 143 178 216 263 313
#     4   9  17  31  49  77 113 143 176 219 266 318
#     4  10  20  36  58  82 112 149 185 223 274 334
#
# _framework density 20.366624999999999
#
# number of rings (size 3 to 8) (size 9 to 14) (size 15 to 20)
#    0.000    2.273    1.818    1.636    1.273    5.455 
#    0.000    4.545    0.000    0.000    0.000    0.000 
#    0.000    2.909    0.000    0.000    0.000    0.000 
#
# Total GULP energy -245637.690539 kJ/mol
# GULP energy per Si atom -5582.674785 kJ/mol
# Density = 2.032027 g / cm^3
# Si number density = 20.366625 Si / 1000 Ang^3
#
#
#
# Elastic Constant Matrix: (Units=GPa)
#
#
# Indices 1 2 3 4 5 6 
#
# 1 176.3855 0.1882 134.9388 0.0000 0.0000 0.0000
# 2 0.1882 25.6633 -3.0793 0.0000 0.0000 0.0000
# 3 134.9388 -3.0793 222.3640 0.0000 0.0000 0.0000
# 4 0.0000 0.0000 0.0000 13.6860 0.0000 0.0000
# 5 0.0000 0.0000 0.0000 0.0000 35.9678 0.0000
# 6 0.0000 0.0000 0.0000 0.0000 0.0000 19.4787
#
#
#
# Elastic Compliance Matrix: (Units=1/GPa)
#
#
# Indices 1 2 3 4 5 6 
#
# 1 0.010601 -0.000851 -0.006445 0.000000 0.000000 0.000000
# 2 -0.000851 0.039099 0.001058 0.000000 0.000000 0.000000
# 3 -0.006445 0.001058 0.008423 0.000000 0.000000 0.000000
# 4 0.000000 0.000000 0.000000 0.073068 0.000000 0.000000
# 5 0.000000 0.000000 0.000000 0.000000 0.027803 0.000000
# 6 0.000000 0.000000 0.000000 0.000000 0.000000 0.051338
#
#
# Mechanical properties :
#
#
# Convention : Reuss Voigt Hill
#
# Bulk Modulus (GPa) = 21.90725 76.50092 49.20408
# Shear Modulus (GPa) = 21.00647 33.31750 27.16198
#
# Velocity S-wave (km/s) = 3.21505 4.04900 3.65588
# Velocity P-wave (km/s) = 4.95599 7.71379 6.48323
#
# Compressibility (1/GPa) = 0.04564699
#
# Stress axis : x y z
#
# Youngs Moduli (GPa) = 94.33441 25.57590 118.72791
#
# Poissons Ratio (x) = 0.02177 0.76516
# Poissons Ratio (y) = 0.08028 -0.12560
# Poissons Ratio (z) = 0.60795 -0.02706
#
# Static dielectric constant tensor:
#      x y z
#    x 1.704180 0.000000 0.000000 
#    y 0.000000 1.777530 0.000000 
#    z 0.000000 0.000000 1.693520 
# 
# From -- ./inp_files/8851.got.cif
#   From: 2010.05.17/outbox.cif.g08.bks.cpg/sg71_5_cif.got.tgz:8851.got - 2010.06.03 16:22:01.
