data_PCOD9522987
_publ_section_title
;
Structure prediction by ZEFSAII (Michael W. Deem and Ramdas Pophale) SiO2 
 PCOD9522987
Probable space group: I M M M
;
_chemical_formula_sum "Si O2"
_cell_formula_units_Z 72
_cell_length_a 20.310706
_cell_length_b 20.583888
_cell_length_c 8.613049
_cell_angle_alpha 90.000000
_cell_angle_beta 90.000000
_cell_angle_gamma 90.000000
_cell_volume 3600.885797
_symmetry_space_group_name_H-M "I M M M"
_symmetry_group_IT_number 71
_symmetry_cell_setting 'orthorhombic'
loop_
_space_group_symop_operation_xyz
x,y,z
-x,-y,z
x,-y,-z
-x,y,-z
-x,-y,-z
x,y,-z
-x,y,z
x,-y,z
1/2+x,1/2+y,1/2+z
1/2-x,1/2-y,1/2+z
1/2+x,1/2-y,1/2-z
1/2-x,1/2+y,1/2-z
1/2-x,1/2-y,1/2-z
1/2+x,1/2+y,1/2-z
1/2-x,1/2+y,1/2+z
1/2+x,1/2-y,1/2+z
loop_
_atom_site_type_symbol
_atom_site_label
_atom_site_fract_x
_atom_site_fract_y
_atom_site_fract_z
Si Si1 0.000000 0.578522 0.325078
Si Si2 0.576805 0.709090 0.684410
Si Si3 0.191992 0.706618 0.684342
Si Si4 0.644596 0.926400 0.809466
Si Si5 0.420132 0.571411 0.182110
O O1 0.929196 0.592656 0.252842
O O2 0.000000 0.500000 0.338595
O O3 0.000000 0.606459 0.500000
O O4 0.580928 0.717761 0.500000
O O5 0.500000 0.715793 0.731416
O O6 0.623507 0.760051 0.768058
O O7 0.599896 0.635840 0.726877
O O8 0.197256 0.706018 0.500000
O O9 0.250000 0.750000 0.750000
O O10 0.192170 0.631636 0.738671
O O11 0.660368 0.000000 0.760580
O O12 0.641344 0.927499 0.000000
O O13 0.500000 0.569874 0.191271
O O14 0.396794 0.500000 0.236858
O O15 0.403214 0.578170 0.000000
#
# Coordination Sequence:
#
# PCOD9522987 Si02
#       5
#     8  16  16  16  16
#     4   7  10  20  42  76 111 131 156 213 280 331
#     4  10  21  36  55  81 113 148 188 233 281 340
#     4  11  23  38  58  81 113 152 189 233 287 349
#     4   8  15  29  52  82 111 139 178 232 287 338
#     4   8  14  27  49  77 108 140 178 228 281 329
#
# _framework density 19.995077999999999
#
# number of rings (size 3 to 8) (size 9 to 14) (size 15 to 20)
#    0.000    3.000    0.000    3.333    1.556    1.778 
#    0.000    3.333    0.000    6.667    0.000    1.556 
#    0.000    0.000    0.000    0.000    0.000    0.000 
#
# Total GULP energy -200591.855894 kJ/mol
# GULP energy per Si atom -5571.995997 kJ/mol
# Density = 1.994957 g / cm^3
# Si number density = 19.995078 Si / 1000 Ang^3
#
#
#
# Elastic Constant Matrix: (Units=GPa)
#
#
# Indices 1 2 3 4 5 6 
#
# 1 56.4471 62.1446 16.0495 0.0000 0.0000 0.0000
# 2 62.1446 159.3359 25.3979 0.0000 0.0000 0.0000
# 3 16.0495 25.3979 19.6067 0.0000 0.0000 0.0000
# 4 0.0000 0.0000 0.0000 17.5415 0.0000 0.0000
# 5 0.0000 0.0000 0.0000 0.0000 22.5523 0.0000
# 6 0.0000 0.0000 0.0000 0.0000 0.0000 25.8003
#
#
#
# Elastic Compliance Matrix: (Units=1/GPa)
#
#
# Indices 1 2 3 4 5 6 
#
# 1 0.033576 -0.010982 -0.013259 0.000000 0.000000 0.000000
# 2 -0.010982 0.011501 -0.005909 0.000000 0.000000 0.000000
# 3 -0.013259 -0.005909 0.069510 0.000000 0.000000 0.000000
# 4 0.000000 0.000000 0.000000 0.057008 0.000000 0.000000
# 5 0.000000 0.000000 0.000000 0.000000 0.044341 0.000000
# 6 0.000000 0.000000 0.000000 0.000000 0.000000 0.038759
#
#
# Mechanical properties :
#
#
# Convention : Reuss Voigt Hill
#
# Bulk Modulus (GPa) = 18.42012 49.17485 33.79749
# Shear Modulus (GPa) = 15.01096 21.96533 18.48815
#
# Velocity S-wave (km/s) = 2.74292 3.31801 3.04408
# Velocity P-wave (km/s) = 4.38906 6.27103 5.41247
#
# Compressibility (1/GPa) = 0.05428846
#
# Stress axis : x y z
#
# Youngs Moduli (GPa) = 29.78319 86.94843 14.38644
#
# Poissons Ratio (x) = 0.95486 0.19075
# Poissons Ratio (y) = 0.32708 0.08500
# Poissons Ratio (z) = 0.39489 0.51374
#
# Static dielectric constant tensor:
#      x y z
#    x 1.576120 0.000000 0.000000 
#    y 0.000000 1.195030 0.000000 
#    z 0.000000 0.000000 1.696590 
# 
# From -- ./inp_files/9935.got.cif
#   From: 2010.05.17/outbox.cif.g08.bks.cpg/sg71_5_cif.got.tgz:9935.got - 2010.06.03 16:22:01.
