data_PCOD9522265
_publ_section_title
;
Structure prediction by ZEFSAII (Michael W. Deem and Ramdas Pophale) SiO2 
 PCOD9522265
Probable space group: I M M M
;
_chemical_formula_sum "Si O2"
_cell_formula_units_Z 104
_cell_length_a 11.867594
_cell_length_b 28.253908
_cell_length_c 18.553162
_cell_angle_alpha 90.000000
_cell_angle_beta 90.000000
_cell_angle_gamma 90.000000
_cell_volume 6220.984850
_symmetry_space_group_name_H-M "I M M M"
_symmetry_group_IT_number 71
_symmetry_cell_setting 'orthorhombic'
loop_
_space_group_symop_operation_xyz
x,y,z
-x,-y,z
x,-y,-z
-x,y,-z
-x,-y,-z
x,y,-z
-x,y,z
x,-y,z
1/2+x,1/2+y,1/2+z
1/2-x,1/2-y,1/2+z
1/2+x,1/2-y,1/2-z
1/2-x,1/2+y,1/2-z
1/2-x,1/2-y,1/2-z
1/2+x,1/2+y,1/2-z
1/2-x,1/2+y,1/2+z
1/2+x,1/2-y,1/2+z
loop_
_atom_site_type_symbol
_atom_site_label
_atom_site_fract_x
_atom_site_fract_y
_atom_site_fract_z
Si Si1 0.289789 0.412526 0.179441
Si Si2 0.249718 0.875816 0.915634
Si Si3 0.871382 0.280966 0.412603
Si Si4 0.000000 0.091241 0.080040
Si Si5 0.363957 0.326604 0.914511
Si Si6 0.500000 0.445365 0.732108
Si Si7 0.134523 0.555838 0.698639
Si Si8 0.363351 0.500000 0.916359
O O1 0.301694 0.363839 0.136312
O O2 0.391498 0.418932 0.236627
O O3 0.178946 0.421996 0.226391
O O4 0.313497 0.454167 0.122510
O O5 0.293756 0.824563 0.890485
O O6 0.305469 0.916012 0.866201
O O7 0.114744 0.879098 0.912829
O O8 0.282423 0.882286 0.000000
O O9 0.872752 0.280528 0.500000
O O10 0.838000 0.227567 0.392670
O O11 0.000000 0.289507 0.388498
O O12 0.000000 0.055774 0.146336
O O13 0.000000 0.069509 0.000000
O O14 0.500000 0.333237 0.907654
O O15 0.338308 0.333129 0.000000
O O16 0.500000 0.500000 0.755871
O O17 0.165861 0.500000 0.697598
O O18 0.000000 0.559635 0.692105
O O19 0.500000 0.500000 0.911962
O O20 0.334008 0.500000 0.000000
#
# Coordination Sequence:
#
# PCOD9522265 Si02
#       8
#    16  16  16   8  16   8  16   8
#     4  12  19  34  53  78 111 143 174 221 272 323
#     4  10  20  36  58  82 108 138 177 222 266 318
#     4   8  15  30  53  79 107 141 177 217 264 312
#     4  10  22  35  54  82 112 144 178 217 262 323
#     4   9  17  30  53  85 113 137 174 222 273 321
#     4  12  20  33  54  78 108 150 176 206 274 328
#     4  11  24  39  56  75 103 146 185 221 268 316
#     4  11  20  30  51  85 113 138 176 219 268 322
#
# _framework density 16.717610000000001
#
# number of rings (size 3 to 8) (size 9 to 14) (size 15 to 20)
#    0.000    1.769    4.615    1.846    0.000    2.615 
#    0.000    3.077    1.692    2.308    0.000    0.000 
#    0.000    0.000    0.000    0.000    0.000    0.000 
#
# Total GULP energy -289928.487652 kJ/mol
# GULP energy per Si atom -5575.547839 kJ/mol
# Density = 1.667956 g / cm^3
# Si number density = 16.717610 Si / 1000 Ang^3
#
#
#
# Elastic Constant Matrix: (Units=GPa)
#
#
# Indices 1 2 3 4 5 6 
#
# 1 70.0941 51.8156 35.7481 0.0000 0.0000 0.0000
# 2 51.8156 128.9124 56.8315 0.0000 0.0000 0.0000
# 3 35.7481 56.8315 100.6731 0.0001 0.0000 0.0000
# 4 0.0000 0.0000 0.0001 -50.7984 0.0000 0.0000
# 5 0.0000 0.0000 0.0000 0.0000 15.0799 0.0000
# 6 0.0000 0.0000 0.0000 0.0000 0.0000 14.1245
#
#
#
# Elastic Compliance Matrix: (Units=1/GPa)
#
#
# Indices 1 2 3 4 5 6 
#
# 1 0.021247 -0.006942 -0.003626 0.000000 0.000000 0.000000
# 2 -0.006942 0.012595 -0.004645 0.000000 0.000000 0.000000
# 3 -0.003626 -0.004645 0.013843 0.000000 0.000000 0.000000
# 4 0.000000 0.000000 0.000000 -0.019686 0.000000 0.000000
# 5 0.000000 0.000000 0.000000 0.000000 0.066313 0.000000
# 6 0.000000 0.000000 0.000000 0.000000 0.000000 0.070799
#
#
# Mechanical properties :
#
#
# Convention : Reuss Voigt Hill
#
# Bulk Modulus (GPa) = 57.93876 65.38555 61.66215
# Shear Modulus (GPa) = 24.83958 6.03348 15.43653
#
# Velocity S-wave (km/s) = 3.85883 1.90181 3.04200
# Velocity P-wave (km/s) = 7.38828 6.63470 7.02161
#
# Compressibility (1/GPa) = 0.01725960
#
# Stress axis : x y z
#
# Youngs Moduli (GPa) = 47.06472 79.39485 72.23842
#
# Poissons Ratio (x) = 0.55114 0.26194
# Poissons Ratio (y) = 0.32671 0.33557
# Poissons Ratio (z) = 0.17066 0.36881
#
# Static dielectric constant tensor:
#      x y z
#    x 1.563250 0.000000 0.000000 
#    y 0.000000 1.561370 0.000000 
#    z 0.000000 0.000000 1.568420 
# 
# From -- ./inp_files/43825.got.cif
#   From: 2010.05.17/outbox.cif.g08.bks.cpg/sg71_22_cif.got.tgz:43825.got - 2010.06.03 16:22:01.
