data_PCOD9522941
_publ_section_title
;
Structure prediction by ZEFSAII (Michael W. Deem and Ramdas Pophale) SiO2 
 PCOD9522941
Probable space group: I M M M
;
_chemical_formula_sum "Si O2"
_cell_formula_units_Z 88
_cell_length_a 12.913614
_cell_length_b 27.212129
_cell_length_c 13.689241
_cell_angle_alpha 90.000000
_cell_angle_beta 90.000000
_cell_angle_gamma 90.000000
_cell_volume 4810.494154
_symmetry_space_group_name_H-M "I M M M"
_symmetry_group_IT_number 71
_symmetry_cell_setting 'orthorhombic'
loop_
_space_group_symop_operation_xyz
x,y,z
-x,-y,z
x,-y,-z
-x,y,-z
-x,-y,-z
x,y,-z
-x,y,z
x,-y,z
1/2+x,1/2+y,1/2+z
1/2-x,1/2-y,1/2+z
1/2+x,1/2-y,1/2-z
1/2-x,1/2+y,1/2-z
1/2-x,1/2-y,1/2-z
1/2+x,1/2+y,1/2-z
1/2-x,1/2+y,1/2+z
1/2+x,1/2-y,1/2+z
loop_
_atom_site_type_symbol
_atom_site_label
_atom_site_fract_x
_atom_site_fract_y
_atom_site_fract_z
Si Si1 0.880079 0.287492 0.759549
Si Si2 0.123232 0.905102 0.891974
Si Si3 0.291909 0.704371 0.386967
Si Si4 0.000000 0.444276 0.118376
Si Si5 0.622691 0.444244 0.181876
Si Si6 0.195071 0.622598 0.885551
O O1 0.821948 0.285603 0.656216
O O2 0.865690 0.236615 0.817769
O O3 0.819814 0.328530 0.822710
O O4 0.000000 0.300195 0.751889
O O5 0.180591 0.853125 0.879652
O O6 0.142909 0.938705 0.798249
O O7 0.000000 0.895031 0.891697
O O8 0.149040 0.925361 0.000000
O O9 0.302650 0.718755 0.500000
O O10 0.896852 0.414629 0.145674
O O11 0.000000 0.500000 0.155523
O O12 0.000000 0.446468 0.000000
O O13 0.500000 0.435547 0.165465
O O14 0.646462 0.500000 0.150170
O O15 0.696454 0.404818 0.131048
O O16 0.181330 0.633886 0.000000
#
# Coordination Sequence:
#
# PCOD9522941 Si02
#       6
#    16  16  16   8  16  16
#     4  11  22  37  59  86 114 145 183 227 277 332
#     4   9  17  32  55  80 106 138 179 227 275 325
#     4  10  21  37  58  84 113 146 181 221 272 331
#     4   9  18  32  52  76 103 141 185 229 273 317
#     4  10  21  36  54  78 110 147 188 234 284 337
#     4  11  21  35  54  80 112 145 187 234 277 330
#
# _framework density 18.293340000000001
#
# number of rings (size 3 to 8) (size 9 to 14) (size 15 to 20)
#    0.000    1.909    2.727    1.636    0.000    4.000 
#    0.000    2.727    0.000    2.182    0.000    0.000 
#    0.000    5.818    0.000    0.000    0.000    0.000 
#
# Total GULP energy -245486.073679 kJ/mol
# GULP energy per Si atom -5579.228947 kJ/mol
# Density = 1.825170 g / cm^3
# Si number density = 18.293340 Si / 1000 Ang^3
#
#
#
# Elastic Constant Matrix: (Units=GPa)
#
#
# Indices 1 2 3 4 5 6 
#
# 1 51.6281 2.3600 -6.8176 0.0000 0.0000 0.0000
# 2 2.3600 31.1720 -19.5937 -0.0001 0.0000 0.0000
# 3 -6.8176 -19.5937 22.8306 -0.0004 0.0001 0.0001
# 4 0.0000 -0.0001 -0.0004 16.4290 0.0000 0.0000
# 5 0.0000 0.0000 0.0001 0.0000 17.2120 0.0000
# 6 0.0000 0.0000 0.0001 0.0000 0.0000 24.7181
#
#
#
# Elastic Compliance Matrix: (Units=1/GPa)
#
#
# Indices 1 2 3 4 5 6 
#
# 1 0.020516 0.004989 0.010408 0.000000 0.000000 0.000000
# 2 0.004989 0.070869 0.062311 0.000002 0.000000 0.000000
# 3 0.010408 0.062311 0.100385 0.000003 0.000000 0.000000
# 4 0.000000 0.000002 0.000003 0.060868 0.000000 0.000000
# 5 0.000000 0.000000 0.000000 0.000000 0.058099 0.000000
# 6 0.000000 0.000000 0.000000 0.000000 0.000000 0.040456
#
#
# Mechanical properties :
#
#
# Convention : Reuss Voigt Hill
#
# Bulk Modulus (GPa) = 2.88031 6.39202 4.63617
# Shear Modulus (GPa) = 16.05101 20.31727 18.18414
#
# Velocity S-wave (km/s) = 2.96535 3.33624 3.15625
# Velocity P-wave (km/s) = 3.64723 4.28280 3.97773
#
# Compressibility (1/GPa) = 0.34718497
#
# Stress axis : x y z
#
# Youngs Moduli (GPa) = 48.74338 14.11054 9.96160
#
# Poissons Ratio (x) = -0.07039 -0.10368
# Poissons Ratio (y) = -0.24317 -0.62072
# Poissons Ratio (z) = -0.50731 -0.87924
#
# Static dielectric constant tensor:
#      x y z
#    x 1.612990 0.000000 0.000000 
#    y 0.000000 1.622370 0.000000 
#    z 0.000000 0.000000 1.630890 
# 
# From -- ./inp_files/20289.got.cif
#   From: 2010.05.17/outbox.cif.g08.bks.cpg/sg71_11_cif.got.tgz:20289.got - 2010.06.03 16:22:01.
