data_PCOD9522154
_publ_section_title
;
Structure prediction by ZEFSAII (Michael W. Deem and Ramdas Pophale) SiO2 
 PCOD9522154
Probable space group: I M M M
;
_chemical_formula_sum "Si O2"
_cell_formula_units_Z 88
_cell_length_a 18.168845
_cell_length_b 14.753815
_cell_length_c 16.231692
_cell_angle_alpha 90.000000
_cell_angle_beta 90.000000
_cell_angle_gamma 90.000000
_cell_volume 4351.063752
_symmetry_space_group_name_H-M "I M M M"
_symmetry_group_IT_number 71
_symmetry_cell_setting 'orthorhombic'
loop_
_space_group_symop_operation_xyz
x,y,z
-x,-y,z
x,-y,-z
-x,y,-z
-x,-y,-z
x,y,-z
-x,y,z
x,-y,z
1/2+x,1/2+y,1/2+z
1/2-x,1/2-y,1/2+z
1/2+x,1/2-y,1/2-z
1/2-x,1/2+y,1/2-z
1/2-x,1/2-y,1/2-z
1/2+x,1/2+y,1/2-z
1/2-x,1/2+y,1/2+z
1/2+x,1/2-y,1/2+z
loop_
_atom_site_type_symbol
_atom_site_label
_atom_site_fract_x
_atom_site_fract_y
_atom_site_fract_z
Si Si1 0.500000 0.394604 0.399357
Si Si2 0.848379 0.805125 0.097208
Si Si3 0.803012 0.599720 0.867272
Si Si4 0.844551 0.182171 0.404416
Si Si5 0.000000 0.900053 0.400329
Si Si6 0.199031 0.639002 0.675630
Si Si7 0.414168 0.000000 0.098289
O O1 0.500000 0.500000 0.374434
O O2 0.500000 0.392945 0.500000
O O3 0.573565 0.342482 0.372295
O O4 0.840546 0.695506 0.106883
O O5 0.781443 0.860230 0.139077
O O6 0.842226 0.823091 0.000000
O O7 0.833476 0.500000 0.891121
O O8 0.719606 0.607980 0.900322
O O9 0.801093 0.605749 0.768555
O O10 0.845441 0.216772 0.500000
O O11 0.924581 0.148705 0.380667
O O12 0.821962 0.256788 0.338075
O O13 0.000000 0.906407 0.500000
O O14 0.000000 0.000000 0.364459
O O15 0.135590 0.584051 0.628095
O O16 0.500000 0.000000 0.127930
O O17 0.417201 0.000000 0.000000
#
# Coordination Sequence:
#
# PCOD9522154 Si02
#       7
#     8  16  16  16   8  16   8
#     4   9  20  38  62  93 120 146 190 256 312 355
#     4  10  21  39  64  91 119 156 204 251 301 362
#     4  11  22  39  58  84 121 164 202 248 300 366
#     4  10  20  35  60  86 117 158 204 252 303 359
#     4   9  18  32  53  87 120 150 193 248 300 351
#     4  11  22  40  57  87 120 157 198 247 302 362
#     4  11  24  40  62  89 118 154 203 249 292 356
#
# _framework density 20.22494
#
# number of rings (size 3 to 8) (size 9 to 14) (size 15 to 20)
#    0.000    1.727    0.909    6.000    2.545    2.182 
#    1.636    3.182    0.000    6.000    0.000    0.000 
#    0.000    0.000    0.000    0.000    0.000    0.000 
#
# Total GULP energy -245414.183048 kJ/mol
# GULP energy per Si atom -5577.595069 kJ/mol
# Density = 2.017891 g / cm^3
# Si number density = 20.224940 Si / 1000 Ang^3
#
#
#
# Elastic Constant Matrix: (Units=GPa)
#
#
# Indices 1 2 3 4 5 6 
#
# 1 178.0102 51.4825 18.6782 0.0000 0.0000 0.0000
# 2 51.4825 85.4524 -4.0744 0.0000 0.0000 0.0000
# 3 18.6782 -4.0744 56.3945 0.0000 0.0000 0.0000
# 4 0.0000 0.0000 0.0000 43.2992 0.0000 0.0000
# 5 0.0000 0.0000 0.0000 0.0000 3.3659 0.0000
# 6 0.0000 0.0000 0.0000 0.0000 0.0000 69.8299
#
#
#
# Elastic Compliance Matrix: (Units=1/GPa)
#
#
# Indices 1 2 3 4 5 6 
#
# 1 0.007192 -0.004462 -0.002704 0.000000 0.000000 0.000000
# 2 -0.004462 0.014511 0.002526 0.000000 0.000000 0.000000
# 3 -0.002704 0.002526 0.018810 0.000000 0.000000 0.000000
# 4 0.000000 0.000000 0.000000 0.023095 0.000000 0.000000
# 5 0.000000 0.000000 0.000000 0.000000 0.297099 0.000000
# 6 0.000000 0.000000 0.000000 0.000000 0.000000 0.014321
#
#
# Mechanical properties :
#
#
# Convention : Reuss Voigt Hill
#
# Bulk Modulus (GPa) = 32.01715 50.22553 41.12134
# Shear Modulus (GPa) = 12.66725 40.21706 26.44215
#
# Velocity S-wave (km/s) = 2.50535 4.46408 3.61973
# Velocity P-wave (km/s) = 4.92280 7.17343 6.15191
#
# Compressibility (1/GPa) = 0.03123326
#
# Stress axis : x y z
#
# Youngs Moduli (GPa) = 139.04705 68.91345 53.16205
#
# Poissons Ratio (x) = 0.30748 0.14377
# Poissons Ratio (y) = 0.62040 -0.13430
# Poissons Ratio (z) = 0.37603 -0.17409
#
# Static dielectric constant tensor:
#      x y z
#    x 4.724090 0.000000 0.000000 
#    y 0.000000 1.797800 0.000000 
#    z 0.000000 0.000000 1.698020 
# 
# From -- ./inp_files/45915.got.cif
#   From: 2010.05.17/outbox.cif.g08.bks.cpg/sg71_23_cif.got.tgz:45915.got - 2010.06.03 16:22:01.
