data_PCOD9522035
_publ_section_title
;
Structure prediction by ZEFSAII (Michael W. Deem and Ramdas Pophale) SiO2 
 PCOD9522035
Probable space group: I M M M
;
_chemical_formula_sum "Si O2"
_cell_formula_units_Z 96
_cell_length_a 12.813407
_cell_length_b 24.458200
_cell_length_c 14.997081
_cell_angle_alpha 90.000000
_cell_angle_beta 90.000000
_cell_angle_gamma 90.000000
_cell_volume 4699.978273
_symmetry_space_group_name_H-M "I M M M"
_symmetry_group_IT_number 71
_symmetry_cell_setting 'orthorhombic'
loop_
_space_group_symop_operation_xyz
x,y,z
-x,-y,z
x,-y,-z
-x,y,-z
-x,-y,-z
x,y,-z
-x,y,z
x,-y,z
1/2+x,1/2+y,1/2+z
1/2-x,1/2-y,1/2+z
1/2+x,1/2-y,1/2-z
1/2-x,1/2+y,1/2-z
1/2-x,1/2-y,1/2-z
1/2+x,1/2+y,1/2-z
1/2-x,1/2+y,1/2+z
1/2+x,1/2-y,1/2+z
loop_
_atom_site_type_symbol
_atom_site_label
_atom_site_fract_x
_atom_site_fract_y
_atom_site_fract_z
Si Si1 0.228763 0.787303 0.661597
Si Si2 0.659470 0.000000 0.102078
Si Si3 0.875813 0.315422 0.404945
Si Si4 0.372011 0.168855 0.500000
Si Si5 0.175792 0.909476 0.684709
Si Si6 0.612831 0.500000 0.322731
Si Si7 0.884512 0.596341 0.731210
Si Si8 0.226733 0.938413 0.500000
O O1 0.250000 0.750000 0.750000
O O2 0.155399 0.747018 0.605268
O O3 0.324196 0.802985 0.592043
O O4 0.170384 0.843778 0.686940
O O5 0.615070 0.948062 0.153453
O O6 0.784851 0.000000 0.115865
O O7 0.631566 0.000000 0.000000
O O8 0.834176 0.336825 0.500000
O O9 0.842719 0.349974 0.319061
O O10 0.000000 0.321476 0.405672
O O11 0.500000 0.168707 0.500000
O O12 0.315845 0.109083 0.500000
O O13 0.299609 0.921950 0.698599
O O14 0.154629 0.929555 0.586197
O O15 0.121855 0.946121 0.759747
O O16 0.500000 0.500000 0.367678
O O17 0.000000 0.604690 0.767907
O O18 0.269310 0.000000 0.500000
#
# Coordination Sequence:
#
# PCOD9522035 Si02
#       8
#    16   8  16   8  16   8  16   8
#     4  11  21  38  63  84 119 163 198 250 303 358
#     4  10  21  37  59  85 114 147 181 225 292 356
#     4  10  20  35  57  85 112 146 193 244 296 353
#     4  10  24  41  61  94 129 161 205 253 304 372
#     4  10  21  37  60  84 115 156 195 241 296 349
#     4  10  22  41  61  83 114 149 196 246 284 339
#     4  10  20  35  57  85 116 146 185 235 290 355
#     4  10  20  39  62  86 119 156 195 243 304 363
#
# _framework density 20.425626999999999
#
# number of rings (size 3 to 8) (size 9 to 14) (size 15 to 20)
#    0.000    1.833    3.333    0.750    0.000    5.667 
#    0.000    0.833    0.000    0.000    0.000    0.000 
#    0.000    0.000    0.000    0.000    0.000    0.000 
#
# Total GULP energy -267389.422913 kJ/mol
# GULP energy per Si atom -5570.612977 kJ/mol
# Density = 2.037914 g / cm^3
# Si number density = 20.425627 Si / 1000 Ang^3
#
#
#
# Elastic Constant Matrix: (Units=GPa)
#
#
# Indices 1 2 3 4 5 6 
#
# 1 51.0860 -0.4636 -8.6036 0.0000 0.0000 0.0000
# 2 -0.4636 119.7913 9.6278 0.0000 0.0000 0.0000
# 3 -8.6036 9.6278 73.8565 0.0000 0.0000 0.0000
# 4 0.0000 0.0000 0.0000 29.2494 0.0000 0.0000
# 5 0.0000 0.0000 0.0000 0.0000 6.2466 0.0000
# 6 0.0000 0.0000 0.0000 0.0000 0.0000 14.3647
#
#
#
# Elastic Compliance Matrix: (Units=1/GPa)
#
#
# Indices 1 2 3 4 5 6 
#
# 1 0.019968 -0.000111 0.002341 0.000000 0.000000 0.000000
# 2 -0.000111 0.008437 -0.001113 0.000000 0.000000 0.000000
# 3 0.002341 -0.001113 0.013957 0.000000 0.000000 0.000000
# 4 0.000000 0.000000 0.000000 0.034189 0.000000 0.000000
# 5 0.000000 0.000000 0.000000 0.000000 0.160088 0.000000
# 6 0.000000 0.000000 0.000000 0.000000 0.000000 0.069615
#
#
# Mechanical properties :
#
#
# Convention : Reuss Voigt Hill
#
# Bulk Modulus (GPa) = 22.42340 27.31724 24.87032
# Shear Modulus (GPa) = 15.67960 26.25035 20.96498
#
# Velocity S-wave (km/s) = 2.77364 3.58881 3.20723
# Velocity P-wave (km/s) = 4.61079 5.52954 5.09093
#
# Compressibility (1/GPa) = 0.04459628
#
# Stress axis : x y z
#
# Youngs Moduli (GPa) = 50.08012 118.52759 71.64621
#
# Poissons Ratio (x) = 0.01314 -0.16769
# Poissons Ratio (y) = 0.00555 0.07972
# Poissons Ratio (z) = -0.11721 0.13189
#
# Static dielectric constant tensor:
#      x y z
#    x 1.710330 0.000000 0.000000 
#    y 0.000000 1.774710 0.000000 
#    z 0.000000 0.000000 1.826500 
# 
# From -- ./inp_files/34839.got.cif
#   From: 2010.05.17/outbox.cif.g08.bks.cpg/sg71_18_cif.got.tgz:34839.got - 2010.06.03 16:22:01.
