data_PCOD9522952
_publ_section_title
;
Structure prediction by ZEFSAII (Michael W. Deem and Ramdas Pophale) SiO2 
 PCOD9522952
Probable space group: I M M M
;
_chemical_formula_sum "Si O2"
_cell_formula_units_Z 100
_cell_length_a 19.899039
_cell_length_b 9.091237
_cell_length_c 29.759600
_cell_angle_alpha 90.000000
_cell_angle_beta 90.000000
_cell_angle_gamma 90.000000
_cell_volume 5383.716375
_symmetry_space_group_name_H-M "I M M M"
_symmetry_group_IT_number 71
_symmetry_cell_setting 'orthorhombic'
loop_
_space_group_symop_operation_xyz
x,y,z
-x,-y,z
x,-y,-z
-x,y,-z
-x,-y,-z
x,y,-z
-x,y,z
x,-y,z
1/2+x,1/2+y,1/2+z
1/2-x,1/2-y,1/2+z
1/2+x,1/2-y,1/2-z
1/2-x,1/2+y,1/2-z
1/2-x,1/2-y,1/2-z
1/2+x,1/2+y,1/2-z
1/2-x,1/2+y,1/2+z
1/2+x,1/2-y,1/2+z
loop_
_atom_site_type_symbol
_atom_site_label
_atom_site_fract_x
_atom_site_fract_y
_atom_site_fract_z
Si Si1 0.674142 0.675842 0.948463
Si Si2 0.805425 0.172248 0.718952
Si Si3 0.079528 0.674086 0.880651
Si Si4 0.000000 0.500000 0.340537
Si Si5 0.077121 0.170440 0.789219
Si Si6 0.133995 0.337495 0.636602
Si Si7 0.818703 0.826768 0.052324
O O1 0.674630 0.500000 0.943910
O O2 0.629561 0.750111 0.910025
O O3 0.748958 0.740077 0.941331
O O4 0.654336 0.712153 0.000000
O O5 0.750000 0.250000 0.750000
O O6 0.874135 0.184667 0.747340
O O7 0.819423 0.251455 0.671806
O O8 0.789280 0.000000 0.712683
O O9 0.089544 0.500000 0.885404
O O10 0.097562 0.726315 0.830409
O O11 0.124696 0.760807 0.915755
O O12 0.000000 0.706019 0.886548
O O13 0.939544 0.374045 0.343540
O O14 0.000000 0.204321 0.777173
O O15 0.080088 0.000000 0.804604
O O16 0.164062 0.500000 0.627631
O O17 0.809075 0.000000 0.060786
O O18 0.838022 0.808873 0.000000
#
# Coordination Sequence:
#
# PCOD9522952 Si02
#       7
#    16  16  16   4  16  16  16
#     4  10  21  39  64  93 124 161 204 257 318 378
#     4  11  24  40  61  93 127 165 209 260 315 364
#     4  10  21  36  54  80 114 155 202 252 304 358
#     4   8  24  44  67  98 124 176 208 252 321 374
#     4   9  20  38  59  81 111 155 202 247 299 362
#     4  10  22  42  65  92 126 163 207 251 307 373
#     4  10  21  36  57  84 114 155 202 249 308 372
#
# _framework density 18.574531
#
# number of rings (size 3 to 8) (size 9 to 14) (size 15 to 20)
#    0.480    1.600    0.000    2.400    3.360    4.480 
#    0.000    3.600    0.000    0.960    0.000    0.000 
#    0.000    0.000    0.000    0.000    0.000    0.000 
#
# Total GULP energy -278445.799261 kJ/mol
# GULP energy per Si atom -5568.915985 kJ/mol
# Density = 1.853225 g / cm^3
# Si number density = 18.574531 Si / 1000 Ang^3
#
#
#
# Elastic Constant Matrix: (Units=GPa)
#
#
# Indices 1 2 3 4 5 6 
#
# 1 23.7603 26.4764 21.6847 0.0000 0.0000 0.0000
# 2 26.4764 92.8415 43.7742 0.0000 0.0000 0.0000
# 3 21.6847 43.7742 57.1124 0.0000 0.0000 0.0000
# 4 0.0000 0.0000 0.0000 28.7606 0.0000 0.0000
# 5 0.0000 0.0000 0.0000 0.0000 14.6557 0.0000
# 6 0.0000 0.0000 0.0000 0.0000 0.0000 38.7004
#
#
#
# Elastic Compliance Matrix: (Units=1/GPa)
#
#
# Indices 1 2 3 4 5 6 
#
# 1 0.072001 -0.011969 -0.018164 0.000000 0.000000 0.000000
# 2 -0.011969 0.018856 -0.009908 0.000000 0.000000 0.000000
# 3 -0.018164 -0.009908 0.032000 0.000000 0.000000 0.000000
# 4 0.000000 0.000000 0.000000 0.034770 0.000000 0.000000
# 5 0.000000 0.000000 0.000000 0.000000 0.068233 0.000000
# 6 0.000000 0.000000 0.000000 0.000000 0.000000 0.025839
#
#
# Mechanical properties :
#
#
# Convention : Reuss Voigt Hill
#
# Bulk Modulus (GPa) = 23.37793 39.73165 31.55479
# Shear Modulus (GPa) = 14.44923 21.87527 18.16225
#
# Velocity S-wave (km/s) = 2.79212 3.43549 3.13038
# Velocity P-wave (km/s) = 4.79666 6.09702 5.48551
#
# Compressibility (1/GPa) = 0.04277539
#
# Stress axis : x y z
#
# Youngs Moduli (GPa) = 13.88861 53.03424 31.25020
#
# Poissons Ratio (x) = 0.63477 0.56763
# Poissons Ratio (y) = 0.16623 0.30962
# Poissons Ratio (z) = 0.25227 0.52545
#
# Static dielectric constant tensor:
#      x y z
#    x 1.625280 0.000000 0.000000 
#    y 0.000000 1.640480 0.000000 
#    z 0.000000 0.000000 1.636530 
# 
# From -- ./inp_files/66429.got.cif
#   From: 2010.05.17/outbox.cif.g08.bks.cpg/sg71_34_cif.got.tgz:66429.got - 2010.06.03 16:22:01.
