data_PCOD9522250
_publ_section_title
;
Structure prediction by ZEFSAII (Michael W. Deem and Ramdas Pophale) SiO2 
 PCOD9522250
Probable space group: I M M M
;
_chemical_formula_sum "Si O2"
_cell_formula_units_Z 80
_cell_length_a 20.956222
_cell_length_b 7.850620
_cell_length_c 23.839265
_cell_angle_alpha 90.000000
_cell_angle_beta 90.000000
_cell_angle_gamma 90.000000
_cell_volume 3922.020038
_symmetry_space_group_name_H-M "I M M M"
_symmetry_group_IT_number 71
_symmetry_cell_setting 'orthorhombic'
loop_
_space_group_symop_operation_xyz
x,y,z
-x,-y,z
x,-y,-z
-x,y,-z
-x,-y,-z
x,y,-z
-x,y,z
x,-y,z
1/2+x,1/2+y,1/2+z
1/2-x,1/2-y,1/2+z
1/2+x,1/2-y,1/2-z
1/2-x,1/2+y,1/2-z
1/2-x,1/2-y,1/2-z
1/2+x,1/2+y,1/2-z
1/2-x,1/2+y,1/2+z
1/2+x,1/2-y,1/2+z
loop_
_atom_site_type_symbol
_atom_site_label
_atom_site_fract_x
_atom_site_fract_y
_atom_site_fract_z
Si Si1 0.126296 0.297798 0.368248
Si Si2 0.500000 0.204784 0.564243
Si Si3 0.374575 0.299295 0.367222
Si Si4 0.749385 0.290788 0.434864
Si Si5 0.426804 0.797004 0.752063
Si Si6 0.000000 0.795109 0.564622
O O1 0.137516 0.500000 0.362155
O O2 0.187515 0.231300 0.401901
O O3 0.110493 0.227342 0.306326
O O4 0.062825 0.270493 0.404446
O O5 0.500000 0.262707 0.500000
O O6 0.562815 0.266722 0.595799
O O7 0.500000 0.000000 0.565646
O O8 0.365364 0.500000 0.360594
O O9 0.312979 0.232814 0.400607
O O10 0.389259 0.229557 0.305547
O O11 0.748663 0.236745 0.500000
O O12 0.749209 0.500000 0.435795
O O13 0.500000 0.729882 0.748358
O O14 0.432555 0.000000 0.760224
O O15 0.000000 0.740678 0.500000
O O16 0.000000 0.000000 0.566829
#
# Coordination Sequence:
#
# PCOD9522250 Si02
#       6
#    16   8  16  16  16   8
#     4  10  20  38  63  85 108 151 198 234 279 338
#     4  11  23  38  57  82 111 148 194 239 284 337
#     4  11  22  36  58  86 115 151 190 232 287 341
#     4   9  19  36  58  86 117 145 185 241 287 332
#     4  10  20  36  57  84 118 148 187 241 285 329
#     4  11  23  36  53  84 121 150 184 237 290 335
#
# _framework density 20.397651
#
# number of rings (size 3 to 8) (size 9 to 14) (size 15 to 20)
#    0.000    1.800    2.000    2.400    0.000    4.800 
#    0.000    2.000    0.000    4.800    0.000    0.000 
#    0.000    0.000    0.000    0.000    0.000    0.000 
#
# Total GULP energy -223445.583002 kJ/mol
# GULP energy per Si atom -5586.139575 kJ/mol
# Density = 2.035123 g / cm^3
# Si number density = 20.397651 Si / 1000 Ang^3
#
#
#
# Elastic Constant Matrix: (Units=GPa)
#
#
# Indices 1 2 3 4 5 6 
#
# 1 194.9161 -9.7901 111.9966 0.0000 0.0000 0.0000
# 2 -9.7901 17.2394 -5.0723 0.0000 0.0000 0.0000
# 3 111.9966 -5.0723 223.5145 0.0000 0.0000 0.0000
# 4 0.0000 0.0000 0.0000 26.5603 0.0000 0.0000
# 5 0.0000 0.0000 0.0000 0.0000 27.8433 0.0000
# 6 0.0000 0.0000 0.0000 0.0000 0.0000 -26.0926
#
#
#
# Elastic Compliance Matrix: (Units=1/GPa)
#
#
# Indices 1 2 3 4 5 6 
#
# 1 0.007368 0.003119 -0.003621 0.000000 0.000000 0.000000
# 2 0.003119 0.059717 -0.000207 0.000000 0.000000 0.000000
# 3 -0.003621 -0.000207 0.006284 0.000000 0.000000 0.000000
# 4 0.000000 0.000000 0.000000 0.037650 0.000000 0.000000
# 5 0.000000 0.000000 0.000000 0.000000 0.035915 0.000000
# 6 0.000000 0.000000 0.000000 0.000000 0.000000 -0.038325
#
#
# Mechanical properties :
#
#
# Convention : Reuss Voigt Hill
#
# Bulk Modulus (GPa) = 13.89884 69.99314 41.94599
# Shear Modulus (GPa) = 37.31042 28.23124 32.77083
#
# Velocity S-wave (km/s) = 4.28150 3.72431 4.01259
# Velocity P-wave (km/s) = 5.59199 7.27205 6.48665
#
# Compressibility (1/GPa) = 0.07194846
#
# Stress axis : x y z
#
# Youngs Moduli (GPa) = 135.72963 16.74571 159.14428
#
# Poissons Ratio (x) = -0.05222 0.57625
# Poissons Ratio (y) = -0.42329 0.03302
# Poissons Ratio (z) = 0.49146 0.00347
#
# Static dielectric constant tensor:
#      x y z
#    x 1.692580 0.000000 0.000000 
#    y 0.000000 1.757080 0.000000 
#    z 0.000000 0.000000 1.709170 
# 
# From -- ./inp_files/61045.got.cif
#   From: 2010.05.17/outbox.cif.g08.bks.cpg/sg71_31_cif.got.tgz:61045.got - 2010.06.03 16:22:01.
