data_PCOD9522480
_publ_section_title
;
Structure prediction by ZEFSAII (Michael W. Deem and Ramdas Pophale) SiO2 
 PCOD9522480
Probable space group: I M M M
;
_chemical_formula_sum "Si O2"
_cell_formula_units_Z 88
_cell_length_a 22.165931
_cell_length_b 25.594315
_cell_length_c 7.946910
_cell_angle_alpha 90.000000
_cell_angle_beta 90.000000
_cell_angle_gamma 90.000000
_cell_volume 4508.455447
_symmetry_space_group_name_H-M "I M M M"
_symmetry_group_IT_number 71
_symmetry_cell_setting 'orthorhombic'
loop_
_space_group_symop_operation_xyz
x,y,z
-x,-y,z
x,-y,-z
-x,y,-z
-x,-y,-z
x,y,-z
-x,y,z
x,-y,z
1/2+x,1/2+y,1/2+z
1/2-x,1/2-y,1/2+z
1/2+x,1/2-y,1/2-z
1/2-x,1/2+y,1/2-z
1/2-x,1/2-y,1/2-z
1/2+x,1/2+y,1/2-z
1/2-x,1/2+y,1/2+z
1/2+x,1/2-y,1/2+z
loop_
_atom_site_type_symbol
_atom_site_label
_atom_site_fract_x
_atom_site_fract_y
_atom_site_fract_z
Si Si1 0.156900 0.800194 0.191784
Si Si2 0.570674 0.387593 0.801953
Si Si3 0.929378 0.000000 0.798687
Si Si4 0.735045 0.874154 0.806954
Si Si5 0.566799 0.868261 0.500000
Si Si6 0.888377 0.309111 0.317476
Si Si7 0.810822 0.562122 0.000000
O O1 0.105198 0.843745 0.200485
O O2 0.216055 0.831210 0.252274
O O3 0.134594 0.749792 0.290388
O O4 0.168769 0.783403 0.000000
O O5 0.500000 0.387840 0.756077
O O6 0.596333 0.445496 0.766994
O O7 0.575962 0.376361 0.000000
O O8 0.000000 0.000000 0.743184
O O9 0.927601 0.000000 0.000000
O O10 0.671560 0.844468 0.818098
O O11 0.725141 0.918250 0.666320
O O12 0.751291 0.890876 0.000000
O O13 0.500000 0.892848 0.500000
O O14 0.573559 0.831043 0.337280
O O15 0.623314 0.908768 0.500000
O O16 0.918432 0.313518 0.500000
O O17 0.818000 0.500000 0.000000
#
# Coordination Sequence:
#
# PCOD9522480 Si02
#       7
#    16  16   8  16   8  16   8
#     4  11  21  35  55  84 115 151 197 241 295 353
#     4  10  21  35  50  71 101 140 187 236 284 341
#     4   9  17  33  53  67  87 129 179 229 281 326
#     4   9  21  38  59  88 119 152 195 247 297 361
#     4  10  22  41  62  92 128 160 203 250 298 365
#     4  10  20  37  60  86 120 158 192 239 299 354
#     4  10  22  41  66  92 121 162 203 250 312 359
#
# _framework density 19.518879999999999
#
# number of rings (size 3 to 8) (size 9 to 14) (size 15 to 20)
#    0.000    2.091    0.909    1.909    2.545    3.818 
#    1.636    0.000    0.000    0.000    0.000    5.091 
#    0.000    0.000    0.000    0.000    0.000    0.000 
#
# Total GULP energy -245496.110184 kJ/mol
# GULP energy per Si atom -5579.457050 kJ/mol
# Density = 1.947445 g / cm^3
# Si number density = 19.518880 Si / 1000 Ang^3
#
#
#
# Elastic Constant Matrix: (Units=GPa)
#
#
# Indices 1 2 3 4 5 6 
#
# 1 13.4333 -10.9462 -0.0953 0.0000 0.0000 0.0000
# 2 -10.9462 87.9430 43.7444 0.0000 0.0000 0.0000
# 3 -0.0953 43.7444 78.5459 0.0000 0.0000 0.0000
# 4 0.0000 0.0000 0.0000 39.0324 0.0000 0.0000
# 5 0.0000 0.0000 0.0000 0.0000 0.6665 0.0000
# 6 0.0000 0.0000 0.0000 0.0000 0.0000 3.5712
#
#
#
# Elastic Compliance Matrix: (Units=1/GPa)
#
#
# Indices 1 2 3 4 5 6 
#
# 1 0.086454 0.014812 -0.008144 0.000000 0.000000 0.000000
# 2 0.014812 0.018266 -0.010155 0.000000 0.000000 0.000000
# 3 -0.008144 -0.010155 0.018377 0.000000 0.000000 0.000000
# 4 0.000000 0.000000 0.000000 0.025620 0.000000 0.000000
# 5 0.000000 0.000000 0.000000 0.000000 1.500449 0.000000
# 6 0.000000 0.000000 0.000000 0.000000 0.000000 0.280016
#
#
# Mechanical properties :
#
#
# Convention : Reuss Voigt Hill
#
# Bulk Modulus (GPa) = 8.61158 27.25866 17.93512
# Shear Modulus (GPa) = 2.53182 18.46864 10.50023
#
# Velocity S-wave (km/s) = 1.14014 3.07936 2.32190
# Velocity P-wave (km/s) = 2.48088 5.16129 4.04930
#
# Compressibility (1/GPa) = 0.11612269
#
# Stress axis : x y z
#
# Youngs Moduli (GPa) = 11.56684 54.74716 54.41591
#
# Poissons Ratio (x) = -0.81092 0.44318
# Poissons Ratio (y) = -0.17133 0.55258
# Poissons Ratio (z) = 0.09420 0.55594
#
# Static dielectric constant tensor:
#      x y z
#    x 1.688770 0.000000 0.000000 
#    y 0.000000 1.649470 0.000000 
#    z 0.000000 0.000000 1.724820 
# 
# From -- ./inp_files/12578.got.cif
#   From: 2010.05.17/outbox.cif.g08.bks.cpg/sg71_7_cif.got.tgz:12578.got - 2010.06.03 16:22:01.
