data_PCOD9522394
_publ_section_title
;
Structure prediction by ZEFSAII (Michael W. Deem and Ramdas Pophale) SiO2 
 PCOD9522394
Probable space group: I M M M
;
_chemical_formula_sum "Si O2"
_cell_formula_units_Z 88
_cell_length_a 23.242144
_cell_length_b 8.695959
_cell_length_c 22.806990
_cell_angle_alpha 90.000000
_cell_angle_beta 90.000000
_cell_angle_gamma 90.000000
_cell_volume 4609.583042
_symmetry_space_group_name_H-M "I M M M"
_symmetry_group_IT_number 71
_symmetry_cell_setting 'orthorhombic'
loop_
_space_group_symop_operation_xyz
x,y,z
-x,-y,z
x,-y,-z
-x,y,-z
-x,-y,-z
x,y,-z
-x,y,z
x,-y,z
1/2+x,1/2+y,1/2+z
1/2-x,1/2-y,1/2+z
1/2+x,1/2-y,1/2-z
1/2-x,1/2+y,1/2-z
1/2-x,1/2-y,1/2-z
1/2+x,1/2+y,1/2-z
1/2-x,1/2+y,1/2+z
1/2+x,1/2-y,1/2+z
loop_
_atom_site_type_symbol
_atom_site_label
_atom_site_fract_x
_atom_site_fract_y
_atom_site_fract_z
Si Si1 0.293194 0.177335 0.000000
Si Si2 0.212231 0.313935 0.373084
Si Si3 0.589116 0.183788 0.161982
Si Si4 0.500000 0.315172 0.069146
Si Si5 0.562537 0.682431 0.286828
Si Si6 0.327749 0.180066 0.500000
Si Si7 0.660408 0.819165 0.631985
O O1 0.308894 0.243920 0.062611
O O2 0.224347 0.198912 0.000000
O O3 0.311386 0.000000 0.000000
O O4 0.219234 0.500000 0.375481
O O5 0.157236 0.277453 0.334019
O O6 0.274357 0.243137 0.360054
O O7 0.554848 0.255469 0.106902
O O8 0.563973 0.240059 0.223196
O O9 0.584380 0.000000 0.156211
O O10 0.500000 0.500000 0.070044
O O11 0.500000 0.266484 0.000000
O O12 0.500000 0.717751 0.314261
O O13 0.566791 0.500000 0.278742
O O14 0.614841 0.738785 0.326415
O O15 0.356682 0.201374 0.563160
O O16 0.306566 0.000000 0.500000
O O17 0.660909 0.000000 0.644503
#
# Coordination Sequence:
#
# PCOD9522394 Si02
#       7
#     8  16  16   8  16   8  16
#     4   8  14  28  50  76 112 150 183 222 276 343
#     4   9  19  34  55  86 119 151 190 239 297 350
#     4  11  23  39  63  89 117 155 202 251 296 347
#     4  11  25  43  61  87 125 166 205 248 297 347
#     4  11  24  42  62  82 113 155 198 244 299 357
#     4   8  16  32  53  83 117 146 180 229 283 337
#     4  10  20  36  61  89 119 153 193 238 291 354
#
# _framework density 19.090664
#
# number of rings (size 3 to 8) (size 9 to 14) (size 15 to 20)
#    0.000    2.091    0.909    1.909    1.273    4.727 
#    0.000    0.455    0.000    2.727    0.000    0.000 
#    0.000    0.000    0.000    0.000    0.000    0.000 
#
# Total GULP energy -245162.816264 kJ/mol
# GULP energy per Si atom -5571.882188 kJ/mol
# Density = 1.904721 g / cm^3
# Si number density = 19.090664 Si / 1000 Ang^3
#
#
#
# Elastic Constant Matrix: (Units=GPa)
#
#
# Indices 1 2 3 4 5 6 
#
# 1 129.3076 41.1353 59.1575 0.0000 0.0000 0.0000
# 2 41.1353 56.5294 33.8819 0.0000 0.0000 0.0000
# 3 59.1575 33.8819 79.8306 0.0000 0.0000 0.0000
# 4 0.0000 0.0000 0.0000 27.0616 0.0000 0.0000
# 5 0.0000 0.0000 0.0000 0.0000 25.3155 0.0000
# 6 0.0000 0.0000 0.0000 0.0000 0.0000 23.9081
#
#
#
# Elastic Compliance Matrix: (Units=1/GPa)
#
#
# Indices 1 2 3 4 5 6 
#
# 1 0.012598 -0.004791 -0.007303 0.000000 0.000000 0.000000
# 2 -0.004791 0.025547 -0.007293 0.000000 0.000000 0.000000
# 3 -0.007303 -0.007293 0.021033 0.000000 0.000000 0.000000
# 4 0.000000 0.000000 0.000000 0.036953 0.000000 0.000000
# 5 0.000000 0.000000 0.000000 0.000000 0.039502 0.000000
# 6 0.000000 0.000000 0.000000 0.000000 0.000000 0.041827
#
#
# Mechanical properties :
#
#
# Convention : Reuss Voigt Hill
#
# Bulk Modulus (GPa) = 49.00349 59.33522 54.16935
# Shear Modulus (GPa) = 22.41811 24.02321 23.22066
#
# Velocity S-wave (km/s) = 3.43052 3.55121 3.49138
# Velocity P-wave (km/s) = 6.43551 6.92553 6.68501
#
# Compressibility (1/GPa) = 0.02040671
#
# Stress axis : x y z
#
# Youngs Moduli (GPa) = 79.37513 39.14361 47.54375
#
# Poissons Ratio (x) = 0.18752 0.34720
# Poissons Ratio (y) = 0.38026 0.34672
# Poissons Ratio (z) = 0.57965 0.28546
#
# Static dielectric constant tensor:
#      x y z
#    x 1.651200 0.000000 0.000000 
#    y 0.000000 1.653370 0.000000 
#    z 0.000000 0.000000 1.698420 
# 
# From -- ./inp_files/55595.got.cif
#   From: 2010.05.17/outbox.cif.g08.bks.cpg/sg71_28_cif.got.tgz:55595.got - 2010.06.03 16:22:01.
