data_PCOD9522834
_publ_section_title
;
Structure prediction by ZEFSAII (Michael W. Deem and Ramdas Pophale) SiO2 
 PCOD9522834
Probable space group: I M M M
;
_chemical_formula_sum "Si O2"
_cell_formula_units_Z 64
_cell_length_a 26.694327
_cell_length_b 8.499754
_cell_length_c 15.202497
_cell_angle_alpha 90.000000
_cell_angle_beta 90.000000
_cell_angle_gamma 90.000000
_cell_volume 3449.373790
_symmetry_space_group_name_H-M "I M M M"
_symmetry_group_IT_number 71
_symmetry_cell_setting 'orthorhombic'
loop_
_space_group_symop_operation_xyz
x,y,z
-x,-y,z
x,-y,-z
-x,y,-z
-x,-y,-z
x,y,-z
-x,y,z
x,-y,z
1/2+x,1/2+y,1/2+z
1/2-x,1/2-y,1/2+z
1/2+x,1/2-y,1/2-z
1/2-x,1/2+y,1/2-z
1/2-x,1/2-y,1/2-z
1/2+x,1/2+y,1/2-z
1/2-x,1/2+y,1/2+z
1/2+x,1/2-y,1/2+z
loop_
_atom_site_type_symbol
_atom_site_label
_atom_site_fract_x
_atom_site_fract_y
_atom_site_fract_z
Si Si1 0.393194 0.310980 0.664429
Si Si2 0.865830 0.810034 0.640935
Si Si3 0.829879 0.310904 0.000000
Si Si4 0.784969 0.191612 0.500000
Si Si5 0.442567 0.811301 0.000000
Si Si6 0.000000 0.688919 0.896604
O O1 0.393571 0.500000 0.662598
O O2 0.371378 0.257828 0.758646
O O3 0.359073 0.248617 0.585523
O O4 0.449677 0.251558 0.648731
O O5 0.816738 0.758391 0.585982
O O6 0.912967 0.751818 0.584526
O O7 0.865833 0.000000 0.640118
O O8 0.772236 0.255440 0.000000
O O9 0.830583 0.500000 0.000000
O O10 0.784462 0.000000 0.500000
O O11 0.500000 0.759516 0.000000
O O12 0.440868 0.000000 0.000000
O O13 0.000000 0.500000 0.893685
O O14 0.000000 0.736639 0.000000
#
# Coordination Sequence:
#
# PCOD9522834 Si02
#       6
#    16  16   8   8   8   8
#     4  11  23  38  59  87 116 149 193 238 282 336
#     4   9  20  39  60  82 111 151 192 232 281 337
#     4  11  22  37  59  85 114 153 192 233 290 339
#     4   8  17  38  62  82 112 150 190 235 280 337
#     4  10  21  35  53  83 116 147 184 234 287 334
#     4  11  23  39  59  82 114 155 190 230 291 345
#
# _framework density 18.554093000000002
#
# number of rings (size 3 to 8) (size 9 to 14) (size 15 to 20)
#    0.000    2.000    1.250    2.625    1.750    4.500 
#    0.000    5.000    0.000    0.000    0.000    0.000 
#    0.000    0.000    0.000    0.000    0.000    0.000 
#
# Total GULP energy -178685.642055 kJ/mol
# GULP energy per Si atom -5583.926314 kJ/mol
# Density = 1.851186 g / cm^3
# Si number density = 18.554093 Si / 1000 Ang^3
#
#
#
# Elastic Constant Matrix: (Units=GPa)
#
#
# Indices 1 2 3 4 5 6 
#
# 1 195.1515 25.9069 104.7937 0.0000 0.0000 0.0000
# 2 25.9069 26.9034 32.5477 0.0000 0.0000 0.0000
# 3 104.7937 32.5477 200.7067 0.0000 0.0000 0.0000
# 4 0.0000 0.0000 0.0000 1062.4171 0.0000 0.0000
# 5 0.0000 0.0000 0.0000 0.0000 10.6549 0.0000
# 6 0.0000 0.0000 0.0000 0.0000 0.0000 7.0683
#
#
#
# Elastic Compliance Matrix: (Units=1/GPa)
#
#
# Indices 1 2 3 4 5 6 
#
# 1 0.007312 -0.003014 -0.003329 0.000000 0.000000 0.000000
# 2 -0.003014 0.047484 -0.006127 0.000000 0.000000 0.000000
# 3 -0.003329 -0.006127 0.007714 0.000000 0.000000 0.000000
# 4 0.000000 0.000000 0.000000 0.000941 0.000000 0.000000
# 5 0.000000 0.000000 0.000000 0.000000 0.093854 0.000000
# 6 0.000000 0.000000 0.000000 0.000000 0.000000 0.141476
#
#
# Mechanical properties :
#
#
# Convention : Reuss Voigt Hill
#
# Bulk Modulus (GPa) = 26.61607 83.25093 54.93350
# Shear Modulus (GPa) = 14.87013 233.32894 124.09953
#
# Velocity S-wave (km/s) = 2.83406 11.22627 8.18721
# Velocity P-wave (km/s) = 5.00854 14.59471 10.91079
#
# Compressibility (1/GPa) = 0.03757128
#
# Stress axis : x y z
#
# Youngs Moduli (GPa) = 136.76271 21.05964 129.63259
#
# Poissons Ratio (x) = 0.06347 0.43155
# Poissons Ratio (y) = 0.41216 0.79423
# Poissons Ratio (z) = 0.45529 0.12903
#
# Static dielectric constant tensor:
#      x y z
#    x 1.615680 0.000000 0.000000 
#    y 0.000000 1.632450 0.000000 
#    z 0.000000 0.000000 1.635710 
# 
# From -- ./inp_files/12025.got.cif
#   From: 2010.05.17/outbox.cif.g08.bks.cpg/sg71_7_cif.got.tgz:12025.got - 2010.06.03 16:22:01.
