data_PCOD9522464
_publ_section_title
;
Structure prediction by ZEFSAII (Michael W. Deem and Ramdas Pophale) SiO2 
 PCOD9522464
Probable space group: I M M M
;
_chemical_formula_sum "Si O2"
_cell_formula_units_Z 88
_cell_length_a 14.307397
_cell_length_b 14.485577
_cell_length_c 23.944752
_cell_angle_alpha 90.000000
_cell_angle_beta 90.000000
_cell_angle_gamma 90.000000
_cell_volume 4962.571424
_symmetry_space_group_name_H-M "I M M M"
_symmetry_group_IT_number 71
_symmetry_cell_setting 'orthorhombic'
loop_
_space_group_symop_operation_xyz
x,y,z
-x,-y,z
x,-y,-z
-x,y,-z
-x,-y,-z
x,y,-z
-x,y,z
x,-y,z
1/2+x,1/2+y,1/2+z
1/2-x,1/2-y,1/2+z
1/2+x,1/2-y,1/2-z
1/2-x,1/2+y,1/2-z
1/2-x,1/2-y,1/2-z
1/2+x,1/2+y,1/2-z
1/2-x,1/2+y,1/2+z
1/2+x,1/2-y,1/2+z
loop_
_atom_site_type_symbol
_atom_site_label
_atom_site_fract_x
_atom_site_fract_y
_atom_site_fract_z
Si Si1 0.886861 0.500000 0.063173
Si Si2 0.791996 0.264672 0.361562
Si Si3 0.109252 0.337618 0.852388
Si Si4 0.112912 0.108584 0.564786
Si Si5 0.889431 0.395926 0.725050
Si Si6 0.601244 0.106674 0.933802
O O1 0.863397 0.409778 0.099068
O O2 0.000000 0.500000 0.060219
O O3 0.849988 0.500000 0.000000
O O4 0.683660 0.243954 0.353565
O O5 0.841515 0.173260 0.387751
O O6 0.837955 0.312768 0.307132
O O7 0.813458 0.340263 0.408270
O O8 0.118991 0.384432 0.791677
O O9 0.000000 0.312589 0.859393
O O10 0.137967 0.134943 0.500000
O O11 0.000000 0.115888 0.568256
O O12 0.137170 0.000000 0.572052
O O13 0.856542 0.500000 0.710143
O O14 0.000000 0.391228 0.712088
O O15 0.500000 0.146623 0.915710
O O16 0.602238 0.000000 0.917708
O O17 0.603190 0.111581 0.000000
#
# Coordination Sequence:
#
# PCOD9522464 Si02
#       6
#     8  16  16  16  16  16
#     4   9  18  36  60  78  97 135 186 232 275 320
#     4  12  21  30  54  85 105 138 186 229 265 329
#     4  10  22  39  54  75 109 144 177 228 285 323
#     4   9  19  34  49  72 113 155 183 217 272 334
#     4  10  20  37  60  81 107 140 178 229 284 333
#     4   9  18  33  53  80 114 144 175 224 278 323
#
# _framework density 17.732741999999998
#
# number of rings (size 3 to 8) (size 9 to 14) (size 15 to 20)
#    0.000    2.091    0.909    4.364    1.273    4.364 
#    0.000    0.000    0.000    2.182    0.000    3.818 
#    0.000    0.000    0.000    0.000    0.000    0.000 
#
# Total GULP energy -245356.986493 kJ/mol
# GULP energy per Si atom -5576.295148 kJ/mol
# Density = 1.769238 g / cm^3
# Si number density = 17.732742 Si / 1000 Ang^3
#
#
#
# Elastic Constant Matrix: (Units=GPa)
#
#
# Indices 1 2 3 4 5 6 
#
# 1 92.3186 54.0612 37.7918 0.0000 0.0000 0.0000
# 2 54.0612 89.4987 44.5324 0.0000 0.0000 0.0000
# 3 37.7918 44.5324 113.4647 0.0000 0.0000 0.0000
# 4 0.0000 0.0000 0.0000 36.5441 0.0000 0.0000
# 5 0.0000 0.0000 0.0000 0.0000 38.4428 0.0000
# 6 0.0000 0.0000 0.0000 0.0000 0.0000 27.0557
#
#
#
# Elastic Compliance Matrix: (Units=1/GPa)
#
#
# Indices 1 2 3 4 5 6 
#
# 1 0.017134 -0.009333 -0.002044 0.000000 0.000000 0.000000
# 2 -0.009333 0.018968 -0.004336 0.000000 0.000000 0.000000
# 3 -0.002044 -0.004336 0.011196 0.000000 0.000000 0.000000
# 4 0.000000 0.000000 0.000000 0.027364 0.000000 0.000000
# 5 0.000000 0.000000 0.000000 0.000000 0.026013 0.000000
# 6 0.000000 0.000000 0.000000 0.000000 0.000000 0.036961
#
#
# Mechanical properties :
#
#
# Convention : Reuss Voigt Hill
#
# Bulk Modulus (GPa) = 63.00178 63.11697 63.05938
# Shear Modulus (GPa) = 28.67758 31.00161 29.83960
#
# Velocity S-wave (km/s) = 4.02582 4.18577 4.10657
# Velocity P-wave (km/s) = 7.56408 7.68320 7.62387
#
# Compressibility (1/GPa) = 0.01587257
#
# Stress axis : x y z
#
# Youngs Moduli (GPa) = 58.36388 52.71965 89.31796
#
# Poissons Ratio (x) = 0.49201 0.18256
# Poissons Ratio (y) = 0.54469 0.38730
# Poissons Ratio (z) = 0.11929 0.22860
#
# Static dielectric constant tensor:
#      x y z
#    x 1.589440 0.000000 0.000000 
#    y 0.000000 1.614090 0.000000 
#    z 0.000000 0.000000 1.638780 
# 
# From -- ./inp_files/39145.got.cif
#   From: 2010.05.17/outbox.cif.g08.bks.cpg/sg71_20_cif.got.tgz:39145.got - 2010.06.03 16:22:01.
