data_PCOD9522399
_publ_section_title
;
Structure prediction by ZEFSAII (Michael W. Deem and Ramdas Pophale) SiO2 
 PCOD9522399
Probable space group: I M M M
;
_chemical_formula_sum "Si O2"
_cell_formula_units_Z 88
_cell_length_a 24.222739
_cell_length_b 10.085281
_cell_length_c 18.996404
_cell_angle_alpha 90.000000
_cell_angle_beta 90.000000
_cell_angle_gamma 90.000000
_cell_volume 4640.690981
_symmetry_space_group_name_H-M "I M M M"
_symmetry_group_IT_number 71
_symmetry_cell_setting 'orthorhombic'
loop_
_space_group_symop_operation_xyz
x,y,z
-x,-y,z
x,-y,-z
-x,y,-z
-x,-y,-z
x,y,-z
-x,y,z
x,-y,z
1/2+x,1/2+y,1/2+z
1/2-x,1/2-y,1/2+z
1/2+x,1/2-y,1/2-z
1/2-x,1/2+y,1/2-z
1/2-x,1/2-y,1/2-z
1/2+x,1/2+y,1/2-z
1/2-x,1/2+y,1/2+z
1/2+x,1/2-y,1/2+z
loop_
_atom_site_type_symbol
_atom_site_label
_atom_site_fract_x
_atom_site_fract_y
_atom_site_fract_z
Si Si1 0.593359 0.242753 0.807864
Si Si2 0.000000 0.837927 0.584162
Si Si3 0.651152 0.000000 0.583929
Si Si4 0.603116 0.500000 0.578171
Si Si5 0.936801 0.000000 0.228255
Si Si6 0.782557 0.650944 0.698147
Si Si7 0.198927 0.212887 0.920053
Si Si8 0.061655 0.500000 0.207910
O O1 0.553490 0.277842 0.874156
O O2 0.592954 0.372601 0.759331
O O3 0.656561 0.202675 0.821870
O O4 0.569540 0.125860 0.759036
O O5 0.000000 0.806865 0.500000
O O6 0.000000 0.000000 0.589420
O O7 0.685623 0.865859 0.595832
O O8 0.634405 0.000000 0.500000
O O9 0.603045 0.000000 0.642007
O O10 0.578318 0.500000 0.500000
O O11 0.563901 0.500000 0.644449
O O12 0.642906 0.372297 0.584908
O O13 0.000000 0.000000 0.252861
O O14 0.787329 0.500000 0.726232
O O15 0.750000 0.750000 0.750000
O O16 0.744139 0.652420 0.630165
O O17 0.218183 0.203664 0.000000
O O18 0.000000 0.500000 0.179181
#
# Coordination Sequence:
#
# PCOD9522399 Si02
#       8
#    16   8   8   8   8  16  16   8
#     4  12  24  42  64  99 128 166 220 272 334 386
#     4  11  24  49  75  97 128 175 227 279 335 405
#     4  10  22  40  61  93 129 174 219 259 305 376
#     4  10  20  36  61  91 125 170 213 257 311 378
#     4  12  22  40  65  89 127 171 214 262 320 385
#     4  12  26  40  65  98 133 168 216 270 325 394
#     4  10  22  41  62  86 126 170 211 254 318 381
#     4  12  22  38  65  91 135 169 212 268 324 379
#
# _framework density 18.962693000000002
#
# number of rings (size 3 to 8) (size 9 to 14) (size 15 to 20)
#    0.000    0.818    4.545    3.273    2.545    1.091 
#    0.000    0.909    0.000    5.455    0.000    0.000 
#    0.000    0.000    0.000    0.000    0.000    0.000 
#
# Total GULP energy -245719.458673 kJ/mol
# GULP energy per Si atom -5584.533152 kJ/mol
# Density = 1.891953 g / cm^3
# Si number density = 18.962693 Si / 1000 Ang^3
#
#
#
# Elastic Constant Matrix: (Units=GPa)
#
#
# Indices 1 2 3 4 5 6 
#
# 1 90.9750 25.9834 60.1186 0.0000 0.0000 0.0000
# 2 25.9834 150.0517 41.6145 0.0000 0.0000 0.0000
# 3 60.1186 41.6145 129.9428 0.0000 0.0000 0.0000
# 4 0.0000 0.0000 0.0000 29.9115 0.0000 0.0000
# 5 0.0000 0.0000 0.0000 0.0000 36.1853 0.0000
# 6 0.0000 0.0000 0.0000 0.0000 0.0000 16.5631
#
#
#
# Elastic Compliance Matrix: (Units=1/GPa)
#
#
# Indices 1 2 3 4 5 6 
#
# 1 0.015916 -0.000783 -0.007113 0.000000 0.000000 0.000000
# 2 -0.000783 0.007353 -0.001992 0.000000 0.000000 0.000000
# 3 -0.007113 -0.001992 0.011624 0.000000 0.000000 0.000000
# 4 0.000000 0.000000 0.000000 0.033432 0.000000 0.000000
# 5 0.000000 0.000000 0.000000 0.000000 0.027636 0.000000
# 6 0.000000 0.000000 0.000000 0.000000 0.000000 0.060375
#
#
# Mechanical properties :
#
#
# Convention : Reuss Voigt Hill
#
# Bulk Modulus (GPa) = 66.15396 69.60031 67.87713
# Shear Modulus (GPa) = 27.60123 32.74884 30.17503
#
# Velocity S-wave (km/s) = 3.81931 4.16024 3.99342
# Velocity P-wave (km/s) = 7.37642 7.73695 7.55883
#
# Compressibility (1/GPa) = 0.01511625
#
# Stress axis : x y z
#
# Youngs Moduli (GPa) = 62.82960 136.00735 86.02572
#
# Poissons Ratio (x) = 0.10656 0.61188
# Poissons Ratio (y) = 0.04923 0.17138
# Poissons Ratio (z) = 0.44689 0.27095
#
# Static dielectric constant tensor:
#      x y z
#    x 1.668290 0.000000 0.000000 
#    y 0.000000 1.648120 0.000000 
#    z 0.000000 0.000000 1.669860 
# 
# From -- ./inp_files/55643.got.cif
#   From: 2010.05.17/outbox.cif.g08.bks.cpg/sg71_28_cif.got.tgz:55643.got - 2010.06.03 16:22:01.
