data_PCOD9522301
_publ_section_title
;
Structure prediction by ZEFSAII (Michael W. Deem and Ramdas Pophale) SiO2 
 PCOD9522301
Probable space group: I M M M
;
_chemical_formula_sum "Si O2"
_cell_formula_units_Z 88
_cell_length_a 21.211749
_cell_length_b 9.029738
_cell_length_c 24.377827
_cell_angle_alpha 90.000000
_cell_angle_beta 90.000000
_cell_angle_gamma 90.000000
_cell_volume 4669.244539
_symmetry_space_group_name_H-M "I M M M"
_symmetry_group_IT_number 71
_symmetry_cell_setting 'orthorhombic'
loop_
_space_group_symop_operation_xyz
x,y,z
-x,-y,z
x,-y,-z
-x,y,-z
-x,-y,-z
x,y,-z
-x,y,z
x,-y,z
1/2+x,1/2+y,1/2+z
1/2-x,1/2-y,1/2+z
1/2+x,1/2-y,1/2-z
1/2-x,1/2+y,1/2-z
1/2-x,1/2-y,1/2-z
1/2+x,1/2+y,1/2-z
1/2-x,1/2+y,1/2+z
1/2+x,1/2-y,1/2+z
loop_
_atom_site_type_symbol
_atom_site_label
_atom_site_fract_x
_atom_site_fract_y
_atom_site_fract_z
Si Si1 0.304363 0.170175 0.715440
Si Si2 0.929252 0.822917 0.823774
Si Si3 0.397718 0.820010 0.439442
Si Si4 0.374153 0.330877 0.933950
Si Si5 0.761401 0.329772 0.089453
Si Si6 0.000000 0.330692 0.567039
O O1 0.250000 0.250000 0.750000
O O2 0.372037 0.251560 0.710908
O O3 0.278564 0.168095 0.653208
O O4 0.312667 0.000000 0.733479
O O5 0.926195 0.755251 0.885551
O O6 0.000000 0.793058 0.802224
O O7 0.920310 0.000000 0.826653
O O8 0.424215 0.787090 0.500000
O O9 0.324171 0.771352 0.439036
O O10 0.399863 0.000000 0.432199
O O11 0.376200 0.500000 0.913120
O O12 0.306825 0.259811 0.919339
O O13 0.436102 0.247539 0.914176
O O14 0.376868 0.335636 0.000000
O O15 0.754639 0.500000 0.069477
O O16 0.000000 0.500000 0.583617
O O17 0.000000 0.324964 0.500000
#
# Coordination Sequence:
#
# PCOD9522301 Si02
#       6
#    16  16  16  16  16   8
#     4  10  20  36  59  82 104 131 168 215 268 324
#     4  10  21  36  54  78 109 144 182 223 266 314
#     4   9  17  30  49  75 108 144 180 217 259 310
#     4   9  15  25  44  66  88 119 160 198 232 281
#     4   8  15  28  48  73  97 124 162 207 251 298
#     4   9  17  27  37  55  87 123 155 189 233 281
#
# _framework density 18.846730999999998
#
# number of rings (size 3 to 8) (size 9 to 14) (size 15 to 20)
#    0.000    2.818    0.000    3.000    0.000    5.455 
#    0.000    6.364    2.000    4.364    0.000    0.000 
#    0.000    0.000    0.000    0.000    0.000    0.000 
#
# Total GULP energy -245043.881018 kJ/mol
# GULP energy per Si atom -5569.179114 kJ/mol
# Density = 1.880383 g / cm^3
# Si number density = 18.846731 Si / 1000 Ang^3
#
#
#
# Elastic Constant Matrix: (Units=GPa)
#
#
# Indices 1 2 3 4 5 6 
#
# 1 179.5711 62.8114 21.7771 0.0000 0.0000 0.0000
# 2 62.8114 79.9666 19.6649 0.0000 0.0000 0.0000
# 3 21.7771 19.6649 40.4883 0.0000 0.0000 0.0000
# 4 0.0000 0.0000 0.0000 17.2865 0.0000 0.0000
# 5 0.0000 0.0000 0.0000 0.0000 -4.7277 0.0000
# 6 0.0000 0.0000 0.0000 0.0000 0.0000 22.4777
#
#
#
# Elastic Compliance Matrix: (Units=1/GPa)
#
#
# Indices 1 2 3 4 5 6 
#
# 1 0.007745 -0.005745 -0.001375 0.000000 0.000000 0.000000
# 2 -0.005745 0.018463 -0.005877 0.000000 0.000000 0.000000
# 3 -0.001375 -0.005877 0.028293 0.000000 0.000000 0.000000
# 4 0.000000 0.000000 0.000000 0.057849 0.000000 0.000000
# 5 0.000000 0.000000 0.000000 0.000000 -0.211519 0.000000
# 6 0.000000 0.000000 0.000000 0.000000 0.000000 0.044489
#
#
# Mechanical properties :
#
#
# Convention : Reuss Voigt Hill
#
# Bulk Modulus (GPa) = 35.08123 56.50366 45.79245
# Shear Modulus (GPa) = -260.66270 20.05878 -120.30196
#
# Velocity S-wave (km/s) = -11.77314 3.26592 -7.99814
# Velocity P-wave (km/s) = 12.89010 6.65337 7.80665
#
# Compressibility (1/GPa) = 0.02850527
#
# Stress axis : x y z
#
# Youngs Moduli (GPa) = 129.11031 54.16103 35.34463
#
# Poissons Ratio (x) = 0.31118 0.04861
# Poissons Ratio (y) = 0.74180 0.20773
# Poissons Ratio (z) = 0.17757 0.31832
#
# Static dielectric constant tensor:
#      x y z
#    x 1.699150 0.000000 0.000000 
#    y 0.000000 1.651230 0.000000 
#    z 0.000000 0.000000 1.651690 
# 
# From -- ./inp_files/70666.got.cif
#   From: 2010.05.17/outbox.cif.g08.bks.cpg/sg71_36_cif.got.tgz:70666.got - 2010.06.03 16:22:01.
