data_PCOD9522220
_publ_section_title
;
Structure prediction by ZEFSAII (Michael W. Deem and Ramdas Pophale) SiO2 
 PCOD9522220
Probable space group: I M M M
;
_chemical_formula_sum "Si O2"
_cell_formula_units_Z 104
_cell_length_a 26.331424
_cell_length_b 8.394695
_cell_length_c 20.561701
_cell_angle_alpha 90.000000
_cell_angle_beta 90.000000
_cell_angle_gamma 90.000000
_cell_volume 4545.046257
_symmetry_space_group_name_H-M "I M M M"
_symmetry_group_IT_number 71
_symmetry_cell_setting 'orthorhombic'
loop_
_space_group_symop_operation_xyz
x,y,z
-x,-y,z
x,-y,-z
-x,y,-z
-x,-y,-z
x,y,-z
-x,y,z
x,-y,z
1/2+x,1/2+y,1/2+z
1/2-x,1/2-y,1/2+z
1/2+x,1/2-y,1/2-z
1/2-x,1/2+y,1/2-z
1/2-x,1/2-y,1/2-z
1/2+x,1/2+y,1/2-z
1/2-x,1/2+y,1/2+z
1/2+x,1/2-y,1/2+z
loop_
_atom_site_type_symbol
_atom_site_label
_atom_site_fract_x
_atom_site_fract_y
_atom_site_fract_z
Si Si1 0.944800 0.308763 0.212968
Si Si2 0.335405 0.192465 0.251184
Si Si3 0.688803 0.186559 0.600249
Si Si4 0.081761 0.812592 0.929200
Si Si5 0.708940 0.185247 0.879259
Si Si6 0.500000 0.182942 0.079748
Si Si7 0.393624 0.677555 0.077722
O O1 0.944663 0.500000 0.220322
O O2 0.893844 0.248212 0.248507
O O3 0.938069 0.272197 0.135868
O O4 0.000000 0.247561 0.234266
O O5 0.314486 0.223220 0.322690
O O6 0.300445 0.253834 0.193349
O O7 0.337223 0.000000 0.243062
O O8 0.642602 0.284893 0.570785
O O9 0.746370 0.227105 0.582397
O O10 0.678297 0.000000 0.589691
O O11 0.070663 0.000000 0.923415
O O12 0.062655 0.756426 0.000000
O O13 0.652979 0.206410 0.908440
O O14 0.723151 0.000000 0.876681
O O15 0.551882 0.263945 0.102470
O O16 0.500000 0.000000 0.100431
O O17 0.500000 0.185875 0.000000
O O18 0.381460 0.500000 0.101815
O O19 0.398690 0.669499 0.000000
#
# Coordination Sequence:
#
# PCOD9522220 Si02
#       7
#    16  16  16  16  16   8  16
#     4   9  18  35  58  81 109 145 183 223 267 319
#     4   8  17  34  54  79 107 139 178 219 268 319
#     4  10  20  36  57  78 105 141 180 221 269 324
#     4  10  21  36  54  79 111 145 182 225 273 323
#     4  11  21  34  54  82 111 139 178 223 269 321
#     4   9  17  33  57  79  99 129 169 211 258 309
#     4  10  21  37  55  76 106 142 177 216 263 315
#
# _framework density 22.882055000000001
#
# number of rings (size 3 to 8) (size 9 to 14) (size 15 to 20)
#    0.000    2.385    0.000    3.462    0.000    4.308 
#    1.385    8.462    0.000    0.000    0.000    0.000 
#    0.000    0.000    0.000    0.000    0.000    0.000 
#
# Total GULP energy -290395.130456 kJ/mol
# GULP energy per Si atom -5584.521740 kJ/mol
# Density = 2.282997 g / cm^3
# Si number density = 22.882055 Si / 1000 Ang^3
#
#
#
# Elastic Constant Matrix: (Units=GPa)
#
#
# Indices 1 2 3 4 5 6 
#
# 1 126.7617 -6.7307 1.4166 0.0000 0.0000 0.0000
# 2 -6.7307 26.0873 0.9250 0.0000 0.0000 0.0000
# 3 1.4166 0.9250 42.6080 0.0000 0.0000 0.0000
# 4 0.0000 0.0000 0.0000 13.4112 0.0000 0.0000
# 5 0.0000 0.0000 0.0000 0.0000 -56.2225 0.0000
# 6 0.0000 0.0000 0.0000 0.0000 0.0000 21.4205
#
#
#
# Elastic Compliance Matrix: (Units=1/GPa)
#
#
# Indices 1 2 3 4 5 6 
#
# 1 0.008003 0.002076 -0.000311 0.000000 0.000000 0.000000
# 2 0.002076 0.038901 -0.000914 0.000000 0.000000 0.000000
# 3 -0.000311 -0.000914 0.023500 0.000000 0.000000 0.000000
# 4 0.000000 0.000000 0.000000 0.074565 0.000000 0.000000
# 5 0.000000 0.000000 0.000000 0.000000 -0.017786 0.000000
# 6 0.000000 0.000000 0.000000 0.000000 0.000000 0.046684
#
#
# Mechanical properties :
#
#
# Convention : Reuss Voigt Hill
#
# Bulk Modulus (GPa) = 13.86858 20.74208 17.30533
# Shear Modulus (GPa) = 25.48440 9.04492 17.26466
#
# Velocity S-wave (km/s) = 3.34088 1.99033 2.74981
# Velocity P-wave (km/s) = 4.57777 3.79030 4.20252
#
# Compressibility (1/GPa) = 0.07210543
#
# Stress axis : x y z
#
# Youngs Moduli (GPa) = 124.96081 25.70644 42.55326
#
# Poissons Ratio (x) = -0.05336 0.01324
# Poissons Ratio (y) = -0.25939 0.03887
# Poissons Ratio (z) = 0.03888 0.02348
#
# Static dielectric constant tensor:
#      x y z
#    x 1.885980 0.000000 0.000000 
#    y 0.000000 1.812100 0.000000 
#    z 0.000000 0.000000 1.919610 
# 
# From -- ./inp_files/56264.got.cif
#   From: 2010.05.17/outbox.cif.g08.bks.cpg/sg71_29_cif.got.tgz:56264.got - 2010.06.03 16:22:01.
