data_PCOD9522236
_publ_section_title
;
Structure prediction by ZEFSAII (Michael W. Deem and Ramdas Pophale) SiO2 
 PCOD9522236
Probable space group: I M M M
;
_chemical_formula_sum "Si O2"
_cell_formula_units_Z 76
_cell_length_a 12.855667
_cell_length_b 10.421553
_cell_length_c 27.751468
_cell_angle_alpha 90.000000
_cell_angle_beta 90.000000
_cell_angle_gamma 90.000000
_cell_volume 3718.031093
_symmetry_space_group_name_H-M "I M M M"
_symmetry_group_IT_number 71
_symmetry_cell_setting 'orthorhombic'
loop_
_space_group_symop_operation_xyz
x,y,z
-x,-y,z
x,-y,-z
-x,y,-z
-x,-y,-z
x,y,-z
-x,y,z
x,-y,z
1/2+x,1/2+y,1/2+z
1/2-x,1/2-y,1/2+z
1/2+x,1/2-y,1/2-z
1/2-x,1/2+y,1/2-z
1/2-x,1/2-y,1/2-z
1/2+x,1/2+y,1/2-z
1/2-x,1/2+y,1/2+z
1/2+x,1/2-y,1/2+z
loop_
_atom_site_type_symbol
_atom_site_label
_atom_site_fract_x
_atom_site_fract_y
_atom_site_fract_z
Si Si1 0.119055 0.858800 0.086909
Si Si2 0.500000 0.343889 0.055191
Si Si3 0.882331 0.153712 0.705559
Si Si4 0.155948 0.254995 0.186582
Si Si5 0.722816 0.643995 0.942195
Si Si6 0.000000 0.500000 0.819518
O O1 0.123591 0.841032 0.144346
O O2 0.187836 0.743822 0.067508
O O3 0.000000 0.845899 0.070900
O O4 0.157296 0.000000 0.072893
O O5 0.500000 0.500000 0.053384
O O6 0.610717 0.310772 0.077686
O O7 0.500000 0.295151 0.000000
O O8 0.869298 0.193940 0.761625
O O9 0.779475 0.215581 0.682013
O O10 0.000000 0.193232 0.690235
O O11 0.876316 0.000000 0.700386
O O12 0.090591 0.386055 0.181256
O O13 0.746285 0.500000 0.924237
O O14 0.710110 0.634422 0.000000
#
# Coordination Sequence:
#
# PCOD9522236 Si02
#       6
#    16   8  16  16  16   4
#     4  11  24  40  57  79 114 156 193 234 286 341
#     4   7  12  30  57  84 111 139 175 220 274 332
#     4  10  20  36  57  82 111 145 185 231 285 340
#     4  11  22  36  57  81 112 149 191 237 279 338
#     4   9  19  36  62  90 114 145 187 234 282 336
#     4  12  20  36  56  86 105 150 204 238 275 338
#
# _framework density 20.440925
#
# number of rings (size 3 to 8) (size 9 to 14) (size 15 to 20)
#    0.000    2.000    3.158    1.895    1.474    2.947 
#    1.895    2.632    0.000    1.895    0.000    0.000 
#    0.000    0.000    0.000    0.000    0.000    0.000 
#
# Total GULP energy -211550.639730 kJ/mol
# GULP energy per Si atom -5567.122098 kJ/mol
# Density = 2.039440 g / cm^3
# Si number density = 20.440925 Si / 1000 Ang^3
#
#
#
# Elastic Constant Matrix: (Units=GPa)
#
#
# Indices 1 2 3 4 5 6 
#
# 1 167.7330 54.6899 12.9871 0.0000 0.0000 0.0000
# 2 54.6899 89.9614 0.5486 0.0000 0.0000 0.0000
# 3 12.9871 0.5486 23.2214 0.0000 0.0000 0.0000
# 4 0.0000 0.0000 0.0000 3.5364 0.0000 0.0000
# 5 0.0000 0.0000 0.0000 0.0000 16.4557 0.0000
# 6 0.0000 0.0000 0.0000 0.0000 0.0000 -4.7679
#
#
#
# Elastic Compliance Matrix: (Units=1/GPa)
#
#
# Indices 1 2 3 4 5 6 
#
# 1 0.007838 -0.004739 -0.004271 0.000000 0.000000 0.000000
# 2 -0.004739 0.013982 0.002320 0.000000 0.000000 0.000000
# 3 -0.004271 0.002320 0.045398 0.000000 0.000000 0.000000
# 4 0.000000 0.000000 0.000000 0.282776 0.000000 0.000000
# 5 0.000000 0.000000 0.000000 0.000000 0.060769 0.000000
# 6 0.000000 0.000000 0.000000 0.000000 0.000000 -0.209735
#
#
# Mechanical properties :
#
#
# Convention : Reuss Voigt Hill
#
# Bulk Modulus (GPa) = 18.57444 46.37411 32.47428
# Shear Modulus (GPa) = 21.51887 17.22419 19.37153
#
# Velocity S-wave (km/s) = 3.24811 2.90596 3.08179
# Velocity P-wave (km/s) = 4.81389 5.83058 5.34646
#
# Compressibility (1/GPa) = 0.05383742
#
# Stress axis : x y z
#
# Youngs Moduli (GPa) = 127.58958 71.51806 22.02753
#
# Poissons Ratio (x) = 0.33890 0.09409
# Poissons Ratio (y) = 0.60460 -0.05110
# Poissons Ratio (z) = 0.54499 -0.16591
#
# Static dielectric constant tensor:
#      x y z
#    x 1.770110 0.000000 0.000000 
#    y 0.000000 1.682530 0.000000 
#    z 0.000000 0.000000 1.792310 
# 
# From -- ./inp_files/69028.got.cif
#   From: 2010.05.17/outbox.cif.g08.bks.cpg/sg71_35_cif.got.tgz:69028.got - 2010.06.03 16:22:01.
