data_PCOD9522276
_publ_section_title
;
Structure prediction by ZEFSAII (Michael W. Deem and Ramdas Pophale) SiO2 
 PCOD9522276
Probable space group: I M M M
;
_chemical_formula_sum "Si O2"
_cell_formula_units_Z 104
_cell_length_a 24.356930
_cell_length_b 26.693904
_cell_length_c 8.725671
_cell_angle_alpha 90.000000
_cell_angle_beta 90.000000
_cell_angle_gamma 90.000000
_cell_volume 5673.270306
_symmetry_space_group_name_H-M "I M M M"
_symmetry_group_IT_number 71
_symmetry_cell_setting 'orthorhombic'
loop_
_space_group_symop_operation_xyz
x,y,z
-x,-y,z
x,-y,-z
-x,y,-z
-x,-y,-z
x,y,-z
-x,y,z
x,-y,z
1/2+x,1/2+y,1/2+z
1/2-x,1/2-y,1/2+z
1/2+x,1/2-y,1/2-z
1/2-x,1/2+y,1/2-z
1/2-x,1/2-y,1/2-z
1/2+x,1/2+y,1/2-z
1/2-x,1/2+y,1/2+z
1/2+x,1/2-y,1/2+z
loop_
_atom_site_type_symbol
_atom_site_label
_atom_site_fract_x
_atom_site_fract_y
_atom_site_fract_z
Si Si1 0.934371 0.000000 0.324897
Si Si2 0.784674 0.708009 0.827723
Si Si3 0.715048 0.393834 0.175266
Si Si4 0.888966 0.345495 0.812321
Si Si5 0.174954 0.444057 0.187121
Si Si6 0.403527 0.606545 0.318010
Si Si7 0.000000 0.289880 0.186107
Si Si8 0.000000 0.823539 0.316124
O O1 0.917114 0.949441 0.239751
O O2 0.913158 0.000000 0.500000
O O3 0.000000 0.000000 0.331393
O O4 0.750000 0.750000 0.750000
O O5 0.748505 0.657937 0.831896
O O6 0.842355 0.692821 0.755291
O O7 0.796530 0.724670 0.000000
O O8 0.762260 0.431573 0.235424
O O9 0.659806 0.386006 0.269676
O O10 0.700101 0.408237 0.000000
O O11 0.867713 0.400646 0.764413
O O12 0.947163 0.322927 0.768287
O O13 0.887389 0.346246 0.000000
O O14 0.159307 0.500000 0.234134
O O15 0.176453 0.442323 0.000000
O O16 0.409893 0.610098 0.500000
O O17 0.446244 0.645748 0.242082
O O18 0.000000 0.233694 0.254210
O O19 0.000000 0.284903 0.000000
O O20 0.000000 0.823334 0.500000
#
# Coordination Sequence:
#
# PCOD9522276 Si02
#       8
#     8  16  16  16  16  16   8   8
#     4  11  23  41  63  81 106 148 188 227 274 327
#     4   9  18  32  50  74 104 141 185 231 279 333
#     4   9  19  34  52  78 110 144 186 232 278 335
#     4   8  16  31  50  76 111 145 184 231 284 341
#     4   8  14  28  52  81 112 149 188 228 276 336
#     4  12  25  40  59  84 112 143 185 235 287 336
#     4  10  20  36  58  83 114 152 184 231 295 339
#     4  12  26  43  59  79 109 147 193 239 278 337
#
# _framework density 18.331579000000001
#
# number of rings (size 3 to 8) (size 9 to 14) (size 15 to 20)
#    0.000    2.385    0.769    4.154    3.231    0.923 
#    0.000    0.385    0.000    3.231    0.000    0.000 
#    0.000    0.615    0.000    0.000    0.000    0.000 
#
# Total GULP energy -289807.375592 kJ/mol
# GULP energy per Si atom -5573.218761 kJ/mol
# Density = 1.828986 g / cm^3
# Si number density = 18.331579 Si / 1000 Ang^3
#
#
#
# Elastic Constant Matrix: (Units=GPa)
#
#
# Indices 1 2 3 4 5 6 
#
# 1 161.0401 82.4666 38.9505 0.0000 0.0000 0.0000
# 2 82.4666 121.2675 27.8051 0.0000 0.0000 0.0000
# 3 38.9505 27.8051 63.8864 0.0000 0.0000 0.0000
# 4 0.0000 0.0000 0.0000 8.1882 0.0000 0.0000
# 5 0.0000 0.0000 0.0000 0.0000 11.9907 0.0000
# 6 0.0000 0.0000 0.0000 0.0000 0.0000 5.7816
#
#
#
# Elastic Compliance Matrix: (Units=1/GPa)
#
#
# Indices 1 2 3 4 5 6 
#
# 1 0.010207 -0.006125 -0.003557 0.000000 0.000000 0.000000
# 2 -0.006125 0.012836 -0.001852 0.000000 0.000000 0.000000
# 3 -0.003557 -0.001852 0.018628 0.000000 0.000000 0.000000
# 4 0.000000 0.000000 0.000000 0.122128 0.000000 0.000000
# 5 0.000000 0.000000 0.000000 0.000000 0.083398 0.000000
# 6 0.000000 0.000000 0.000000 0.000000 0.000000 0.172962
#
#
# Mechanical properties :
#
#
# Convention : Reuss Voigt Hill
#
# Bulk Modulus (GPa) = 53.75885 71.62649 62.69267
# Shear Modulus (GPa) = 11.12526 18.32355 14.72441
#
# Velocity S-wave (km/s) = 2.46619 3.16501 2.83720
# Velocity P-wave (km/s) = 6.12364 7.24665 6.70868
#
# Compressibility (1/GPa) = 0.01860159
#
# Stress axis : x y z
#
# Youngs Moduli (GPa) = 97.97529 77.90343 53.68401
#
# Poissons Ratio (x) = 0.47719 0.19095
# Poissons Ratio (y) = 0.60013 0.09944
# Poissons Ratio (z) = 0.34849 0.14430
#
# Static dielectric constant tensor:
#      x y z
#    x 1.636700 0.000000 0.000000 
#    y 0.000000 1.639360 0.000000 
#    z 0.000000 0.000000 1.646820 
# 
# From -- ./inp_files/13387.got.cif
#   From: 2010.05.17/outbox.cif.g08.bks.cpg/sg71_7_cif.got.tgz:13387.got - 2010.06.03 16:22:01.
