data_PCOD9522798
_publ_section_title
;
Structure prediction by ZEFSAII (Michael W. Deem and Ramdas Pophale) SiO2 
 PCOD9522798
Probable space group: I M M M
;
_chemical_formula_sum "Si O2"
_cell_formula_units_Z 88
_cell_length_a 11.120038
_cell_length_b 13.895546
_cell_length_c 28.683900
_cell_angle_alpha 90.000000
_cell_angle_beta 90.000000
_cell_angle_gamma 90.000000
_cell_volume 4432.207531
_symmetry_space_group_name_H-M "I M M M"
_symmetry_group_IT_number 71
_symmetry_cell_setting 'orthorhombic'
loop_
_space_group_symop_operation_xyz
x,y,z
-x,-y,z
x,-y,-z
-x,y,-z
-x,-y,-z
x,y,-z
-x,y,z
x,-y,z
1/2+x,1/2+y,1/2+z
1/2-x,1/2-y,1/2+z
1/2+x,1/2-y,1/2-z
1/2-x,1/2+y,1/2-z
1/2-x,1/2-y,1/2-z
1/2+x,1/2+y,1/2-z
1/2-x,1/2+y,1/2+z
1/2+x,1/2-y,1/2+z
loop_
_atom_site_type_symbol
_atom_site_label
_atom_site_fract_x
_atom_site_fract_y
_atom_site_fract_z
Si Si1 0.865926 0.384410 0.688608
Si Si2 0.780320 0.112676 0.906370
Si Si3 0.134981 0.116149 0.554465
Si Si4 0.365680 0.809805 0.388589
Si Si5 0.365724 0.884204 0.000000
Si Si6 0.354747 0.889550 0.288433
O O1 0.875582 0.500000 0.694706
O O2 0.798237 0.373629 0.640249
O O3 0.809047 0.353554 0.738040
O O4 0.000000 0.343168 0.683817
O O5 0.874688 0.197446 0.900997
O O6 0.704325 0.136877 0.952598
O O7 0.818260 0.000000 0.908890
O O8 0.146843 0.144218 0.500000
O O9 0.252525 0.150176 0.582348
O O10 0.000000 0.147767 0.570652
O O11 0.134463 0.000000 0.556294
O O12 0.500000 0.853744 0.396439
O O13 0.332819 0.827528 0.334350
O O14 0.500000 0.844259 0.000000
O O15 0.375587 0.000000 0.000000
O O16 0.500000 0.892329 0.283022
O O17 0.314065 0.000000 0.297095
#
# Coordination Sequence:
#
# PCOD9522798 Si02
#       6
#    16  16  16  16   8  16
#     4   8  14  28  52  79 107 142 187 238 294 352
#     4  10  21  35  51  76 111 153 198 246 292 335
#     4   9  20  40  63  87 116 147 180 228 292 351
#     4  11  23  36  55  84 116 154 198 236 277 341
#     4   9  18  34  55  77 102 135 182 241 297 342
#     4   8  15  30  53  81 111 141 179 235 294 345
#
# _framework density 19.854665000000001
#
# number of rings (size 3 to 8) (size 9 to 14) (size 15 to 20)
#    0.000    2.818    0.000    2.727    1.273    6.182 
#    0.000    0.909    0.000    2.727    0.000    2.545 
#    0.000    0.000    0.000    0.000    0.000    0.000 
#
# Total GULP energy -244959.882170 kJ/mol
# GULP energy per Si atom -5567.270049 kJ/mol
# Density = 1.980948 g / cm^3
# Si number density = 19.854665 Si / 1000 Ang^3
#
#
#
# Elastic Constant Matrix: (Units=GPa)
#
#
# Indices 1 2 3 4 5 6 
#
# 1 103.0172 27.9140 74.6400 0.0000 0.0000 0.0000
# 2 27.9140 63.3161 40.8482 0.0000 0.0000 0.0000
# 3 74.6400 40.8482 157.2887 0.0000 0.0000 0.0000
# 4 0.0000 0.0000 0.0000 5.2798 0.0000 0.0000
# 5 0.0000 0.0000 0.0000 0.0000 20.9029 0.0000
# 6 0.0000 0.0000 0.0000 0.0000 0.0000 20.1018
#
#
#
# Elastic Compliance Matrix: (Units=1/GPa)
#
#
# Indices 1 2 3 4 5 6 
#
# 1 0.015102 -0.002444 -0.006532 0.000000 0.000000 0.000000
# 2 -0.002444 0.019368 -0.003870 0.000000 0.000000 0.000000
# 3 -0.006532 -0.003870 0.010462 0.000000 0.000000 0.000000
# 4 0.000000 0.000000 0.000000 0.189400 0.000000 0.000000
# 5 0.000000 0.000000 0.000000 0.000000 0.047840 0.000000
# 6 0.000000 0.000000 0.000000 0.000000 0.000000 0.049747
#
#
# Mechanical properties :
#
#
# Convention : Reuss Voigt Hill
#
# Bulk Modulus (GPa) = 51.97352 67.82514 59.89933
# Shear Modulus (GPa) = 13.73534 21.27158 17.50346
#
# Velocity S-wave (km/s) = 2.63305 3.27672 2.97236
# Velocity P-wave (km/s) = 5.95632 6.96784 6.48184
#
# Compressibility (1/GPa) = 0.01924057
#
# Stress axis : x y z
#
# Youngs Moduli (GPa) = 66.21703 51.63139 95.58035
#
# Poissons Ratio (x) = 0.12619 0.62431
# Poissons Ratio (y) = 0.16183 0.36991
# Poissons Ratio (z) = 0.43251 0.19982
#
# Static dielectric constant tensor:
#      x y z
#    x 1.704330 0.000000 0.000000 
#    y 0.000000 1.750640 0.000000 
#    z 0.000000 0.000000 1.712750 
# 
# From -- ./inp_files/64435.got.cif
#   From: 2010.05.17/outbox.cif.g08.bks.cpg/sg71_33_cif.got.tgz:64435.got - 2010.06.03 16:22:01.
