data_PCOD9522904
_publ_section_title
;
Structure prediction by ZEFSAII (Michael W. Deem and Ramdas Pophale) SiO2 
 PCOD9522904
Probable space group: I M M M
;
_chemical_formula_sum "Si O2"
_cell_formula_units_Z 104
_cell_length_a 29.604193
_cell_length_b 21.693605
_cell_length_c 8.086781
_cell_angle_alpha 90.000000
_cell_angle_beta 90.000000
_cell_angle_gamma 90.000000
_cell_volume 5193.505993
_symmetry_space_group_name_H-M "I M M M"
_symmetry_group_IT_number 71
_symmetry_cell_setting 'orthorhombic'
loop_
_space_group_symop_operation_xyz
x,y,z
-x,-y,z
x,-y,-z
-x,y,-z
-x,-y,-z
x,y,-z
-x,y,z
x,-y,z
1/2+x,1/2+y,1/2+z
1/2-x,1/2-y,1/2+z
1/2+x,1/2-y,1/2-z
1/2-x,1/2+y,1/2-z
1/2-x,1/2-y,1/2-z
1/2+x,1/2+y,1/2-z
1/2-x,1/2+y,1/2+z
1/2+x,1/2-y,1/2+z
loop_
_atom_site_type_symbol
_atom_site_label
_atom_site_fract_x
_atom_site_fract_y
_atom_site_fract_z
Si Si1 0.053639 0.232088 0.697285
Si Si2 0.948802 0.000000 0.694878
Si Si3 0.803468 0.818712 0.200560
Si Si4 0.109193 0.116441 0.191664
Si Si5 0.948547 0.371947 0.699975
Si Si6 0.359590 0.067374 0.697948
Si Si7 0.700398 0.820418 0.699287
O O1 0.062179 0.227061 0.500000
O O2 0.081255 0.179623 0.788184
O O3 0.064083 0.301957 0.751384
O O4 0.000000 0.223055 0.721545
O O5 0.919957 0.939319 0.737043
O O6 0.954211 0.000000 0.500000
O O7 0.000000 0.000000 0.768819
O O8 0.841307 0.866477 0.262324
O O9 0.752455 0.831939 0.254392
O O10 0.813160 0.748265 0.257763
O O11 0.805101 0.818730 0.000000
O O12 0.115341 0.101521 0.000000
O O13 0.948168 0.372661 0.500000
O O14 0.911724 0.418632 0.765751
O O15 0.000000 0.384198 0.753132
O O16 0.353340 0.066523 0.500000
O O17 0.330666 0.124617 0.764969
O O18 0.346657 0.000000 0.763260
O O19 0.697056 0.819280 0.500000
#
# Coordination Sequence:
#
# PCOD9522904 Si02
#       7
#    16   8  16  16  16  16  16
#     4   9  18  33  53  78 108 140 177 223 271 319
#     4  11  25  43  59  77 109 153 197 237 278 333
#     4   9  19  35  56  82 109 136 172 223 278 325
#     4  11  22  36  56  83 113 144 180 227 281 333
#     4   9  19  35  54  78 108 142 182 226 267 314
#     4  10  21  36  53  76 108 143 179 221 269 320
#     4   9  18  35  57  80 108 142 179 220 268 326
#
# _framework density 20.025008
#
# number of rings (size 3 to 8) (size 9 to 14) (size 15 to 20)
#    0.000    2.385    0.000    3.000    0.000    7.385 
#    1.385    6.154    0.000    0.000    0.000    0.000 
#    0.000    0.000    0.000    0.000    0.000    0.000 
#
# Total GULP energy -290212.539925 kJ/mol
# GULP energy per Si atom -5581.010383 kJ/mol
# Density = 1.997943 g / cm^3
# Si number density = 20.025008 Si / 1000 Ang^3
#
#
#
# Elastic Constant Matrix: (Units=GPa)
#
#
# Indices 1 2 3 4 5 6 
#
# 1 101.1439 77.2565 4.9414 0.0000 0.0000 0.0000
# 2 77.2565 97.6696 7.2778 0.0000 0.0000 0.0000
# 3 4.9414 7.2778 8.5696 0.0000 0.0000 0.0000
# 4 0.0000 0.0000 0.0000 238.7281 0.0000 0.0000
# 5 0.0000 0.0000 0.0000 0.0000 25.6140 0.0000
# 6 0.0000 0.0000 0.0000 0.0000 0.0000 8.0003
#
#
#
# Elastic Compliance Matrix: (Units=1/GPa)
#
#
# Indices 1 2 3 4 5 6 
#
# 1 0.025030 -0.019989 0.002542 0.000000 0.000000 0.000000
# 2 -0.019989 0.026892 -0.011313 0.000000 0.000000 0.000000
# 3 0.002542 -0.011313 0.124834 0.000000 0.000000 0.000000
# 4 0.000000 0.000000 0.000000 0.004189 0.000000 0.000000
# 5 0.000000 0.000000 0.000000 0.000000 0.039041 0.000000
# 6 0.000000 0.000000 0.000000 0.000000 0.000000 0.124996
#
#
# Mechanical properties :
#
#
# Convention : Reuss Voigt Hill
#
# Bulk Modulus (GPa) = 8.38655 42.92607 25.65631
# Shear Modulus (GPa) = 11.30589 62.32894 36.81742
#
# Velocity S-wave (km/s) = 2.37869 5.58508 4.29251
# Velocity P-wave (km/s) = 3.42656 7.94189 6.11616
#
# Compressibility (1/GPa) = 0.11923852
#
# Stress axis : x y z
#
# Youngs Moduli (GPa) = 39.95130 37.18515 8.01065
#
# Poissons Ratio (x) = 0.74328 -0.02037
# Poissons Ratio (y) = 0.79857 0.09062
# Poissons Ratio (z) = -0.10157 0.42067
#
# Static dielectric constant tensor:
#      x y z
#    x 1.710000 0.000000 0.000000 
#    y 0.000000 1.708900 0.000000 
#    z 0.000000 0.000000 1.709820 
# 
# From -- ./inp_files/15029.got.cif
#   From: 2010.05.17/outbox.cif.g08.bks.cpg/sg71_8_cif.got.tgz:15029.got - 2010.06.03 16:22:01.
