data_PCOD9522732
_publ_section_title
;
Structure prediction by ZEFSAII (Michael W. Deem and Ramdas Pophale) SiO2 
 PCOD9522732
Probable space group: I M M M
;
_chemical_formula_sum "Si O2"
_cell_formula_units_Z 88
_cell_length_a 13.852443
_cell_length_b 12.522618
_cell_length_c 29.200475
_cell_angle_alpha 90.000000
_cell_angle_beta 90.000000
_cell_angle_gamma 90.000000
_cell_volume 5065.372878
_symmetry_space_group_name_H-M "I M M M"
_symmetry_group_IT_number 71
_symmetry_cell_setting 'orthorhombic'
loop_
_space_group_symop_operation_xyz
x,y,z
-x,-y,z
x,-y,-z
-x,y,-z
-x,-y,-z
x,y,-z
-x,y,z
x,-y,z
1/2+x,1/2+y,1/2+z
1/2-x,1/2-y,1/2+z
1/2+x,1/2-y,1/2-z
1/2-x,1/2+y,1/2-z
1/2-x,1/2-y,1/2-z
1/2+x,1/2+y,1/2-z
1/2-x,1/2+y,1/2+z
1/2+x,1/2-y,1/2+z
loop_
_atom_site_type_symbol
_atom_site_label
_atom_site_fract_x
_atom_site_fract_y
_atom_site_fract_z
Si Si1 0.382807 0.264414 0.446410
Si Si2 0.608298 0.000000 0.683507
Si Si3 0.883949 0.743110 0.694678
Si Si4 0.706709 0.206100 0.643457
Si Si5 0.616602 0.374539 0.288208
Si Si6 0.608209 0.000000 0.207787
Si Si7 0.892376 0.000000 0.944853
O O1 0.364154 0.241901 0.500000
O O2 0.500000 0.259973 0.440672
O O3 0.327381 0.197037 0.408818
O O4 0.348552 0.385756 0.435007
O O5 0.663217 0.895253 0.668757
O O6 0.500000 0.000000 0.663996
O O7 0.601250 0.000000 0.737771
O O8 0.820432 0.789985 0.653602
O O9 0.859895 0.808582 0.741444
O O10 0.853149 0.618055 0.697015
O O11 0.000000 0.748814 0.689402
O O12 0.658767 0.308695 0.668944
O O13 0.500000 0.373244 0.292115
O O14 0.646512 0.500000 0.286003
O O15 0.500000 0.000000 0.187472
O O16 0.000000 0.000000 0.924139
O O17 0.902825 0.000000 0.000000
#
# Coordination Sequence:
#
# PCOD9522732 Si02
#       7
#    16   8  16  16  16   8   8
#     4   9  18  33  51  75 106 134 165 211 267 322
#     4  11  22  36  53  78 107 138 179 215 259 322
#     4  10  22  37  52  75 108 144 180 218 258 303
#     4  12  23  33  56  77 103 141 183 215 260 316
#     4  10  21  34  51  80 112 136 169 220 267 311
#     4   9  18  35  53  71 107 147 174 210 256 305
#     4   7  12  25  46  70  99 132 156 187 250 322
#
# _framework density 17.372855999999999
#
# number of rings (size 3 to 8) (size 9 to 14) (size 15 to 20)
#    0.000    2.091    1.818    3.273    3.818    0.000 
#    0.000    0.455    0.000    2.182    0.000    0.000 
#    0.000    5.818    0.000    0.000    0.000    0.000 
#
# Total GULP energy -245123.764293 kJ/mol
# GULP energy per Si atom -5570.994643 kJ/mol
# Density = 1.733331 g / cm^3
# Si number density = 17.372856 Si / 1000 Ang^3
#
#
#
# Elastic Constant Matrix: (Units=GPa)
#
#
# Indices 1 2 3 4 5 6 
#
# 1 67.2918 33.9736 40.7447 0.0000 0.0000 0.0000
# 2 33.9736 84.6740 11.6582 0.0000 0.0000 0.0000
# 3 40.7447 11.6582 82.4182 0.0000 0.0000 0.0000
# 4 0.0000 0.0000 0.0000 -25.1392 0.0000 0.0000
# 5 0.0000 0.0000 0.0000 0.0000 21.2783 0.0000
# 6 0.0000 0.0000 0.0000 0.0000 0.0000 40.4136
#
#
#
# Elastic Compliance Matrix: (Units=1/GPa)
#
#
# Indices 1 2 3 4 5 6 
#
# 1 0.026621 -0.009045 -0.011881 0.000000 0.000000 0.000000
# 2 -0.009045 0.015118 0.002333 0.000000 0.000000 0.000000
# 3 -0.011881 0.002333 0.017677 0.000000 0.000000 0.000000
# 4 0.000000 0.000000 0.000000 -0.039779 0.000000 0.000000
# 5 0.000000 0.000000 0.000000 0.000000 0.046996 0.000000
# 6 0.000000 0.000000 0.000000 0.000000 0.000000 0.024744
#
#
# Mechanical properties :
#
#
# Convention : Reuss Voigt Hill
#
# Bulk Modulus (GPa) = 44.98512 45.23744 45.11128
# Shear Modulus (GPa) = 36.77162 17.17771 26.97467
#
# Velocity S-wave (km/s) = 4.60566 3.14788 3.94469
# Velocity P-wave (km/s) = 7.36430 6.26960 6.83889
#
# Compressibility (1/GPa) = 0.02222957
#
# Stress axis : x y z
#
# Youngs Moduli (GPa) = 37.56384 66.14624 56.57118
#
# Poissons Ratio (x) = 0.59832 0.67213
# Poissons Ratio (y) = 0.33978 -0.13199
# Poissons Ratio (z) = 0.44630 -0.15434
#
# Static dielectric constant tensor:
#      x y z
#    x 1.630460 0.000000 0.000000 
#    y 0.000000 1.636810 0.000000 
#    z 0.000000 0.000000 1.565110 
# 
# From -- ./inp_files/64470.got.cif
#   From: 2010.05.17/outbox.cif.g08.bks.cpg/sg71_33_cif.got.tgz:64470.got - 2010.06.03 16:22:01.
