data_PCOD9522787
_publ_section_title
;
Structure prediction by ZEFSAII (Michael W. Deem and Ramdas Pophale) SiO2 
 PCOD9522787
Probable space group: I M M M
;
_chemical_formula_sum "Si O2"
_cell_formula_units_Z 80
_cell_length_a 22.063485
_cell_length_b 7.535387
_cell_length_c 20.030692
_cell_angle_alpha 90.000000
_cell_angle_beta 90.000000
_cell_angle_gamma 90.000000
_cell_volume 3330.240718
_symmetry_space_group_name_H-M "I M M M"
_symmetry_group_IT_number 71
_symmetry_cell_setting 'orthorhombic'
loop_
_space_group_symop_operation_xyz
x,y,z
-x,-y,z
x,-y,-z
-x,y,-z
-x,-y,-z
x,y,-z
-x,y,z
x,-y,z
1/2+x,1/2+y,1/2+z
1/2-x,1/2-y,1/2+z
1/2+x,1/2-y,1/2-z
1/2-x,1/2+y,1/2-z
1/2-x,1/2-y,1/2-z
1/2+x,1/2+y,1/2-z
1/2-x,1/2+y,1/2+z
1/2+x,1/2-y,1/2+z
loop_
_atom_site_type_symbol
_atom_site_label
_atom_site_fract_x
_atom_site_fract_y
_atom_site_fract_z
Si Si1 0.601431 0.715830 0.572546
Si Si2 0.565215 0.287987 0.715725
Si Si3 0.756005 0.783630 0.925945
Si Si4 0.930396 0.787140 0.422545
Si Si5 0.667159 0.806023 0.818227
O O1 0.578943 0.776888 0.500000
O O2 0.596315 0.500000 0.572468
O O3 0.571047 0.779987 0.640180
O O4 0.672952 0.757221 0.576972
O O5 0.500000 0.224657 0.744553
O O6 0.561232 0.500000 0.713480
O O7 0.627268 0.257025 0.756008
O O8 0.721114 0.714716 0.860278
O O9 0.750204 0.000000 0.925321
O O10 0.733495 0.724980 0.000000
O O11 0.918711 0.750680 0.500000
O O12 0.884071 0.690395 0.375512
O O13 0.000000 0.741263 0.408841
O O14 0.924192 0.000000 0.411635
O O15 0.690284 0.000000 0.799186
#
# Coordination Sequence:
#
# PCOD9522787 Si02
#       5
#    16  16  16  16  16
#     4   8  15  31  55  78  98 123 159 206 259 309
#     4  10  21  35  51  74 103 132 164 206 254 299
#     4   8  15  29  49  74 102 129 161 205 252 292
#     4   9  18  32  48  66  92 129 171 213 255 293
#     4  11  21  31  47  72 102 136 171 202 236 289
#
# _framework density 24.022286000000001
#
# number of rings (size 3 to 8) (size 9 to 14) (size 15 to 20)
#    0.000    2.800    0.000    3.600    0.000    5.600 
#    0.000    3.000    0.000    1.800    0.000    7.000 
#    0.000    0.000    0.000    0.000    0.000    0.000 
#
# Total GULP energy -223119.904240 kJ/mol
# GULP energy per Si atom -5577.997606 kJ/mol
# Density = 2.396761 g / cm^3
# Si number density = 24.022286 Si / 1000 Ang^3
#
#
#
# Elastic Constant Matrix: (Units=GPa)
#
#
# Indices 1 2 3 4 5 6 
#
# 1 59.0929 -1.4522 36.3693 0.0000 0.0000 0.0000
# 2 -1.4522 45.4224 11.9271 0.0000 0.0000 0.0000
# 3 36.3693 11.9271 127.5652 0.0000 0.0000 0.0000
# 4 0.0000 0.0000 0.0000 14.4740 0.0000 0.0000
# 5 0.0000 0.0000 0.0000 0.0000 28.2023 0.0000
# 6 0.0000 0.0000 0.0000 0.0000 0.0000 5.6054
#
#
#
# Elastic Compliance Matrix: (Units=1/GPa)
#
#
# Indices 1 2 3 4 5 6 
#
# 1 0.020750 0.002273 -0.006128 0.000000 0.000000 0.000000
# 2 0.002273 0.022819 -0.002781 0.000000 0.000000 0.000000
# 3 -0.006128 -0.002781 0.009846 0.000000 0.000000 0.000000
# 4 0.000000 0.000000 0.000000 0.069089 0.000000 0.000000
# 5 0.000000 0.000000 0.000000 0.000000 0.035458 0.000000
# 6 0.000000 0.000000 0.000000 0.000000 0.000000 0.178401
#
#
# Mechanical properties :
#
#
# Convention : Reuss Voigt Hill
#
# Bulk Modulus (GPa) = 24.91239 36.19657 30.55448
# Shear Modulus (GPa) = 13.77341 22.00542 17.88941
#
# Velocity S-wave (km/s) = 2.39709 3.02990 2.73188
# Velocity P-wave (km/s) = 4.24905 5.22886 4.76421
#
# Compressibility (1/GPa) = 0.04014067
#
# Stress axis : x y z
#
# Youngs Moduli (GPa) = 48.19236 43.82397 101.55968
#
# Poissons Ratio (x) = -0.09960 0.62240
# Poissons Ratio (y) = -0.10952 0.28248
# Poissons Ratio (z) = 0.29534 0.12189
#
# Static dielectric constant tensor:
#      x y z
#    x 1.930310 0.000000 0.000000 
#    y 0.000000 1.972310 0.000000 
#    z 0.000000 0.000000 1.942030 
# 
# From -- ./inp_files/42231.got.cif
#   From: 2010.05.17/outbox.cif.g08.bks.cpg/sg71_22_cif.got.tgz:42231.got - 2010.06.03 16:22:01.
