data_PCOD9522351
_publ_section_title
;
Structure prediction by ZEFSAII (Michael W. Deem and Ramdas Pophale) SiO2 
 PCOD9522351
Probable space group: I M M M
;
_chemical_formula_sum "Si O2"
_cell_formula_units_Z 92
_cell_length_a 18.216559
_cell_length_b 27.912151
_cell_length_c 9.847825
_cell_angle_alpha 90.000000
_cell_angle_beta 90.000000
_cell_angle_gamma 90.000000
_cell_volume 5007.258045
_symmetry_space_group_name_H-M "I M M M"
_symmetry_group_IT_number 71
_symmetry_cell_setting 'orthorhombic'
loop_
_space_group_symop_operation_xyz
x,y,z
-x,-y,z
x,-y,-z
-x,y,-z
-x,-y,-z
x,y,-z
-x,y,z
x,-y,z
1/2+x,1/2+y,1/2+z
1/2-x,1/2-y,1/2+z
1/2+x,1/2-y,1/2-z
1/2-x,1/2+y,1/2-z
1/2-x,1/2-y,1/2-z
1/2+x,1/2+y,1/2-z
1/2-x,1/2+y,1/2+z
1/2+x,1/2-y,1/2+z
loop_
_atom_site_type_symbol
_atom_site_label
_atom_site_fract_x
_atom_site_fract_y
_atom_site_fract_z
Si Si1 0.412861 0.445678 0.500000
Si Si2 0.800499 0.444141 0.659855
Si Si3 0.148676 0.917126 0.715893
Si Si4 0.386434 0.500000 0.000000
Si Si5 0.912939 0.815456 0.652530
Si Si6 0.412884 0.140036 0.157937
Si Si7 0.910580 0.728804 0.155934
O O1 0.382191 0.500000 0.500000
O O2 0.500000 0.448270 0.500000
O O3 0.387829 0.420452 0.636395
O O4 0.778558 0.439144 0.500000
O O5 0.818082 0.500000 0.681924
O O6 0.733867 0.429011 0.757037
O O7 0.868278 0.408615 0.681766
O O8 0.116075 0.957802 0.618120
O O9 0.132097 0.864388 0.661834
O O10 0.906469 0.795114 0.500000
O O11 0.888890 0.776612 0.763251
O O12 0.000000 0.826285 0.673558
O O13 0.500000 0.132466 0.176397
O O14 0.388073 0.182069 0.258805
O O15 0.401617 0.154280 0.000000
O O16 0.000000 0.728670 0.155718
O O17 0.885738 0.728073 0.000000
#
# Coordination Sequence:
#
# PCOD9522351 Si02
#       7
#     8  16  16   4  16  16  16
#     4  11  22  36  56  78 106 148 194 236 281 327
#     4  10  20  36  60  83 112 152 189 232 280 341
#     4  12  22  40  55  81 113 155 195 235 281 340
#     4  12  24  38  59  76 115 158 204 232 286 338
#     4  10  21  36  55  81 112 148 191 239 284 327
#     4   9  18  35  60  88 114 144 183 229 287 346
#     4   9  18  34  56  83 114 147 184 230 286 344
#
# _framework density 18.373328999999998
#
# number of rings (size 3 to 8) (size 9 to 14) (size 15 to 20)
#    0.000    1.826    3.478    1.043    1.217    2.435 
#    1.565    4.348    0.000    0.000    0.000    3.043 
#    0.000    0.000    0.000    0.000    0.000    0.000 
#
# Total GULP energy -256185.987034 kJ/mol
# GULP energy per Si atom -5569.260588 kJ/mol
# Density = 1.833151 g / cm^3
# Si number density = 18.373329 Si / 1000 Ang^3
#
#
#
# Elastic Constant Matrix: (Units=GPa)
#
#
# Indices 1 2 3 4 5 6 
#
# 1 22.7458 39.6044 28.6770 0.0000 0.0000 0.0000
# 2 39.6044 148.0284 66.4487 0.0000 0.0000 0.0000
# 3 28.6770 66.4487 126.2114 -0.0002 0.0001 0.0001
# 4 0.0000 0.0000 -0.0002 14.0203 0.0000 0.0000
# 5 0.0000 0.0000 0.0001 0.0000 1.5349 0.0000
# 6 0.0000 0.0000 0.0001 0.0000 0.0000 -20.3292
#
#
#
# Elastic Compliance Matrix: (Units=1/GPa)
#
#
# Indices 1 2 3 4 5 6 
#
# 1 0.091597 -0.019857 -0.010358 0.000000 0.000001 0.000000
# 2 -0.019857 0.013151 -0.002412 0.000000 0.000000 0.000000
# 3 -0.010358 -0.002412 0.011546 0.000000 -0.000001 0.000000
# 4 0.000000 0.000000 0.000000 0.071325 0.000001 0.000000
# 5 0.000001 0.000000 -0.000001 0.000001 0.651529 0.000000
# 6 0.000000 0.000000 0.000000 0.000000 0.000000 -0.049190
#
#
# Mechanical properties :
#
#
# Convention : Reuss Voigt Hill
#
# Bulk Modulus (GPa) = 19.59198 62.93841 41.26519
# Shear Modulus (GPa) = 5.73246 9.86222 7.79734
#
# Velocity S-wave (km/s) = 1.76827 2.31934 2.06229
# Velocity P-wave (km/s) = 3.85428 6.44221 5.30837
#
# Compressibility (1/GPa) = 0.05104130
#
# Stress axis : x y z
#
# Youngs Moduli (GPa) = 10.91734 76.04081 86.60634
#
# Poissons Ratio (x) = 1.50994 0.89705
# Poissons Ratio (y) = 0.21679 0.20889
# Poissons Ratio (z) = 0.11308 0.18341
#
# Static dielectric constant tensor:
#      x y z
#    x 1.635180 0.000000 0.000000 
#    y 0.000000 1.610690 0.000000 
#    z 0.000000 0.000000 1.631240 
# 
# From -- ./inp_files/11011.got.cif
#   From: 2010.05.17/outbox.cif.g08.bks.cpg/sg71_6_cif.got.tgz:11011.got - 2010.06.03 16:22:01.
