data_PCOD9522385
_publ_section_title
;
Structure prediction by ZEFSAII (Michael W. Deem and Ramdas Pophale) SiO2 
 PCOD9522385
Probable space group: I M M M
;
_chemical_formula_sum "Si O2"
_cell_formula_units_Z 88
_cell_length_a 20.689953
_cell_length_b 22.753502
_cell_length_c 10.426686
_cell_angle_alpha 90.000000
_cell_angle_beta 90.000000
_cell_angle_gamma 90.000000
_cell_volume 4908.559363
_symmetry_space_group_name_H-M "I M M M"
_symmetry_group_IT_number 71
_symmetry_cell_setting 'orthorhombic'
loop_
_space_group_symop_operation_xyz
x,y,z
-x,-y,z
x,-y,-z
-x,y,-z
-x,-y,-z
x,y,-z
-x,y,z
x,-y,z
1/2+x,1/2+y,1/2+z
1/2-x,1/2-y,1/2+z
1/2+x,1/2-y,1/2-z
1/2-x,1/2+y,1/2-z
1/2-x,1/2-y,1/2-z
1/2+x,1/2+y,1/2-z
1/2-x,1/2+y,1/2+z
1/2+x,1/2-y,1/2+z
loop_
_atom_site_type_symbol
_atom_site_label
_atom_site_fract_x
_atom_site_fract_y
_atom_site_fract_z
Si Si1 0.134309 0.120198 0.144550
Si Si2 0.799788 0.247202 0.136630
Si Si3 0.000000 0.826261 0.160115
Si Si4 0.621090 0.145854 0.267478
Si Si5 0.000000 0.711156 0.650940
Si Si6 0.235002 0.433134 0.345216
Si Si7 0.076793 0.434448 0.000000
O O1 0.165885 0.184740 0.136807
O O2 0.063102 0.134967 0.194984
O O3 0.192509 0.082184 0.204853
O O4 0.124208 0.096712 0.000000
O O5 0.750000 0.250000 0.250000
O O6 0.851563 0.297801 0.157930
O O7 0.766143 0.255426 0.000000
O O8 0.000000 0.766077 0.246055
O O9 0.000000 0.815478 0.000000
O O10 0.563258 0.170932 0.179685
O O11 0.681021 0.113562 0.197792
O O12 0.596170 0.100464 0.373086
O O13 0.000000 0.729399 0.500000
O O14 0.238318 0.429825 0.500000
O O15 0.217499 0.500000 0.309494
O O16 0.104961 0.500000 0.000000
O O17 0.000000 0.438290 0.000000
#
# Coordination Sequence:
#
# PCOD9522385 Si02
#       7
#    16  16   8  16   8  16   8
#     4   9  18  33  55  84 113 147 191 233 286 350
#     4  11  21  34  57  86 117 152 188 240 295 347
#     4  10  20  36  61  86 121 155 189 234 298 357
#     4  12  22  38  59  81 117 153 198 238 290 346
#     4  12  26  36  54  90 125 153 190 242 294 353
#     4  10  21  38  58  81 115 157 195 240 293 343
#     4  11  24  40  60  84 110 149 202 246 280 334
#
# _framework density 17.927868
#
# number of rings (size 3 to 8) (size 9 to 14) (size 15 to 20)
#    0.000    1.364    5.455    1.091    1.273    0.727 
#    0.000    0.455    2.000    4.909    0.000    0.000 
#    0.000    0.727    0.000    0.000    0.000    0.000 
#
# Total GULP energy -245081.314715 kJ/mol
# GULP energy per Si atom -5570.029880 kJ/mol
# Density = 1.788706 g / cm^3
# Si number density = 17.927868 Si / 1000 Ang^3
#
#
#
# Elastic Constant Matrix: (Units=GPa)
#
#
# Indices 1 2 3 4 5 6 
#
# 1 108.0639 4.9838 27.8074 0.0000 0.0000 0.0000
# 2 4.9838 50.8164 6.4376 0.0000 0.0000 0.0000
# 3 27.8074 6.4376 75.1928 0.0000 0.0000 0.0000
# 4 0.0000 0.0000 0.0000 -4.4833 0.0000 0.0000
# 5 0.0000 0.0000 0.0000 0.0000 23.5182 0.0000
# 6 0.0000 0.0000 0.0000 0.0000 0.0000 27.4024
#
#
#
# Elastic Compliance Matrix: (Units=1/GPa)
#
#
# Indices 1 2 3 4 5 6 
#
# 1 0.010241 -0.000530 -0.003742 0.000000 0.000000 0.000000
# 2 -0.000530 0.019922 -0.001509 0.000000 0.000000 0.000000
# 3 -0.003742 -0.001509 0.014812 0.000000 0.000000 0.000000
# 4 0.000000 0.000000 0.000000 -0.223051 0.000000 0.000000
# 5 0.000000 0.000000 0.000000 0.000000 0.042520 0.000000
# 6 0.000000 0.000000 0.000000 0.000000 0.000000 0.036493
#
#
# Mechanical properties :
#
#
# Convention : Reuss Voigt Hill
#
# Bulk Modulus (GPa) = 29.92956 34.72562 32.32759
# Shear Modulus (GPa) = -65.47817 22.27710 -21.60053
#
# Velocity S-wave (km/s) = -6.04999 3.52887 -3.47487
# Velocity P-wave (km/s) = 5.66326 6.00130 1.40411
#
# Compressibility (1/GPa) = 0.03341179
#
# Stress axis : x y z
#
# Youngs Moduli (GPa) = 97.64555 50.19592 67.51196
#
# Poissons Ratio (x) = 0.02662 0.25262
# Poissons Ratio (y) = 0.05179 0.10191
# Poissons Ratio (z) = 0.36538 0.07577
#
# Static dielectric constant tensor:
#      x y z
#    x 1.649040 0.000000 0.000000 
#    y 0.000000 1.615390 0.000000 
#    z 0.000000 0.000000 1.619530 
# 
# From -- ./inp_files/24011.got.cif
#   From: 2010.05.17/outbox.cif.g08.bks.cpg/sg71_13_cif.got.tgz:24011.got - 2010.06.03 16:22:01.
