data_PCOD9522255
_publ_section_title
;
Structure prediction by ZEFSAII (Michael W. Deem and Ramdas Pophale) SiO2 
 PCOD9522255
Probable space group: I M M M
;
_chemical_formula_sum "Si O2"
_cell_formula_units_Z 100
_cell_length_a 13.661620
_cell_length_b 22.212938
_cell_length_c 17.517922
_cell_angle_alpha 90.000000
_cell_angle_beta 90.000000
_cell_angle_gamma 90.000000
_cell_volume 5316.071260
_symmetry_space_group_name_H-M "I M M M"
_symmetry_group_IT_number 71
_symmetry_cell_setting 'orthorhombic'
loop_
_space_group_symop_operation_xyz
x,y,z
-x,-y,z
x,-y,-z
-x,y,-z
-x,-y,-z
x,y,-z
-x,y,z
x,-y,z
1/2+x,1/2+y,1/2+z
1/2-x,1/2-y,1/2+z
1/2+x,1/2-y,1/2-z
1/2-x,1/2+y,1/2-z
1/2-x,1/2-y,1/2-z
1/2+x,1/2+y,1/2-z
1/2-x,1/2+y,1/2+z
1/2+x,1/2-y,1/2+z
loop_
_atom_site_type_symbol
_atom_site_label
_atom_site_fract_x
_atom_site_fract_y
_atom_site_fract_z
Si Si1 0.382447 0.170654 0.086090
Si Si2 0.274139 0.000000 0.500000
Si Si3 0.811945 0.570110 0.300843
Si Si4 0.118181 0.373839 0.000000
Si Si5 0.618725 0.842729 0.669091
Si Si6 0.391910 0.500000 0.125563
Si Si7 0.118626 0.239898 0.285182
Si Si8 0.111808 0.896687 0.248939
O O1 0.500000 0.175237 0.082127
O O2 0.358871 0.110014 0.132528
O O3 0.346857 0.226225 0.138436
O O4 0.343631 0.171025 0.000000
O O5 0.340687 0.058798 0.500000
O O6 0.200274 0.000000 0.428927
O O7 0.838333 0.500000 0.302173
O O8 0.843409 0.601560 0.220693
O O9 0.694781 0.578224 0.306535
O O10 0.150226 0.344970 0.919183
O O11 0.000000 0.374019 0.000000
O O12 0.500000 0.845844 0.670695
O O13 0.647780 0.781889 0.713841
O O14 0.500000 0.500000 0.088451
O O15 0.387589 0.441561 0.179353
O O16 0.142285 0.170323 0.274144
O O17 0.000000 0.241558 0.287930
O O18 0.000000 0.895130 0.219343
#
# Coordination Sequence:
#
# PCOD9522255 Si02
#       8
#    16   4  16   8  16   8  16  16
#     4   9  19  36  56  83 115 141 172 215 266 328
#     4  12  22  36  48  70 116 150 182 218 268 310
#     4  11  21  33  55  80 107 145 181 222 268 313
#     4  10  21  33  51  78 113 150 180 212 255 320
#     4   9  19  34  52  79 111 142 178 219 264 321
#     4  10  21  37  55  78 104 138 184 231 273 314
#     4   8  16  34  59  80 104 140 177 220 272 320
#     4  10  20  36  58  80 102 137 185 228 269 318
#
# _framework density 18.810884999999999
#
# number of rings (size 3 to 8) (size 9 to 14) (size 15 to 20)
#    0.000    2.400    0.800    2.640    1.120    4.160 
#    1.440    0.800    5.280    0.480    0.000    1.120 
#    0.000    0.000    0.000    0.000    0.000    0.000 
#
# Total GULP energy -278931.543697 kJ/mol
# GULP energy per Si atom -5578.630874 kJ/mol
# Density = 1.876807 g / cm^3
# Si number density = 18.810885 Si / 1000 Ang^3
#
#
#
# Elastic Constant Matrix: (Units=GPa)
#
#
# Indices 1 2 3 4 5 6 
#
# 1 39.1275 3.0711 14.4632 0.0000 0.0000 0.0000
# 2 3.0711 135.5089 44.9199 0.0000 0.0000 0.0000
# 3 14.4632 44.9199 121.3933 0.0000 0.0000 0.0000
# 4 0.0000 0.0000 0.0000 -2.6290 0.0000 0.0000
# 5 0.0000 0.0000 0.0000 0.0000 15.7063 0.0000
# 6 0.0000 0.0000 0.0000 0.0000 0.0000 18.0728
#
#
#
# Elastic Compliance Matrix: (Units=1/GPa)
#
#
# Indices 1 2 3 4 5 6 
#
# 1 0.026766 0.000514 -0.003379 0.000000 0.000000 0.000000
# 2 0.000514 0.008421 -0.003177 0.000000 0.000000 0.000000
# 3 -0.003379 -0.003177 0.009816 0.000000 0.000000 0.000000
# 4 0.000000 0.000000 0.000000 -0.380366 0.000000 0.000000
# 5 0.000000 0.000000 0.000000 0.000000 0.063669 0.000000
# 6 0.000000 0.000000 0.000000 0.000000 0.000000 0.055332
#
#
# Mechanical properties :
#
#
# Convention : Reuss Voigt Hill
#
# Bulk Modulus (GPa) = 30.37880 46.77090 38.57485
# Shear Modulus (GPa) = -25.86606 21.80171 -2.03217
#
# Velocity S-wave (km/s) = -3.71220 3.40809 -1.04051
# Velocity P-wave (km/s) = 1.47962 6.35646 4.37123
#
# Compressibility (1/GPa) = 0.03291770
#
# Stress axis : x y z
#
# Youngs Moduli (GPa) = 37.36057 118.74783 101.87445
#
# Poissons Ratio (x) = -0.06098 0.34424
# Poissons Ratio (y) = -0.01918 0.32369
# Poissons Ratio (z) = 0.12624 0.37730
#
# Static dielectric constant tensor:
#      x y z
#    x 1.708380 0.000000 0.000000 
#    y 0.000000 1.637660 0.000000 
#    z 0.000000 0.000000 1.645380 
# 
# From -- ./inp_files/44994.got.cif
#   From: 2010.05.17/outbox.cif.g08.bks.cpg/sg71_23_cif.got.tgz:44994.got - 2010.06.03 16:22:01.
