data_PCOD9522474
_publ_section_title
;
Structure prediction by ZEFSAII (Michael W. Deem and Ramdas Pophale) SiO2 
 PCOD9522474
Probable space group: I M M M
;
_chemical_formula_sum "Si O2"
_cell_formula_units_Z 88
_cell_length_a 8.143119
_cell_length_b 24.398183
_cell_length_c 24.212629
_cell_angle_alpha 90.000000
_cell_angle_beta 90.000000
_cell_angle_gamma 90.000000
_cell_volume 4810.499938
_symmetry_space_group_name_H-M "I M M M"
_symmetry_group_IT_number 71
_symmetry_cell_setting 'orthorhombic'
loop_
_space_group_symop_operation_xyz
x,y,z
-x,-y,z
x,-y,-z
-x,y,-z
-x,-y,-z
x,y,-z
-x,y,z
x,-y,z
1/2+x,1/2+y,1/2+z
1/2-x,1/2-y,1/2+z
1/2+x,1/2-y,1/2-z
1/2-x,1/2+y,1/2-z
1/2-x,1/2-y,1/2-z
1/2+x,1/2+y,1/2-z
1/2-x,1/2+y,1/2+z
1/2+x,1/2-y,1/2+z
loop_
_atom_site_type_symbol
_atom_site_label
_atom_site_fract_x
_atom_site_fract_y
_atom_site_fract_z
Si Si1 0.194530 0.563991 0.723677
Si Si2 0.500000 0.936968 0.934146
Si Si3 0.805300 0.725856 0.435497
Si Si4 0.316189 0.379448 0.618519
Si Si5 0.803502 0.062570 0.347589
Si Si6 0.303431 0.848929 0.563046
O O1 0.241769 0.500000 0.714215
O O2 0.289908 0.603443 0.682059
O O3 0.229457 0.576171 0.787654
O O4 0.000000 0.568988 0.712973
O O5 0.333399 0.909348 0.912671
O O6 0.500000 0.000000 0.915847
O O7 0.500000 0.934056 0.000000
O O8 0.758340 0.716153 0.500000
O O9 0.710223 0.684257 0.395996
O O10 0.769541 0.789276 0.423296
O O11 0.000000 0.715524 0.430744
O O12 0.500000 0.395913 0.601187
O O13 0.750441 0.105027 0.394136
O O14 0.000000 0.063443 0.342577
O O15 0.752425 0.000000 0.361235
O O16 0.252037 0.862357 0.500000
O O17 0.500000 0.844332 0.563910
#
# Coordination Sequence:
#
# PCOD9522474 Si02
#       6
#    16   8  16  16  16  16
#     4  10  20  37  60  84 114 153 197 246 298 353
#     4  11  24  40  56  82 120 156 196 250 304 352
#     4  10  20  37  60  84 114 153 197 246 298 353
#     4  12  23  37  60  87 117 156 204 248 300 355
#     4  10  21  37  58  86 118 153 195 241 295 357
#     4  10  21  37  58  86 118 153 195 241 295 357
#
# _framework density 18.293316000000001
#
# number of rings (size 3 to 8) (size 9 to 14) (size 15 to 20)
#    0.000    1.545    1.818    3.273    0.000    6.909 
#    0.000    3.636    0.000    0.000    0.000    0.000 
#    0.000    0.000    0.000    0.000    0.000    0.000 
#
# Total GULP energy -245784.466997 kJ/mol
# GULP energy per Si atom -5586.010614 kJ/mol
# Density = 1.825168 g / cm^3
# Si number density = 18.293316 Si / 1000 Ang^3
#
#
#
# Elastic Constant Matrix: (Units=GPa)
#
#
# Indices 1 2 3 4 5 6 
#
# 1 94.6588 38.9795 35.1440 0.0000 0.0000 0.0000
# 2 38.9795 109.8883 80.7532 0.0000 0.0000 0.0000
# 3 35.1440 80.7532 101.9855 0.0000 0.0000 0.0000
# 4 0.0000 0.0000 0.0000 38.4766 0.0000 0.0000
# 5 0.0000 0.0000 0.0000 0.0000 16.8331 0.0000
# 6 0.0000 0.0000 0.0000 0.0000 0.0000 18.5727
#
#
#
# Elastic Compliance Matrix: (Units=1/GPa)
#
#
# Indices 1 2 3 4 5 6 
#
# 1 0.012525 -0.003040 -0.001909 0.000000 0.000000 0.000000
# 2 -0.003040 0.022502 -0.016770 0.000000 0.000000 0.000000
# 3 -0.001909 -0.016770 0.023742 0.000000 0.000000 0.000000
# 4 0.000000 0.000000 0.000000 0.025990 0.000000 0.000000
# 5 0.000000 0.000000 0.000000 0.000000 0.059407 0.000000
# 6 0.000000 0.000000 0.000000 0.000000 0.000000 0.053842
#
#
# Mechanical properties :
#
#
# Convention : Reuss Voigt Hill
#
# Bulk Modulus (GPa) = 65.22696 68.47620 66.85158
# Shear Modulus (GPa) = 20.27942 24.88687 22.58315
#
# Velocity S-wave (km/s) = 3.33313 3.69241 3.51736
# Velocity P-wave (km/s) = 7.10961 7.46272 7.28830
#
# Compressibility (1/GPa) = 0.01533108
#
# Stress axis : x y z
#
# Youngs Moduli (GPa) = 79.84144 44.44042 42.12012
#
# Poissons Ratio (x) = 0.13510 0.08040
# Poissons Ratio (y) = 0.24272 0.70635
# Poissons Ratio (z) = 0.15241 0.74526
#
# Static dielectric constant tensor:
#      x y z
#    x 1.634700 0.000000 0.000000 
#    y 0.000000 1.620190 0.000000 
#    z 0.000000 0.000000 1.619030 
# 
# From -- ./inp_files/50485.got.cif
#   From: 2010.05.17/outbox.cif.g08.bks.cpg/sg71_26_cif.got.tgz:50485.got - 2010.06.03 16:22:01.
