data_PCOD9522872
_publ_section_title
;
Structure prediction by ZEFSAII (Michael W. Deem and Ramdas Pophale) SiO2 
 PCOD9522872
Probable space group: I M M M
;
_chemical_formula_sum "Si O2"
_cell_formula_units_Z 64
_cell_length_a 8.605459
_cell_length_b 16.582890
_cell_length_c 22.736193
_cell_angle_alpha 90.000000
_cell_angle_beta 90.000000
_cell_angle_gamma 90.000000
_cell_volume 3244.531589
_symmetry_space_group_name_H-M "I M M M"
_symmetry_group_IT_number 71
_symmetry_cell_setting 'orthorhombic'
loop_
_space_group_symop_operation_xyz
x,y,z
-x,-y,z
x,-y,-z
-x,y,-z
-x,-y,-z
x,y,-z
-x,y,z
x,-y,z
1/2+x,1/2+y,1/2+z
1/2-x,1/2-y,1/2+z
1/2+x,1/2-y,1/2-z
1/2-x,1/2+y,1/2-z
1/2-x,1/2-y,1/2-z
1/2+x,1/2+y,1/2-z
1/2-x,1/2+y,1/2+z
1/2+x,1/2-y,1/2+z
loop_
_atom_site_type_symbol
_atom_site_label
_atom_site_fract_x
_atom_site_fract_y
_atom_site_fract_z
Si Si1 0.500000 0.096093 0.934081
Si Si2 0.181783 0.839087 0.739146
Si Si3 0.178447 0.144799 0.870756
Si Si4 0.823462 0.339763 0.881425
Si Si5 0.684598 0.591588 0.000000
O O1 0.335179 0.118895 0.904112
O O2 0.500000 0.000000 0.936926
O O3 0.500000 0.131072 0.000000
O O4 0.250000 0.750000 0.750000
O O5 0.198811 0.881213 0.802418
O O6 0.257250 0.873435 0.680118
O O7 0.000000 0.830510 0.727476
O O8 0.178446 0.242398 0.875108
O O9 0.000000 0.119802 0.889168
O O10 0.736302 0.364848 0.940304
O O11 0.000000 0.366277 0.887610
O O12 0.746480 0.500000 0.000000
O O13 0.500000 0.588609 0.000000
#
# Coordination Sequence:
#
# PCOD9522872 Si02
#       5
#     8  16  16  16   8
#     4  11  26  42  60  88 120 159 199 243 309 373
#     4   9  17  31  55  89 119 148 192 249 299 340
#     4   9  21  38  62  93 121 153 202 254 297 357
#     4  10  21  35  59  90 118 157 202 247 298 347
#     4  11  25  41  57  83 123 166 203 244 298 358
#
# _framework density 19.725498999999999
#
# number of rings (size 3 to 8) (size 9 to 14) (size 15 to 20)
#    0.000    2.250    0.000    3.375   12.250    2.000 
#    0.000    2.500    0.000    1.500    0.000    0.000 
#    0.000    0.000    0.000    0.000    0.000    0.000 
#
# Total GULP energy -178281.860760 kJ/mol
# GULP energy per Si atom -5571.308149 kJ/mol
# Density = 1.968060 g / cm^3
# Si number density = 19.725499 Si / 1000 Ang^3
#
#
#
# Elastic Constant Matrix: (Units=GPa)
#
#
# Indices 1 2 3 4 5 6 
#
# 1 172.8573 18.0590 90.6490 0.0000 0.0000 0.0000
# 2 18.0590 19.7967 22.1261 0.0000 0.0000 0.0000
# 3 90.6490 22.1261 161.2584 0.0000 0.0000 0.0000
# 4 0.0000 0.0000 0.0000 398.0521 0.0000 0.0000
# 5 0.0000 0.0000 0.0000 0.0000 43.8946 0.0000
# 6 0.0000 0.0000 0.0000 0.0000 0.0000 10.8686
#
#
#
# Elastic Compliance Matrix: (Units=1/GPa)
#
#
# Indices 1 2 3 4 5 6 
#
# 1 0.008332 -0.002794 -0.004300 0.000000 0.000000 0.000000
# 2 -0.002794 0.060600 -0.006744 0.000000 0.000000 0.000000
# 3 -0.004300 -0.006744 0.009544 0.000000 0.000000 0.000000
# 4 0.000000 0.000000 0.000000 0.002512 0.000000 0.000000
# 5 0.000000 0.000000 0.000000 0.000000 0.022782 0.000000
# 6 0.000000 0.000000 0.000000 0.000000 0.000000 0.092008
#
#
# Mechanical properties :
#
#
# Convention : Reuss Voigt Hill
#
# Bulk Modulus (GPa) = 19.68558 68.39786 44.04172
# Shear Modulus (GPa) = 20.79958 105.43493 63.11726
#
# Velocity S-wave (km/s) = 3.25075 7.31896 5.66280
# Velocity P-wave (km/s) = 4.90829 10.30403 8.07045
#
# Compressibility (1/GPa) = 0.05079861
#
# Stress axis : x y z
#
# Youngs Moduli (GPa) = 120.01503 16.50161 104.77784
#
# Poissons Ratio (x) = 0.04611 0.45059
# Poissons Ratio (y) = 0.33538 0.70662
# Poissons Ratio (z) = 0.51612 0.11129
#
# Static dielectric constant tensor:
#      x y z
#    x 1.374240 0.000000 0.000000 
#    y 0.000000 1.681950 0.000000 
#    z 0.000000 0.000000 1.711710 
# 
# From -- ./inp_files/49974.got.cif
#   From: 2010.05.17/outbox.cif.g08.bks.cpg/sg71_25_cif.got.tgz:49974.got - 2010.06.03 16:22:01.
