data_PCOD9522458
_publ_section_title
;
Structure prediction by ZEFSAII (Michael W. Deem and Ramdas Pophale) SiO2 
 PCOD9522458
Probable space group: I M M M
;
_chemical_formula_sum "Si O2"
_cell_formula_units_Z 96
_cell_length_a 16.795103
_cell_length_b 19.152475
_cell_length_c 15.136643
_cell_angle_alpha 90.000000
_cell_angle_beta 90.000000
_cell_angle_gamma 90.000000
_cell_volume 4868.970507
_symmetry_space_group_name_H-M "I M M M"
_symmetry_group_IT_number 71
_symmetry_cell_setting 'orthorhombic'
loop_
_space_group_symop_operation_xyz
x,y,z
-x,-y,z
x,-y,-z
-x,y,-z
-x,-y,-z
x,y,-z
-x,y,z
x,-y,z
1/2+x,1/2+y,1/2+z
1/2-x,1/2-y,1/2+z
1/2+x,1/2-y,1/2-z
1/2-x,1/2+y,1/2-z
1/2-x,1/2-y,1/2-z
1/2+x,1/2+y,1/2-z
1/2-x,1/2+y,1/2+z
1/2+x,1/2-y,1/2+z
loop_
_atom_site_type_symbol
_atom_site_label
_atom_site_fract_x
_atom_site_fract_y
_atom_site_fract_z
Si Si1 0.361337 0.919867 0.104928
Si Si2 0.257049 0.423974 0.238103
Si Si3 0.910149 0.230245 0.131135
Si Si4 0.247992 0.193332 0.596241
Si Si5 0.587843 0.230437 0.839797
Si Si6 0.409736 0.425128 0.337936
O O1 0.282227 0.916774 0.165116
O O2 0.409161 0.853190 0.142014
O O3 0.393338 0.000000 0.116470
O O4 0.348558 0.910596 0.000000
O O5 0.232424 0.500000 0.203639
O O6 0.237706 0.362490 0.172885
O O7 0.350469 0.422380 0.256091
O O8 0.829949 0.263660 0.094722
O O9 0.908199 0.247883 0.236481
O O10 0.901778 0.147683 0.112549
O O11 0.000000 0.251829 0.102263
O O12 0.236352 0.160390 0.500000
O O13 0.168235 0.237893 0.617372
O O14 0.500000 0.254697 0.872254
O O15 0.500000 0.425488 0.306452
O O16 0.394971 0.500000 0.384399
#
# Coordination Sequence:
#
# PCOD9522458 Si02
#       6
#    16  16  16  16  16  16
#     4  10  21  37  59  86 116 153 194 239 295 357
#     4  10  20  37  59  83 116 154 198 246 291 351
#     4  10  20  37  62  86 114 155 200 248 296 347
#     4  12  24  38  60  87 120 160 200 245 295 350
#     4  11  22  38  60  87 120 156 195 245 298 352
#     4   9  17  31  56  85 112 149 190 233 293 355
#
# _framework density 19.716692999999999
#
# number of rings (size 3 to 8) (size 9 to 14) (size 15 to 20)
#    0.000    1.667    3.333    2.000    0.000    2.333 
#    0.000    0.833    0.000    2.500    0.000   12.833 
#    0.000    0.000    0.000    0.000    0.000    0.000 
#
# Total GULP energy -267305.277131 kJ/mol
# GULP energy per Si atom -5568.859940 kJ/mol
# Density = 1.967182 g / cm^3
# Si number density = 19.716693 Si / 1000 Ang^3
#
#
#
# Elastic Constant Matrix: (Units=GPa)
#
#
# Indices 1 2 3 4 5 6 
#
# 1 122.1955 49.9761 29.5683 0.0000 0.0000 0.0000
# 2 49.9761 118.8287 40.2460 0.0000 0.0000 0.0000
# 3 29.5683 40.2460 84.9328 0.0000 0.0000 0.0000
# 4 0.0000 0.0000 0.0000 3.3115 0.0000 0.0000
# 5 0.0000 0.0000 0.0000 0.0000 -17.3615 0.0000
# 6 0.0000 0.0000 0.0000 0.0000 0.0000 25.0207
#
#
#
# Elastic Compliance Matrix: (Units=1/GPa)
#
#
# Indices 1 2 3 4 5 6 
#
# 1 0.010108 -0.003644 -0.001792 0.000000 0.000000 0.000000
# 2 -0.003644 0.011338 -0.004104 0.000000 0.000000 0.000000
# 3 -0.001792 -0.004104 0.014343 0.000000 0.000000 0.000000
# 4 0.000000 0.000000 0.000000 0.301978 0.000000 0.000000
# 5 0.000000 0.000000 0.000000 0.000000 -0.057599 0.000000
# 6 0.000000 0.000000 0.000000 0.000000 0.000000 0.039967
#
#
# Mechanical properties :
#
#
# Convention : Reuss Voigt Hill
#
# Bulk Modulus (GPa) = 59.85139 62.83753 61.34446
# Shear Modulus (GPa) = 14.50183 15.93858 15.22020
#
# Velocity S-wave (km/s) = 2.71497 2.84629 2.78140
# Velocity P-wave (km/s) = 6.34426 6.53768 6.44170
#
# Compressibility (1/GPa) = 0.01670805
#
# Stress axis : x y z
#
# Youngs Moduli (GPa) = 98.93551 88.19873 69.72228
#
# Poissons Ratio (x) = 0.32140 0.12495
# Poissons Ratio (y) = 0.36052 0.28614
# Poissons Ratio (z) = 0.17730 0.36197
#
# Static dielectric constant tensor:
#      x y z
#    x 1.727100 0.000000 0.000000 
#    y 0.000000 1.751890 0.000000 
#    z 0.000000 0.000000 1.666110 
# 
# From -- ./inp_files/34508.got.cif
#   From: 2010.05.17/outbox.cif.g08.bks.cpg/sg71_18_cif.got.tgz:34508.got - 2010.06.03 16:22:01.
