data_PCOD9522794
_publ_section_title
;
Structure prediction by ZEFSAII (Michael W. Deem and Ramdas Pophale) SiO2 
 PCOD9522794
Probable space group: I M M M
;
_chemical_formula_sum "Si O2"
_cell_formula_units_Z 104
_cell_length_a 10.869408
_cell_length_b 19.021927
_cell_length_c 29.729995
_cell_angle_alpha 90.000000
_cell_angle_beta 90.000000
_cell_angle_gamma 90.000000
_cell_volume 6146.887118
_symmetry_space_group_name_H-M "I M M M"
_symmetry_group_IT_number 71
_symmetry_cell_setting 'orthorhombic'
loop_
_space_group_symop_operation_xyz
x,y,z
-x,-y,z
x,-y,-z
-x,y,-z
-x,-y,-z
x,y,-z
-x,y,z
x,-y,z
1/2+x,1/2+y,1/2+z
1/2-x,1/2-y,1/2+z
1/2+x,1/2-y,1/2-z
1/2-x,1/2+y,1/2-z
1/2-x,1/2-y,1/2-z
1/2+x,1/2+y,1/2-z
1/2-x,1/2+y,1/2+z
1/2+x,1/2-y,1/2+z
loop_
_atom_site_type_symbol
_atom_site_label
_atom_site_fract_x
_atom_site_fract_y
_atom_site_fract_z
Si Si1 0.144161 0.330083 0.324685
Si Si2 0.142641 0.167534 0.683470
Si Si3 0.142752 0.079113 0.000000
Si Si4 0.855199 0.814815 0.422824
Si Si5 0.850672 0.079197 0.500000
Si Si6 0.000000 0.578108 0.446438
Si Si7 0.260364 0.837955 0.079940
Si Si8 0.857353 0.415800 0.765588
O O1 0.161067 0.250636 0.306334
O O2 0.239406 0.342198 0.365616
O O3 0.156062 0.385989 0.285042
O O4 0.000000 0.331612 0.340780
O O5 0.152536 0.163366 0.629236
O O6 0.249547 0.121526 0.705909
O O7 0.000000 0.149058 0.695714
O O8 0.170727 0.123362 0.954719
O O9 0.000000 0.068179 0.000000
O O10 0.203802 0.000000 0.000000
O O11 0.816100 0.876512 0.456079
O O12 0.777813 0.744288 0.430645
O O13 0.000000 0.798405 0.431781
O O14 0.000000 0.075608 0.500000
O O15 0.803195 0.000000 0.500000
O O16 0.116230 0.621261 0.431886
O O17 0.000000 0.500000 0.426829
O O18 0.000000 0.573682 0.500000
O O19 0.844184 0.500000 0.766957
O O20 0.000000 0.398952 0.779512
#
# Coordination Sequence:
#
# PCOD9522794 Si02
#       8
#    16  16   8  16   8   8  16  16
#     4   9  18  34  54  80 105 128 165 219 275 314
#     4   9  18  34  56  78 101 135 177 215 256 314
#     4  11  25  39  47  63 103 153 186 212 249 298
#     4   9  17  30  51  78 105 129 159 214 269 301
#     4   9  17  26  40  68 104 137 161 189 249 315
#     4  11  20  26  44  82 104 120 158 208 260 305
#     4  11  18  33  53  74  98 128 170 215 260 309
#     4  10  21  35  51  76 109 140 168 211 271 322
#
# _framework density 16.919134
#
# number of rings (size 3 to 8) (size 9 to 14) (size 15 to 20)
#    0.000    2.231    2.308    2.308    0.000    2.154 
#    0.000    5.385    0.000    0.000    0.000    0.000 
#    0.000    3.077    0.000    0.000    0.000    0.000 
#
# Total GULP energy -289486.674445 kJ/mol
# GULP energy per Si atom -5567.051432 kJ/mol
# Density = 1.688062 g / cm^3
# Si number density = 16.919134 Si / 1000 Ang^3
#
#
#
# Elastic Constant Matrix: (Units=GPa)
#
#
# Indices 1 2 3 4 5 6 
#
# 1 79.3156 49.7999 40.3846 0.0000 0.0000 0.0000
# 2 49.7999 109.2218 62.1058 0.0000 0.0000 0.0000
# 3 40.3846 62.1058 65.3338 0.0000 0.0000 0.0000
# 4 0.0000 0.0000 0.0000 37.4273 0.0000 0.0000
# 5 0.0000 0.0000 0.0000 0.0000 -2.5352 0.0000
# 6 0.0000 0.0000 0.0000 0.0000 0.0000 24.3583
#
#
#
# Elastic Compliance Matrix: (Units=1/GPa)
#
#
# Indices 1 2 3 4 5 6 
#
# 1 0.019321 -0.004393 -0.007767 0.000000 0.000000 0.000000
# 2 -0.004393 0.020925 -0.017176 0.000000 0.000000 0.000000
# 3 -0.007767 -0.017176 0.036434 0.000000 0.000000 0.000000
# 4 0.000000 0.000000 0.000000 0.026718 0.000000 0.000000
# 5 0.000000 0.000000 0.000000 0.000000 -0.394441 0.000000
# 6 0.000000 0.000000 0.000000 0.000000 0.000000 0.041054
#
#
# Mechanical properties :
#
#
# Convention : Reuss Voigt Hill
#
# Bulk Modulus (GPa) = 55.52845 62.05019 58.78932
# Shear Modulus (GPa) = -26.98120 18.62213 -4.17953
#
# Velocity S-wave (km/s) = -3.99772 3.32121 -1.57342
# Velocity P-wave (km/s) = 3.40325 7.17366 5.61443
#
# Compressibility (1/GPa) = 0.01800879
#
# Stress axis : x y z
#
# Youngs Moduli (GPa) = 51.75827 47.78899 27.44679
#
# Poissons Ratio (x) = 0.20994 0.21317
# Poissons Ratio (y) = 0.22737 0.47143
# Poissons Ratio (z) = 0.40199 0.82082
#
# Static dielectric constant tensor:
#      x y z
#    x 1.547810 0.000000 0.000000 
#    y 0.000000 1.581120 0.000000 
#    z 0.000000 0.000000 1.619250 
# 
# From -- ./inp_files/64692.got.cif
#   From: 2010.05.17/outbox.cif.g08.bks.cpg/sg71_33_cif.got.tgz:64692.got - 2010.06.03 16:22:01.
