data_PCOD9522988
_publ_section_title
;
Structure prediction by ZEFSAII (Michael W. Deem and Ramdas Pophale) SiO2 
 PCOD9522988
Probable space group: I M M M
;
_chemical_formula_sum "Si O2"
_cell_formula_units_Z 116
_cell_length_a 24.823496
_cell_length_b 30.060253
_cell_length_c 7.905655
_cell_angle_alpha 90.000000
_cell_angle_beta 90.000000
_cell_angle_gamma 90.000000
_cell_volume 5899.204268
_symmetry_space_group_name_H-M "I M M M"
_symmetry_group_IT_number 71
_symmetry_cell_setting 'orthorhombic'
loop_
_space_group_symop_operation_xyz
x,y,z
-x,-y,z
x,-y,-z
-x,y,-z
-x,-y,-z
x,y,-z
-x,y,z
x,-y,z
1/2+x,1/2+y,1/2+z
1/2-x,1/2-y,1/2+z
1/2+x,1/2-y,1/2-z
1/2-x,1/2+y,1/2-z
1/2-x,1/2-y,1/2-z
1/2+x,1/2+y,1/2-z
1/2-x,1/2+y,1/2+z
1/2+x,1/2-y,1/2+z
loop_
_atom_site_type_symbol
_atom_site_label
_atom_site_fract_x
_atom_site_fract_y
_atom_site_fract_z
Si Si1 0.167438 0.372644 0.801092
Si Si2 0.750345 0.801532 0.295740
Si Si3 0.248481 0.550103 0.702623
Si Si4 0.939556 0.338705 0.698926
Si Si5 0.375287 0.433740 0.697578
Si Si6 0.863665 0.161478 0.303608
Si Si7 0.593732 0.500000 0.000000
Si Si8 0.938224 0.239872 0.198249
O O1 0.199580 0.329647 0.731162
O O2 0.206382 0.414397 0.771862
O O3 0.107458 0.374079 0.728763
O O4 0.160886 0.366574 0.000000
O O5 0.750643 0.804264 0.500000
O O6 0.750000 0.750000 0.250000
O O7 0.804906 0.825223 0.234081
O O8 0.243014 0.550272 0.500000
O O9 0.238490 0.500000 0.765839
O O10 0.311040 0.561311 0.737345
O O11 0.942705 0.330508 0.500000
O O12 0.923210 0.291574 0.780763
O O13 0.000000 0.350577 0.759762
O O14 0.383565 0.447805 0.500000
O O15 0.387576 0.381377 0.711494
O O16 0.403783 0.461600 0.846339
O O17 0.857465 0.149018 0.500000
O O18 0.899988 0.205242 0.289891
O O19 0.000000 0.235990 0.258163
O O20 0.936161 0.229086 0.000000
#
# Coordination Sequence:
#
# PCOD9522988 Si02
#       8
#    16  16  16  16  16  16   4  16
#     4  11  22  35  55  81 112 147 188 232 287 346
#     4  10  22  34  48  74 111 151 186 224 279 344
#     4  10  21  36  55  81 113 149 192 234 283 344
#     4  10  21  38  58  80 108 146 193 242 290 343
#     4  11  22  36  57  85 116 157 195 241 293 350
#     4  11  21  36  55  81 117 153 192 238 288 344
#     4  12  22  36  60  82 121 154 199 244 296 346
#     4  10  21  37  57  82 113 149 195 246 290 340
#
# _framework density 19.663668999999999
#
# number of rings (size 3 to 8) (size 9 to 14) (size 15 to 20)
#    0.000    1.517    2.759    2.690    0.966    6.345 
#    0.000    0.000    0.000    0.414    0.000    3.862 
#    0.000    2.207    0.000    0.000    0.000    0.000 
#
# Total GULP energy -323303.517976 kJ/mol
# GULP energy per Si atom -5574.198586 kJ/mol
# Density = 1.961891 g / cm^3
# Si number density = 19.663669 Si / 1000 Ang^3
#
#
#
# Elastic Constant Matrix: (Units=GPa)
#
#
# Indices 1 2 3 4 5 6 
#
# 1 31.1248 -11.3095 -4.9188 0.0000 0.0000 0.0000
# 2 -11.3095 38.3383 -4.5945 0.0000 0.0000 0.0000
# 3 -4.9188 -4.5945 63.5211 0.0000 0.0000 0.0000
# 4 0.0000 0.0000 0.0000 34.4619 0.0000 0.0000
# 5 0.0000 0.0000 0.0000 0.0000 18.0979 0.0000
# 6 0.0000 0.0000 0.0000 0.0000 0.0000 5.8950
#
#
#
# Elastic Compliance Matrix: (Units=1/GPa)
#
#
# Indices 1 2 3 4 5 6 
#
# 1 0.036814 0.011299 0.003668 0.000000 0.000000 0.000000
# 2 0.011299 0.029780 0.003029 0.000000 0.000000 0.000000
# 3 0.003668 0.003029 0.016246 0.000000 0.000000 0.000000
# 4 0.000000 0.000000 0.000000 0.029018 0.000000 0.000000
# 5 0.000000 0.000000 0.000000 0.000000 0.055255 0.000000
# 6 0.000000 0.000000 0.000000 0.000000 0.000000 0.169636
#
#
# Mechanical properties :
#
#
# Convention : Reuss Voigt Hill
#
# Bulk Modulus (GPa) = 8.41518 10.14873 9.28196
# Shear Modulus (GPa) = 14.69004 21.94475 18.31740
#
# Velocity S-wave (km/s) = 2.73621 3.34429 3.05542
# Velocity P-wave (km/s) = 3.77774 4.48160 4.14464
#
# Compressibility (1/GPa) = 0.11883282
#
# Stress axis : x y z
#
# Youngs Moduli (GPa) = 27.16348 33.57977 61.55390
#
# Poissons Ratio (x) = -0.37943 -0.22578
# Poissons Ratio (y) = -0.30693 -0.18645
# Poissons Ratio (z) = -0.09964 -0.10171
#
# Static dielectric constant tensor:
#      x y z
#    x 1.717630 0.000000 0.000000 
#    y 0.000000 1.687610 0.000000 
#    z 0.000000 0.000000 1.698760 
# 
# From -- ./inp_files/13755.got.cif
#   From: 2010.05.17/outbox.cif.g08.bks.cpg/sg71_7_cif.got.tgz:13755.got - 2010.06.03 16:22:01.
