data_PCOD9522060
_publ_section_title
;
Structure prediction by ZEFSAII (Michael W. Deem and Ramdas Pophale) SiO2 
 PCOD9522060
Probable space group: I M M M
;
_chemical_formula_sum "Si O2"
_cell_formula_units_Z 82
_cell_length_a 22.637544
_cell_length_b 22.400478
_cell_length_c 8.011796
_cell_angle_alpha 90.000000
_cell_angle_beta 90.000000
_cell_angle_gamma 90.000000
_cell_volume 4062.716106
_symmetry_space_group_name_H-M "I M M M"
_symmetry_group_IT_number 71
_symmetry_cell_setting 'orthorhombic'
loop_
_space_group_symop_operation_xyz
x,y,z
-x,-y,z
x,-y,-z
-x,y,-z
-x,-y,-z
x,y,-z
-x,y,z
x,-y,z
1/2+x,1/2+y,1/2+z
1/2-x,1/2-y,1/2+z
1/2+x,1/2-y,1/2-z
1/2-x,1/2+y,1/2-z
1/2-x,1/2-y,1/2-z
1/2+x,1/2+y,1/2-z
1/2-x,1/2+y,1/2+z
1/2+x,1/2-y,1/2+z
loop_
_atom_site_type_symbol
_atom_site_label
_atom_site_fract_x
_atom_site_fract_y
_atom_site_fract_z
Si Si1 0.356000 0.242232 0.816910
Si Si2 0.389148 0.912383 0.500000
Si Si3 0.500000 0.000000 0.500000
Si Si4 0.430414 0.775096 0.500000
Si Si5 0.816552 0.860438 0.804316
Si Si6 0.690072 0.893309 0.192555
Si Si7 0.933729 0.070269 0.298359
O O1 0.402259 0.250823 0.668054
O O2 0.313810 0.299119 0.798734
O O3 0.324227 0.178186 0.800831
O O4 0.384336 0.243315 0.000000
O O5 0.409453 0.843630 0.500000
O O6 0.350726 0.922441 0.667021
O O7 0.448127 0.949500 0.500000
O O8 0.500000 0.769667 0.500000
O O9 0.759138 0.900201 0.765744
O O10 0.878430 0.893203 0.771144
O O11 0.811342 0.845561 0.000000
O O12 0.678911 0.912245 0.000000
O O13 0.931880 0.074830 0.500000
O O14 0.000000 0.089776 0.244610
O O15 0.927923 0.000000 0.255462
#
# Coordination Sequence:
#
# PCOD9522060 Si02
#       7
#    16   8   2   8  16  16  16
#     4  10  20  35  57  86 123 161 201 244 308 372
#     4  10  22  42  68  90 123 160 200 264 307 366
#     4  12  24  48  74 104 120 166 234 248 324 384
#     4  10  20  38  58  84 123 165 202 252 304 361
#     4  11  21  35  57  89 123 158 204 254 304 369
#     4   9  21  39  60  92 128 159 200 248 311 374
#     4   9  20  39  58  77 109 156 210 255 300 353
#
# _framework density 20.183541000000002
#
# number of rings (size 3 to 8) (size 9 to 14) (size 15 to 20)
#    0.000    2.146    1.463    1.756    2.732    1.951 
#    1.756    2.439    0.000    0.000    0.000    0.000 
#    0.000    0.000    0.000    0.000    0.000    0.000 
#
# Total GULP energy -228579.039105 kJ/mol
# GULP energy per Si atom -5575.098515 kJ/mol
# Density = 2.013760 g / cm^3
# Si number density = 20.183541 Si / 1000 Ang^3
#
#
#
# Elastic Constant Matrix: (Units=GPa)
#
#
# Indices 1 2 3 4 5 6 
#
# 1 151.0308 22.1285 72.8064 0.0000 0.0000 0.0000
# 2 22.1285 39.5978 21.8746 0.0000 0.0000 0.0000
# 3 72.8064 21.8746 113.8030 0.0000 0.0000 0.0000
# 4 0.0000 0.0000 0.0000 -4.6291 0.0000 0.0000
# 5 0.0000 0.0000 0.0000 0.0000 10.8053 0.0000
# 6 0.0000 0.0000 0.0000 0.0000 0.0000 30.5332
#
#
#
# Elastic Compliance Matrix: (Units=1/GPa)
#
#
# Indices 1 2 3 4 5 6 
#
# 1 0.009748 -0.002240 -0.005806 0.000000 0.000000 0.000000
# 2 -0.002240 0.028769 -0.004097 0.000000 0.000000 0.000000
# 3 -0.005806 -0.004097 0.013289 0.000000 0.000000 0.000000
# 4 0.000000 0.000000 0.000000 -0.216025 0.000000 0.000000
# 5 0.000000 0.000000 0.000000 0.000000 0.092547 0.000000
# 6 0.000000 0.000000 0.000000 0.000000 0.000000 0.032751
#
#
# Mechanical properties :
#
#
# Convention : Reuss Voigt Hill
#
# Bulk Modulus (GPa) = 36.33648 59.78338 48.05993
# Shear Modulus (GPa) = -915.46928 19.85002 -447.80963
#
# Velocity S-wave (km/s) = -21.32034 3.13944 -14.91142
# Velocity P-wave (km/s) = 24.24941 6.54413 16.51072
#
# Compressibility (1/GPa) = 0.02752055
#
# Stress axis : x y z
#
# Youngs Moduli (GPa) = 102.58292 34.75972 75.25088
#
# Poissons Ratio (x) = 0.07787 0.43690
# Poissons Ratio (y) = 0.22982 0.30827
# Poissons Ratio (z) = 0.59558 0.14239
#
# Static dielectric constant tensor:
#      x y z
#    x 1.691080 0.000000 0.000000 
#    y 0.000000 1.700240 0.000000 
#    z 0.000000 0.000000 1.735850 
# 
# From -- ./inp_files/10323.got.cif
#   From: 2010.05.17/outbox.cif.g08.bks.cpg/sg71_6_cif.got.tgz:10323.got - 2010.06.03 16:22:01.
