data_PCOD9522659
_publ_section_title
;
Structure prediction by ZEFSAII (Michael W. Deem and Ramdas Pophale) SiO2 
 PCOD9522659
Probable space group: I M M M
;
_chemical_formula_sum "Si O2"
_cell_formula_units_Z 88
_cell_length_a 27.259780
_cell_length_b 12.196688
_cell_length_c 15.022160
_cell_angle_alpha 90.000000
_cell_angle_beta 90.000000
_cell_angle_gamma 90.000000
_cell_volume 4994.553209
_symmetry_space_group_name_H-M "I M M M"
_symmetry_group_IT_number 71
_symmetry_cell_setting 'orthorhombic'
loop_
_space_group_symop_operation_xyz
x,y,z
-x,-y,z
x,-y,-z
-x,y,-z
-x,-y,-z
x,y,-z
-x,y,z
x,-y,z
1/2+x,1/2+y,1/2+z
1/2-x,1/2-y,1/2+z
1/2+x,1/2-y,1/2-z
1/2-x,1/2+y,1/2-z
1/2-x,1/2-y,1/2-z
1/2+x,1/2+y,1/2-z
1/2-x,1/2+y,1/2+z
1/2+x,1/2-y,1/2+z
loop_
_atom_site_type_symbol
_atom_site_label
_atom_site_fract_x
_atom_site_fract_y
_atom_site_fract_z
Si Si1 0.187651 0.128523 0.500000
Si Si2 0.139692 0.763187 0.155349
Si Si3 0.055392 0.381707 0.106685
Si Si4 0.709558 0.000000 0.894454
Si Si5 0.858824 0.708363 0.362861
Si Si6 0.678831 0.500000 0.392380
Si Si7 0.941168 0.367362 0.500000
Si Si8 0.695066 0.869575 0.500000
O O1 0.164255 0.189849 0.415932
O O2 0.246357 0.143213 0.500000
O O3 0.176972 0.000000 0.500000
O O4 0.085448 0.724771 0.129865
O O5 0.141435 0.735019 0.259087
O O6 0.152915 0.888894 0.138768
O O7 0.173154 0.689931 0.087828
O O8 0.076847 0.500000 0.138101
O O9 0.000000 0.376130 0.140060
O O10 0.054251 0.387155 0.000000
O O11 0.677965 0.893838 0.872199
O O12 0.764821 0.000000 0.857791
O O13 0.715370 0.000000 0.000000
O O14 0.909890 0.676554 0.413944
O O15 0.678842 0.500000 0.500000
O O16 0.937586 0.500000 0.500000
O O17 0.000000 0.339701 0.500000
O O18 0.683051 0.000000 0.500000
#
# Coordination Sequence:
#
# PCOD9522659 Si02
#       8
#     8  16  16   8  16   8   8   8
#     4  10  23  42  59  81 118 162 210 253 296 357
#     4  12  24  38  59  89 125 162 203 254 302 364
#     4   9  18  35  60  85 113 149 190 240 300 356
#     4  11  20  40  62  84 119 162 205 252 318 367
#     4  11  23  39  62  90 124 160 198 253 317 363
#     4  11  24  40  59  81 121 174 215 246 291 366
#     4  10  20  40  69 100 126 151 194 253 318 378
#     4  11  23  38  59  89 120 160 206 255 301 354
#
# _framework density 17.619194
#
# number of rings (size 3 to 8) (size 9 to 14) (size 15 to 20)
#    0.000    1.364    4.545    2.182    3.818    3.636 
#    0.000    2.273    0.000    6.000    0.000    0.000 
#    0.000    0.000    0.000    0.000    0.000    0.000 
#
# Total GULP energy -245335.400165 kJ/mol
# GULP energy per Si atom -5575.804549 kJ/mol
# Density = 1.757909 g / cm^3
# Si number density = 17.619194 Si / 1000 Ang^3
#
#
#
# Elastic Constant Matrix: (Units=GPa)
#
#
# Indices 1 2 3 4 5 6 
#
# 1 128.6990 87.8394 48.4175 0.0000 0.0000 0.0000
# 2 87.8394 156.0808 58.4046 0.0000 0.0000 0.0000
# 3 48.4175 58.4046 125.7323 0.0000 0.0000 0.0000
# 4 0.0000 0.0000 0.0000 -0.2450 0.0000 0.0000
# 5 0.0000 0.0000 0.0000 0.0000 -7.1161 0.0000
# 6 0.0000 0.0000 0.0000 0.0000 0.0000 28.2264
#
#
#
# Elastic Compliance Matrix: (Units=1/GPa)
#
#
# Indices 1 2 3 4 5 6 
#
# 1 0.012998 -0.006587 -0.001945 0.000000 0.000000 0.000000
# 2 -0.006587 0.011093 -0.002616 0.000000 0.000000 0.000000
# 3 -0.001945 -0.002616 0.009918 0.000000 0.000000 0.000000
# 4 0.000000 0.000000 0.000000 -4.081367 0.000000 0.000000
# 5 0.000000 0.000000 0.000000 0.000000 -0.140526 0.000000
# 6 0.000000 0.000000 0.000000 0.000000 0.000000 0.035428
#
#
# Mechanical properties :
#
#
# Convention : Reuss Voigt Hill
#
# Bulk Modulus (GPa) = 85.38903 88.87059 87.12981
# Shear Modulus (GPa) = -1.21175 18.56310 8.67567
#
# Velocity S-wave (km/s) = -0.83020 3.24940 2.22141
# Velocity P-wave (km/s) = 6.90289 8.03911 7.49257
#
# Compressibility (1/GPa) = 0.01171111
#
# Stress axis : x y z
#
# Youngs Moduli (GPa) = 76.93726 90.14776 100.82767
#
# Poissons Ratio (x) = 0.59379 0.19616
# Poissons Ratio (y) = 0.50677 0.26380
# Poissons Ratio (z) = 0.14968 0.23586
#
# Static dielectric constant tensor:
#      x y z
#    x 1.630450 0.000000 0.000000 
#    y 0.000000 1.580410 0.000000 
#    z 0.000000 0.000000 1.804870 
# 
# From -- ./inp_files/40232.got.cif
#   From: 2010.05.17/outbox.cif.g08.bks.cpg/sg71_21_cif.got.tgz:40232.got - 2010.06.03 16:22:01.
