data_PCOD9522546
_publ_section_title
;
Structure prediction by ZEFSAII (Michael W. Deem and Ramdas Pophale) SiO2 
 PCOD9522546
Probable space group: I M M M
;
_chemical_formula_sum "Si O2"
_cell_formula_units_Z 96
_cell_length_a 20.715373
_cell_length_b 22.672197
_cell_length_c 11.609918
_cell_angle_alpha 90.000000
_cell_angle_beta 90.000000
_cell_angle_gamma 90.000000
_cell_volume 5452.749122
_symmetry_space_group_name_H-M "I M M M"
_symmetry_group_IT_number 71
_symmetry_cell_setting 'orthorhombic'
loop_
_space_group_symop_operation_xyz
x,y,z
-x,-y,z
x,-y,-z
-x,y,-z
-x,-y,-z
x,y,-z
-x,y,z
x,-y,z
1/2+x,1/2+y,1/2+z
1/2-x,1/2-y,1/2+z
1/2+x,1/2-y,1/2-z
1/2-x,1/2+y,1/2-z
1/2-x,1/2-y,1/2-z
1/2+x,1/2+y,1/2-z
1/2-x,1/2+y,1/2+z
1/2+x,1/2-y,1/2+z
loop_
_atom_site_type_symbol
_atom_site_label
_atom_site_fract_x
_atom_site_fract_y
_atom_site_fract_z
Si Si1 0.696680 0.068761 0.000000
Si Si2 0.076239 0.261394 0.718982
Si Si3 0.248647 0.429115 0.247739
Si Si4 0.371222 0.363457 0.860584
Si Si5 0.872938 0.637238 0.862534
Si Si6 0.928060 0.651828 0.500000
Si Si7 0.500000 0.434096 0.860841
Si Si8 0.500000 0.933273 0.640121
O O1 0.737928 0.079221 0.884435
O O2 0.631846 0.107524 0.000000
O O3 0.677796 0.000000 0.000000
O O4 0.113633 0.202226 0.683778
O O5 0.114121 0.296882 0.817724
O O6 0.076406 0.305500 0.610202
O O7 0.000000 0.250131 0.746960
O O8 0.249920 0.500000 0.223968
O O9 0.311369 0.396362 0.198238
O O10 0.187971 0.396817 0.188550
O O11 0.435455 0.399946 0.830184
O O12 0.363207 0.362623 0.000000
O O13 0.936415 0.601144 0.823953
O O14 0.868903 0.636473 0.000000
O O15 0.000000 0.624010 0.500000
O O16 0.500000 0.500000 0.814109
O O17 0.500000 0.437024 0.000000
O O18 0.500000 0.934473 0.500000
O O19 0.500000 0.000000 0.682083
#
# Coordination Sequence:
#
# PCOD9522546 Si02
#       8
#     8  16  16  16  16   8   8   8
#     4  10  22  43  62  87 124 162 205 248 299 365
#     4  11  21  38  62  89 123 160 201 254 305 360
#     4  11  24  42  63  88 124 161 199 250 308 368
#     4  11  22  38  63  92 120 157 202 253 310 362
#     4  11  22  37  58  88 123 161 205 247 298 358
#     4  10  20  37  64  88 115 161 206 255 306 354
#     4   9  18  33  58  91 121 148 192 251 309 363
#     4   9  18  33  54  79 115 160 199 238 288 348
#
# _framework density 17.605798
#
# number of rings (size 3 to 8) (size 9 to 14) (size 15 to 20)
#    0.000    1.500    4.167    1.500    0.000    3.500 
#    1.500    0.000    0.000    0.500    0.000    2.333 
#    0.000    0.000    0.000    0.000    0.000    0.000 
#
# Total GULP energy -267908.500003 kJ/mol
# GULP energy per Si atom -5581.427083 kJ/mol
# Density = 1.756573 g / cm^3
# Si number density = 17.605798 Si / 1000 Ang^3
#
#
#
# Elastic Constant Matrix: (Units=GPa)
#
#
# Indices 1 2 3 4 5 6 
#
# 1 177.1960 96.2292 61.5846 0.0000 0.0000 0.0000
# 2 96.2292 148.6836 65.2525 0.0000 0.0000 0.0000
# 3 61.5846 65.2525 92.2423 0.0000 0.0000 0.0000
# 4 0.0000 0.0000 0.0000 28.2027 0.0000 0.0000
# 5 0.0000 0.0000 0.0000 0.0000 9.4759 0.0000
# 6 0.0000 0.0000 0.0000 0.0000 0.0000 46.4571
#
#
#
# Elastic Compliance Matrix: (Units=1/GPa)
#
#
# Indices 1 2 3 4 5 6 
#
# 1 0.009172 -0.004711 -0.002791 0.000000 0.000000 0.000000
# 2 -0.004711 0.012174 -0.005466 0.000000 0.000000 0.000000
# 3 -0.002791 -0.005466 0.016571 0.000000 0.000000 0.000000
# 4 0.000000 0.000000 0.000000 0.035458 0.000000 0.000000
# 5 0.000000 0.000000 0.000000 0.000000 0.105531 0.000000
# 6 0.000000 0.000000 0.000000 0.000000 0.000000 0.021525
#
#
# Mechanical properties :
#
#
# Convention : Reuss Voigt Hill
#
# Bulk Modulus (GPa) = 83.47189 96.02830 89.75010
# Shear Modulus (GPa) = 21.70505 29.83083 25.76794
#
# Velocity S-wave (km/s) = 3.51498 4.12074 3.82986
# Velocity P-wave (km/s) = 7.99925 8.79220 8.40508
#
# Compressibility (1/GPa) = 0.01198008
#
# Stress axis : x y z
#
# Youngs Moduli (GPa) = 109.02732 82.14224 60.34588
#
# Poissons Ratio (x) = 0.38701 0.16841
# Poissons Ratio (y) = 0.51368 0.32987
# Poissons Ratio (z) = 0.30426 0.44902
#
# Static dielectric constant tensor:
#      x y z
#    x 1.583380 0.000000 0.000000 
#    y 0.000000 1.605000 0.000000 
#    z 0.000000 0.000000 1.606350 
# 
# From -- ./inp_files/26055.got.cif
#   From: 2010.05.17/outbox.cif.g08.bks.cpg/sg71_14_cif.got.tgz:26055.got - 2010.06.03 16:22:01.
