data_PCOD9522343
_publ_section_title
;
Structure prediction by ZEFSAII (Michael W. Deem and Ramdas Pophale) SiO2 
 PCOD9522343
Probable space group: I M M M
;
_chemical_formula_sum "Si O2"
_cell_formula_units_Z 72
_cell_length_a 16.989717
_cell_length_b 8.046290
_cell_length_c 25.922607
_cell_angle_alpha 90.000000
_cell_angle_beta 90.000000
_cell_angle_gamma 90.000000
_cell_volume 3543.728993
_symmetry_space_group_name_H-M "I M M M"
_symmetry_group_IT_number 71
_symmetry_cell_setting 'orthorhombic'
loop_
_space_group_symop_operation_xyz
x,y,z
-x,-y,z
x,-y,-z
-x,y,-z
-x,-y,-z
x,y,-z
-x,y,z
x,-y,z
1/2+x,1/2+y,1/2+z
1/2-x,1/2-y,1/2+z
1/2+x,1/2-y,1/2-z
1/2-x,1/2+y,1/2-z
1/2-x,1/2-y,1/2-z
1/2+x,1/2+y,1/2-z
1/2-x,1/2+y,1/2+z
1/2+x,1/2-y,1/2+z
loop_
_atom_site_type_symbol
_atom_site_label
_atom_site_fract_x
_atom_site_fract_y
_atom_site_fract_z
Si Si1 0.405884 0.309502 0.166009
Si Si2 0.092885 0.202573 0.555432
Si Si3 0.903933 0.500000 0.940794
Si Si4 0.165107 0.309635 0.768313
Si Si5 0.594842 0.684836 0.372798
O O1 0.500000 0.316724 0.160604
O O2 0.377436 0.500000 0.173345
O O3 0.374303 0.242425 0.110965
O O4 0.386611 0.209503 0.216972
O O5 0.127102 0.256127 0.500000
O O6 0.000000 0.247471 0.554205
O O7 0.095808 0.000000 0.556906
O O8 0.879295 0.665601 0.910091
O O9 0.000000 0.500000 0.941549
O O10 0.876851 0.500000 0.000000
O O11 0.167189 0.500000 0.785060
O O12 0.250000 0.250000 0.750000
O O13 0.132121 0.207187 0.816374
O O14 0.500000 0.697910 0.367228
O O15 0.612738 0.500000 0.392873
#
# Coordination Sequence:
#
# PCOD9522343 Si02
#       5
#    16  16   8  16  16
#     4   9  17  30  50  77 106 136 175 220 269 330
#     4   7  10  19  39  68  99 129 163 205 249 295
#     4   9  18  34  58  90 122 152 190 234 286 349
#     4  12  24  37  53  75 106 144 190 239 286 341
#     4  10  20  36  59  87 120 154 189 234 288 346
#
# _framework density 20.317581000000001
#
# number of rings (size 3 to 8) (size 9 to 14) (size 15 to 20)
#    0.000    2.556    1.111    4.667    0.000    3.556 
#    0.000    2.222    0.000    2.000    0.000    3.111 
#    0.000    0.000    0.000    0.000    0.000    0.000 
#
# Total GULP energy -200676.798104 kJ/mol
# GULP energy per Si atom -5574.355503 kJ/mol
# Density = 2.027134 g / cm^3
# Si number density = 20.317581 Si / 1000 Ang^3
#
#
#
# Elastic Constant Matrix: (Units=GPa)
#
#
# Indices 1 2 3 4 5 6 
#
# 1 8.5230 16.1232 18.5525 0.0000 0.0000 0.0000
# 2 16.1232 107.5430 50.4607 0.0000 0.0000 0.0000
# 3 18.5525 50.4607 160.1166 0.0000 0.0000 0.0000
# 4 0.0000 0.0000 0.0000 21.6413 0.0000 0.0000
# 5 0.0000 0.0000 0.0000 0.0000 -8.3167 0.0000
# 6 0.0000 0.0000 0.0000 0.0000 0.0000 15.5223
#
#
#
# Elastic Compliance Matrix: (Units=1/GPa)
#
#
# Indices 1 2 3 4 5 6 
#
# 1 0.191534 -0.021478 -0.015424 0.000000 0.000000 0.000000
# 2 -0.021478 0.013321 -0.001709 0.000000 0.000000 0.000000
# 3 -0.015424 -0.001709 0.008571 0.000000 0.000000 0.000000
# 4 0.000000 0.000000 0.000000 0.046208 0.000000 0.000000
# 5 0.000000 0.000000 0.000000 0.000000 -0.120240 0.000000
# 6 0.000000 0.000000 0.000000 0.000000 0.000000 0.064423
#
#
# Mechanical properties :
#
#
# Convention : Reuss Voigt Hill
#
# Bulk Modulus (GPa) = 7.34199 49.60616 28.47407
# Shear Modulus (GPa) = 15.31669 18.50582 16.91125
#
# Velocity S-wave (km/s) = 2.74864 3.02127 2.88817
# Velocity P-wave (km/s) = 3.70065 6.05303 5.01667
#
# Compressibility (1/GPa) = 0.13620285
#
# Stress axis : x y z
#
# Youngs Moduli (GPa) = 5.22100 75.07068 116.66843
#
# Poissons Ratio (x) = 1.61240 1.79948
# Poissons Ratio (y) = 0.11214 0.19943
# Poissons Ratio (z) = 0.08053 0.12832
#
# Static dielectric constant tensor:
#      x y z
#    x 1.717110 0.000000 0.000000 
#    y 0.000000 1.751110 0.000000 
#    z 0.000000 0.000000 1.850460 
# 
# From -- ./inp_files/65776.got.cif
#   From: 2010.05.17/outbox.cif.g08.bks.cpg/sg71_33_cif.got.tgz:65776.got - 2010.06.03 16:22:01.
