data_PCOD9522215
_publ_section_title
;
Structure prediction by ZEFSAII (Michael W. Deem and Ramdas Pophale) SiO2 
 PCOD9522215
Probable space group: I M M M
;
_chemical_formula_sum "Si O2"
_cell_formula_units_Z 88
_cell_length_a 17.622550
_cell_length_b 11.799539
_cell_length_c 22.803112
_cell_angle_alpha 90.000000
_cell_angle_beta 90.000000
_cell_angle_gamma 90.000000
_cell_volume 4741.632728
_symmetry_space_group_name_H-M "I M M M"
_symmetry_group_IT_number 71
_symmetry_cell_setting 'orthorhombic'
loop_
_space_group_symop_operation_xyz
x,y,z
-x,-y,z
x,-y,-z
-x,y,-z
-x,-y,-z
x,y,-z
-x,y,z
x,-y,z
1/2+x,1/2+y,1/2+z
1/2-x,1/2-y,1/2+z
1/2+x,1/2-y,1/2-z
1/2-x,1/2+y,1/2-z
1/2-x,1/2-y,1/2-z
1/2+x,1/2+y,1/2-z
1/2-x,1/2+y,1/2+z
1/2+x,1/2-y,1/2+z
loop_
_atom_site_type_symbol
_atom_site_label
_atom_site_fract_x
_atom_site_fract_y
_atom_site_fract_z
Si Si1 0.269578 0.636494 0.067995
Si Si2 0.583827 0.634765 0.142803
Si Si3 0.141799 0.766516 0.861601
Si Si4 0.744989 0.123176 0.220183
Si Si5 0.500000 0.364394 0.568264
Si Si6 0.585290 0.815679 0.761683
O O1 0.266248 0.500000 0.069747
O O2 0.346043 0.671433 0.102528
O O3 0.197122 0.687118 0.100853
O O4 0.272068 0.671528 0.000000
O O5 0.500000 0.663188 0.118002
O O6 0.587706 0.500000 0.148876
O O7 0.587730 0.693622 0.206080
O O8 0.196987 0.861483 0.833112
O O9 0.104820 0.699240 0.806718
O O10 0.074570 0.817198 0.899869
O O11 0.750000 0.250000 0.250000
O O12 0.654993 0.119573 0.208433
O O13 0.762401 0.000000 0.250167
O O14 0.500000 0.500000 0.572215
O O15 0.500000 0.331484 0.500000
O O16 0.500000 0.860266 0.769027
#
# Coordination Sequence:
#
# PCOD9522215 Si02
#       6
#    16  16  16  16   8  16
#     4  10  21  37  59  87 120 160 203 249 300 358
#     4   9  18  33  56  89 125 158 196 246 302 360
#     4  11  21  39  58  84 115 154 198 245 305 353
#     4  10  22  37  59  88 120 157 198 245 303 365
#     4  11  24  40  59  81 109 149 201 255 299 352
#     4  10  20  36  56  86 120 153 195 239 299 361
#
# _framework density 18.559009
#
# number of rings (size 3 to 8) (size 9 to 14) (size 15 to 20)
#    0.000    1.909    2.727    1.091    0.000    7.273 
#    0.000    2.273    0.000    1.636    0.000    0.000 
#    0.000    2.909    0.000    0.000    0.000    0.000 
#
# Total GULP energy -245055.532927 kJ/mol
# GULP energy per Si atom -5569.443930 kJ/mol
# Density = 1.851677 g / cm^3
# Si number density = 18.559009 Si / 1000 Ang^3
#
#
#
# Elastic Constant Matrix: (Units=GPa)
#
#
# Indices 1 2 3 4 5 6 
#
# 1 186.1197 33.8520 69.8190 0.0000 0.0000 0.0000
# 2 33.8520 71.0253 28.6341 0.0000 0.0000 0.0000
# 3 69.8190 28.6341 110.6798 0.0000 0.0000 0.0000
# 4 0.0000 0.0000 0.0000 17.7772 0.0000 0.0000
# 5 0.0000 0.0000 0.0000 0.0000 14.2573 0.0000
# 6 0.0000 0.0000 0.0000 0.0000 0.0000 2.8741
#
#
#
# Elastic Compliance Matrix: (Units=1/GPa)
#
#
# Indices 1 2 3 4 5 6 
#
# 1 0.007238 -0.001796 -0.004101 0.000000 0.000000 0.000000
# 2 -0.001796 0.016165 -0.003049 0.000000 0.000000 0.000000
# 3 -0.004101 -0.003049 0.012411 0.000000 0.000000 0.000000
# 4 0.000000 0.000000 0.000000 0.056252 0.000000 0.000000
# 5 0.000000 0.000000 0.000000 0.000000 0.070140 0.000000
# 6 0.000000 0.000000 0.000000 0.000000 0.000000 0.347931
#
#
# Mechanical properties :
#
#
# Convention : Reuss Voigt Hill
#
# Bulk Modulus (GPa) = 55.80027 70.27057 63.03542
# Shear Modulus (GPa) = 9.36325 22.68303 16.02314
#
# Velocity S-wave (km/s) = 2.24857 3.49981 2.94149
# Velocity P-wave (km/s) = 6.07232 7.36730 6.75093
#
# Compressibility (1/GPa) = 0.01792106
#
# Stress axis : x y z
#
# Youngs Moduli (GPa) = 138.15782 61.86270 80.57406
#
# Poissons Ratio (x) = 0.11113 0.33045
# Poissons Ratio (y) = 0.24819 0.24565
# Poissons Ratio (z) = 0.56661 0.18861
#
# Static dielectric constant tensor:
#      x y z
#    x 1.687800 0.000000 0.000000 
#    y 0.000000 1.666320 0.000000 
#    z 0.000000 0.000000 1.639740 
# 
# From -- ./inp_files/47113.got.cif
#   From: 2010.05.17/outbox.cif.g08.bks.cpg/sg71_24_cif.got.tgz:47113.got - 2010.06.03 16:22:01.
