data_PCOD9522881
_publ_section_title
;
Structure prediction by ZEFSAII (Michael W. Deem and Ramdas Pophale) SiO2 
 PCOD9522881
Probable space group: I M M M
;
_chemical_formula_sum "Si O2"
_cell_formula_units_Z 80
_cell_length_a 12.828184
_cell_length_b 13.210020
_cell_length_c 24.811428
_cell_angle_alpha 90.000000
_cell_angle_beta 90.000000
_cell_angle_gamma 90.000000
_cell_volume 4204.558662
_symmetry_space_group_name_H-M "I M M M"
_symmetry_group_IT_number 71
_symmetry_cell_setting 'orthorhombic'
loop_
_space_group_symop_operation_xyz
x,y,z
-x,-y,z
x,-y,-z
-x,y,-z
-x,-y,-z
x,y,-z
-x,y,z
x,-y,z
1/2+x,1/2+y,1/2+z
1/2-x,1/2-y,1/2+z
1/2+x,1/2-y,1/2-z
1/2-x,1/2+y,1/2-z
1/2-x,1/2-y,1/2-z
1/2+x,1/2+y,1/2-z
1/2-x,1/2+y,1/2+z
1/2+x,1/2-y,1/2+z
loop_
_atom_site_type_symbol
_atom_site_label
_atom_site_fract_x
_atom_site_fract_y
_atom_site_fract_z
Si Si1 0.878799 0.327195 0.500000
Si Si2 0.615494 0.830375 0.287334
Si Si3 0.214659 0.890146 0.500000
Si Si4 0.304155 0.610479 0.712851
Si Si5 0.617612 0.826643 0.584979
Si Si6 0.287622 0.612505 0.413148
O O1 0.861493 0.205755 0.500000
O O2 0.815479 0.368917 0.448446
O O3 0.000000 0.353258 0.500000
O O4 0.500000 0.864969 0.272118
O O5 0.625187 0.708962 0.278523
O O6 0.706541 0.879522 0.252739
O O7 0.629462 0.847202 0.351320
O O8 0.292587 0.879219 0.449193
O O9 0.163763 0.000000 0.500000
O O10 0.354380 0.500000 0.719826
O O11 0.266367 0.616740 0.650791
O O12 0.500000 0.854940 0.569253
O O13 0.635395 0.706090 0.575512
O O14 0.328948 0.500000 0.425401
#
# Coordination Sequence:
#
# PCOD9522881 Si02
#       6
#     8  16   8  16  16  16
#     4  10  21  36  52  70  94 124 159 198 236 276
#     4   9  18  32  49  70  97 127 159 196 236 279
#     4  10  21  36  52  70  94 124 159 198 236 276
#     4   9  18  32  49  70  97 127 159 196 236 279
#     4   9  18  32  50  73  99 126 156 191 234 283
#     4   9  18  32  50  73  99 126 156 191 234 283
#
# _framework density 19.026966999999999
#
# number of rings (size 3 to 8) (size 9 to 14) (size 15 to 20)
#    0.000    2.800    0.000    0.600    0.000    4.600 
#    0.000    8.000    0.000    3.600    0.000   11.200 
#    0.000    0.000    0.000    0.000    0.000    0.000 
#
# Total GULP energy -223038.040745 kJ/mol
# GULP energy per Si atom -5575.951019 kJ/mol
# Density = 1.898366 g / cm^3
# Si number density = 19.026967 Si / 1000 Ang^3
#
#
#
# Elastic Constant Matrix: (Units=GPa)
#
#
# Indices 1 2 3 4 5 6 
#
# 1 48.5560 -25.4131 12.7852 0.0000 0.0000 0.0000
# 2 -25.4131 81.3628 3.3349 0.0000 0.0000 0.0000
# 3 12.7852 3.3349 36.3629 0.0000 0.0000 0.0000
# 4 0.0000 0.0000 0.0000 16.1510 0.0000 0.0000
# 5 0.0000 0.0000 0.0000 0.0000 19.3009 0.0000
# 6 0.0000 0.0000 0.0000 0.0000 0.0000 -2.5347
#
#
#
# Elastic Compliance Matrix: (Units=1/GPa)
#
#
# Indices 1 2 3 4 5 6 
#
# 1 0.028296 0.009281 -0.010800 0.000000 0.000000 0.000000
# 2 0.009281 0.015381 -0.004674 0.000000 0.000000 0.000000
# 3 -0.010800 -0.004674 0.031727 0.000000 0.000000 0.000000
# 4 0.000000 0.000000 0.000000 0.061916 0.000000 0.000000
# 5 0.000000 0.000000 0.000000 0.000000 0.051811 0.000000
# 6 0.000000 0.000000 0.000000 0.000000 0.000000 -0.394527
#
#
# Mechanical properties :
#
#
# Convention : Reuss Voigt Hill
#
# Bulk Modulus (GPa) = 15.86868 16.41063 16.13966
# Shear Modulus (GPa) = -29.06886 18.28843 -5.39022
#
# Velocity S-wave (km/s) = -3.91291 3.10366 -1.68496
# Velocity P-wave (km/s) = 3.47222 4.63544 2.17152
#
# Compressibility (1/GPa) = 0.06301721
#
# Stress axis : x y z
#
# Youngs Moduli (GPa) = 35.34091 65.01549 31.51939
#
# Poissons Ratio (x) = -0.60339 0.34041
# Poissons Ratio (y) = -0.32799 0.14731
# Poissons Ratio (z) = 0.38168 0.30386
#
# Static dielectric constant tensor:
#      x y z
#    x 1.594920 0.000000 0.000000 
#    y 0.000000 1.713480 0.000000 
#    z 0.000000 0.000000 1.647950 
# 
# From -- ./inp_files/64391.got.cif
#   From: 2010.05.17/outbox.cif.g08.bks.cpg/sg71_33_cif.got.tgz:64391.got - 2010.06.03 16:22:01.
