data_PCOD9522371
_publ_section_title
;
Structure prediction by ZEFSAII (Michael W. Deem and Ramdas Pophale) SiO2 
 PCOD9522371
Probable space group: I M M M
;
_chemical_formula_sum "Si O2"
_cell_formula_units_Z 80
_cell_length_a 16.785196
_cell_length_b 27.353744
_cell_length_c 7.752392
_cell_angle_alpha 90.000000
_cell_angle_beta 90.000000
_cell_angle_gamma 90.000000
_cell_volume 3559.417404
_symmetry_space_group_name_H-M "I M M M"
_symmetry_group_IT_number 71
_symmetry_cell_setting 'orthorhombic'
loop_
_space_group_symop_operation_xyz
x,y,z
-x,-y,z
x,-y,-z
-x,y,-z
-x,-y,-z
x,y,-z
-x,y,z
x,-y,z
1/2+x,1/2+y,1/2+z
1/2-x,1/2-y,1/2+z
1/2+x,1/2-y,1/2-z
1/2-x,1/2+y,1/2-z
1/2-x,1/2-y,1/2-z
1/2+x,1/2+y,1/2-z
1/2-x,1/2+y,1/2+z
1/2+x,1/2-y,1/2+z
loop_
_atom_site_type_symbol
_atom_site_label
_atom_site_fract_x
_atom_site_fract_y
_atom_site_fract_z
Si Si1 0.585557 0.258792 0.290550
Si Si2 0.000000 0.056031 0.796932
Si Si3 0.789455 0.684621 0.196432
Si Si4 0.407580 0.000000 0.790036
Si Si5 0.367441 0.364880 0.799663
Si Si6 0.094677 0.604853 0.294236
O O1 0.588919 0.258452 0.500000
O O2 0.500000 0.236096 0.238634
O O3 0.665888 0.232090 0.225817
O O4 0.585388 0.314378 0.227578
O O5 0.921820 0.089493 0.757386
O O6 0.000000 0.000000 0.722778
O O7 0.000000 0.050428 0.000000
O O8 0.717653 0.653127 0.279874
O O9 0.862935 0.647351 0.194773
O O10 0.766290 0.696526 0.000000
O O11 0.372310 0.051737 0.738205
O O12 0.500000 0.000000 0.734458
O O13 0.409144 0.000000 0.000000
O O14 0.352137 0.374474 0.000000
O O15 0.108241 0.610957 0.500000
O O16 0.000000 0.604821 0.268409
#
# Coordination Sequence:
#
# PCOD9522371 Si02
#       6
#    16   8  16   8  16  16
#     4  10  20  36  60  87 122 166 205 242 292 359
#     4  11  25  47  73  95 117 155 209 262 317 378
#     4  10  22  37  54  85 125 162 195 239 303 364
#     4   7  12  26  47  69  97 136 183 236 289 335
#     4  11  23  40  63  91 123 157 198 252 310 369
#     4   9  17  31  52  77 107 148 199 250 295 349
#
# _framework density 22.475588999999999
#
# number of rings (size 3 to 8) (size 9 to 14) (size 15 to 20)
#    0.000    2.200    1.000    3.300    0.000    4.400 
#    1.800    0.500    0.000    1.800    0.000    0.000 
#    0.000    0.000    0.000    0.000    0.000    0.000 
#
# Total GULP energy -222828.796800 kJ/mol
# GULP energy per Si atom -5570.719920 kJ/mol
# Density = 2.242443 g / cm^3
# Si number density = 22.475589 Si / 1000 Ang^3
#
#
#
# Elastic Constant Matrix: (Units=GPa)
#
#
# Indices 1 2 3 4 5 6 
#
# 1 122.9159 49.7457 19.6651 0.0001 0.0001 0.0000
# 2 49.7457 150.9625 15.8735 0.0000 0.0000 0.0000
# 3 19.6651 15.8735 37.9610 -0.0018 -0.0007 0.0003
# 4 0.0001 0.0000 -0.0018 14.0091 -0.0005 0.0000
# 5 0.0001 0.0000 -0.0007 -0.0005 -0.3547 0.0000
# 6 0.0000 0.0000 0.0003 0.0000 0.0000 9.3969
#
#
#
# Elastic Compliance Matrix: (Units=1/GPa)
#
#
# Indices 1 2 3 4 5 6 
#
# 1 0.009922 -0.002855 -0.003946 -0.000001 0.000011 0.000000
# 2 -0.002855 0.007750 -0.001762 0.000000 0.000003 0.000000
# 3 -0.003946 -0.001762 0.029124 0.000004 -0.000059 -0.000001
# 4 -0.000001 0.000000 0.000004 0.071382 -0.000108 0.000000
# 5 0.000011 0.000003 -0.000059 -0.000108 -2.819476 0.000014
# 6 0.000000 0.000000 -0.000001 0.000000 0.000014 0.106418
#
#
# Mechanical properties :
#
#
# Convention : Reuss Voigt Hill
#
# Bulk Modulus (GPa) = 33.70364 53.60088 43.65226
# Shear Modulus (GPa) = -1.94714 19.71393 8.88339
#
# Velocity S-wave (km/s) = -0.93178 2.96484 1.99024
# Velocity P-wave (km/s) = 3.72432 5.96830 4.97450
#
# Compressibility (1/GPa) = 0.02967039
#
# Stress axis : x y z
#
# Youngs Moduli (GPa) = 100.78250 129.03037 34.33601
#
# Poissons Ratio (x) = 0.36834 0.13550
# Poissons Ratio (y) = 0.28770 0.06050
# Poissons Ratio (z) = 0.39773 0.22734
#
# Static dielectric constant tensor:
#      x y z
#    x 1.928020 0.000000 0.000000 
#    y 0.000000 1.902000 0.000000 
#    z 0.000000 0.000000 1.824770 
# 
# From -- ./inp_files/8401.got.cif
#   From: 2010.05.17/outbox.cif.g08.bks.cpg/sg71_5_cif.got.tgz:8401.got - 2010.06.03 16:22:01.
