data_PCOD9522692
_publ_section_title
;
Structure prediction by ZEFSAII (Michael W. Deem and Ramdas Pophale) SiO2 
 PCOD9522692
Probable space group: I M M M
;
_chemical_formula_sum "Si O2"
_cell_formula_units_Z 116
_cell_length_a 7.382476
_cell_length_b 25.259601
_cell_length_c 30.000707
_cell_angle_alpha 90.000000
_cell_angle_beta 90.000000
_cell_angle_gamma 90.000000
_cell_volume 5594.483785
_symmetry_space_group_name_H-M "I M M M"
_symmetry_group_IT_number 71
_symmetry_cell_setting 'orthorhombic'
loop_
_space_group_symop_operation_xyz
x,y,z
-x,-y,z
x,-y,-z
-x,y,-z
-x,-y,-z
x,y,-z
-x,y,z
x,-y,z
1/2+x,1/2+y,1/2+z
1/2-x,1/2-y,1/2+z
1/2+x,1/2-y,1/2-z
1/2-x,1/2+y,1/2-z
1/2-x,1/2-y,1/2-z
1/2+x,1/2+y,1/2-z
1/2-x,1/2+y,1/2+z
1/2+x,1/2-y,1/2+z
loop_
_atom_site_type_symbol
_atom_site_label
_atom_site_fract_x
_atom_site_fract_y
_atom_site_fract_z
Si Si1 0.719793 0.303867 0.642976
Si Si2 0.209124 0.558155 0.884686
Si Si3 0.220852 0.229314 0.049521
Si Si4 0.214930 0.713749 0.793029
Si Si5 0.720871 0.585096 0.313269
Si Si6 0.500000 0.000000 0.845372
Si Si7 0.204461 0.091803 0.712849
Si Si8 0.279692 0.851221 0.449402
O O1 0.500000 0.302004 0.643467
O O2 0.779001 0.305065 0.591724
O O3 0.780703 0.249365 0.665880
O O4 0.766429 0.354966 0.672001
O O5 0.290241 0.500000 0.892219
O O6 0.208038 0.570859 0.832169
O O7 0.286976 0.607034 0.912880
O O8 0.000000 0.555059 0.898945
O O9 0.277149 0.290379 0.057179
O O10 0.000000 0.228850 0.049043
O O11 0.280021 0.213078 0.000000
O O12 0.250000 0.750000 0.750000
O O13 0.295785 0.655692 0.788713
O O14 0.000000 0.705493 0.797816
O O15 0.500000 0.578685 0.316600
O O16 0.839625 0.545755 0.342216
O O17 0.776045 0.576290 0.261492
O O18 0.000000 0.071913 0.711184
O O19 0.231363 0.867010 0.500000
O O20 0.500000 0.849412 0.447145
#
# Coordination Sequence:
#
# PCOD9522692 Si02
#       8
#    16  16  16  16  16   4  16  16
#     4   9  17  32  52  79 116 148 178 228 282 335
#     4  10  21  33  50  74  99 137 191 243 288 335
#     4   8  13  23  46  79 111 143 177 215 275 348
#     4  11  20  32  53  78 110 145 180 221 275 343
#     4  10  23  40  58  83 113 150 194 239 285 336
#     4  12  26  40  64  82 109 154 199 242 284 326
#     4  11  23  37  50  72 107 145 187 233 286 334
#     4   8  14  27  47  75 109 140 175 226 287 343
#
# _framework density 20.734708999999999
#
# number of rings (size 3 to 8) (size 9 to 14) (size 15 to 20)
#    0.000    2.345    1.379    2.690    2.897    2.759 
#    1.241    1.379    0.000    0.414    0.000    2.414 
#    0.000    3.310    0.000    0.000    0.000    0.000 
#
# Total GULP energy -323220.804552 kJ/mol
# GULP energy per Si atom -5572.772492 kJ/mol
# Density = 2.068752 g / cm^3
# Si number density = 20.734709 Si / 1000 Ang^3
#
#
#
# Elastic Constant Matrix: (Units=GPa)
#
#
# Indices 1 2 3 4 5 6 
#
# 1 80.8088 0.5204 -2.6085 0.0000 0.0000 0.0000
# 2 0.5204 33.6433 -3.3215 0.0000 0.0000 0.0000
# 3 -2.6085 -3.3215 90.7566 0.0000 0.0000 0.0000
# 4 0.0000 0.0000 0.0000 -7.3626 0.0000 0.0000
# 5 0.0000 0.0000 0.0000 0.0000 -6.3435 0.0000
# 6 0.0000 0.0000 0.0000 0.0000 0.0000 8.1151
#
#
#
# Elastic Compliance Matrix: (Units=1/GPa)
#
#
# Indices 1 2 3 4 5 6 
#
# 1 0.012387 -0.000157 0.000350 0.000000 0.000000 0.000000
# 2 -0.000157 0.029833 0.001087 0.000000 0.000000 0.000000
# 3 0.000350 0.001087 0.011068 0.000000 0.000000 0.000000
# 4 0.000000 0.000000 0.000000 -0.135822 0.000000 0.000000
# 5 0.000000 0.000000 0.000000 0.000000 -0.157642 0.000000
# 6 0.000000 0.000000 0.000000 0.000000 0.000000 0.123227
#
#
# Mechanical properties :
#
#
# Convention : Reuss Voigt Hill
#
# Bulk Modulus (GPa) = 17.90507 21.59884 19.75195
# Shear Modulus (GPa) = -49.55780 12.92303 -18.31738
#
# Velocity S-wave (km/s) = -4.89416 2.49922 -2.97546
# Velocity P-wave (km/s) = 4.82524 4.33215 1.50258
#
# Compressibility (1/GPa) = 0.05585012
#
# Stress axis : x y z
#
# Youngs Moduli (GPa) = 80.72849 33.51949 90.34778
#
# Poissons Ratio (x) = 0.00526 -0.03165
# Poissons Ratio (y) = 0.01268 -0.09824
# Poissons Ratio (z) = -0.02828 -0.03645
#
# Static dielectric constant tensor:
#      x y z
#    x 1.780960 0.000000 0.000000 
#    y 0.000000 1.714140 0.000000 
#    z 0.000000 0.000000 1.747700 
# 
# From -- ./inp_files/13704.got.cif
#   From: 2010.05.17/outbox.cif.g08.bks.cpg/sg71_7_cif.got.tgz:13704.got - 2010.06.03 16:22:01.
