data_PCOD9522664
_publ_section_title
;
Structure prediction by ZEFSAII (Michael W. Deem and Ramdas Pophale) SiO2 
 PCOD9522664
Probable space group: I M M M
;
_chemical_formula_sum "Si O2"
_cell_formula_units_Z 50
_cell_length_a 10.371483
_cell_length_b 7.597995
_cell_length_c 30.152437
_cell_angle_alpha 90.000000
_cell_angle_beta 90.000000
_cell_angle_gamma 90.000000
_cell_volume 2376.086692
_symmetry_space_group_name_H-M "I M M M"
_symmetry_group_IT_number 71
_symmetry_cell_setting 'orthorhombic'
loop_
_space_group_symop_operation_xyz
x,y,z
-x,-y,z
x,-y,-z
-x,y,-z
-x,-y,-z
x,y,-z
-x,y,z
x,-y,z
1/2+x,1/2+y,1/2+z
1/2-x,1/2-y,1/2+z
1/2+x,1/2-y,1/2-z
1/2-x,1/2+y,1/2-z
1/2-x,1/2-y,1/2-z
1/2+x,1/2+y,1/2-z
1/2-x,1/2+y,1/2+z
1/2+x,1/2-y,1/2+z
loop_
_atom_site_type_symbol
_atom_site_label
_atom_site_fract_x
_atom_site_fract_y
_atom_site_fract_z
Si Si1 0.000000 0.214783 0.551002
Si Si2 0.500000 0.304050 0.424832
Si Si3 0.143385 0.788985 0.286634
Si Si4 0.000000 0.500000 0.000000
Si Si5 0.230238 0.214036 0.384006
O O1 0.873458 0.267932 0.578564
O O2 0.000000 0.274354 0.500000
O O3 0.000000 0.000000 0.550128
O O4 0.500000 0.500000 0.444058
O O5 0.500000 0.153437 0.461559
O O6 0.371383 0.280717 0.395795
O O7 0.250000 0.750000 0.250000
O O8 0.183979 0.726385 0.335567
O O9 0.000000 0.723036 0.275091
O O10 0.135881 0.000000 0.289845
O O11 0.233284 0.000000 0.384276
#
# Coordination Sequence:
#
# PCOD9522664 Si02
#       5
#     8   8  16   2  16
#     4   9  18  32  64  95 121 167 221 264 336 410
#     4  12  27  43  70 103 135 181 231 282 338 411
#     4  10  22  40  63  93 132 177 227 279 341 413
#     4  12  26  52  68  96 144 188 230 282 348 394
#     4  10  20  41  65  94 134 177 222 282 346 407
#
# _framework density 21.043002000000001
#
# number of rings (size 3 to 8) (size 9 to 14) (size 15 to 20)
#    0.000    1.760    3.200    0.240    4.480    1.920 
#    0.000    0.800    0.000    0.960    0.000    0.000 
#    0.000    0.000    0.000    0.000    0.000    0.000 
#
# Total GULP energy -139477.140782 kJ/mol
# GULP energy per Si atom -5579.085631 kJ/mol
# Density = 2.099511 g / cm^3
# Si number density = 21.043002 Si / 1000 Ang^3
#
#
#
# Elastic Constant Matrix: (Units=GPa)
#
#
# Indices 1 2 3 4 5 6 
#
# 1 232.3734 20.0847 123.0888 0.0000 0.0000 0.0000
# 2 20.0847 91.9565 23.6952 0.0000 0.0000 0.0000
# 3 123.0888 23.6952 196.7417 0.0000 0.0000 0.0000
# 4 0.0000 0.0000 0.0000 -39.8876 0.0000 0.0000
# 5 0.0000 0.0000 0.0000 0.0000 -23.3162 0.0000
# 6 0.0000 0.0000 0.0000 0.0000 0.0000 -6.7232
#
#
#
# Elastic Compliance Matrix: (Units=1/GPa)
#
#
# Indices 1 2 3 4 5 6 
#
# 1 0.006449 -0.000381 -0.003989 0.000000 0.000000 0.000000
# 2 -0.000381 0.011245 -0.001116 0.000000 0.000000 0.000000
# 3 -0.003989 -0.001116 0.007713 0.000000 0.000000 0.000000
# 4 0.000000 0.000000 0.000000 -0.025070 0.000000 0.000000
# 5 0.000000 0.000000 0.000000 0.000000 -0.042889 0.000000
# 6 0.000000 0.000000 0.000000 0.000000 0.000000 -0.148739
#
#
# Mechanical properties :
#
#
# Convention : Reuss Voigt Hill
#
# Bulk Modulus (GPa) = 69.27235 94.97876 82.12555
# Shear Modulus (GPa) = -28.48893 9.62815 -9.43039
#
# Velocity S-wave (km/s) = -3.68345 2.14135 -2.11925
# Velocity P-wave (km/s) = 3.86011 7.16571 5.75534
#
# Compressibility (1/GPa) = 0.01443577
#
# Stress axis : x y z
#
# Youngs Moduli (GPa) = 155.05404 88.92459 129.65183
#
# Poissons Ratio (x) = 0.03386 0.51719
# Poissons Ratio (y) = 0.05903 0.14472
# Poissons Ratio (z) = 0.61853 0.09926
#
# Static dielectric constant tensor:
#      x y z
#    x 1.770610 0.000000 0.000000 
#    y 0.000000 1.801940 0.000000 
#    z 0.000000 0.000000 1.708340 
# 
# From -- ./inp_files/15996.got.cif
#   From: 2010.05.17/outbox.cif.g08.bks.cpg/sg71_8_cif.got.tgz:15996.got - 2010.06.03 16:22:01.
