data_PCOD9522298
_publ_section_title
;
Structure prediction by ZEFSAII (Michael W. Deem and Ramdas Pophale) SiO2 
 PCOD9522298
Probable space group: I M M M
;
_chemical_formula_sum "Si O2"
_cell_formula_units_Z 108
_cell_length_a 23.771214
_cell_length_b 18.961910
_cell_length_c 12.147037
_cell_angle_alpha 90.000000
_cell_angle_beta 90.000000
_cell_angle_gamma 90.000000
_cell_volume 5475.248023
_symmetry_space_group_name_H-M "I M M M"
_symmetry_group_IT_number 71
_symmetry_cell_setting 'orthorhombic'
loop_
_space_group_symop_operation_xyz
x,y,z
-x,-y,z
x,-y,-z
-x,y,-z
-x,-y,-z
x,y,-z
-x,y,z
x,-y,z
1/2+x,1/2+y,1/2+z
1/2-x,1/2-y,1/2+z
1/2+x,1/2-y,1/2-z
1/2-x,1/2+y,1/2-z
1/2-x,1/2-y,1/2-z
1/2+x,1/2+y,1/2-z
1/2-x,1/2+y,1/2+z
1/2+x,1/2-y,1/2+z
loop_
_atom_site_type_symbol
_atom_site_label
_atom_site_fract_x
_atom_site_fract_y
_atom_site_fract_z
Si Si1 0.915309 0.297573 0.211581
Si Si2 0.062587 0.170304 0.629120
Si Si3 0.792424 0.284074 0.123650
Si Si4 0.377636 0.083343 0.125800
Si Si5 0.936793 0.086149 0.000000
Si Si6 0.632555 0.417658 0.710905
Si Si7 0.500000 0.198682 0.500000
Si Si8 0.754270 0.364829 0.318743
O O1 0.937741 0.241131 0.299099
O O2 0.852231 0.272113 0.181429
O O3 0.907996 0.370498 0.280088
O O4 0.951289 0.301939 0.099889
O O5 0.071649 0.183890 0.500000
O O6 0.111499 0.122732 0.681479
O O7 0.000000 0.136890 0.641806
O O8 0.763013 0.345934 0.190918
O O9 0.756468 0.212354 0.129074
O O10 0.802280 0.305035 0.000000
O O11 0.310587 0.099562 0.136726
O O12 0.386879 0.000000 0.141065
O O13 0.394523 0.102301 0.000000
O O14 0.905331 0.109554 0.890649
O O15 0.000000 0.114101 0.000000
O O16 0.937744 0.000000 0.000000
O O17 0.621350 0.500000 0.725386
O O18 0.696727 0.407361 0.673665
#
# Coordination Sequence:
#
# PCOD9522298 Si02
#       8
#    16  16  16  16   8  16   4  16
#     4  11  22  42  66  97 125 163 208 265 319 384
#     4  11  24  41  62  89 123 167 213 262 317 373
#     4  10  20  36  58  89 126 159 202 259 326 381
#     4  10  22  41  66  94 130 170 210 261 327 387
#     4   9  20  37  57  84 123 165 207 262 315 358
#     4  11  23  39  59  89 126 167 216 264 314 376
#     4  12  24  42  77 102 127 164 220 268 320 398
#     4  10  21  35  58  92 123 165 212 263 314 380
#
# _framework density 19.725134000000001
#
# number of rings (size 3 to 8) (size 9 to 14) (size 15 to 20)
#    0.000    1.556    2.963    1.778    2.074    2.370 
#    1.333    1.852    0.000    1.778    0.000    0.000 
#    0.000    0.000    0.000    0.000    0.000    0.000 
#
# Total GULP energy -300973.287826 kJ/mol
# GULP energy per Si atom -5573.579404 kJ/mol
# Density = 1.968024 g / cm^3
# Si number density = 19.725134 Si / 1000 Ang^3
#
#
#
# Elastic Constant Matrix: (Units=GPa)
#
#
# Indices 1 2 3 4 5 6 
#
# 1 67.9082 4.6394 26.8724 0.0000 0.0000 0.0000
# 2 4.6394 59.2991 32.7697 0.0000 0.0000 0.0000
# 3 26.8724 32.7697 148.8711 0.0000 0.0000 0.0000
# 4 0.0000 0.0000 0.0000 8.3466 0.0000 0.0000
# 5 0.0000 0.0000 0.0000 0.0000 1.2966 0.0000
# 6 0.0000 0.0000 0.0000 0.0000 0.0000 18.3417
#
#
#
# Elastic Compliance Matrix: (Units=1/GPa)
#
#
# Indices 1 2 3 4 5 6 
#
# 1 0.015866 0.000389 -0.002950 0.000000 0.000000 0.000000
# 2 0.000389 0.019209 -0.004298 0.000000 0.000000 0.000000
# 3 -0.002950 -0.004298 0.008196 0.000000 0.000000 0.000000
# 4 0.000000 0.000000 0.000000 0.119810 0.000000 0.000000
# 5 0.000000 0.000000 0.000000 0.000000 0.771241 0.000000
# 6 0.000000 0.000000 0.000000 0.000000 0.000000 0.054521
#
#
# Mechanical properties :
#
#
# Convention : Reuss Voigt Hill
#
# Bulk Modulus (GPa) = 33.83841 44.96016 39.39929
# Shear Modulus (GPa) = 4.93870 19.71676 12.32773
#
# Velocity S-wave (km/s) = 1.58404 3.16504 2.50266
# Velocity P-wave (km/s) = 4.53187 6.01660 5.32622
#
# Compressibility (1/GPa) = 0.02955222
#
# Stress axis : x y z
#
# Youngs Moduli (GPa) = 63.02624 52.05995 122.01370
#
# Poissons Ratio (x) = -0.02023 0.35989
# Poissons Ratio (y) = -0.02449 0.52446
# Poissons Ratio (z) = 0.18590 0.22377
#
# Static dielectric constant tensor:
#      x y z
#    x 1.718450 0.000000 0.000000 
#    y 0.000000 1.699060 0.000000 
#    z 0.000000 0.000000 1.685700 
# 
# From -- ./inp_files/27699.got.cif
#   From: 2010.05.17/outbox.cif.g08.bks.cpg/sg71_14_cif.got.tgz:27699.got - 2010.06.03 16:22:01.
