data_PCOD9522879
_publ_section_title
;
Structure prediction by ZEFSAII (Michael W. Deem and Ramdas Pophale) SiO2 
 PCOD9522879
Probable space group: I M M M
;
_chemical_formula_sum "Si O2"
_cell_formula_units_Z 120
_cell_length_a 23.491414
_cell_length_b 24.260393
_cell_length_c 11.873848
_cell_angle_alpha 90.000000
_cell_angle_beta 90.000000
_cell_angle_gamma 90.000000
_cell_volume 6767.035825
_symmetry_space_group_name_H-M "I M M M"
_symmetry_group_IT_number 71
_symmetry_cell_setting 'orthorhombic'
loop_
_space_group_symop_operation_xyz
x,y,z
-x,-y,z
x,-y,-z
-x,y,-z
-x,-y,-z
x,y,-z
-x,y,z
x,-y,z
1/2+x,1/2+y,1/2+z
1/2-x,1/2-y,1/2+z
1/2+x,1/2-y,1/2-z
1/2-x,1/2+y,1/2-z
1/2-x,1/2-y,1/2-z
1/2+x,1/2+y,1/2-z
1/2-x,1/2+y,1/2+z
1/2+x,1/2-y,1/2+z
loop_
_atom_site_type_symbol
_atom_site_label
_atom_site_fract_x
_atom_site_fract_y
_atom_site_fract_z
Si Si1 0.434423 0.063786 0.864221
Si Si2 0.935465 0.858191 0.134914
Si Si3 0.782267 0.247731 0.372337
Si Si4 0.864128 0.935250 0.719311
Si Si5 0.149429 0.343210 0.270463
Si Si6 0.935825 0.933175 0.500000
Si Si7 0.238987 0.875080 0.370018
Si Si8 0.065151 0.267324 0.864900
O O1 0.500000 0.077127 0.829621
O O2 0.388077 0.107076 0.820005
O O3 0.422982 0.000000 0.830223
O O4 0.433334 0.065281 0.000000
O O5 0.889311 0.900272 0.179311
O O6 0.922666 0.795592 0.171402
O O7 0.000000 0.872587 0.172713
O O8 0.936133 0.858130 0.000000
O O9 0.754984 0.255337 0.500000
O O10 0.750000 0.250000 0.250000
O O11 0.827582 0.297112 0.358995
O O12 0.796720 0.182655 0.372395
O O13 0.901316 0.917798 0.610787
O O14 0.799792 0.920155 0.689823
O O15 0.871231 0.000000 0.737979
O O16 0.203675 0.364977 0.200258
O O17 0.109107 0.309022 0.187385
O O18 0.000000 0.911834 0.500000
O O19 0.938189 0.000000 0.500000
O O20 0.251094 0.889436 0.500000
O O21 0.000000 0.279950 0.832472
O O22 0.068327 0.268871 0.000000
#
# Coordination Sequence:
#
# PCOD9522879 Si02
#       8
#    16  16  16  16  16   8  16  16
#     4   9  19  36  56  79 109 143 179 226 283 336
#     4   9  19  36  57  81 110 142 176 221 278 336
#     4   9  19  34  53  78 107 140 181 232 281 333
#     4  11  21  35  53  74 104 143 186 232 273 324
#     4  11  19  32  57  84 106 141 189 230 270 332
#     4   9  18  32  52  74  92 124 177 229 272 318
#     4  10  21  36  51  74 110 149 183 224 280 331
#     4   9  18  33  54  82 114 144 177 223 279 339
#
# _framework density 17.733021999999998
#
# number of rings (size 3 to 8) (size 9 to 14) (size 15 to 20)
#    0.000    2.333    0.667    3.600    0.000    2.133 
#    0.000    6.667    0.000    1.200    0.000    4.667 
#    0.000    0.000    0.000    0.000    0.000    0.000 
#
# Total GULP energy -334076.851533 kJ/mol
# GULP energy per Si atom -5567.947526 kJ/mol
# Density = 1.769266 g / cm^3
# Si number density = 17.733022 Si / 1000 Ang^3
#
#
#
# Elastic Constant Matrix: (Units=GPa)
#
#
# Indices 1 2 3 4 5 6 
#
# 1 104.5282 59.7729 33.5196 0.0000 0.0000 0.0000
# 2 59.7729 73.5802 24.0866 0.0000 0.0000 0.0000
# 3 33.5196 24.0866 56.3922 0.0000 0.0000 0.0000
# 4 0.0000 0.0000 0.0000 25.4844 0.0000 0.0000
# 5 0.0000 0.0000 0.0000 0.0000 27.2252 0.0000
# 6 0.0000 0.0000 0.0000 0.0000 0.0000 29.7183
#
#
#
# Elastic Compliance Matrix: (Units=1/GPa)
#
#
# Indices 1 2 3 4 5 6 
#
# 1 0.019246 -0.013822 -0.005536 0.000000 0.000000 0.000000
# 2 -0.013822 0.025727 -0.002773 0.000000 0.000000 0.000000
# 3 -0.005536 -0.002773 0.022208 0.000000 0.000000 0.000000
# 4 0.000000 0.000000 0.000000 0.039240 0.000000 0.000000
# 5 0.000000 0.000000 0.000000 0.000000 0.036731 0.000000
# 6 0.000000 0.000000 0.000000 0.000000 0.000000 0.033649
#
#
# Mechanical properties :
#
#
# Convention : Reuss Voigt Hill
#
# Bulk Modulus (GPa) = 43.63225 52.13987 47.88606
# Shear Modulus (GPa) = 21.86249 24.29369 23.07809
#
# Velocity S-wave (km/s) = 3.51503 3.70532 3.61143
# Velocity P-wave (km/s) = 6.41346 6.91176 6.66727
#
# Compressibility (1/GPa) = 0.02291883
#
# Stress axis : x y z
#
# Youngs Moduli (GPa) = 51.95818 38.86984 45.02925
#
# Poissons Ratio (x) = 0.53728 0.24928
# Poissons Ratio (y) = 0.71819 0.12484
# Poissons Ratio (z) = 0.28764 0.10777
#
# Static dielectric constant tensor:
#      x y z
#    x 1.624210 0.000000 0.000000 
#    y 0.000000 1.599450 0.000000 
#    z 0.000000 0.000000 1.704750 
# 
# From -- ./inp_files/26319.got.cif
#   From: 2010.05.17/outbox.cif.g08.bks.cpg/sg71_14_cif.got.tgz:26319.got - 2010.06.03 16:22:01.
