data_PCOD9522852
_publ_section_title
;
Structure prediction by ZEFSAII (Michael W. Deem and Ramdas Pophale) SiO2 
 PCOD9522852
Probable space group: I M M M
;
_chemical_formula_sum "Si O2"
_cell_formula_units_Z 88
_cell_length_a 8.468168
_cell_length_b 18.921966
_cell_length_c 29.109096
_cell_angle_alpha 90.000000
_cell_angle_beta 90.000000
_cell_angle_gamma 90.000000
_cell_volume 4664.278153
_symmetry_space_group_name_H-M "I M M M"
_symmetry_group_IT_number 71
_symmetry_cell_setting 'orthorhombic'
loop_
_space_group_symop_operation_xyz
x,y,z
-x,-y,z
x,-y,-z
-x,y,-z
-x,-y,-z
x,y,-z
-x,y,z
x,-y,z
1/2+x,1/2+y,1/2+z
1/2-x,1/2-y,1/2+z
1/2+x,1/2-y,1/2-z
1/2-x,1/2+y,1/2-z
1/2-x,1/2-y,1/2-z
1/2+x,1/2+y,1/2-z
1/2-x,1/2+y,1/2+z
1/2+x,1/2-y,1/2+z
loop_
_atom_site_type_symbol
_atom_site_label
_atom_site_fract_x
_atom_site_fract_y
_atom_site_fract_z
Si Si1 0.691153 0.789995 0.885805
Si Si2 0.692424 0.921525 0.053282
Si Si3 0.188931 0.363686 0.887764
Si Si4 0.807240 0.500000 0.053258
Si Si5 0.310938 0.185849 0.219019
Si Si6 0.688934 0.581684 0.208775
O O1 0.500000 0.788827 0.886358
O O2 0.746580 0.855381 0.916833
O O3 0.749324 0.713312 0.901869
O O4 0.742837 0.803732 0.833280
O O5 0.500000 0.921169 0.054613
O O6 0.742529 0.000000 0.069268
O O7 0.738143 0.913775 0.000000
O O8 0.243969 0.429266 0.919568
O O9 0.244604 0.378239 0.835722
O O10 0.000000 0.363127 0.888762
O O11 0.000000 0.500000 0.053681
O O12 0.757278 0.500000 0.000000
O O13 0.500000 0.186128 0.219151
O O14 0.250000 0.250000 0.250000
O O15 0.250634 0.116045 0.244447
O O16 0.500000 0.587075 0.207669
O O17 0.735905 0.500000 0.205204
#
# Coordination Sequence:
#
# PCOD9522852 Si02
#       6
#    16  16  16   8  16  16
#     4  10  21  35  55  85 117 145 181 236 286 333
#     4   8  15  31  56  83 111 144 181 224 278 336
#     4  11  21  35  58  82 107 149 194 232 282 345
#     4   9  20  38  57  81 113 147 191 243 288 341
#     4  11  22  35  54  80 113 151 189 231 278 332
#     4  11  23  38  57  80 110 147 189 239 286 333
#
# _framework density 18.866800000000001
#
# number of rings (size 3 to 8) (size 9 to 14) (size 15 to 20)
#    0.000    1.909    2.727    2.182    0.000    3.273 
#    0.000    1.818    0.000    4.364    0.000    1.273 
#    0.000    0.000    0.000    0.000    0.000    0.000 
#
# Total GULP energy -245644.448319 kJ/mol
# GULP energy per Si atom -5582.828371 kJ/mol
# Density = 1.882386 g / cm^3
# Si number density = 18.866800 Si / 1000 Ang^3
#
#
#
# Elastic Constant Matrix: (Units=GPa)
#
#
# Indices 1 2 3 4 5 6 
#
# 1 13.8070 23.2868 11.5203 0.0000 0.0000 0.0000
# 2 23.2868 188.6229 84.8740 0.0000 0.0000 0.0000
# 3 11.5203 84.8740 103.4477 0.0000 0.0000 0.0000
# 4 0.0000 0.0000 0.0000 39.6051 0.0000 0.0000
# 5 0.0000 0.0000 0.0000 0.0000 13.7398 0.0000
# 6 0.0000 0.0000 0.0000 0.0000 0.0000 28.7911
#
#
#
# Elastic Compliance Matrix: (Units=1/GPa)
#
#
# Indices 1 2 3 4 5 6 
#
# 1 0.091614 -0.010652 -0.001463 0.000000 0.000000 0.000000
# 2 -0.010652 0.009643 -0.006725 0.000000 0.000000 0.000000
# 3 -0.001463 -0.006725 0.015347 0.000000 0.000000 0.000000
# 4 0.000000 0.000000 0.000000 0.025249 0.000000 0.000000
# 5 0.000000 0.000000 0.000000 0.000000 0.072781 0.000000
# 6 0.000000 0.000000 0.000000 0.000000 0.000000 0.034733
#
#
# Mechanical properties :
#
#
# Convention : Reuss Voigt Hill
#
# Bulk Modulus (GPa) = 12.67052 60.58218 36.62635
# Shear Modulus (GPa) = 15.95634 28.84031 22.39833
#
# Velocity S-wave (km/s) = 2.91131 3.91401 3.44929
# Velocity P-wave (km/s) = 4.24633 7.25301 5.94296
#
# Compressibility (1/GPa) = 0.07892338
#
# Stress axis : x y z
#
# Youngs Moduli (GPa) = 10.91542 103.70483 65.15791
#
# Poissons Ratio (x) = 1.10467 0.09532
# Poissons Ratio (y) = 0.11627 0.43820
# Poissons Ratio (z) = 0.01597 0.69743
#
# Static dielectric constant tensor:
#      x y z
#    x 1.648840 0.000000 0.000000 
#    y 0.000000 1.663570 0.000000 
#    z 0.000000 0.000000 1.635670 
# 
# From -- ./inp_files/67990.got.cif
#   From: 2010.05.17/outbox.cif.g08.bks.cpg/sg71_34_cif.got.tgz:67990.got - 2010.06.03 16:22:01.
