data_PCOD9522734
_publ_section_title
;
Structure prediction by ZEFSAII (Michael W. Deem and Ramdas Pophale) SiO2 
 PCOD9522734
Probable space group: I M M M
;
_chemical_formula_sum "Si O2"
_cell_formula_units_Z 88
_cell_length_a 24.532378
_cell_length_b 10.252290
_cell_length_c 17.968462
_cell_angle_alpha 90.000000
_cell_angle_beta 90.000000
_cell_angle_gamma 90.000000
_cell_volume 4519.302747
_symmetry_space_group_name_H-M "I M M M"
_symmetry_group_IT_number 71
_symmetry_cell_setting 'orthorhombic'
loop_
_space_group_symop_operation_xyz
x,y,z
-x,-y,z
x,-y,-z
-x,y,-z
-x,-y,-z
x,y,-z
-x,y,z
x,-y,z
1/2+x,1/2+y,1/2+z
1/2-x,1/2-y,1/2+z
1/2+x,1/2-y,1/2-z
1/2-x,1/2+y,1/2-z
1/2-x,1/2-y,1/2-z
1/2+x,1/2+y,1/2-z
1/2-x,1/2+y,1/2+z
1/2+x,1/2-y,1/2+z
loop_
_atom_site_type_symbol
_atom_site_label
_atom_site_fract_x
_atom_site_fract_y
_atom_site_fract_z
Si Si1 0.062411 0.652449 0.139380
Si Si2 0.842696 0.151226 0.128450
Si Si3 0.933934 0.500000 0.583674
Si Si4 0.778360 0.652392 0.416826
Si Si5 0.937836 0.261982 0.688251
Si Si6 0.171954 0.855126 0.301831
O O1 0.073617 0.500000 0.124131
O O2 0.108713 0.749656 0.109329
O O3 0.063101 0.675266 0.229069
O O4 0.000000 0.681072 0.114917
O O5 0.787277 0.164888 0.082953
O O6 0.823682 0.174732 0.214107
O O7 0.861443 0.000000 0.124124
O O8 0.912921 0.500000 0.500000
O O9 0.919799 0.372094 0.629906
O O10 0.000000 0.500000 0.581002
O O11 0.798888 0.682899 0.500000
O O12 0.790573 0.500000 0.400045
O O13 0.801106 0.748411 0.354429
O O14 0.893068 0.150621 0.684956
O O15 0.000000 0.221917 0.673182
O O16 0.193806 0.000000 0.315884
#
# Coordination Sequence:
#
# PCOD9522734 Si02
#       6
#    16  16   8  16  16  16
#     4   9  16  28  50  79 108 135 166 206 251 301
#     4   9  19  35  54  78 106 135 170 211 258 309
#     4   9  16  26  42  64  90 126 171 209 238 278
#     4  10  22  39  57  75  98 133 176 220 261 305
#     4   9  17  30  47  70 102 136 170 208 249 296
#     4  10  21  34  52  79 106 134 167 211 265 314
#
# _framework density 19.472031000000001
#
# number of rings (size 3 to 8) (size 9 to 14) (size 15 to 20)
#    0.000    2.636    0.909    0.545    1.273    3.273 
#    0.000    3.636    0.000    0.545    0.000    7.636 
#    0.000    0.000    0.000    0.000    0.000    0.000 
#
# Total GULP energy -245409.705796 kJ/mol
# GULP energy per Si atom -5577.493314 kJ/mol
# Density = 1.942771 g / cm^3
# Si number density = 19.472031 Si / 1000 Ang^3
#
#
#
# Elastic Constant Matrix: (Units=GPa)
#
#
# Indices 1 2 3 4 5 6 
#
# 1 81.7527 46.9317 15.5593 0.0000 0.0000 0.0000
# 2 46.9317 89.2183 19.7585 0.0000 0.0000 0.0000
# 3 15.5593 19.7585 35.5913 0.0000 0.0000 0.0000
# 4 0.0000 0.0000 0.0000 7.6169 0.0000 0.0000
# 5 0.0000 0.0000 0.0000 0.0000 5.2491 0.0000
# 6 0.0000 0.0000 0.0000 0.0000 0.0000 36.8593
#
#
#
# Elastic Compliance Matrix: (Units=1/GPa)
#
#
# Indices 1 2 3 4 5 6 
#
# 1 0.017790 -0.008706 -0.002944 0.000000 0.000000 0.000000
# 2 -0.008706 0.017040 -0.005654 0.000000 0.000000 0.000000
# 3 -0.002944 -0.005654 0.032523 0.000000 0.000000 0.000000
# 4 0.000000 0.000000 0.000000 0.131287 0.000000 0.000000
# 5 0.000000 0.000000 0.000000 0.000000 0.190508 0.000000
# 6 0.000000 0.000000 0.000000 0.000000 0.000000 0.027130
#
#
# Mechanical properties :
#
#
# Convention : Reuss Voigt Hill
#
# Bulk Modulus (GPa) = 30.53914 41.22905 35.88409
# Shear Modulus (GPa) = 10.82716 18.23258 14.52987
#
# Velocity S-wave (km/s) = 2.36060 3.06330 2.73461
# Velocity P-wave (km/s) = 4.81119 5.80785 5.33286
#
# Compressibility (1/GPa) = 0.03274487
#
# Stress axis : x y z
#
# Youngs Moduli (GPa) = 56.21025 58.68408 30.74786
#
# Poissons Ratio (x) = 0.51092 0.09052
# Poissons Ratio (y) = 0.48938 0.17385
# Poissons Ratio (z) = 0.16548 0.33179
#
# Static dielectric constant tensor:
#      x y z
#    x 1.707250 0.000000 0.000000 
#    y 0.000000 1.651010 0.000000 
#    z 0.000000 0.000000 1.676310 
# 
# From -- ./inp_files/55545.got.cif
#   From: 2010.05.17/outbox.cif.g08.bks.cpg/sg71_28_cif.got.tgz:55545.got - 2010.06.03 16:22:01.
