data_PCOD9522922
_publ_section_title
;
Structure prediction by ZEFSAII (Michael W. Deem and Ramdas Pophale) SiO2 
 PCOD9522922
Probable space group: I M M M
;
_chemical_formula_sum "Si O2"
_cell_formula_units_Z 96
_cell_length_a 13.953720
_cell_length_b 16.085014
_cell_length_c 19.840334
_cell_angle_alpha 90.000000
_cell_angle_beta 90.000000
_cell_angle_gamma 90.000000
_cell_volume 4453.079271
_symmetry_space_group_name_H-M "I M M M"
_symmetry_group_IT_number 71
_symmetry_cell_setting 'orthorhombic'
loop_
_space_group_symop_operation_xyz
x,y,z
-x,-y,z
x,-y,-z
-x,y,-z
-x,-y,-z
x,y,-z
-x,y,z
x,-y,z
1/2+x,1/2+y,1/2+z
1/2-x,1/2-y,1/2+z
1/2+x,1/2-y,1/2-z
1/2-x,1/2+y,1/2-z
1/2-x,1/2-y,1/2-z
1/2+x,1/2+y,1/2-z
1/2-x,1/2+y,1/2+z
1/2+x,1/2-y,1/2+z
loop_
_atom_site_type_symbol
_atom_site_label
_atom_site_fract_x
_atom_site_fract_y
_atom_site_fract_z
Si Si1 0.716030 0.412478 0.422285
Si Si2 0.391707 0.908019 0.821518
Si Si3 0.112956 0.735596 0.786836
Si Si4 0.885066 0.908434 0.721649
Si Si5 0.608721 0.661924 0.075267
Si Si6 0.188884 0.266335 0.925206
O O1 0.746680 0.412726 0.500000
O O2 0.665000 0.500000 0.408077
O O3 0.809315 0.407549 0.376666
O O4 0.655983 0.328934 0.415914
O O5 0.500000 0.899890 0.849447
O O6 0.375862 0.831649 0.771814
O O7 0.387835 0.000000 0.788199
O O8 0.151398 0.825814 0.760689
O O9 0.154893 0.696198 0.855187
O O10 0.000000 0.746658 0.797941
O O11 0.873871 0.894433 0.640965
O O12 0.000000 0.910199 0.732685
O O13 0.846398 0.000000 0.740801
O O14 0.500000 0.695561 0.082710
O O15 0.695416 0.727362 0.075294
O O16 0.612712 0.622015 0.000000
O O17 0.158489 0.296136 0.000000
#
# Coordination Sequence:
#
# PCOD9522922 Si02
#       6
#    16  16  16  16  16  16
#     4   9  18  31  47  72 107 141 170 205 252 307
#     4   9  18  33  54  80 107 136 173 214 257 308
#     4  10  21  37  55  75 103 137 175 222 266 302
#     4   9  18  32  51  78 110 142 176 211 251 305
#     4   9  18  33  53  77 106 138 169 205 252 307
#     4  10  21  36  54  76 101 133 176 220 262 312
#
# _framework density 21.558116999999999
#
# number of rings (size 3 to 8) (size 9 to 14) (size 15 to 20)
#    0.000    2.667    0.000    1.000    0.000    6.333 
#    0.000    7.500    0.000    1.500    0.000    7.000 
#    0.000    0.000    0.000    0.000    0.000    0.000 
#
# Total GULP energy -267419.625115 kJ/mol
# GULP energy per Si atom -5571.242190 kJ/mol
# Density = 2.150905 g / cm^3
# Si number density = 21.558117 Si / 1000 Ang^3
#
#
#
# Elastic Constant Matrix: (Units=GPa)
#
#
# Indices 1 2 3 4 5 6 
#
# 1 34.3385 -9.6833 -0.7936 0.0000 0.0000 0.0000
# 2 -9.6833 71.4888 0.7584 0.0000 0.0000 0.0000
# 3 -0.7936 0.7584 99.9272 0.0000 0.0000 0.0000
# 4 0.0000 0.0000 0.0000 -38.3976 0.0000 0.0000
# 5 0.0000 0.0000 0.0000 0.0000 22.3874 0.0000
# 6 0.0000 0.0000 0.0000 0.0000 0.0000 -2.2319
#
#
#
# Elastic Compliance Matrix: (Units=1/GPa)
#
#
# Indices 1 2 3 4 5 6 
#
# 1 0.030283 0.004100 0.000209 0.000000 0.000000 0.000000
# 2 0.004100 0.014544 -0.000078 0.000000 0.000000 0.000000
# 3 0.000209 -0.000078 0.010010 0.000000 0.000000 0.000000
# 4 0.000000 0.000000 0.000000 -0.026043 0.000000 0.000000
# 5 0.000000 0.000000 0.000000 0.000000 0.044668 0.000000
# 6 0.000000 0.000000 0.000000 0.000000 0.000000 -0.448048
#
#
# Mechanical properties :
#
#
# Convention : Reuss Voigt Hill
#
# Bulk Modulus (GPa) = 15.79802 20.70196 18.24999
# Shear Modulus (GPa) = -13.81409 10.71643 -1.54883
#
# Velocity S-wave (km/s) = -2.53412 2.23198 -0.84853
# Velocity P-wave (km/s) = 1.10377 4.03312 2.74296
#
# Compressibility (1/GPa) = 0.06329907
#
# Stress axis : x y z
#
# Youngs Moduli (GPa) = 33.02204 68.75528 99.90475
#
# Poissons Ratio (x) = -0.28187 -0.02092
# Poissons Ratio (y) = -0.13538 0.00778
# Poissons Ratio (z) = -0.00691 0.00535
#
# Static dielectric constant tensor:
#      x y z
#    x 1.774010 0.000000 0.000000 
#    y 0.000000 1.881190 0.000000 
#    z 0.000000 0.000000 1.811490 
# 
# From -- ./inp_files/52998.got.cif
#   From: 2010.05.17/outbox.cif.g08.bks.cpg/sg71_27_cif.got.tgz:52998.got - 2010.06.03 16:22:01.
