data_PCOD9522258
_publ_section_title
;
Structure prediction by ZEFSAII (Michael W. Deem and Ramdas Pophale) SiO2 
 PCOD9522258
Probable space group: I M M M
;
_chemical_formula_sum "Si O2"
_cell_formula_units_Z 72
_cell_length_a 8.398879
_cell_length_b 17.891369
_cell_length_c 26.414054
_cell_angle_alpha 90.000000
_cell_angle_beta 90.000000
_cell_angle_gamma 90.000000
_cell_volume 3969.172364
_symmetry_space_group_name_H-M "I M M M"
_symmetry_group_IT_number 71
_symmetry_cell_setting 'orthorhombic'
loop_
_space_group_symop_operation_xyz
x,y,z
-x,-y,z
x,-y,-z
-x,y,-z
-x,-y,-z
x,y,-z
-x,y,z
x,-y,z
1/2+x,1/2+y,1/2+z
1/2-x,1/2-y,1/2+z
1/2+x,1/2-y,1/2-z
1/2-x,1/2+y,1/2-z
1/2-x,1/2-y,1/2-z
1/2+x,1/2+y,1/2-z
1/2-x,1/2+y,1/2+z
1/2+x,1/2-y,1/2+z
loop_
_atom_site_type_symbol
_atom_site_label
_atom_site_fract_x
_atom_site_fract_y
_atom_site_fract_z
Si Si1 0.191765 0.856400 0.944692
Si Si2 0.691009 0.087479 0.500000
Si Si3 0.306906 0.421129 0.341661
Si Si4 0.811450 0.194772 0.589884
Si Si5 0.308496 0.741404 0.692898
O O1 0.232372 0.913727 0.900773
O O2 0.264826 0.775250 0.933658
O O3 0.000000 0.846216 0.942838
O O4 0.237778 0.882458 0.000000
O O5 0.500000 0.088385 0.500000
O O6 0.745890 0.132070 0.550854
O O7 0.743724 0.000000 0.500000
O O8 0.500000 0.421107 0.336626
O O9 0.247777 0.500000 0.320511
O O10 0.250805 0.342559 0.320224
O O11 0.749814 0.202458 0.648272
O O12 0.000000 0.186352 0.591608
O O13 0.500000 0.743375 0.691214
O O14 0.250000 0.750000 0.750000
#
# Coordination Sequence:
#
# PCOD9522258 Si02
#       5
#    16   8  16  16  16
#     4   9  16  27  47  73 104 141 175 208 251 306
#     4  11  23  39  59  83 114 149 186 237 297 346
#     4   8  15  28  47  74 104 133 170 217 265 310
#     4  11  21  34  55  81 110 145 183 225 272 333
#     4  10  20  36  58  81 106 142 187 234 282 338
#
# _framework density 18.139800000000001
#
# number of rings (size 3 to 8) (size 9 to 14) (size 15 to 20)
#    0.000    2.333    1.111    4.333    0.000    1.333 
#    0.000    3.333    0.000   20.667    0.000    6.222 
#    0.000    0.000    0.000    0.000    0.000    0.000 
#
# Total GULP energy -200402.602415 kJ/mol
# GULP energy per Si atom -5566.738956 kJ/mol
# Density = 1.809851 g / cm^3
# Si number density = 18.139800 Si / 1000 Ang^3
#
#
#
# Elastic Constant Matrix: (Units=GPa)
#
#
# Indices 1 2 3 4 5 6 
#
# 1 40.7816 21.9864 32.5677 0.0000 0.0000 0.0000
# 2 21.9864 120.6075 60.0135 0.0000 0.0000 0.0000
# 3 32.5677 60.0135 149.6776 0.0000 0.0000 0.0000
# 4 0.0000 0.0000 0.0000 6.9514 0.0000 0.0000
# 5 0.0000 0.0000 0.0000 0.0000 29.5409 0.0000
# 6 0.0000 0.0000 0.0000 0.0000 0.0000 -5.2733
#
#
#
# Elastic Compliance Matrix: (Units=1/GPa)
#
#
# Indices 1 2 3 4 5 6 
#
# 1 0.030423 -0.002813 -0.005492 0.000000 0.000000 0.000000
# 2 -0.002813 0.010618 -0.003645 0.000000 0.000000 0.000000
# 3 -0.005492 -0.003645 0.009337 0.000000 0.000000 0.000000
# 4 0.000000 0.000000 0.000000 0.143855 0.000000 0.000000
# 5 0.000000 0.000000 0.000000 0.000000 0.033851 0.000000
# 6 0.000000 0.000000 0.000000 0.000000 0.000000 -0.189633
#
#
# Mechanical properties :
#
#
# Convention : Reuss Voigt Hill
#
# Bulk Modulus (GPa) = 37.76682 60.02245 48.89463
# Shear Modulus (GPa) = 70.24544 19.34373 44.79458
#
# Velocity S-wave (km/s) = 6.22965 3.26907 4.97471
# Velocity P-wave (km/s) = 8.52114 6.88548 7.74660
#
# Compressibility (1/GPa) = 0.02647827
#
# Stress axis : x y z
#
# Youngs Moduli (GPa) = 32.86961 94.17914 107.09562
#
# Poissons Ratio (x) = 0.26497 0.58812
# Poissons Ratio (y) = 0.09248 0.39038
# Poissons Ratio (z) = 0.18051 0.34330
#
# Static dielectric constant tensor:
#      x y z
#    x 1.626200 0.000000 0.000000 
#    y 0.000000 1.621970 0.000000 
#    z 0.000000 0.000000 1.653350 
# 
# From -- ./inp_files/7984.got.cif
#   From: 2010.05.17/outbox.cif.g08.bks.cpg/sg71_4_cif.got.tgz:7984.got - 2010.06.03 16:22:01.
