data_PCOD9522409
_publ_section_title
;
Structure prediction by ZEFSAII (Michael W. Deem and Ramdas Pophale) SiO2 
 PCOD9522409
Probable space group: I M M M
;
_chemical_formula_sum "Si O2"
_cell_formula_units_Z 104
_cell_length_a 21.532386
_cell_length_b 8.245710
_cell_length_c 28.665692
_cell_angle_alpha 90.000000
_cell_angle_beta 90.000000
_cell_angle_gamma 90.000000
_cell_volume 5089.588184
_symmetry_space_group_name_H-M "I M M M"
_symmetry_group_IT_number 71
_symmetry_cell_setting 'orthorhombic'
loop_
_space_group_symop_operation_xyz
x,y,z
-x,-y,z
x,-y,-z
-x,y,-z
-x,-y,-z
x,y,-z
-x,y,z
x,-y,z
1/2+x,1/2+y,1/2+z
1/2-x,1/2-y,1/2+z
1/2+x,1/2-y,1/2-z
1/2-x,1/2+y,1/2-z
1/2-x,1/2-y,1/2-z
1/2+x,1/2+y,1/2-z
1/2-x,1/2+y,1/2+z
1/2+x,1/2-y,1/2+z
loop_
_atom_site_type_symbol
_atom_site_label
_atom_site_fract_x
_atom_site_fract_y
_atom_site_fract_z
Si Si1 0.818662 0.696466 0.553127
Si Si2 0.930288 0.696203 0.613354
Si Si3 0.000000 0.694187 0.053568
Si Si4 0.905794 0.812809 0.870663
Si Si5 0.230196 0.687749 0.864771
Si Si6 0.163086 0.304479 0.302355
Si Si7 0.567147 0.192047 0.729869
O O1 0.805753 0.741452 0.500000
O O2 0.812815 0.500000 0.557590
O O3 0.888629 0.740331 0.568756
O O4 0.773159 0.776780 0.590419
O O5 0.934495 0.500000 0.613739
O O6 0.888472 0.736991 0.658186
O O7 0.000000 0.761371 0.614305
O O8 0.059745 0.751849 0.083038
O O9 0.000000 0.500000 0.052941
O O10 0.000000 0.752875 0.000000
O O11 0.831996 0.789867 0.871051
O O12 0.928774 0.717965 0.825105
O O13 0.921720 0.000000 0.864132
O O14 0.212471 0.500000 0.862358
O O15 0.272210 0.730766 0.819711
O O16 0.171448 0.500000 0.301773
O O17 0.129472 0.246319 0.255156
O O18 0.500000 0.258110 0.746515
O O19 0.566278 0.000000 0.740057
#
# Coordination Sequence:
#
# PCOD9522409 Si02
#       7
#    16  16   8  16  16  16  16
#     4   9  18  33  53  78 109 145 188 241 297 355
#     4   8  13  24  46  77 111 144 187 237 283 335
#     4  11  25  47  73  99 127 157 195 245 300 363
#     4  12  25  42  65  92 123 157 192 238 294 355
#     4  11  23  39  59  82 114 156 200 250 300 354
#     4   9  18  34  56  85 118 157 201 244 293 347
#     4  10  20  36  62  92 125 161 199 245 295 350
#
# _framework density 20.433873999999999
#
# number of rings (size 3 to 8) (size 9 to 14) (size 15 to 20)
#    0.000    2.077    0.769    4.385    0.000    4.923 
#    0.000    1.538    0.000   11.077    0.000    4.308 
#    0.000    0.000    0.000    0.000    0.000    0.000 
#
# Total GULP energy -290244.406685 kJ/mol
# GULP energy per Si atom -5581.623205 kJ/mol
# Density = 2.038737 g / cm^3
# Si number density = 20.433874 Si / 1000 Ang^3
#
#
#
# Elastic Constant Matrix: (Units=GPa)
#
#
# Indices 1 2 3 4 5 6 
#
# 1 122.0432 -1.1799 26.6316 0.0000 0.0000 0.0000
# 2 -1.1799 22.8570 -4.0965 0.0000 0.0000 0.0000
# 3 26.6316 -4.0965 90.2658 0.0000 0.0000 0.0000
# 4 0.0000 0.0000 0.0000 16.8692 0.0000 0.0000
# 5 0.0000 0.0000 0.0000 0.0000 -17.1596 0.0000
# 6 0.0000 0.0000 0.0000 0.0000 0.0000 19.8540
#
#
#
# Elastic Compliance Matrix: (Units=1/GPa)
#
#
# Indices 1 2 3 4 5 6 
#
# 1 0.008758 -0.000011 -0.002584 0.000000 0.000000 0.000000
# 2 -0.000011 0.044109 0.002005 0.000000 0.000000 0.000000
# 3 -0.002584 0.002005 0.011932 0.000000 0.000000 0.000000
# 4 0.000000 0.000000 0.000000 0.059280 0.000000 0.000000
# 5 0.000000 0.000000 0.000000 0.000000 -0.058276 0.000000
# 6 0.000000 0.000000 0.000000 0.000000 0.000000 0.050368
#
#
# Mechanical properties :
#
#
# Convention : Reuss Voigt Hill
#
# Bulk Modulus (GPa) = 15.71886 30.87517 23.29702
# Shear Modulus (GPa) = 36.08640 18.16676 27.12658
#
# Velocity S-wave (km/s) = 4.20695 2.98493 3.64748
# Velocity P-wave (km/s) = 5.59528 5.19830 5.40044
#
# Compressibility (1/GPa) = 0.06361783
#
# Stress axis : x y z
#
# Youngs Moduli (GPa) = 114.18593 22.67109 83.80930
#
# Poissons Ratio (x) = 0.00025 0.21659
# Poissons Ratio (y) = 0.00127 -0.16804
# Poissons Ratio (z) = 0.29509 -0.04546
#
# Static dielectric constant tensor:
#      x y z
#    x 1.713550 0.000000 0.000000 
#    y 0.000000 1.714570 0.000000 
#    z 0.000000 0.000000 1.725170 
# 
# From -- ./inp_files/70731.got.cif
#   From: 2010.05.17/outbox.cif.g08.bks.cpg/sg71_36_cif.got.tgz:70731.got - 2010.06.03 16:22:01.
