data_PCOD9522117
_publ_section_title
;
Structure prediction by ZEFSAII (Michael W. Deem and Ramdas Pophale) SiO2 
 PCOD9522117
Probable space group: I M M M
;
_chemical_formula_sum "Si O2"
_cell_formula_units_Z 88
_cell_length_a 14.137080
_cell_length_b 14.182607
_cell_length_c 23.417653
_cell_angle_alpha 90.000000
_cell_angle_beta 90.000000
_cell_angle_gamma 90.000000
_cell_volume 4695.254643
_symmetry_space_group_name_H-M "I M M M"
_symmetry_group_IT_number 71
_symmetry_cell_setting 'orthorhombic'
loop_
_space_group_symop_operation_xyz
x,y,z
-x,-y,z
x,-y,-z
-x,y,-z
-x,-y,-z
x,y,-z
-x,y,z
x,-y,z
1/2+x,1/2+y,1/2+z
1/2-x,1/2-y,1/2+z
1/2+x,1/2-y,1/2-z
1/2-x,1/2+y,1/2-z
1/2-x,1/2-y,1/2-z
1/2+x,1/2+y,1/2-z
1/2-x,1/2+y,1/2+z
1/2+x,1/2-y,1/2+z
loop_
_atom_site_type_symbol
_atom_site_label
_atom_site_fract_x
_atom_site_fract_y
_atom_site_fract_z
Si Si1 0.108434 0.292542 0.935283
Si Si2 0.747981 0.141667 0.233683
Si Si3 0.291662 0.792745 0.886468
Si Si4 0.392199 0.000000 0.580336
Si Si5 0.613195 0.605934 0.170465
Si Si6 0.605146 0.000000 0.284422
Si Si7 0.114285 0.386314 0.500000
O O1 0.183887 0.234083 0.900944
O O2 0.147429 0.399714 0.937087
O O3 0.000000 0.294394 0.912768
O O4 0.104730 0.257329 0.000000
O O5 0.750000 0.250000 0.250000
O O6 0.721648 0.136412 0.167043
O O7 0.842817 0.106022 0.265306
O O8 0.662956 0.090164 0.265266
O O9 0.343283 0.695729 0.864146
O O10 0.342058 0.837504 0.942463
O O11 0.500000 0.000000 0.558690
O O12 0.396474 0.000000 0.647980
O O13 0.500000 0.615713 0.171618
O O14 0.636414 0.500000 0.146815
O O15 0.500000 0.000000 0.260912
O O16 0.133275 0.500000 0.500000
O O17 0.000000 0.373945 0.500000
#
# Coordination Sequence:
#
# PCOD9522117 Si02
#       7
#    16  16  16   8  16   8   8
#     4  10  20  35  58  89 124 161 199 245 301 362
#     4  10  22  37  59  88 122 157 202 253 310 371
#     4  11  23  41  63  91 122 164 210 262 303 369
#     4   9  17  30  53  87 124 155 187 228 293 370
#     4  10  21  39  64  92 128 163 198 248 315 385
#     4  11  22  37  59  91 122 154 202 259 316 378
#     4  11  26  46  66  88 119 164 216 266 313 353
#
# _framework density 18.742327
#
# number of rings (size 3 to 8) (size 9 to 14) (size 15 to 20)
#    0.000    1.727    1.818    3.000    2.545    5.455 
#    0.000    0.455    0.000    2.727    0.000    0.000 
#    0.000    0.000    0.000    0.000    0.000    0.000 
#
# Total GULP energy -244978.254443 kJ/mol
# GULP energy per Si atom -5567.687601 kJ/mol
# Density = 1.869967 g / cm^3
# Si number density = 18.742327 Si / 1000 Ang^3
#
#
#
# Elastic Constant Matrix: (Units=GPa)
#
#
# Indices 1 2 3 4 5 6 
#
# 1 115.3505 42.0599 47.6172 0.0000 0.0000 0.0000
# 2 42.0599 96.4577 44.5466 0.0000 0.0000 0.0000
# 3 47.6172 44.5466 138.0975 0.0000 0.0000 0.0000
# 4 0.0000 0.0000 0.0000 33.3828 0.0000 0.0000
# 5 0.0000 0.0000 0.0000 0.0000 21.4664 0.0000
# 6 0.0000 0.0000 0.0000 0.0000 0.0000 20.3616
#
#
#
# Elastic Compliance Matrix: (Units=1/GPa)
#
#
# Indices 1 2 3 4 5 6 
#
# 1 0.011081 -0.003604 -0.002658 0.000000 0.000000 0.000000
# 2 -0.003604 0.013354 -0.003065 0.000000 0.000000 0.000000
# 3 -0.002658 -0.003065 0.009147 0.000000 0.000000 0.000000
# 4 0.000000 0.000000 0.000000 0.029956 0.000000 0.000000
# 5 0.000000 0.000000 0.000000 0.000000 0.046584 0.000000
# 6 0.000000 0.000000 0.000000 0.000000 0.000000 0.049112
#
#
# Mechanical properties :
#
#
# Convention : Reuss Voigt Hill
#
# Bulk Modulus (GPa) = 66.99273 68.70589 67.84931
# Shear Modulus (GPa) = 27.34278 29.42095 28.38187
#
# Velocity S-wave (km/s) = 3.82367 3.96632 3.89565
# Velocity P-wave (km/s) = 7.43745 7.59693 7.51761
#
# Compressibility (1/GPa) = 0.01492699
#
# Stress axis : x y z
#
# Youngs Moduli (GPa) = 90.24730 74.88237 109.33140
#
# Poissons Ratio (x) = 0.26988 0.29062
# Poissons Ratio (y) = 0.32526 0.33510
# Poissons Ratio (z) = 0.23989 0.22952
#
# Static dielectric constant tensor:
#      x y z
#    x 1.642720 0.000000 0.000000 
#    y 0.000000 1.672120 0.000000 
#    z 0.000000 0.000000 1.691710 
# 
# From -- ./inp_files/52948.got.cif
#   From: 2010.05.17/outbox.cif.g08.bks.cpg/sg71_27_cif.got.tgz:52948.got - 2010.06.03 16:22:01.
