data_PCOD9522974
_publ_section_title
;
Structure prediction by ZEFSAII (Michael W. Deem and Ramdas Pophale) SiO2 
 PCOD9522974
Probable space group: I M M M
;
_chemical_formula_sum "Si O2"
_cell_formula_units_Z 104
_cell_length_a 29.470931
_cell_length_b 19.980985
_cell_length_c 7.688897
_cell_angle_alpha 90.000000
_cell_angle_beta 90.000000
_cell_angle_gamma 90.000000
_cell_volume 4527.670280
_symmetry_space_group_name_H-M "I M M M"
_symmetry_group_IT_number 71
_symmetry_cell_setting 'orthorhombic'
loop_
_space_group_symop_operation_xyz
x,y,z
-x,-y,z
x,-y,-z
-x,y,-z
-x,-y,-z
x,y,-z
-x,y,z
x,-y,z
1/2+x,1/2+y,1/2+z
1/2-x,1/2-y,1/2+z
1/2+x,1/2-y,1/2-z
1/2-x,1/2+y,1/2-z
1/2-x,1/2-y,1/2-z
1/2+x,1/2+y,1/2-z
1/2-x,1/2+y,1/2+z
1/2+x,1/2-y,1/2+z
loop_
_atom_site_type_symbol
_atom_site_label
_atom_site_fract_x
_atom_site_fract_y
_atom_site_fract_z
Si Si1 0.400052 0.924380 0.300912
Si Si2 0.290614 0.201206 0.209085
Si Si3 0.367792 0.422090 0.288248
Si Si4 0.500000 0.079691 0.805625
Si Si5 0.235248 0.076722 0.787623
Si Si6 0.615277 0.218362 0.196716
Si Si7 0.051147 0.826546 0.796649
O O1 0.384712 0.922104 0.500000
O O2 0.453748 0.908325 0.293775
O O3 0.381096 0.862129 0.197347
O O4 0.392780 0.000000 0.233468
O O5 0.250000 0.250000 0.250000
O O6 0.273556 0.128588 0.272128
O O7 0.336492 0.234350 0.282253
O O8 0.296758 0.197384 0.000000
O O9 0.367236 0.418521 0.500000
O O10 0.375589 0.500000 0.242058
O O11 0.316265 0.404552 0.231501
O O12 0.408955 0.375085 0.225641
O O13 0.500000 0.000000 0.828766
O O14 0.500000 0.110838 0.000000
O O15 0.243880 0.000000 0.735289
O O16 0.235243 0.078201 0.000000
O O17 0.572233 0.252007 0.285480
O O18 0.612260 0.242446 0.000000
O O19 0.000000 0.830782 0.722395
O O20 0.047347 0.843651 0.000000
#
# Coordination Sequence:
#
# PCOD9522974 Si02
#       7
#    16  16  16   8  16  16  16
#     4  10  21  37  57  80 107 142 185 231 277 328
#     4  10  21  36  56  81 108 143 184 225 274 331
#     4   8  14  27  51  83 113 138 169 215 272 333
#     4   9  17  31  53  79 105 135 172 217 270 323
#     4   8  14  27  50  79 108 137 170 211 263 325
#     4  11  24  38  54  79 111 149 190 234 284 334
#     4  10  21  36  55  79 108 145 187 232 282 333
#
# _framework density 22.969868999999999
#
# number of rings (size 3 to 8) (size 9 to 14) (size 15 to 20)
#    0.000    2.538    0.000    3.000    1.077    5.538 
#    0.000    3.077    0.000    0.923    0.000    5.385 
#    0.000    0.000    0.000    0.000    0.000    0.000 
#
# Total GULP energy -289981.915635 kJ/mol
# GULP energy per Si atom -5576.575301 kJ/mol
# Density = 2.291759 g / cm^3
# Si number density = 22.969869 Si / 1000 Ang^3
#
#
#
# Elastic Constant Matrix: (Units=GPa)
#
#
# Indices 1 2 3 4 5 6 
#
# 1 74.9906 2.4641 5.2950 0.0000 0.0000 0.0000
# 2 2.4641 70.8305 -0.0895 0.0000 0.0000 0.0000
# 3 5.2950 -0.0895 50.7907 0.0000 0.0000 0.0000
# 4 0.0000 0.0000 0.0000 16.2800 0.0000 0.0000
# 5 0.0000 0.0000 0.0000 0.0000 -24.5691 0.0000
# 6 0.0000 0.0000 0.0000 0.0000 0.0000 29.8518
#
#
#
# Elastic Compliance Matrix: (Units=1/GPa)
#
#
# Indices 1 2 3 4 5 6 
#
# 1 0.013450 -0.000470 -0.001403 0.000000 0.000000 0.000000
# 2 -0.000470 0.014135 0.000074 0.000000 0.000000 0.000000
# 3 -0.001403 0.000074 0.019835 0.000000 0.000000 0.000000
# 4 0.000000 0.000000 0.000000 0.061425 0.000000 0.000000
# 5 0.000000 0.000000 0.000000 0.000000 -0.040701 0.000000
# 6 0.000000 0.000000 0.000000 0.000000 0.000000 0.033499
#
#
# Mechanical properties :
#
#
# Convention : Reuss Voigt Hill
#
# Bulk Modulus (GPa) = 22.81976 23.55012 23.18494
# Shear Modulus (GPa) = 41.72006 16.90867 29.31436
#
# Velocity S-wave (km/s) = 4.26642 2.71610 3.57628
# Velocity P-wave (km/s) = 5.85030 4.48455 5.21235
#
# Compressibility (1/GPa) = 0.04382167
#
# Stress axis : x y z
#
# Youngs Moduli (GPa) = 74.35218 70.74817 50.41586
#
# Poissons Ratio (x) = 0.03323 0.07073
# Poissons Ratio (y) = 0.03492 -0.00372
# Poissons Ratio (z) = 0.10431 -0.00523
#
# Static dielectric constant tensor:
#      x y z
#    x 1.926730 0.000000 0.000000 
#    y 0.000000 1.911370 0.000000 
#    z 0.000000 0.000000 1.893840 
# 
# From -- ./inp_files/15013.got.cif
#   From: 2010.05.17/outbox.cif.g08.bks.cpg/sg71_8_cif.got.tgz:15013.got - 2010.06.03 16:22:01.
