data_PCOD9522041
_publ_section_title
;
Structure prediction by ZEFSAII (Michael W. Deem and Ramdas Pophale) SiO2 
 PCOD9522041
Probable space group: I M M M
;
_chemical_formula_sum "Si O2"
_cell_formula_units_Z 88
_cell_length_a 19.907892
_cell_length_b 15.345207
_cell_length_c 13.472602
_cell_angle_alpha 90.000000
_cell_angle_beta 90.000000
_cell_angle_gamma 90.000000
_cell_volume 4115.754935
_symmetry_space_group_name_H-M "I M M M"
_symmetry_group_IT_number 71
_symmetry_cell_setting 'orthorhombic'
loop_
_space_group_symop_operation_xyz
x,y,z
-x,-y,z
x,-y,-z
-x,y,-z
-x,-y,-z
x,y,-z
-x,y,z
x,-y,z
1/2+x,1/2+y,1/2+z
1/2-x,1/2-y,1/2+z
1/2+x,1/2-y,1/2-z
1/2-x,1/2+y,1/2-z
1/2-x,1/2-y,1/2-z
1/2+x,1/2+y,1/2-z
1/2-x,1/2+y,1/2+z
1/2+x,1/2-y,1/2+z
loop_
_atom_site_type_symbol
_atom_site_label
_atom_site_fract_x
_atom_site_fract_y
_atom_site_fract_z
Si Si1 0.653287 0.332731 0.702043
Si Si2 0.078626 0.104258 0.616445
Si Si3 0.283265 0.895054 0.886076
Si Si4 0.077298 0.672165 0.887937
Si Si5 0.923381 0.000000 0.117902
Si Si6 0.572556 0.100678 0.823209
O O1 0.626404 0.339034 0.814015
O O2 0.731938 0.347996 0.687045
O O3 0.627064 0.248468 0.644585
O O4 0.616129 0.415234 0.652329
O O5 0.088905 0.120432 0.500000
O O6 0.000000 0.121084 0.639492
O O7 0.090419 0.000000 0.633152
O O8 0.359564 0.864258 0.870574
O O9 0.280951 0.000000 0.868176
O O10 0.262282 0.880661 0.000000
O O11 0.079945 0.605389 0.796317
O O12 0.000000 0.705947 0.888080
O O13 0.090859 0.640281 0.000000
O O14 0.000000 0.000000 0.155795
O O15 0.925733 0.000000 0.000000
O O16 0.500000 0.141876 0.848551
O O17 0.569472 0.000000 0.854154
#
# Coordination Sequence:
#
# PCOD9522041 Si02
#       6
#    16  16  16  16   8  16
#     4  12  20  32  52  81 121 155 185 226 274 330
#     4   9  17  30  48  70 102 153 208 240 260 299
#     4  10  20  35  57  85 116 149 185 230 287 345
#     4  10  21  36  56  84 116 148 185 233 285 339
#     4  11  20  28  45  75 112 158 197 216 247 313
#     4   9  20  40  62  81 103 139 193 249 302 353
#
# _framework density 21.381253000000001
#
# number of rings (size 3 to 8) (size 9 to 14) (size 15 to 20)
#    0.000    1.909    1.818    3.818    0.000    2.909 
#    0.000    5.455    0.000    2.182    0.000    0.000 
#    0.000    0.000    0.000    0.000    0.000    0.000 
#
# Total GULP energy -245785.838009 kJ/mol
# GULP energy per Si atom -5586.041773 kJ/mol
# Density = 2.133259 g / cm^3
# Si number density = 21.381253 Si / 1000 Ang^3
#
#
#
# Elastic Constant Matrix: (Units=GPa)
#
#
# Indices 1 2 3 4 5 6 
#
# 1 129.5076 14.1448 32.0961 0.0000 0.0000 0.0000
# 2 14.1448 36.5152 -7.4578 0.0000 0.0000 0.0000
# 3 32.0961 -7.4578 85.6610 0.0000 0.0000 0.0000
# 4 0.0000 0.0000 0.0000 23.7852 0.0000 0.0000
# 5 0.0000 0.0000 0.0000 0.0000 20.5270 0.0000
# 6 0.0000 0.0000 0.0000 0.0000 0.0000 8.0453
#
#
#
# Elastic Compliance Matrix: (Units=1/GPa)
#
#
# Indices 1 2 3 4 5 6 
#
# 1 0.009134 -0.004314 -0.003798 0.000000 0.000000 0.000000
# 2 -0.004314 0.029919 0.004221 0.000000 0.000000 0.000000
# 3 -0.003798 0.004221 0.013464 0.000000 0.000000 0.000000
# 4 0.000000 0.000000 0.000000 0.042043 0.000000 0.000000
# 5 0.000000 0.000000 0.000000 0.000000 0.048716 0.000000
# 6 0.000000 0.000000 0.000000 0.000000 0.000000 0.124296
#
#
# Mechanical properties :
#
#
# Convention : Reuss Voigt Hill
#
# Bulk Modulus (GPa) = 22.35330 36.58333 29.46831
# Shear Modulus (GPa) = 17.22557 24.66489 20.94523
#
# Velocity S-wave (km/s) = 2.84146 3.40012 3.13326
# Velocity P-wave (km/s) = 4.60896 5.70627 5.18672
#
# Compressibility (1/GPa) = 0.04473612
#
# Stress axis : x y z
#
# Youngs Moduli (GPa) = 109.48141 33.42354 74.26953
#
# Poissons Ratio (x) = 0.14419 0.28207
# Poissons Ratio (y) = 0.47229 -0.31350
# Poissons Ratio (z) = 0.41581 -0.14109
#
# Static dielectric constant tensor:
#      x y z
#    x 1.783860 0.000000 0.000000 
#    y 0.000000 1.754500 0.000000 
#    z 0.000000 0.000000 1.781130 
# 
# From -- ./inp_files/36400.got.cif
#   From: 2010.05.17/outbox.cif.g08.bks.cpg/sg71_19_cif.got.tgz:36400.got - 2010.06.03 16:22:01.
