data_PCOD9522442
_publ_section_title
;
Structure prediction by ZEFSAII (Michael W. Deem and Ramdas Pophale) SiO2 
 PCOD9522442
Probable space group: I M M M
;
_chemical_formula_sum "Si O2"
_cell_formula_units_Z 88
_cell_length_a 8.344875
_cell_length_b 19.832307
_cell_length_c 28.019820
_cell_angle_alpha 90.000000
_cell_angle_beta 90.000000
_cell_angle_gamma 90.000000
_cell_volume 4637.227613
_symmetry_space_group_name_H-M "I M M M"
_symmetry_group_IT_number 71
_symmetry_cell_setting 'orthorhombic'
loop_
_space_group_symop_operation_xyz
x,y,z
-x,-y,z
x,-y,-z
-x,y,-z
-x,-y,-z
x,y,-z
-x,y,z
x,-y,z
1/2+x,1/2+y,1/2+z
1/2-x,1/2-y,1/2+z
1/2+x,1/2-y,1/2-z
1/2-x,1/2+y,1/2-z
1/2-x,1/2-y,1/2-z
1/2+x,1/2+y,1/2-z
1/2-x,1/2+y,1/2+z
1/2+x,1/2-y,1/2+z
loop_
_atom_site_type_symbol
_atom_site_label
_atom_site_fract_x
_atom_site_fract_y
_atom_site_fract_z
Si Si1 0.193740 0.179809 0.772078
Si Si2 0.692201 0.846939 0.595450
Si Si3 0.691903 0.578055 0.000000
Si Si4 0.194177 0.922455 0.690708
Si Si5 0.806768 0.425385 0.555479
Si Si6 0.192730 0.803818 0.880033
O O1 0.250000 0.250000 0.750000
O O2 0.247855 0.120110 0.736938
O O3 0.251167 0.178865 0.826662
O O4 0.000000 0.178233 0.772704
O O5 0.500000 0.846154 0.593480
O O6 0.753230 0.882802 0.547513
O O7 0.745454 0.887629 0.642400
O O8 0.750258 0.769571 0.602071
O O9 0.750281 0.500000 0.000000
O O10 0.500000 0.576160 0.000000
O O11 0.000000 0.921292 0.689694
O O12 0.246289 0.000000 0.693029
O O13 0.760342 0.419180 0.500000
O O14 0.754827 0.500000 0.572457
O O15 0.739986 0.363909 0.585296
O O16 0.000000 0.423677 0.557483
O O17 0.000000 0.799648 0.877969
#
# Coordination Sequence:
#
# PCOD9522442 Si02
#       6
#    16  16   8  16  16  16
#     4  10  20  37  58  82 114 151 189 233 282 335
#     4  11  23  39  59  87 120 152 190 239 291 340
#     4  11  25  43  61  83 114 153 198 241 285 346
#     4  10  21  37  59  86 115 152 196 236 280 341
#     4   9  20  39  60  84 115 150 190 235 282 335
#     4  10  22  37  57  87 119 150 189 235 283 341
#
# _framework density 18.976855
#
# number of rings (size 3 to 8) (size 9 to 14) (size 15 to 20)
#    0.000    1.909    1.818    1.909    1.273    6.909 
#    0.000    2.727    0.000    0.000    0.000    0.000 
#    0.000    0.000    0.000    0.000    0.000    0.000 
#
# Total GULP energy -245692.754046 kJ/mol
# GULP energy per Si atom -5583.926228 kJ/mol
# Density = 1.893366 g / cm^3
# Si number density = 18.976855 Si / 1000 Ang^3
#
#
#
# Elastic Constant Matrix: (Units=GPa)
#
#
# Indices 1 2 3 4 5 6 
#
# 1 11.9478 23.8383 23.4398 0.0000 0.0000 0.0000
# 2 23.8383 221.4206 127.4884 0.0000 0.0000 0.0000
# 3 23.4398 127.4884 163.0803 0.0000 0.0000 0.0000
# 4 0.0000 0.0000 0.0000 40.3412 0.0000 0.0000
# 5 0.0000 0.0000 0.0000 0.0000 19.4531 0.0000
# 6 0.0000 0.0000 0.0000 0.0000 0.0000 26.5272
#
#
#
# Elastic Compliance Matrix: (Units=1/GPa)
#
#
# Indices 1 2 3 4 5 6 
#
# 1 0.120062 -0.005437 -0.013006 0.000000 0.000000 0.000000
# 2 -0.005437 0.008459 -0.005832 0.000000 0.000000 0.000000
# 3 -0.013006 -0.005832 0.012560 0.000000 0.000000 0.000000
# 4 0.000000 0.000000 0.000000 0.024789 0.000000 0.000000
# 5 0.000000 0.000000 0.000000 0.000000 0.051406 0.000000
# 6 0.000000 0.000000 0.000000 0.000000 0.000000 0.037697
#
#
# Mechanical properties :
#
#
# Convention : Reuss Voigt Hill
#
# Bulk Modulus (GPa) = 10.80715 82.88686 46.84701
# Shear Modulus (GPa) = 14.95365 32.04310 23.49838
#
# Velocity S-wave (km/s) = 2.81017 4.11364 3.52272
# Velocity P-wave (km/s) = 4.02948 8.14465 6.42542
#
# Compressibility (1/GPa) = 0.09253133
#
# Stress axis : x y z
#
# Youngs Moduli (GPa) = 8.32905 118.21181 79.61658
#
# Poissons Ratio (x) = 0.64277 1.03549
# Poissons Ratio (y) = 0.04529 0.46429
# Poissons Ratio (z) = 0.10833 0.68937
#
# Static dielectric constant tensor:
#      x y z
#    x 1.659230 0.000000 0.000000 
#    y 0.000000 1.648300 0.000000 
#    z 0.000000 0.000000 1.659830 
# 
# From -- ./inp_files/12563.got.cif
#   From: 2010.05.17/outbox.cif.g08.bks.cpg/sg71_7_cif.got.tgz:12563.got - 2010.06.03 16:22:01.
