data_PCOD9522495
_publ_section_title
;
Structure prediction by ZEFSAII (Michael W. Deem and Ramdas Pophale) SiO2 
 PCOD9522495
Probable space group: I M M M
;
_chemical_formula_sum "Si O2"
_cell_formula_units_Z 80
_cell_length_a 19.293493
_cell_length_b 7.535926
_cell_length_c 23.853752
_cell_angle_alpha 90.000000
_cell_angle_beta 90.000000
_cell_angle_gamma 90.000000
_cell_volume 3468.200422
_symmetry_space_group_name_H-M "I M M M"
_symmetry_group_IT_number 71
_symmetry_cell_setting 'orthorhombic'
loop_
_space_group_symop_operation_xyz
x,y,z
-x,-y,z
x,-y,-z
-x,y,-z
-x,-y,-z
x,y,-z
-x,y,z
x,-y,z
1/2+x,1/2+y,1/2+z
1/2-x,1/2-y,1/2+z
1/2+x,1/2-y,1/2-z
1/2-x,1/2+y,1/2-z
1/2-x,1/2-y,1/2-z
1/2+x,1/2+y,1/2-z
1/2-x,1/2+y,1/2+z
1/2+x,1/2-y,1/2+z
loop_
_atom_site_type_symbol
_atom_site_label
_atom_site_fract_x
_atom_site_fract_y
_atom_site_fract_z
Si Si1 0.612831 0.786986 0.500000
Si Si2 0.926111 0.795255 0.878547
Si Si3 0.309924 0.198255 0.696031
Si Si4 0.275062 0.284367 0.000000
Si Si5 0.317483 0.286236 0.875921
Si Si6 0.578810 0.788407 0.214899
O O1 0.577341 0.715120 0.444830
O O2 0.693894 0.736873 0.500000
O O3 0.607940 0.000000 0.500000
O O4 0.862068 0.687838 0.855875
O O5 0.000000 0.726422 0.857719
O O6 0.919227 0.000000 0.861540
O O7 0.241916 0.282494 0.667667
O O8 0.361084 0.281936 0.742776
O O9 0.290371 0.000000 0.715751
O O10 0.306824 0.224251 0.059902
O O11 0.279606 0.500000 0.000000
O O12 0.309044 0.500000 0.877019
O O13 0.390520 0.243016 0.847044
O O14 0.500000 0.720150 0.221746
O O15 0.576174 0.000000 0.225216
#
# Coordination Sequence:
#
# PCOD9522495 Si02
#       6
#     8  16  16   8  16  16
#     4  11  20  36  57  75 107 153 199 241 284 342
#     4  11  23  35  49  78 119 155 192 240 287 336
#     4  10  20  37  61  85 112 152 195 235 282 344
#     4   9  18  36  59  86 114 140 185 245 286 331
#     4  10  20  37  62  88 114 146 190 241 291 344
#     4  10  22  39  58  85 120 153 191 239 288 345
#
# _framework density 23.066718999999999
#
# number of rings (size 3 to 8) (size 9 to 14) (size 15 to 20)
#    0.000    1.800    2.000    2.400    0.000    5.600 
#    0.000    1.000    0.000    3.000    0.000    0.000 
#    0.000    0.000    0.000    0.000    0.000    0.000 
#
# Total GULP energy -223328.357914 kJ/mol
# GULP energy per Si atom -5583.208948 kJ/mol
# Density = 2.301422 g / cm^3
# Si number density = 23.066719 Si / 1000 Ang^3
#
#
#
# Elastic Constant Matrix: (Units=GPa)
#
#
# Indices 1 2 3 4 5 6 
#
# 1 112.2532 2.0325 81.1986 0.0000 0.0000 0.0000
# 2 2.0325 68.2655 7.6503 0.0000 0.0000 0.0000
# 3 81.1986 7.6503 144.2161 0.0000 0.0000 0.0000
# 4 0.0000 0.0000 0.0000 20.5861 0.0000 0.0000
# 5 0.0000 0.0000 0.0000 0.0000 104.3311 0.0000
# 6 0.0000 0.0000 0.0000 0.0000 0.0000 16.7094
#
#
#
# Elastic Compliance Matrix: (Units=1/GPa)
#
#
# Indices 1 2 3 4 5 6 
#
# 1 0.015047 0.000504 -0.008499 0.000000 0.000000 0.000000
# 2 0.000504 0.014753 -0.001067 0.000000 0.000000 0.000000
# 3 -0.008499 -0.001067 0.011776 0.000000 0.000000 0.000000
# 4 0.000000 0.000000 0.000000 0.048576 0.000000 0.000000
# 5 0.000000 0.000000 0.000000 0.000000 0.009585 0.000000
# 6 0.000000 0.000000 0.000000 0.000000 0.000000 0.059846
#
#
# Mechanical properties :
#
#
# Convention : Reuss Voigt Hill
#
# Bulk Modulus (GPa) = 42.63670 56.27752 49.45711
# Shear Modulus (GPa) = 26.95084 43.91556 35.43320
#
# Velocity S-wave (km/s) = 3.42188 4.36805 3.92359
# Velocity P-wave (km/s) = 5.84265 7.06332 6.48178
#
# Compressibility (1/GPa) = 0.02345397
#
# Stress axis : x y z
#
# Youngs Moduli (GPa) = 66.45933 67.78191 84.92109
#
# Poissons Ratio (x) = -0.03419 0.72171
# Poissons Ratio (y) = -0.03352 0.09058
# Poissons Ratio (z) = 0.56481 0.07230
#
# Static dielectric constant tensor:
#      x y z
#    x 1.844420 0.000000 0.000000 
#    y 0.000000 1.906840 0.000000 
#    z 0.000000 0.000000 1.895250 
# 
# From -- ./inp_files/61043.got.cif
#   From: 2010.05.17/outbox.cif.g08.bks.cpg/sg71_31_cif.got.tgz:61043.got - 2010.06.03 16:22:01.
