data_PCOD9522869
_publ_section_title
;
Structure prediction by ZEFSAII (Michael W. Deem and Ramdas Pophale) SiO2 
 PCOD9522869
Probable space group: I M M M
;
_chemical_formula_sum "Si O2"
_cell_formula_units_Z 42
_cell_length_a 7.378411
_cell_length_b 10.453333
_cell_length_c 27.191376
_cell_angle_alpha 90.000000
_cell_angle_beta 90.000000
_cell_angle_gamma 90.000000
_cell_volume 2097.243291
_symmetry_space_group_name_H-M "I M M M"
_symmetry_group_IT_number 71
_symmetry_cell_setting 'orthorhombic'
loop_
_space_group_symop_operation_xyz
x,y,z
-x,-y,z
x,-y,-z
-x,y,-z
-x,-y,-z
x,y,-z
-x,y,z
x,-y,z
1/2+x,1/2+y,1/2+z
1/2-x,1/2-y,1/2+z
1/2+x,1/2-y,1/2-z
1/2-x,1/2+y,1/2-z
1/2-x,1/2-y,1/2-z
1/2+x,1/2+y,1/2-z
1/2-x,1/2+y,1/2+z
1/2+x,1/2-y,1/2+z
loop_
_atom_site_type_symbol
_atom_site_label
_atom_site_fract_x
_atom_site_fract_y
_atom_site_fract_z
Si Si1 0.000000 0.000000 0.500000
Si Si2 0.208890 0.500000 0.175777
Si Si3 0.000000 0.267957 0.554045
Si Si4 0.217428 0.000000 0.209819
Si Si5 0.219459 0.226964 0.863266
O O1 0.000000 0.884539 0.541890
O O2 0.214698 0.500000 0.234711
O O3 0.281235 0.633067 0.155019
O O4 0.000000 0.500000 0.160047
O O5 0.175260 0.301209 0.586519
O O6 0.000000 0.329611 0.500000
O O7 0.269636 0.124289 0.178457
O O8 0.000000 0.000000 0.213321
O O9 0.000000 0.223064 0.869165
#
# Coordination Sequence:
#
# PCOD9522869 Si02
#       5
#     2   8   8   8  16
#     4   8  20  40  58  98 108 142 212 238 302 356
#     4  10  21  35  58  88 118 160 205 241 298 350
#     4  10  22  39  64  88 117 153 206 250 304 351
#     4  10  22  37  57  86 123 163 199 235 303 360
#     4  10  22  39  58  88 123 157 197 251 296 356
#
# _framework density 20.026288000000001
#
# number of rings (size 3 to 8) (size 9 to 14) (size 15 to 20)
#    0.571    1.524    0.000    2.286    5.333    0.762 
#    0.000    2.857    0.000    3.429    0.000    0.000 
#    0.000    0.000    0.000    0.000    0.000    0.000 
#
# Total GULP energy -116902.291851 kJ/mol
# GULP energy per Si atom -5566.775802 kJ/mol
# Density = 1.998071 g / cm^3
# Si number density = 20.026288 Si / 1000 Ang^3
#
#
#
# Elastic Constant Matrix: (Units=GPa)
#
#
# Indices 1 2 3 4 5 6 
#
# 1 79.8522 15.2149 30.8823 0.0000 0.0000 0.0000
# 2 15.2149 80.1793 24.8812 0.0000 0.0000 0.0000
# 3 30.8823 24.8812 143.3902 0.0000 0.0000 0.0000
# 4 0.0000 0.0000 0.0000 429.9631 0.0000 0.0000
# 5 0.0000 0.0000 0.0000 0.0000 31.5153 0.0000
# 6 0.0000 0.0000 0.0000 0.0000 0.0000 -7.0810
#
#
#
# Elastic Compliance Matrix: (Units=1/GPa)
#
#
# Indices 1 2 3 4 5 6 
#
# 1 0.013904 -0.001806 -0.002681 0.000000 0.000000 0.000000
# 2 -0.001806 0.013417 -0.001939 0.000000 0.000000 0.000000
# 3 -0.002681 -0.001939 0.007888 0.000000 0.000000 0.000000
# 4 0.000000 0.000000 0.000000 0.002326 0.000000 0.000000
# 5 0.000000 0.000000 0.000000 0.000000 0.031731 0.000000
# 6 0.000000 0.000000 0.000000 0.000000 0.000000 -0.141224
#
#
# Mechanical properties :
#
#
# Convention : Reuss Voigt Hill
#
# Bulk Modulus (GPa) = 44.73175 49.48651 47.10913
# Shear Modulus (GPa) = -96.79913 106.37568 4.78828
#
# Velocity S-wave (km/s) = -6.95995 7.29612 1.54796
# Velocity P-wave (km/s) = 6.49638 9.78479 5.17394
#
# Compressibility (1/GPa) = 0.02235548
#
# Stress axis : x y z
#
# Youngs Moduli (GPa) = 71.92040 74.53481 126.77685
#
# Poissons Ratio (x) = 0.13465 0.33991
# Poissons Ratio (y) = 0.12992 0.24582
# Poissons Ratio (z) = 0.19283 0.14452
#
# Static dielectric constant tensor:
#      x y z
#    x 1.704070 0.000000 0.000000 
#    y 0.000000 1.720920 0.000000 
#    z 0.000000 0.000000 1.666190 
# 
# From -- ./inp_files/2987.got.cif
#   From: 2010.05.17/outbox.cif.g08.bks.cpg/sg71_2_cif.got.tgz:2987.got - 2010.06.03 16:22:01.
