data_PCOD9522661
_publ_section_title
;
Structure prediction by ZEFSAII (Michael W. Deem and Ramdas Pophale) SiO2 
 PCOD9522661
Probable space group: I M M M
;
_chemical_formula_sum "Si O2"
_cell_formula_units_Z 78
_cell_length_a 16.670170
_cell_length_b 7.324253
_cell_length_c 24.352588
_cell_angle_alpha 90.000000
_cell_angle_beta 90.000000
_cell_angle_gamma 90.000000
_cell_volume 2973.366799
_symmetry_space_group_name_H-M "I M M M"
_symmetry_group_IT_number 71
_symmetry_cell_setting 'orthorhombic'
loop_
_space_group_symop_operation_xyz
x,y,z
-x,-y,z
x,-y,-z
-x,y,-z
-x,-y,-z
x,y,-z
-x,y,z
x,-y,z
1/2+x,1/2+y,1/2+z
1/2-x,1/2-y,1/2+z
1/2+x,1/2-y,1/2-z
1/2-x,1/2+y,1/2-z
1/2-x,1/2-y,1/2-z
1/2+x,1/2+y,1/2-z
1/2-x,1/2+y,1/2+z
1/2+x,1/2-y,1/2+z
loop_
_atom_site_type_symbol
_atom_site_label
_atom_site_fract_x
_atom_site_fract_y
_atom_site_fract_z
Si Si1 0.666570 0.500000 0.000000
Si Si2 0.150234 0.281659 0.318379
Si Si3 0.907730 0.715309 0.793236
Si Si4 0.000000 0.500000 0.500000
Si Si5 0.413306 0.291805 0.419642
Si Si6 0.260506 0.221120 0.080270
Si Si7 0.000000 0.205759 0.398577
O O1 0.676440 0.338499 0.953198
O O2 0.146864 0.500000 0.312976
O O3 0.145047 0.209507 0.256652
O O4 0.226912 0.237661 0.355409
O O5 0.075273 0.231104 0.357157
O O6 0.892924 0.500000 0.801431
O O7 0.906093 0.798042 0.853566
O O8 0.000000 0.734277 0.773249
O O9 0.000000 0.657494 0.450192
O O10 0.500000 0.207558 0.432890
O O11 0.415368 0.500000 0.438924
O O12 0.328007 0.217026 0.438229
O O13 0.269235 0.000000 0.072411
O O14 0.000000 0.000000 0.421301
#
# Coordination Sequence:
#
# PCOD9522661 Si02
#       7
#     4  16  16   2  16  16   8
#     4  12  26  46  69  89 124 164 214 272 334 365
#     4  10  20  41  62  87 131 168 204 258 309 370
#     4   9  17  31  59  90 126 168 201 241 309 374
#     4  12  26  48  60  82 128 156 216 280 308 356
#     4   9  19  38  62  93 129 162 201 255 313 378
#     4  10  24  44  65  91 124 164 210 263 320 376
#     4  12  25  41  63  90 119 165 214 261 315 366
#
# _framework density 26.232887999999999
#
# number of rings (size 3 to 8) (size 9 to 14) (size 15 to 20)
#    0.000    2.051    2.051    0.462    2.872    2.462 
#    0.000    1.026    0.000    2.462    0.000    0.000 
#    0.000    0.000    0.000    0.000    0.000    0.000 
#
# Total GULP energy -217376.608497 kJ/mol
# GULP energy per Si atom -5573.759192 kJ/mol
# Density = 2.617318 g / cm^3
# Si number density = 26.232888 Si / 1000 Ang^3
#
#
#
# Elastic Constant Matrix: (Units=GPa)
#
#
# Indices 1 2 3 4 5 6 
#
# 1 101.9565 2.5317 10.3082 0.0000 0.0000 0.0000
# 2 2.5317 126.7475 26.0138 0.0000 0.0000 0.0000
# 3 10.3082 26.0138 193.4305 0.0000 0.0000 0.0000
# 4 0.0000 0.0000 0.0000 13.8881 0.0000 0.0000
# 5 0.0000 0.0000 0.0000 0.0000 162.8981 0.0000
# 6 0.0000 0.0000 0.0000 0.0000 0.0000 -11.3053
#
#
#
# Elastic Compliance Matrix: (Units=1/GPa)
#
#
# Indices 1 2 3 4 5 6 
#
# 1 0.009862 -0.000092 -0.000513 0.000000 0.000000 0.000000
# 2 -0.000092 0.008115 -0.001086 0.000000 0.000000 0.000000
# 3 -0.000513 -0.001086 0.005343 0.000000 0.000000 0.000000
# 4 0.000000 0.000000 0.000000 0.072004 0.000000 0.000000
# 5 0.000000 0.000000 0.000000 0.000000 0.006139 0.000000
# 6 0.000000 0.000000 0.000000 0.000000 0.000000 -0.088454
#
#
# Mechanical properties :
#
#
# Convention : Reuss Voigt Hill
#
# Bulk Modulus (GPa) = 50.15689 55.53797 52.84743
# Shear Modulus (GPa) = 217.03955 58.64823 137.84389
#
# Velocity S-wave (km/s) = 9.10578 4.73342 7.25674
# Velocity P-wave (km/s) = 11.38925 7.14778 9.50805
#
# Compressibility (1/GPa) = 0.01993744
#
# Stress axis : x y z
#
# Youngs Moduli (GPa) = 101.39656 123.23604 187.15114
#
# Poissons Ratio (x) = 0.01129 0.09606
# Poissons Ratio (y) = 0.00929 0.20332
# Poissons Ratio (z) = 0.05204 0.13388
#
# Static dielectric constant tensor:
#      x y z
#    x 2.151390 0.000000 0.000000 
#    y 0.000000 1.987470 0.000000 
#    z 0.000000 0.000000 2.045140 
# 
# From -- ./inp_files/65875.got.cif
#   From: 2010.05.17/outbox.cif.g08.bks.cpg/sg71_33_cif.got.tgz:65875.got - 2010.06.03 16:22:01.
