data_PCOD9522031
_publ_section_title
;
Structure prediction by ZEFSAII (Michael W. Deem and Ramdas Pophale) SiO2 
 PCOD9522031
Probable space group: I M M M
;
_chemical_formula_sum "Si O2"
_cell_formula_units_Z 88
_cell_length_a 8.089392
_cell_length_b 21.766706
_cell_length_c 23.752720
_cell_angle_alpha 90.000000
_cell_angle_beta 90.000000
_cell_angle_gamma 90.000000
_cell_volume 4182.365099
_symmetry_space_group_name_H-M "I M M M"
_symmetry_group_IT_number 71
_symmetry_cell_setting 'orthorhombic'
loop_
_space_group_symop_operation_xyz
x,y,z
-x,-y,z
x,-y,-z
-x,y,-z
-x,-y,-z
x,y,-z
-x,y,z
x,-y,z
1/2+x,1/2+y,1/2+z
1/2-x,1/2-y,1/2+z
1/2+x,1/2-y,1/2-z
1/2-x,1/2+y,1/2-z
1/2-x,1/2-y,1/2-z
1/2+x,1/2+y,1/2-z
1/2-x,1/2+y,1/2+z
1/2+x,1/2-y,1/2+z
loop_
_atom_site_type_symbol
_atom_site_label
_atom_site_fract_x
_atom_site_fract_y
_atom_site_fract_z
Si Si1 0.500000 0.197527 0.063331
Si Si2 0.676013 0.750452 0.434924
Si Si3 0.500000 0.933917 0.097400
Si Si4 0.298789 0.500000 0.065255
Si Si5 0.201253 0.131557 0.389205
Si Si6 0.305535 0.569602 0.316705
Si Si7 0.697441 0.318745 0.232796
O O1 0.665973 0.219376 0.093243
O O2 0.500000 0.125387 0.059556
O O3 0.500000 0.225424 0.000000
O O4 0.668915 0.729627 0.500000
O O5 0.500000 0.736232 0.408041
O O6 0.714490 0.822353 0.432982
O O7 0.666694 0.930226 0.134980
O O8 0.500000 0.000000 0.068884
O O9 0.500000 0.500000 0.063922
O O10 0.250146 0.561957 0.097586
O O11 0.243501 0.500000 0.000000
O O12 0.254531 0.158158 0.328674
O O13 0.000000 0.135841 0.393904
O O14 0.500000 0.576860 0.334358
O O15 0.296316 0.500000 0.290935
O O16 0.261557 0.626168 0.275978
O O17 0.500000 0.317342 0.229943
O O18 0.750000 0.250000 0.250000
#
# Coordination Sequence:
#
# PCOD9522031 Si02
#       7
#     8  16   8   8  16  16  16
#     4  10  22  39  62  87 120 152 185 241 298 356
#     4  10  21  37  58  84 114 154 199 240 292 355
#     4  10  22  39  64  90 113 151 192 238 291 349
#     4   9  18  32  57  89 117 154 203 251 300 360
#     4  10  20  35  57  84 116 156 199 248 302 354
#     4   9  20  39  61  84 115 157 199 239 286 351
#     4  10  23  36  54  83 117 155 195 247 302 353
#
# _framework density 21.040725999999999
#
# number of rings (size 3 to 8) (size 9 to 14) (size 15 to 20)
#    0.000    2.273    0.909    0.545    5.091    2.364 
#    0.000    0.455    0.000    1.636    0.000    5.091 
#    0.000    0.000    0.000    0.000    0.000    0.000 
#
# Total GULP energy -245288.031253 kJ/mol
# GULP energy per Si atom -5574.727983 kJ/mol
# Density = 2.099284 g / cm^3
# Si number density = 21.040726 Si / 1000 Ang^3
#
#
#
# Elastic Constant Matrix: (Units=GPa)
#
#
# Indices 1 2 3 4 5 6 
#
# 1 106.4333 39.6317 18.2736 0.0000 0.0000 0.0000
# 2 39.6317 160.2744 39.1165 0.0000 0.0000 0.0000
# 3 18.2736 39.1165 64.4043 0.0000 0.0000 0.0000
# 4 0.0000 0.0000 0.0000 31.1195 0.0000 0.0000
# 5 0.0000 0.0000 0.0000 0.0000 -9.4849 0.0000
# 6 0.0000 0.0000 0.0000 0.0000 0.0000 3.4384
#
#
#
# Elastic Compliance Matrix: (Units=1/GPa)
#
#
# Indices 1 2 3 4 5 6 
#
# 1 0.010495 -0.002194 -0.001645 0.000000 0.000000 0.000000
# 2 -0.002194 0.007784 -0.004105 0.000000 0.000000 0.000000
# 3 -0.001645 -0.004105 0.018487 0.000000 0.000000 0.000000
# 4 0.000000 0.000000 0.000000 0.032134 0.000000 0.000000
# 5 0.000000 0.000000 0.000000 0.000000 -0.105431 0.000000
# 6 0.000000 0.000000 0.000000 0.000000 0.000000 0.290829
#
#
# Mechanical properties :
#
#
# Convention : Reuss Voigt Hill
#
# Bulk Modulus (GPa) = 47.89877 58.35062 53.12469
# Shear Modulus (GPa) = 18.04108 20.62062 19.33085
#
# Velocity S-wave (km/s) = 2.93138 3.13395 3.03435
# Velocity P-wave (km/s) = 5.85419 6.39437 6.13023
#
# Compressibility (1/GPa) = 0.02087736
#
# Stress axis : x y z
#
# Youngs Moduli (GPa) = 95.28483 128.47574 54.09197
#
# Poissons Ratio (x) = 0.28181 0.08901
# Poissons Ratio (y) = 0.20901 0.22205
# Poissons Ratio (z) = 0.15679 0.52740
#
# Static dielectric constant tensor:
#      x y z
#    x 1.792970 0.000000 0.000000 
#    y 0.000000 1.766450 0.000000 
#    z 0.000000 0.000000 1.779680 
# 
# From -- ./inp_files/55623.got.cif
#   From: 2010.05.17/outbox.cif.g08.bks.cpg/sg71_28_cif.got.tgz:55623.got - 2010.06.03 16:22:01.
