data_PCOD9522346
_publ_section_title
;
Structure prediction by ZEFSAII (Michael W. Deem and Ramdas Pophale) SiO2 
 PCOD9522346
Probable space group: I M M M
;
_chemical_formula_sum "Si O2"
_cell_formula_units_Z 64
_cell_length_a 15.235948
_cell_length_b 8.068078
_cell_length_c 26.462227
_cell_angle_alpha 90.000000
_cell_angle_beta 90.000000
_cell_angle_gamma 90.000000
_cell_volume 3252.864408
_symmetry_space_group_name_H-M "I M M M"
_symmetry_group_IT_number 71
_symmetry_cell_setting 'orthorhombic'
loop_
_space_group_symop_operation_xyz
x,y,z
-x,-y,z
x,-y,-z
-x,y,-z
-x,-y,-z
x,y,-z
-x,y,z
x,-y,z
1/2+x,1/2+y,1/2+z
1/2-x,1/2-y,1/2+z
1/2+x,1/2-y,1/2-z
1/2-x,1/2+y,1/2-z
1/2-x,1/2-y,1/2-z
1/2+x,1/2+y,1/2-z
1/2-x,1/2+y,1/2+z
1/2+x,1/2-y,1/2+z
loop_
_atom_site_type_symbol
_atom_site_label
_atom_site_fract_x
_atom_site_fract_y
_atom_site_fract_z
Si Si1 0.500000 0.192540 0.778405
Si Si2 0.500000 0.309022 0.333762
Si Si3 0.397335 0.796806 0.500000
Si Si4 0.000000 0.201410 0.556970
Si Si5 0.639812 0.298936 0.860119
Si Si6 0.329138 0.197561 0.607957
O O1 0.500000 0.291711 0.726450
O O2 0.584940 0.232703 0.812673
O O3 0.500000 0.000000 0.765155
O O4 0.500000 0.500000 0.348648
O O5 0.586789 0.229021 0.357419
O O6 0.500000 0.748242 0.500000
O O7 0.350525 0.739781 0.448548
O O8 0.396545 0.000000 0.500000
O O9 0.084611 0.248556 0.589905
O O10 0.000000 0.264579 0.500000
O O11 0.000000 0.000000 0.554765
O O12 0.638196 0.500000 0.856295
O O13 0.739229 0.239270 0.867108
O O14 0.317357 0.000000 0.602914
#
# Coordination Sequence:
#
# PCOD9522346 Si02
#       6
#     8   8   8   8  16  16
#     4  11  23  41  63  81 109 149 191 238 291 342
#     4  12  25  40  59  82 112 148 193 241 289 341
#     4   9  16  30  56  87 120 151 187 234 274 324
#     4   8  14  26  48  83 118 145 180 226 273 321
#     4   9  19  35  57  86 118 148 186 235 282 332
#     4  10  20  36  59  88 119 152 191 232 280 334
#
# _framework density 19.674966999999999
#
# number of rings (size 3 to 8) (size 9 to 14) (size 15 to 20)
#    0.000    2.250    1.250    3.000    1.750    2.000 
#    0.000    1.250    0.000    6.000    0.000    0.000 
#    0.000    0.000    0.000    0.000    0.000    0.000 
#
# Total GULP energy -178617.883085 kJ/mol
# GULP energy per Si atom -5581.808846 kJ/mol
# Density = 1.963019 g / cm^3
# Si number density = 19.674967 Si / 1000 Ang^3
#
#
#
# Elastic Constant Matrix: (Units=GPa)
#
#
# Indices 1 2 3 4 5 6 
#
# 1 164.4964 -6.1591 48.3637 0.0000 0.0000 0.0000
# 2 -6.1591 15.7871 -17.8716 0.0000 0.0000 0.0000
# 3 48.3637 -17.8716 114.0195 0.0000 0.0000 0.0000
# 4 0.0000 0.0000 0.0000 16.5801 0.0000 0.0000
# 5 0.0000 0.0000 0.0000 0.0000 41.0577 0.0000
# 6 0.0000 0.0000 0.0000 0.0000 0.0000 10.9864
#
#
#
# Elastic Compliance Matrix: (Units=1/GPa)
#
#
# Indices 1 2 3 4 5 6 
#
# 1 0.006953 -0.000761 -0.003068 0.000000 0.000000 0.000000
# 2 -0.000761 0.077090 0.012406 0.000000 0.000000 0.000000
# 3 -0.003068 0.012406 0.012017 0.000000 0.000000 0.000000
# 4 0.000000 0.000000 0.000000 0.060313 0.000000 0.000000
# 5 0.000000 0.000000 0.000000 0.000000 0.024356 0.000000
# 6 0.000000 0.000000 0.000000 0.000000 0.000000 0.091022
#
#
# Mechanical properties :
#
#
# Convention : Reuss Voigt Hill
#
# Bulk Modulus (GPa) = 8.83299 38.10769 23.47034
# Shear Modulus (GPa) = 17.10369 31.72284 24.41326
#
# Velocity S-wave (km/s) = 2.95161 4.01976 3.52636
# Velocity P-wave (km/s) = 4.01437 6.39963 5.34184
#
# Compressibility (1/GPa) = 0.11321199
#
# Stress axis : x y z
#
# Youngs Moduli (GPa) = 143.82632 12.97188 83.21875
#
# Poissons Ratio (x) = 0.00987 0.25536
# Poissons Ratio (y) = 0.10947 -1.03241
# Poissons Ratio (z) = 0.44133 -0.16093
#
# Static dielectric constant tensor:
#      x y z
#    x 1.563590 0.000000 0.000000 
#    y 0.000000 1.704930 0.000000 
#    z 0.000000 0.000000 1.661850 
# 
# From -- ./inp_files/57196.got.cif
#   From: 2010.05.17/outbox.cif.g08.bks.cpg/sg71_29_cif.got.tgz:57196.got - 2010.06.03 16:22:01.
