data_PCOD9522694
_publ_section_title
;
Structure prediction by ZEFSAII (Michael W. Deem and Ramdas Pophale) SiO2 
 PCOD9522694
Probable space group: I M M M
;
_chemical_formula_sum "Si O2"
_cell_formula_units_Z 96
_cell_length_a 16.595900
_cell_length_b 25.963496
_cell_length_c 12.047913
_cell_angle_alpha 90.000000
_cell_angle_beta 90.000000
_cell_angle_gamma 90.000000
_cell_volume 5191.296116
_symmetry_space_group_name_H-M "I M M M"
_symmetry_group_IT_number 71
_symmetry_cell_setting 'orthorhombic'
loop_
_space_group_symop_operation_xyz
x,y,z
-x,-y,z
x,-y,-z
-x,y,-z
-x,-y,-z
x,y,-z
-x,y,z
x,-y,z
1/2+x,1/2+y,1/2+z
1/2-x,1/2-y,1/2+z
1/2+x,1/2-y,1/2-z
1/2-x,1/2+y,1/2-z
1/2-x,1/2-y,1/2-z
1/2+x,1/2+y,1/2-z
1/2-x,1/2+y,1/2+z
1/2+x,1/2-y,1/2+z
loop_
_atom_site_type_symbol
_atom_site_label
_atom_site_fract_x
_atom_site_fract_y
_atom_site_fract_z
Si Si1 0.164376 0.372505 0.289077
Si Si2 0.909859 0.911689 0.867544
Si Si3 0.591376 0.562946 0.000000
Si Si4 0.680633 0.309664 0.632345
Si Si5 0.092440 0.292645 0.130520
Si Si6 0.208227 0.942612 0.691655
Si Si7 0.097545 0.438007 0.500000
O O1 0.234421 0.332904 0.328963
O O2 0.102712 0.339804 0.215325
O O3 0.212224 0.410204 0.206675
O O4 0.130595 0.406628 0.391737
O O5 0.887346 0.852491 0.840915
O O6 0.839803 0.942878 0.807760
O O7 0.000000 0.925437 0.829797
O O8 0.906522 0.918278 0.000000
O O9 0.643001 0.579371 0.105998
O O10 0.587453 0.500000 0.000000
O O11 0.500000 0.581746 0.000000
O O12 0.684347 0.307209 0.500000
O O13 0.651602 0.253478 0.668292
O O14 0.000000 0.274148 0.133289
O O15 0.109778 0.305653 0.000000
O O16 0.228283 0.000000 0.656044
O O17 0.119703 0.500000 0.500000
O O18 0.000000 0.435828 0.500000
#
# Coordination Sequence:
#
# PCOD9522694 Si02
#       7
#    16  16   8  16  16  16   8
#     4  11  21  37  59  85 114 148 193 244 286 345
#     4   9  17  29  48  76 111 145 179 221 273 333
#     4   9  18  34  52  71 101 142 184 221 269 334
#     4   9  17  33  55  84 112 147 183 225 283 343
#     4  10  21  36  58  85 114 147 185 232 289 357
#     4  10  21  33  51  75 103 143 189 235 281 329
#     4  11  24  42  64  87 117 160 202 245 300 350
#
# _framework density 18.492491000000001
#
# number of rings (size 3 to 8) (size 9 to 14) (size 15 to 20)
#    0.000    2.167    0.833    2.500    2.333    3.333 
#    0.000    0.833    0.000    0.000    0.000    7.000 
#    0.000    0.000    0.000    0.000    0.000    0.000 
#
# Total GULP energy -267408.041242 kJ/mol
# GULP energy per Si atom -5571.000859 kJ/mol
# Density = 1.845040 g / cm^3
# Si number density = 18.492491 Si / 1000 Ang^3
#
#
#
# Elastic Constant Matrix: (Units=GPa)
#
#
# Indices 1 2 3 4 5 6 
#
# 1 76.7432 32.0601 20.3252 -0.0001 0.0000 0.0000
# 2 32.0601 89.1211 41.1242 -0.0006 0.0000 0.0000
# 3 20.3252 41.1242 55.0486 0.0001 -0.0001 0.0000
# 4 -0.0001 -0.0006 0.0001 318.7494 0.0005 0.0006
# 5 0.0000 0.0000 -0.0001 0.0005 25.4547 0.0000
# 6 0.0000 0.0000 0.0000 0.0006 0.0000 12.0211
#
#
#
# Elastic Compliance Matrix: (Units=1/GPa)
#
#
# Indices 1 2 3 4 5 6 
#
# 1 0.015537 -0.004490 -0.002382 0.000000 0.000000 0.000000
# 2 -0.004490 0.018421 -0.012104 0.000000 0.000000 0.000000
# 3 -0.002382 -0.012104 0.028088 0.000000 0.000000 0.000000
# 4 0.000000 0.000000 0.000000 0.003137 0.000000 0.000000
# 5 0.000000 0.000000 0.000000 0.000000 0.039285 0.000000
# 6 0.000000 0.000000 0.000000 0.000000 0.000000 0.083187
#
#
# Mechanical properties :
#
#
# Convention : Reuss Voigt Hill
#
# Bulk Modulus (GPa) = 41.50487 45.32577 43.41532
# Shear Modulus (GPa) = 21.40055 79.73859 50.56957
#
# Velocity S-wave (km/s) = 3.40554 6.57366 5.23501
# Velocity P-wave (km/s) = 6.16088 9.06537 7.75040
#
# Compressibility (1/GPa) = 0.02409356
#
# Stress axis : x y z
#
# Youngs Moduli (GPa) = 64.36187 54.28577 35.60296
#
# Poissons Ratio (x) = 0.24374 0.08482
# Poissons Ratio (y) = 0.28898 0.43093
# Poissons Ratio (z) = 0.15334 0.65706
#
# Static dielectric constant tensor:
#      x y z
#    x 1.625540 0.000000 0.000000 
#    y 0.000000 1.679150 0.000000 
#    z 0.000000 0.000000 1.658630 
# 
# From -- ./inp_files/22587.got.cif
#   From: 2010.05.17/outbox.cif.g08.bks.cpg/sg71_12_cif.got.tgz:22587.got - 2010.06.03 16:22:01.
