data_PCOD9522137
_publ_section_title
;
Structure prediction by ZEFSAII (Michael W. Deem and Ramdas Pophale) SiO2 
 PCOD9522137
Probable space group: I M M M
;
_chemical_formula_sum "Si O2"
_cell_formula_units_Z 80
_cell_length_a 11.468086
_cell_length_b 21.569745
_cell_length_c 15.842361
_cell_angle_alpha 90.000000
_cell_angle_beta 90.000000
_cell_angle_gamma 90.000000
_cell_volume 3918.824886
_symmetry_space_group_name_H-M "I M M M"
_symmetry_group_IT_number 71
_symmetry_cell_setting 'orthorhombic'
loop_
_space_group_symop_operation_xyz
x,y,z
-x,-y,z
x,-y,-z
-x,y,-z
-x,-y,-z
x,y,-z
-x,y,z
x,-y,z
1/2+x,1/2+y,1/2+z
1/2-x,1/2-y,1/2+z
1/2+x,1/2-y,1/2-z
1/2-x,1/2+y,1/2-z
1/2-x,1/2-y,1/2-z
1/2+x,1/2+y,1/2-z
1/2-x,1/2+y,1/2+z
1/2+x,1/2-y,1/2+z
loop_
_atom_site_type_symbol
_atom_site_label
_atom_site_fract_x
_atom_site_fract_y
_atom_site_fract_z
Si Si1 0.870453 0.709192 0.000000
Si Si2 0.295646 0.262625 0.155546
Si Si3 0.307223 0.067798 0.500000
Si Si4 0.369023 0.570999 0.658926
Si Si5 0.127674 0.903031 0.644598
Si Si6 0.873705 0.632168 0.600680
O O1 0.804231 0.731211 0.915883
O O2 0.872649 0.633809 0.000000
O O3 0.000000 0.734070 0.000000
O O4 0.250000 0.250000 0.250000
O O5 0.359524 0.328582 0.151629
O O6 0.370276 0.203501 0.129172
O O7 0.225689 0.072147 0.417411
O O8 0.365609 0.000000 0.500000
O O9 0.500000 0.596276 0.636183
O O10 0.365464 0.500000 0.628941
O O11 0.363690 0.572198 0.760600
O O12 0.250128 0.603970 0.629908
O O13 0.000000 0.918452 0.610677
O O14 0.873600 0.628414 0.500000
O O15 0.000000 0.605142 0.630510
#
# Coordination Sequence:
#
# PCOD9522137 Si02
#       6
#     8  16   8  16  16  16
#     4  10  24  40  61  94 127 162 211 261 309 376
#     4  11  21  40  63  90 124 162 203 253 316 381
#     4  10  21  37  56  83 123 165 207 249 301 358
#     4  10  22  41  63  90 123 159 206 260 311 366
#     4  10  20  35  59  88 119 158 204 253 305 364
#     4  11  24  42  64  92 125 161 202 252 311 375
#
# _framework density 20.414283000000001
#
# number of rings (size 3 to 8) (size 9 to 14) (size 15 to 20)
#    0.000    1.600    3.000    1.500    0.000    5.400 
#    0.000    2.000    0.000    2.400    0.000    0.000 
#    0.000    0.000    0.000    0.000    0.000    0.000 
#
# Total GULP energy -223117.618855 kJ/mol
# GULP energy per Si atom -5577.940471 kJ/mol
# Density = 2.036782 g / cm^3
# Si number density = 20.414283 Si / 1000 Ang^3
#
#
#
# Elastic Constant Matrix: (Units=GPa)
#
#
# Indices 1 2 3 4 5 6 
#
# 1 172.4132 45.1286 54.3797 0.0000 0.0000 0.0000
# 2 45.1286 85.0260 9.0638 0.0000 0.0000 0.0000
# 3 54.3797 9.0638 92.1689 0.0000 0.0000 0.0000
# 4 0.0000 0.0000 0.0000 -17.2172 0.0000 0.0000
# 5 0.0000 0.0000 0.0000 0.0000 12.4434 0.0000
# 6 0.0000 0.0000 0.0000 0.0000 0.0000 -2.7138
#
#
#
# Elastic Compliance Matrix: (Units=1/GPa)
#
#
# Indices 1 2 3 4 5 6 
#
# 1 0.008229 -0.003891 -0.004473 0.000000 0.000000 0.000000
# 2 -0.003891 0.013725 0.000946 0.000000 0.000000 0.000000
# 3 -0.004473 0.000946 0.013395 0.000000 0.000000 0.000000
# 4 0.000000 0.000000 0.000000 -0.058082 0.000000 0.000000
# 5 0.000000 0.000000 0.000000 0.000000 0.080364 0.000000
# 6 0.000000 0.000000 0.000000 0.000000 0.000000 -0.368487
#
#
# Mechanical properties :
#
#
# Convention : Reuss Voigt Hill
#
# Bulk Modulus (GPa) = 48.74525 62.97247 55.85886
# Shear Modulus (GPa) = -17.29017 14.57156 -1.35931
#
# Velocity S-wave (km/s) = -2.91342 2.67459 -0.81689
# Velocity P-wave (km/s) = 3.55140 6.36020 5.15095
#
# Compressibility (1/GPa) = 0.02051482
#
# Stress axis : x y z
#
# Youngs Moduli (GPa) = 121.51983 72.85746 74.65236
#
# Poissons Ratio (x) = 0.28348 0.33389
# Poissons Ratio (y) = 0.47282 -0.07061
# Poissons Ratio (z) = 0.54350 -0.06892
#
# Static dielectric constant tensor:
#      x y z
#    x 1.744760 0.000000 0.000000 
#    y 0.000000 1.695430 0.000000 
#    z 0.000000 0.000000 1.704140 
# 
# From -- ./inp_files/27122.got.cif
#   From: 2010.05.17/outbox.cif.g08.bks.cpg/sg71_14_cif.got.tgz:27122.got - 2010.06.03 16:22:01.
