data_PCOD9522645
_publ_section_title
;
Structure prediction by ZEFSAII (Michael W. Deem and Ramdas Pophale) SiO2 
 PCOD9522645
Probable space group: I M M M
;
_chemical_formula_sum "Si O2"
_cell_formula_units_Z 90
_cell_length_a 13.930387
_cell_length_b 20.690128
_cell_length_c 16.681716
_cell_angle_alpha 90.000000
_cell_angle_beta 90.000000
_cell_angle_gamma 90.000000
_cell_volume 4808.029043
_symmetry_space_group_name_H-M "I M M M"
_symmetry_group_IT_number 71
_symmetry_cell_setting 'orthorhombic'
loop_
_space_group_symop_operation_xyz
x,y,z
-x,-y,z
x,-y,-z
-x,y,-z
-x,-y,-z
x,y,-z
-x,y,z
x,-y,z
1/2+x,1/2+y,1/2+z
1/2-x,1/2-y,1/2+z
1/2+x,1/2-y,1/2-z
1/2-x,1/2+y,1/2-z
1/2-x,1/2-y,1/2-z
1/2+x,1/2+y,1/2-z
1/2-x,1/2+y,1/2+z
1/2+x,1/2-y,1/2+z
loop_
_atom_site_type_symbol
_atom_site_label
_atom_site_fract_x
_atom_site_fract_y
_atom_site_fract_z
Si Si1 0.500000 0.500000 0.000000
Si Si2 0.385301 0.500000 0.295804
Si Si3 0.798550 0.624071 0.139514
Si Si4 0.390091 0.925427 0.096432
Si Si5 0.285159 0.631435 0.682813
Si Si6 0.113215 0.755475 0.908744
Si Si7 0.500000 0.076518 0.594001
Si Si8 0.183275 0.000000 0.612871
O O1 0.583964 0.500000 0.068044
O O2 0.500000 0.500000 0.293224
O O3 0.345967 0.433820 0.333307
O O4 0.339649 0.500000 0.207156
O O5 0.746013 0.635616 0.224168
O O6 0.818821 0.692541 0.097831
O O7 0.741080 0.566197 0.095963
O O8 0.906383 0.596617 0.143193
O O9 0.500000 0.910599 0.118889
O O10 0.313547 0.877751 0.134399
O O11 0.370205 0.000000 0.121843
O O12 0.384018 0.923753 0.000000
O O13 0.346553 0.691764 0.652618
O O14 0.000000 0.740020 0.892996
O O15 0.118393 0.780332 0.000000
O O16 0.500000 0.102170 0.500000
O O17 0.500000 0.000000 0.586518
#
# Coordination Sequence:
#
# PCOD9522645 Si02
#       8
#     2   8  16  16  16  16   8   8
#     4  12  24  40  68  90 132 172 210 238 300 386
#     4  10  20  40  57  86 121 152 199 258 304 360
#     4  11  23  40  63  95 126 160 202 257 315 372
#     4   9  18  33  55  83 116 154 195 245 300 355
#     4  11  22  38  61  88 120 165 204 252 314 370
#     4  11  24  42  63  88 121 164 211 262 318 373
#     4  11  22  36  62  99 133 159 198 264 312 373
#     4  10  24  39  65  93 123 161 202 243 303 372
#
# _framework density 18.718689000000001
#
# number of rings (size 3 to 8) (size 9 to 14) (size 15 to 20)
#    0.000    1.511    3.111    2.667    3.733    0.000 
#    0.000    0.000    1.956    2.133    0.000    0.000 
#    0.000    0.000    0.000    0.000    0.000    0.000 
#
# Total GULP energy -250757.853838 kJ/mol
# GULP energy per Si atom -5572.396752 kJ/mol
# Density = 1.867608 g / cm^3
# Si number density = 18.718689 Si / 1000 Ang^3
#
#
#
# Elastic Constant Matrix: (Units=GPa)
#
#
# Indices 1 2 3 4 5 6 
#
# 1 110.9723 45.2088 27.6967 0.0000 0.0001 0.0000
# 2 45.2088 102.7560 34.5001 0.0001 0.0000 0.0000
# 3 27.6967 34.5001 59.0329 0.0002 -0.0001 0.0000
# 4 0.0000 0.0001 0.0002 21.0287 -0.0001 0.0000
# 5 0.0001 0.0000 -0.0001 -0.0001 69.9074 0.0000
# 6 0.0000 0.0000 0.0000 0.0000 0.0000 19.5923
#
#
#
# Elastic Compliance Matrix: (Units=1/GPa)
#
#
# Indices 1 2 3 4 5 6 
#
# 1 0.011392 -0.004003 -0.003005 0.000000 0.000000 0.000000
# 2 -0.004003 0.013514 -0.006020 0.000000 0.000000 0.000000
# 3 -0.003005 -0.006020 0.021868 0.000000 0.000000 0.000000
# 4 0.000000 0.000000 0.000000 0.047554 0.000000 0.000000
# 5 0.000000 0.000000 0.000000 0.000000 0.014305 0.000000
# 6 0.000000 0.000000 0.000000 0.000000 0.000000 0.051041
#
#
# Mechanical properties :
#
#
# Convention : Reuss Voigt Hill
#
# Bulk Modulus (GPa) = 48.26822 54.17471 51.22146
# Shear Modulus (GPa) = 25.95572 33.12940 29.54256
#
# Velocity S-wave (km/s) = 3.72778 4.21153 3.97702
# Velocity P-wave (km/s) = 6.66112 7.25628 6.96506
#
# Compressibility (1/GPa) = 0.02071757
#
# Stress axis : x y z
#
# Youngs Moduli (GPa) = 87.77976 73.99663 45.72913
#
# Poissons Ratio (x) = 0.29621 0.13744
# Poissons Ratio (y) = 0.35139 0.27528
# Poissons Ratio (z) = 0.26382 0.44545
#
# Static dielectric constant tensor:
#      x y z
#    x 1.613080 0.000000 0.000000 
#    y 0.000000 1.668440 0.000000 
#    z 0.000000 0.000000 1.634830 
# 
# From -- ./inp_files/43419.got.cif
#   From: 2010.05.17/outbox.cif.g08.bks.cpg/sg71_22_cif.got.tgz:43419.got - 2010.06.03 16:22:01.
