data_PCOD9522685
_publ_section_title
;
Structure prediction by ZEFSAII (Michael W. Deem and Ramdas Pophale) SiO2 
 PCOD9522685
Probable space group: I M M M
;
_chemical_formula_sum "Si O2"
_cell_formula_units_Z 104
_cell_length_a 36.277155
_cell_length_b 13.301748
_cell_length_c 13.447538
_cell_angle_alpha 90.000000
_cell_angle_beta 90.000000
_cell_angle_gamma 90.000000
_cell_volume 6489.103733
_symmetry_space_group_name_H-M "I M M M"
_symmetry_group_IT_number 71
_symmetry_cell_setting 'orthorhombic'
loop_
_space_group_symop_operation_xyz
x,y,z
-x,-y,z
x,-y,-z
-x,y,-z
-x,-y,-z
x,y,-z
-x,y,z
x,-y,z
1/2+x,1/2+y,1/2+z
1/2-x,1/2-y,1/2+z
1/2+x,1/2-y,1/2-z
1/2-x,1/2+y,1/2-z
1/2-x,1/2-y,1/2-z
1/2+x,1/2+y,1/2-z
1/2-x,1/2+y,1/2+z
1/2+x,1/2-y,1/2+z
loop_
_atom_site_type_symbol
_atom_site_label
_atom_site_fract_x
_atom_site_fract_y
_atom_site_fract_z
Si Si1 0.087286 0.198507 0.882744
Si Si2 0.956133 0.616580 0.794785
Si Si3 0.846494 0.745168 0.256003
Si Si4 0.206950 0.379416 0.115333
Si Si5 0.541954 0.500000 0.379451
Si Si6 0.403002 0.881622 0.885477
Si Si7 0.292369 0.379903 0.883671
O O1 0.064312 0.300697 0.861713
O O2 0.124154 0.203494 0.817772
O O3 0.063277 0.101630 0.851438
O O4 0.095214 0.191013 0.000000
O O5 0.948460 0.500000 0.824388
O O6 0.938849 0.630327 0.684697
O O7 0.000000 0.630991 0.796259
O O8 0.820901 0.673367 0.189547
O O9 0.870531 0.681493 0.334622
O O10 0.820499 0.822327 0.313759
O O11 0.203693 0.500000 0.122640
O O12 0.249622 0.353122 0.137216
O O13 0.199409 0.352076 0.000000
O O14 0.500000 0.500000 0.342347
O O15 0.540496 0.500000 0.500000
O O16 0.393468 0.000000 0.882930
O O17 0.409211 0.852799 0.000000
O O18 0.295757 0.500000 0.871861
O O19 0.299295 0.356554 0.000000
#
# Coordination Sequence:
#
# PCOD9522685 Si02
#       7
#    16  16  16  16   8  16  16
#     4  10  21  33  48  73 101 129 163 202 248 295
#     4   9  18  32  50  73  98 126 163 203 245 296
#     4  11  19  30  51  73  99 126 163 202 251 290
#     4   9  18  33  51  72  99 131 165 199 242 300
#     4   9  18  34  52  66  89 129 171 201 232 286
#     4   9  18  31  46  69  99 128 159 198 245 294
#     4   9  19  34  51  71  95 127 168 208 246 292
#
# _framework density 16.026865999999998
#
# number of rings (size 3 to 8) (size 9 to 14) (size 15 to 20)
#    0.000    2.538    0.000    3.231    1.077    2.154 
#    0.000    2.308    0.000    0.000    0.000    6.462 
#    0.000    6.462    0.000    0.000    0.000    0.000 
#
# Total GULP energy -289893.154068 kJ/mol
# GULP energy per Si atom -5574.868347 kJ/mol
# Density = 1.599039 g / cm^3
# Si number density = 16.026866 Si / 1000 Ang^3
#
#
#
# Elastic Constant Matrix: (Units=GPa)
#
#
# Indices 1 2 3 4 5 6 
#
# 1 79.4840 35.5051 24.4693 0.0000 0.0000 0.0000
# 2 35.5051 56.2407 22.8926 0.0000 0.0000 0.0000
# 3 24.4693 22.8926 50.4158 0.0000 0.0000 0.0000
# 4 0.0000 0.0000 0.0000 23.6363 0.0000 0.0000
# 5 0.0000 0.0000 0.0000 0.0000 17.0158 0.0000
# 6 0.0000 0.0000 0.0000 0.0000 0.0000 28.9349
#
#
#
# Elastic Compliance Matrix: (Units=1/GPa)
#
#
# Indices 1 2 3 4 5 6 
#
# 1 0.018306 -0.009740 -0.004462 0.000000 0.000000 0.000000
# 2 -0.009740 0.026995 -0.007530 0.000000 0.000000 0.000000
# 3 -0.004462 -0.007530 0.025420 0.000000 0.000000 0.000000
# 4 0.000000 0.000000 0.000000 0.042308 0.000000 0.000000
# 5 0.000000 0.000000 0.000000 0.000000 0.058769 0.000000
# 6 0.000000 0.000000 0.000000 0.000000 0.000000 0.034560
#
#
# Mechanical properties :
#
#
# Convention : Reuss Voigt Hill
#
# Bulk Modulus (GPa) = 36.68956 39.09718 37.89337
# Shear Modulus (GPa) = 19.31188 20.80229 20.05708
#
# Velocity S-wave (km/s) = 3.47503 3.60663 3.54144
# Velocity P-wave (km/s) = 6.24847 6.46463 6.35747
#
# Compressibility (1/GPa) = 0.02725571
#
# Stress axis : x y z
#
# Youngs Moduli (GPa) = 54.62783 37.04376 39.33918
#
# Poissons Ratio (x) = 0.36082 0.17552
# Poissons Ratio (y) = 0.53209 0.29624
# Poissons Ratio (z) = 0.24374 0.27895
#
# Static dielectric constant tensor:
#      x y z
#    x 1.520720 0.000000 0.000000 
#    y 0.000000 1.521600 0.000000 
#    z 0.000000 0.000000 1.520380 
# 
# From -- ./inp_files/30030.got.cif
#   From: 2010.05.17/outbox.cif.g08.bks.cpg/sg71_16_cif.got.tgz:30030.got - 2010.06.03 16:22:01.
