data_PCOD9522582
_publ_section_title
;
Structure prediction by ZEFSAII (Michael W. Deem and Ramdas Pophale) SiO2 
 PCOD9522582
Probable space group: I M M M
;
_chemical_formula_sum "Si O2"
_cell_formula_units_Z 88
_cell_length_a 22.702993
_cell_length_b 8.254288
_cell_length_c 24.344572
_cell_angle_alpha 90.000000
_cell_angle_beta 90.000000
_cell_angle_gamma 90.000000
_cell_volume 4562.100798
_symmetry_space_group_name_H-M "I M M M"
_symmetry_group_IT_number 71
_symmetry_cell_setting 'orthorhombic'
loop_
_space_group_symop_operation_xyz
x,y,z
-x,-y,z
x,-y,-z
-x,y,-z
-x,-y,-z
x,y,-z
-x,y,z
x,-y,z
1/2+x,1/2+y,1/2+z
1/2-x,1/2-y,1/2+z
1/2+x,1/2-y,1/2-z
1/2-x,1/2+y,1/2-z
1/2-x,1/2-y,1/2-z
1/2+x,1/2+y,1/2-z
1/2-x,1/2+y,1/2+z
1/2+x,1/2-y,1/2+z
loop_
_atom_site_type_symbol
_atom_site_label
_atom_site_fract_x
_atom_site_fract_y
_atom_site_fract_z
Si Si1 0.774460 0.688425 0.190661
Si Si2 0.062468 0.303807 0.731970
Si Si3 0.099579 0.305260 0.146863
Si Si4 0.840758 0.690443 0.351357
Si Si5 0.500000 0.693186 0.563228
Si Si6 0.934058 0.192574 0.565283
O O1 0.786931 0.500000 0.200160
O O2 0.750000 0.750000 0.250000
O O3 0.833935 0.755193 0.161529
O O4 0.720377 0.716612 0.149446
O O5 0.063009 0.500000 0.726332
O O6 0.066808 0.268010 0.795973
O O7 0.119032 0.246152 0.699080
O O8 0.000000 0.242511 0.710101
O O9 0.102403 0.500000 0.140292
O O10 0.058865 0.243651 0.097155
O O11 0.828358 0.500000 0.343776
O O12 0.882528 0.717109 0.403225
O O13 0.500000 0.500000 0.561010
O O14 0.500000 0.755359 0.500000
O O15 0.928510 0.211859 0.500000
O O16 0.000000 0.249443 0.580659
O O17 0.930374 0.000000 0.577201
#
# Coordination Sequence:
#
# PCOD9522582 Si02
#       6
#    16  16  16  16   8  16
#     4  11  22  37  57  85 121 159 195 237 290 352
#     4   9  16  29  51  80 113 145 181 231 281 330
#     4  10  20  38  62  85 112 151 197 236 283 353
#     4  11  21  34  54  84 119 155 194 236 286 347
#     4  11  25  43  63  91 123 151 190 251 312 355
#     4   9  19  37  58  80 111 151 194 241 289 338
#
# _framework density 19.289359000000001
#
# number of rings (size 3 to 8) (size 9 to 14) (size 15 to 20)
#    0.000    1.909    2.727    2.455    0.000    3.636 
#    0.000    1.818    0.000    1.091    0.000    0.000 
#    0.000    0.000    0.000    0.000    0.000    0.000 
#
# Total GULP energy -245285.825098 kJ/mol
# GULP energy per Si atom -5574.677843 kJ/mol
# Density = 1.924546 g / cm^3
# Si number density = 19.289359 Si / 1000 Ang^3
#
#
#
# Elastic Constant Matrix: (Units=GPa)
#
#
# Indices 1 2 3 4 5 6 
#
# 1 167.8384 16.2079 50.8751 0.0000 0.0000 0.0000
# 2 16.2079 22.7438 17.8253 0.0000 0.0000 0.0000
# 3 50.8751 17.8253 91.9412 0.0000 0.0000 0.0000
# 4 0.0000 0.0000 0.0000 25.4988 0.0000 0.0000
# 5 0.0000 0.0000 0.0000 0.0000 -22.0590 0.0000
# 6 0.0000 0.0000 0.0000 0.0000 0.0000 22.0237
#
#
#
# Elastic Compliance Matrix: (Units=1/GPa)
#
#
# Indices 1 2 3 4 5 6 
#
# 1 0.007267 -0.002391 -0.003558 0.000000 0.000000 0.000000
# 2 -0.002391 0.052632 -0.008881 0.000000 0.000000 0.000000
# 3 -0.003558 -0.008881 0.014567 0.000000 0.000000 0.000000
# 4 0.000000 0.000000 0.000000 0.039217 0.000000 0.000000
# 5 0.000000 0.000000 0.000000 0.000000 -0.045333 0.000000
# 6 0.000000 0.000000 0.000000 0.000000 0.000000 0.045406
#
#
# Mechanical properties :
#
#
# Convention : Reuss Voigt Hill
#
# Bulk Modulus (GPa) = 22.31783 50.26001 36.28892
# Shear Modulus (GPa) = 31.57510 18.26704 24.92107
#
# Velocity S-wave (km/s) = 4.05027 3.08068 3.59828
# Velocity P-wave (km/s) = 5.78516 6.22627 6.00977
#
# Compressibility (1/GPa) = 0.04480723
#
# Stress axis : x y z
#
# Youngs Moduli (GPa) = 137.60007 18.99972 68.64748
#
# Poissons Ratio (x) = 0.04542 0.24424
# Poissons Ratio (y) = 0.32893 0.60969
# Poissons Ratio (z) = 0.48957 0.16874
#
# Static dielectric constant tensor:
#      x y z
#    x 1.717040 0.000000 0.000000 
#    y 0.000000 1.697910 0.000000 
#    z 0.000000 0.000000 1.680160 
# 
# From -- ./inp_files/61112.got.cif
#   From: 2010.05.17/outbox.cif.g08.bks.cpg/sg71_31_cif.got.tgz:61112.got - 2010.06.03 16:22:01.
