data_PCOD9522737
_publ_section_title
;
Structure prediction by ZEFSAII (Michael W. Deem and Ramdas Pophale) SiO2 
 PCOD9522737
Probable space group: I M M M
;
_chemical_formula_sum "Si O2"
_cell_formula_units_Z 112
_cell_length_a 18.148335
_cell_length_b 14.261078
_cell_length_c 23.931930
_cell_angle_alpha 90.000000
_cell_angle_beta 90.000000
_cell_angle_gamma 90.000000
_cell_volume 6193.938179
_symmetry_space_group_name_H-M "I M M M"
_symmetry_group_IT_number 71
_symmetry_cell_setting 'orthorhombic'
loop_
_space_group_symop_operation_xyz
x,y,z
-x,-y,z
x,-y,-z
-x,y,-z
-x,-y,-z
x,y,-z
-x,y,z
x,-y,z
1/2+x,1/2+y,1/2+z
1/2-x,1/2-y,1/2+z
1/2+x,1/2-y,1/2-z
1/2-x,1/2+y,1/2-z
1/2-x,1/2-y,1/2-z
1/2+x,1/2+y,1/2-z
1/2-x,1/2+y,1/2+z
1/2+x,1/2-y,1/2+z
loop_
_atom_site_type_symbol
_atom_site_label
_atom_site_fract_x
_atom_site_fract_y
_atom_site_fract_z
Si Si1 0.291585 0.109853 0.145450
Si Si2 0.913355 0.612316 0.733588
Si Si3 0.081559 0.886175 0.326224
Si Si4 0.857043 0.108016 0.786691
Si Si5 0.649789 0.387427 0.939389
Si Si6 0.714419 0.242195 0.565071
Si Si7 0.915344 0.278434 0.847183
O O1 0.363875 0.140450 0.180189
O O2 0.225155 0.114475 0.190307
O O3 0.261985 0.175206 0.095284
O O4 0.299834 0.000000 0.128559
O O5 0.904148 0.500000 0.739136
O O6 0.892611 0.659284 0.793029
O O7 0.000000 0.632226 0.724505
O O8 0.137329 0.860327 0.277393
O O9 0.103179 0.852298 0.387167
O O10 0.000000 0.855691 0.309595
O O11 0.081194 0.000000 0.329326
O O12 0.908712 0.172920 0.823787
O O13 0.880701 0.000000 0.789797
O O14 0.651111 0.500000 0.937962
O O15 0.731531 0.347027 0.934126
O O16 0.620042 0.358156 0.000000
O O17 0.698002 0.264652 0.500000
O O18 0.642249 0.218935 0.601816
O O19 0.000000 0.301340 0.861883
#
# Coordination Sequence:
#
# PCOD9522737 Si02
#       7
#    16  16  16  16  16  16  16
#     4   9  19  35  56  78 102 136 173 216 267 311
#     4   9  19  35  54  80 111 140 174 219 268 315
#     4   9  17  28  45  70  99 131 163 199 244 297
#     4   9  18  31  49  77 107 132 163 203 253 316
#     4   9  19  34  49  68  97 135 174 209 249 298
#     4  10  22  37  54  76 103 136 179 222 256 305
#     4  10  21  34  53  78 104 138 172 211 264 314
#
# _framework density 18.082194999999999
#
# number of rings (size 3 to 8) (size 9 to 14) (size 15 to 20)
#    0.000    2.714    0.000    0.429    4.000    3.429 
#    0.000    1.429    0.000    1.286    0.000   10.000 
#    0.000    0.000    0.000    0.000    0.000    0.000 
#
# Total GULP energy -312032.091012 kJ/mol
# GULP energy per Si atom -5572.001625 kJ/mol
# Density = 1.804104 g / cm^3
# Si number density = 18.082195 Si / 1000 Ang^3
#
#
#
# Elastic Constant Matrix: (Units=GPa)
#
#
# Indices 1 2 3 4 5 6 
#
# 1 42.1582 -0.3703 28.7275 0.0000 0.0000 0.0000
# 2 -0.3703 29.7267 6.7496 0.0000 0.0000 0.0000
# 3 28.7275 6.7496 102.7737 0.0000 0.0000 0.0000
# 4 0.0000 0.0000 0.0000 22.5519 0.0000 0.0000
# 5 0.0000 0.0000 0.0000 0.0000 18.3242 0.0000
# 6 0.0000 0.0000 0.0000 0.0000 0.0000 14.9959
#
#
#
# Elastic Compliance Matrix: (Units=1/GPa)
#
#
# Indices 1 2 3 4 5 6 
#
# 1 0.029451 0.002270 -0.008381 0.000000 0.000000 0.000000
# 2 0.002270 0.034324 -0.002889 0.000000 0.000000 0.000000
# 3 -0.008381 -0.002889 0.012263 0.000000 0.000000 0.000000
# 4 0.000000 0.000000 0.000000 0.044342 0.000000 0.000000
# 5 0.000000 0.000000 0.000000 0.000000 0.054573 0.000000
# 6 0.000000 0.000000 0.000000 0.000000 0.000000 0.066685
#
#
# Mechanical properties :
#
#
# Convention : Reuss Voigt Hill
#
# Bulk Modulus (GPa) = 17.23020 27.20803 22.21911
# Shear Modulus (GPa) = 17.92220 20.47786 19.20003
#
# Velocity S-wave (km/s) = 3.15167 3.36890 3.26209
# Velocity P-wave (km/s) = 4.77426 5.49656 5.14809
#
# Compressibility (1/GPa) = 0.05803764
#
# Stress axis : x y z
#
# Youngs Moduli (GPa) = 33.95428 29.13416 81.54871
#
# Poissons Ratio (x) = -0.06613 0.68349
# Poissons Ratio (y) = -0.07707 0.23557
# Poissons Ratio (z) = 0.28458 0.08416
#
# Static dielectric constant tensor:
#      x y z
#    x 1.621670 0.000000 0.000000 
#    y 0.000000 1.653480 0.000000 
#    z 0.000000 0.000000 1.623040 
# 
# From -- ./inp_files/39250.got.cif
#   From: 2010.05.17/outbox.cif.g08.bks.cpg/sg71_20_cif.got.tgz:39250.got - 2010.06.03 16:22:01.
