data_PCOD9522563
_publ_section_title
;
Structure prediction by ZEFSAII (Michael W. Deem and Ramdas Pophale) SiO2 
 PCOD9522563
Probable space group: I M M M
;
_chemical_formula_sum "Si O2"
_cell_formula_units_Z 58
_cell_length_a 14.942814
_cell_length_b 7.837605
_cell_length_c 26.613865
_cell_angle_alpha 90.000000
_cell_angle_beta 90.000000
_cell_angle_gamma 90.000000
_cell_volume 3116.906053
_symmetry_space_group_name_H-M "I M M M"
_symmetry_group_IT_number 71
_symmetry_cell_setting 'orthorhombic'
loop_
_space_group_symop_operation_xyz
x,y,z
-x,-y,z
x,-y,-z
-x,y,-z
-x,-y,-z
x,y,-z
-x,y,z
x,-y,z
1/2+x,1/2+y,1/2+z
1/2-x,1/2-y,1/2+z
1/2+x,1/2-y,1/2-z
1/2-x,1/2+y,1/2-z
1/2-x,1/2-y,1/2-z
1/2+x,1/2+y,1/2-z
1/2-x,1/2+y,1/2+z
1/2+x,1/2-y,1/2+z
loop_
_atom_site_type_symbol
_atom_site_label
_atom_site_fract_x
_atom_site_fract_y
_atom_site_fract_z
Si Si1 0.000000 0.797787 0.734734
Si Si2 0.194529 0.701963 0.700183
Si Si3 0.000000 0.208215 0.849416
Si Si4 0.150002 0.693756 0.000000
Si Si5 0.191575 0.207824 0.893944
Si Si6 0.000000 0.000000 0.000000
O O1 0.908599 0.749232 0.707395
O O2 0.000000 0.728801 0.792005
O O3 0.000000 0.000000 0.739983
O O4 0.200262 0.500000 0.696559
O O5 0.250000 0.750000 0.750000
O O6 0.241971 0.769448 0.649848
O O7 0.909323 0.258121 0.877341
O O8 0.000000 0.000000 0.849230
O O9 0.206323 0.719736 0.050899
O O10 0.113343 0.500000 0.000000
O O11 0.077466 0.847511 0.000000
O O12 0.193994 0.000000 0.896056
#
# Coordination Sequence:
#
# PCOD9522563 Si02
#       6
#     8  16   8   8  16   2
#     4  11  21  38  57  84 122 157 201 252 299 354
#     4  11  22  37  60  88 121 160 202 250 310 367
#     4   9  17  31  55  81 114 162 197 230 299 361
#     4  12  25  39  61  89 120 170 212 250 308 373
#     4  10  20  38  61  81 121 165 201 254 306 358
#     4  12  22  44  60  86 140 154 206 260 312 360
#
# _framework density 18.608197000000001
#
# number of rings (size 3 to 8) (size 9 to 14) (size 15 to 20)
#    0.000    1.379    4.138    2.276    1.931    2.207 
#    0.000    0.000    0.000    0.828    0.000    5.793 
#    0.000    0.000    0.000    0.000    0.000    0.000 
#
# Total GULP energy -161683.867928 kJ/mol
# GULP energy per Si atom -5575.305791 kJ/mol
# Density = 1.856584 g / cm^3
# Si number density = 18.608197 Si / 1000 Ang^3
#
#
#
# Elastic Constant Matrix: (Units=GPa)
#
#
# Indices 1 2 3 4 5 6 
#
# 1 128.8832 13.6644 85.5842 0.0000 0.0000 0.0000
# 2 13.6644 75.2440 22.2747 0.0000 0.0000 0.0000
# 3 85.5842 22.2747 187.6986 0.0000 0.0000 0.0000
# 4 0.0000 0.0000 0.0000 20.2725 0.0000 0.0000
# 5 0.0000 0.0000 0.0000 0.0000 -5.9050 0.0000
# 6 0.0000 0.0000 0.0000 0.0000 0.0000 23.6649
#
#
#
# Elastic Compliance Matrix: (Units=1/GPa)
#
#
# Indices 1 2 3 4 5 6 
#
# 1 0.011149 -0.000539 -0.005020 0.000000 0.000000 0.000000
# 2 -0.000539 0.013800 -0.001392 0.000000 0.000000 0.000000
# 3 -0.005020 -0.001392 0.007782 0.000000 0.000000 0.000000
# 4 0.000000 0.000000 0.000000 0.049328 0.000000 0.000000
# 5 0.000000 0.000000 0.000000 0.000000 -0.169349 0.000000
# 6 0.000000 0.000000 0.000000 0.000000 0.000000 0.042257
#
#
# Mechanical properties :
#
#
# Convention : Reuss Voigt Hill
#
# Bulk Modulus (GPa) = 53.10664 70.54139 61.82401
# Shear Modulus (GPa) = -201.16503 25.62666 -87.76919
#
# Velocity S-wave (km/s) = -10.40866 3.71505 -6.87527
# Velocity P-wave (km/s) = 10.76347 7.50954 5.45248
#
# Compressibility (1/GPa) = 0.01883004
#
# Stress axis : x y z
#
# Youngs Moduli (GPa) = 89.69022 72.46362 128.50541
#
# Poissons Ratio (x) = 0.03904 0.64508
# Poissons Ratio (y) = 0.04832 0.17889
# Poissons Ratio (z) = 0.45023 0.10087
#
# Static dielectric constant tensor:
#      x y z
#    x 1.608100 0.000000 0.000000 
#    y 0.000000 1.685330 0.000000 
#    z 0.000000 0.000000 1.692550 
# 
# From -- ./inp_files/5396.got.cif
#   From: 2010.05.17/outbox.cif.g08.bks.cpg/sg71_3_cif.got.tgz:5396.got - 2010.06.03 16:22:01.
