data_PCOD9522289
_publ_section_title
;
Structure prediction by ZEFSAII (Michael W. Deem and Ramdas Pophale) SiO2 
 PCOD9522289
Probable space group: I M M M
;
_chemical_formula_sum "Si O2"
_cell_formula_units_Z 96
_cell_length_a 15.327134
_cell_length_b 19.387113
_cell_length_c 17.118734
_cell_angle_alpha 90.000000
_cell_angle_beta 90.000000
_cell_angle_gamma 90.000000
_cell_volume 5086.812615
_symmetry_space_group_name_H-M "I M M M"
_symmetry_group_IT_number 71
_symmetry_cell_setting 'orthorhombic'
loop_
_space_group_symop_operation_xyz
x,y,z
-x,-y,z
x,-y,-z
-x,y,-z
-x,-y,-z
x,y,-z
-x,y,z
x,-y,z
1/2+x,1/2+y,1/2+z
1/2-x,1/2-y,1/2+z
1/2+x,1/2-y,1/2-z
1/2-x,1/2+y,1/2-z
1/2-x,1/2-y,1/2-z
1/2+x,1/2+y,1/2-z
1/2-x,1/2+y,1/2+z
1/2+x,1/2-y,1/2+z
loop_
_atom_site_type_symbol
_atom_site_label
_atom_site_fract_x
_atom_site_fract_y
_atom_site_fract_z
Si Si1 0.597569 0.690430 0.368195
Si Si2 0.330223 0.078690 0.000000
Si Si3 0.103050 0.579950 0.825591
Si Si4 0.601132 0.134482 0.838377
Si Si5 0.773192 0.686241 0.091435
Si Si6 0.900821 0.201839 0.313095
Si Si7 0.623371 0.421151 0.500000
O O1 0.500000 0.722457 0.378196
O O2 0.675263 0.742384 0.390663
O O3 0.607128 0.676279 0.276053
O O4 0.599186 0.623882 0.423851
O O5 0.356429 0.117995 0.078931
O O6 0.227060 0.074734 0.000000
O O7 0.366212 0.000000 0.000000
O O8 0.110434 0.500000 0.845747
O O9 0.134438 0.592365 0.736317
O O10 0.160310 0.627456 0.880761
O O11 0.000000 0.599114 0.828236
O O12 0.500000 0.115852 0.848125
O O13 0.606089 0.214694 0.814825
O O14 0.681763 0.678542 0.136657
O O15 0.756342 0.683361 0.000000
O O16 0.000000 0.184963 0.340687
O O17 0.591642 0.500000 0.500000
#
# Coordination Sequence:
#
# PCOD9522289 Si02
#       7
#    16   8  16  16  16  16   8
#     4  11  22  40  63  87 122 163 205 251 302 366
#     4  11  23  35  51  85 129 170 208 248 306 370
#     4  10  22  40  62  90 124 160 201 253 311 371
#     4  10  20  36  58  85 122 164 208 254 305 364
#     4  12  24  38  64  92 121 160 205 255 310 362
#     4  10  23  41  63  90 120 160 210 258 302 358
#     4  11  25  39  59  93 128 163 201 249 309 373
#
# _framework density 18.872328
#
# number of rings (size 3 to 8) (size 9 to 14) (size 15 to 20)
#    0.000    1.333    2.500    3.000    3.500    3.667 
#    0.000    0.833    0.000    1.500    0.000    1.167 
#    0.000    0.000    0.000    0.000    0.000    0.000 
#
# Total GULP energy -268028.088075 kJ/mol
# GULP energy per Si atom -5583.918502 kJ/mol
# Density = 1.882937 g / cm^3
# Si number density = 18.872328 Si / 1000 Ang^3
#
#
#
# Elastic Constant Matrix: (Units=GPa)
#
#
# Indices 1 2 3 4 5 6 
#
# 1 118.4195 42.1771 73.1782 0.0000 0.0000 0.0000
# 2 42.1771 59.2620 38.4157 0.0000 0.0000 0.0000
# 3 73.1782 38.4157 132.1327 0.0000 0.0000 0.0000
# 4 0.0000 0.0000 0.0000 14.4972 0.0000 0.0000
# 5 0.0000 0.0000 0.0000 0.0000 27.1161 0.0000
# 6 0.0000 0.0000 0.0000 0.0000 0.0000 21.9656
#
#
#
# Elastic Compliance Matrix: (Units=1/GPa)
#
#
# Indices 1 2 3 4 5 6 
#
# 1 0.014533 -0.006316 -0.006212 0.000000 0.000000 0.000000
# 2 -0.006316 0.023538 -0.003345 0.000000 0.000000 0.000000
# 3 -0.006212 -0.003345 0.011981 0.000000 0.000000 0.000000
# 4 0.000000 0.000000 0.000000 0.068979 0.000000 0.000000
# 5 0.000000 0.000000 0.000000 0.000000 0.036878 0.000000
# 6 0.000000 0.000000 0.000000 0.000000 0.000000 0.045526
#
#
# Mechanical properties :
#
#
# Convention : Reuss Voigt Hill
#
# Bulk Modulus (GPa) = 54.63093 68.59515 61.61304
# Shear Modulus (GPa) = 20.89557 23.11866 22.00712
#
# Velocity S-wave (km/s) = 3.33108 3.50380 3.41853
# Velocity P-wave (km/s) = 6.61856 7.26600 6.94982
#
# Compressibility (1/GPa) = 0.01830465
#
# Stress axis : x y z
#
# Youngs Moduli (GPa) = 68.80776 42.48438 83.46291
#
# Poissons Ratio (x) = 0.26834 0.51851
# Poissons Ratio (y) = 0.43461 0.27921
# Poissons Ratio (z) = 0.42747 0.14212
#
# Static dielectric constant tensor:
#      x y z
#    x 1.667640 0.000000 0.000000 
#    y 0.000000 1.646600 0.000000 
#    z 0.000000 0.000000 1.643630 
# 
# From -- ./inp_files/34550.got.cif
#   From: 2010.05.17/outbox.cif.g08.bks.cpg/sg71_18_cif.got.tgz:34550.got - 2010.06.03 16:22:01.
