data_PCOD9522763
_publ_section_title
;
Structure prediction by ZEFSAII (Michael W. Deem and Ramdas Pophale) SiO2 
 PCOD9522763
Probable space group: I M M M
;
_chemical_formula_sum "Si O2"
_cell_formula_units_Z 116
_cell_length_a 30.005778
_cell_length_b 25.340336
_cell_length_c 7.706086
_cell_angle_alpha 90.000000
_cell_angle_beta 90.000000
_cell_angle_gamma 90.000000
_cell_volume 5859.372552
_symmetry_space_group_name_H-M "I M M M"
_symmetry_group_IT_number 71
_symmetry_cell_setting 'orthorhombic'
loop_
_space_group_symop_operation_xyz
x,y,z
-x,-y,z
x,-y,-z
-x,y,-z
-x,-y,-z
x,y,-z
-x,y,z
x,-y,z
1/2+x,1/2+y,1/2+z
1/2-x,1/2-y,1/2+z
1/2+x,1/2-y,1/2-z
1/2-x,1/2+y,1/2-z
1/2-x,1/2-y,1/2-z
1/2+x,1/2+y,1/2-z
1/2-x,1/2+y,1/2+z
1/2+x,1/2-y,1/2+z
loop_
_atom_site_type_symbol
_atom_site_label
_atom_site_fract_x
_atom_site_fract_y
_atom_site_fract_z
Si Si1 0.152705 0.057621 0.209491
Si Si2 0.849115 0.558806 0.289748
Si Si3 0.873409 0.827532 0.295892
Si Si4 0.725146 0.696283 0.207781
Si Si5 0.950163 0.746834 0.793827
Si Si6 0.500000 0.094622 0.000000
Si Si7 0.569048 0.873068 0.296412
Si Si8 0.251417 0.917091 0.200908
O O1 0.125689 0.109923 0.258756
O O2 0.203795 0.064564 0.275402
O O3 0.135920 0.000000 0.265675
O O4 0.154376 0.057860 0.000000
O O5 0.848306 0.564081 0.500000
O O6 0.865872 0.500000 0.247843
O O7 0.881714 0.602917 0.216699
O O8 0.798218 0.563853 0.225326
O O9 0.870914 0.821005 0.500000
O O10 0.825960 0.806091 0.225182
O O11 0.915404 0.793240 0.240212
O O12 0.750000 0.750000 0.250000
O O13 0.749963 0.646106 0.287904
O O14 0.724817 0.689129 0.000000
O O15 0.933361 0.688646 0.741075
O O16 0.000000 0.755365 0.720452
O O17 0.954134 0.744044 0.000000
O O18 0.538516 0.097327 0.844633
O O19 0.554680 0.876995 0.500000
O O20 0.250959 0.934228 0.000000
#
# Coordination Sequence:
#
# PCOD9522763 Si02
#       8
#    16  16  16  16  16   4  16  16
#     4   9  17  33  57  83 114 155 198 238 283 338
#     4  10  21  38  59  86 119 155 197 246 299 355
#     4  10  22  35  54  84 115 150 192 235 289 349
#     4  10  21  35  49  75 113 153 192 233 284 343
#     4  10  22  40  62  87 115 145 189 243 294 357
#     4  12  22  44  69  88 116 154 191 254 306 366
#     4  11  24  41  64  92 117 151 198 246 304 366
#     4   9  18  33  55  81 112 151 198 239 282 342
#
# _framework density 19.797340999999999
#
# number of rings (size 3 to 8) (size 9 to 14) (size 15 to 20)
#    0.000    2.069    1.379    1.448    2.897    4.690 
#    0.000    0.690    0.000    3.724    0.000    2.897 
#    0.000    0.000    0.000    0.000    0.000    0.000 
#
# Total GULP energy -323030.186399 kJ/mol
# GULP energy per Si atom -5569.485972 kJ/mol
# Density = 1.975228 g / cm^3
# Si number density = 19.797341 Si / 1000 Ang^3
#
#
#
# Elastic Constant Matrix: (Units=GPa)
#
#
# Indices 1 2 3 4 5 6 
#
# 1 103.3595 61.8047 11.8674 0.0000 0.0000 0.0000
# 2 61.8047 109.1324 -3.7620 0.0000 0.0000 0.0000
# 3 11.8674 -3.7620 62.2369 0.0000 0.0000 0.0000
# 4 0.0000 0.0000 0.0000 14.0841 0.0000 0.0000
# 5 0.0000 0.0000 0.0000 0.0000 19.9493 0.0000
# 6 0.0000 0.0000 0.0000 0.0000 0.0000 85.3380
#
#
#
# Elastic Compliance Matrix: (Units=1/GPa)
#
#
# Indices 1 2 3 4 5 6 
#
# 1 0.015337 -0.008805 -0.003457 0.000000 0.000000 0.000000
# 2 -0.008805 0.014237 0.002540 0.000000 0.000000 0.000000
# 3 -0.003457 0.002540 0.016880 0.000000 0.000000 0.000000
# 4 0.000000 0.000000 0.000000 0.071002 0.000000 0.000000
# 5 0.000000 0.000000 0.000000 0.000000 0.050127 0.000000
# 6 0.000000 0.000000 0.000000 0.000000 0.000000 0.011718
#
#
# Mechanical properties :
#
#
# Convention : Reuss Voigt Hill
#
# Bulk Modulus (GPa) = 37.02298 46.06100 41.54199
# Shear Modulus (GPa) = 24.06757 37.52888 30.79822
#
# Velocity S-wave (km/s) = 3.49047 4.35863 3.94848
# Velocity P-wave (km/s) = 5.91490 6.97474 6.46657
#
# Compressibility (1/GPa) = 0.02701025
#
# Stress axis : x y z
#
# Youngs Moduli (GPa) = 65.20280 70.23889 59.24077
#
# Poissons Ratio (x) = 0.61844 0.20478
# Poissons Ratio (y) = 0.57410 -0.15044
# Poissons Ratio (z) = 0.22538 -0.17837
#
# Static dielectric constant tensor:
#      x y z
#    x 1.755650 0.000000 0.000000 
#    y 0.000000 1.709370 0.000000 
#    z 0.000000 0.000000 1.730690 
# 
# From -- ./inp_files/15416.got.cif
#   From: 2010.05.17/outbox.cif.g08.bks.cpg/sg71_8_cif.got.tgz:15416.got - 2010.06.03 16:22:01.
