data_PCOD9522317
_publ_section_title
;
Structure prediction by ZEFSAII (Michael W. Deem and Ramdas Pophale) SiO2 
 PCOD9522317
Probable space group: I M M M
;
_chemical_formula_sum "Si O2"
_cell_formula_units_Z 104
_cell_length_a 28.742972
_cell_length_b 8.617047
_cell_length_c 22.279812
_cell_angle_alpha 90.000000
_cell_angle_beta 90.000000
_cell_angle_gamma 90.000000
_cell_volume 5518.253602
_symmetry_space_group_name_H-M "I M M M"
_symmetry_group_IT_number 71
_symmetry_cell_setting 'orthorhombic'
loop_
_space_group_symop_operation_xyz
x,y,z
-x,-y,z
x,-y,-z
-x,y,-z
-x,-y,-z
x,y,-z
-x,y,z
x,-y,z
1/2+x,1/2+y,1/2+z
1/2-x,1/2-y,1/2+z
1/2+x,1/2-y,1/2-z
1/2-x,1/2+y,1/2-z
1/2-x,1/2-y,1/2-z
1/2+x,1/2+y,1/2-z
1/2-x,1/2+y,1/2+z
1/2+x,1/2-y,1/2+z
loop_
_atom_site_type_symbol
_atom_site_label
_atom_site_fract_x
_atom_site_fract_y
_atom_site_fract_z
Si Si1 0.821223 0.813487 0.794621
Si Si2 0.921969 0.315337 0.432783
Si Si3 0.500000 0.686658 0.295382
Si Si4 0.283776 0.819687 0.182029
Si Si5 0.679251 0.677897 0.068178
Si Si6 0.589988 0.688447 0.372955
Si Si7 0.055053 0.313444 0.000000
Si Si8 0.500000 0.813319 0.161265
O O1 0.769102 0.758049 0.811666
O O2 0.821666 0.761903 0.725092
O O3 0.862696 0.760239 0.838448
O O4 0.821982 0.000000 0.797076
O O5 0.942554 0.297002 0.500000
O O6 0.911340 0.500000 0.426524
O O7 0.875219 0.217008 0.430736
O O8 0.955840 0.268926 0.379280
O O9 0.500000 0.500000 0.294138
O O10 0.546055 0.735689 0.331668
O O11 0.500000 0.745850 0.227557
O O12 0.297064 0.793368 0.113833
O O13 0.283469 0.000000 0.198186
O O14 0.687388 0.500000 0.086655
O O15 0.695608 0.697444 0.000000
O O16 0.590823 0.500000 0.376507
O O17 0.580242 0.752330 0.439644
O O18 0.055961 0.500000 0.000000
O O19 0.000000 0.264541 0.000000
O O20 0.500000 0.000000 0.165481
#
# Coordination Sequence:
#
# PCOD9522317 Si02
#       8
#    16  16   8  16  16  16   8   8
#     4   9  20  38  60  87 115 145 184 229 277 334
#     4   9  18  34  54  76 105 144 188 229 275 331
#     4  10  22  36  54  83 113 147 186 223 270 331
#     4  10  20  36  59  85 113 147 185 230 285 336
#     4  10  21  36  54  77 107 146 189 231 274 322
#     4  10  21  40  63  85 112 150 190 226 273 336
#     4  11  23  39  61  89 119 151 187 233 285 334
#     4  10  21  34  51  79 112 145 179 227 284 328
#
# _framework density 18.846541999999999
#
# number of rings (size 3 to 8) (size 9 to 14) (size 15 to 20)
#    0.000    2.231    0.769    1.385    2.154    4.615 
#    1.385    0.000    0.000    2.308    0.000    0.000 
#    0.000    0.000    0.000    0.000    0.000    0.000 
#
# Total GULP energy -289924.560742 kJ/mol
# GULP energy per Si atom -5575.472322 kJ/mol
# Density = 1.880365 g / cm^3
# Si number density = 18.846542 Si / 1000 Ang^3
#
#
#
# Elastic Constant Matrix: (Units=GPa)
#
#
# Indices 1 2 3 4 5 6 
#
# 1 88.1024 17.3688 57.3369 0.0000 0.0000 0.0000
# 2 17.3688 10.7889 24.3557 0.0000 0.0000 0.0000
# 3 57.3369 24.3557 127.8942 0.0000 0.0000 0.0000
# 4 0.0000 0.0000 0.0000 32.3037 0.0000 0.0000
# 5 0.0000 0.0000 0.0000 0.0000 30.1885 0.0000
# 6 0.0000 0.0000 0.0000 0.0000 0.0000 12.4638
#
#
#
# Elastic Compliance Matrix: (Units=1/GPa)
#
#
# Indices 1 2 3 4 5 6 
#
# 1 0.017975 -0.018849 -0.004469 0.000000 0.000000 0.000000
# 2 -0.018849 0.182349 -0.026276 0.000000 0.000000 0.000000
# 3 -0.004469 -0.026276 0.014826 0.000000 0.000000 0.000000
# 4 0.000000 0.000000 0.000000 0.030956 0.000000 0.000000
# 5 0.000000 0.000000 0.000000 0.000000 0.033125 0.000000
# 6 0.000000 0.000000 0.000000 0.000000 0.000000 0.080233
#
#
# Mechanical properties :
#
#
# Convention : Reuss Voigt Hill
#
# Bulk Modulus (GPa) = 8.62339 47.21203 27.91771
# Shear Modulus (GPa) = 10.05418 23.50613 16.78016
#
# Velocity S-wave (km/s) = 2.31222 3.53546 2.98712
# Velocity P-wave (km/s) = 3.42257 6.46306 5.17132
#
# Compressibility (1/GPa) = 0.11596370
#
# Stress axis : x y z
#
# Youngs Moduli (GPa) = 55.63408 5.48398 67.44769
#
# Poissons Ratio (x) = 0.10337 0.30141
# Poissons Ratio (y) = 1.04862 1.77225
# Poissons Ratio (z) = 0.24862 0.14410
#
# Static dielectric constant tensor:
#      x y z
#    x 1.659030 0.000000 0.000000 
#    y 0.000000 1.654440 0.000000 
#    z 0.000000 0.000000 1.667330 
# 
# From -- ./inp_files/56293.got.cif
#   From: 2010.05.17/outbox.cif.g08.bks.cpg/sg71_29_cif.got.tgz:56293.got - 2010.06.03 16:22:01.
