data_PCOD9522026
_publ_section_title
;
Structure prediction by ZEFSAII (Michael W. Deem and Ramdas Pophale) SiO2 
 PCOD9522026
Probable space group: I M M M
;
_chemical_formula_sum "Si O2"
_cell_formula_units_Z 104
_cell_length_a 8.656852
_cell_length_b 28.663772
_cell_length_c 21.618431
_cell_angle_alpha 90.000000
_cell_angle_beta 90.000000
_cell_angle_gamma 90.000000
_cell_volume 5364.354923
_symmetry_space_group_name_H-M "I M M M"
_symmetry_group_IT_number 71
_symmetry_cell_setting 'orthorhombic'
loop_
_space_group_symop_operation_xyz
x,y,z
-x,-y,z
x,-y,-z
-x,y,-z
-x,-y,-z
x,y,-z
-x,y,z
x,-y,z
1/2+x,1/2+y,1/2+z
1/2-x,1/2-y,1/2+z
1/2+x,1/2-y,1/2-z
1/2-x,1/2+y,1/2-z
1/2-x,1/2-y,1/2-z
1/2+x,1/2+y,1/2-z
1/2-x,1/2+y,1/2+z
1/2+x,1/2-y,1/2+z
loop_
_atom_site_type_symbol
_atom_site_label
_atom_site_fract_x
_atom_site_fract_y
_atom_site_fract_z
Si Si1 0.314413 0.445439 0.000000
Si Si2 0.814006 0.637248 0.759992
Si Si3 0.815603 0.199217 0.158320
Si Si4 0.814189 0.373186 0.903249
Si Si5 0.313916 0.387476 0.570488
Si Si6 0.815198 0.226875 0.432394
Si Si7 0.813818 0.447892 0.673109
O O1 0.250805 0.417318 0.940541
O O2 0.268872 0.500000 0.000000
O O3 0.500000 0.442908 0.000000
O O4 0.747669 0.682434 0.724625
O O5 0.770616 0.629416 0.830929
O O6 0.762149 0.591676 0.721380
O O7 0.000000 0.640399 0.756998
O O8 0.769210 0.157907 0.110415
O O9 0.751729 0.245440 0.126079
O O10 0.000000 0.201991 0.161494
O O11 0.746970 0.325624 0.931026
O O12 0.000000 0.373318 0.908203
O O13 0.261064 0.384216 0.500000
O O14 0.500000 0.389883 0.571133
O O15 0.246388 0.431568 0.606583
O O16 0.769575 0.247615 0.500000
O O17 0.000000 0.227059 0.428871
O O18 0.761801 0.500000 0.688768
O O19 0.000000 0.447383 0.672842
#
# Coordination Sequence:
#
# PCOD9522026 Si02
#       7
#     8  16  16  16  16  16  16
#     4  11  25  45  67  93 127 161 195 243 304 367
#     4   9  20  38  58  83 115 150 191 240 294 352
#     4  10  20  35  57  84 114 153 198 242 287 343
#     4  11  23  40  65  92 118 151 193 242 292 348
#     4   9  18  32  49  72 105 143 184 233 282 328
#     4  11  23  38  59  86 120 159 195 239 294 352
#     4   9  18  33  52  74 103 139 180 229 282 337
#
# _framework density 19.387232999999998
#
# number of rings (size 3 to 8) (size 9 to 14) (size 15 to 20)
#    0.000    2.077    0.769    2.077    0.000    6.154 
#    0.000    3.077    0.000    0.000    0.000    0.000 
#    0.000    0.000    0.000    0.000    0.000    0.000 
#
# Total GULP energy -290288.942556 kJ/mol
# GULP energy per Si atom -5582.479665 kJ/mol
# Density = 1.934311 g / cm^3
# Si number density = 19.387233 Si / 1000 Ang^3
#
#
#
# Elastic Constant Matrix: (Units=GPa)
#
#
# Indices 1 2 3 4 5 6 
#
# 1 25.3253 24.2977 35.1409 0.0000 0.0000 0.0000
# 2 24.2977 113.8155 52.9296 0.0000 0.0000 0.0000
# 3 35.1409 52.9296 153.5311 0.0000 0.0000 0.0000
# 4 0.0000 0.0000 0.0000 12.6867 0.0000 0.0000
# 5 0.0000 0.0000 0.0000 0.0000 26.7777 0.0000
# 6 0.0000 0.0000 0.0000 0.0000 0.0000 29.2251
#
#
#
# Elastic Compliance Matrix: (Units=1/GPa)
#
#
# Indices 1 2 3 4 5 6 
#
# 1 0.063577 -0.008105 -0.011758 0.000000 0.000000 0.000000
# 2 -0.008105 0.011497 -0.002109 0.000000 0.000000 0.000000
# 3 -0.011758 -0.002109 0.009931 0.000000 0.000000 0.000000
# 4 0.000000 0.000000 0.000000 0.078822 0.000000 0.000000
# 5 0.000000 0.000000 0.000000 0.000000 0.037344 0.000000
# 6 0.000000 0.000000 0.000000 0.000000 0.000000 0.034217
#
#
# Mechanical properties :
#
#
# Convention : Reuss Voigt Hill
#
# Bulk Modulus (GPa) = 24.35260 57.48980 40.92120
# Shear Modulus (GPa) = 17.06376 25.75817 21.41097
#
# Velocity S-wave (km/s) = 2.96996 3.64897 3.32683
# Velocity P-wave (km/s) = 4.93450 6.88993 5.99251
#
# Compressibility (1/GPa) = 0.04106338
#
# Stress axis : x y z
#
# Youngs Moduli (GPa) = 15.72900 86.97983 100.69077
#
# Poissons Ratio (x) = 0.70494 1.18389
# Poissons Ratio (y) = 0.12748 0.21231
# Poissons Ratio (z) = 0.18494 0.18340
#
# Static dielectric constant tensor:
#      x y z
#    x 1.653430 0.000000 0.000000 
#    y 0.000000 1.678480 0.000000 
#    z 0.000000 0.000000 1.697140 
# 
# From -- ./inp_files/50885.got.cif
#   From: 2010.05.17/outbox.cif.g08.bks.cpg/sg71_26_cif.got.tgz:50885.got - 2010.06.03 16:22:01.
