data_PCOD9522945
_publ_section_title
;
Structure prediction by ZEFSAII (Michael W. Deem and Ramdas Pophale) SiO2 
 PCOD9522945
Probable space group: I M M M
;
_chemical_formula_sum "Si O2"
_cell_formula_units_Z 104
_cell_length_a 9.313302
_cell_length_b 26.200689
_cell_length_c 23.791949
_cell_angle_alpha 90.000000
_cell_angle_beta 90.000000
_cell_angle_gamma 90.000000
_cell_volume 5805.590752
_symmetry_space_group_name_H-M "I M M M"
_symmetry_group_IT_number 71
_symmetry_cell_setting 'orthorhombic'
loop_
_space_group_symop_operation_xyz
x,y,z
-x,-y,z
x,-y,-z
-x,y,-z
-x,-y,-z
x,y,-z
-x,y,z
x,-y,z
1/2+x,1/2+y,1/2+z
1/2-x,1/2-y,1/2+z
1/2+x,1/2-y,1/2-z
1/2-x,1/2+y,1/2-z
1/2-x,1/2-y,1/2-z
1/2+x,1/2+y,1/2-z
1/2-x,1/2+y,1/2+z
1/2+x,1/2-y,1/2+z
loop_
_atom_site_type_symbol
_atom_site_label
_atom_site_fract_x
_atom_site_fract_y
_atom_site_fract_z
Si Si1 0.166602 0.698910 0.563332
Si Si2 0.325644 0.500000 0.934927
Si Si3 0.829957 0.000000 0.135325
Si Si4 0.326502 0.587365 0.153566
Si Si5 0.835379 0.210361 0.176822
Si Si6 0.334215 0.172790 0.718948
Si Si7 0.838940 0.576500 0.435627
Si Si8 0.173187 0.000000 0.740125
O O1 0.211437 0.715029 0.500000
O O2 0.262352 0.714231 0.615903
O O3 0.169400 0.637397 0.564491
O O4 0.000000 0.714837 0.571065
O O5 0.500000 0.500000 0.934206
O O6 0.285585 0.448043 0.900591
O O7 0.278299 0.500000 0.000000
O O8 0.774813 0.950563 0.103008
O O9 0.768261 0.000000 0.197811
O O10 0.000000 0.000000 0.137331
O O11 0.500000 0.595543 0.151130
O O12 0.245801 0.639148 0.171209
O O13 0.289430 0.549891 0.205171
O O14 0.749131 0.174689 0.221111
O O15 0.835927 0.268054 0.200259
O O16 0.000000 0.192430 0.172789
O O17 0.500000 0.156065 0.725704
O O18 0.819406 0.560047 0.500000
O O19 0.000000 0.562049 0.417881
O O20 0.000000 0.000000 0.742400
#
# Coordination Sequence:
#
# PCOD9522945 Si02
#       8
#    16   8   8  16  16  16  16   8
#     4   9  19  36  56  77 103 136 175 219 264 310
#     4   8  15  31  57  86 113 144 182 220 261 318
#     4  11  21  30  44  69  98 126 165 212 252 299
#     4   9  17  33  56  78 106 141 175 215 261 311
#     4  10  21  36  55  78 106 141 179 221 270 321
#     4  10  21  36  54  79 109 139 175 220 270 324
#     4   9  19  35  50  65  92 130 168 208 256 302
#     4   8  18  33  46  70 105 135 163 205 257 300
#
# _framework density 17.913765999999999
#
# number of rings (size 3 to 8) (size 9 to 14) (size 15 to 20)
#    0.000    2.692    0.000    3.231    2.154    4.000 
#    0.000    4.615    0.000    3.692    0.000    0.000 
#    0.000    0.000    0.000    0.000    0.000    0.000 
#
# Total GULP energy -289616.329849 kJ/mol
# GULP energy per Si atom -5569.544805 kJ/mol
# Density = 1.787299 g / cm^3
# Si number density = 17.913766 Si / 1000 Ang^3
#
#
#
# Elastic Constant Matrix: (Units=GPa)
#
#
# Indices 1 2 3 4 5 6 
#
# 1 80.6976 19.4238 67.2640 0.0000 0.0000 0.0000
# 2 19.4238 31.2764 10.7327 0.0000 0.0000 0.0000
# 3 67.2640 10.7327 123.3802 0.0000 0.0000 0.0000
# 4 0.0000 0.0000 0.0000 11.2723 0.0000 0.0000
# 5 0.0000 0.0000 0.0000 0.0000 20.9653 0.0000
# 6 0.0000 0.0000 0.0000 0.0000 0.0000 37.1686
#
#
#
# Elastic Compliance Matrix: (Units=1/GPa)
#
#
# Indices 1 2 3 4 5 6 
#
# 1 0.026347 -0.011785 -0.013338 0.000000 0.000000 0.000000
# 2 -0.011785 0.038228 0.003100 0.000000 0.000000 0.000000
# 3 -0.013338 0.003100 0.015107 0.000000 0.000000 0.000000
# 4 0.000000 0.000000 0.000000 0.088713 0.000000 0.000000
# 5 0.000000 0.000000 0.000000 0.000000 0.047698 0.000000
# 6 0.000000 0.000000 0.000000 0.000000 0.000000 0.026904
#
#
# Mechanical properties :
#
#
# Convention : Reuss Voigt Hill
#
# Bulk Modulus (GPa) = 28.06287 47.79947 37.93117
# Shear Modulus (GPa) = 16.72671 23.07682 19.90177
#
# Velocity S-wave (km/s) = 3.05902 3.59307 3.33675
# Velocity P-wave (km/s) = 5.30814 6.62982 6.00545
#
# Compressibility (1/GPa) = 0.03563427
#
# Stress axis : x y z
#
# Youngs Moduli (GPa) = 37.95565 26.15855 66.19378
#
# Poissons Ratio (x) = 0.30828 0.88292
# Poissons Ratio (y) = 0.44731 -0.20517
# Poissons Ratio (z) = 0.50627 -0.08108
#
# Static dielectric constant tensor:
#      x y z
#    x 1.614620 0.000000 0.000000 
#    y 0.000000 1.624860 0.000000 
#    z 0.000000 0.000000 1.619670 
# 
# From -- ./inp_files/58055.got.cif
#   From: 2010.05.17/outbox.cif.g08.bks.cpg/sg71_30_cif.got.tgz:58055.got - 2010.06.03 16:22:01.
