data_PCOD9522587
_publ_section_title
;
Structure prediction by ZEFSAII (Michael W. Deem and Ramdas Pophale) SiO2 
 PCOD9522587
Probable space group: I M M M
;
_chemical_formula_sum "Si O2"
_cell_formula_units_Z 100
_cell_length_a 20.893864
_cell_length_b 7.627635
_cell_length_c 30.683015
_cell_angle_alpha 90.000000
_cell_angle_beta 90.000000
_cell_angle_gamma 90.000000
_cell_volume 4889.975675
_symmetry_space_group_name_H-M "I M M M"
_symmetry_group_IT_number 71
_symmetry_cell_setting 'orthorhombic'
loop_
_space_group_symop_operation_xyz
x,y,z
-x,-y,z
x,-y,-z
-x,y,-z
-x,-y,-z
x,y,-z
-x,y,z
x,-y,z
1/2+x,1/2+y,1/2+z
1/2-x,1/2-y,1/2+z
1/2+x,1/2-y,1/2-z
1/2-x,1/2+y,1/2-z
1/2-x,1/2-y,1/2-z
1/2+x,1/2+y,1/2-z
1/2-x,1/2+y,1/2+z
1/2+x,1/2-y,1/2+z
loop_
_atom_site_type_symbol
_atom_site_label
_atom_site_fract_x
_atom_site_fract_y
_atom_site_fract_z
Si Si1 0.826771 0.297788 0.198265
Si Si2 0.625588 0.705359 0.951391
Si Si3 0.110234 0.201861 0.111107
Si Si4 0.000000 0.500000 0.896415
Si Si5 0.684527 0.206607 0.203699
Si Si6 0.271666 0.710884 0.450406
Si Si7 0.928984 0.787535 0.638154
O O1 0.847848 0.500000 0.198298
O O2 0.867090 0.203433 0.161351
O O3 0.750992 0.289369 0.187936
O O4 0.832069 0.227356 0.247648
O O5 0.608978 0.500000 0.954232
O O6 0.701065 0.718304 0.940525
O O7 0.586905 0.778427 0.910560
O O8 0.616203 0.781642 0.000000
O O9 0.055572 0.344390 0.104263
O O10 0.172383 0.257065 0.082744
O O11 0.093068 0.000000 0.099050
O O12 0.626434 0.232291 0.170989
O O13 0.698007 0.000000 0.208039
O O14 0.287850 0.764404 0.500000
O O15 0.265989 0.500000 0.449433
O O16 0.000000 0.731203 0.651618
O O17 0.928056 0.000000 0.637071
#
# Coordination Sequence:
#
# PCOD9522587 Si02
#       7
#    16  16  16   4  16  16  16
#     4  10  20  38  62  87 116 149 195 252 304 351
#     4   9  18  32  54  83 112 148 196 247 298 354
#     4  11  23  41  64  88 120 164 203 248 303 359
#     4  12  26  44  61  88 128 160 206 246 289 374
#     4  10  21  36  58  87 116 149 193 247 303 362
#     4   9  19  36  59  88 118 148 191 248 305 356
#     4  10  21  36  52  76 115 158 198 242 297 359
#
# _framework density 20.449998999999998
#
# number of rings (size 3 to 8) (size 9 to 14) (size 15 to 20)
#    0.000    2.080    0.800    2.160    1.120    5.760 
#    1.440    2.400    0.000    1.920    0.000    3.360 
#    0.000    0.000    0.000    0.000    0.000    0.000 
#
# Total GULP energy -278643.045610 kJ/mol
# GULP energy per Si atom -5572.860912 kJ/mol
# Density = 2.040345 g / cm^3
# Si number density = 20.449999 Si / 1000 Ang^3
#
#
#
# Elastic Constant Matrix: (Units=GPa)
#
#
# Indices 1 2 3 4 5 6 
#
# 1 43.1810 -2.2367 32.1648 0.0000 0.0000 0.0000
# 2 -2.2367 66.2010 1.6771 0.0000 0.0000 0.0000
# 3 32.1648 1.6771 60.2464 0.0000 0.0000 0.0000
# 4 0.0000 0.0000 0.0000 -5.9035 0.0000 0.0000
# 5 0.0000 0.0000 0.0000 0.0000 -2.2619 0.0000
# 6 0.0000 0.0000 0.0000 0.0000 0.0000 1.0270
#
#
#
# Elastic Compliance Matrix: (Units=1/GPa)
#
#
# Indices 1 2 3 4 5 6 
#
# 1 0.038669 0.001831 -0.020696 0.000000 0.000000 0.000000
# 2 0.001831 0.015203 -0.001401 0.000000 0.000000 0.000000
# 3 -0.020696 -0.001401 0.027687 0.000000 0.000000 0.000000
# 4 0.000000 0.000000 0.000000 -0.169390 0.000000 0.000000
# 5 0.000000 0.000000 0.000000 0.000000 -0.442106 0.000000
# 6 0.000000 0.000000 0.000000 0.000000 0.000000 0.973739
#
#
# Mechanical properties :
#
#
# Convention : Reuss Voigt Hill
#
# Bulk Modulus (GPa) = 24.37405 25.87097 25.12251
# Shear Modulus (GPa) = 10.03998 7.77386 8.90692
#
# Velocity S-wave (km/s) = 2.21815 1.95183 2.08924
# Velocity P-wave (km/s) = 4.30174 4.21401 4.25810
#
# Compressibility (1/GPa) = 0.04102724
#
# Stress axis : x y z
#
# Youngs Moduli (GPa) = 25.86037 65.77717 36.11833
#
# Poissons Ratio (x) = -0.12042 0.74750
# Poissons Ratio (y) = -0.04734 0.05059
# Poissons Ratio (z) = 0.53520 0.09213
#
# Static dielectric constant tensor:
#      x y z
#    x 1.678090 0.000000 0.000000 
#    y 0.000000 1.771720 0.000000 
#    z 0.000000 0.000000 1.750510 
# 
# From -- ./inp_files/50902.got.cif
#   From: 2010.05.17/outbox.cif.g08.bks.cpg/sg71_26_cif.got.tgz:50902.got - 2010.06.03 16:22:01.
