data_PCOD9522698
_publ_section_title
;
Structure prediction by ZEFSAII (Michael W. Deem and Ramdas Pophale) SiO2 
 PCOD9522698
Probable space group: I M M M
;
_chemical_formula_sum "Si O2"
_cell_formula_units_Z 120
_cell_length_a 14.167206
_cell_length_b 16.349950
_cell_length_c 24.671572
_cell_angle_alpha 90.000000
_cell_angle_beta 90.000000
_cell_angle_gamma 90.000000
_cell_volume 5714.752945
_symmetry_space_group_name_H-M "I M M M"
_symmetry_group_IT_number 71
_symmetry_cell_setting 'orthorhombic'
loop_
_space_group_symop_operation_xyz
x,y,z
-x,-y,z
x,-y,-z
-x,y,-z
-x,-y,-z
x,y,-z
-x,y,z
x,-y,z
1/2+x,1/2+y,1/2+z
1/2-x,1/2-y,1/2+z
1/2+x,1/2-y,1/2-z
1/2-x,1/2+y,1/2-z
1/2-x,1/2-y,1/2-z
1/2+x,1/2+y,1/2-z
1/2-x,1/2+y,1/2+z
1/2+x,1/2-y,1/2+z
loop_
_atom_site_type_symbol
_atom_site_label
_atom_site_fract_x
_atom_site_fract_y
_atom_site_fract_z
Si Si1 0.394684 0.680986 0.934558
Si Si2 0.798583 0.598018 0.166624
Si Si3 0.608676 0.627602 0.560553
Si Si4 0.395017 0.599995 0.777298
Si Si5 0.887072 0.000000 0.440071
Si Si6 0.310028 0.198779 0.561487
Si Si7 0.293688 0.595606 0.671561
Si Si8 0.603448 0.099445 0.221125
O O1 0.500000 0.704894 0.915272
O O2 0.369183 0.588290 0.914965
O O3 0.298070 0.730438 0.927185
O O4 0.403849 0.673776 0.000000
O O5 0.793907 0.500000 0.160184
O O6 0.696011 0.627524 0.188646
O O7 0.830103 0.638466 0.110712
O O8 0.868993 0.615959 0.216511
O O9 0.638303 0.600851 0.500000
O O10 0.500000 0.603355 0.568460
O O11 0.619607 0.725540 0.561495
O O12 0.671568 0.600238 0.610579
O O13 0.500000 0.627750 0.793108
O O14 0.396942 0.500000 0.780840
O O15 0.370356 0.625974 0.715438
O O16 0.843232 0.000000 0.500000
O O17 0.000000 0.000000 0.445041
O O18 0.309946 0.163763 0.500000
O O19 0.285402 0.500000 0.685347
O O20 0.190414 0.630925 0.684741
O O21 0.500000 0.131841 0.207306
O O22 0.599490 0.000000 0.215964
#
# Coordination Sequence:
#
# PCOD9522698 Si02
#       8
#    16  16  16  16   8  16  16  16
#     4   8  14  25  41  61  86 120 166 216 260 301
#     4   9  18  30  47  74 101 132 181 227 257 296
#     4  10  22  39  55  74 106 143 172 204 256 312
#     4   8  14  27  48  76 110 138 160 205 274 325
#     4   7  10  18  34  58  83 105 143 205 262 294
#     4  10  21  34  47  65  98 146 188 220 261 311
#     4   9  17  32  59  89 107 126 165 207 248 314
#     4   8  15  31  55  81 109 135 158 199 261 314
#
# _framework density 20.998282
#
# number of rings (size 3 to 8) (size 9 to 14) (size 15 to 20)
#    0.000    3.267    0.000    2.800    0.933    2.400 
#    0.000    4.000    0.000    2.800    0.000    5.600 
#    0.000    0.000    0.000    0.000    0.000    0.000 
#
# Total GULP energy -334139.006905 kJ/mol
# GULP energy per Si atom -5568.983448 kJ/mol
# Density = 2.095049 g / cm^3
# Si number density = 20.998282 Si / 1000 Ang^3
#
#
#
# Elastic Constant Matrix: (Units=GPa)
#
#
# Indices 1 2 3 4 5 6 
#
# 1 88.3095 10.1691 30.6460 0.0000 0.0000 0.0000
# 2 10.1691 15.5273 6.8460 0.0000 0.0000 0.0000
# 3 30.6460 6.8460 111.7103 0.0000 0.0000 0.0000
# 4 0.0000 0.0000 0.0000 28.6699 0.0000 0.0000
# 5 0.0000 0.0000 0.0000 0.0000 9.5197 0.0000
# 6 0.0000 0.0000 0.0000 0.0000 0.0000 12.5428
#
#
#
# Elastic Compliance Matrix: (Units=1/GPa)
#
#
# Indices 1 2 3 4 5 6 
#
# 1 0.013271 -0.007283 -0.003194 0.000000 0.000000 0.000000
# 2 -0.007283 0.070188 -0.002303 0.000000 0.000000 0.000000
# 3 -0.003194 -0.002303 0.009969 0.000000 0.000000 0.000000
# 4 0.000000 0.000000 0.000000 0.034880 0.000000 0.000000
# 5 0.000000 0.000000 0.000000 0.000000 0.105046 0.000000
# 6 0.000000 0.000000 0.000000 0.000000 0.000000 0.079727
#
#
# Mechanical properties :
#
#
# Convention : Reuss Voigt Hill
#
# Bulk Modulus (GPa) = 14.73478 34.54103 24.63791
# Shear Modulus (GPa) = 13.84027 21.33887 17.58957
#
# Velocity S-wave (km/s) = 2.57011 3.19128 2.89739
# Velocity P-wave (km/s) = 3.97991 5.48308 4.79082
#
# Compressibility (1/GPa) = 0.06786663
#
# Stress axis : x y z
#
# Youngs Moduli (GPa) = 75.35227 14.24747 100.30882
#
# Poissons Ratio (x) = 0.10376 0.32042
# Poissons Ratio (y) = 0.54879 0.23105
# Poissons Ratio (z) = 0.24070 0.03282
#
# Static dielectric constant tensor:
#      x y z
#    x 1.795620 0.000000 0.000000 
#    y 0.000000 1.783390 0.000000 
#    z 0.000000 0.000000 1.793200 
# 
# From -- ./inp_files/53424.got.cif
#   From: 2010.05.17/outbox.cif.g08.bks.cpg/sg71_27_cif.got.tgz:53424.got - 2010.06.03 16:22:01.
