data_PCOD9522973
_publ_section_title
;
Structure prediction by ZEFSAII (Michael W. Deem and Ramdas Pophale) SiO2 
 PCOD9522973
Probable space group: I M M M
;
_chemical_formula_sum "Si O2"
_cell_formula_units_Z 96
_cell_length_a 17.144910
_cell_length_b 16.351086
_cell_length_c 19.829702
_cell_angle_alpha 90.000000
_cell_angle_beta 90.000000
_cell_angle_gamma 90.000000
_cell_volume 5559.016974
_symmetry_space_group_name_H-M "I M M M"
_symmetry_group_IT_number 71
_symmetry_cell_setting 'orthorhombic'
loop_
_space_group_symop_operation_xyz
x,y,z
-x,-y,z
x,-y,-z
-x,y,-z
-x,-y,-z
x,y,-z
-x,y,z
x,-y,z
1/2+x,1/2+y,1/2+z
1/2-x,1/2-y,1/2+z
1/2+x,1/2-y,1/2-z
1/2-x,1/2+y,1/2-z
1/2-x,1/2-y,1/2-z
1/2+x,1/2+y,1/2-z
1/2-x,1/2+y,1/2+z
1/2+x,1/2-y,1/2+z
loop_
_atom_site_type_symbol
_atom_site_label
_atom_site_fract_x
_atom_site_fract_y
_atom_site_fract_z
Si Si1 0.092713 0.088775 0.727097
Si Si2 0.914223 0.405083 0.387489
Si Si3 0.677260 0.260256 0.700529
Si Si4 0.718184 0.213711 0.925976
Si Si5 0.408789 0.358261 0.924036
Si Si6 0.591013 0.907374 0.275272
O O1 0.127410 0.166761 0.765865
O O2 0.103932 0.093632 0.645812
O O3 0.000000 0.090308 0.737960
O O4 0.123872 0.000000 0.750287
O O5 0.914933 0.500000 0.405220
O O6 0.839507 0.362643 0.418085
O O7 0.907175 0.399005 0.306202
O O8 0.000000 0.370604 0.406500
O O9 0.750000 0.250000 0.750000
O O10 0.715155 0.283860 0.629561
O O11 0.634441 0.172335 0.696687
O O12 0.655857 0.287646 0.919449
O O13 0.753190 0.216713 0.000000
O O14 0.500000 0.330746 0.920761
O O15 0.400497 0.395612 0.000000
O O16 0.500000 0.904595 0.295024
O O17 0.620548 0.000000 0.291563
#
# Coordination Sequence:
#
# PCOD9522973 Si02
#       6
#    16  16  16  16  16  16
#     4  10  21  36  55  79 107 142 183 220 255 306
#     4   9  17  30  49  75 107 142 179 214 253 310
#     4  12  21  34  55  82 106 142 177 219 265 314
#     4  11  22  34  47  72 109 143 176 215 267 317
#     4   9  17  31  51  75 107 144 176 205 246 311
#     4   9  18  34  58  84 106 132 172 222 269 313
#
# _framework density 17.269241000000001
#
# number of rings (size 3 to 8) (size 9 to 14) (size 15 to 20)
#    0.000    2.000    3.333    2.000    0.000    5.667 
#    0.000    2.500    0.000    2.500    0.000    2.333 
#    0.000    0.000    0.000    0.000    0.000    0.000 
#
# Total GULP energy -267341.324759 kJ/mol
# GULP energy per Si atom -5569.610932 kJ/mol
# Density = 1.722994 g / cm^3
# Si number density = 17.269241 Si / 1000 Ang^3
#
#
#
# Elastic Constant Matrix: (Units=GPa)
#
#
# Indices 1 2 3 4 5 6 
#
# 1 57.9178 50.4953 40.4340 0.0000 0.0000 0.0000
# 2 50.4953 120.4897 45.6112 0.0000 0.0000 0.0000
# 3 40.4340 45.6112 97.7811 0.0000 0.0000 0.0000
# 4 0.0000 0.0000 0.0000 1.8634 0.0000 0.0000
# 5 0.0000 0.0000 0.0000 0.0000 18.7283 0.0000
# 6 0.0000 0.0000 0.0000 0.0000 0.0000 104.6746
#
#
#
# Elastic Compliance Matrix: (Units=1/GPa)
#
#
# Indices 1 2 3 4 5 6 
#
# 1 0.032143 -0.010249 -0.008511 0.000000 0.000000 0.000000
# 2 -0.010249 0.013347 -0.001988 0.000000 0.000000 0.000000
# 3 -0.008511 -0.001988 0.014674 0.000000 0.000000 0.000000
# 4 0.000000 0.000000 0.000000 0.536645 0.000000 0.000000
# 5 0.000000 0.000000 0.000000 0.000000 0.053395 0.000000
# 6 0.000000 0.000000 0.000000 0.000000 0.000000 0.009553
#
#
# Mechanical properties :
#
#
# Convention : Reuss Voigt Hill
#
# Bulk Modulus (GPa) = 53.56646 61.02997 57.29821
# Shear Modulus (GPa) = 7.06738 34.36314 20.71526
#
# Velocity S-wave (km/s) = 2.02518 4.46561 3.46720
# Velocity P-wave (km/s) = 6.04601 7.87438 7.01998
#
# Compressibility (1/GPa) = 0.01866840
#
# Stress axis : x y z
#
# Youngs Moduli (GPa) = 31.11108 74.92279 68.14965
#
# Poissons Ratio (x) = 0.76787 0.58002
# Poissons Ratio (y) = 0.31885 0.13547
# Poissons Ratio (z) = 0.26478 0.14894
#
# Static dielectric constant tensor:
#      x y z
#    x 1.567240 0.000000 0.000000 
#    y 0.000000 1.631120 0.000000 
#    z 0.000000 0.000000 1.589290 
# 
# From -- ./inp_files/34503.got.cif
#   From: 2010.05.17/outbox.cif.g08.bks.cpg/sg71_18_cif.got.tgz:34503.got - 2010.06.03 16:22:01.
