data_PCOD9522725
_publ_section_title
;
Structure prediction by ZEFSAII (Michael W. Deem and Ramdas Pophale) SiO2 
 PCOD9522725
Probable space group: I M M M
;
_chemical_formula_sum "Si O2"
_cell_formula_units_Z 90
_cell_length_a 25.244489
_cell_length_b 7.636226
_cell_length_c 22.089938
_cell_angle_alpha 90.000000
_cell_angle_beta 90.000000
_cell_angle_gamma 90.000000
_cell_volume 4258.335296
_symmetry_space_group_name_H-M "I M M M"
_symmetry_group_IT_number 71
_symmetry_cell_setting 'orthorhombic'
loop_
_space_group_symop_operation_xyz
x,y,z
-x,-y,z
x,-y,-z
-x,y,-z
-x,-y,-z
x,y,-z
-x,y,z
x,-y,z
1/2+x,1/2+y,1/2+z
1/2-x,1/2-y,1/2+z
1/2+x,1/2-y,1/2-z
1/2-x,1/2+y,1/2-z
1/2-x,1/2-y,1/2-z
1/2+x,1/2+y,1/2-z
1/2-x,1/2+y,1/2+z
1/2+x,1/2-y,1/2+z
loop_
_atom_site_type_symbol
_atom_site_label
_atom_site_fract_x
_atom_site_fract_y
_atom_site_fract_z
Si Si1 0.407183 0.196945 0.000000
Si Si2 0.769016 0.700653 0.170458
Si Si3 0.861403 0.712469 0.746200
Si Si4 0.660257 0.703719 0.883194
Si Si5 0.652091 0.705459 0.567426
Si Si6 0.059906 0.288183 0.852214
Si Si7 0.000000 0.000000 0.500000
O O1 0.369786 0.216493 0.940336
O O2 0.452656 0.345366 0.000000
O O3 0.429411 0.000000 0.000000
O O4 0.756068 0.500000 0.185264
O O5 0.804148 0.772635 0.226593
O O6 0.716506 0.782747 0.140328
O O7 0.811811 0.700882 0.116485
O O8 0.860108 0.500000 0.744844
O O9 0.872465 0.780582 0.679214
O O10 0.905869 0.768298 0.793991
O O11 0.669163 0.500000 0.898579
O O12 0.660373 0.771738 0.500000
O O13 0.665444 0.500000 0.569438
O O14 0.591956 0.727780 0.589140
O O15 0.059814 0.500000 0.852081
O O16 0.000000 0.226063 0.850047
#
# Coordination Sequence:
#
# PCOD9522725 Si02
#       7
#     8  16  16  16  16  16   2
#     4  12  27  49  77 102 133 177 215 278 340 394
#     4   9  20  36  59  86 126 168 203 256 314 372
#     4   9  18  35  57  89 124 164 208 253 323 390
#     4  11  22  40  63  97 132 162 211 264 312 390
#     4  10  21  34  50  79 116 154 199 248 303 370
#     4   9  19  37  57  78 109 149 203 259 302 364
#     4  12  26  60  76  98 140 164 234 280 332 410
#
# _framework density 21.135019
#
# number of rings (size 3 to 8) (size 9 to 14) (size 15 to 20)
#    0.000    2.133    0.889    2.800    1.244    6.400 
#    1.600    1.778    0.000    0.000    0.000    0.000 
#    0.000    0.000    0.000    0.000    0.000    0.000 
#
# Total GULP energy -250855.318961 kJ/mol
# GULP energy per Si atom -5574.562644 kJ/mol
# Density = 2.108692 g / cm^3
# Si number density = 21.135019 Si / 1000 Ang^3
#
#
#
# Elastic Constant Matrix: (Units=GPa)
#
#
# Indices 1 2 3 4 5 6 
#
# 1 73.3647 26.5554 22.5216 0.0000 0.0000 0.0000
# 2 26.5554 90.4922 21.3572 0.0000 0.0000 0.0000
# 3 22.5216 21.3572 138.3550 0.0000 0.0000 0.0000
# 4 0.0000 0.0000 0.0000 24.4690 0.0000 0.0000
# 5 0.0000 0.0000 0.0000 0.0000 14.1263 0.0000
# 6 0.0000 0.0000 0.0000 0.0000 0.0000 8.3003
#
#
#
# Elastic Compliance Matrix: (Units=1/GPa)
#
#
# Indices 1 2 3 4 5 6 
#
# 1 0.015726 -0.004162 -0.001917 0.000000 0.000000 0.000000
# 2 -0.004162 0.012570 -0.001263 0.000000 0.000000 0.000000
# 3 -0.001917 -0.001263 0.007735 0.000000 0.000000 0.000000
# 4 0.000000 0.000000 0.000000 0.040868 0.000000 0.000000
# 5 0.000000 0.000000 0.000000 0.000000 0.070790 0.000000
# 6 0.000000 0.000000 0.000000 0.000000 0.000000 0.120477
#
#
# Mechanical properties :
#
#
# Convention : Reuss Voigt Hill
#
# Bulk Modulus (GPa) = 46.84770 49.23114 48.03942
# Shear Modulus (GPa) = 17.24340 24.83097 21.03718
#
# Velocity S-wave (km/s) = 2.85944 3.43136 3.15837
# Velocity P-wave (km/s) = 5.75464 6.24845 6.00662
#
# Compressibility (1/GPa) = 0.02134576
#
# Stress axis : x y z
#
# Youngs Moduli (GPa) = 63.59011 79.55346 129.28529
#
# Poissons Ratio (x) = 0.33112 0.24788
# Poissons Ratio (y) = 0.26468 0.16327
# Poissons Ratio (z) = 0.12192 0.10046
#
# Static dielectric constant tensor:
#      x y z
#    x 1.785790 0.000000 0.000000 
#    y 0.000000 1.796220 0.000000 
#    z 0.000000 0.000000 1.750150 
# 
# From -- ./inp_files/55594.got.cif
#   From: 2010.05.17/outbox.cif.g08.bks.cpg/sg71_28_cif.got.tgz:55594.got - 2010.06.03 16:22:01.
