data_PCOD9522903
_publ_section_title
;
Structure prediction by ZEFSAII (Michael W. Deem and Ramdas Pophale) SiO2 
 PCOD9522903
Probable space group: I M M M
;
_chemical_formula_sum "Si O2"
_cell_formula_units_Z 72
_cell_length_a 13.337408
_cell_length_b 9.364520
_cell_length_c 27.066835
_cell_angle_alpha 90.000000
_cell_angle_beta 90.000000
_cell_angle_gamma 90.000000
_cell_volume 3380.605033
_symmetry_space_group_name_H-M "I M M M"
_symmetry_group_IT_number 71
_symmetry_cell_setting 'orthorhombic'
loop_
_space_group_symop_operation_xyz
x,y,z
-x,-y,z
x,-y,-z
-x,y,-z
-x,-y,-z
x,y,-z
-x,y,z
x,-y,z
1/2+x,1/2+y,1/2+z
1/2-x,1/2-y,1/2+z
1/2+x,1/2-y,1/2-z
1/2-x,1/2+y,1/2-z
1/2-x,1/2-y,1/2-z
1/2+x,1/2+y,1/2-z
1/2-x,1/2+y,1/2+z
1/2+x,1/2-y,1/2+z
loop_
_atom_site_type_symbol
_atom_site_label
_atom_site_fract_x
_atom_site_fract_y
_atom_site_fract_z
Si Si1 0.169030 0.666952 0.808424
Si Si2 0.888742 0.333102 0.080102
Si Si3 0.500000 0.337581 0.060646
Si Si4 0.691127 0.159504 0.941627
Si Si5 0.109056 0.828285 0.289346
O O1 0.165863 0.500000 0.792930
O O2 0.114453 0.677480 0.860466
O O3 0.123195 0.762641 0.765362
O O4 0.286197 0.709292 0.815902
O O5 0.870892 0.500000 0.067243
O O6 0.797764 0.236426 0.062608
O O7 0.000000 0.293255 0.062466
O O8 0.500000 0.500000 0.078743
O O9 0.399962 0.256505 0.077317
O O10 0.500000 0.342940 0.000000
O O11 0.692278 0.000000 0.919952
O O12 0.670804 0.145927 0.000000
O O13 0.000000 0.781204 0.308913
O O14 0.107405 0.000000 0.286949
#
# Coordination Sequence:
#
# PCOD9522903 Si02
#       5
#    16  16   8  16  16
#     4   9  18  33  51  73 103 137 175 218 265 316
#     4  10  21  36  53  76 107 143 185 230 273 322
#     4   9  17  33  59  85 107 135 173 213 259 319
#     4  10  21  37  57  81 110 142 177 221 272 324
#     4   9  17  30  50  75 102 133 171 215 264 318
#
# _framework density 21.297961999999998
#
# number of rings (size 3 to 8) (size 9 to 14) (size 15 to 20)
#    0.000    2.556    0.000    1.667    0.000    5.778 
#    2.000    2.222    0.000    0.000    0.000    0.000 
#    0.000    0.000    0.000    0.000    0.000    0.000 
#
# Total GULP energy -200963.363637 kJ/mol
# GULP energy per Si atom -5582.315657 kJ/mol
# Density = 2.124949 g / cm^3
# Si number density = 21.297962 Si / 1000 Ang^3
#
#
#
# Elastic Constant Matrix: (Units=GPa)
#
#
# Indices 1 2 3 4 5 6 
#
# 1 199.4252 89.5450 7.7858 0.0000 0.0000 0.0000
# 2 89.5450 103.2009 2.4321 0.0000 0.0000 0.0000
# 3 7.7858 2.4321 29.7077 0.0000 0.0000 0.0000
# 4 0.0000 0.0000 0.0000 19.5182 0.0000 0.0000
# 5 0.0000 0.0000 0.0000 0.0000 -101.9660 0.0000
# 6 0.0000 0.0000 0.0000 0.0000 0.0000 14.3321
#
#
#
# Elastic Compliance Matrix: (Units=1/GPa)
#
#
# Indices 1 2 3 4 5 6 
#
# 1 0.008289 -0.007155 -0.001587 0.000000 0.000000 0.000000
# 2 -0.007155 0.015884 0.000575 0.000000 0.000000 0.000000
# 3 -0.001587 0.000575 0.034030 0.000000 0.000000 0.000000
# 4 0.000000 0.000000 0.000000 0.051234 0.000000 0.000000
# 5 0.000000 0.000000 0.000000 0.000000 -0.009807 0.000000
# 6 0.000000 0.000000 0.000000 0.000000 0.000000 0.069773
#
#
# Mechanical properties :
#
#
# Convention : Reuss Voigt Hill
#
# Bulk Modulus (GPa) = 23.88341 59.09551 41.48946
# Shear Modulus (GPa) = 25.03831 1.88158 13.45995
#
# Velocity S-wave (km/s) = 3.43245 0.94094 2.51665
# Velocity P-wave (km/s) = 5.19107 5.38403 5.28843
#
# Compressibility (1/GPa) = 0.04187008
#
# Stress axis : x y z
#
# Youngs Moduli (GPa) = 120.64264 62.95527 29.38573
#
# Poissons Ratio (x) = 0.45043 0.04662
# Poissons Ratio (y) = 0.86317 -0.01689
# Poissons Ratio (z) = 0.19142 -0.03618
#
# Static dielectric constant tensor:
#      x y z
#    x 1.789270 0.000000 0.000000 
#    y 0.000000 1.738250 0.000000 
#    z 0.000000 0.000000 1.784470 
# 
# From -- ./inp_files/62868.got.cif
#   From: 2010.05.17/outbox.cif.g08.bks.cpg/sg71_32_cif.got.tgz:62868.got - 2010.06.03 16:22:01.
