data_PCOD9522829
_publ_section_title
;
Structure prediction by ZEFSAII (Michael W. Deem and Ramdas Pophale) SiO2 
 PCOD9522829
Probable space group: I M M M
;
_chemical_formula_sum "Si O2"
_cell_formula_units_Z 104
_cell_length_a 22.624436
_cell_length_b 8.735748
_cell_length_c 27.134871
_cell_angle_alpha 90.000000
_cell_angle_beta 90.000000
_cell_angle_gamma 90.000000
_cell_volume 5362.973121
_symmetry_space_group_name_H-M "I M M M"
_symmetry_group_IT_number 71
_symmetry_cell_setting 'orthorhombic'
loop_
_space_group_symop_operation_xyz
x,y,z
-x,-y,z
x,-y,-z
-x,y,-z
-x,-y,-z
x,y,-z
-x,y,z
x,-y,z
1/2+x,1/2+y,1/2+z
1/2-x,1/2-y,1/2+z
1/2+x,1/2-y,1/2-z
1/2-x,1/2+y,1/2-z
1/2-x,1/2-y,1/2-z
1/2+x,1/2+y,1/2-z
1/2-x,1/2+y,1/2+z
1/2+x,1/2-y,1/2+z
loop_
_atom_site_type_symbol
_atom_site_label
_atom_site_fract_x
_atom_site_fract_y
_atom_site_fract_z
Si Si1 0.064587 0.180262 0.153858
Si Si2 0.853649 0.683013 0.589087
Si Si3 0.599863 0.821956 0.557629
Si Si4 0.779164 0.172129 0.941117
Si Si5 0.430683 0.683661 0.000000
Si Si6 0.190615 0.817029 0.685520
Si Si7 0.822151 0.682787 0.794099
O O1 0.065834 0.216967 0.095792
O O2 0.119353 0.268567 0.177342
O O3 0.000000 0.226803 0.173493
O O4 0.072180 0.000000 0.162042
O O5 0.860567 0.500000 0.588260
O O6 0.786547 0.720230 0.572651
O O7 0.898076 0.753860 0.549099
O O8 0.852756 0.744329 0.644961
O O9 0.590013 0.785952 0.500000
O O10 0.668791 0.789881 0.569913
O O11 0.585658 0.000000 0.565314
O O12 0.791485 0.000000 0.920850
O O13 0.779488 0.158947 0.000000
O O14 0.426506 0.500000 0.000000
O O15 0.500000 0.726976 0.000000
O O16 0.176516 0.761611 0.740602
O O17 0.260267 0.771312 0.679285
O O18 0.186819 0.000000 0.682014
O O19 0.820034 0.500000 0.787980
#
# Coordination Sequence:
#
# PCOD9522829 Si02
#       7
#    16  16  16  16   8  16  16
#     4  11  24  40  58  80 110 153 197 237 286 342
#     4  11  21  36  59  88 118 153 197 241 290 350
#     4  10  21  35  53  81 114 149 191 239 286 331
#     4   9  17  31  51  79 113 148 184 226 278 332
#     4  11  25  43  61  83 117 161 204 249 304 365
#     4  10  21  37  61  93 125 154 187 236 298 356
#     4  10  21  39  63  91 120 153 193 240 295 350
#
# _framework density 19.392227999999999
#
# number of rings (size 3 to 8) (size 9 to 14) (size 15 to 20)
#    0.000    1.769    0.769    3.462    0.000    8.615 
#    0.000    2.308    0.000    4.615    0.000    0.000 
#    0.000    0.000    0.000    0.000    0.000    0.000 
#
# Total GULP energy -290318.585874 kJ/mol
# GULP energy per Si atom -5583.049728 kJ/mol
# Density = 1.934809 g / cm^3
# Si number density = 19.392228 Si / 1000 Ang^3
#
#
#
# Elastic Constant Matrix: (Units=GPa)
#
#
# Indices 1 2 3 4 5 6 
#
# 1 92.8873 27.7754 54.5812 0.0000 0.0000 0.0000
# 2 27.7754 28.0214 26.1430 0.0000 0.0000 0.0000
# 3 54.5812 26.1430 93.6790 0.0000 0.0000 0.0000
# 4 0.0000 0.0000 0.0000 33.7775 0.0000 0.0000
# 5 0.0000 0.0000 0.0000 0.0000 17.0885 0.0000
# 6 0.0000 0.0000 0.0000 0.0000 0.0000 23.6067
#
#
#
# Elastic Compliance Matrix: (Units=1/GPa)
#
#
# Indices 1 2 3 4 5 6 
#
# 1 0.018693 -0.011314 -0.007734 0.000000 0.000000 0.000000
# 2 -0.011314 0.055096 -0.008784 0.000000 0.000000 0.000000
# 3 -0.007734 -0.008784 0.017632 0.000000 0.000000 0.000000
# 4 0.000000 0.000000 0.000000 0.029606 0.000000 0.000000
# 5 0.000000 0.000000 0.000000 0.000000 0.058519 0.000000
# 6 0.000000 0.000000 0.000000 0.000000 0.000000 0.042361
#
#
# Mechanical properties :
#
#
# Convention : Reuss Voigt Hill
#
# Bulk Modulus (GPa) = 27.96530 47.95409 37.95970
# Shear Modulus (GPa) = 17.27170 21.96707 19.61939
#
# Velocity S-wave (km/s) = 2.98762 3.36933 3.18420
# Velocity P-wave (km/s) = 5.13355 6.31812 5.75639
#
# Compressibility (1/GPa) = 0.03575860
#
# Stress axis : x y z
#
# Youngs Moduli (GPa) = 53.49466 18.15000 56.71370
#
# Poissons Ratio (x) = 0.20534 0.43864
# Poissons Ratio (y) = 0.60521 0.49817
# Poissons Ratio (z) = 0.41374 0.15943
#
# Static dielectric constant tensor:
#      x y z
#    x 1.686460 0.000000 0.000000 
#    y 0.000000 1.665010 0.000000 
#    z 0.000000 0.000000 1.694130 
# 
# From -- ./inp_files/56267.got.cif
#   From: 2010.05.17/outbox.cif.g08.bks.cpg/sg71_29_cif.got.tgz:56267.got - 2010.06.03 16:22:01.
