data_PCOD9522803
_publ_section_title
;
Structure prediction by ZEFSAII (Michael W. Deem and Ramdas Pophale) SiO2 
 PCOD9522803
Probable space group: I M M M
;
_chemical_formula_sum "Si O2"
_cell_formula_units_Z 72
_cell_length_a 8.457181
_cell_length_b 32.711548
_cell_length_c 14.760047
_cell_angle_alpha 90.000000
_cell_angle_beta 90.000000
_cell_angle_gamma 90.000000
_cell_volume 4083.329840
_symmetry_space_group_name_H-M "I M M M"
_symmetry_group_IT_number 71
_symmetry_cell_setting 'orthorhombic'
loop_
_space_group_symop_operation_xyz
x,y,z
-x,-y,z
x,-y,-z
-x,y,-z
-x,-y,-z
x,y,-z
-x,y,z
x,-y,z
1/2+x,1/2+y,1/2+z
1/2-x,1/2-y,1/2+z
1/2+x,1/2-y,1/2-z
1/2-x,1/2+y,1/2-z
1/2-x,1/2-y,1/2-z
1/2+x,1/2+y,1/2-z
1/2-x,1/2+y,1/2+z
1/2+x,1/2-y,1/2+z
loop_
_atom_site_type_symbol
_atom_site_label
_atom_site_fract_x
_atom_site_fract_y
_atom_site_fract_z
Si Si1 0.189659 0.787910 0.809223
Si Si2 0.688249 0.165927 0.500000
Si Si3 0.677186 0.951810 0.500000
Si Si4 0.687527 0.545801 0.195972
Si Si5 0.687987 0.240737 0.000000
Si Si6 0.807893 0.866391 0.306501
O O1 0.250000 0.750000 0.750000
O O2 0.240234 0.829528 0.759403
O O3 0.000000 0.787083 0.810962
O O4 0.252911 0.781849 0.910098
O O5 0.500000 0.166983 0.500000
O O6 0.749965 0.212547 0.500000
O O7 0.746424 0.144029 0.592309
O O8 0.500000 0.932486 0.500000
O O9 0.777043 0.945722 0.590206
O O10 0.651245 0.000000 0.500000
O O11 0.500000 0.543491 0.211485
O O12 0.752537 0.500000 0.218319
O O13 0.745579 0.589463 0.233703
O O14 0.500000 0.242638 0.000000
O O15 0.000000 0.867047 0.311717
#
# Coordination Sequence:
#
# PCOD9522803 Si02
#       6
#    16   8   8  16   8  16
#     4  11  22  37  57  80 107 139 177 217 262 313
#     4  12  23  33  51  76 105 141 182 219 258 314
#     4   9  16  25  38  60  92 129 167 208 249 288
#     4   9  17  30  47  67  94 132 173 209 251 305
#     4  12  24  39  57  77 106 140 175 220 268 314
#     4  10  21  35  52  75 106 140 175 218 263 307
#
# _framework density 17.632667999999999
#
# number of rings (size 3 to 8) (size 9 to 14) (size 15 to 20)
#    0.000    1.667    2.222    3.667    0.000    5.778 
#    0.000    0.000    0.000    0.000    0.000    0.778 
#    0.000    6.222    0.000    0.000    0.000    0.000 
#
# Total GULP energy -200622.657564 kJ/mol
# GULP energy per Si atom -5572.851599 kJ/mol
# Density = 1.759253 g / cm^3
# Si number density = 17.632668 Si / 1000 Ang^3
#
#
#
# Elastic Constant Matrix: (Units=GPa)
#
#
# Indices 1 2 3 4 5 6 
#
# 1 37.6269 27.4995 18.5910 0.0000 0.0000 0.0000
# 2 27.4995 202.0715 64.5320 -0.0001 0.0000 0.0000
# 3 18.5910 64.5320 95.6884 0.0010 0.0000 0.0000
# 4 0.0000 -0.0001 0.0010 -96.2179 0.0001 0.0000
# 5 0.0000 0.0000 0.0000 0.0001 21.9942 0.0000
# 6 0.0000 0.0000 0.0000 0.0000 0.0000 16.8560
#
#
#
# Elastic Compliance Matrix: (Units=1/GPa)
#
#
# Indices 1 2 3 4 5 6 
#
# 1 0.030672 -0.002894 -0.004007 0.000000 0.000000 0.000000
# 2 -0.002894 0.006580 -0.003875 0.000000 0.000000 0.000000
# 3 -0.004007 -0.003875 0.013843 0.000000 0.000000 0.000000
# 4 0.000000 0.000000 0.000000 -0.010393 0.000000 0.000000
# 5 0.000000 0.000000 0.000000 0.000000 0.045467 0.000000
# 6 0.000000 0.000000 0.000000 0.000000 0.000000 0.059326
#
#
# Mechanical properties :
#
#
# Convention : Reuss Voigt Hill
#
# Bulk Modulus (GPa) = 33.85125 61.84796 47.84961
# Shear Modulus (GPa) = 28.26531 3.51074 15.88803
#
# Velocity S-wave (km/s) = 4.00810 1.41257 3.00502
# Velocity P-wave (km/s) = 6.37648 6.14918 6.26386
#
# Compressibility (1/GPa) = 0.02954101
#
# Stress axis : x y z
#
# Youngs Moduli (GPa) = 32.60307 151.97021 72.24045
#
# Poissons Ratio (x) = 0.43986 0.28948
# Poissons Ratio (y) = 0.09437 0.27996
# Poissons Ratio (z) = 0.13065 0.58894
#
# Static dielectric constant tensor:
#      x y z
#    x 1.631720 0.000000 0.000000 
#    y 0.000000 1.722710 0.000000 
#    z 0.000000 0.000000 1.661010 
# 
# From -- ./inp_files/31690.got.cif
#   From: 2010.05.17/outbox.cif.g08.bks.cpg/sg71_16_cif.got.tgz:31690.got - 2010.06.03 16:22:01.
