data_PCOD9522478
_publ_section_title
;
Structure prediction by ZEFSAII (Michael W. Deem and Ramdas Pophale) SiO2 
 PCOD9522478
Probable space group: I M M M
;
_chemical_formula_sum "Si O2"
_cell_formula_units_Z 48
_cell_length_a 12.144966
_cell_length_b 8.276386
_cell_length_c 22.362314
_cell_angle_alpha 90.000000
_cell_angle_beta 90.000000
_cell_angle_gamma 90.000000
_cell_volume 2247.779893
_symmetry_space_group_name_H-M "I M M M"
_symmetry_group_IT_number 71
_symmetry_cell_setting 'orthorhombic'
loop_
_space_group_symop_operation_xyz
x,y,z
-x,-y,z
x,-y,-z
-x,y,-z
-x,-y,-z
x,y,-z
-x,y,z
x,-y,z
1/2+x,1/2+y,1/2+z
1/2-x,1/2-y,1/2+z
1/2+x,1/2-y,1/2-z
1/2-x,1/2+y,1/2-z
1/2-x,1/2-y,1/2-z
1/2+x,1/2+y,1/2-z
1/2-x,1/2+y,1/2+z
1/2+x,1/2-y,1/2+z
loop_
_atom_site_type_symbol
_atom_site_label
_atom_site_fract_x
_atom_site_fract_y
_atom_site_fract_z
Si Si1 0.000000 0.816273 0.219647
Si Si2 0.760762 0.806737 0.064757
Si Si3 0.500000 0.186109 0.408655
Si Si4 0.125310 0.686494 0.324141
O O1 0.894912 0.781562 0.262433
O O2 0.000000 0.701466 0.163184
O O3 0.000000 0.000000 0.198703
O O4 0.703140 0.742706 0.124900
O O5 0.889624 0.770580 0.069062
O O6 0.742811 0.000000 0.066033
O O7 0.719971 0.746207 0.000000
O O8 0.500000 0.000000 0.426720
O O9 0.155771 0.500000 0.310657
O O10 0.000000 0.683055 0.349744
#
# Coordination Sequence:
#
# PCOD9522478 Si02
#       4
#     8  16   8  16
#     4  10  20  37  60  85 112 146 189 234 281 336
#     4  10  21  38  61  86 114 150 190 230 273 331
#     4  12  25  39  56  80 115 154 191 235 283 332
#     4   8  17  36  59  87 117 144 181 228 282 336
#
# _framework density 21.354406000000001
#
# number of rings (size 3 to 8) (size 9 to 14) (size 15 to 20)
#    1.000    1.333    0.000    3.000    0.000    6.000 
#    0.000    3.333    0.000    1.000    0.000    0.000 
#    0.000    0.000    0.000    0.000    0.000    0.000 
#
# Total GULP energy -133804.710182 kJ/mol
# GULP energy per Si atom -5575.196258 kJ/mol
# Density = 2.130580 g / cm^3
# Si number density = 21.354406 Si / 1000 Ang^3
#
#
#
# Elastic Constant Matrix: (Units=GPa)
#
#
# Indices 1 2 3 4 5 6 
#
# 1 29.8764 -8.4258 9.2735 0.0000 0.0000 0.0000
# 2 -8.4258 28.8690 3.6757 0.0000 0.0000 0.0000
# 3 9.2735 3.6757 114.4232 0.0000 0.0000 0.0000
# 4 0.0000 0.0000 0.0000 17.0555 0.0000 0.0000
# 5 0.0000 0.0000 0.0000 0.0000 -137.5656 0.0000
# 6 0.0000 0.0000 0.0000 0.0000 0.0000 16.9758
#
#
#
# Elastic Compliance Matrix: (Units=1/GPa)
#
#
# Indices 1 2 3 4 5 6 
#
# 1 0.037767 0.011460 -0.003429 0.000000 0.000000 0.000000
# 2 0.011460 0.038259 -0.002158 0.000000 0.000000 0.000000
# 3 -0.003429 -0.002158 0.009087 0.000000 0.000000 0.000000
# 4 0.000000 0.000000 0.000000 0.058632 0.000000 0.000000
# 5 0.000000 0.000000 0.000000 0.000000 -0.007269 0.000000
# 6 0.000000 0.000000 0.000000 0.000000 0.000000 0.058907
#
#
# Mechanical properties :
#
#
# Convention : Reuss Voigt Hill
#
# Bulk Modulus (GPa) = 10.32436 20.24613 15.28524
# Shear Modulus (GPa) = 23.15637 -9.46384 6.84627
#
# Velocity S-wave (km/s) = 3.29657 -2.10747 1.79248
# Velocity P-wave (km/s) = 4.39717 1.89201 3.38488
#
# Compressibility (1/GPa) = 0.09685834
#
# Stress axis : x y z
#
# Youngs Moduli (GPa) = 26.47784 26.13792 110.05087
#
# Poissons Ratio (x) = -0.29953 0.37736
# Poissons Ratio (y) = -0.30342 0.23746
# Poissons Ratio (z) = 0.09079 0.05640
#
# Static dielectric constant tensor:
#      x y z
#    x 1.778740 0.000000 0.000000 
#    y 0.000000 1.735550 0.000000 
#    z 0.000000 0.000000 1.824460 
# 
# From -- ./inp_files/30811.got.cif
#   From: 2010.05.17/outbox.cif.g08.bks.cpg/sg71_16_cif.got.tgz:30811.got - 2010.06.03 16:22:01.
