data_PCOD9522436
_publ_section_title
;
Structure prediction by ZEFSAII (Michael W. Deem and Ramdas Pophale) SiO2 
 PCOD9522436
Probable space group: I M M M
;
_chemical_formula_sum "Si O2"
_cell_formula_units_Z 104
_cell_length_a 20.071591
_cell_length_b 17.715407
_cell_length_c 17.233700
_cell_angle_alpha 90.000000
_cell_angle_beta 90.000000
_cell_angle_gamma 90.000000
_cell_volume 6127.897068
_symmetry_space_group_name_H-M "I M M M"
_symmetry_group_IT_number 71
_symmetry_cell_setting 'orthorhombic'
loop_
_space_group_symop_operation_xyz
x,y,z
-x,-y,z
x,-y,-z
-x,y,-z
-x,-y,-z
x,y,-z
-x,y,z
x,-y,z
1/2+x,1/2+y,1/2+z
1/2-x,1/2-y,1/2+z
1/2+x,1/2-y,1/2-z
1/2-x,1/2+y,1/2-z
1/2-x,1/2-y,1/2-z
1/2+x,1/2+y,1/2-z
1/2-x,1/2+y,1/2+z
1/2+x,1/2-y,1/2+z
loop_
_atom_site_type_symbol
_atom_site_label
_atom_site_fract_x
_atom_site_fract_y
_atom_site_fract_z
Si Si1 0.813210 0.089476 0.325637
Si Si2 0.420874 0.681035 0.092770
Si Si3 0.921193 0.590138 0.192561
Si Si4 0.636251 0.160719 0.850658
Si Si5 0.426522 0.089079 0.000000
Si Si6 0.718819 0.691333 0.688209
Si Si7 0.685416 0.169531 0.407620
O O1 0.879038 0.111085 0.373986
O O2 0.817501 0.129137 0.240785
O O3 0.750140 0.127973 0.369959
O O4 0.803413 0.000000 0.319829
O O5 0.500000 0.676683 0.107193
O O6 0.389026 0.754079 0.134780
O O7 0.410779 0.688535 0.000000
O O8 0.911716 0.500000 0.197701
O O9 0.892040 0.628743 0.270211
O O10 0.878791 0.623771 0.121845
O O11 0.000000 0.605154 0.186460
O O12 0.608873 0.114234 0.922411
O O13 0.715839 0.156565 0.850914
O O14 0.500000 0.125056 0.000000
O O15 0.431980 0.000000 0.000000
O O16 0.750000 0.750000 0.750000
O O17 0.681387 0.745732 0.628092
O O18 0.691771 0.171128 0.500000
#
# Coordination Sequence:
#
# PCOD9522436 Si02
#       7
#    16  16  16  16   8  16  16
#     4  11  22  38  59  81 111 150 190 233 285 341
#     4  11  22  35  55  84 115 149 188 230 279 335
#     4  11  23  37  55  82 116 151 187 232 284 337
#     4  12  20  36  58  80 113 154 194 233 278 334
#     4  11  24  36  52  84 121 157 192 229 281 349
#     4  10  20  37  58  81 106 137 192 240 272 322
#     4  11  22  38  60  82 109 148 194 237 281 336
#
# _framework density 16.971564999999998
#
# number of rings (size 3 to 8) (size 9 to 14) (size 15 to 20)
#    0.000    1.000    6.923    2.769    1.077    4.615 
#    0.000    1.538    0.000    0.000    0.000    0.000 
#    0.000    0.000    0.000    6.000    0.000    0.000 
#
# Total GULP energy -290270.906917 kJ/mol
# GULP energy per Si atom -5582.132825 kJ/mol
# Density = 1.693294 g / cm^3
# Si number density = 16.971565 Si / 1000 Ang^3
#
#
#
# Elastic Constant Matrix: (Units=GPa)
#
#
# Indices 1 2 3 4 5 6 
#
# 1 67.1786 27.0538 18.5087 0.0000 0.0000 0.0000
# 2 27.0538 91.3306 53.0252 0.0000 0.0000 0.0000
# 3 18.5087 53.0252 85.9314 0.0000 0.0000 0.0000
# 4 0.0000 0.0000 0.0000 6.7256 0.0000 0.0000
# 5 0.0000 0.0000 0.0000 0.0000 29.8024 0.0000
# 6 0.0000 0.0000 0.0000 0.0000 0.0000 25.3024
#
#
#
# Elastic Compliance Matrix: (Units=1/GPa)
#
#
# Indices 1 2 3 4 5 6 
#
# 1 0.016943 -0.004519 -0.000861 0.000000 0.000000 0.000000
# 2 -0.004519 0.018267 -0.010299 0.000000 0.000000 0.000000
# 3 -0.000861 -0.010299 0.018177 0.000000 0.000000 0.000000
# 4 0.000000 0.000000 0.000000 0.148686 0.000000 0.000000
# 5 0.000000 0.000000 0.000000 0.000000 0.033554 0.000000
# 6 0.000000 0.000000 0.000000 0.000000 0.000000 0.039522
#
#
# Mechanical properties :
#
#
# Convention : Reuss Voigt Hill
#
# Bulk Modulus (GPa) = 45.39159 49.06848 47.23003
# Shear Modulus (GPa) = 15.93117 22.08960 19.01038
#
# Velocity S-wave (km/s) = 3.06714 3.61164 3.35047
# Velocity P-wave (km/s) = 6.27271 6.80932 6.54651
#
# Compressibility (1/GPa) = 0.02203051
#
# Stress axis : x y z
#
# Youngs Moduli (GPa) = 59.02239 54.74335 55.01309
#
# Poissons Ratio (x) = 0.24739 0.04735
# Poissons Ratio (y) = 0.26672 0.56656
# Poissons Ratio (z) = 0.05080 0.56378
#
# Static dielectric constant tensor:
#      x y z
#    x 1.430760 0.000000 0.000000 
#    y 0.000000 1.605430 0.000000 
#    z 0.000000 0.000000 1.533560 
# 
# From -- ./inp_files/38073.got.cif
#   From: 2010.05.17/outbox.cif.g08.bks.cpg/sg71_20_cif.got.tgz:38073.got - 2010.06.03 16:22:01.
