data_PCOD9522426
_publ_section_title
;
Structure prediction by ZEFSAII (Michael W. Deem and Ramdas Pophale) SiO2 
 PCOD9522426
Probable space group: I M M M
;
_chemical_formula_sum "Si O2"
_cell_formula_units_Z 104
_cell_length_a 8.217359
_cell_length_b 32.680630
_cell_length_c 21.214694
_cell_angle_alpha 90.000000
_cell_angle_beta 90.000000
_cell_angle_gamma 90.000000
_cell_volume 5697.173595
_symmetry_space_group_name_H-M "I M M M"
_symmetry_group_IT_number 71
_symmetry_cell_setting 'orthorhombic'
loop_
_space_group_symop_operation_xyz
x,y,z
-x,-y,z
x,-y,-z
-x,y,-z
-x,-y,-z
x,y,-z
-x,y,z
x,-y,z
1/2+x,1/2+y,1/2+z
1/2-x,1/2-y,1/2+z
1/2+x,1/2-y,1/2-z
1/2-x,1/2+y,1/2-z
1/2-x,1/2-y,1/2-z
1/2+x,1/2+y,1/2-z
1/2-x,1/2+y,1/2+z
1/2+x,1/2-y,1/2+z
loop_
_atom_site_type_symbol
_atom_site_label
_atom_site_fract_x
_atom_site_fract_y
_atom_site_fract_z
Si Si1 0.191741 0.154543 0.676673
Si Si2 0.805715 0.135792 0.181066
Si Si3 0.500000 0.548384 0.932070
Si Si4 0.820418 0.568809 0.855233
Si Si5 0.191443 0.284254 0.927768
Si Si6 0.696385 0.454720 0.720459
Si Si7 0.191230 0.693178 0.429227
O O1 0.228693 0.157845 0.751489
O O2 0.303979 0.117373 0.654263
O O3 0.221584 0.191694 0.628917
O O4 0.000000 0.142607 0.673223
O O5 0.758489 0.087602 0.185358
O O6 0.727663 0.160023 0.123801
O O7 0.000000 0.136897 0.172702
O O8 0.500000 0.500000 0.937732
O O9 0.667200 0.558339 0.897741
O O10 0.500000 0.569145 0.000000
O O11 0.785353 0.548554 0.787497
O O12 0.000000 0.557618 0.878393
O O13 0.215794 0.235757 0.918486
O O14 0.000000 0.293892 0.925205
O O15 0.249159 0.293742 0.000000
O O16 0.500000 0.452470 0.731264
O O17 0.729680 0.500000 0.692572
O O18 0.232933 0.678476 0.500000
O O19 0.000000 0.703013 0.428100
#
# Coordination Sequence:
#
# PCOD9522426 Si02
#       7
#    16  16   8  16  16  16  16
#     4  10  20  37  57  81 114 146 180 230 287 337
#     4   9  19  34  55  83 111 143 182 226 279 334
#     4  11  24  40  54  72 104 144 187 237 287 337
#     4  11  21  36  57  80 107 144 187 232 286 347
#     4  10  21  36  55  80 108 143 190 236 276 331
#     4   9  17  33  57  83 112 142 176 225 283 338
#     4  10  21  37  56  78 107 146 187 226 277 339
#
# _framework density 18.254664999999999
#
# number of rings (size 3 to 8) (size 9 to 14) (size 15 to 20)
#    0.000    2.077    1.538    2.769    0.000    7.692 
#    0.000    0.769    0.000    0.462    0.000    3.231 
#    0.000    0.000    0.000    0.000    0.000    0.000 
#
# Total GULP energy -289850.469716 kJ/mol
# GULP energy per Si atom -5574.047495 kJ/mol
# Density = 1.821312 g / cm^3
# Si number density = 18.254665 Si / 1000 Ang^3
#
#
#
# Elastic Constant Matrix: (Units=GPa)
#
#
# Indices 1 2 3 4 5 6 
#
# 1 69.8221 15.8818 32.4027 0.0000 0.0000 0.0000
# 2 15.8818 85.5771 58.0960 0.0000 0.0000 0.0000
# 3 32.4027 58.0960 88.9415 0.0000 0.0000 0.0000
# 4 0.0000 0.0000 0.0000 14.4877 0.0000 0.0000
# 5 0.0000 0.0000 0.0000 0.0000 15.5202 0.0000
# 6 0.0000 0.0000 0.0000 0.0000 0.0000 20.2661
#
#
#
# Elastic Compliance Matrix: (Units=1/GPa)
#
#
# Indices 1 2 3 4 5 6 
#
# 1 0.017412 0.001932 -0.007605 0.000000 0.000000 0.000000
# 2 0.001932 0.021210 -0.014558 0.000000 0.000000 0.000000
# 3 -0.007605 -0.014558 0.023523 0.000000 0.000000 0.000000
# 4 0.000000 0.000000 0.000000 0.069024 0.000000 0.000000
# 5 0.000000 0.000000 0.000000 0.000000 0.064432 0.000000
# 6 0.000000 0.000000 0.000000 0.000000 0.000000 0.049343
#
#
# Mechanical properties :
#
#
# Convention : Reuss Voigt Hill
#
# Bulk Modulus (GPa) = 46.12089 50.78909 48.45499
# Shear Modulus (GPa) = 17.08616 19.25217 18.16916
#
# Velocity S-wave (km/s) = 3.06271 3.25105 3.15829
# Velocity P-wave (km/s) = 6.15037 6.47884 6.31674
#
# Compressibility (1/GPa) = 0.02168215
#
# Stress axis : x y z
#
# Youngs Moduli (GPa) = 57.43121 47.14802 42.51146
#
# Poissons Ratio (x) = -0.09107 0.32331
# Poissons Ratio (y) = -0.11093 0.61887
# Poissons Ratio (z) = 0.43677 0.68637
#
# Static dielectric constant tensor:
#      x y z
#    x 1.733000 0.000000 0.000000 
#    y 0.000000 1.639960 0.000000 
#    z 0.000000 0.000000 1.645980 
# 
# From -- ./inp_files/51133.got.cif
#   From: 2010.05.17/outbox.cif.g08.bks.cpg/sg71_26_cif.got.tgz:51133.got - 2010.06.03 16:22:01.
