data_PCOD9522016
_publ_section_title
;
Structure prediction by ZEFSAII (Michael W. Deem and Ramdas Pophale) SiO2 
 PCOD9522016
Probable space group: I M M M
;
_chemical_formula_sum "Si O2"
_cell_formula_units_Z 104
_cell_length_a 21.684475
_cell_length_b 29.217182
_cell_length_c 8.725430
_cell_angle_alpha 90.000000
_cell_angle_beta 90.000000
_cell_angle_gamma 90.000000
_cell_volume 5528.076910
_symmetry_space_group_name_H-M "I M M M"
_symmetry_group_IT_number 71
_symmetry_cell_setting 'orthorhombic'
loop_
_space_group_symop_operation_xyz
x,y,z
-x,-y,z
x,-y,-z
-x,y,-z
-x,-y,-z
x,y,-z
-x,y,z
x,-y,z
1/2+x,1/2+y,1/2+z
1/2-x,1/2-y,1/2+z
1/2+x,1/2-y,1/2-z
1/2-x,1/2+y,1/2-z
1/2-x,1/2-y,1/2-z
1/2+x,1/2+y,1/2-z
1/2-x,1/2+y,1/2+z
1/2+x,1/2-y,1/2+z
loop_
_atom_site_type_symbol
_atom_site_label
_atom_site_fract_x
_atom_site_fract_y
_atom_site_fract_z
Si Si1 0.621506 0.891102 0.681934
Si Si2 0.316721 0.300190 0.814861
Si Si3 0.733935 0.054841 0.820972
Si Si4 0.567668 0.359984 0.815365
Si Si5 0.374770 0.447515 0.315045
Si Si6 0.184462 0.693741 0.317183
Si Si7 0.500000 0.946676 0.312843
O O1 0.616729 0.886117 0.500000
O O2 0.681751 0.920533 0.724685
O O3 0.634085 0.841409 0.753888
O O4 0.561053 0.918874 0.736098
O O5 0.375619 0.328844 0.761678
O O6 0.252621 0.318089 0.745690
O O7 0.325239 0.246798 0.772321
O O8 0.312210 0.302640 0.000000
O O9 0.804096 0.064481 0.770904
O O10 0.726376 0.000000 0.813080
O O11 0.727659 0.068386 0.000000
O O12 0.500000 0.344009 0.765066
O O13 0.580041 0.411069 0.757681
O O14 0.568877 0.359450 0.000000
O O15 0.377569 0.445465 0.500000
O O16 0.386887 0.500000 0.269937
O O17 0.185131 0.691069 0.500000
O O18 0.500000 0.947664 0.500000
O O19 0.500000 0.000000 0.262621
#
# Coordination Sequence:
#
# PCOD9522016 Si02
#       7
#    16  16  16  16  16  16   8
#     4  11  21  34  54  79 107 142 183 225 270 324
#     4   9  19  37  58  81 107 140 177 216 267 325
#     4   9  18  33  53  78 107 136 171 221 274 317
#     4  10  21  36  53  75 104 137 175 215 256 303
#     4   9  19  35  53  75 105 139 173 211 257 310
#     4  10  20  35  57  84 110 136 171 221 276 324
#     4   9  20  38  55  73 105 149 191 229 272 325
#
# _framework density 18.813054000000001
#
# number of rings (size 3 to 8) (size 9 to 14) (size 15 to 20)
#    0.000    2.385    0.000    3.231    0.000    6.154 
#    1.385    4.615    0.000    2.769    0.000    0.000 
#    0.000    0.000    0.000    0.000    0.000    0.000 
#
# Total GULP energy -290244.678649 kJ/mol
# GULP energy per Si atom -5581.628436 kJ/mol
# Density = 1.877023 g / cm^3
# Si number density = 18.813054 Si / 1000 Ang^3
#
#
#
# Elastic Constant Matrix: (Units=GPa)
#
#
# Indices 1 2 3 4 5 6 
#
# 1 106.4710 69.2825 22.3947 0.0000 0.0000 0.0000
# 2 69.2825 93.2608 17.4413 0.0000 0.0000 0.0000
# 3 22.3947 17.4413 14.8304 0.0000 0.0000 0.0000
# 4 0.0000 0.0000 0.0000 29.7944 0.0000 0.0000
# 5 0.0000 0.0000 0.0000 0.0000 14.0181 0.0000
# 6 0.0000 0.0000 0.0000 0.0000 0.0000 26.1281
#
#
#
# Elastic Compliance Matrix: (Units=1/GPa)
#
#
# Indices 1 2 3 4 5 6 
#
# 1 0.021141 -0.012480 -0.017247 0.000000 0.000000 0.000000
# 2 -0.012480 0.021113 -0.005985 0.000000 0.000000 0.000000
# 3 -0.017247 -0.005985 0.100511 0.000000 0.000000 0.000000
# 4 0.000000 0.000000 0.000000 0.033563 0.000000 0.000000
# 5 0.000000 0.000000 0.000000 0.000000 0.071336 0.000000
# 6 0.000000 0.000000 0.000000 0.000000 0.000000 0.038273
#
#
# Mechanical properties :
#
#
# Convention : Reuss Voigt Hill
#
# Bulk Modulus (GPa) = 14.01701 48.08881 31.05291
# Shear Modulus (GPa) = 13.11853 21.01768 17.06811
#
# Velocity S-wave (km/s) = 2.64353 3.34606 3.01532
# Velocity P-wave (km/s) = 4.09689 6.36750 5.35395
#
# Compressibility (1/GPa) = 0.07134190
#
# Stress axis : x y z
#
# Youngs Moduli (GPa) = 47.30232 47.36425 9.94919
#
# Poissons Ratio (x) = 0.59109 0.17159
# Poissons Ratio (y) = 0.59032 0.05954
# Poissons Ratio (z) = 0.81581 0.28347
#
# Static dielectric constant tensor:
#      x y z
#    x 1.641120 0.000000 0.000000 
#    y 0.000000 1.659990 0.000000 
#    z 0.000000 0.000000 1.635640 
# 
# From -- ./inp_files/11055.got.cif
#   From: 2010.05.17/outbox.cif.g08.bks.cpg/sg71_6_cif.got.tgz:11055.got - 2010.06.03 16:22:01.
