data_PCOD9522880
_publ_section_title
;
Structure prediction by ZEFSAII (Michael W. Deem and Ramdas Pophale) SiO2 
 PCOD9522880
Probable space group: I M M M
;
_chemical_formula_sum "Si O2"
_cell_formula_units_Z 100
_cell_length_a 7.453072
_cell_length_b 29.560006
_cell_length_c 21.562154
_cell_angle_alpha 90.000000
_cell_angle_beta 90.000000
_cell_angle_gamma 90.000000
_cell_volume 4750.419665
_symmetry_space_group_name_H-M "I M M M"
_symmetry_group_IT_number 71
_symmetry_cell_setting 'orthorhombic'
loop_
_space_group_symop_operation_xyz
x,y,z
-x,-y,z
x,-y,-z
-x,y,-z
-x,-y,-z
x,y,-z
-x,y,z
x,-y,z
1/2+x,1/2+y,1/2+z
1/2-x,1/2-y,1/2+z
1/2+x,1/2-y,1/2-z
1/2-x,1/2+y,1/2-z
1/2-x,1/2-y,1/2-z
1/2+x,1/2+y,1/2-z
1/2-x,1/2+y,1/2+z
1/2+x,1/2-y,1/2+z
loop_
_atom_site_type_symbol
_atom_site_label
_atom_site_fract_x
_atom_site_fract_y
_atom_site_fract_z
Si Si1 0.000000 0.905332 0.000000
Si Si2 0.717110 0.799022 0.820390
Si Si3 0.290243 0.861177 0.568248
Si Si4 0.293402 0.114677 0.104968
Si Si5 0.709315 0.194346 0.682486
Si Si6 0.783239 0.051664 0.639393
Si Si7 0.216713 0.947125 0.221209
O O1 0.842619 0.903789 0.945756
O O2 0.500000 0.798329 0.818295
O O3 0.767524 0.835488 0.871883
O O4 0.784430 0.812896 0.751648
O O5 0.777894 0.747810 0.831189
O O6 0.212344 0.853687 0.500000
O O7 0.500000 0.848364 0.564792
O O8 0.209467 0.833309 0.625623
O O9 0.279559 0.913303 0.588297
O O10 0.500000 0.117185 0.083152
O O11 0.289604 0.083786 0.166679
O O12 0.500000 0.181609 0.686657
O O13 0.725899 0.066066 0.709012
O O14 0.000000 0.051786 0.639255
O O15 0.725033 0.000000 0.629445
O O16 0.000000 0.944402 0.219222
O O17 0.264633 0.000000 0.212472
#
# Coordination Sequence:
#
# PCOD9522880 Si02
#       7
#     4  16  16  16  16  16  16
#     4  12  26  44  61  88 124 166 204 234 299 364
#     4   9  19  35  57  86 113 141 192 252 298 345
#     4  10  21  36  51  76 114 155 199 241 287 350
#     4  11  23  41  63  89 121 159 203 249 294 359
#     4   9  18  34  56  82 113 149 191 241 297 357
#     4   9  19  35  57  85 114 148 193 242 292 352
#     4   9  18  36  62  91 119 148 191 246 302 355
#
# _framework density 21.05077
#
# number of rings (size 3 to 8) (size 9 to 14) (size 15 to 20)
#    0.000    2.400    0.800    2.160    1.120    3.840 
#    1.440    4.000    0.000    0.960    0.000    0.000 
#    0.000    0.000    0.000    0.000    0.000    0.000 
#
# Total GULP energy -278685.527767 kJ/mol
# GULP energy per Si atom -5573.710555 kJ/mol
# Density = 2.100286 g / cm^3
# Si number density = 21.050770 Si / 1000 Ang^3
#
#
#
# Elastic Constant Matrix: (Units=GPa)
#
#
# Indices 1 2 3 4 5 6 
#
# 1 85.0788 -4.9015 10.7472 0.0000 0.0000 0.0000
# 2 -4.9015 39.2963 29.2792 0.0000 0.0000 0.0000
# 3 10.7472 29.2792 90.8070 0.0000 0.0000 0.0000
# 4 0.0000 0.0000 0.0000 -0.2396 0.0000 0.0000
# 5 0.0000 0.0000 0.0000 0.0000 21.7303 0.0000
# 6 0.0000 0.0000 0.0000 0.0000 0.0000 9.1388
#
#
#
# Elastic Compliance Matrix: (Units=1/GPa)
#
#
# Indices 1 2 3 4 5 6 
#
# 1 0.012276 0.003440 -0.002562 0.000000 0.000000 0.000000
# 2 0.003440 0.034459 -0.011518 0.000000 0.000000 0.000000
# 3 -0.002562 -0.011518 0.015029 0.000001 0.000000 0.000000
# 4 0.000000 0.000000 0.000001 -4.172913 0.000000 0.000001
# 5 0.000000 0.000000 0.000000 0.000000 0.046019 0.000000
# 6 0.000000 0.000000 0.000000 0.000001 0.000000 0.109423
#
#
# Mechanical properties :
#
#
# Convention : Reuss Voigt Hill
#
# Bulk Modulus (GPa) = 24.70101 31.71465 28.20783
# Shear Modulus (GPa) = -1.27521 18.12971 8.42725
#
# Velocity S-wave (km/s) = -0.77916 2.93787 2.00300
# Velocity P-wave (km/s) = 3.30908 5.15816 4.33340
#
# Compressibility (1/GPa) = 0.04048417
#
# Stress axis : x y z
#
# Youngs Moduli (GPa) = 81.46211 29.02035 66.53664
#
# Poissons Ratio (x) = -0.09983 0.17047
# Poissons Ratio (y) = -0.28024 0.76635
# Poissons Ratio (z) = 0.20871 0.33425
#
# Static dielectric constant tensor:
#      x y z
#    x 1.792660 0.000000 0.000000 
#    y 0.000000 1.747980 0.000000 
#    z 0.000000 0.000000 1.747350 
# 
# From -- ./inp_files/51194.got.cif
#   From: 2010.05.17/outbox.cif.g08.bks.cpg/sg71_26_cif.got.tgz:51194.got - 2010.06.03 16:22:01.
