data_PCOD9522859
_publ_section_title
;
Structure prediction by ZEFSAII (Michael W. Deem and Ramdas Pophale) SiO2 
 PCOD9522859
Probable space group: I M M M
;
_chemical_formula_sum "Si O2"
_cell_formula_units_Z 96
_cell_length_a 14.236969
_cell_length_b 17.430357
_cell_length_c 20.325352
_cell_angle_alpha 90.000000
_cell_angle_beta 90.000000
_cell_angle_gamma 90.000000
_cell_volume 5043.846918
_symmetry_space_group_name_H-M "I M M M"
_symmetry_group_IT_number 71
_symmetry_cell_setting 'orthorhombic'
loop_
_space_group_symop_operation_xyz
x,y,z
-x,-y,z
x,-y,-z
-x,y,-z
-x,-y,-z
x,y,-z
-x,y,z
x,-y,z
1/2+x,1/2+y,1/2+z
1/2-x,1/2-y,1/2+z
1/2+x,1/2-y,1/2-z
1/2-x,1/2+y,1/2-z
1/2-x,1/2-y,1/2-z
1/2+x,1/2+y,1/2-z
1/2-x,1/2+y,1/2+z
1/2+x,1/2-y,1/2+z
loop_
_atom_site_type_symbol
_atom_site_label
_atom_site_fract_x
_atom_site_fract_y
_atom_site_fract_z
Si Si1 0.887184 0.225899 0.074708
Si Si2 0.253489 0.911378 0.922895
Si Si3 0.887260 0.307773 0.341341
Si Si4 0.610252 0.000000 0.352142
Si Si5 0.886903 0.667882 0.805065
Si Si6 0.887792 0.845497 0.576938
Si Si7 0.207822 0.000000 0.423403
O O1 0.835404 0.145086 0.085153
O O2 0.854983 0.285210 0.130807
O O3 0.000000 0.217186 0.078588
O O4 0.865253 0.252659 0.000000
O O5 0.335029 0.876906 0.877735
O O6 0.232841 0.000000 0.907882
O O7 0.281153 0.906613 0.000000
O O8 0.854574 0.302577 0.265728
O O9 0.867316 0.230041 0.381206
O O10 0.000000 0.319507 0.342198
O O11 0.631412 0.922480 0.312506
O O12 0.681056 0.000000 0.413005
O O13 0.500000 0.000000 0.370080
O O14 0.000000 0.676039 0.805391
O O15 0.862596 0.832528 0.500000
O O16 0.000000 0.859011 0.579311
O O17 0.836094 0.921278 0.603243
O O18 0.182347 0.000000 0.500000
#
# Coordination Sequence:
#
# PCOD9522859 Si02
#       7
#    16  16  16   8  16  16   8
#     4   9  19  38  62  83 109 146 185 230 281 329
#     4  10  22  37  55  85 117 145 186 233 275 329
#     4  10  21  37  59  82 112 151 185 228 280 332
#     4  10  22  38  53  78 113 147 185 230 274 330
#     4   9  20  38  58  81 110 146 191 230 274 332
#     4   9  18  35  58  84 114 148 186 227 273 327
#     4  10  21  35  56  85 113 147 186 227 276 330
#
# _framework density 19.033092
#
# number of rings (size 3 to 8) (size 9 to 14) (size 15 to 20)
#    0.000    2.500    0.000    0.750    3.500    4.167 
#    0.000    4.167    0.000    0.000    0.000    0.000 
#    0.000    0.000    0.000    0.000    0.000    0.000 
#
# Total GULP energy -267837.356850 kJ/mol
# GULP energy per Si atom -5579.944934 kJ/mol
# Density = 1.898977 g / cm^3
# Si number density = 19.033092 Si / 1000 Ang^3
#
#
#
# Elastic Constant Matrix: (Units=GPa)
#
#
# Indices 1 2 3 4 5 6 
#
# 1 66.4271 36.4194 36.0277 0.0000 0.0000 0.0000
# 2 36.4194 147.8067 94.1593 0.0001 0.0000 0.0000
# 3 36.0277 94.1593 118.1755 0.0001 0.0000 0.0000
# 4 0.0000 0.0001 0.0001 1461.9824 0.0000 0.0000
# 5 0.0000 0.0000 0.0000 0.0000 17.3301 0.0000
# 6 0.0000 0.0000 0.0000 0.0000 0.0000 28.6079
#
#
#
# Elastic Compliance Matrix: (Units=1/GPa)
#
#
# Indices 1 2 3 4 5 6 
#
# 1 0.018306 -0.001940 -0.004035 0.000000 0.000000 0.000000
# 2 -0.001940 0.013945 -0.010520 0.000000 0.000000 0.000000
# 3 -0.004035 -0.010520 0.018074 0.000000 0.000000 0.000000
# 4 0.000000 0.000000 0.000000 0.000684 0.000000 0.000000
# 5 0.000000 0.000000 0.000000 0.000000 0.057703 0.000000
# 6 0.000000 0.000000 0.000000 0.000000 0.000000 0.034955
#
#
# Mechanical properties :
#
#
# Convention : Reuss Voigt Hill
#
# Bulk Modulus (GPa) = 57.68482 73.95802 65.82142
# Shear Modulus (GPa) = 27.40689 312.63761 170.02225
#
# Velocity S-wave (km/s) = 3.79880 12.83030 9.46170
# Velocity P-wave (km/s) = 7.04376 16.07578 12.41059
#
# Compressibility (1/GPa) = 0.01733558
#
# Stress axis : x y z
#
# Youngs Moduli (GPa) = 54.62603 71.70990 55.32824
#
# Poissons Ratio (x) = 0.13912 0.22326
# Poissons Ratio (y) = 0.10598 0.58203
# Poissons Ratio (z) = 0.22043 0.75436
#
# Static dielectric constant tensor:
#      x y z
#    x 1.664900 0.000000 0.000000 
#    y 0.000000 1.646590 0.000000 
#    z 0.000000 0.000000 1.659100 
# 
# From -- ./inp_files/53021.got.cif
#   From: 2010.05.17/outbox.cif.g08.bks.cpg/sg71_27_cif.got.tgz:53021.got - 2010.06.03 16:22:01.
