data_PCOD9522845
_publ_section_title
;
Structure prediction by ZEFSAII (Michael W. Deem and Ramdas Pophale) SiO2 
 PCOD9522845
Probable space group: I M M M
;
_chemical_formula_sum "Si O2"
_cell_formula_units_Z 72
_cell_length_a 10.993238
_cell_length_b 13.940964
_cell_length_c 22.668885
_cell_angle_alpha 90.000000
_cell_angle_beta 90.000000
_cell_angle_gamma 90.000000
_cell_volume 3474.150238
_symmetry_space_group_name_H-M "I M M M"
_symmetry_group_IT_number 71
_symmetry_cell_setting 'orthorhombic'
loop_
_space_group_symop_operation_xyz
x,y,z
-x,-y,z
x,-y,-z
-x,y,-z
-x,-y,-z
x,y,-z
-x,y,z
x,-y,z
1/2+x,1/2+y,1/2+z
1/2-x,1/2-y,1/2+z
1/2+x,1/2-y,1/2-z
1/2-x,1/2+y,1/2-z
1/2-x,1/2-y,1/2-z
1/2+x,1/2+y,1/2-z
1/2-x,1/2+y,1/2+z
1/2+x,1/2-y,1/2+z
loop_
_atom_site_type_symbol
_atom_site_label
_atom_site_fract_x
_atom_site_fract_y
_atom_site_fract_z
Si Si1 0.134400 0.116050 0.253289
Si Si2 0.633028 0.115474 0.179902
Si Si3 0.500000 0.609130 0.571494
Si Si4 0.358416 0.611406 0.106599
Si Si5 0.756648 0.301266 0.432290
O O1 0.252178 0.150567 0.217911
O O2 0.146975 0.133364 0.323314
O O3 0.000000 0.149511 0.233409
O O4 0.133081 0.000000 0.247271
O O5 0.500000 0.146038 0.202192
O O6 0.650798 0.151175 0.113381
O O7 0.635811 0.000000 0.180411
O O8 0.500000 0.500000 0.594814
O O9 0.500000 0.603854 0.500000
O O10 0.623210 0.663518 0.587274
O O11 0.500000 0.623040 0.088639
O O12 0.325667 0.500000 0.097828
O O13 0.275394 0.687637 0.073672
O O14 0.775613 0.330792 0.500000
#
# Coordination Sequence:
#
# PCOD9522845 Si02
#       5
#    16  16   8  16  16
#     4   8  16  34  59  84 113 153 197 240 292 355
#     4  10  21  35  54  86 122 151 188 245 305 360
#     4   9  20  40  61  81 111 153 200 246 290 349
#     4   9  19  38  62  87 117 154 199 250 298 349
#     4  11  23  38  57  84 116 154 201 245 293 356
#
# _framework density 20.724492000000001
#
# number of rings (size 3 to 8) (size 9 to 14) (size 15 to 20)
#    0.000    2.556    0.000    2.667    1.556    4.444 
#    2.000    2.778    0.000    2.000    0.000    0.000 
#    0.000    0.000    0.000    0.000    0.000    0.000 
#
# Total GULP energy -201087.345885 kJ/mol
# GULP energy per Si atom -5585.759608 kJ/mol
# Density = 2.067732 g / cm^3
# Si number density = 20.724492 Si / 1000 Ang^3
#
#
#
# Elastic Constant Matrix: (Units=GPa)
#
#
# Indices 1 2 3 4 5 6 
#
# 1 141.4424 54.1219 42.1671 0.0000 0.0000 0.0000
# 2 54.1219 101.6191 16.3594 0.0000 0.0000 0.0000
# 3 42.1671 16.3594 47.6371 0.0000 0.0000 0.0000
# 4 0.0000 0.0000 0.0000 30.4309 0.0000 0.0000
# 5 0.0000 0.0000 0.0000 0.0000 95.7441 0.0000
# 6 0.0000 0.0000 0.0000 0.0000 0.0000 23.8942
#
#
#
# Elastic Compliance Matrix: (Units=1/GPa)
#
#
# Indices 1 2 3 4 5 6 
#
# 1 0.011396 -0.004706 -0.008472 0.000000 0.000000 0.000000
# 2 -0.004706 0.012360 -0.000079 0.000000 0.000000 0.000000
# 3 -0.008472 -0.000079 0.028518 0.000000 0.000000 0.000000
# 4 0.000000 0.000000 0.000000 0.032861 0.000000 0.000000
# 5 0.000000 0.000000 0.000000 0.000000 0.010445 0.000000
# 6 0.000000 0.000000 0.000000 0.000000 0.000000 0.041851
#
#
# Mechanical properties :
#
#
# Convention : Reuss Voigt Hill
#
# Bulk Modulus (GPa) = 38.81837 57.33282 48.07560
# Shear Modulus (GPa) = 28.98032 41.88385 35.43208
#
# Velocity S-wave (km/s) = 3.74352 4.50041 4.13930
# Velocity P-wave (km/s) = 6.12018 7.39792 6.78918
#
# Compressibility (1/GPa) = 0.02576100
#
# Stress axis : x y z
#
# Youngs Moduli (GPa) = 87.74861 80.90836 35.06552
#
# Poissons Ratio (x) = 0.38073 0.29706
# Poissons Ratio (y) = 0.41292 0.00277
# Poissons Ratio (z) = 0.74337 0.00640
#
# Static dielectric constant tensor:
#      x y z
#    x 1.740960 0.000000 0.000000 
#    y 0.000000 1.757280 0.000000 
#    z 0.000000 0.000000 1.746630 
# 
# From -- ./inp_files/62864.got.cif
#   From: 2010.05.17/outbox.cif.g08.bks.cpg/sg71_32_cif.got.tgz:62864.got - 2010.06.03 16:22:01.
