data_PCOD9522647
_publ_section_title
;
Structure prediction by ZEFSAII (Michael W. Deem and Ramdas Pophale) SiO2 
 PCOD9522647
Probable space group: I M M M
;
_chemical_formula_sum "Si O2"
_cell_formula_units_Z 64
_cell_length_a 9.633841
_cell_length_b 31.024743
_cell_length_c 11.126374
_cell_angle_alpha 90.000000
_cell_angle_beta 90.000000
_cell_angle_gamma 90.000000
_cell_volume 3325.533454
_symmetry_space_group_name_H-M "I M M M"
_symmetry_group_IT_number 71
_symmetry_cell_setting 'orthorhombic'
loop_
_space_group_symop_operation_xyz
x,y,z
-x,-y,z
x,-y,-z
-x,y,-z
-x,-y,-z
x,y,-z
-x,y,z
x,-y,z
1/2+x,1/2+y,1/2+z
1/2-x,1/2-y,1/2+z
1/2+x,1/2-y,1/2-z
1/2-x,1/2+y,1/2-z
1/2-x,1/2-y,1/2-z
1/2+x,1/2+y,1/2-z
1/2-x,1/2+y,1/2+z
1/2+x,1/2-y,1/2+z
loop_
_atom_site_type_symbol
_atom_site_label
_atom_site_fract_x
_atom_site_fract_y
_atom_site_fract_z
Si Si1 0.500000 0.196353 0.363752
Si Si2 0.159038 0.500000 0.640994
Si Si3 0.701885 0.659088 0.861792
Si Si4 0.500000 0.262443 0.141309
Si Si5 0.161189 0.929179 0.732664
Si Si6 0.343253 0.051229 0.500000
O O1 0.500000 0.216656 0.500000
O O2 0.364653 0.166911 0.357052
O O3 0.500000 0.228003 0.248670
O O4 0.142655 0.500000 0.500000
O O5 0.250366 0.458050 0.675635
O O6 0.000000 0.500000 0.695051
O O7 0.629668 0.705164 0.842734
O O8 0.660153 0.622908 0.765584
O O9 0.662811 0.646589 0.000000
O O10 0.500000 0.247095 0.000000
O O11 0.250735 0.936909 0.613230
O O12 0.000000 0.943324 0.727214
O O13 0.500000 0.069627 0.500000
O O14 0.356436 0.000000 0.500000
#
# Coordination Sequence:
#
# PCOD9522647 Si02
#       6
#     8   8  16   8  16   8
#     4  10  22  38  60  91 122 163 209 258 317 378
#     4  11  27  48  65  84 123 171 211 255 308 375
#     4  10  21  36  61  92 124 156 200 256 310 370
#     4  10  20  40  62  87 124 163 203 256 321 384
#     4  12  23  38  64  93 124 160 205 257 314 368
#     4  11  23  35  57  95 130 158 196 250 310 366
#
# _framework density 19.245031999999998
#
# number of rings (size 3 to 8) (size 9 to 14) (size 15 to 20)
#    0.000    1.250    3.750    2.250    3.500    1.500 
#    0.000    2.500    0.000    0.000    0.000    0.000 
#    0.000    0.000    0.000    0.000    0.000    0.000 
#
# Total GULP energy -178313.219906 kJ/mol
# GULP energy per Si atom -5572.288122 kJ/mol
# Density = 1.920123 g / cm^3
# Si number density = 19.245032 Si / 1000 Ang^3
#
#
#
# Elastic Constant Matrix: (Units=GPa)
#
#
# Indices 1 2 3 4 5 6 
#
# 1 187.6122 26.2831 33.2913 0.0000 -0.0001 0.0001
# 2 26.2831 79.0171 42.0459 0.0001 -0.0001 0.0000
# 3 33.2913 42.0459 93.6234 0.0002 -0.0054 -0.0005
# 4 0.0000 0.0001 0.0002 -39.4890 0.0005 0.0001
# 5 -0.0001 -0.0001 -0.0054 0.0005 115.1200 -0.0024
# 6 0.0001 0.0000 -0.0005 0.0001 -0.0024 19.9141
#
#
#
# Elastic Compliance Matrix: (Units=1/GPa)
#
#
# Indices 1 2 3 4 5 6 
#
# 1 0.005759 -0.001085 -0.001560 0.000000 0.000000 0.000000
# 2 -0.001085 0.016834 -0.007174 0.000000 0.000000 0.000000
# 3 -0.001560 -0.007174 0.014458 0.000000 0.000001 0.000000
# 4 0.000000 0.000000 0.000000 -0.025323 0.000000 0.000000
# 5 0.000000 0.000000 0.000001 0.000000 0.008687 0.000001
# 6 0.000000 0.000000 0.000000 0.000000 0.000001 0.050216
#
#
# Mechanical properties :
#
#
# Convention : Reuss Voigt Hill
#
# Bulk Modulus (GPa) = 57.43464 62.61038 60.02251
# Shear Modulus (GPa) = 52.04377 36.35119 44.19748
#
# Velocity S-wave (km/s) = 5.20590 4.35082 4.79745
# Velocity P-wave (km/s) = 8.12674 7.60548 7.87043
#
# Compressibility (1/GPa) = 0.01741109
#
# Stress axis : x y z
#
# Youngs Moduli (GPa) = 173.63879 59.40395 69.16666
#
# Poissons Ratio (x) = 0.06447 0.10793
# Poissons Ratio (y) = 0.18845 0.49621
# Poissons Ratio (z) = 0.27096 0.42617
#
# Static dielectric constant tensor:
#      x y z
#    x 1.738930 0.000000 0.000000 
#    y 0.000000 1.775970 0.000000 
#    z 0.000000 0.000000 1.690510 
# 
# From -- ./inp_files/16216.got.cif
#   From: 2010.05.17/outbox.cif.g08.bks.cpg/sg71_9_cif.got.tgz:16216.got - 2010.06.03 16:22:01.
