data_PCOD9522045
_publ_section_title
;
Structure prediction by ZEFSAII (Michael W. Deem and Ramdas Pophale) SiO2 
 PCOD9522045
Probable space group: I M M M
;
_chemical_formula_sum "Si O2"
_cell_formula_units_Z 88
_cell_length_a 8.752936
_cell_length_b 20.520128
_cell_length_c 24.638584
_cell_angle_alpha 90.000000
_cell_angle_beta 90.000000
_cell_angle_gamma 90.000000
_cell_volume 4425.369756
_symmetry_space_group_name_H-M "I M M M"
_symmetry_group_IT_number 71
_symmetry_cell_setting 'orthorhombic'
loop_
_space_group_symop_operation_xyz
x,y,z
-x,-y,z
x,-y,-z
-x,y,-z
-x,-y,-z
x,y,-z
-x,y,z
x,-y,z
1/2+x,1/2+y,1/2+z
1/2-x,1/2-y,1/2+z
1/2+x,1/2-y,1/2-z
1/2-x,1/2+y,1/2-z
1/2-x,1/2-y,1/2-z
1/2+x,1/2+y,1/2-z
1/2-x,1/2+y,1/2+z
1/2+x,1/2-y,1/2+z
loop_
_atom_site_type_symbol
_atom_site_label
_atom_site_fract_x
_atom_site_fract_y
_atom_site_fract_z
Si Si1 0.183173 0.500000 0.936257
Si Si2 0.181113 0.876592 0.627487
Si Si3 0.817389 0.616527 0.439255
Si Si4 0.675432 0.759886 0.436347
Si Si5 0.183337 0.070713 0.169198
Si Si6 0.184986 0.822803 0.255338
O O1 0.240177 0.436651 0.903357
O O2 0.000000 0.500000 0.937092
O O3 0.234770 0.500000 0.000000
O O4 0.222573 0.811335 0.594935
O O5 0.229694 0.860104 0.689169
O O6 0.000000 0.888554 0.627708
O O7 0.777023 0.593068 0.500000
O O8 0.742826 0.687716 0.431996
O O9 0.755486 0.574538 0.390052
O O10 0.000000 0.621695 0.436396
O O11 0.674343 0.777171 0.500000
O O12 0.500000 0.761244 0.416455
O O13 0.234829 0.131341 0.205580
O O14 0.000000 0.075252 0.164278
O O15 0.218827 0.000000 0.194398
O O16 0.250000 0.750000 0.250000
O O17 0.000000 0.818424 0.255226
#
# Coordination Sequence:
#
# PCOD9522045 Si02
#       6
#     8  16  16  16  16  16
#     4  11  25  43  61  87 125 167 212 259 310 375
#     4  11  23  38  61  89 120 158 202 254 310 367
#     4  10  21  37  58  86 120 154 192 242 298 354
#     4  10  20  35  57  85 118 155 197 246 297 353
#     4  10  22  40  62  85 115 156 199 243 294 356
#     4  10  23  41  63  90 121 157 200 252 306 362
#
# _framework density 19.885345000000001
#
# number of rings (size 3 to 8) (size 9 to 14) (size 15 to 20)
#    0.000    1.727    0.000    3.545    1.273   10.909 
#    0.000    1.818    0.000    0.000    0.000    0.000 
#    0.000    0.000    0.000    0.000    0.000    0.000 
#
# Total GULP energy -245802.827727 kJ/mol
# GULP energy per Si atom -5586.427903 kJ/mol
# Density = 1.984008 g / cm^3
# Si number density = 19.885345 Si / 1000 Ang^3
#
#
#
# Elastic Constant Matrix: (Units=GPa)
#
#
# Indices 1 2 3 4 5 6 
#
# 1 33.3632 25.9952 34.4725 0.0000 0.0000 0.0000
# 2 25.9952 101.0970 74.6331 0.0000 0.0000 0.0000
# 3 34.4725 74.6331 124.5671 0.0000 0.0000 0.0000
# 4 0.0000 0.0000 0.0000 25.5137 0.0000 0.0000
# 5 0.0000 0.0000 0.0000 0.0000 27.5781 0.0000
# 6 0.0000 0.0000 0.0000 0.0000 0.0000 24.7330
#
#
#
# Elastic Compliance Matrix: (Units=1/GPa)
#
#
# Indices 1 2 3 4 5 6 
#
# 1 0.042887 -0.004063 -0.009434 0.000000 0.000000 0.000000
# 2 -0.004063 0.018121 -0.009733 0.000000 0.000000 0.000000
# 3 -0.009434 -0.009733 0.016470 0.000000 0.000000 0.000000
# 4 0.000000 0.000000 0.000000 0.039195 0.000000 0.000000
# 5 0.000000 0.000000 0.000000 0.000000 0.036261 0.000000
# 6 0.000000 0.000000 0.000000 0.000000 0.000000 0.040432
#
#
# Mechanical properties :
#
#
# Convention : Reuss Voigt Hill
#
# Bulk Modulus (GPa) = 32.23925 58.80321 45.52123
# Shear Modulus (GPa) = 19.98689 23.82672 21.90681
#
# Velocity S-wave (km/s) = 3.17378 3.46527 3.32272
# Velocity P-wave (km/s) = 5.44778 6.75619 6.13695
#
# Compressibility (1/GPa) = 0.03101809
#
# Stress axis : x y z
#
# Youngs Moduli (GPa) = 23.31728 55.18384 60.71686
#
# Poissons Ratio (x) = 0.22421 0.57281
# Poissons Ratio (y) = 0.09474 0.59094
# Poissons Ratio (z) = 0.21998 0.53709
#
# Static dielectric constant tensor:
#      x y z
#    x 1.674530 0.000000 0.000000 
#    y 0.000000 1.686720 0.000000 
#    z 0.000000 0.000000 1.734850 
# 
# From -- ./inp_files/50516.got.cif
#   From: 2010.05.17/outbox.cif.g08.bks.cpg/sg71_26_cif.got.tgz:50516.got - 2010.06.03 16:22:01.
