data_PCOD9522470
_publ_section_title
;
Structure prediction by ZEFSAII (Michael W. Deem and Ramdas Pophale) SiO2 
 PCOD9522470
Probable space group: I M M M
;
_chemical_formula_sum "Si O2"
_cell_formula_units_Z 82
_cell_length_a 9.314876
_cell_length_b 20.022716
_cell_length_c 25.218164
_cell_angle_alpha 90.000000
_cell_angle_beta 90.000000
_cell_angle_gamma 90.000000
_cell_volume 4703.417493
_symmetry_space_group_name_H-M "I M M M"
_symmetry_group_IT_number 71
_symmetry_cell_setting 'orthorhombic'
loop_
_space_group_symop_operation_xyz
x,y,z
-x,-y,z
x,-y,-z
-x,y,-z
-x,-y,-z
x,y,-z
-x,y,z
x,-y,z
1/2+x,1/2+y,1/2+z
1/2-x,1/2-y,1/2+z
1/2+x,1/2-y,1/2-z
1/2-x,1/2+y,1/2-z
1/2-x,1/2-y,1/2-z
1/2+x,1/2+y,1/2-z
1/2-x,1/2+y,1/2+z
1/2+x,1/2-y,1/2+z
loop_
_atom_site_type_symbol
_atom_site_label
_atom_site_fract_x
_atom_site_fract_y
_atom_site_fract_z
Si Si1 0.841645 0.639145 0.500000
Si Si2 0.168661 0.802686 0.901091
Si Si3 0.668911 0.920857 0.290219
Si Si4 0.829560 0.076103 0.500000
Si Si5 0.827231 0.186498 0.777855
Si Si6 0.165368 0.356803 0.094038
Si Si7 0.500000 0.000000 0.000000
O O1 0.758254 0.661673 0.552865
O O2 0.000000 0.672550 0.500000
O O3 0.877113 0.560259 0.500000
O O4 0.209149 0.818613 0.840301
O O5 0.183735 0.722701 0.905210
O O6 0.000000 0.818787 0.908103
O O7 0.500000 0.911359 0.276141
O O8 0.769581 0.879494 0.251043
O O9 0.688482 0.888896 0.348355
O O10 0.697795 0.000000 0.290937
O O11 0.769894 0.111929 0.448375
O O12 0.000000 0.076940 0.500000
O O13 0.778043 0.000000 0.500000
O O14 0.750000 0.250000 0.750000
O O15 0.000000 0.194278 0.773452
O O16 0.000000 0.370875 0.078874
#
# Coordination Sequence:
#
# PCOD9522470 Si02
#       7
#     8  16  16   8  16  16   2
#     4  10  22  42  65  88 121 154 199 247 316 364
#     4  10  21  39  64  92 118 152 201 257 299 361
#     4  10  21  39  60  86 121 163 203 246 301 365
#     4  11  24  37  49  78 119 154 193 241 293 350
#     4  11  22  39  62  89 125 160 204 253 309 365
#     4  10  20  37  60  83 114 153 200 246 294 351
#     4   8  24  48  62  88 132 160 192 268 312 390
#
# _framework density 17.434132000000002
#
# number of rings (size 3 to 8) (size 9 to 14) (size 15 to 20)
#    0.293    1.463    1.951    2.341    0.000    7.415 
#    1.756    0.976    0.000    0.000    0.000    0.000 
#    0.000    0.000    0.000    0.000    0.000    0.000 
#
# Total GULP energy -228556.702002 kJ/mol
# GULP energy per Si atom -5574.553707 kJ/mol
# Density = 1.739445 g / cm^3
# Si number density = 17.434132 Si / 1000 Ang^3
#
#
#
# Elastic Constant Matrix: (Units=GPa)
#
#
# Indices 1 2 3 4 5 6 
#
# 1 78.5942 57.3443 80.8048 0.0000 0.0000 0.0000
# 2 57.3443 97.7578 60.4075 0.0000 0.0000 0.0000
# 3 80.8048 60.4075 127.9334 0.0000 0.0000 0.0000
# 4 0.0000 0.0000 0.0000 22.0211 0.0000 0.0000
# 5 0.0000 0.0000 0.0000 0.0000 29.4375 0.0000
# 6 0.0000 0.0000 0.0000 0.0000 0.0000 34.2245
#
#
#
# Elastic Compliance Matrix: (Units=1/GPa)
#
#
# Indices 1 2 3 4 5 6 
#
# 1 0.044969 -0.012464 -0.022518 0.000000 0.000000 0.000000
# 2 -0.012464 0.017898 -0.000579 0.000000 0.000000 0.000000
# 3 -0.022518 -0.000579 0.022312 0.000000 0.000000 0.000000
# 4 0.000000 0.000000 0.000000 0.045411 0.000000 0.000000
# 5 0.000000 0.000000 0.000000 0.000000 0.033970 0.000000
# 6 0.000000 0.000000 0.000000 0.000000 0.000000 0.029219
#
#
# Mechanical properties :
#
#
# Convention : Reuss Voigt Hill
#
# Bulk Modulus (GPa) = 71.13156 77.93318 74.53237
# Shear Modulus (GPa) = 18.54689 24.18521 21.36605
#
# Velocity S-wave (km/s) = 3.26517 3.72860 3.50455
# Velocity P-wave (km/s) = 7.42320 7.95834 7.69542
#
# Compressibility (1/GPa) = 0.01405846
#
# Stress axis : x y z
#
# Youngs Moduli (GPa) = 22.23761 55.87104 44.81820
#
# Poissons Ratio (x) = 0.69639 1.00920
# Poissons Ratio (y) = 0.27717 0.02593
# Poissons Ratio (z) = 0.50074 0.03233
#
# Static dielectric constant tensor:
#      x y z
#    x 1.591080 0.000000 0.000000 
#    y 0.000000 1.576040 0.000000 
#    z 0.000000 0.000000 1.565020 
# 
# From -- ./inp_files/57490.got.cif
#   From: 2010.05.17/outbox.cif.g08.bks.cpg/sg71_29_cif.got.tgz:57490.got - 2010.06.03 16:22:01.
