data_PCOD9522092
_publ_section_title
;
Structure prediction by ZEFSAII (Michael W. Deem and Ramdas Pophale) SiO2 
 PCOD9522092
Probable space group: I M M M
;
_chemical_formula_sum "Si O2"
_cell_formula_units_Z 88
_cell_length_a 17.842394
_cell_length_b 23.203264
_cell_length_c 12.311369
_cell_angle_alpha 90.000000
_cell_angle_beta 90.000000
_cell_angle_gamma 90.000000
_cell_volume 5096.928660
_symmetry_space_group_name_H-M "I M M M"
_symmetry_group_IT_number 71
_symmetry_cell_setting 'orthorhombic'
loop_
_space_group_symop_operation_xyz
x,y,z
-x,-y,z
x,-y,-z
-x,y,-z
-x,-y,-z
x,y,-z
-x,y,z
x,-y,z
1/2+x,1/2+y,1/2+z
1/2-x,1/2-y,1/2+z
1/2+x,1/2-y,1/2-z
1/2-x,1/2+y,1/2-z
1/2-x,1/2-y,1/2-z
1/2+x,1/2+y,1/2-z
1/2-x,1/2+y,1/2+z
1/2+x,1/2-y,1/2+z
loop_
_atom_site_type_symbol
_atom_site_label
_atom_site_fract_x
_atom_site_fract_y
_atom_site_fract_z
Si Si1 0.585427 0.661423 0.128905
Si Si2 0.338226 0.242435 0.272117
Si Si3 0.915824 0.398340 0.000000
Si Si4 0.712498 0.568131 0.871847
Si Si5 0.500000 0.931264 0.876499
Si Si6 0.641745 0.894518 0.267491
Si Si7 0.088091 0.258286 0.000000
O O1 0.500000 0.650175 0.162662
O O2 0.617588 0.717164 0.189154
O O3 0.639740 0.607220 0.148386
O O4 0.586287 0.672187 0.000000
O O5 0.250000 0.250000 0.250000
O O6 0.356438 0.174762 0.261074
O O7 0.366818 0.259541 0.392450
O O8 0.883155 0.416754 0.886099
O O9 0.912663 0.328358 0.000000
O O10 0.000000 0.418063 0.000000
O O11 0.698465 0.500000 0.869055
O O12 0.772392 0.584102 0.777146
O O13 0.735503 0.581898 0.000000
O O14 0.422918 0.913663 0.815485
O O15 0.500000 0.000000 0.880034
O O16 0.500000 0.908432 0.000000
O O17 0.000000 0.240552 0.000000
#
# Coordination Sequence:
#
# PCOD9522092 Si02
#       7
#    16  16   8  16   8  16   8
#     4  10  22  38  57  85 121 155 190 233 286 348
#     4  11  22  35  59  85 117 150 184 235 291 343
#     4   9  16  30  54  82 108 133 176 232 285 326
#     4  10  20  35  58  86 114 146 190 243 294 341
#     4  11  26  43  55  75 115 160 198 236 279 340
#     4  11  20  36  58  82 111 148 188 236 288 341
#     4   9  20  34  54  80 113 151 183 224 286 344
#
# _framework density 17.265298999999999
#
# number of rings (size 3 to 8) (size 9 to 14) (size 15 to 20)
#    0.000    1.727    3.636    1.091    3.818    1.091 
#    0.000    2.273    0.000    0.000    0.000    0.000 
#    0.000    2.182    0.000    0.000    0.000    0.000 
#
# Total GULP energy -245045.591074 kJ/mol
# GULP energy per Si atom -5569.217979 kJ/mol
# Density = 1.722600 g / cm^3
# Si number density = 17.265299 Si / 1000 Ang^3
#
#
#
# Elastic Constant Matrix: (Units=GPa)
#
#
# Indices 1 2 3 4 5 6 
#
# 1 156.4079 43.3158 72.8927 0.0000 0.0000 0.0000
# 2 43.3158 78.9554 33.2296 0.0000 0.0000 0.0000
# 3 72.8927 33.2296 84.4278 0.0000 0.0000 0.0000
# 4 0.0000 0.0000 0.0000 23.8448 0.0000 0.0000
# 5 0.0000 0.0000 0.0000 0.0000 22.2881 0.0000
# 6 0.0000 0.0000 0.0000 0.0000 0.0000 13.2223
#
#
#
# Elastic Compliance Matrix: (Units=1/GPa)
#
#
# Indices 1 2 3 4 5 6 
#
# 1 0.011083 -0.002461 -0.008600 0.000000 0.000000 0.000000
# 2 -0.002461 0.015726 -0.004065 0.000000 0.000000 0.000000
# 3 -0.008600 -0.004065 0.020870 0.000000 0.000000 0.000000
# 4 0.000000 0.000000 0.000000 0.041938 0.000000 0.000000
# 5 0.000000 0.000000 0.000000 0.000000 0.044867 0.000000
# 6 0.000000 0.000000 0.000000 0.000000 0.000000 0.075630
#
#
# Mechanical properties :
#
#
# Convention : Reuss Voigt Hill
#
# Bulk Modulus (GPa) = 57.38325 68.74083 63.06204
# Shear Modulus (GPa) = 20.31075 23.22791 21.76933
#
# Velocity S-wave (km/s) = 3.43358 3.67188 3.55473
# Velocity P-wave (km/s) = 7.00197 7.60775 7.31114
#
# Compressibility (1/GPa) = 0.01742669
#
# Stress axis : x y z
#
# Youngs Moduli (GPa) = 90.22692 63.58808 47.91625
#
# Poissons Ratio (x) = 0.15647 0.41210
# Poissons Ratio (y) = 0.22202 0.19478
# Poissons Ratio (z) = 0.77599 0.25849
#
# Static dielectric constant tensor:
#      x y z
#    x 1.638130 0.000000 0.000000 
#    y 0.000000 1.569270 0.000000 
#    z 0.000000 0.000000 1.601680 
# 
# From -- ./inp_files/23995.got.cif
#   From: 2010.05.17/outbox.cif.g08.bks.cpg/sg71_12_cif.got.tgz:23995.got - 2010.06.03 16:22:01.
