data_PCOD9522204
_publ_section_title
;
Structure prediction by ZEFSAII (Michael W. Deem and Ramdas Pophale) SiO2 
 PCOD9522204
Probable space group: I M M M
;
_chemical_formula_sum "Si O2"
_cell_formula_units_Z 72
_cell_length_a 10.827917
_cell_length_b 23.881565
_cell_length_c 14.437139
_cell_angle_alpha 90.000000
_cell_angle_beta 90.000000
_cell_angle_gamma 90.000000
_cell_volume 3733.265178
_symmetry_space_group_name_H-M "I M M M"
_symmetry_group_IT_number 71
_symmetry_cell_setting 'orthorhombic'
loop_
_space_group_symop_operation_xyz
x,y,z
-x,-y,z
x,-y,-z
-x,y,-z
-x,-y,-z
x,y,-z
-x,y,z
x,-y,z
1/2+x,1/2+y,1/2+z
1/2-x,1/2-y,1/2+z
1/2+x,1/2-y,1/2-z
1/2-x,1/2+y,1/2-z
1/2-x,1/2-y,1/2-z
1/2+x,1/2+y,1/2-z
1/2-x,1/2+y,1/2+z
1/2+x,1/2-y,1/2+z
loop_
_atom_site_type_symbol
_atom_site_label
_atom_site_fract_x
_atom_site_fract_y
_atom_site_fract_z
Si Si1 0.854851 0.743680 0.395860
Si Si2 0.140041 0.369366 0.705454
Si Si3 0.500000 0.563881 0.887821
Si Si4 0.747492 0.632348 0.892643
Si Si5 0.136458 0.066649 0.110524
O O1 0.830882 0.720980 0.500000
O O2 0.831588 0.695073 0.322342
O O3 0.783361 0.801651 0.386773
O O4 0.000000 0.758053 0.391081
O O5 0.151205 0.378932 0.815133
O O6 0.246692 0.405070 0.657446
O O7 0.000000 0.381132 0.673298
O O8 0.500000 0.500000 0.852083
O O9 0.624367 0.597642 0.865024
O O10 0.500000 0.561190 0.000000
O O11 0.777549 0.619332 0.000000
O O12 0.000000 0.086481 0.143320
O O13 0.141305 0.000000 0.125267
O O14 0.141531 0.076333 0.000000
#
# Coordination Sequence:
#
# PCOD9522204 Si02
#       5
#    16  16   8  16  16
#     4   9  17  33  56  81 112 150 194 244 296 348
#     4  11  23  35  54  87 120 155 195 234 290 355
#     4   9  18  34  58  84 103 133 192 252 295 338
#     4  10  20  36  56  79 113 156 197 242 293 342
#     4   9  20  40  63  86 114 149 191 242 294 342
#
# _framework density 19.286066000000002
#
# number of rings (size 3 to 8) (size 9 to 14) (size 15 to 20)
#    0.000    2.333    1.111    2.000    1.556    3.111 
#    0.000    2.222    0.000    1.333    0.000    4.667 
#    0.000    0.000    0.000    0.000    0.000    0.000 
#
# Total GULP energy -200813.421602 kJ/mol
# GULP energy per Si atom -5578.150600 kJ/mol
# Density = 1.924217 g / cm^3
# Si number density = 19.286066 Si / 1000 Ang^3
#
#
#
# Elastic Constant Matrix: (Units=GPa)
#
#
# Indices 1 2 3 4 5 6 
#
# 1 106.3544 48.0742 42.4523 0.0000 0.0000 0.0000
# 2 48.0742 53.1274 28.6118 0.0000 0.0000 0.0000
# 3 42.4523 28.6118 68.0177 0.0001 0.0000 0.0000
# 4 0.0000 0.0000 0.0001 2.3357 0.0000 0.0000
# 5 0.0000 0.0000 0.0000 0.0000 26.5775 0.0000
# 6 0.0000 0.0000 0.0000 0.0000 0.0000 25.9788
#
#
#
# Elastic Compliance Matrix: (Units=1/GPa)
#
#
# Indices 1 2 3 4 5 6 
#
# 1 0.017349 -0.012758 -0.005462 0.000000 0.000000 0.000000
# 2 -0.012758 0.033717 -0.006221 0.000000 0.000000 0.000000
# 3 -0.005462 -0.006221 0.020728 -0.000001 0.000000 0.000000
# 4 0.000000 0.000000 -0.000001 0.428129 0.000000 0.000000
# 5 0.000000 0.000000 0.000000 0.000000 0.037626 0.000000
# 6 0.000000 0.000000 0.000000 0.000000 0.000000 0.038493
#
#
# Mechanical properties :
#
#
# Convention : Reuss Voigt Hill
#
# Bulk Modulus (GPa) = 43.64174 51.75290 47.69732
# Shear Modulus (GPa) = 7.90439 18.20250 13.05344
#
# Velocity S-wave (km/s) = 2.02667 3.07549 2.60442
# Velocity P-wave (km/s) = 5.30606 6.28523 5.81629
#
# Compressibility (1/GPa) = 0.02291385
#
# Stress axis : x y z
#
# Youngs Moduli (GPa) = 57.63887 29.65852 48.24467
#
# Poissons Ratio (x) = 0.37838 0.26350
# Poissons Ratio (y) = 0.73534 0.30011
# Poissons Ratio (z) = 0.31481 0.18449
#
# Static dielectric constant tensor:
#      x y z
#    x 1.654640 0.000000 0.000000 
#    y 0.000000 1.652190 0.000000 
#    z 0.000000 0.000000 1.724910 
# 
# From -- ./inp_files/14334.got.cif
#   From: 2010.05.17/outbox.cif.g08.bks.cpg/sg71_8_cif.got.tgz:14334.got - 2010.06.03 16:22:01.
