data_PCOD9522748
_publ_section_title
;
Structure prediction by ZEFSAII (Michael W. Deem and Ramdas Pophale) SiO2 
 PCOD9522748
Probable space group: I M M M
;
_chemical_formula_sum "Si O2"
_cell_formula_units_Z 48
_cell_length_a 7.908199
_cell_length_b 27.773312
_cell_length_c 13.385726
_cell_angle_alpha 90.000000
_cell_angle_beta 90.000000
_cell_angle_gamma 90.000000
_cell_volume 2939.999071
_symmetry_space_group_name_H-M "I M M M"
_symmetry_group_IT_number 71
_symmetry_cell_setting 'orthorhombic'
loop_
_space_group_symop_operation_xyz
x,y,z
-x,-y,z
x,-y,-z
-x,y,-z
-x,-y,-z
x,y,-z
-x,y,z
x,-y,z
1/2+x,1/2+y,1/2+z
1/2-x,1/2-y,1/2+z
1/2+x,1/2-y,1/2-z
1/2-x,1/2+y,1/2-z
1/2-x,1/2-y,1/2-z
1/2+x,1/2+y,1/2-z
1/2-x,1/2+y,1/2+z
1/2+x,1/2-y,1/2+z
loop_
_atom_site_type_symbol
_atom_site_label
_atom_site_fract_x
_atom_site_fract_y
_atom_site_fract_z
Si Si1 0.500000 0.710220 0.882427
Si Si2 0.814784 0.858340 0.246074
Si Si3 0.795338 0.555418 0.114735
Si Si4 0.000000 0.674868 0.617837
O O1 0.658001 0.684747 0.826856
O O2 0.500000 0.767313 0.868918
O O3 0.500000 0.699462 0.000000
O O4 0.779396 0.906457 0.308816
O O5 0.664837 0.846568 0.171498
O O6 0.000000 0.861968 0.196162
O O7 0.747860 0.500000 0.136021
O O8 0.000000 0.558255 0.118978
O O9 0.744966 0.566186 0.000000
O O10 0.000000 0.664683 0.500000
#
# Coordination Sequence:
#
# PCOD9522748 Si02
#       4
#     8  16  16   8
#     4   9  20  36  56  84 113 140 176 222 279 334
#     4  10  21  34  57  80 110 142 181 221 269 327
#     4   9  17  31  54  84 116 146 174 212 275 344
#     4  11  22  40  56  73 109 151 190 233 265 303
#
# _framework density 16.326536999999998
#
# number of rings (size 3 to 8) (size 9 to 14) (size 15 to 20)
#    1.000    1.333    1.667    3.000    0.000    1.333 
#    0.000    1.667    0.000    2.000    0.000    2.333 
#    0.000    0.000    0.000    0.000    0.000    0.000 
#
# Total GULP energy -133676.032003 kJ/mol
# GULP energy per Si atom -5569.834667 kJ/mol
# Density = 1.628938 g / cm^3
# Si number density = 16.326537 Si / 1000 Ang^3
#
#
#
# Elastic Constant Matrix: (Units=GPa)
#
#
# Indices 1 2 3 4 5 6 
#
# 1 117.9771 54.5570 73.4902 0.0000 0.0000 0.0000
# 2 54.5570 97.9552 71.9846 0.0001 0.0000 0.0000
# 3 73.4902 71.9846 113.6438 0.0003 0.0000 0.0000
# 4 0.0000 0.0001 0.0003 27.6577 0.0000 0.0001
# 5 0.0000 0.0000 0.0000 0.0000 4.0844 0.0000
# 6 0.0000 0.0000 0.0000 0.0001 0.0000 59.9249
#
#
#
# Elastic Compliance Matrix: (Units=1/GPa)
#
#
# Indices 1 2 3 4 5 6 
#
# 1 0.014445 -0.002209 -0.007942 0.000000 0.000000 0.000000
# 2 -0.002209 0.019437 -0.010883 0.000000 0.000000 0.000000
# 3 -0.007942 -0.010883 0.020829 0.000000 0.000000 0.000000
# 4 0.000000 0.000000 0.000000 0.036156 0.000000 0.000000
# 5 0.000000 0.000000 0.000000 0.000000 0.244834 0.000000
# 6 0.000000 0.000000 0.000000 0.000000 0.000000 0.016688
#
#
# Mechanical properties :
#
#
# Convention : Reuss Voigt Hill
#
# Bulk Modulus (GPa) = 79.09867 81.07107 80.08487
# Shear Modulus (GPa) = 12.54166 26.96969 19.75568
#
# Velocity S-wave (km/s) = 2.77461 4.06876 3.48233
# Velocity P-wave (km/s) = 7.66927 8.47566 8.08253
#
# Compressibility (1/GPa) = 0.01264244
#
# Stress axis : x y z
#
# Youngs Moduli (GPa) = 69.22878 51.44862 48.01004
#
# Poissons Ratio (x) = 0.11364 0.38129
# Poissons Ratio (y) = 0.15292 0.52251
# Poissons Ratio (z) = 0.54981 0.55993
#
# Static dielectric constant tensor:
#      x y z
#    x 1.566920 0.000000 0.000000 
#    y 0.000000 1.535800 0.000000 
#    z 0.000000 0.000000 1.510830 
# 
# From -- ./inp_files/13874.got.cif
#   From: 2010.05.17/outbox.cif.g08.bks.cpg/sg71_7_cif.got.tgz:13874.got - 2010.06.03 16:22:01.
