data_PCOD9522335
_publ_section_title
;
Structure prediction by ZEFSAII (Michael W. Deem and Ramdas Pophale) SiO2 
 PCOD9522335
Probable space group: I M M M
;
_chemical_formula_sum "Si O2"
_cell_formula_units_Z 100
_cell_length_a 16.072559
_cell_length_b 16.042637
_cell_length_c 19.593722
_cell_angle_alpha 90.000000
_cell_angle_beta 90.000000
_cell_angle_gamma 90.000000
_cell_volume 5052.167343
_symmetry_space_group_name_H-M "I M M M"
_symmetry_group_IT_number 71
_symmetry_cell_setting 'orthorhombic'
loop_
_space_group_symop_operation_xyz
x,y,z
-x,-y,z
x,-y,-z
-x,y,-z
-x,-y,-z
x,y,-z
-x,y,z
x,-y,z
1/2+x,1/2+y,1/2+z
1/2-x,1/2-y,1/2+z
1/2+x,1/2-y,1/2-z
1/2-x,1/2+y,1/2-z
1/2-x,1/2-y,1/2-z
1/2+x,1/2+y,1/2-z
1/2-x,1/2+y,1/2+z
1/2+x,1/2-y,1/2+z
loop_
_atom_site_type_symbol
_atom_site_label
_atom_site_fract_x
_atom_site_fract_y
_atom_site_fract_z
Si Si1 0.151199 0.135161 0.704635
Si Si2 0.176556 0.907037 0.918529
Si Si3 0.098433 0.763580 0.833011
Si Si4 0.863942 0.593004 0.637526
Si Si5 0.000000 0.000000 0.714115
Si Si6 0.841450 0.591885 0.203563
Si Si7 0.595515 0.266145 0.923425
O O1 0.142295 0.202691 0.764549
O O2 0.074165 0.072236 0.712940
O O3 0.241535 0.094513 0.709392
O O4 0.144671 0.181804 0.632418
O O5 0.123010 0.830617 0.890513
O O6 0.266100 0.903171 0.881956
O O7 0.140750 0.000000 0.902775
O O8 0.187506 0.901825 0.000000
O O9 0.128799 0.669060 0.841888
O O10 0.000000 0.764011 0.823210
O O11 0.892994 0.500000 0.618396
O O12 0.874654 0.603045 0.718811
O O13 0.903650 0.669611 0.598028
O O14 0.867269 0.500000 0.179596
O O15 0.500000 0.295737 0.922164
O O16 0.628524 0.275167 0.000000
#
# Coordination Sequence:
#
# PCOD9522335 Si02
#       7
#    16  16  16  16   4  16  16
#     4  12  22  41  61  92 119 156 204 251 304 363
#     4  10  22  39  61  92 125 156 195 248 311 372
#     4  12  24  38  63  90 122 162 206 250 300 363
#     4  10  20  36  59  86 119 160 203 245 300 362
#     4  12  24  36  69  92 121 154 200 260 300 368
#     4  11  23  39  64  91 123 161 204 258 303 350
#     4  11  23  38  56  83 123 161 199 250 303 358
#
# _framework density 19.793486000000001
#
# number of rings (size 3 to 8) (size 9 to 14) (size 15 to 20)
#    0.000    0.960    5.600    1.920    1.120    2.240 
#    0.000    4.000    0.000    1.440    0.000    1.120 
#    0.000    0.000    0.000    0.000    0.000    0.000 
#
# Total GULP energy -278866.274972 kJ/mol
# GULP energy per Si atom -5577.325499 kJ/mol
# Density = 1.974843 g / cm^3
# Si number density = 19.793486 Si / 1000 Ang^3
#
#
#
# Elastic Constant Matrix: (Units=GPa)
#
#
# Indices 1 2 3 4 5 6 
#
# 1 32.3136 8.4330 -3.8448 0.0000 0.0000 0.0000
# 2 8.4330 134.7948 29.9219 0.0000 0.0000 0.0000
# 3 -3.8448 29.9219 64.4527 0.0000 0.0000 0.0000
# 4 0.0000 0.0000 0.0000 22.5375 0.0000 0.0000
# 5 0.0000 0.0000 0.0000 0.0000 14.6776 0.0000
# 6 0.0000 0.0000 0.0000 0.0000 0.0000 27.8547
#
#
#
# Elastic Compliance Matrix: (Units=1/GPa)
#
#
# Indices 1 2 3 4 5 6 
#
# 1 0.032030 -0.002707 0.003167 0.000000 0.000000 0.000000
# 2 -0.002707 0.008500 -0.004107 0.000000 0.000000 0.000000
# 3 0.003167 -0.004107 0.017611 0.000000 0.000000 0.000000
# 4 0.000000 0.000000 0.000000 0.044371 0.000000 0.000000
# 5 0.000000 0.000000 0.000000 0.000000 0.068131 0.000000
# 6 0.000000 0.000000 0.000000 0.000000 0.000000 0.035901
#
#
# Mechanical properties :
#
#
# Convention : Reuss Voigt Hill
#
# Bulk Modulus (GPa) = 19.66690 33.39792 26.53241
# Shear Modulus (GPa) = 21.66509 26.15069 23.90789
#
# Velocity S-wave (km/s) = 3.31200 3.63874 3.47921
# Velocity P-wave (km/s) = 4.95816 5.87909 5.43816
#
# Compressibility (1/GPa) = 0.05084686
#
# Stress axis : x y z
#
# Youngs Moduli (GPa) = 31.22069 117.64955 56.78238
#
# Poissons Ratio (x) = 0.31847 -0.17985
# Poissons Ratio (y) = 0.08451 0.23323
# Poissons Ratio (z) = -0.09889 0.48324
#
# Static dielectric constant tensor:
#      x y z
#    x 1.707740 0.000000 0.000000 
#    y 0.000000 1.729140 0.000000 
#    z 0.000000 0.000000 1.674140 
# 
# From -- ./inp_files/54119.got.cif
#   From: 2010.05.17/outbox.cif.g08.bks.cpg/sg71_28_cif.got.tgz:54119.got - 2010.06.03 16:22:01.
