data_PCOD9522152
_publ_section_title
;
Structure prediction by ZEFSAII (Michael W. Deem and Ramdas Pophale) SiO2 
 PCOD9522152
Probable space group: I M M M
;
_chemical_formula_sum "Si O2"
_cell_formula_units_Z 88
_cell_length_a 25.132578
_cell_length_b 7.757072
_cell_length_c 20.628852
_cell_angle_alpha 90.000000
_cell_angle_beta 90.000000
_cell_angle_gamma 90.000000
_cell_volume 4021.702320
_symmetry_space_group_name_H-M "I M M M"
_symmetry_group_IT_number 71
_symmetry_cell_setting 'orthorhombic'
loop_
_space_group_symop_operation_xyz
x,y,z
-x,-y,z
x,-y,-z
-x,y,-z
-x,-y,-z
x,y,-z
-x,y,z
x,-y,z
1/2+x,1/2+y,1/2+z
1/2-x,1/2-y,1/2+z
1/2+x,1/2-y,1/2-z
1/2-x,1/2+y,1/2-z
1/2-x,1/2-y,1/2-z
1/2+x,1/2+y,1/2-z
1/2-x,1/2+y,1/2+z
1/2+x,1/2-y,1/2+z
loop_
_atom_site_type_symbol
_atom_site_label
_atom_site_fract_x
_atom_site_fract_y
_atom_site_fract_z
Si Si1 0.441304 0.291558 0.110056
Si Si2 0.253288 0.292314 0.326078
Si Si3 0.367427 0.292159 0.626193
Si Si4 0.061786 0.704301 0.000000
Si Si5 0.326690 0.204706 0.068979
Si Si6 0.940886 0.209720 0.759103
O O1 0.500000 0.234509 0.087764
O O2 0.441569 0.500000 0.108635
O O3 0.389585 0.231396 0.073241
O O4 0.434391 0.235084 0.184981
O O5 0.253730 0.500000 0.327941
O O6 0.250000 0.250000 0.250000
O O7 0.306687 0.232440 0.363782
O O8 0.203165 0.225885 0.367677
O O9 0.365733 0.500000 0.628271
O O10 0.402597 0.250610 0.563020
O O11 0.398233 0.227593 0.689965
O O12 0.056544 0.500000 0.000000
O O13 0.000000 0.774641 0.000000
O O14 0.316979 0.000000 0.068272
O O15 0.306924 0.275804 0.000000
O O16 0.000000 0.259099 0.781077
O O17 0.938837 0.000000 0.758231
#
# Coordination Sequence:
#
# PCOD9522152 Si02
#       6
#    16  16  16   8  16  16
#     4   9  18  34  57  84 112 142 183 235 284 331
#     4  10  22  39  62  89 117 151 193 244 295 347
#     4  10  20  35  60  85 108 149 200 242 284 346
#     4  11  25  41  55  81 123 161 194 245 312 367
#     4  10  22  38  55  78 114 154 188 226 278 340
#     4   8  14  27  50  80 108 133 172 229 282 326
#
# _framework density 21.881281999999999
#
# number of rings (size 3 to 8) (size 9 to 14) (size 15 to 20)
#    0.000    2.455    0.000    3.000    1.273    5.455 
#    0.000    2.727    0.000    1.091    0.000    0.000 
#    0.000    0.000    0.000    0.000    0.000    0.000 
#
# Total GULP energy -245477.571090 kJ/mol
# GULP energy per Si atom -5579.035707 kJ/mol
# Density = 2.183148 g / cm^3
# Si number density = 21.881282 Si / 1000 Ang^3
#
#
#
# Elastic Constant Matrix: (Units=GPa)
#
#
# Indices 1 2 3 4 5 6 
#
# 1 148.6269 8.0285 87.0206 0.0000 0.0000 0.0000
# 2 8.0285 33.0684 7.6760 0.0000 0.0000 0.0000
# 3 87.0206 7.6760 140.1635 0.0000 0.0000 0.0000
# 4 0.0000 0.0000 0.0000 16.4803 0.0000 0.0000
# 5 0.0000 0.0000 0.0000 0.0000 10.4967 0.0000
# 6 0.0000 0.0000 0.0000 0.0000 0.0000 16.8502
#
#
#
# Elastic Compliance Matrix: (Units=1/GPa)
#
#
# Indices 1 2 3 4 5 6 
#
# 1 0.010607 -0.001060 -0.006528 0.000000 0.000000 0.000000
# 2 -0.001060 0.030736 -0.001025 0.000000 0.000000 0.000000
# 3 -0.006528 -0.001025 0.011243 0.000000 0.000000 0.000000
# 4 0.000000 0.000000 0.000000 0.060678 0.000000 0.000000
# 5 0.000000 0.000000 0.000000 0.000000 0.095268 0.000000
# 6 0.000000 0.000000 0.000000 0.000000 0.000000 0.059346
#
#
# Mechanical properties :
#
#
# Convention : Reuss Voigt Hill
#
# Bulk Modulus (GPa) = 28.27978 58.58988 43.43483
# Shear Modulus (GPa) = 16.84116 23.37437 20.10777
#
# Velocity S-wave (km/s) = 2.77729 3.27193 3.03470
# Velocity P-wave (km/s) = 4.82044 6.41159 5.67209
#
# Compressibility (1/GPa) = 0.03536095
#
# Stress axis : x y z
#
# Youngs Moduli (GPa) = 94.27408 32.53547 88.94201
#
# Poissons Ratio (x) = 0.03449 0.58057
# Poissons Ratio (y) = 0.09994 0.09117
# Poissons Ratio (z) = 0.61538 0.03335
#
# Static dielectric constant tensor:
#      x y z
#    x 1.817890 0.000000 0.000000 
#    y 0.000000 1.816720 0.000000 
#    z 0.000000 0.000000 1.809220 
# 
# From -- ./inp_files/50515.got.cif
#   From: 2010.05.17/outbox.cif.g08.bks.cpg/sg71_26_cif.got.tgz:50515.got - 2010.06.03 16:22:01.
