data_PCOD9522106
_publ_section_title
;
Structure prediction by ZEFSAII (Michael W. Deem and Ramdas Pophale) SiO2 
 PCOD9522106
Probable space group: I M M M
;
_chemical_formula_sum "Si O2"
_cell_formula_units_Z 64
_cell_length_a 8.536920
_cell_length_b 26.694759
_cell_length_c 15.170122
_cell_angle_alpha 90.000000
_cell_angle_beta 90.000000
_cell_angle_gamma 90.000000
_cell_volume 3457.134606
_symmetry_space_group_name_H-M "I M M M"
_symmetry_group_IT_number 71
_symmetry_cell_setting 'orthorhombic'
loop_
_space_group_symop_operation_xyz
x,y,z
-x,-y,z
x,-y,-z
-x,y,-z
-x,-y,-z
x,y,-z
-x,y,z
x,-y,z
1/2+x,1/2+y,1/2+z
1/2-x,1/2-y,1/2+z
1/2+x,1/2-y,1/2-z
1/2-x,1/2+y,1/2-z
1/2-x,1/2-y,1/2-z
1/2+x,1/2+y,1/2-z
1/2-x,1/2+y,1/2+z
1/2+x,1/2-y,1/2+z
loop_
_atom_site_type_symbol
_atom_site_label
_atom_site_fract_x
_atom_site_fract_y
_atom_site_fract_z
Si Si1 0.810641 0.826349 0.000000
Si Si2 0.810741 0.108438 0.830605
Si Si3 0.690495 0.943568 0.500000
Si Si4 0.191049 0.000000 0.103108
Si Si5 0.812251 0.637414 0.141539
Si Si6 0.186150 0.786076 0.500000
O O1 0.763368 0.857494 0.086465
O O2 0.743142 0.770824 0.000000
O O3 0.000000 0.823346 0.000000
O O4 0.758364 0.051203 0.849256
O O5 0.747802 0.131088 0.740110
O O6 0.000000 0.107993 0.827267
O O7 0.500000 0.945178 0.500000
O O8 0.737571 0.911529 0.585196
O O9 0.749859 0.000000 0.500000
O O10 0.000000 0.000000 0.102726
O O11 0.238664 0.000000 0.000000
O O12 0.749203 0.684442 0.085964
O O13 0.000000 0.639960 0.140999
O O14 0.000000 0.788345 0.500000
#
# Coordination Sequence:
#
# PCOD9522106 Si02
#       6
#     8  16   8   8  16   8
#     4  10  21  38  60  84 113 152 195 236 285 336
#     4  10  20  35  58  87 118 153 193 235 278 335
#     4   8  16  32  52  75 106 145 184 221 270 332
#     4   9  16  32  57  84 117 156 193 231 280 332
#     4  10  21  37  58  83 116 152 187 232 286 343
#     4  11  23  41  63  83 110 145 189 245 293 337
#
# _framework density 18.512440999999999
#
# number of rings (size 3 to 8) (size 9 to 14) (size 15 to 20)
#    0.000    2.250    1.250    2.625    1.750    2.000 
#    0.000    0.000    0.000    3.000    0.000    0.000 
#    0.000    0.000    0.000    0.000    0.000    0.000 
#
# Total GULP energy -178626.123290 kJ/mol
# GULP energy per Si atom -5582.066353 kJ/mol
# Density = 1.847031 g / cm^3
# Si number density = 18.512441 Si / 1000 Ang^3
#
#
#
# Elastic Constant Matrix: (Units=GPa)
#
#
# Indices 1 2 3 4 5 6 
#
# 1 31.4571 43.4662 43.7236 0.0000 0.0000 0.0000
# 2 43.4662 191.0542 104.1434 0.0002 0.0000 0.0000
# 3 43.7236 104.1434 197.5650 0.0007 0.0000 0.0000
# 4 0.0000 0.0002 0.0007 2.2335 0.0000 0.0000
# 5 0.0000 0.0000 0.0000 0.0000 23.2378 0.0000
# 6 0.0000 0.0000 0.0000 0.0000 0.0000 15.2394
#
#
#
# Elastic Compliance Matrix: (Units=1/GPa)
#
#
# Indices 1 2 3 4 5 6 
#
# 1 0.053423 -0.008011 -0.007600 0.000002 0.000000 0.000000
# 2 -0.008011 0.008546 -0.002732 0.000000 0.000000 0.000000
# 3 -0.007600 -0.002732 0.008184 -0.000002 0.000000 0.000000
# 4 0.000002 0.000000 -0.000002 0.447726 0.000000 0.000001
# 5 0.000000 0.000000 0.000000 0.000000 0.043033 0.000000
# 6 0.000000 0.000000 0.000000 0.000001 0.000000 0.065619
#
#
# Mechanical properties :
#
#
# Convention : Reuss Voigt Hill
#
# Bulk Modulus (GPa) = 29.88125 89.19361 59.53743
# Shear Modulus (GPa) = 7.41430 23.39169 15.40299
#
# Velocity S-wave (km/s) = 2.00343 3.55852 2.88763
# Velocity P-wave (km/s) = 4.63981 8.07274 6.58396
#
# Compressibility (1/GPa) = 0.03346580
#
# Stress axis : x y z
#
# Youngs Moduli (GPa) = 18.71869 117.01597 122.19475
#
# Poissons Ratio (x) = 0.93744 0.92869
# Poissons Ratio (y) = 0.14996 0.33382
# Poissons Ratio (z) = 0.14226 0.31967
#
# Static dielectric constant tensor:
#      x y z
#    x 1.628240 0.000000 0.000000 
#    y 0.000000 1.625670 0.000000 
#    z 0.000000 0.000000 1.617460 
# 
# From -- ./inp_files/12049.got.cif
#   From: 2010.05.17/outbox.cif.g08.bks.cpg/sg71_7_cif.got.tgz:12049.got - 2010.06.03 16:22:01.
