data_PCOD9522084
_publ_section_title
;
Structure prediction by ZEFSAII (Michael W. Deem and Ramdas Pophale) SiO2 
 PCOD9522084
Probable space group: I M M M
;
_chemical_formula_sum "Si O2"
_cell_formula_units_Z 72
_cell_length_a 13.646442
_cell_length_b 7.687618
_cell_length_c 36.799385
_cell_angle_alpha 90.000000
_cell_angle_beta 90.000000
_cell_angle_gamma 90.000000
_cell_volume 3860.573181
_symmetry_space_group_name_H-M "I M M M"
_symmetry_group_IT_number 71
_symmetry_cell_setting 'orthorhombic'
loop_
_space_group_symop_operation_xyz
x,y,z
-x,-y,z
x,-y,-z
-x,y,-z
-x,-y,-z
x,y,-z
-x,y,z
x,-y,z
1/2+x,1/2+y,1/2+z
1/2-x,1/2-y,1/2+z
1/2+x,1/2-y,1/2-z
1/2-x,1/2+y,1/2-z
1/2-x,1/2-y,1/2-z
1/2+x,1/2+y,1/2-z
1/2-x,1/2+y,1/2+z
1/2+x,1/2-y,1/2+z
loop_
_atom_site_type_symbol
_atom_site_label
_atom_site_fract_x
_atom_site_fract_y
_atom_site_fract_z
Si Si1 0.115911 0.702404 0.635387
Si Si2 0.118214 0.698567 0.828515
Si Si3 0.380151 0.500000 0.725407
Si Si4 0.883083 0.000000 0.957036
Si Si5 0.705499 0.795788 0.407593
Si Si6 0.119027 0.000000 0.308034
O O1 0.134078 0.500000 0.643856
O O2 0.180801 0.757574 0.601005
O O3 0.000000 0.724483 0.628967
O O4 0.144889 0.830098 0.668357
O O5 0.148480 0.500000 0.821033
O O6 0.154377 0.746544 0.868790
O O7 0.000000 0.702931 0.829261
O O8 0.150685 0.831963 0.797655
O O9 0.500000 0.500000 0.726258
O O10 0.345002 0.500000 0.766803
O O11 0.837234 0.830786 0.937799
O O12 0.000000 0.000000 0.951181
O O13 0.864273 0.000000 0.000000
O O14 0.689896 0.000000 0.415103
O O15 0.000000 0.000000 0.306004
#
# Coordination Sequence:
#
# PCOD9522084 Si02
#       6
#    16  16   8   8  16   8
#     4  10  20  35  58  85 112 148 197 249 294 339
#     4   9  18  31  50  77 107 146 196 240 286 346
#     4   9  17  30  49  71 107 153 190 240 302 346
#     4  11  25  43  64  95 129 155 182 221 276 342
#     4  11  21  37  64  88 118 153 196 240 285 340
#     4   9  18  33  52  79 111 148 196 248 301 346
#
# _framework density 18.650079999999999
#
# number of rings (size 3 to 8) (size 9 to 14) (size 15 to 20)
#    0.000    2.111    2.222    1.333    0.000    3.556 
#    0.000    6.667    0.000    1.333    0.000    1.556 
#    0.000    0.000    0.000    0.000    0.000    0.000 
#
# Total GULP energy -201104.977916 kJ/mol
# GULP energy per Si atom -5586.249387 kJ/mol
# Density = 1.860763 g / cm^3
# Si number density = 18.650080 Si / 1000 Ang^3
#
#
#
# Elastic Constant Matrix: (Units=GPa)
#
#
# Indices 1 2 3 4 5 6 
#
# 1 72.1642 51.1286 55.5986 0.0000 0.0000 0.0000
# 2 51.1286 135.5416 96.5778 0.0000 0.0000 0.0000
# 3 55.5986 96.5778 139.4551 0.0000 0.0000 0.0000
# 4 0.0000 0.0000 0.0000 11.9958 0.0000 0.0000
# 5 0.0000 0.0000 0.0000 0.0000 25.0768 0.0000
# 6 0.0000 0.0000 0.0000 0.0000 0.0000 25.1737
#
#
#
# Elastic Compliance Matrix: (Units=1/GPa)
#
#
# Indices 1 2 3 4 5 6 
#
# 1 0.020975 -0.003857 -0.005691 0.000000 0.000000 0.000000
# 2 -0.003857 0.015274 -0.009040 0.000000 0.000000 0.000000
# 3 -0.005691 -0.009040 0.015701 0.000000 0.000000 0.000000
# 4 0.000000 0.000000 0.000000 0.083363 0.000000 0.000000
# 5 0.000000 0.000000 0.000000 0.000000 0.039878 0.000000
# 6 0.000000 0.000000 0.000000 0.000000 0.000000 0.039724
#
#
# Mechanical properties :
#
#
# Convention : Reuss Voigt Hill
#
# Bulk Modulus (GPa) = 67.69277 83.75233 75.72255
# Shear Modulus (GPa) = 19.45416 22.03965 20.74691
#
# Velocity S-wave (km/s) = 3.23323 3.44138 3.33893
# Velocity P-wave (km/s) = 7.09319 7.79715 7.45349
#
# Compressibility (1/GPa) = 0.01477263
#
# Stress axis : x y z
#
# Youngs Moduli (GPa) = 47.67655 65.47027 63.69210
#
# Poissons Ratio (x) = 0.25250 0.36249
# Poissons Ratio (y) = 0.18388 0.57579
# Poissons Ratio (z) = 0.27134 0.59187
#
# Static dielectric constant tensor:
#      x y z
#    x 1.699450 0.000000 0.000000 
#    y 0.000000 1.645280 0.000000 
#    z 0.000000 0.000000 1.586360 
# 
# From -- ./inp_files/69719.got.cif
#   From: 2010.05.17/outbox.cif.g08.bks.cpg/sg71_35_cif.got.tgz:69719.got - 2010.06.03 16:22:01.
