data_PCOD9522635
_publ_section_title
;
Structure prediction by ZEFSAII (Michael W. Deem and Ramdas Pophale) SiO2 
 PCOD9522635
Probable space group: I M M M
;
_chemical_formula_sum "Si O2"
_cell_formula_units_Z 56
_cell_length_a 26.019644
_cell_length_b 13.576799
_cell_length_c 7.435850
_cell_angle_alpha 90.000000
_cell_angle_beta 90.000000
_cell_angle_gamma 90.000000
_cell_volume 2626.814223
_symmetry_space_group_name_H-M "I M M M"
_symmetry_group_IT_number 71
_symmetry_cell_setting 'orthorhombic'
loop_
_space_group_symop_operation_xyz
x,y,z
-x,-y,z
x,-y,-z
-x,y,-z
-x,-y,-z
x,y,-z
-x,y,z
x,-y,z
1/2+x,1/2+y,1/2+z
1/2-x,1/2-y,1/2+z
1/2+x,1/2-y,1/2-z
1/2-x,1/2+y,1/2-z
1/2-x,1/2-y,1/2-z
1/2+x,1/2+y,1/2-z
1/2-x,1/2+y,1/2+z
1/2+x,1/2-y,1/2+z
loop_
_atom_site_type_symbol
_atom_site_label
_atom_site_fract_x
_atom_site_fract_y
_atom_site_fract_z
Si Si1 0.335618 0.000000 0.283656
Si Si2 0.500000 0.664165 0.284184
Si Si3 0.000000 0.330538 0.500000
Si Si4 0.115816 0.108555 0.781390
Si Si5 0.579895 0.000000 0.000000
Si Si6 0.192082 0.282353 0.214165
O O1 0.312082 0.895544 0.222818
O O2 0.337820 0.000000 0.500000
O O3 0.389548 0.000000 0.185261
O O4 0.500000 0.673998 0.500000
O O5 0.500000 0.765346 0.177521
O O6 0.555113 0.616385 0.234655
O O7 0.951959 0.401144 0.500000
O O8 0.150495 0.201157 0.717451
O O9 0.134934 0.000000 0.723498
O O10 0.117924 0.110049 0.000000
O O11 0.250000 0.250000 0.250000
O O12 0.183815 0.285315 0.000000
#
# Coordination Sequence:
#
# PCOD9522635 Si02
#       6
#     8   8   4  16   4  16
#     4  10  23  43  63  88 122 161 213 253 309 371
#     4  10  20  39  65  87 125 168 199 259 321 362
#     4  11  24  38  59  98 130 150 227 249 298 392
#     4   9  18  35  61  90 118 158 210 254 308 375
#     4  11  24  40  64  90 124 174 198 267 310 358
#     4  10  22  38  60  88 122 160 205 260 308 371
#
# _framework density 21.318598000000001
#
# number of rings (size 3 to 8) (size 9 to 14) (size 15 to 20)
#    0.000    2.143    0.000    2.143    4.000    5.143 
#    2.571    2.857    0.000    0.000    0.000    0.000 
#    0.000    0.000    0.000    0.000    0.000    0.000 
#
# Total GULP energy -156148.899404 kJ/mol
# GULP energy per Si atom -5576.746407 kJ/mol
# Density = 2.127008 g / cm^3
# Si number density = 21.318598 Si / 1000 Ang^3
#
#
#
# Elastic Constant Matrix: (Units=GPa)
#
#
# Indices 1 2 3 4 5 6 
#
# 1 128.7887 101.3225 4.2408 0.0000 0.0000 0.0000
# 2 101.3225 231.9380 21.3760 0.0000 0.0000 0.0000
# 3 4.2408 21.3760 48.0686 0.0000 0.0000 0.0000
# 4 0.0000 0.0000 0.0000 -65.1877 0.0000 0.0000
# 5 0.0000 0.0000 0.0000 0.0000 25.9918 0.0000
# 6 0.0000 0.0000 0.0000 0.0000 0.0000 77.6798
#
#
#
# Elastic Compliance Matrix: (Units=1/GPa)
#
#
# Indices 1 2 3 4 5 6 
#
# 1 0.011910 -0.005324 0.001317 0.000000 0.000000 0.000000
# 2 -0.005324 0.006876 -0.002588 0.000000 0.000000 0.000000
# 3 0.001317 -0.002588 0.021838 0.000000 0.000000 0.000000
# 4 0.000000 0.000000 0.000000 -0.015340 0.000000 0.000000
# 5 0.000000 0.000000 0.000000 0.000000 0.038474 0.000000
# 6 0.000000 0.000000 0.000000 0.000000 0.000000 0.012873
#
#
# Mechanical properties :
#
#
# Convention : Reuss Voigt Hill
#
# Bulk Modulus (GPa) = 36.45161 73.63044 55.04102
# Shear Modulus (GPa) = 50.52220 26.48717 38.50469
#
# Velocity S-wave (km/s) = 4.87341 3.52866 4.25450
# Velocity P-wave (km/s) = 6.98587 7.15646 7.07168
#
# Compressibility (1/GPa) = 0.02743363
#
# Stress axis : x y z
#
# Youngs Moduli (GPa) = 83.96215 145.43433 45.79116
#
# Poissons Ratio (x) = 0.77434 -0.06030
# Poissons Ratio (y) = 0.44704 0.11851
# Poissons Ratio (z) = -0.11057 0.37638
#
# Static dielectric constant tensor:
#      x y z
#    x 1.749430 0.000000 0.000000 
#    y 0.000000 1.802010 0.000000 
#    z 0.000000 0.000000 1.747690 
# 
# From -- ./inp_files/14065.got.cif
#   From: 2010.05.17/outbox.cif.g08.bks.cpg/sg71_8_cif.got.tgz:14065.got - 2010.06.03 16:22:01.
