data_PCOD9522063
_publ_section_title
;
Structure prediction by ZEFSAII (Michael W. Deem and Ramdas Pophale) SiO2 
 PCOD9522063
Probable space group: I M M M
;
_chemical_formula_sum "Si O2"
_cell_formula_units_Z 88
_cell_length_a 25.674405
_cell_length_b 20.928367
_cell_length_c 9.105866
_cell_angle_alpha 90.000000
_cell_angle_beta 90.000000
_cell_angle_gamma 90.000000
_cell_volume 4892.794609
_symmetry_space_group_name_H-M "I M M M"
_symmetry_group_IT_number 71
_symmetry_cell_setting 'orthorhombic'
loop_
_space_group_symop_operation_xyz
x,y,z
-x,-y,z
x,-y,-z
-x,y,-z
-x,-y,-z
x,y,-z
-x,y,z
x,-y,z
1/2+x,1/2+y,1/2+z
1/2-x,1/2-y,1/2+z
1/2+x,1/2-y,1/2-z
1/2-x,1/2+y,1/2-z
1/2-x,1/2-y,1/2-z
1/2+x,1/2+y,1/2-z
1/2-x,1/2+y,1/2+z
1/2+x,1/2-y,1/2+z
loop_
_atom_site_type_symbol
_atom_site_label
_atom_site_fract_x
_atom_site_fract_y
_atom_site_fract_z
Si Si1 0.312205 0.687150 0.328879
Si Si2 0.000000 0.228123 0.323472
Si Si3 0.308696 0.178076 0.172571
Si Si4 0.438044 0.500000 0.664161
Si Si5 0.091768 0.129235 0.325833
Si Si6 0.000000 0.366896 0.176157
Si Si7 0.602592 0.074593 0.175721
O O1 0.326510 0.682664 0.500000
O O2 0.316638 0.760291 0.274256
O O3 0.252709 0.663336 0.313122
O O4 0.351610 0.648504 0.229094
O O5 0.050514 0.185175 0.287285
O O6 0.000000 0.240313 0.500000
O O7 0.000000 0.294608 0.238239
O O8 0.348204 0.120717 0.208136
O O9 0.317491 0.195511 0.000000
O O10 0.500000 0.500000 0.653436
O O11 0.415359 0.500000 0.500000
O O12 0.422878 0.436470 0.749223
O O13 0.089528 0.121820 0.500000
O O14 0.948368 0.401414 0.238701
O O15 0.000000 0.367385 0.000000
O O16 0.613146 0.000000 0.208036
O O17 0.592615 0.079814 0.000000
#
# Coordination Sequence:
#
# PCOD9522063 Si02
#       7
#    16   8  16   8  16   8  16
#     4  10  20  35  57  87 117 147 187 238 290 335
#     4  10  22  38  58  82 111 150 192 233 272 328
#     4   9  19  37  59  84 113 148 190 235 285 339
#     4  11  23  39  59  83 115 151 189 236 289 340
#     4  11  22  38  59  83 114 153 194 233 279 340
#     4  12  25  37  55  86 118 145 177 231 288 335
#     4  10  21  39  61  81 107 148 192 229 271 337
#
# _framework density 17.985631999999999
#
# number of rings (size 3 to 8) (size 9 to 14) (size 15 to 20)
#    0.000    1.727    0.909    3.545    0.000    9.091 
#    1.636    0.000    0.000    0.000    0.000    0.000 
#    0.000    0.000    0.000    0.000    0.000    0.000 
#
# Total GULP energy -245721.838091 kJ/mol
# GULP energy per Si atom -5584.587229 kJ/mol
# Density = 1.794470 g / cm^3
# Si number density = 17.985632 Si / 1000 Ang^3
#
#
#
# Elastic Constant Matrix: (Units=GPa)
#
#
# Indices 1 2 3 4 5 6 
#
# 1 87.1627 67.0518 49.3581 0.0000 0.0000 0.0000
# 2 67.0518 121.9327 55.7665 0.0000 0.0000 0.0000
# 3 49.3581 55.7665 69.4931 0.0000 0.0000 0.0000
# 4 0.0000 0.0000 0.0000 25.7865 0.0000 0.0000
# 5 0.0000 0.0000 0.0000 0.0000 28.7073 0.0000
# 6 0.0000 0.0000 0.0000 0.0000 0.0000 21.0755
#
#
#
# Elastic Compliance Matrix: (Units=1/GPa)
#
#
# Indices 1 2 3 4 5 6 
#
# 1 0.023614 -0.008396 -0.010034 0.000000 0.000000 0.000000
# 2 -0.008396 0.015942 -0.006829 0.000000 0.000000 0.000000
# 3 -0.010034 -0.006829 0.026997 0.000000 0.000000 0.000000
# 4 0.000000 0.000000 0.000000 0.038780 0.000000 0.000000
# 5 0.000000 0.000000 0.000000 0.000000 0.034834 0.000000
# 6 0.000000 0.000000 0.000000 0.000000 0.000000 0.047448
#
#
# Mechanical properties :
#
#
# Convention : Reuss Voigt Hill
#
# Bulk Modulus (GPa) = 62.37042 69.21570 65.79306
# Shear Modulus (GPa) = 20.53554 22.20800 21.37177
#
# Velocity S-wave (km/s) = 3.38268 3.51773 3.45087
# Velocity P-wave (km/s) = 7.07177 7.42069 7.24833
#
# Compressibility (1/GPa) = 0.01603324
#
# Stress axis : x y z
#
# Youngs Moduli (GPa) = 42.34783 62.72760 37.04079
#
# Poissons Ratio (x) = 0.52668 0.37167
# Poissons Ratio (y) = 0.35557 0.25297
# Poissons Ratio (z) = 0.42493 0.42840
#
# Static dielectric constant tensor:
#      x y z
#    x 1.611100 0.000000 0.000000 
#    y 0.000000 1.578970 0.000000 
#    z 0.000000 0.000000 1.604950 
# 
# From -- ./inp_files/12641.got.cif
#   From: 2010.05.17/outbox.cif.g08.bks.cpg/sg71_7_cif.got.tgz:12641.got - 2010.06.03 16:22:01.
