data_PCOD9522353
_publ_section_title
;
Structure prediction by ZEFSAII (Michael W. Deem and Ramdas Pophale) SiO2 
 PCOD9522353
Probable space group: I M M M
;
_chemical_formula_sum "Si O2"
_cell_formula_units_Z 112
_cell_length_a 14.765777
_cell_length_b 14.758023
_cell_length_c 24.775365
_cell_angle_alpha 90.000000
_cell_angle_beta 90.000000
_cell_angle_gamma 90.000000
_cell_volume 5398.890876
_symmetry_space_group_name_H-M "I M M M"
_symmetry_group_IT_number 71
_symmetry_cell_setting 'orthorhombic'
loop_
_space_group_symop_operation_xyz
x,y,z
-x,-y,z
x,-y,-z
-x,y,-z
-x,-y,-z
x,y,-z
-x,y,z
x,-y,z
1/2+x,1/2+y,1/2+z
1/2-x,1/2-y,1/2+z
1/2+x,1/2-y,1/2-z
1/2-x,1/2+y,1/2-z
1/2-x,1/2-y,1/2-z
1/2+x,1/2+y,1/2-z
1/2-x,1/2+y,1/2+z
1/2+x,1/2-y,1/2+z
loop_
_atom_site_type_symbol
_atom_site_label
_atom_site_fract_x
_atom_site_fract_y
_atom_site_fract_z
Si Si1 0.891635 0.398344 0.843495
Si Si2 0.891804 0.728716 0.941276
Si Si3 0.221925 0.895881 0.091254
Si Si4 0.854776 0.727104 0.256577
Si Si5 0.598654 0.400567 0.305217
Si Si6 0.110028 0.101054 0.437364
Si Si7 0.894194 0.288614 0.618300
O O1 0.854497 0.500000 0.846192
O O2 0.859075 0.333239 0.891695
O O3 0.875609 0.352031 0.785878
O O4 0.000000 0.403501 0.850667
O O5 0.839487 0.823464 0.939582
O O6 0.000000 0.743251 0.935297
O O7 0.877143 0.684940 0.000000
O O8 0.178643 0.891504 0.151668
O O9 0.324450 0.859906 0.092688
O O10 0.215473 0.000000 0.073305
O O11 0.750000 0.750000 0.250000
O O12 0.900798 0.819324 0.236334
O O13 0.882736 0.705518 0.317201
O O14 0.500000 0.397484 0.333754
O O15 0.606514 0.500000 0.279474
O O16 0.137351 0.115120 0.500000
O O17 0.134514 0.187854 0.401584
O O18 0.000000 0.098640 0.436800
O O19 0.140956 0.000000 0.420285
O O20 0.000000 0.302563 0.604179
#
# Coordination Sequence:
#
# PCOD9522353 Si02
#       7
#    16  16  16  16  16  16  16
#     4  10  21  38  61  89 124 167 208 247 304 378
#     4  10  21  40  67  96 125 157 201 259 317 376
#     4  11  23  40  60  86 121 160 203 254 309 366
#     4  12  22  38  59  85 126 165 205 260 308 365
#     4  10  20  36  60  84 110 151 199 250 309 365
#     4   8  16  35  63  92 122 157 199 251 311 369
#     4  11  23  38  61  93 126 165 213 260 306 366
#
# _framework density 20.745003000000001
#
# number of rings (size 3 to 8) (size 9 to 14) (size 15 to 20)
#    0.000    1.714    2.857    2.143    0.000    4.000 
#    0.000    5.714    0.000    0.000    0.000    3.000 
#    0.000    0.000    0.000    0.000    0.000    0.000 
#
# Total GULP energy -312653.164111 kJ/mol
# GULP energy per Si atom -5583.092216 kJ/mol
# Density = 2.069779 g / cm^3
# Si number density = 20.745003 Si / 1000 Ang^3
#
#
#
# Elastic Constant Matrix: (Units=GPa)
#
#
# Indices 1 2 3 4 5 6 
#
# 1 97.2485 29.9053 -0.1178 0.0000 0.0000 0.0000
# 2 29.9053 152.1830 59.3300 0.0000 0.0000 0.0000
# 3 -0.1178 59.3300 89.2992 0.0000 0.0000 0.0000
# 4 0.0000 0.0000 0.0000 -12.9577 0.0000 0.0000
# 5 0.0000 0.0000 0.0000 0.0000 -2.2838 0.0000
# 6 0.0000 0.0000 0.0000 0.0000 0.0000 33.2300
#
#
#
# Elastic Compliance Matrix: (Units=1/GPa)
#
#
# Indices 1 2 3 4 5 6 
#
# 1 0.011201 -0.002978 0.001994 0.000000 0.000000 0.000000
# 2 -0.002978 0.009660 -0.006422 0.000000 0.000000 0.000000
# 3 0.001994 -0.006422 0.015468 0.000000 0.000000 0.000000
# 4 0.000000 0.000000 0.000000 -0.077174 0.000000 0.000000
# 5 0.000000 0.000000 0.000000 0.000000 -0.437861 0.000000
# 6 0.000000 0.000000 0.000000 0.000000 0.000000 0.030093
#
#
# Mechanical properties :
#
#
# Convention : Reuss Voigt Hill
#
# Bulk Modulus (GPa) = 46.47837 57.44063 51.95950
# Shear Modulus (GPa) = -11.71982 20.23857 4.25938
#
# Velocity S-wave (km/s) = -2.37944 3.12683 1.43446
# Velocity P-wave (km/s) = 3.86061 6.38632 5.27681
#
# Compressibility (1/GPa) = 0.02151539
#
# Stress axis : x y z
#
# Youngs Moduli (GPa) = 89.27583 103.51992 64.65099
#
# Poissons Ratio (x) = 0.30832 -0.12889
# Poissons Ratio (y) = 0.26590 0.41519
# Poissons Ratio (z) = -0.17798 0.66480
#
# Static dielectric constant tensor:
#      x y z
#    x 1.101550 0.000000 0.000000 
#    y 0.000000 1.733580 0.000000 
#    z 0.000000 0.000000 1.753070 
# 
# From -- ./inp_files/39290.got.cif
#   From: 2010.05.17/outbox.cif.g08.bks.cpg/sg71_20_cif.got.tgz:39290.got - 2010.06.03 16:22:01.
