data_PCOD9522657
_publ_section_title
;
Structure prediction by ZEFSAII (Michael W. Deem and Ramdas Pophale) SiO2 
 PCOD9522657
Probable space group: I M M M
;
_chemical_formula_sum "Si O2"
_cell_formula_units_Z 68
_cell_length_a 7.460098
_cell_length_b 20.137186
_cell_length_c 20.496531
_cell_angle_alpha 90.000000
_cell_angle_beta 90.000000
_cell_angle_gamma 90.000000
_cell_volume 3079.099179
_symmetry_space_group_name_H-M "I M M M"
_symmetry_group_IT_number 71
_symmetry_cell_setting 'orthorhombic'
loop_
_space_group_symop_operation_xyz
x,y,z
-x,-y,z
x,-y,-z
-x,y,-z
-x,-y,-z
x,y,-z
-x,y,z
x,-y,z
1/2+x,1/2+y,1/2+z
1/2-x,1/2-y,1/2+z
1/2+x,1/2-y,1/2-z
1/2-x,1/2+y,1/2-z
1/2-x,1/2-y,1/2-z
1/2+x,1/2+y,1/2-z
1/2-x,1/2+y,1/2+z
1/2+x,1/2-y,1/2+z
loop_
_atom_site_type_symbol
_atom_site_label
_atom_site_fract_x
_atom_site_fract_y
_atom_site_fract_z
Si Si1 0.000000 0.000000 0.733548
Si Si2 0.287610 0.574749 0.500000
Si Si3 0.287861 0.823889 0.885139
Si Si4 0.209535 0.617910 0.247687
Si Si5 0.217406 0.178059 0.388752
Si Si6 0.219234 0.923359 0.500000
O O1 0.157404 0.942510 0.734508
O O2 0.211511 0.500000 0.500000
O O3 0.500000 0.568545 0.500000
O O4 0.240716 0.617667 0.436662
O O5 0.500000 0.815159 0.878966
O O6 0.225921 0.845609 0.813626
O O7 0.220310 0.751936 0.908315
O O8 0.221949 0.664730 0.184670
O O9 0.000000 0.598097 0.256527
O O10 0.276505 0.119253 0.437037
O O11 0.000000 0.175950 0.390797
O O12 0.000000 0.925169 0.500000
O O13 0.278492 0.000000 0.500000
#
# Coordination Sequence:
#
# PCOD9522657 Si02
#       6
#     4   8  16  16  16   8
#     4  12  26  44  68  96 148 172 212 278 348 382
#     4  11  26  41  63  93 130 177 230 281 342 404
#     4  10  23  42  65  95 131 177 226 279 338 402
#     4  11  25  42  69 102 133 177 226 271 332 405
#     4  10  20  40  67  95 135 181 221 276 338 396
#     4   9  19  32  59  95 130 175 225 263 331 401
#
# _framework density 22.084378999999998
#
# number of rings (size 3 to 8) (size 9 to 14) (size 15 to 20)
#    0.000    1.647    1.176    2.118    4.941    3.765 
#    0.000    0.588    0.000    0.706    0.000    0.000 
#    0.000    0.000    0.000    0.000    0.000    0.000 
#
# Total GULP energy -189469.534286 kJ/mol
# GULP energy per Si atom -5572.633361 kJ/mol
# Density = 2.203411 g / cm^3
# Si number density = 22.084379 Si / 1000 Ang^3
#
#
#
# Elastic Constant Matrix: (Units=GPa)
#
#
# Indices 1 2 3 4 5 6 
#
# 1 83.3124 7.6249 -23.5700 0.0000 0.0000 0.0000
# 2 7.6249 203.5523 73.5255 0.0000 0.0000 0.0000
# 3 -23.5700 73.5255 147.8781 0.0000 0.0000 0.0000
# 4 0.0000 0.0000 0.0000 -11.6777 0.0000 0.0000
# 5 0.0000 0.0000 0.0000 0.0000 15.3001 0.0000
# 6 0.0000 0.0000 0.0000 0.0000 0.0000 19.8960
#
#
#
# Elastic Compliance Matrix: (Units=1/GPa)
#
#
# Indices 1 2 3 4 5 6 
#
# 1 0.012934 -0.001498 0.002806 0.000000 0.000000 0.000000
# 2 -0.001498 0.006162 -0.003302 0.000000 0.000000 0.000000
# 3 0.002806 -0.003302 0.008852 0.000000 0.000000 0.000000
# 4 0.000000 0.000000 0.000000 -0.085634 0.000000 0.000000
# 5 0.000000 0.000000 0.000000 0.000000 0.065359 0.000000
# 6 0.000000 0.000000 0.000000 0.000000 0.000000 0.050261
#
#
# Mechanical properties :
#
#
# Convention : Reuss Voigt Hill
#
# Bulk Modulus (GPa) = 41.73782 61.10040 51.41911
# Shear Modulus (GPa) = 71.52178 29.84786 50.68482
#
# Velocity S-wave (km/s) = 5.69702 3.68031 4.79587
# Velocity P-wave (km/s) = 7.88764 6.76657 7.34852
#
# Compressibility (1/GPa) = 0.02395908
#
# Stress axis : x y z
#
# Youngs Moduli (GPa) = 77.31490 162.29170 112.97357
#
# Poissons Ratio (x) = 0.24315 -0.31706
# Poissons Ratio (y) = 0.11584 0.37309
# Poissons Ratio (z) = -0.21698 0.53596
#
# Static dielectric constant tensor:
#      x y z
#    x 1.818510 0.000000 0.000000 
#    y 0.000000 1.828600 0.000000 
#    z 0.000000 0.000000 1.776880 
# 
# From -- ./inp_files/50027.got.cif
#   From: 2010.05.17/outbox.cif.g08.bks.cpg/sg71_26_cif.got.tgz:50027.got - 2010.06.03 16:22:01.
