data_PCOD9522930
_publ_section_title
;
Structure prediction by ZEFSAII (Michael W. Deem and Ramdas Pophale) SiO2 
 PCOD9522930
Probable space group: I M M M
;
_chemical_formula_sum "Si O2"
_cell_formula_units_Z 116
_cell_length_a 8.986589
_cell_length_b 32.923197
_cell_length_c 21.907343
_cell_angle_alpha 90.000000
_cell_angle_beta 90.000000
_cell_angle_gamma 90.000000
_cell_volume 6481.665109
_symmetry_space_group_name_H-M "I M M M"
_symmetry_group_IT_number 71
_symmetry_cell_setting 'orthorhombic'
loop_
_space_group_symop_operation_xyz
x,y,z
-x,-y,z
x,-y,-z
-x,y,-z
-x,-y,-z
x,y,-z
-x,y,z
x,-y,z
1/2+x,1/2+y,1/2+z
1/2-x,1/2-y,1/2+z
1/2+x,1/2-y,1/2-z
1/2-x,1/2+y,1/2-z
1/2-x,1/2-y,1/2-z
1/2+x,1/2+y,1/2-z
1/2-x,1/2+y,1/2+z
1/2+x,1/2-y,1/2+z
loop_
_atom_site_type_symbol
_atom_site_label
_atom_site_fract_x
_atom_site_fract_y
_atom_site_fract_z
Si Si1 0.664788 0.621002 0.373901
Si Si2 0.172948 0.836544 0.568625
Si Si3 0.167099 0.951666 0.690192
Si Si4 0.177670 0.547933 0.315354
Si Si5 0.177412 0.576267 0.932020
Si Si6 0.000000 0.130696 0.000000
Si Si7 0.324302 0.217985 0.331398
Si Si8 0.323511 0.195536 0.807029
O O1 0.500000 0.618694 0.344116
O O2 0.745771 0.578100 0.363193
O O3 0.627741 0.629586 0.444827
O O4 0.756637 0.656730 0.341357
O O5 0.183474 0.819570 0.500000
O O6 0.272107 0.876943 0.570519
O O7 0.233612 0.805485 0.617560
O O8 0.000000 0.847130 0.579599
O O9 0.263417 0.938369 0.748517
O O10 0.243738 0.943713 0.625544
O O11 0.000000 0.934328 0.691623
O O12 0.156306 0.000000 0.696660
O O13 0.214692 0.500000 0.324622
O O14 0.000000 0.551686 0.317303
O O15 0.000000 0.572527 0.926543
O O16 0.220547 0.560794 0.000000
O O17 0.500000 0.218842 0.344993
O O18 0.304504 0.195265 0.266417
O O19 0.261966 0.263584 0.326651
O O20 0.500000 0.199125 0.819133
#
# Coordination Sequence:
#
# PCOD9522930 Si02
#       8
#    16  16  16  16  16   4  16  16
#     4  10  21  41  64  88 120 158 194 237 290 355
#     4  10  21  37  55  79 113 152 199 245 291 347
#     4  10  21  36  55  83 115 150 195 246 298 353
#     4  10  21  38  62  92 123 153 194 248 302 360
#     4  10  21  36  54  76 110 156 202 248 298 351
#     4   8  24  44  63  94 124 156 208 236 284 376
#     4  10  21  37  58  87 119 154 198 250 298 354
#     4  10  21  38  61  89 120 153 197 247 297 350
#
# _framework density 17.896636000000001
#
# number of rings (size 3 to 8) (size 9 to 14) (size 15 to 20)
#    0.414    1.655    0.000    2.897    1.931    5.241 
#    1.241    3.448    0.000    0.828    0.000    0.000 
#    0.000    0.000    0.000    0.000    0.000    0.000 
#
# Total GULP energy -322874.380346 kJ/mol
# GULP energy per Si atom -5566.799661 kJ/mol
# Density = 1.785590 g / cm^3
# Si number density = 17.896636 Si / 1000 Ang^3
#
#
#
# Elastic Constant Matrix: (Units=GPa)
#
#
# Indices 1 2 3 4 5 6 
#
# 1 71.4151 20.9465 28.9546 0.0000 0.0000 0.0000
# 2 20.9465 45.4215 30.4204 0.0000 0.0000 0.0000
# 3 28.9546 30.4204 65.9593 0.0000 0.0000 0.0000
# 4 0.0000 0.0000 0.0000 17.4570 0.0000 0.0000
# 5 0.0000 0.0000 0.0000 0.0000 34.4505 0.0000
# 6 0.0000 0.0000 0.0000 0.0000 0.0000 30.6321
#
#
#
# Elastic Compliance Matrix: (Units=1/GPa)
#
#
# Indices 1 2 3 4 5 6 
#
# 1 0.017584 -0.004253 -0.005758 0.000000 0.000000 0.000000
# 2 -0.004253 0.032884 -0.013299 0.000000 0.000000 0.000000
# 3 -0.005758 -0.013299 0.023822 0.000000 0.000000 0.000000
# 4 0.000000 0.000000 0.000000 0.057284 0.000000 0.000000
# 5 0.000000 0.000000 0.000000 0.000000 0.029027 0.000000
# 6 0.000000 0.000000 0.000000 0.000000 0.000000 0.032646
#
#
# Mechanical properties :
#
#
# Convention : Reuss Voigt Hill
#
# Bulk Modulus (GPa) = 36.13920 38.15987 37.14954
# Shear Modulus (GPa) = 20.07300 23.33952 21.70626
#
# Velocity S-wave (km/s) = 3.35267 3.61519 3.48640
# Velocity P-wave (km/s) = 5.93501 6.22855 6.08355
#
# Compressibility (1/GPa) = 0.02767078
#
# Stress axis : x y z
#
# Youngs Moduli (GPa) = 56.86829 30.40958 41.97811
#
# Poissons Ratio (x) = 0.12934 0.24169
# Poissons Ratio (y) = 0.24187 0.55828
# Poissons Ratio (z) = 0.32743 0.40442
#
# Static dielectric constant tensor:
#      x y z
#    x 1.610860 0.000000 0.000000 
#    y 0.000000 1.605460 0.000000 
#    z 0.000000 0.000000 1.604930 
# 
# From -- ./inp_files/58276.got.cif
#   From: 2010.05.17/outbox.cif.g08.bks.cpg/sg71_30_cif.got.tgz:58276.got - 2010.06.03 16:22:01.
