data_PCOD9522569
_publ_section_title
;
Structure prediction by ZEFSAII (Michael W. Deem and Ramdas Pophale) SiO2 
 PCOD9522569
Probable space group: I M M M
;
_chemical_formula_sum "Si O2"
_cell_formula_units_Z 68
_cell_length_a 7.483750
_cell_length_b 23.023805
_cell_length_c 17.516342
_cell_angle_alpha 90.000000
_cell_angle_beta 90.000000
_cell_angle_gamma 90.000000
_cell_volume 3018.142810
_symmetry_space_group_name_H-M "I M M M"
_symmetry_group_IT_number 71
_symmetry_cell_setting 'orthorhombic'
loop_
_space_group_symop_operation_xyz
x,y,z
-x,-y,z
x,-y,-z
-x,y,-z
-x,-y,-z
x,y,-z
-x,y,z
x,-y,z
1/2+x,1/2+y,1/2+z
1/2-x,1/2-y,1/2+z
1/2+x,1/2-y,1/2-z
1/2-x,1/2+y,1/2-z
1/2-x,1/2-y,1/2-z
1/2+x,1/2+y,1/2-z
1/2-x,1/2+y,1/2+z
1/2+x,1/2-y,1/2+z
loop_
_atom_site_type_symbol
_atom_site_label
_atom_site_fract_x
_atom_site_fract_y
_atom_site_fract_z
Si Si1 0.213364 0.384345 0.761798
Si Si2 0.786318 0.830913 0.413926
Si Si3 0.287804 0.372396 0.500000
Si Si4 0.720353 0.000000 0.172170
Si Si5 0.712241 0.207902 0.854627
Si Si6 0.252561 0.000000 0.000000
O O1 0.252139 0.380020 0.851219
O O2 0.272435 0.442542 0.718996
O O3 0.285061 0.326743 0.718561
O O4 0.000000 0.383571 0.752969
O O5 0.718915 0.840372 0.500000
O O6 0.713409 0.770466 0.378672
O O7 0.000000 0.824540 0.419727
O O8 0.500000 0.385857 0.500000
O O9 0.241276 0.334797 0.573919
O O10 0.184416 0.433015 0.500000
O O11 0.500000 0.000000 0.161531
O O12 0.807858 0.000000 0.088838
O O13 0.500000 0.215406 0.843206
#
# Coordination Sequence:
#
# PCOD9522569 Si02
#       6
#    16  16   8   8  16   4
#     4  10  21  37  59  88 115 147 194 241 289 341
#     4  10  21  38  60  85 115 152 192 236 292 349
#     4  12  24  35  54  89 126 156 193 237 285 336
#     4  10  21  37  62  89 113 152 199 238 281 343
#     4  10  20  38  61  84 116 155 194 236 284 346
#     4  12  22  40  58  82 125 160 195 230 279 346
#
# _framework density 22.530411999999998
#
# number of rings (size 3 to 8) (size 9 to 14) (size 15 to 20)
#    0.000    1.647    3.529    1.412    0.000    3.294 
#    0.000    1.176    0.000    3.529    0.000    0.000 
#    0.000    0.000    0.000    0.000    0.000    0.000 
#
# Total GULP energy -189788.540695 kJ/mol
# GULP energy per Si atom -5582.015903 kJ/mol
# Density = 2.247913 g / cm^3
# Si number density = 22.530412 Si / 1000 Ang^3
#
#
#
# Elastic Constant Matrix: (Units=GPa)
#
#
# Indices 1 2 3 4 5 6 
#
# 1 76.7379 8.9609 -1.4624 0.0000 0.0000 0.0000
# 2 8.9609 102.8263 86.5816 0.0000 0.0000 0.0000
# 3 -1.4624 86.5816 217.2012 0.0000 0.0000 0.0000
# 4 0.0000 0.0000 0.0000 38.0727 0.0000 0.0000
# 5 0.0000 0.0000 0.0000 0.0000 -14.6991 0.0000
# 6 0.0000 0.0000 0.0000 0.0000 0.0000 18.0150
#
#
#
# Elastic Compliance Matrix: (Units=1/GPa)
#
#
# Indices 1 2 3 4 5 6 
#
# 1 0.013264 -0.001853 0.000828 0.000000 0.000000 0.000000
# 2 -0.001853 0.014897 -0.005951 0.000000 0.000000 0.000000
# 3 0.000828 -0.005951 0.006982 0.000000 0.000000 0.000000
# 4 0.000000 0.000000 0.000000 0.026266 0.000000 0.000000
# 5 0.000000 0.000000 0.000000 0.000000 -0.068031 0.000000
# 6 0.000000 0.000000 0.000000 0.000000 0.000000 0.055509
#
#
# Mechanical properties :
#
#
# Convention : Reuss Voigt Hill
#
# Bulk Modulus (GPa) = 47.19044 64.99173 56.09108
# Shear Modulus (GPa) = 71.52859 28.45672 49.99265
#
# Velocity S-wave (km/s) = 5.64061 3.55778 4.71563
# Velocity P-wave (km/s) = 7.96321 6.76653 7.38913
#
# Compressibility (1/GPa) = 0.02119073
#
# Stress axis : x y z
#
# Youngs Moduli (GPa) = 75.39467 67.12564 143.22964
#
# Poissons Ratio (x) = 0.12439 -0.11859
# Poissons Ratio (y) = 0.13971 0.85235
# Poissons Ratio (z) = -0.06242 0.39946
#
# Static dielectric constant tensor:
#      x y z
#    x 1.912130 0.000000 0.000000 
#    y 0.000000 1.805700 0.000000 
#    z 0.000000 0.000000 1.832970 
# 
# From -- ./inp_files/8042.got.cif
#   From: 2010.05.17/outbox.cif.g08.bks.cpg/sg71_5_cif.got.tgz:8042.got - 2010.06.03 16:22:01.
