data_PCOD9522538
_publ_section_title
;
Structure prediction by ZEFSAII (Michael W. Deem and Ramdas Pophale) SiO2 
 PCOD9522538
Probable space group: I M M M
;
_chemical_formula_sum "Si O2"
_cell_formula_units_Z 72
_cell_length_a 15.895528
_cell_length_b 16.798568
_cell_length_c 13.722844
_cell_angle_alpha 90.000000
_cell_angle_beta 90.000000
_cell_angle_gamma 90.000000
_cell_volume 3664.302733
_symmetry_space_group_name_H-M "I M M M"
_symmetry_group_IT_number 71
_symmetry_cell_setting 'orthorhombic'
loop_
_space_group_symop_operation_xyz
x,y,z
-x,-y,z
x,-y,-z
-x,y,-z
-x,-y,-z
x,y,-z
-x,y,z
x,-y,z
1/2+x,1/2+y,1/2+z
1/2-x,1/2-y,1/2+z
1/2+x,1/2-y,1/2-z
1/2-x,1/2+y,1/2-z
1/2-x,1/2-y,1/2-z
1/2+x,1/2+y,1/2-z
1/2-x,1/2+y,1/2+z
1/2+x,1/2-y,1/2+z
loop_
_atom_site_type_symbol
_atom_site_label
_atom_site_fract_x
_atom_site_fract_y
_atom_site_fract_z
Si Si1 0.158639 0.591759 0.306555
Si Si2 0.000000 0.094356 0.889267
Si Si3 0.098030 0.250213 0.390375
Si Si4 0.399817 0.835469 0.611172
Si Si5 0.338130 0.325221 0.302936
O O1 0.151866 0.500000 0.335501
O O2 0.106095 0.655641 0.368840
O O3 0.128137 0.603574 0.194872
O O4 0.253672 0.624954 0.315138
O O5 0.082379 0.122923 0.833802
O O6 0.000000 0.000000 0.894937
O O7 0.000000 0.127416 0.000000
O O8 0.125844 0.232818 0.500000
O O9 0.150537 0.205279 0.307627
O O10 0.000000 0.228002 0.379810
O O11 0.387677 0.861826 0.500000
O O12 0.500000 0.817858 0.624686
O O13 0.347699 0.754816 0.632608
#
# Coordination Sequence:
#
# PCOD9522538 Si02
#       5
#    16   8  16  16  16
#     4  11  24  37  54  86 123 155 189 237 296 350
#     4  11  22  36  59  89 120 153 187 233 295 353
#     4  10  21  39  63  85 109 152 203 242 280 335
#     4  10  20  37  63  88 112 151 201 246 289 343
#     4  11  20  38  60  84 118 152 192 242 290 343
#
# _framework density 19.649031999999998
#
# number of rings (size 3 to 8) (size 9 to 14) (size 15 to 20)
#    0.000    1.444    2.222    6.000    0.000    7.111 
#    0.000    2.222    0.000    2.667    0.000    0.000 
#    0.000    0.000    0.000    0.000    0.000    0.000 
#
# Total GULP energy -201153.541676 kJ/mol
# GULP energy per Si atom -5587.598380 kJ/mol
# Density = 1.960431 g / cm^3
# Si number density = 19.649032 Si / 1000 Ang^3
#
#
#
# Elastic Constant Matrix: (Units=GPa)
#
#
# Indices 1 2 3 4 5 6 
#
# 1 71.4136 -4.7629 13.3444 0.0000 0.0000 0.0000
# 2 -4.7629 56.7093 -9.4307 0.0000 0.0000 0.0000
# 3 13.3444 -9.4307 67.6381 0.0000 0.0000 0.0000
# 4 0.0000 0.0000 0.0000 7.3843 0.0000 0.0000
# 5 0.0000 0.0000 0.0000 0.0000 2.9852 0.0000
# 6 0.0000 0.0000 0.0000 0.0000 0.0000 10.7465
#
#
#
# Elastic Compliance Matrix: (Units=1/GPa)
#
#
# Indices 1 2 3 4 5 6 
#
# 1 0.014571 0.000763 -0.002768 0.000000 0.000000 0.000000
# 2 0.000763 0.018092 0.002372 0.000000 0.000000 0.000000
# 3 -0.002768 0.002372 0.015661 0.000000 0.000000 0.000000
# 4 0.000000 0.000000 0.000000 0.135422 0.000000 0.000000
# 5 0.000000 0.000000 0.000000 0.000000 0.334991 0.000000
# 6 0.000000 0.000000 0.000000 0.000000 0.000000 0.093054
#
#
# Mechanical properties :
#
#
# Convention : Reuss Voigt Hill
#
# Bulk Modulus (GPa) = 20.38355 21.56251 20.97303
# Shear Modulus (GPa) = 7.96925 17.33054 12.64990
#
# Velocity S-wave (km/s) = 2.01609 2.97308 2.54006
# Velocity P-wave (km/s) = 3.97691 4.77318 4.39312
#
# Compressibility (1/GPa) = 0.04905916
#
# Stress axis : x y z
#
# Youngs Moduli (GPa) = 68.62884 55.27193 63.85104
#
# Poissons Ratio (x) = -0.04220 0.17676
# Poissons Ratio (y) = -0.05239 -0.15145
# Poissons Ratio (z) = 0.18999 -0.13110
#
# Static dielectric constant tensor:
#      x y z
#    x 1.692690 0.000000 0.000000 
#    y 0.000000 1.671440 0.000000 
#    z 0.000000 0.000000 1.694110 
# 
# From -- ./inp_files/34095.got.cif
#   From: 2010.05.17/outbox.cif.g08.bks.cpg/sg71_18_cif.got.tgz:34095.got - 2010.06.03 16:22:01.
