data_PCOD9522791
_publ_section_title
;
Structure prediction by ZEFSAII (Michael W. Deem and Ramdas Pophale) SiO2 
 PCOD9522791
Probable space group: I M M M
;
_chemical_formula_sum "Si O2"
_cell_formula_units_Z 104
_cell_length_a 8.569732
_cell_length_b 23.365045
_cell_length_c 28.674854
_cell_angle_alpha 90.000000
_cell_angle_beta 90.000000
_cell_angle_gamma 90.000000
_cell_volume 5741.628350
_symmetry_space_group_name_H-M "I M M M"
_symmetry_group_IT_number 71
_symmetry_cell_setting 'orthorhombic'
loop_
_space_group_symop_operation_xyz
x,y,z
-x,-y,z
x,-y,-z
-x,y,-z
-x,-y,-z
x,y,-z
-x,y,z
x,-y,z
1/2+x,1/2+y,1/2+z
1/2-x,1/2-y,1/2+z
1/2+x,1/2-y,1/2-z
1/2-x,1/2+y,1/2-z
1/2-x,1/2-y,1/2-z
1/2+x,1/2+y,1/2-z
1/2-x,1/2+y,1/2+z
1/2+x,1/2-y,1/2+z
loop_
_atom_site_type_symbol
_atom_site_label
_atom_site_fract_x
_atom_site_fract_y
_atom_site_fract_z
Si Si1 0.816533 0.141766 0.682277
Si Si2 0.182861 0.759487 0.197772
Si Si3 0.184540 0.568870 0.898648
Si Si4 0.688049 0.564448 0.268808
Si Si5 0.186269 0.370840 0.645508
Si Si6 0.809860 0.566309 0.553137
Si Si7 0.689730 0.065997 0.500000
O O1 0.722523 0.199527 0.673364
O O2 0.784724 0.097375 0.641259
O O3 0.764613 0.110806 0.730080
O O4 0.000000 0.154997 0.686196
O O5 0.250000 0.750000 0.250000
O O6 0.250968 0.812049 0.168044
O O7 0.000000 0.769273 0.202426
O O8 0.199463 0.500000 0.898047
O O9 0.234446 0.590729 0.950036
O O10 0.000000 0.581369 0.891786
O O11 0.500000 0.567286 0.272778
O O12 0.730012 0.500000 0.254210
O O13 0.763285 0.580549 0.317773
O O14 0.242429 0.390922 0.594205
O O15 0.000000 0.366792 0.643964
O O16 0.760973 0.580718 0.500000
O O17 0.763837 0.500000 0.562604
O O18 0.000000 0.566976 0.553457
O O19 0.500000 0.064372 0.500000
O O20 0.743163 0.000000 0.500000
#
# Coordination Sequence:
#
# PCOD9522791 Si02
#       7
#    16  16  16  16  16  16   8
#     4  11  22  36  54  77 107 144 182 224 273 323
#     4  12  24  40  59  79 104 141 185 227 272 323
#     4   9  17  31  53  80 109 142 179 220 268 324
#     4  10  21  35  51  75 111 149 179 216 269 322
#     4  11  21  34  57  85 111 145 187 228 271 326
#     4   8  15  30  54  86 121 151 181 223 275 328
#     4   7  12  26  49  75 103 137 175 213 258 313
#
# _framework density 18.113327999999999
#
# number of rings (size 3 to 8) (size 9 to 14) (size 15 to 20)
#    0.000    2.077    1.538    4.615    0.000    2.462 
#    0.000    0.385    1.692    3.231    0.000    5.385 
#    0.000    0.000    0.000    0.000    0.000    0.000 
#
# Total GULP energy -289987.349705 kJ/mol
# GULP energy per Si atom -5576.679802 kJ/mol
# Density = 1.807210 g / cm^3
# Si number density = 18.113328 Si / 1000 Ang^3
#
#
#
# Elastic Constant Matrix: (Units=GPa)
#
#
# Indices 1 2 3 4 5 6 
#
# 1 23.1691 22.3685 20.4459 0.0000 0.0000 0.0000
# 2 22.3685 91.0940 43.2987 0.0000 0.0000 0.0000
# 3 20.4459 43.2987 130.7298 0.0000 0.0000 0.0000
# 4 0.0000 0.0000 0.0000 19.4188 0.0000 0.0000
# 5 0.0000 0.0000 0.0000 0.0000 10.4600 0.0000
# 6 0.0000 0.0000 0.0000 0.0000 0.0000 26.2436
#
#
#
# Elastic Compliance Matrix: (Units=1/GPa)
#
#
# Indices 1 2 3 4 5 6 
#
# 1 0.059517 -0.012094 -0.005303 0.000000 0.000000 0.000000
# 2 -0.012094 0.015486 -0.003238 0.000000 0.000000 0.000000
# 3 -0.005303 -0.003238 0.009551 0.000000 0.000000 0.000000
# 4 0.000000 0.000000 0.000000 0.051496 0.000000 0.000000
# 5 0.000000 0.000000 0.000000 0.000000 0.095602 0.000000
# 6 0.000000 0.000000 0.000000 0.000000 0.000000 0.038105
#
#
# Mechanical properties :
#
#
# Convention : Reuss Voigt Hill
#
# Bulk Modulus (GPa) = 23.10264 46.35767 34.73015
# Shear Modulus (GPa) = 15.36314 21.81648 18.58981
#
# Velocity S-wave (km/s) = 2.91549 3.47427 3.20708
# Velocity P-wave (km/s) = 4.91077 6.46087 5.73840
#
# Compressibility (1/GPa) = 0.04328510
#
# Stress axis : x y z
#
# Youngs Moduli (GPa) = 16.80204 64.57290 104.70071
#
# Poissons Ratio (x) = 0.78095 0.55519
# Poissons Ratio (y) = 0.20321 0.33899
# Poissons Ratio (z) = 0.08909 0.20907
#
# Static dielectric constant tensor:
#      x y z
#    x 1.623040 0.000000 0.000000 
#    y 0.000000 1.631570 0.000000 
#    z 0.000000 0.000000 1.645990 
# 
# From -- ./inp_files/63562.got.cif
#   From: 2010.05.17/outbox.cif.g08.bks.cpg/sg71_32_cif.got.tgz:63562.got - 2010.06.03 16:22:01.
