data_PCOD9522632
_publ_section_title
;
Structure prediction by ZEFSAII (Michael W. Deem and Ramdas Pophale) SiO2 
 PCOD9522632
Probable space group: I M M M
;
_chemical_formula_sum "Si O2"
_cell_formula_units_Z 120
_cell_length_a 17.013666
_cell_length_b 18.406741
_cell_length_c 19.271905
_cell_angle_alpha 90.000000
_cell_angle_beta 90.000000
_cell_angle_gamma 90.000000
_cell_volume 6035.308167
_symmetry_space_group_name_H-M "I M M M"
_symmetry_group_IT_number 71
_symmetry_cell_setting 'orthorhombic'
loop_
_space_group_symop_operation_xyz
x,y,z
-x,-y,z
x,-y,-z
-x,y,-z
-x,-y,-z
x,y,-z
-x,y,z
x,-y,z
1/2+x,1/2+y,1/2+z
1/2-x,1/2-y,1/2+z
1/2+x,1/2-y,1/2-z
1/2-x,1/2+y,1/2-z
1/2-x,1/2-y,1/2-z
1/2+x,1/2+y,1/2-z
1/2-x,1/2+y,1/2+z
1/2+x,1/2-y,1/2+z
loop_
_atom_site_type_symbol
_atom_site_label
_atom_site_fract_x
_atom_site_fract_y
_atom_site_fract_z
Si Si1 0.663909 0.083428 0.645995
Si Si2 0.000000 0.411989 0.921697
Si Si3 0.906478 0.084339 0.216342
Si Si4 0.650251 0.913603 0.922985
Si Si5 0.911716 0.631244 0.723580
Si Si6 0.169865 0.861537 0.921112
Si Si7 0.754123 0.786402 0.418916
Si Si8 0.166085 0.224751 0.716981
O O1 0.579468 0.108194 0.616382
O O2 0.652685 0.091311 0.728522
O O3 0.724271 0.137116 0.610284
O O4 0.678476 0.000000 0.627783
O O5 0.000000 0.500000 0.923807
O O6 0.000000 0.384093 0.000000
O O7 0.885070 0.104483 0.136981
O O8 0.858605 0.144303 0.260390
O O9 0.000000 0.091906 0.228000
O O10 0.884736 0.000000 0.230206
O O11 0.605006 0.883225 0.856872
O O12 0.742862 0.896010 0.914976
O O13 0.639773 0.000000 0.922683
O O14 0.627027 0.886017 0.000000
O O15 0.898015 0.716120 0.739608
O O16 0.000000 0.606887 0.739904
O O17 0.187148 0.775652 0.910207
O O18 0.142294 0.872889 0.000000
O O19 0.774168 0.788227 0.500000
O O20 0.823221 0.767506 0.365712
O O21 0.250000 0.250000 0.750000
#
# Coordination Sequence:
#
# PCOD9522632 Si02
#       8
#    16   8  16  16  16  16  16  16
#     4  11  22  36  56  86 120 157 200 244 295 357
#     4   9  18  34  52  72 111 157 190 228 285 350
#     4  11  24  41  63  94 130 166 205 254 317 380
#     4  10  21  37  59  88 123 164 209 256 305 358
#     4  12  23  37  61  90 123 162 204 249 303 369
#     4  10  20  39  64  90 121 160 208 254 302 368
#     4  11  23  40  62  87 118 154 201 258 307 357
#     4  12  22  42  65  90 118 161 209 258 306 362
#
# _framework density 19.882994
#
# number of rings (size 3 to 8) (size 9 to 14) (size 15 to 20)
#    0.000    1.133    4.667    1.600    0.000    3.467 
#    1.200    1.333    0.000    1.200    0.000    0.933 
#    0.000    0.000    0.000    0.000    0.000    0.000 
#
# Total GULP energy -335058.773846 kJ/mol
# GULP energy per Si atom -5584.312897 kJ/mol
# Density = 1.983774 g / cm^3
# Si number density = 19.882994 Si / 1000 Ang^3
#
#
#
# Elastic Constant Matrix: (Units=GPa)
#
#
# Indices 1 2 3 4 5 6 
#
# 1 33.8362 19.5901 14.7234 0.0000 0.0000 0.0000
# 2 19.5901 111.8827 24.8941 0.0000 0.0000 0.0000
# 3 14.7234 24.8941 109.6212 0.0000 0.0000 0.0000
# 4 0.0000 0.0000 0.0000 25.3154 0.0000 0.0000
# 5 0.0000 0.0000 0.0000 0.0000 23.6673 0.0000
# 6 0.0000 0.0000 0.0000 0.0000 0.0000 26.8164
#
#
#
# Elastic Compliance Matrix: (Units=1/GPa)
#
#
# Indices 1 2 3 4 5 6 
#
# 1 0.034044 -0.005207 -0.003390 0.000000 0.000000 0.000000
# 2 -0.005207 0.010210 -0.001619 0.000000 0.000000 0.000000
# 3 -0.003390 -0.001619 0.009945 0.000000 0.000000 0.000000
# 4 0.000000 0.000000 0.000000 0.039502 0.000000 0.000000
# 5 0.000000 0.000000 0.000000 0.000000 0.042252 0.000000
# 6 0.000000 0.000000 0.000000 0.000000 0.000000 0.037291
#
#
# Mechanical properties :
#
#
# Convention : Reuss Voigt Hill
#
# Bulk Modulus (GPa) = 29.61464 41.52836 35.57150
# Shear Modulus (GPa) = 24.39845 28.23533 26.31689
#
# Velocity S-wave (km/s) = 3.50680 3.77248 3.64206
# Velocity P-wave (km/s) = 5.59675 6.31721 5.96786
#
# Compressibility (1/GPa) = 0.03376708
#
# Stress axis : x y z
#
# Youngs Moduli (GPa) = 29.37399 97.94442 100.54924
#
# Poissons Ratio (x) = 0.50996 0.34087
# Poissons Ratio (y) = 0.15294 0.16282
# Poissons Ratio (z) = 0.09958 0.15860
#
# Static dielectric constant tensor:
#      x y z
#    x 1.687250 0.000000 0.000000 
#    y 0.000000 1.710610 0.000000 
#    z 0.000000 0.000000 1.733260 
# 
# From -- ./inp_files/54325.got.cif
#   From: 2010.05.17/outbox.cif.g08.bks.cpg/sg71_28_cif.got.tgz:54325.got - 2010.06.03 16:22:01.
