data_PCOD9522363
_publ_section_title
;
Structure prediction by ZEFSAII (Michael W. Deem and Ramdas Pophale) SiO2 
 PCOD9522363
Probable space group: I M M M
;
_chemical_formula_sum "Si O2"
_cell_formula_units_Z 72
_cell_length_a 32.827946
_cell_length_b 8.170420
_cell_length_c 13.916273
_cell_angle_alpha 90.000000
_cell_angle_beta 90.000000
_cell_angle_gamma 90.000000
_cell_volume 3732.596394
_symmetry_space_group_name_H-M "I M M M"
_symmetry_group_IT_number 71
_symmetry_cell_setting 'orthorhombic'
loop_
_space_group_symop_operation_xyz
x,y,z
-x,-y,z
x,-y,-z
-x,y,-z
-x,-y,-z
x,y,-z
-x,y,z
x,-y,z
1/2+x,1/2+y,1/2+z
1/2-x,1/2-y,1/2+z
1/2+x,1/2-y,1/2-z
1/2-x,1/2+y,1/2-z
1/2-x,1/2-y,1/2-z
1/2+x,1/2+y,1/2-z
1/2-x,1/2+y,1/2+z
1/2+x,1/2-y,1/2+z
loop_
_atom_site_type_symbol
_atom_site_label
_atom_site_fract_x
_atom_site_fract_y
_atom_site_fract_z
Si Si1 0.500000 0.299891 0.887311
Si Si2 0.368627 0.305466 0.388829
Si Si3 0.130286 0.692998 0.500000
Si Si4 0.586217 0.697070 0.804493
Si Si5 0.273303 0.196729 0.000000
Si Si6 0.780098 0.313253 0.169579
O O1 0.500000 0.500000 0.888951
O O2 0.459333 0.246273 0.831832
O O3 0.500000 0.248567 0.000000
O O4 0.373935 0.241564 0.500000
O O5 0.375972 0.500000 0.394609
O O6 0.395888 0.241736 0.298275
O O7 0.321958 0.278313 0.355478
O O8 0.121737 0.500000 0.500000
O O9 0.112419 0.762228 0.599958
O O10 0.178591 0.718602 0.500000
O O11 0.585410 0.500000 0.797230
O O12 0.250840 0.287467 0.915697
O O13 0.265097 0.000000 0.000000
O O14 0.791682 0.500000 0.188446
O O15 0.750000 0.250000 0.250000
#
# Coordination Sequence:
#
# PCOD9522363 Si02
#       6
#     8  16   8  16   8  16
#     4   9  16  32  59  89 119 148 191 244 292 352
#     4  10  21  38  59  84 118 157 200 247 295 351
#     4  11  23  36  54  85 120 150 189 249 302 348
#     4  10  20  36  60  86 115 157 197 237 295 359
#     4  11  23  39  56  80 115 151 193 246 294 342
#     4  12  24  38  58  83 112 153 199 245 296 347
#
# _framework density 19.289522000000002
#
# number of rings (size 3 to 8) (size 9 to 14) (size 15 to 20)
#    0.000    1.444    2.222    4.000    0.000    6.222 
#    0.000    1.667    0.000    3.333    0.000    0.000 
#    0.000    3.556    0.000    0.000    0.000    0.000 
#
# Total GULP energy -200541.538733 kJ/mol
# GULP energy per Si atom -5570.598298 kJ/mol
# Density = 1.924562 g / cm^3
# Si number density = 19.289522 Si / 1000 Ang^3
#
#
#
# Elastic Constant Matrix: (Units=GPa)
#
#
# Indices 1 2 3 4 5 6 
#
# 1 107.8739 12.8528 75.4098 0.0000 0.0000 0.0000
# 2 12.8528 10.0648 4.5574 0.0000 0.0000 0.0000
# 3 75.4098 4.5574 206.7118 0.0000 0.0000 0.0000
# 4 0.0000 0.0000 0.0000 -644.3274 0.0000 0.0000
# 5 0.0000 0.0000 0.0000 0.0000 46.3158 0.0000
# 6 0.0000 0.0000 0.0000 0.0000 0.0000 13.1661
#
#
#
# Elastic Compliance Matrix: (Units=1/GPa)
#
#
# Indices 1 2 3 4 5 6 
#
# 1 0.014750 -0.016565 -0.005016 0.000000 0.000000 0.000000
# 2 -0.016565 0.118961 0.003420 0.000000 0.000000 0.000000
# 3 -0.005016 0.003420 0.006592 0.000000 0.000000 0.000000
# 4 0.000000 0.000000 0.000000 -0.001552 0.000000 0.000000
# 5 0.000000 0.000000 0.000000 0.000000 0.021591 0.000000
# 6 0.000000 0.000000 0.000000 0.000000 0.000000 0.075953
#
#
# Mechanical properties :
#
#
# Convention : Reuss Voigt Hill
#
# Bulk Modulus (GPa) = 9.61699 56.69894 33.15796
# Shear Modulus (GPa) = 16.27203 -101.51373 -42.62085
#
# Velocity S-wave (km/s) = 2.90758 -7.26227 -4.70567
# Velocity P-wave (km/s) = 4.03341 6.39245 3.50677
#
# Compressibility (1/GPa) = 0.10398261
#
# Stress axis : x y z
#
# Youngs Moduli (GPa) = 67.79701 8.40612 151.69913
#
# Poissons Ratio (x) = 0.13924 0.76087
# Poissons Ratio (y) = 1.12303 -0.51883
# Poissons Ratio (z) = 0.34005 -0.02875
#
# Static dielectric constant tensor:
#      x y z
#    x 1.433970 0.000000 0.000000 
#    y 0.000000 1.685250 0.000000 
#    z 0.000000 0.000000 1.670540 
# 
# From -- ./inp_files/40699.got.cif
#   From: 2010.05.17/outbox.cif.g08.bks.cpg/sg71_21_cif.got.tgz:40699.got - 2010.06.03 16:22:01.
