data_PCOD9522435
_publ_section_title
;
Structure prediction by ZEFSAII (Michael W. Deem and Ramdas Pophale) SiO2 
 PCOD9522435
Probable space group: I M M M
;
_chemical_formula_sum "Si O2"
_cell_formula_units_Z 116
_cell_length_a 25.616771
_cell_length_b 9.582658
_cell_length_c 26.288209
_cell_angle_alpha 90.000000
_cell_angle_beta 90.000000
_cell_angle_gamma 90.000000
_cell_volume 6453.144255
_symmetry_space_group_name_H-M "I M M M"
_symmetry_group_IT_number 71
_symmetry_cell_setting 'orthorhombic'
loop_
_space_group_symop_operation_xyz
x,y,z
-x,-y,z
x,-y,-z
-x,y,-z
-x,-y,-z
x,y,-z
-x,y,z
x,-y,z
1/2+x,1/2+y,1/2+z
1/2-x,1/2-y,1/2+z
1/2+x,1/2-y,1/2-z
1/2-x,1/2+y,1/2-z
1/2-x,1/2-y,1/2-z
1/2+x,1/2+y,1/2-z
1/2-x,1/2+y,1/2+z
1/2+x,1/2-y,1/2+z
loop_
_atom_site_type_symbol
_atom_site_label
_atom_site_fract_x
_atom_site_fract_y
_atom_site_fract_z
Si Si1 0.401964 0.666473 0.278993
Si Si2 0.153291 0.657410 0.631825
Si Si3 0.247941 0.284771 0.556432
Si Si4 0.441169 0.334932 0.163399
Si Si5 0.696743 0.836234 0.753231
Si Si6 0.636143 0.343141 0.561010
Si Si7 0.559477 0.836140 0.627137
Si Si8 0.755334 0.500000 0.000000
O O1 0.395586 0.500000 0.288140
O O2 0.428151 0.683389 0.223426
O O3 0.347228 0.749890 0.277228
O O4 0.435027 0.742938 0.322255
O O5 0.134671 0.500000 0.623540
O O6 0.199023 0.689438 0.592167
O O7 0.103900 0.759251 0.631859
O O8 0.178043 0.665030 0.688164
O O9 0.239922 0.348988 0.500000
O O10 0.303434 0.335175 0.577941
O O11 0.254443 0.122400 0.543621
O O12 0.500000 0.284556 0.153380
O O13 0.439194 0.500000 0.153452
O O14 0.750000 0.750000 0.750000
O O15 0.701324 0.000000 0.737687
O O16 0.636648 0.321350 0.500000
O O17 0.616386 0.500000 0.571416
O O18 0.600626 0.228865 0.587860
O O19 0.500000 0.825225 0.607873
O O20 0.569959 0.000000 0.637353
#
# Coordination Sequence:
#
# PCOD9522435 Si02
#       8
#    16  16  16  16  16  16  16   4
#     4  10  20  37  58  80 109 148 191 237 281 332
#     4  10  21  35  56  82 115 149 185 229 276 331
#     4   9  20  37  59  86 115 145 185 228 279 335
#     4   9  19  35  57  83 112 148 190 232 274 326
#     4  10  21  36  51  80 117 153 190 227 280 336
#     4  10  22  39  61  84 110 143 182 231 285 339
#     4  11  25  40  57  82 111 147 189 235 287 339
#     4   8  20  36  58  92 114 148 186 228 280 338
#
# _framework density 17.975733999999999
#
# number of rings (size 3 to 8) (size 9 to 14) (size 15 to 20)
#    0.414    1.793    0.000    2.069    3.862    4.414 
#    0.000    1.379    0.000    0.414    0.000    2.414 
#    0.000    0.000    0.000    0.000    0.000    0.000 
#
# Total GULP energy -322874.110175 kJ/mol
# GULP energy per Si atom -5566.795003 kJ/mol
# Density = 1.793482 g / cm^3
# Si number density = 17.975734 Si / 1000 Ang^3
#
#
#
# Elastic Constant Matrix: (Units=GPa)
#
#
# Indices 1 2 3 4 5 6 
#
# 1 134.0920 59.3471 31.3111 0.0000 0.0000 0.0000
# 2 59.3471 131.8860 29.0585 0.0000 0.0000 0.0000
# 3 31.3111 29.0585 38.2455 0.0000 0.0000 0.0000
# 4 0.0000 0.0000 0.0000 26.0653 0.0000 0.0000
# 5 0.0000 0.0000 0.0000 0.0000 20.6978 0.0000
# 6 0.0000 0.0000 0.0000 0.0000 0.0000 14.9771
#
#
#
# Elastic Compliance Matrix: (Units=1/GPa)
#
#
# Indices 1 2 3 4 5 6 
#
# 1 0.010315 -0.003340 -0.005907 0.000000 0.000000 0.000000
# 2 -0.003340 0.010188 -0.005006 0.000000 0.000000 0.000000
# 3 -0.005907 -0.005006 0.034787 0.000000 0.000000 0.000000
# 4 0.000000 0.000000 0.000000 0.038365 0.000000 0.000000
# 5 0.000000 0.000000 0.000000 0.000000 0.048314 0.000000
# 6 0.000000 0.000000 0.000000 0.000000 0.000000 0.066769
#
#
# Mechanical properties :
#
#
# Convention : Reuss Voigt Hill
#
# Bulk Modulus (GPa) = 37.33722 60.40631 48.87176
# Shear Modulus (GPa) = 20.31085 24.64849 22.47967
#
# Velocity S-wave (km/s) = 3.36505 3.70700 3.54016
# Velocity P-wave (km/s) = 5.99284 7.21109 6.63000
#
# Compressibility (1/GPa) = 0.02678293
#
# Stress axis : x y z
#
# Youngs Moduli (GPa) = 96.94400 98.15048 28.74652
#
# Poissons Ratio (x) = 0.32784 0.16981
# Poissons Ratio (y) = 0.32381 0.14392
# Poissons Ratio (z) = 0.57266 0.49139
#
# Static dielectric constant tensor:
#      x y z
#    x 1.612270 0.000000 0.000000 
#    y 0.000000 1.617420 0.000000 
#    z 0.000000 0.000000 1.620070 
# 
# From -- ./inp_files/66939.got.cif
#   From: 2010.05.17/outbox.cif.g08.bks.cpg/sg71_34_cif.got.tgz:66939.got - 2010.06.03 16:22:01.
