data_PCOD9522855
_publ_section_title
;
Structure prediction by ZEFSAII (Michael W. Deem and Ramdas Pophale) SiO2 
 PCOD9522855
Probable space group: I M M M
;
_chemical_formula_sum "Si O2"
_cell_formula_units_Z 112
_cell_length_a 14.191364
_cell_length_b 15.664825
_cell_length_c 25.742063
_cell_angle_alpha 90.000000
_cell_angle_beta 90.000000
_cell_angle_gamma 90.000000
_cell_volume 5722.595328
_symmetry_space_group_name_H-M "I M M M"
_symmetry_group_IT_number 71
_symmetry_cell_setting 'orthorhombic'
loop_
_space_group_symop_operation_xyz
x,y,z
-x,-y,z
x,-y,-z
-x,y,-z
-x,-y,-z
x,y,-z
-x,y,z
x,-y,z
1/2+x,1/2+y,1/2+z
1/2-x,1/2-y,1/2+z
1/2+x,1/2-y,1/2-z
1/2-x,1/2+y,1/2-z
1/2-x,1/2-y,1/2-z
1/2+x,1/2+y,1/2-z
1/2-x,1/2+y,1/2+z
1/2+x,1/2-y,1/2+z
loop_
_atom_site_type_symbol
_atom_site_label
_atom_site_fract_x
_atom_site_fract_y
_atom_site_fract_z
Si Si1 0.297720 0.838110 0.836469
Si Si2 0.265786 0.401994 0.440598
Si Si3 0.292222 0.096930 0.371293
Si Si4 0.896039 0.600995 0.766474
Si Si5 0.109780 0.152172 0.330689
Si Si6 0.393287 0.237788 0.561150
Si Si7 0.391724 0.601532 0.290744
O O1 0.304448 0.880680 0.893227
O O2 0.349735 0.884014 0.788988
O O3 0.344620 0.745614 0.836426
O O4 0.187446 0.844475 0.820385
O O5 0.228808 0.393135 0.500000
O O6 0.298270 0.500000 0.434759
O O7 0.347818 0.331740 0.434802
O O8 0.331863 0.126507 0.314915
O O9 0.179720 0.096595 0.365569
O O10 0.330299 0.166716 0.410994
O O11 0.325288 0.000000 0.382335
O O12 0.905134 0.500000 0.772338
O O13 0.000000 0.641501 0.768919
O O14 0.115726 0.122013 0.270664
O O15 0.000000 0.150752 0.345112
O O16 0.395690 0.218027 0.500000
O O17 0.500000 0.235758 0.581589
O O18 0.500000 0.618561 0.306491
O O19 0.372926 0.500000 0.298275
#
# Coordination Sequence:
#
# PCOD9522855 Si02
#       7
#    16  16  16  16  16  16  16
#     4  12  21  38  58  86 122 162 207 258 309 366
#     4  10  22  40  63  89 120 161 207 256 308 360
#     4  11  22  40  64  92 128 166 205 251 308 370
#     4  10  21  35  55  87 124 161 201 247 302 368
#     4  11  23  38  59  89 122 161 208 257 311 371
#     4  10  22  41  65  95 130 167 208 251 299 363
#     4  10  21  36  56  87 126 165 206 249 301 373
#
# _framework density 19.571539999999999
#
# number of rings (size 3 to 8) (size 9 to 14) (size 15 to 20)
#    0.000    1.429    2.857    3.000    0.000    2.857 
#    0.000    2.143    0.000    3.000    0.000    6.000 
#    0.000    0.000    0.000    0.000    0.000    0.000 
#
# Total GULP energy -312615.637686 kJ/mol
# GULP energy per Si atom -5582.422102 kJ/mol
# Density = 1.952699 g / cm^3
# Si number density = 19.571540 Si / 1000 Ang^3
#
#
#
# Elastic Constant Matrix: (Units=GPa)
#
#
# Indices 1 2 3 4 5 6 
#
# 1 111.3826 36.9947 42.3459 0.0000 0.0000 0.0000
# 2 36.9947 97.6978 41.8645 0.0000 0.0000 0.0000
# 3 42.3459 41.8645 82.9147 0.0000 0.0000 0.0000
# 4 0.0000 0.0000 0.0000 25.7888 0.0000 0.0000
# 5 0.0000 0.0000 0.0000 0.0000 22.8280 0.0000
# 6 0.0000 0.0000 0.0000 0.0000 0.0000 21.8197
#
#
#
# Elastic Compliance Matrix: (Units=1/GPa)
#
#
# Indices 1 2 3 4 5 6 
#
# 1 0.011551 -0.002356 -0.004710 0.000000 0.000000 0.000000
# 2 -0.002356 0.013542 -0.005634 0.000000 0.000000 0.000000
# 3 -0.004710 -0.005634 0.017311 0.000000 0.000000 0.000000
# 4 0.000000 0.000000 0.000000 0.038777 0.000000 0.000000
# 5 0.000000 0.000000 0.000000 0.000000 0.043806 0.000000
# 6 0.000000 0.000000 0.000000 0.000000 0.000000 0.045830
#
#
# Mechanical properties :
#
#
# Convention : Reuss Voigt Hill
#
# Bulk Modulus (GPa) = 58.80986 59.37835 59.09411
# Shear Modulus (GPa) = 24.76659 25.47329 25.11994
#
# Velocity S-wave (km/s) = 3.56116 3.61161 3.58647
# Velocity P-wave (km/s) = 6.85733 6.91351 6.88548
#
# Compressibility (1/GPa) = 0.01700395
#
# Stress axis : x y z
#
# Youngs Moduli (GPa) = 86.57159 73.84383 57.76717
#
# Poissons Ratio (x) = 0.17396 0.27208
# Poissons Ratio (y) = 0.20394 0.32548
# Poissons Ratio (z) = 0.40774 0.41607
#
# Static dielectric constant tensor:
#      x y z
#    x 1.713890 0.000000 0.000000 
#    y 0.000000 1.712620 0.000000 
#    z 0.000000 0.000000 1.688610 
# 
# From -- ./inp_files/34869.got.cif
#   From: 2010.05.17/outbox.cif.g08.bks.cpg/sg71_18_cif.got.tgz:34869.got - 2010.06.03 16:22:01.
