data_PCOD9522445
_publ_section_title
;
Structure prediction by ZEFSAII (Michael W. Deem and Ramdas Pophale) SiO2 
 PCOD9522445
Probable space group: I M M M
;
_chemical_formula_sum "Si O2"
_cell_formula_units_Z 116
_cell_length_a 25.846886
_cell_length_b 27.974939
_cell_length_c 8.271898
_cell_angle_alpha 90.000000
_cell_angle_beta 90.000000
_cell_angle_gamma 90.000000
_cell_volume 5981.120417
_symmetry_space_group_name_H-M "I M M M"
_symmetry_group_IT_number 71
_symmetry_cell_setting 'orthorhombic'
loop_
_space_group_symop_operation_xyz
x,y,z
-x,-y,z
x,-y,-z
-x,y,-z
-x,-y,-z
x,y,-z
-x,y,z
x,-y,z
1/2+x,1/2+y,1/2+z
1/2-x,1/2-y,1/2+z
1/2+x,1/2-y,1/2-z
1/2-x,1/2+y,1/2-z
1/2-x,1/2-y,1/2-z
1/2+x,1/2+y,1/2-z
1/2-x,1/2+y,1/2+z
1/2+x,1/2-y,1/2+z
loop_
_atom_site_type_symbol
_atom_site_label
_atom_site_fract_x
_atom_site_fract_y
_atom_site_fract_z
Si Si1 0.370692 0.053483 0.311284
Si Si2 0.876231 0.830895 0.316156
Si Si3 0.755495 0.803241 0.684413
Si Si4 0.559316 0.139277 0.808396
Si Si5 0.940495 0.741476 0.807771
Si Si6 0.632552 0.500000 0.000000
Si Si7 0.148888 0.929105 0.811126
Si Si8 0.770007 0.403128 0.315267
O O1 0.383642 0.052756 0.500000
O O2 0.405748 0.094013 0.231817
O O3 0.310904 0.068724 0.292002
O O4 0.378313 0.000000 0.244447
O O5 0.889593 0.843759 0.500000
O O6 0.816287 0.815345 0.312338
O O7 0.909323 0.785553 0.263500
O O8 0.879290 0.877856 0.206156
O O9 0.736833 0.805053 0.500000
O O10 0.750000 0.750000 0.750000
O O11 0.728635 0.846415 0.780179
O O12 0.500000 0.132567 0.748444
O O13 0.580396 0.188983 0.736548
O O14 0.557618 0.145259 0.000000
O O15 0.000000 0.742804 0.748851
O O16 0.940354 0.745955 0.000000
O O17 0.633825 0.459288 0.150352
O O18 0.210977 0.920579 0.793362
O O19 0.140881 0.945831 0.000000
O O20 0.784903 0.411896 0.500000
#
# Coordination Sequence:
#
# PCOD9522445 Si02
#       8
#    16  16  16  16  16   4  16  16
#     4  11  25  40  59  83 111 151 196 247 303 357
#     4  10  20  37  58  84 122 158 197 248 299 356
#     4  10  21  35  54  79 113 156 194 234 290 354
#     4  10  22  41  62  84 112 146 190 244 302 366
#     4  10  21  37  61  91 121 155 195 243 301 364
#     4  12  22  36  64  86 125 166 211 248 306 348
#     4  10  22  38  59  89 121 165 207 254 302 351
#     4  10  22  38  56  80 115 150 198 246 293 350
#
# _framework density 19.394359000000001
#
# number of rings (size 3 to 8) (size 9 to 14) (size 15 to 20)
#    0.000    1.793    0.690    2.690    4.828    4.690 
#    0.000    1.379    0.000    0.000    0.000    0.966 
#    0.000    2.207    0.000    0.000    0.000    0.000 
#
# Total GULP energy -323085.564971 kJ/mol
# GULP energy per Si atom -5570.440775 kJ/mol
# Density = 1.935022 g / cm^3
# Si number density = 19.394359 Si / 1000 Ang^3
#
#
#
# Elastic Constant Matrix: (Units=GPa)
#
#
# Indices 1 2 3 4 5 6 
#
# 1 32.5850 31.9168 11.2592 0.0000 0.0000 0.0000
# 2 31.9168 140.3015 38.3788 0.0000 0.0000 0.0000
# 3 11.2592 38.3788 91.8544 0.0000 0.0000 0.0000
# 4 0.0000 0.0000 0.0000 38.3748 0.0000 0.0000
# 5 0.0000 0.0000 0.0000 0.0000 20.9959 0.0000
# 6 0.0000 0.0000 0.0000 0.0000 0.0000 -70.4041
#
#
#
# Elastic Compliance Matrix: (Units=1/GPa)
#
#
# Indices 1 2 3 4 5 6 
#
# 1 0.039611 -0.008674 -0.001231 0.000000 0.000000 0.000000
# 2 -0.008674 0.009947 -0.003093 0.000000 0.000000 0.000000
# 3 -0.001231 -0.003093 0.012330 0.000000 0.000000 0.000000
# 4 0.000000 0.000000 0.000000 0.026059 0.000000 0.000000
# 5 0.000000 0.000000 0.000000 0.000000 0.047628 0.000000
# 6 0.000000 0.000000 0.000000 0.000000 0.000000 -0.014204
#
#
# Mechanical properties :
#
#
# Convention : Reuss Voigt Hill
#
# Bulk Modulus (GPa) = 27.86183 47.53894 37.70038
# Shear Modulus (GPa) = 31.38131 10.00573 20.69352
#
# Velocity S-wave (km/s) = 4.02688 2.27383 3.27002
# Velocity P-wave (km/s) = 6.00151 5.60880 5.80848
#
# Compressibility (1/GPa) = 0.03589140
#
# Stress axis : x y z
#
# Youngs Moduli (GPa) = 25.24573 100.53518 81.10362
#
# Poissons Ratio (x) = 0.87206 0.09984
# Poissons Ratio (y) = 0.21899 0.25083
# Poissons Ratio (z) = 0.03108 0.31093
#
# Static dielectric constant tensor:
#      x y z
#    x 1.655560 0.000000 0.000000 
#    y 0.000000 1.689320 0.000000 
#    z 0.000000 0.000000 1.680340 
# 
# From -- ./inp_files/15380.got.cif
#   From: 2010.05.17/outbox.cif.g08.bks.cpg/sg71_8_cif.got.tgz:15380.got - 2010.06.03 16:22:01.
