data_PCOD9522796
_publ_section_title
;
Structure prediction by ZEFSAII (Michael W. Deem and Ramdas Pophale) SiO2 
 PCOD9522796
Probable space group: I M M M
;
_chemical_formula_sum "Si O2"
_cell_formula_units_Z 72
_cell_length_a 22.578715
_cell_length_b 12.906544
_cell_length_c 13.413252
_cell_angle_alpha 90.000000
_cell_angle_beta 90.000000
_cell_angle_gamma 90.000000
_cell_volume 3908.798401
_symmetry_space_group_name_H-M "I M M M"
_symmetry_group_IT_number 71
_symmetry_cell_setting 'orthorhombic'
loop_
_space_group_symop_operation_xyz
x,y,z
-x,-y,z
x,-y,-z
-x,y,-z
-x,-y,-z
x,y,-z
-x,y,z
x,-y,z
1/2+x,1/2+y,1/2+z
1/2-x,1/2-y,1/2+z
1/2+x,1/2-y,1/2-z
1/2-x,1/2+y,1/2-z
1/2-x,1/2-y,1/2-z
1/2+x,1/2+y,1/2-z
1/2-x,1/2+y,1/2+z
1/2+x,1/2-y,1/2+z
loop_
_atom_site_type_symbol
_atom_site_label
_atom_site_fract_x
_atom_site_fract_y
_atom_site_fract_z
Si Si1 0.781512 0.310112 0.612480
Si Si2 0.432654 0.254121 0.693854
Si Si3 0.928301 0.380965 0.000000
Si Si4 0.179066 0.880188 0.741012
Si Si5 0.412894 0.118514 0.887769
O O1 0.760579 0.301971 0.500000
O O2 0.802015 0.197859 0.652868
O O3 0.730506 0.359789 0.678561
O O4 0.841523 0.376547 0.616688
O O5 0.500000 0.290796 0.673723
O O6 0.412717 0.182079 0.600520
O O7 0.383543 0.341284 0.714299
O O8 0.434190 0.186179 0.795177
O O9 0.906023 0.500000 0.000000
O O10 0.000000 0.386810 0.000000
O O11 0.176501 0.000000 0.712514
O O12 0.432057 0.000000 0.877302
O O13 0.429242 0.155128 0.000000
#
# Coordination Sequence:
#
# PCOD9522796 Si02
#       5
#    16  16   8  16  16
#     4   9  19  36  57  80 109 136 175 225 272 327
#     4  10  21  35  51  76 111 146 185 225 262 316
#     4   9  18  34  53  71 101 147 188 224 266 307
#     4  10  21  36  57  81 108 143 180 221 272 325
#     4   9  17  31  54  82 107 134 171 221 280 331
#
# _framework density 18.419983999999999
#
# number of rings (size 3 to 8) (size 9 to 14) (size 15 to 20)
#    0.000    2.556    0.000    1.333    1.556    4.000 
#    0.000    2.222    0.000    2.000    0.000    6.222 
#    0.000    0.000    0.000    0.000    0.000    0.000 
#
# Total GULP energy -200725.008521 kJ/mol
# GULP energy per Si atom -5575.694681 kJ/mol
# Density = 1.837806 g / cm^3
# Si number density = 18.419984 Si / 1000 Ang^3
#
#
#
# Elastic Constant Matrix: (Units=GPa)
#
#
# Indices 1 2 3 4 5 6 
#
# 1 68.9736 10.9485 -2.8197 0.0000 0.0000 0.0000
# 2 10.9485 89.8454 7.1201 0.0000 0.0000 0.0000
# 3 -2.8197 7.1201 71.2142 0.0000 0.0000 0.0000
# 4 0.0000 0.0000 0.0000 11.3699 0.0000 0.0000
# 5 0.0000 0.0000 0.0000 0.0000 15.7531 0.0000
# 6 0.0000 0.0000 0.0000 0.0000 0.0000 5.3534
#
#
#
# Elastic Compliance Matrix: (Units=1/GPa)
#
#
# Indices 1 2 3 4 5 6 
#
# 1 0.014826 -0.001868 0.000774 0.000000 0.000000 0.000000
# 2 -0.001868 0.011454 -0.001219 0.000000 0.000000 0.000000
# 3 0.000774 -0.001219 0.014195 0.000000 0.000000 0.000000
# 4 0.000000 0.000000 0.000000 0.087952 0.000000 0.000000
# 5 0.000000 0.000000 0.000000 0.000000 0.063480 0.000000
# 6 0.000000 0.000000 0.000000 0.000000 0.000000 0.186799
#
#
# Mechanical properties :
#
#
# Convention : Reuss Voigt Hill
#
# Bulk Modulus (GPa) = 27.89497 28.94787 28.42142
# Shear Modulus (GPa) = 12.64919 20.81421 16.73170
#
# Velocity S-wave (km/s) = 2.62336 3.36516 3.01715
# Velocity P-wave (km/s) = 4.93485 5.55416 5.25364
#
# Compressibility (1/GPa) = 0.03584876
#
# Stress axis : x y z
#
# Youngs Moduli (GPa) = 67.44697 87.30197 70.44889
#
# Poissons Ratio (x) = 0.16309 -0.05452
# Poissons Ratio (y) = 0.12600 0.08589
# Poissons Ratio (z) = -0.05219 0.10644
#
# Static dielectric constant tensor:
#      x y z
#    x 1.648740 0.000000 0.000000 
#    y 0.000000 1.608180 0.000000 
#    z 0.000000 0.000000 1.631700 
# 
# From -- ./inp_files/27020.got.cif
#   From: 2010.05.17/outbox.cif.g08.bks.cpg/sg71_14_cif.got.tgz:27020.got - 2010.06.03 16:22:01.
