data_PCOD9522596
_publ_section_title
;
Structure prediction by ZEFSAII (Michael W. Deem and Ramdas Pophale) SiO2 
 PCOD9522596
Probable space group: I M M M
;
_chemical_formula_sum "Si O2"
_cell_formula_units_Z 82
_cell_length_a 7.752075
_cell_length_b 21.808746
_cell_length_c 23.266497
_cell_angle_alpha 90.000000
_cell_angle_beta 90.000000
_cell_angle_gamma 90.000000
_cell_volume 3933.504588
_symmetry_space_group_name_H-M "I M M M"
_symmetry_group_IT_number 71
_symmetry_cell_setting 'orthorhombic'
loop_
_space_group_symop_operation_xyz
x,y,z
-x,-y,z
x,-y,-z
-x,y,-z
-x,-y,-z
x,y,-z
-x,y,z
x,-y,z
1/2+x,1/2+y,1/2+z
1/2-x,1/2-y,1/2+z
1/2+x,1/2-y,1/2-z
1/2-x,1/2+y,1/2-z
1/2-x,1/2-y,1/2-z
1/2+x,1/2+y,1/2-z
1/2-x,1/2+y,1/2+z
1/2+x,1/2-y,1/2+z
loop_
_atom_site_type_symbol
_atom_site_label
_atom_site_fract_x
_atom_site_fract_y
_atom_site_fract_z
Si Si1 0.802599 0.627373 0.342943
Si Si2 0.207318 0.071080 0.500000
Si Si3 0.500000 0.500000 0.500000
Si Si4 0.297668 0.143091 0.386388
Si Si5 0.787649 0.571869 0.773577
Si Si6 0.204870 0.770597 0.934088
Si Si7 0.809903 0.500000 0.590742
O O1 0.727664 0.614162 0.279785
O O2 0.726392 0.673187 0.390238
O O3 0.801794 0.560282 0.370752
O O4 0.000000 0.648176 0.335003
O O5 0.279370 0.103015 0.443453
O O6 0.000000 0.077121 0.500000
O O7 0.252891 0.000000 0.500000
O O8 0.650994 0.500000 0.548804
O O9 0.500000 0.152802 0.373300
O O10 0.229380 0.104655 0.332321
O O11 0.222219 0.209421 0.403695
O O12 0.734755 0.500000 0.770072
O O13 0.000000 0.570644 0.771640
O O14 0.000000 0.761075 0.940423
O O15 0.271370 0.780192 0.000000
O O16 0.000000 0.500000 0.563146
#
# Coordination Sequence:
#
# PCOD9522596 Si02
#       7
#    16   8   2  16  16  16   8
#     4  10  21  38  59  85 120 159 203 251 306 367
#     4  11  23  37  56  87 127 156 188 245 309 356
#     4  12  26  36  64  90 124 164 210 254 330 374
#     4  10  20  38  63  88 114 155 206 248 293 363
#     4   9  17  34  61  89 116 151 198 254 306 359
#     4  10  22  38  56  83 121 157 200 254 301 353
#     4  10  23  41  61  92 129 162 213 270 314 382
#
# _framework density 20.846551999999999
#
# number of rings (size 3 to 8) (size 9 to 14) (size 15 to 20)
#    0.000    2.049    1.951    1.024    2.732    3.512 
#    0.000    0.976    0.000    1.171    0.000    0.000 
#    0.000    0.000    0.000    0.000    0.000    0.000 
#
# Total GULP energy -228409.081442 kJ/mol
# GULP energy per Si atom -5570.953206 kJ/mol
# Density = 2.079910 g / cm^3
# Si number density = 20.846552 Si / 1000 Ang^3
#
#
#
# Elastic Constant Matrix: (Units=GPa)
#
#
# Indices 1 2 3 4 5 6 
#
# 1 48.8226 -6.0060 12.4777 0.0000 0.0000 0.0000
# 2 -6.0060 137.8898 68.3770 0.0000 0.0000 0.0000
# 3 12.4777 68.3770 186.7235 0.0000 0.0000 0.0000
# 4 0.0000 0.0000 0.0000 20.9651 0.0000 0.0000
# 5 0.0000 0.0000 0.0000 0.0000 12.0212 0.0000
# 6 0.0000 0.0000 0.0000 0.0000 0.0000 0.2177
#
#
#
# Elastic Compliance Matrix: (Units=1/GPa)
#
#
# Indices 1 2 3 4 5 6 
#
# 1 0.021278 0.001994 -0.002152 0.000000 0.000000 0.000000
# 2 0.001994 0.009048 -0.003447 0.000000 0.000000 0.000000
# 3 -0.002152 -0.003447 0.006761 0.000000 0.000000 0.000000
# 4 0.000000 0.000000 0.000000 0.047698 0.000000 0.000000
# 5 0.000000 0.000000 0.000000 0.000000 0.083186 0.000000
# 6 0.000000 0.000000 0.000000 0.000000 0.000000 4.594335
#
#
# Mechanical properties :
#
#
# Convention : Reuss Voigt Hill
#
# Bulk Modulus (GPa) = 33.46972 58.12591 45.79781
# Shear Modulus (GPa) = 1.04614 26.54661 13.79638
#
# Velocity S-wave (km/s) = 0.70917 3.57239 2.57535
# Velocity P-wave (km/s) = 4.09398 6.70516 5.55517
#
# Compressibility (1/GPa) = 0.02987776
#
# Stress axis : x y z
#
# Youngs Moduli (GPa) = 46.99778 110.52018 147.89737
#
# Poissons Ratio (x) = -0.22037 0.31828
# Poissons Ratio (y) = -0.09371 0.50974
# Poissons Ratio (z) = 0.10114 0.38092
#
# Static dielectric constant tensor:
#      x y z
#    x 1.789200 0.000000 0.000000 
#    y 0.000000 1.715350 0.000000 
#    z 0.000000 0.000000 1.746860 
# 
# From -- ./inp_files/57494.got.cif
#   From: 2010.05.17/outbox.cif.g08.bks.cpg/sg71_29_cif.got.tgz:57494.got - 2010.06.03 16:22:01.
