data_PCOD9522367
_publ_section_title
;
Structure prediction by ZEFSAII (Michael W. Deem and Ramdas Pophale) SiO2 
 PCOD9522367
Probable space group: I M M M
;
_chemical_formula_sum "Si O2"
_cell_formula_units_Z 104
_cell_length_a 17.568597
_cell_length_b 29.095895
_cell_length_c 10.482609
_cell_angle_alpha 90.000000
_cell_angle_beta 90.000000
_cell_angle_gamma 90.000000
_cell_volume 5358.437735
_symmetry_space_group_name_H-M "I M M M"
_symmetry_group_IT_number 71
_symmetry_cell_setting 'orthorhombic'
loop_
_space_group_symop_operation_xyz
x,y,z
-x,-y,z
x,-y,-z
-x,y,-z
-x,-y,-z
x,y,-z
-x,y,z
x,-y,z
1/2+x,1/2+y,1/2+z
1/2-x,1/2-y,1/2+z
1/2+x,1/2-y,1/2-z
1/2-x,1/2+y,1/2-z
1/2-x,1/2-y,1/2-z
1/2+x,1/2+y,1/2-z
1/2-x,1/2+y,1/2+z
1/2+x,1/2-y,1/2+z
loop_
_atom_site_type_symbol
_atom_site_label
_atom_site_fract_x
_atom_site_fract_y
_atom_site_fract_z
Si Si1 0.816215 0.053434 0.138504
Si Si2 0.000000 0.554974 0.358525
Si Si3 0.090829 0.293416 0.349503
Si Si4 0.661063 0.053176 0.729733
Si Si5 0.339620 0.697039 0.152440
Si Si6 0.821732 0.347816 0.854501
Si Si7 0.412309 0.603960 0.149046
O O1 0.725579 0.054658 0.161126
O O2 0.858700 0.077065 0.254880
O O3 0.838235 0.000000 0.138734
O O4 0.835044 0.073734 0.000000
O O5 0.922588 0.563857 0.283136
O O6 0.000000 0.500000 0.373799
O O7 0.000000 0.576566 0.500000
O O8 0.109223 0.302612 0.500000
O O9 0.134317 0.247035 0.303580
O O10 0.117728 0.332295 0.251438
O O11 0.000000 0.286598 0.343233
O O12 0.683317 0.096756 0.643917
O O13 0.662018 0.000000 0.679356
O O14 0.257995 0.675677 0.188827
O O15 0.401458 0.657800 0.179729
O O16 0.336451 0.701339 0.000000
O O17 0.838800 0.332687 0.000000
O O18 0.500000 0.590330 0.163180
O O19 0.390394 0.597409 0.000000
#
# Coordination Sequence:
#
# PCOD9522367 Si02
#       7
#    16   8  16  16  16  16  16
#     4  10  21  37  57  83 119 160 199 246 306 364
#     4   9  18  34  57  83 113 153 203 255 297 341
#     4  10  22  40  63  90 119 156 200 247 300 362
#     4  10  21  38  60  88 121 161 205 248 299 361
#     4   9  18  38  63  88 117 153 198 245 298 357
#     4  11  23  39  61  90 123 158 197 248 304 357
#     4  10  20  36  60  87 115 153 202 253 301 356
#
# _framework density 19.408640999999999
#
# number of rings (size 3 to 8) (size 9 to 14) (size 15 to 20)
#    0.000    2.077    1.538    1.385    1.077    6.462 
#    0.000    3.846    0.000    3.231    0.000    0.000 
#    0.000    0.000    0.000    0.000    0.000    0.000 
#
# Total GULP energy -289747.018942 kJ/mol
# GULP energy per Si atom -5572.058057 kJ/mol
# Density = 1.936447 g / cm^3
# Si number density = 19.408641 Si / 1000 Ang^3
#
#
#
# Elastic Constant Matrix: (Units=GPa)
#
#
# Indices 1 2 3 4 5 6 
#
# 1 90.6099 38.3299 44.7206 0.0000 0.0000 0.0000
# 2 38.3299 102.8085 43.6489 0.0001 0.0000 0.0000
# 3 44.7206 43.6489 88.8893 0.0012 0.0000 0.0001
# 4 0.0000 0.0001 0.0012 19.0863 0.0000 0.0000
# 5 0.0000 0.0000 0.0000 0.0000 16.8105 0.0000
# 6 0.0000 0.0000 0.0001 0.0000 0.0000 29.9498
#
#
#
# Elastic Compliance Matrix: (Units=1/GPa)
#
#
# Indices 1 2 3 4 5 6 
#
# 1 0.015428 -0.003104 -0.006238 0.000000 0.000000 0.000000
# 2 -0.003104 0.012913 -0.004780 0.000000 0.000000 0.000000
# 3 -0.006238 -0.004780 0.016735 -0.000001 0.000000 0.000000
# 4 0.000000 0.000000 -0.000001 0.052394 0.000000 0.000000
# 5 0.000000 0.000000 0.000000 0.000000 0.059487 0.000000
# 6 0.000000 0.000000 0.000000 0.000000 0.000000 0.033389
#
#
# Mechanical properties :
#
#
# Convention : Reuss Voigt Hill
#
# Bulk Modulus (GPa) = 59.40241 59.52293 59.46267
# Shear Modulus (GPa) = 22.30162 23.54322 22.92242
#
# Velocity S-wave (km/s) = 3.39345 3.48663 3.44036
# Velocity P-wave (km/s) = 6.78429 6.85154 6.81800
#
# Compressibility (1/GPa) = 0.01683434
#
# Stress axis : x y z
#
# Youngs Moduli (GPa) = 64.81770 77.44049 59.75428
#
# Poissons Ratio (x) = 0.24034 0.37274
# Poissons Ratio (y) = 0.20117 0.28560
# Poissons Ratio (z) = 0.40432 0.37013
#
# Static dielectric constant tensor:
#      x y z
#    x 1.706110 0.000000 0.000000 
#    y 0.000000 1.715180 0.000000 
#    z 0.000000 0.000000 1.677280 
# 
# From -- ./inp_files/24576.got.cif
#   From: 2010.05.17/outbox.cif.g08.bks.cpg/sg71_13_cif.got.tgz:24576.got - 2010.06.03 16:22:01.
