data_PCOD9522669
_publ_section_title
;
Structure prediction by ZEFSAII (Michael W. Deem and Ramdas Pophale) SiO2 
 PCOD9522669
Probable space group: I M M M
;
_chemical_formula_sum "Si O2"
_cell_formula_units_Z 70
_cell_length_a 29.998908
_cell_length_b 7.678718
_cell_length_c 15.697674
_cell_angle_alpha 90.000000
_cell_angle_beta 90.000000
_cell_angle_gamma 90.000000
_cell_volume 3616.008730
_symmetry_space_group_name_H-M "I M M M"
_symmetry_group_IT_number 71
_symmetry_cell_setting 'orthorhombic'
loop_
_space_group_symop_operation_xyz
x,y,z
-x,-y,z
x,-y,-z
-x,y,-z
-x,-y,-z
x,y,-z
-x,y,z
x,-y,z
1/2+x,1/2+y,1/2+z
1/2-x,1/2-y,1/2+z
1/2+x,1/2-y,1/2-z
1/2-x,1/2+y,1/2-z
1/2-x,1/2-y,1/2-z
1/2+x,1/2+y,1/2-z
1/2-x,1/2+y,1/2+z
1/2+x,1/2-y,1/2+z
loop_
_atom_site_type_symbol
_atom_site_label
_atom_site_fract_x
_atom_site_fract_y
_atom_site_fract_z
Si Si1 0.650343 0.500000 0.000000
Si Si2 0.780995 0.310876 0.500000
Si Si3 0.000000 0.000000 0.500000
Si Si4 0.052790 0.708432 0.223071
Si Si5 0.724550 0.208322 0.662687
Si Si6 0.630156 0.211232 0.402690
Si Si7 0.422914 0.500000 0.857436
O O1 0.681699 0.666276 0.000000
O O2 0.621569 0.500000 0.086394
O O3 0.802165 0.500000 0.500000
O O4 0.750619 0.288360 0.583168
O O5 0.038209 0.000000 0.573816
O O6 0.057967 0.500000 0.239904
O O7 0.083568 0.754991 0.142168
O O8 0.070775 0.829093 0.299071
O O9 0.000000 0.741197 0.210566
O O10 0.750000 0.250000 0.750000
O O11 0.672901 0.265796 0.653797
O O12 0.725371 0.000000 0.652119
O O13 0.634101 0.274298 0.500000
O O14 0.631533 0.000000 0.406147
#
# Coordination Sequence:
#
# PCOD9522669 Si02
#       7
#     4   8   2  16  16  16   8
#     4  11  28  43  66  92 126 174 211 270 325 388
#     4  12  25  45  65  94 132 166 216 278 331 389
#     4  10  20  44  70  88 122 174 204 256 336 368
#     4  10  21  39  66  96 129 166 211 264 318 382
#     4  11  22  40  64  89 127 175 220 269 328 392
#     4   9  19  37  61  90 126 169 213 263 320 383
#     4  11  23  44  67  91 129 169 216 263 322 393
#
# _framework density 19.358360000000001
#
# number of rings (size 3 to 8) (size 9 to 14) (size 15 to 20)
#    0.000    1.600    3.429    0.686    3.200    1.371 
#    2.057    5.143    0.000    1.371    0.000    0.000 
#    0.000    0.000    0.000    0.000    0.000    0.000 
#
# Total GULP energy -195164.474109 kJ/mol
# GULP energy per Si atom -5576.127832 kJ/mol
# Density = 1.931430 g / cm^3
# Si number density = 19.358360 Si / 1000 Ang^3
#
#
#
# Elastic Constant Matrix: (Units=GPa)
#
#
# Indices 1 2 3 4 5 6 
#
# 1 148.8278 45.2930 70.1433 0.0000 0.0000 0.0000
# 2 45.2930 87.6991 26.7634 0.0000 0.0000 0.0000
# 3 70.1433 26.7634 148.5192 0.0000 0.0000 0.0000
# 4 0.0000 0.0000 0.0000 12.1103 0.0000 0.0000
# 5 0.0000 0.0000 0.0000 0.0000 63.6130 0.0000
# 6 0.0000 0.0000 0.0000 0.0000 0.0000 17.9803
#
#
#
# Elastic Compliance Matrix: (Units=1/GPa)
#
#
# Indices 1 2 3 4 5 6 
#
# 1 0.009724 -0.003831 -0.003902 0.000000 0.000000 0.000000
# 2 -0.003831 0.013576 -0.000637 0.000000 0.000000 0.000000
# 3 -0.003902 -0.000637 0.008691 0.000000 0.000000 0.000000
# 4 0.000000 0.000000 0.000000 0.082575 0.000000 0.000000
# 5 0.000000 0.000000 0.000000 0.000000 0.015720 0.000000
# 6 0.000000 0.000000 0.000000 0.000000 0.000000 0.055617
#
#
# Mechanical properties :
#
#
# Convention : Reuss Voigt Hill
#
# Bulk Modulus (GPa) = 65.57386 74.38283 69.97834
# Shear Modulus (GPa) = 24.07012 34.93047 29.50030
#
# Velocity S-wave (km/s) = 3.53001 4.25245 3.90796
# Velocity P-wave (km/s) = 7.11068 7.91319 7.52265
#
# Compressibility (1/GPa) = 0.01524998
#
# Stress axis : x y z
#
# Youngs Moduli (GPa) = 102.83506 73.66095 115.06343
#
# Poissons Ratio (x) = 0.28222 0.44900
# Poissons Ratio (y) = 0.39400 0.07328
# Poissons Ratio (z) = 0.40129 0.04691
#
# Static dielectric constant tensor:
#      x y z
#    x 1.662420 0.000000 0.000000 
#    y 0.000000 1.695110 0.000000 
#    z 0.000000 0.000000 1.658270 
# 
# From -- ./inp_files/40012.got.cif
#   From: 2010.05.17/outbox.cif.g08.bks.cpg/sg71_21_cif.got.tgz:40012.got - 2010.06.03 16:22:01.
