data_PCOD9522531
_publ_section_title
;
Structure prediction by ZEFSAII (Michael W. Deem and Ramdas Pophale) SiO2 
 PCOD9522531
Probable space group: I M M M
;
_chemical_formula_sum "Si O2"
_cell_formula_units_Z 72
_cell_length_a 27.335573
_cell_length_b 8.599836
_cell_length_c 15.811757
_cell_angle_alpha 90.000000
_cell_angle_beta 90.000000
_cell_angle_gamma 90.000000
_cell_volume 3717.050680
_symmetry_space_group_name_H-M "I M M M"
_symmetry_group_IT_number 71
_symmetry_cell_setting 'orthorhombic'
loop_
_space_group_symop_operation_xyz
x,y,z
-x,-y,z
x,-y,-z
-x,y,-z
-x,-y,-z
x,y,-z
-x,y,z
x,-y,z
1/2+x,1/2+y,1/2+z
1/2-x,1/2-y,1/2+z
1/2+x,1/2-y,1/2-z
1/2-x,1/2+y,1/2-z
1/2-x,1/2-y,1/2-z
1/2+x,1/2+y,1/2-z
1/2-x,1/2+y,1/2+z
1/2+x,1/2-y,1/2+z
loop_
_atom_site_type_symbol
_atom_site_label
_atom_site_fract_x
_atom_site_fract_y
_atom_site_fract_z
Si Si1 0.224077 0.312631 0.500000
Si Si2 0.557529 0.187983 0.172539
Si Si3 0.442590 0.813110 0.500000
Si Si4 0.112988 0.185225 0.835833
Si Si5 0.389414 0.810981 0.000000
Si Si6 0.722929 0.814188 0.332995
O O1 0.226147 0.500000 0.500000
O O2 0.167186 0.263713 0.500000
O O3 0.250495 0.249718 0.416536
O O4 0.500000 0.224291 0.171434
O O5 0.584013 0.264395 0.251993
O O6 0.562362 0.000000 0.179549
O O7 0.582950 0.238288 0.085084
O O8 0.500000 0.771237 0.500000
O O9 0.416136 0.747513 0.582851
O O10 0.438914 0.000000 0.500000
O O11 0.166944 0.258275 0.833490
O O12 0.117090 0.000000 0.840418
O O13 0.390368 0.000000 0.000000
O O14 0.750000 0.750000 0.250000
O O15 0.724646 0.000000 0.332491
#
# Coordination Sequence:
#
# PCOD9522531 Si02
#       6
#     8  16   8  16   8  16
#     4  11  22  39  63  92 126 165 207 250 304 367
#     4  10  20  37  62  91 123 161 205 250 298 355
#     4  11  24  43  66  91 121 161 208 257 310 367
#     4  12  25  41  62  90 124 161 203 252 309 370
#     4   9  19  36  61  90 121 159 201 245 290 347
#     4  12  25  43  65  91 124 162 207 257 310 368
#
# _framework density 19.370194999999999
#
# number of rings (size 3 to 8) (size 9 to 14) (size 15 to 20)
#    0.000    1.000    0.000    7.667    0.000    7.111 
#    0.000    1.667    0.000    1.333    0.000    0.000 
#    0.000    0.000    0.000    0.000    0.000    0.000 
#
# Total GULP energy -201514.715903 kJ/mol
# GULP energy per Si atom -5597.630997 kJ/mol
# Density = 1.932611 g / cm^3
# Si number density = 19.370195 Si / 1000 Ang^3
#
#
#
# Elastic Constant Matrix: (Units=GPa)
#
#
# Indices 1 2 3 4 5 6 
#
# 1 209.7134 90.7222 131.3708 0.0000 0.0000 0.0000
# 2 90.7222 124.8615 80.3826 0.0000 0.0000 0.0000
# 3 131.3708 80.3826 234.1802 0.0000 0.0000 0.0000
# 4 0.0000 0.0000 0.0000 10.3001 0.0000 0.0000
# 5 0.0000 0.0000 0.0000 0.0000 47.7103 0.0000
# 6 0.0000 0.0000 0.0000 0.0000 0.0000 31.8511
#
#
#
# Elastic Compliance Matrix: (Units=1/GPa)
#
#
# Indices 1 2 3 4 5 6 
#
# 1 0.008725 -0.004093 -0.003490 0.000000 0.000000 0.000000
# 2 -0.004093 0.012201 -0.001892 0.000000 0.000000 0.000000
# 3 -0.003490 -0.001892 0.006877 0.000000 0.000000 0.000000
# 4 0.000000 0.000000 0.000000 0.097087 0.000000 0.000000
# 5 0.000000 0.000000 0.000000 0.000000 0.020960 0.000000
# 6 0.000000 0.000000 0.000000 0.000000 0.000000 0.031396
#
#
# Mechanical properties :
#
#
# Convention : Reuss Voigt Hill
#
# Bulk Modulus (GPa) = 112.94264 130.41180 121.67722
# Shear Modulus (GPa) = 25.10724 35.72425 30.41574
#
# Velocity S-wave (km/s) = 3.60415 4.29918 3.96692
# Velocity P-wave (km/s) = 8.70367 9.59771 9.16160
#
# Compressibility (1/GPa) = 0.00885405
#
# Stress axis : x y z
#
# Youngs Moduli (GPa) = 114.61240 81.96306 145.40694
#
# Poissons Ratio (x) = 0.33547 0.50743
# Poissons Ratio (y) = 0.46910 0.27509
# Poissons Ratio (z) = 0.39996 0.15506
#
# Static dielectric constant tensor:
#      x y z
#    x 1.641390 0.000000 0.000000 
#    y 0.000000 1.654660 0.000000 
#    z 0.000000 0.000000 1.631430 
# 
# From -- ./inp_files/39996.got.cif
#   From: 2010.05.17/outbox.cif.g08.bks.cpg/sg71_20_cif.got.tgz:39996.got - 2010.06.03 16:22:01.
