data_PCOD9522840
_publ_section_title
;
Structure prediction by ZEFSAII (Michael W. Deem and Ramdas Pophale) SiO2 
 PCOD9522840
Probable space group: I M M M
;
_chemical_formula_sum "Si O2"
_cell_formula_units_Z 88
_cell_length_a 8.048247
_cell_length_b 30.371990
_cell_length_c 17.892913
_cell_angle_alpha 90.000000
_cell_angle_beta 90.000000
_cell_angle_gamma 90.000000
_cell_volume 4373.766510
_symmetry_space_group_name_H-M "I M M M"
_symmetry_group_IT_number 71
_symmetry_cell_setting 'orthorhombic'
loop_
_space_group_symop_operation_xyz
x,y,z
-x,-y,z
x,-y,-z
-x,y,-z
-x,-y,-z
x,y,-z
-x,y,z
x,-y,z
1/2+x,1/2+y,1/2+z
1/2-x,1/2-y,1/2+z
1/2+x,1/2-y,1/2-z
1/2-x,1/2+y,1/2-z
1/2-x,1/2-y,1/2-z
1/2+x,1/2+y,1/2-z
1/2-x,1/2+y,1/2+z
1/2+x,1/2-y,1/2+z
loop_
_atom_site_type_symbol
_atom_site_label
_atom_site_fract_x
_atom_site_fract_y
_atom_site_fract_z
Si Si1 0.698877 0.552022 0.417420
Si Si2 0.298331 0.884620 0.633611
Si Si3 0.697620 0.550543 0.000000
Si Si4 0.306639 0.880147 0.800899
Si Si5 0.809993 0.288064 0.089672
Si Si6 0.803051 0.691929 0.585375
O O1 0.750229 0.567942 0.500000
O O2 0.500000 0.558731 0.410644
O O3 0.728674 0.500000 0.413878
O O4 0.790656 0.577631 0.353109
O O5 0.500000 0.884344 0.629900
O O6 0.246061 0.920997 0.573188
O O7 0.239722 0.891190 0.718793
O O8 0.239837 0.835093 0.613904
O O9 0.764604 0.500000 0.000000
O O10 0.500000 0.547420 0.000000
O O11 0.500000 0.868657 0.788520
O O12 0.231920 0.840801 0.851702
O O13 0.721025 0.242591 0.109258
O O14 0.000000 0.284972 0.117347
O O15 0.813301 0.289475 0.000000
O O16 0.735175 0.686344 0.500000
O O17 0.000000 0.683156 0.580388
#
# Coordination Sequence:
#
# PCOD9522840 Si02
#       6
#    16  16   8  16  16  16
#     4   9  19  36  56  77 105 144 185 225 273 327
#     4  10  21  39  60  82 110 146 184 226 279 336
#     4  11  25  43  63  87 111 139 183 237 292 347
#     4  10  21  35  54  82 115 147 183 227 275 331
#     4   9  17  32  54  77 104 143 189 228 265 320
#     4   9  18  32  50  77 114 152 184 221 269 316
#
# _framework density 20.119958
#
# number of rings (size 3 to 8) (size 9 to 14) (size 15 to 20)
#    0.000    2.455    0.909    1.364    0.000    5.818 
#    0.000    6.364    0.000    0.000    0.000    0.000 
#    0.000    0.000    0.000    0.000    0.000    0.000 
#
# Total GULP energy -245275.238189 kJ/mol
# GULP energy per Si atom -5574.437232 kJ/mol
# Density = 2.007416 g / cm^3
# Si number density = 20.119958 Si / 1000 Ang^3
#
#
#
# Elastic Constant Matrix: (Units=GPa)
#
#
# Indices 1 2 3 4 5 6 
#
# 1 13.2674 11.0477 18.0077 0.0000 0.0000 0.0000
# 2 11.0477 109.1799 87.6207 0.0001 0.0000 0.0000
# 3 18.0077 87.6207 155.0874 0.0002 0.0000 0.0000
# 4 0.0000 0.0001 0.0002 -19.6204 0.0000 0.0000
# 5 0.0000 0.0000 0.0000 0.0000 9.6871 0.0000
# 6 0.0000 0.0000 0.0000 0.0000 0.0000 28.6734
#
#
#
# Elastic Compliance Matrix: (Units=1/GPa)
#
#
# Indices 1 2 3 4 5 6 
#
# 1 0.089576 -0.001312 -0.009660 0.000000 0.000000 0.000000
# 2 -0.001312 0.016776 -0.009326 0.000000 0.000000 0.000000
# 3 -0.009660 -0.009326 0.012839 0.000000 0.000000 0.000000
# 4 0.000000 0.000000 0.000000 -0.050967 0.000000 0.000000
# 5 0.000000 0.000000 0.000000 0.000000 0.103230 0.000000
# 6 0.000000 0.000000 0.000000 0.000000 0.000000 0.034876
#
#
# Mechanical properties :
#
#
# Convention : Reuss Voigt Hill
#
# Bulk Modulus (GPa) = 12.72324 56.76519 34.74421
# Shear Modulus (GPa) = 18.30677 14.47194 16.38935
#
# Velocity S-wave (km/s) = 3.01970 2.68485 2.85718
# Velocity P-wave (km/s) = 4.30064 6.15515 5.30949
#
# Compressibility (1/GPa) = 0.07859631
#
# Stress axis : x y z
#
# Youngs Moduli (GPa) = 11.16366 59.60804 77.89041
#
# Poissons Ratio (x) = 0.07818 0.75242
# Poissons Ratio (y) = 0.01464 0.72640
# Poissons Ratio (z) = 0.10784 0.55590
#
# Static dielectric constant tensor:
#      x y z
#    x 1.737900 0.000000 0.000000 
#    y 0.000000 1.710140 0.000000 
#    z 0.000000 0.000000 1.723420 
# 
# From -- ./inp_files/42510.got.cif
#   From: 2010.05.17/outbox.cif.g08.bks.cpg/sg71_22_cif.got.tgz:42510.got - 2010.06.03 16:22:01.
