data_PCOD9522741
_publ_section_title
;
Structure prediction by ZEFSAII (Michael W. Deem and Ramdas Pophale) SiO2 
 PCOD9522741
Probable space group: I M M M
;
_chemical_formula_sum "Si O2"
_cell_formula_units_Z 58
_cell_length_a 9.534204
_cell_length_b 18.228521
_cell_length_c 17.625268
_cell_angle_alpha 90.000000
_cell_angle_beta 90.000000
_cell_angle_gamma 90.000000
_cell_volume 3063.173544
_symmetry_space_group_name_H-M "I M M M"
_symmetry_group_IT_number 71
_symmetry_cell_setting 'orthorhombic'
loop_
_space_group_symop_operation_xyz
x,y,z
-x,-y,z
x,-y,-z
-x,y,-z
-x,-y,-z
x,y,-z
-x,y,z
x,-y,z
1/2+x,1/2+y,1/2+z
1/2-x,1/2-y,1/2+z
1/2+x,1/2-y,1/2-z
1/2-x,1/2+y,1/2-z
1/2-x,1/2-y,1/2-z
1/2+x,1/2+y,1/2-z
1/2-x,1/2+y,1/2+z
1/2+x,1/2-y,1/2+z
loop_
_atom_site_type_symbol
_atom_site_label
_atom_site_fract_x
_atom_site_fract_y
_atom_site_fract_z
Si Si1 0.210178 0.418699 0.000000
Si Si2 0.668743 0.416585 0.735246
Si Si3 0.000000 0.000000 0.500000
Si Si4 0.329808 0.661938 0.414103
Si Si5 0.337805 0.179119 0.352880
O O1 0.375892 0.436810 0.000000
O O2 0.169216 0.373109 0.073782
O O3 0.146870 0.500000 0.000000
O O4 0.500000 0.409983 0.743167
O O5 0.707037 0.500000 0.756547
O O6 0.706101 0.399267 0.647947
O O7 0.744187 0.358109 0.788599
O O8 0.277957 0.651484 0.500000
O O9 0.500000 0.663717 0.418203
O O10 0.287727 0.740749 0.379772
O O11 0.500000 0.185416 0.327767
#
# Coordination Sequence:
#
# PCOD9522741 Si02
#       5
#     8  16   2  16  16
#     4  10  21  34  54  79 112 152 182 218 277 331
#     4  10  22  36  56  83 113 148 185 231 285 334
#     4   8  24  36  50  84 120 152 174 240 280 324
#     4   9  18  36  58  82 111 143 187 238 281 329
#     4  11  21  35  57  82 111 148 186 229 278 335
#
# _framework density 18.934612999999999
#
# number of rings (size 3 to 8) (size 9 to 14) (size 15 to 20)
#    0.414    1.655    1.379    2.069    1.931    3.310 
#    0.000    2.759    0.000    2.483    0.000    1.931 
#    0.000    0.000    0.000    0.000    0.000    0.000 
#
# Total GULP energy -161494.750996 kJ/mol
# GULP energy per Si atom -5568.784517 kJ/mol
# Density = 1.889152 g / cm^3
# Si number density = 18.934613 Si / 1000 Ang^3
#
#
#
# Elastic Constant Matrix: (Units=GPa)
#
#
# Indices 1 2 3 4 5 6 
#
# 1 49.2126 -0.7641 9.1984 0.0000 0.0000 0.0000
# 2 -0.7641 9.3913 -6.0884 0.0000 0.0000 0.0000
# 3 9.1984 -6.0884 98.9957 0.0000 0.0000 0.0000
# 4 0.0000 0.0000 0.0000 37.1513 0.0000 0.0000
# 5 0.0000 0.0000 0.0000 0.0000 10.6610 0.0000
# 6 0.0000 0.0000 0.0000 0.0000 0.0000 18.7594
#
#
#
# Elastic Compliance Matrix: (Units=1/GPa)
#
#
# Indices 1 2 3 4 5 6 
#
# 1 0.020681 0.000455 -0.001894 0.000000 0.000000 0.000000
# 2 0.000455 0.110914 0.006779 0.000000 0.000000 0.000000
# 3 -0.001894 0.006779 0.010694 0.000000 0.000000 0.000000
# 4 0.000000 0.000000 0.000000 0.026917 0.000000 0.000000
# 5 0.000000 0.000000 0.000000 0.000000 0.093800 0.000000
# 6 0.000000 0.000000 0.000000 0.000000 0.000000 0.053307
#
#
# Mechanical properties :
#
#
# Convention : Reuss Voigt Hill
#
# Bulk Modulus (GPa) = 6.53723 18.03238 12.28481
# Shear Modulus (GPa) = 14.02046 23.66459 18.84253
#
# Velocity S-wave (km/s) = 2.72411 3.53909 3.15800
# Velocity P-wave (km/s) = 3.65436 5.12293 4.44965
#
# Compressibility (1/GPa) = 0.15296991
#
# Stress axis : x y z
#
# Youngs Moduli (GPa) = 48.35354 9.01602 93.50748
#
# Poissons Ratio (x) = -0.00410 0.17707
# Poissons Ratio (y) = -0.02200 -0.63390
# Poissons Ratio (z) = 0.09156 -0.06112
#
# Static dielectric constant tensor:
#      x y z
#    x 1.643320 0.000000 0.000000 
#    y 0.000000 1.651330 0.000000 
#    z 0.000000 0.000000 1.666530 
# 
# From -- ./inp_files/32413.got.cif
#   From: 2010.05.17/outbox.cif.g08.bks.cpg/sg71_17_cif.got.tgz:32413.got - 2010.06.03 16:22:01.
