data_PCOD9522618
_publ_section_title
;
Structure prediction by ZEFSAII (Michael W. Deem and Ramdas Pophale) SiO2 
 PCOD9522618
Probable space group: I M M M
;
_chemical_formula_sum "Si O2"
_cell_formula_units_Z 84
_cell_length_a 14.948304
_cell_length_b 11.877019
_cell_length_c 25.323840
_cell_angle_alpha 90.000000
_cell_angle_beta 90.000000
_cell_angle_gamma 90.000000
_cell_volume 4496.027237
_symmetry_space_group_name_H-M "I M M M"
_symmetry_group_IT_number 71
_symmetry_cell_setting 'orthorhombic'
loop_
_space_group_symop_operation_xyz
x,y,z
-x,-y,z
x,-y,-z
-x,y,-z
-x,-y,-z
x,y,-z
-x,y,z
x,-y,z
1/2+x,1/2+y,1/2+z
1/2-x,1/2-y,1/2+z
1/2+x,1/2-y,1/2-z
1/2-x,1/2+y,1/2-z
1/2-x,1/2-y,1/2-z
1/2+x,1/2+y,1/2-z
1/2-x,1/2+y,1/2+z
1/2+x,1/2-y,1/2+z
loop_
_atom_site_type_symbol
_atom_site_label
_atom_site_fract_x
_atom_site_fract_y
_atom_site_fract_z
Si Si1 0.000000 0.128332 0.163936
Si Si2 0.694428 0.283626 0.662829
Si Si3 0.000000 0.211902 0.719230
Si Si4 0.500000 0.500000 0.856187
Si Si5 0.689404 0.754987 0.060726
Si Si6 0.149031 0.000000 0.442618
Si Si7 0.500000 0.129791 0.063421
Si Si8 0.833489 0.372516 0.256929
O O1 0.907005 0.185415 0.148983
O O2 0.000000 0.140310 0.227106
O O3 0.000000 0.000000 0.146725
O O4 0.747935 0.290752 0.608534
O O5 0.746470 0.361657 0.705547
O O6 0.691013 0.168574 0.697576
O O7 0.088554 0.290119 0.721103
O O8 0.000000 0.116873 0.675218
O O9 0.584600 0.500000 0.893652
O O10 0.697741 0.619492 0.059331
O O11 0.589667 0.799657 0.075590
O O12 0.707083 0.794668 0.000000
O O13 0.101819 0.000000 0.500000
O O14 0.500000 0.000000 0.084464
O O15 0.500000 0.120431 0.000000
O O16 0.865592 0.500000 0.256542
#
# Coordination Sequence:
#
# PCOD9522618 Si02
#       8
#     8  16   8   4  16   8   8  16
#     4  10  20  39  57  78 116 151 190 239 297 343
#     4  10  22  37  58  87 109 154 195 234 299 342
#     4  10  21  35  57  89 113 154 187 232 294 339
#     4  12  19  32  56  84 126 154 199 226 260 364
#     4  10  21  39  60  86 118 151 191 237 288 348
#     4  10  21  34  54  83 120 157 187 231 284 335
#     4   9  19  35  56  83 120 157 184 222 280 342
#     4  10  21  38  58  84 118 149 194 240 287 350
#
# _framework density 18.683160999999998
#
# number of rings (size 3 to 8) (size 9 to 14) (size 15 to 20)
#    0.000    2.000    0.476    2.714    1.333    3.810 
#    1.714    1.429    0.000    0.571    0.000    2.000 
#    0.000    0.000    0.000    0.000    0.000    0.000 
#
# Total GULP energy -234060.312270 kJ/mol
# GULP energy per Si atom -5572.864578 kJ/mol
# Density = 1.864064 g / cm^3
# Si number density = 18.683161 Si / 1000 Ang^3
#
#
#
# Elastic Constant Matrix: (Units=GPa)
#
#
# Indices 1 2 3 4 5 6 
#
# 1 126.1441 22.7860 62.4239 0.0000 0.0000 0.0000
# 2 22.7860 85.5863 27.0283 0.0000 0.0000 0.0000
# 3 62.4239 27.0283 114.5036 0.0000 0.0000 0.0000
# 4 0.0000 0.0000 0.0000 -13.7719 0.0000 0.0000
# 5 0.0000 0.0000 0.0000 0.0000 30.8781 0.0000
# 6 0.0000 0.0000 0.0000 0.0000 0.0000 3.2822
#
#
#
# Elastic Compliance Matrix: (Units=1/GPa)
#
#
# Indices 1 2 3 4 5 6 
#
# 1 0.010954 -0.001113 -0.005709 0.000000 0.000000 0.000000
# 2 -0.001113 0.012738 -0.002400 0.000000 0.000000 0.000000
# 3 -0.005709 -0.002400 0.012412 0.000000 0.000000 0.000000
# 4 0.000000 0.000000 0.000000 -0.072612 0.000000 0.000000
# 5 0.000000 0.000000 0.000000 0.000000 0.032385 0.000000
# 6 0.000000 0.000000 0.000000 0.000000 0.000000 0.304672
#
#
# Mechanical properties :
#
#
# Convention : Reuss Voigt Hill
#
# Bulk Modulus (GPa) = 56.62503 61.19003 58.90753
# Shear Modulus (GPa) = 15.39029 18.34408 16.86718
#
# Velocity S-wave (km/s) = 2.87322 3.13685 3.00793
# Velocity P-wave (km/s) = 6.43281 6.77808 6.60770
#
# Compressibility (1/GPa) = 0.01766003
#
# Stress axis : x y z
#
# Youngs Moduli (GPa) = 91.29416 78.50268 80.56671
#
# Poissons Ratio (x) = 0.08740 0.45994
# Poissons Ratio (y) = 0.10165 0.19335
# Poissons Ratio (z) = 0.52118 0.18840
#
# Static dielectric constant tensor:
#      x y z
#    x 1.661380 0.000000 0.000000 
#    y 0.000000 1.705750 0.000000 
#    z 0.000000 0.000000 1.650300 
# 
# From -- ./inp_files/59718.got.cif
#   From: 2010.05.17/outbox.cif.g08.bks.cpg/sg71_30_cif.got.tgz:59718.got - 2010.06.03 16:22:01.
