data_PCOD9522128
_publ_section_title
;
Structure prediction by ZEFSAII (Michael W. Deem and Ramdas Pophale) SiO2 
 PCOD9522128
Probable space group: I M M M
;
_chemical_formula_sum "Si O2"
_cell_formula_units_Z 96
_cell_length_a 15.871006
_cell_length_b 11.406184
_cell_length_c 28.649349
_cell_angle_alpha 90.000000
_cell_angle_beta 90.000000
_cell_angle_gamma 90.000000
_cell_volume 5186.323312
_symmetry_space_group_name_H-M "I M M M"
_symmetry_group_IT_number 71
_symmetry_cell_setting 'orthorhombic'
loop_
_space_group_symop_operation_xyz
x,y,z
-x,-y,z
x,-y,-z
-x,y,-z
-x,-y,-z
x,y,-z
-x,y,z
x,-y,z
1/2+x,1/2+y,1/2+z
1/2-x,1/2-y,1/2+z
1/2+x,1/2-y,1/2-z
1/2-x,1/2+y,1/2-z
1/2-x,1/2-y,1/2-z
1/2+x,1/2+y,1/2-z
1/2-x,1/2+y,1/2+z
1/2+x,1/2-y,1/2+z
loop_
_atom_site_type_symbol
_atom_site_label
_atom_site_fract_x
_atom_site_fract_y
_atom_site_fract_z
Si Si1 0.829794 0.500000 0.049993
Si Si2 0.403373 0.637763 0.106450
Si Si3 0.150095 0.258368 0.196421
Si Si4 0.834485 0.139135 0.292210
Si Si5 0.404669 0.000000 0.654542
Si Si6 0.904475 0.860737 0.898191
Si Si7 0.256827 0.250954 0.948356
O O1 0.861084 0.500000 0.103791
O O2 0.775998 0.383296 0.047671
O O3 0.881497 0.500000 0.000000
O O4 0.500000 0.659118 0.092932
O O5 0.383731 0.500000 0.094632
O O6 0.392474 0.645534 0.162325
O O7 0.339124 0.730558 0.083532
O O8 0.129173 0.197081 0.245368
O O9 0.250151 0.286416 0.196150
O O10 0.113213 0.385853 0.185202
O O11 0.117902 0.178150 0.154292
O O12 0.814402 0.000000 0.284663
O O13 0.500000 0.000000 0.640832
O O14 0.825062 0.815148 0.928040
O O15 0.000000 0.815910 0.910202
O O16 0.907175 0.000000 0.901953
O O17 0.277888 0.205515 0.000000
#
# Coordination Sequence:
#
# PCOD9522128 Si02
#       7
#     8  16  16  16   8  16  16
#     4  10  20  35  59  86 118 159 199 243 300 362
#     4  10  20  36  61  92 124 157 196 247 305 362
#     4  11  21  36  59  87 121 159 199 244 302 357
#     4  10  20  37  60  86 119 158 203 245 292 360
#     4  12  22  35  56  85 123 158 197 249 302 357
#     4  11  24  41  62  89 121 160 205 248 296 362
#     4  11  22  39  62  88 122 158 197 250 307 362
#
# _framework density 18.510223
#
# number of rings (size 3 to 8) (size 9 to 14) (size 15 to 20)
#    0.000    1.333    5.000    1.000    0.000    2.500 
#    0.000    5.000    0.000    0.500    0.000    1.167 
#    0.000    0.000    0.000    0.000    0.000    0.000 
#
# Total GULP energy -267338.914021 kJ/mol
# GULP energy per Si atom -5569.560709 kJ/mol
# Density = 1.846809 g / cm^3
# Si number density = 18.510223 Si / 1000 Ang^3
#
#
#
# Elastic Constant Matrix: (Units=GPa)
#
#
# Indices 1 2 3 4 5 6 
#
# 1 86.7209 35.1808 52.5392 0.0000 0.0000 0.0000
# 2 35.1808 62.8921 34.2335 0.0000 0.0000 0.0000
# 3 52.5392 34.2335 105.5128 0.0000 0.0000 0.0000
# 4 0.0000 0.0000 0.0000 38.3960 0.0000 0.0000
# 5 0.0000 0.0000 0.0000 0.0000 52.9606 0.0000
# 6 0.0000 0.0000 0.0000 0.0000 0.0000 35.3931
#
#
#
# Elastic Compliance Matrix: (Units=1/GPa)
#
#
# Indices 1 2 3 4 5 6 
#
# 1 0.018447 -0.006460 -0.007090 0.000000 0.000000 0.000000
# 2 -0.006460 0.021573 -0.003783 0.000000 0.000000 0.000000
# 3 -0.007090 -0.003783 0.014235 0.000000 0.000000 0.000000
# 4 0.000000 0.000000 0.000000 0.026044 0.000000 0.000000
# 5 0.000000 0.000000 0.000000 0.000000 0.018882 0.000000
# 6 0.000000 0.000000 0.000000 0.000000 0.000000 0.028254
#
#
# Mechanical properties :
#
#
# Convention : Reuss Voigt Hill
#
# Bulk Modulus (GPa) = 51.04512 55.44810 53.24661
# Shear Modulus (GPa) = 29.65072 34.22810 31.93941
#
# Velocity S-wave (km/s) = 4.00666 4.30483 4.15842
# Velocity P-wave (km/s) = 7.00293 7.39792 7.20313
#
# Compressibility (1/GPa) = 0.01959051
#
# Stress axis : x y z
#
# Youngs Moduli (GPa) = 54.20897 46.35472 70.24923
#
# Poissons Ratio (x) = 0.29945 0.49804
# Poissons Ratio (y) = 0.35019 0.26572
# Poissons Ratio (z) = 0.38432 0.17534
#
# Static dielectric constant tensor:
#      x y z
#    x 1.671290 0.000000 0.000000 
#    y 0.000000 1.641690 0.000000 
#    z 0.000000 0.000000 1.577100 
# 
# From -- ./inp_files/69885.got.cif
#   From: 2010.05.17/outbox.cif.g08.bks.cpg/sg71_35_cif.got.tgz:69885.got - 2010.06.03 16:22:01.
