data_PCOD9522142
_publ_section_title
;
Structure prediction by ZEFSAII (Michael W. Deem and Ramdas Pophale) SiO2 
 PCOD9522142
Probable space group: I M M M
;
_chemical_formula_sum "Si O2"
_cell_formula_units_Z 80
_cell_length_a 7.872307
_cell_length_b 29.872614
_cell_length_c 16.228462
_cell_angle_alpha 90.000000
_cell_angle_beta 90.000000
_cell_angle_gamma 90.000000
_cell_volume 3816.388796
_symmetry_space_group_name_H-M "I M M M"
_symmetry_group_IT_number 71
_symmetry_cell_setting 'orthorhombic'
loop_
_space_group_symop_operation_xyz
x,y,z
-x,-y,z
x,-y,-z
-x,y,-z
-x,-y,-z
x,y,-z
-x,y,z
x,-y,z
1/2+x,1/2+y,1/2+z
1/2-x,1/2-y,1/2+z
1/2+x,1/2-y,1/2-z
1/2-x,1/2+y,1/2-z
1/2-x,1/2-y,1/2-z
1/2+x,1/2+y,1/2-z
1/2-x,1/2+y,1/2+z
1/2+x,1/2-y,1/2+z
loop_
_atom_site_type_symbol
_atom_site_label
_atom_site_fract_x
_atom_site_fract_y
_atom_site_fract_z
Si Si1 0.797989 0.854168 0.910305
Si Si2 0.293074 0.950908 0.657560
Si Si3 0.205135 0.549559 0.351115
Si Si4 0.795564 0.642819 0.089944
Si Si5 0.298105 0.698191 0.250739
O O1 0.772646 0.907148 0.897148
O O2 0.726678 0.827858 0.831051
O O3 0.000000 0.845719 0.912281
O O4 0.727462 0.841077 0.000000
O O5 0.500000 0.951003 0.653866
O O6 0.248607 0.946377 0.754251
O O7 0.232368 0.907453 0.609311
O O8 0.235991 0.000000 0.628560
O O9 0.260452 0.500000 0.379689
O O10 0.000000 0.550615 0.356011
O O11 0.754093 0.674275 0.166363
O O12 0.000000 0.640532 0.086722
O O13 0.734280 0.658006 0.000000
O O14 0.500000 0.694951 0.255347
O O15 0.250000 0.750000 0.250000
#
# Coordination Sequence:
#
# PCOD9522142 Si02
#       5
#    16  16  16  16  16
#     4  10  22  39  58  82 112 147 187 231 282 338
#     4   8  14  27  50  81 116 151 187 227 270 320
#     4   9  17  31  54  83 115 151 190 231 273 322
#     4  10  20  35  59  89 119 152 190 232 279 334
#     4  11  24  42  63  84 110 145 186 239 296 349
#
# _framework density 20.962226000000001
#
# number of rings (size 3 to 8) (size 9 to 14) (size 15 to 20)
#    0.000    2.400    2.000    1.800    0.000    3.600 
#    0.000    6.000    0.000    0.600    0.000    1.400 
#    0.000    0.000    0.000    0.000    0.000    0.000 
#
# Total GULP energy -223252.199499 kJ/mol
# GULP energy per Si atom -5581.304987 kJ/mol
# Density = 2.091451 g / cm^3
# Si number density = 20.962226 Si / 1000 Ang^3
#
#
#
# Elastic Constant Matrix: (Units=GPa)
#
#
# Indices 1 2 3 4 5 6 
#
# 1 22.1095 1.6354 16.6384 0.0000 0.0000 0.0000
# 2 1.6354 149.0988 104.9494 0.0000 0.0000 0.0000
# 3 16.6384 104.9494 183.9762 -0.0003 0.0000 0.0000
# 4 0.0000 0.0000 -0.0003 -3.6649 0.0000 0.0000
# 5 0.0000 0.0000 0.0000 0.0000 17.8334 0.0000
# 6 0.0000 0.0000 0.0000 0.0000 0.0000 21.0376
#
#
#
# Elastic Compliance Matrix: (Units=1/GPa)
#
#
# Indices 1 2 3 4 5 6 
#
# 1 0.050218 0.004421 -0.007064 0.000000 0.000000 0.000000
# 2 0.004421 0.011596 -0.007015 0.000000 0.000000 0.000000
# 3 -0.007064 -0.007015 0.010076 -0.000001 0.000000 0.000000
# 4 0.000000 0.000000 -0.000001 -0.272859 0.000000 0.000000
# 5 0.000000 0.000000 0.000000 0.000000 0.056074 0.000000
# 6 0.000000 0.000000 0.000000 0.000000 0.000000 0.047534
#
#
# Mechanical properties :
#
#
# Convention : Reuss Voigt Hill
#
# Bulk Modulus (GPa) = 19.02020 66.84786 42.93403
# Shear Modulus (GPa) = -82.61706 22.50532 -30.05587
#
# Velocity S-wave (km/s) = -6.28474 3.28016 -3.79068
# Velocity P-wave (km/s) = 6.60080 6.80476 1.16923
#
# Compressibility (1/GPa) = 0.05257569
#
# Stress axis : x y z
#
# Youngs Moduli (GPa) = 19.91307 86.23510 99.24592
#
# Poissons Ratio (x) = -0.38127 0.70105
# Poissons Ratio (y) = -0.08804 0.69620
# Poissons Ratio (z) = 0.14066 0.60493
#
# Static dielectric constant tensor:
#      x y z
#    x 1.773390 0.000000 0.000000 
#    y 0.000000 1.713730 0.000000 
#    z 0.000000 0.000000 1.781190 
# 
# From -- ./inp_files/42234.got.cif
#   From: 2010.05.17/outbox.cif.g08.bks.cpg/sg71_22_cif.got.tgz:42234.got - 2010.06.03 16:22:01.
