data_PCOD9522192
_publ_section_title
;
Structure prediction by ZEFSAII (Michael W. Deem and Ramdas Pophale) SiO2 
 PCOD9522192
Probable space group: I M M M
;
_chemical_formula_sum "Si O2"
_cell_formula_units_Z 72
_cell_length_a 7.939056
_cell_length_b 35.131982
_cell_length_c 13.617672
_cell_angle_alpha 90.000000
_cell_angle_beta 90.000000
_cell_angle_gamma 90.000000
_cell_volume 3798.169888
_symmetry_space_group_name_H-M "I M M M"
_symmetry_group_IT_number 71
_symmetry_cell_setting 'orthorhombic'
loop_
_space_group_symop_operation_xyz
x,y,z
-x,-y,z
x,-y,-z
-x,y,-z
-x,-y,-z
x,y,-z
-x,y,z
x,-y,z
1/2+x,1/2+y,1/2+z
1/2-x,1/2-y,1/2+z
1/2+x,1/2-y,1/2-z
1/2-x,1/2+y,1/2-z
1/2-x,1/2-y,1/2-z
1/2+x,1/2+y,1/2-z
1/2-x,1/2+y,1/2+z
1/2+x,1/2-y,1/2+z
loop_
_atom_site_type_symbol
_atom_site_label
_atom_site_fract_x
_atom_site_fract_y
_atom_site_fract_z
Si Si1 0.192706 0.364551 0.290378
Si Si2 0.193945 0.788866 0.701369
Si Si3 0.701673 0.755307 0.500000
Si Si4 0.190414 0.000000 0.381947
Si Si5 0.300886 0.084267 0.613282
Si Si6 0.705142 0.164968 0.000000
O O1 0.195834 0.323164 0.240756
O O2 0.270886 0.391298 0.204763
O O3 0.263416 0.356475 0.400100
O O4 0.000000 0.377863 0.305306
O O5 0.250000 0.750000 0.750000
O O6 0.222347 0.778483 0.589818
O O7 0.000000 0.797619 0.724013
O O8 0.500000 0.757855 0.500000
O O9 0.744571 0.709917 0.500000
O O10 0.278324 0.960098 0.359143
O O11 0.181678 0.000000 0.500000
O O12 0.000000 0.000000 0.342730
O O13 0.234470 0.090226 0.500000
O O14 0.500000 0.093040 0.607658
O O15 0.500000 0.165058 0.000000
#
# Coordination Sequence:
#
# PCOD9522192 Si02
#       6
#    16  16   8   8  16   8
#     4  10  21  36  55  80 109 143 183 227 275 326
#     4  12  24  38  55  78 107 143 186 233 282 330
#     4  12  24  38  56  76 103 142 187 234 283 335
#     4   9  17  31  53  80 109 140 170 209 262 323
#     4   9  18  33  54  81 110 140 173 214 267 328
#     4  10  20  36  56  75 105 144 186 229 270 323
#
# _framework density 18.956498
#
# number of rings (size 3 to 8) (size 9 to 14) (size 15 to 20)
#    0.000    1.667    2.222    3.333    1.556    2.222 
#    0.000    0.000    0.000    0.667    0.000    4.667 
#    0.000    0.000    0.000    0.000    0.000    0.000 
#
# Total GULP energy -200529.326242 kJ/mol
# GULP energy per Si atom -5570.259062 kJ/mol
# Density = 1.891335 g / cm^3
# Si number density = 18.956498 Si / 1000 Ang^3
#
#
#
# Elastic Constant Matrix: (Units=GPa)
#
#
# Indices 1 2 3 4 5 6 
#
# 1 47.2427 -14.1883 -9.4534 0.0000 0.0000 0.0000
# 2 -14.1883 92.8048 54.7928 0.0000 -0.0001 0.0000
# 3 -9.4534 54.7928 159.8545 0.0001 -0.0001 0.0000
# 4 0.0000 0.0000 0.0001 31.0050 0.0000 0.0000
# 5 0.0000 -0.0001 -0.0001 0.0000 2.8961 0.0000
# 6 0.0000 0.0000 0.0000 0.0000 0.0000 15.3543
#
#
#
# Elastic Compliance Matrix: (Units=1/GPa)
#
#
# Indices 1 2 3 4 5 6 
#
# 1 0.022190 0.003282 0.000187 0.000000 0.000000 0.000000
# 2 0.003282 0.013995 -0.004603 0.000000 0.000000 0.000000
# 3 0.000187 -0.004603 0.007844 0.000000 0.000000 0.000000
# 4 0.000000 0.000000 0.000000 0.032253 0.000000 0.000000
# 5 0.000000 0.000000 0.000000 0.000000 0.345292 0.000000
# 6 0.000000 0.000000 0.000000 0.000000 0.000000 0.065128
#
#
# Mechanical properties :
#
#
# Convention : Reuss Voigt Hill
#
# Bulk Modulus (GPa) = 23.94496 40.24493 32.09494
# Shear Modulus (GPa) = 9.94252 27.76781 18.85517
#
# Velocity S-wave (km/s) = 2.29266 3.83145 3.15724
# Velocity P-wave (km/s) = 4.43479 6.39136 5.50077
#
# Compressibility (1/GPa) = 0.04176244
#
# Stress axis : x y z
#
# Youngs Moduli (GPa) = 45.06447 71.45620 127.47862
#
# Poissons Ratio (x) = -0.23452 -0.02388
# Poissons Ratio (y) = -0.14790 0.58676
# Poissons Ratio (z) = -0.00844 0.32890
#
# Static dielectric constant tensor:
#      x y z
#    x 1.669850 0.000000 0.000000 
#    y 0.000000 1.625640 0.000000 
#    z 0.000000 0.000000 1.664520 
# 
# From -- ./inp_files/31716.got.cif
#   From: 2010.05.17/outbox.cif.g08.bks.cpg/sg71_16_cif.got.tgz:31716.got - 2010.06.03 16:22:01.
