data_PCOD9522116
_publ_section_title
;
Structure prediction by ZEFSAII (Michael W. Deem and Ramdas Pophale) SiO2 
 PCOD9522116
Probable space group: I M M M
;
_chemical_formula_sum "Si O2"
_cell_formula_units_Z 104
_cell_length_a 28.301235
_cell_length_b 8.850996
_cell_length_c 22.148338
_cell_angle_alpha 90.000000
_cell_angle_beta 90.000000
_cell_angle_gamma 90.000000
_cell_volume 5548.028388
_symmetry_space_group_name_H-M "I M M M"
_symmetry_group_IT_number 71
_symmetry_cell_setting 'orthorhombic'
loop_
_space_group_symop_operation_xyz
x,y,z
-x,-y,z
x,-y,-z
-x,y,-z
-x,-y,-z
x,y,-z
-x,y,z
x,-y,z
1/2+x,1/2+y,1/2+z
1/2-x,1/2-y,1/2+z
1/2+x,1/2-y,1/2-z
1/2-x,1/2+y,1/2-z
1/2-x,1/2-y,1/2-z
1/2+x,1/2+y,1/2-z
1/2-x,1/2+y,1/2+z
1/2+x,1/2-y,1/2+z
loop_
_atom_site_type_symbol
_atom_site_label
_atom_site_fract_x
_atom_site_fract_y
_atom_site_fract_z
Si Si1 0.443674 0.827346 0.500000
Si Si2 0.945765 0.832828 0.571972
Si Si3 0.120379 0.325555 0.346454
Si Si4 0.704142 0.182943 0.069153
Si Si5 0.807808 0.319822 0.929716
Si Si6 0.100230 0.819061 0.118218
Si Si7 0.945634 0.181904 0.245614
O O1 0.500000 0.831429 0.500000
O O2 0.426356 0.743634 0.559706
O O3 0.425242 0.000000 0.500000
O O4 0.945084 0.829319 0.500000
O O5 0.916303 0.697870 0.598924
O O6 0.000000 0.824402 0.592123
O O7 0.927514 0.000000 0.590983
O O8 0.126811 0.500000 0.330212
O O9 0.168719 0.267268 0.377489
O O10 0.093618 0.241887 0.292221
O O11 0.756225 0.248578 0.079255
O O12 0.705347 0.000000 0.070094
O O13 0.689352 0.227227 0.000000
O O14 0.805741 0.500000 0.922696
O O15 0.847248 0.249380 0.886494
O O16 0.821124 0.287034 0.000000
O O17 0.071970 0.775857 0.178592
O O18 0.102976 0.000000 0.115820
O O19 0.000000 0.234424 0.256457
O O20 0.946433 0.000000 0.249451
#
# Coordination Sequence:
#
# PCOD9522116 Si02
#       7
#     8  16  16  16  16  16  16
#     4  11  23  37  57  89 125 153 183 233 290 341
#     4   9  18  32  50  73 103 141 184 231 285 345
#     4  11  22  35  54  81 111 147 191 240 292 341
#     4   9  19  36  57  82 115 151 190 236 287 342
#     4  10  20  35  58  89 121 148 182 232 290 347
#     4  11  22  38  62  87 114 152 194 234 284 345
#     4  10  23  42  60  80 111 153 199 240 279 338
#
# _framework density 18.745398000000002
#
# number of rings (size 3 to 8) (size 9 to 14) (size 15 to 20)
#    0.000    1.923    0.769    3.462    0.000    7.692 
#    0.000    3.077    0.000    0.000    0.000    0.000 
#    0.000    0.000    0.000    0.000    0.000    0.000 
#
# Total GULP energy -290112.992088 kJ/mol
# GULP energy per Si atom -5579.096002 kJ/mol
# Density = 1.870273 g / cm^3
# Si number density = 18.745398 Si / 1000 Ang^3
#
#
#
# Elastic Constant Matrix: (Units=GPa)
#
#
# Indices 1 2 3 4 5 6 
#
# 1 110.6862 27.7757 64.1026 0.0000 0.0000 0.0000
# 2 27.7757 27.9142 27.7668 0.0000 0.0000 0.0000
# 3 64.1026 27.7668 108.9694 0.0000 0.0000 0.0000
# 4 0.0000 0.0000 0.0000 22.5272 0.0000 0.0000
# 5 0.0000 0.0000 0.0000 0.0000 41.1157 0.0000
# 6 0.0000 0.0000 0.0000 0.0000 0.0000 30.1544
#
#
#
# Elastic Compliance Matrix: (Units=1/GPa)
#
#
# Indices 1 2 3 4 5 6 
#
# 1 0.014994 -0.008232 -0.006722 0.000000 0.000000 0.000000
# 2 -0.008232 0.052507 -0.008537 0.000000 0.000000 0.000000
# 3 -0.006722 -0.008537 0.015307 0.000000 0.000000 0.000000
# 4 0.000000 0.000000 0.000000 0.044391 0.000000 0.000000
# 5 0.000000 0.000000 0.000000 0.000000 0.024322 0.000000
# 6 0.000000 0.000000 0.000000 0.000000 0.000000 0.033163
#
#
# Mechanical properties :
#
#
# Convention : Reuss Voigt Hill
#
# Bulk Modulus (GPa) = 27.91390 54.09555 41.00473
# Shear Modulus (GPa) = 20.52487 27.28778 23.90633
#
# Velocity S-wave (km/s) = 3.31256 3.81951 3.57503
# Velocity P-wave (km/s) = 5.43637 6.95502 6.24205
#
# Compressibility (1/GPa) = 0.03582444
#
# Stress axis : x y z
#
# Youngs Moduli (GPa) = 66.69508 19.04507 65.33064
#
# Poissons Ratio (x) = 0.15678 0.43919
# Poissons Ratio (y) = 0.54905 0.55771
# Poissons Ratio (z) = 0.44836 0.16258
#
# Static dielectric constant tensor:
#      x y z
#    x 1.652520 0.000000 0.000000 
#    y 0.000000 1.650410 0.000000 
#    z 0.000000 0.000000 1.654400 
# 
# From -- ./inp_files/56208.got.cif
#   From: 2010.05.17/outbox.cif.g08.bks.cpg/sg71_29_cif.got.tgz:56208.got - 2010.06.03 16:22:01.
