data_PCOD9522909
_publ_section_title
;
Structure prediction by ZEFSAII (Michael W. Deem and Ramdas Pophale) SiO2 
 PCOD9522909
Probable space group: I M M M
;
_chemical_formula_sum "Si O2"
_cell_formula_units_Z 80
_cell_length_a 12.819926
_cell_length_b 13.220492
_cell_length_c 26.289408
_cell_angle_alpha 90.000000
_cell_angle_beta 90.000000
_cell_angle_gamma 90.000000
_cell_volume 4455.679483
_symmetry_space_group_name_H-M "I M M M"
_symmetry_group_IT_number 71
_symmetry_cell_setting 'orthorhombic'
loop_
_space_group_symop_operation_xyz
x,y,z
-x,-y,z
x,-y,-z
-x,y,-z
-x,-y,-z
x,y,-z
-x,y,z
x,-y,z
1/2+x,1/2+y,1/2+z
1/2-x,1/2-y,1/2+z
1/2+x,1/2-y,1/2-z
1/2-x,1/2+y,1/2-z
1/2-x,1/2-y,1/2-z
1/2+x,1/2+y,1/2-z
1/2-x,1/2+y,1/2+z
1/2+x,1/2-y,1/2+z
loop_
_atom_site_type_symbol
_atom_site_label
_atom_site_fract_x
_atom_site_fract_y
_atom_site_fract_z
Si Si1 0.500000 0.380152 0.839666
Si Si2 0.678596 0.884599 0.890256
Si Si3 0.208920 0.221934 0.694607
Si Si4 0.617162 0.687700 0.560146
Si Si5 0.378513 0.883108 0.376207
Si Si6 0.000000 0.744644 0.440535
O O1 0.500000 0.500000 0.843782
O O2 0.602527 0.341741 0.809976
O O3 0.500000 0.331458 0.896815
O O4 0.684285 0.823347 0.837583
O O5 0.793862 0.876989 0.913536
O O6 0.600630 0.823923 0.927339
O O7 0.645395 0.000000 0.884192
O O8 0.250000 0.250000 0.750000
O O9 0.299216 0.159131 0.665694
O O10 0.624751 0.678668 0.500000
O O11 0.500000 0.658582 0.576171
O O12 0.632599 0.804579 0.577212
O O13 0.500000 0.877683 0.359647
O O14 0.355789 0.000000 0.388805
O O15 0.000000 0.775421 0.500000
#
# Coordination Sequence:
#
# PCOD9522909 Si02
#       6
#     8  16  16  16  16   8
#     4  10  22  40  61  88 116 147 188 234 282 343
#     4  10  21  36  53  78 108 143 186 227 270 329
#     4  10  22  38  59  78 112 143 184 234 285 327
#     4   9  18  32  50  75 108 142 177 220 267 317
#     4   9  18  33  54  79 106 138 178 222 272 329
#     4  10  21  37  58  85 115 148 181 228 280 331
#
# _framework density 17.954612000000001
#
# number of rings (size 3 to 8) (size 9 to 14) (size 15 to 20)
#    0.000    2.400    0.000    1.500    1.400    4.600 
#    0.000    3.000    0.000    7.200    0.000    0.000 
#    0.000    0.000    0.000    0.000    0.000    0.000 
#
# Total GULP energy -223073.353648 kJ/mol
# GULP energy per Si atom -5576.833841 kJ/mol
# Density = 1.791375 g / cm^3
# Si number density = 17.954612 Si / 1000 Ang^3
#
#
#
# Elastic Constant Matrix: (Units=GPa)
#
#
# Indices 1 2 3 4 5 6 
#
# 1 84.9947 37.8339 36.0672 0.0000 0.0000 0.0000
# 2 37.8339 105.4785 23.9960 0.0000 0.0000 0.0000
# 3 36.0672 23.9960 82.2172 0.0000 0.0000 0.0000
# 4 0.0000 0.0000 0.0000 2.9233 0.0000 0.0000
# 5 0.0000 0.0000 0.0000 0.0000 24.8458 0.0000
# 6 0.0000 0.0000 0.0000 0.0000 0.0000 7.0086
#
#
#
# Elastic Compliance Matrix: (Units=1/GPa)
#
#
# Indices 1 2 3 4 5 6 
#
# 1 0.016234 -0.004502 -0.005808 0.000000 0.000000 0.000000
# 2 -0.004502 0.011403 -0.001353 0.000000 0.000000 0.000000
# 3 -0.005808 -0.001353 0.015106 0.000000 0.000000 0.000000
# 4 0.000000 0.000000 0.000000 0.342080 0.000000 0.000000
# 5 0.000000 0.000000 0.000000 0.000000 0.040248 0.000000
# 6 0.000000 0.000000 0.000000 0.000000 0.000000 0.142683
#
#
# Mechanical properties :
#
#
# Convention : Reuss Voigt Hill
#
# Bulk Modulus (GPa) = 51.50046 52.05386 51.77716
# Shear Modulus (GPa) = 8.36749 18.60841 13.48795
#
# Velocity S-wave (km/s) = 2.16113 3.22283 2.74382
# Velocity P-wave (km/s) = 5.91382 6.55009 6.24007
#
# Compressibility (1/GPa) = 0.01941730
#
# Stress axis : x y z
#
# Youngs Moduli (GPa) = 61.60030 87.69486 66.20065
#
# Poissons Ratio (x) = 0.39477 0.38447
# Poissons Ratio (y) = 0.27730 0.08959
# Poissons Ratio (z) = 0.35775 0.11868
#
# Static dielectric constant tensor:
#      x y z
#    x 1.632070 0.000000 0.000000 
#    y 0.000000 1.604220 0.000000 
#    z 0.000000 0.000000 1.578590 
# 
# From -- ./inp_files/64374.got.cif
#   From: 2010.05.17/outbox.cif.g08.bks.cpg/sg71_33_cif.got.tgz:64374.got - 2010.06.03 16:22:01.
