data_PCOD9522491
_publ_section_title
;
Structure prediction by ZEFSAII (Michael W. Deem and Ramdas Pophale) SiO2 
 PCOD9522491
Probable space group: I M M M
;
_chemical_formula_sum "Si O2"
_cell_formula_units_Z 72
_cell_length_a 24.644409
_cell_length_b 9.164341
_cell_length_c 17.192861
_cell_angle_alpha 90.000000
_cell_angle_beta 90.000000
_cell_angle_gamma 90.000000
_cell_volume 3883.003665
_symmetry_space_group_name_H-M "I M M M"
_symmetry_group_IT_number 71
_symmetry_cell_setting 'orthorhombic'
loop_
_space_group_symop_operation_xyz
x,y,z
-x,-y,z
x,-y,-z
-x,y,-z
-x,-y,-z
x,y,-z
-x,y,z
x,-y,z
1/2+x,1/2+y,1/2+z
1/2-x,1/2-y,1/2+z
1/2+x,1/2-y,1/2-z
1/2-x,1/2+y,1/2-z
1/2-x,1/2-y,1/2-z
1/2+x,1/2+y,1/2-z
1/2-x,1/2+y,1/2+z
1/2+x,1/2-y,1/2+z
loop_
_atom_site_type_symbol
_atom_site_label
_atom_site_fract_x
_atom_site_fract_y
_atom_site_fract_z
Si Si1 0.563969 0.174966 0.500000
Si Si2 0.235926 0.674525 0.586865
Si Si3 0.860526 0.174771 0.875050
Si Si4 0.650529 0.326445 0.805421
Si Si5 0.435807 0.169641 0.908553
O O1 0.500000 0.211881 0.500000
O O2 0.594905 0.241647 0.425411
O O3 0.569039 0.000000 0.500000
O O4 0.216961 0.717828 0.500000
O O5 0.228838 0.500000 0.594029
O O6 0.299937 0.704642 0.593505
O O7 0.202396 0.752088 0.654334
O O8 0.859135 0.215207 0.784184
O O9 0.869714 0.000000 0.881932
O O10 0.657236 0.500000 0.808020
O O11 0.599591 0.274027 0.855925
O O12 0.500000 0.186304 0.894916
O O13 0.421381 0.000000 0.892989
O O14 0.425936 0.195930 0.000000
#
# Coordination Sequence:
#
# PCOD9522491 Si02
#       5
#     8  16  16  16  16
#     4  11  25  43  65  93 119 149 196 253 306 351
#     4  10  20  37  61  84 114 157 200 237 284 348
#     4  10  22  42  62  83 116 157 196 237 290 354
#     4  11  23  35  55  89 122 151 190 240 296 351
#     4   9  19  37  58  78 107 152 199 238 284 345
#
# _framework density 18.542348
#
# number of rings (size 3 to 8) (size 9 to 14) (size 15 to 20)
#    0.000    1.889    1.111    3.000    0.000    8.444 
#    0.000    5.556    0.000    0.000    0.000    0.000 
#    0.000    0.000    0.000    0.000    0.000    0.000 
#
# Total GULP energy -201117.967567 kJ/mol
# GULP energy per Si atom -5586.610210 kJ/mol
# Density = 1.850014 g / cm^3
# Si number density = 18.542348 Si / 1000 Ang^3
#
#
#
# Elastic Constant Matrix: (Units=GPa)
#
#
# Indices 1 2 3 4 5 6 
#
# 1 116.9914 54.9402 80.5118 0.0000 0.0000 0.0000
# 2 54.9402 51.5594 66.8221 0.0000 0.0000 0.0000
# 3 80.5118 66.8221 137.8135 0.0000 0.0000 0.0000
# 4 0.0000 0.0000 0.0000 29.4018 0.0000 0.0000
# 5 0.0000 0.0000 0.0000 0.0000 -71.0293 0.0000
# 6 0.0000 0.0000 0.0000 0.0000 0.0000 33.5798
#
#
#
# Elastic Compliance Matrix: (Units=1/GPa)
#
#
# Indices 1 2 3 4 5 6 
#
# 1 0.017619 -0.014624 -0.003202 0.000000 0.000000 0.000000
# 2 -0.014624 0.064333 -0.022650 0.000000 0.000000 0.000000
# 3 -0.003202 -0.022650 0.020109 0.000000 0.000000 0.000000
# 4 0.000000 0.000000 0.000000 0.034012 0.000000 0.000000
# 5 0.000000 0.000000 0.000000 0.000000 -0.014079 0.000000
# 6 0.000000 0.000000 0.000000 0.000000 0.000000 0.029780
#
#
# Mechanical properties :
#
#
# Convention : Reuss Voigt Hill
#
# Bulk Modulus (GPa) = 47.37379 78.99030 63.18204
# Shear Modulus (GPa) = 20.85401 5.32980 13.09190
#
# Velocity S-wave (km/s) = 3.35725 1.69724 2.66005
# Velocity P-wave (km/s) = 6.37437 6.82153 6.60174
#
# Compressibility (1/GPa) = 0.02110872
#
# Stress axis : x y z
#
# Youngs Moduli (GPa) = 56.75674 15.54423 49.72814
#
# Poissons Ratio (x) = 0.22732 0.15925
# Poissons Ratio (y) = 0.83001 1.12633
# Poissons Ratio (z) = 0.18176 0.35207
#
# Static dielectric constant tensor:
#      x y z
#    x 1.629280 0.000000 0.000000 
#    y 0.000000 1.617110 0.000000 
#    z 0.000000 0.000000 1.634390 
# 
# From -- ./inp_files/6047.got.cif
#   From: 2010.05.17/outbox.cif.g08.bks.cpg/sg71_4_cif.got.tgz:6047.got - 2010.06.03 16:22:01.
