data_PCOD9522975
_publ_section_title
;
Structure prediction by ZEFSAII (Michael W. Deem and Ramdas Pophale) SiO2 
 PCOD9522975
Probable space group: I M M M
;
_chemical_formula_sum "Si O2"
_cell_formula_units_Z 88
_cell_length_a 22.719830
_cell_length_b 14.577730
_cell_length_c 13.797795
_cell_angle_alpha 90.000000
_cell_angle_beta 90.000000
_cell_angle_gamma 90.000000
_cell_volume 4569.878650
_symmetry_space_group_name_H-M "I M M M"
_symmetry_group_IT_number 71
_symmetry_cell_setting 'orthorhombic'
loop_
_space_group_symop_operation_xyz
x,y,z
-x,-y,z
x,-y,-z
-x,y,-z
-x,-y,-z
x,y,-z
-x,y,z
x,-y,z
1/2+x,1/2+y,1/2+z
1/2-x,1/2-y,1/2+z
1/2+x,1/2-y,1/2-z
1/2-x,1/2+y,1/2-z
1/2-x,1/2-y,1/2-z
1/2+x,1/2+y,1/2-z
1/2-x,1/2+y,1/2+z
1/2+x,1/2-y,1/2+z
loop_
_atom_site_type_symbol
_atom_site_label
_atom_site_fract_x
_atom_site_fract_y
_atom_site_fract_z
Si Si1 0.157479 0.604479 0.882753
Si Si2 0.754463 0.749356 0.383142
Si Si3 0.840976 0.894470 0.882481
Si Si4 0.066831 0.254399 0.193611
Si Si5 0.567235 0.500000 0.116134
Si Si6 0.612688 0.701125 0.115521
O O1 0.162088 0.500000 0.849918
O O2 0.213157 0.666156 0.852315
O O3 0.099698 0.655727 0.845076
O O4 0.156167 0.605442 0.000000
O O5 0.754775 0.749782 0.500000
O O6 0.719812 0.657117 0.354419
O O7 0.821838 0.765829 0.356459
O O8 0.894049 0.831269 0.844149
O O9 0.843808 0.000000 0.850462
O O10 0.843886 0.893319 0.000000
O O11 0.070015 0.252260 0.310419
O O12 0.000000 0.247617 0.160367
O O13 0.500000 0.500000 0.157032
O O14 0.602156 0.593237 0.136866
O O15 0.560812 0.500000 0.000000
O O16 0.603314 0.715246 0.000000
#
# Coordination Sequence:
#
# PCOD9522975 Si02
#       6
#    16  16  16  16   8  16
#     4   9  19  36  59  85 112 140 174 226 284 333
#     4   8  16  33  56  82 110 139 180 225 274 334
#     4   9  19  36  56  80 112 145 175 220 281 340
#     4  11  23  36  53  79 110 145 189 230 267 325
#     4   9  18  32  50  74 105 145 188 222 261 312
#     4  10  21  36  55  79 110 147 184 228 274 319
#
# _framework density 19.256527999999999
#
# number of rings (size 3 to 8) (size 9 to 14) (size 15 to 20)
#    0.000    2.636    0.000    2.182    2.545    6.182 
#    0.000    4.545    0.000    1.636    0.000    1.273 
#    0.000    0.000    0.000    0.000    0.000    0.000 
#
# Total GULP energy -245455.485666 kJ/mol
# GULP energy per Si atom -5578.533765 kJ/mol
# Density = 1.921270 g / cm^3
# Si number density = 19.256528 Si / 1000 Ang^3
#
#
#
# Elastic Constant Matrix: (Units=GPa)
#
#
# Indices 1 2 3 4 5 6 
#
# 1 107.1765 22.6804 -5.2162 0.0000 0.0000 0.0000
# 2 22.6804 95.4629 4.9296 0.0000 0.0000 0.0000
# 3 -5.2162 4.9296 59.1040 0.0000 0.0000 0.0000
# 4 0.0000 0.0000 0.0000 8.9897 0.0000 0.0000
# 5 0.0000 0.0000 0.0000 0.0000 2.4874 0.0000
# 6 0.0000 0.0000 0.0000 0.0000 0.0000 5.9099
#
#
#
# Elastic Compliance Matrix: (Units=1/GPa)
#
#
# Indices 1 2 3 4 5 6 
#
# 1 0.009892 -0.002406 0.001074 0.000000 0.000000 0.000000
# 2 -0.002406 0.011106 -0.001139 0.000000 0.000000 0.000000
# 3 0.001074 -0.001139 0.017109 0.000000 0.000000 0.000000
# 4 0.000000 0.000000 0.000000 0.111239 0.000000 0.000000
# 5 0.000000 0.000000 0.000000 0.000000 0.402026 0.000000
# 6 0.000000 0.000000 0.000000 0.000000 0.000000 0.169208
#
#
# Mechanical properties :
#
#
# Convention : Reuss Voigt Hill
#
# Bulk Modulus (GPa) = 30.15194 34.05901 32.10547
# Shear Modulus (GPa) = 6.78817 19.43404 13.11111
#
# Velocity S-wave (km/s) = 1.87957 3.18027 2.61217
# Velocity P-wave (km/s) = 4.51690 5.58667 5.08002
#
# Compressibility (1/GPa) = 0.03316536
#
# Stress axis : x y z
#
# Youngs Moduli (GPa) = 101.09479 90.04482 58.44859
#
# Poissons Ratio (x) = 0.21661 -0.06275
# Poissons Ratio (y) = 0.24319 0.06655
# Poissons Ratio (z) = -0.10854 0.10252
#
# Static dielectric constant tensor:
#      x y z
#    x 1.664450 0.000000 0.000000 
#    y 0.000000 1.650470 0.000000 
#    z 0.000000 0.000000 1.720250 
# 
# From -- ./inp_files/34417.got.cif
#   From: 2010.05.17/outbox.cif.g08.bks.cpg/sg71_18_cif.got.tgz:34417.got - 2010.06.03 16:22:01.
