data_PCOD9522962
_publ_section_title
;
Structure prediction by ZEFSAII (Michael W. Deem and Ramdas Pophale) SiO2 
 PCOD9522962
Probable space group: I M M M
;
_chemical_formula_sum "Si O2"
_cell_formula_units_Z 64
_cell_length_a 11.863641
_cell_length_b 28.228894
_cell_length_c 8.502379
_cell_angle_alpha 90.000000
_cell_angle_beta 90.000000
_cell_angle_gamma 90.000000
_cell_volume 2847.425167
_symmetry_space_group_name_H-M "I M M M"
_symmetry_group_IT_number 71
_symmetry_cell_setting 'orthorhombic'
loop_
_space_group_symop_operation_xyz
x,y,z
-x,-y,z
x,-y,-z
-x,y,-z
-x,-y,-z
x,y,-z
-x,y,z
x,-y,z
1/2+x,1/2+y,1/2+z
1/2-x,1/2-y,1/2+z
1/2+x,1/2-y,1/2-z
1/2-x,1/2+y,1/2-z
1/2-x,1/2-y,1/2-z
1/2+x,1/2+y,1/2-z
1/2-x,1/2+y,1/2+z
1/2+x,1/2-y,1/2+z
loop_
_atom_site_type_symbol
_atom_site_label
_atom_site_fract_x
_atom_site_fract_y
_atom_site_fract_z
Si Si1 0.135484 0.500000 0.822610
Si Si2 0.839570 0.138480 0.682718
Si Si3 0.632828 0.101244 0.818046
Si Si4 0.500000 0.554119 0.809868
Si Si5 0.624226 0.261867 0.683991
O O1 0.161694 0.452667 0.728751
O O2 0.000000 0.500000 0.838606
O O3 0.184938 0.500000 0.000000
O O4 0.866534 0.147001 0.500000
O O5 0.706423 0.133978 0.707107
O O6 0.895154 0.088322 0.730926
O O7 0.880800 0.181795 0.785647
O O8 0.500000 0.107582 0.796097
O O9 0.660464 0.110206 0.000000
O O10 0.500000 0.500000 0.748685
O O11 0.500000 0.550299 0.000000
O O12 0.627327 0.250628 0.500000
O O13 0.500000 0.243329 0.746016
O O14 0.750000 0.250000 0.750000
#
# Coordination Sequence:
#
# PCOD9522962 Si02
#       5
#     8  16  16   8  16
#     4   9  17  31  51  76 109 156 213 267 321 384
#     4  11  22  39  66  95 130 172 218 273 329 392
#     4  10  21  36  54  81 121 165 209 262 324 386
#     4   9  20  38  61  93 131 173 220 270 323 384
#     4  11  25  46  73 103 137 176 223 282 348 418
#
# _framework density 22.476447
#
# number of rings (size 3 to 8) (size 9 to 14) (size 15 to 20)
#    0.000    1.750    1.250    2.625    1.750    5.500 
#    0.000    0.000    0.000    3.000    0.000    0.000 
#    0.000    0.000    0.000    0.000    0.000    0.000 
#
# Total GULP energy -178515.707849 kJ/mol
# GULP energy per Si atom -5578.615870 kJ/mol
# Density = 2.242529 g / cm^3
# Si number density = 22.476447 Si / 1000 Ang^3
#
#
#
# Elastic Constant Matrix: (Units=GPa)
#
#
# Indices 1 2 3 4 5 6 
#
# 1 151.9030 34.7083 42.8414 0.0000 -0.0002 0.0000
# 2 34.7083 63.2709 -1.6040 0.0004 -0.0001 0.0000
# 3 42.8414 -1.6040 46.5141 0.0028 0.0004 0.0014
# 4 0.0000 0.0004 0.0028 30.9329 -0.0002 0.0001
# 5 -0.0002 -0.0001 0.0004 -0.0002 13.9017 0.0002
# 6 0.0000 0.0000 0.0014 0.0001 0.0002 9.9857
#
#
#
# Elastic Compliance Matrix: (Units=1/GPa)
#
#
# Indices 1 2 3 4 5 6 
#
# 1 0.010901 -0.006240 -0.010256 0.000001 0.000000 0.000001
# 2 -0.006240 0.019391 0.006416 -0.000001 0.000000 -0.000001
# 3 -0.010256 0.006416 0.031166 -0.000003 -0.000001 -0.000004
# 4 0.000001 -0.000001 -0.000003 0.032328 0.000001 0.000000
# 5 0.000000 0.000000 -0.000001 0.000001 0.071934 -0.000002
# 6 0.000001 -0.000001 -0.000004 0.000000 -0.000002 0.100143
#
#
# Mechanical properties :
#
#
# Convention : Reuss Voigt Hill
#
# Bulk Modulus (GPa) = 24.21386 45.95327 35.08356
# Shear Modulus (GPa) = 16.67840 23.34690 20.01265
#
# Velocity S-wave (km/s) = 2.72699 3.22643 2.98717
# Velocity P-wave (km/s) = 4.55101 5.86253 5.24790
#
# Compressibility (1/GPa) = 0.04129866
#
# Stress axis : x y z
#
# Youngs Moduli (GPa) = 91.73105 51.57070 32.08611
#
# Poissons Ratio (x) = 0.32181 0.32907
# Poissons Ratio (y) = 0.57242 -0.20587
# Poissons Ratio (z) = 0.94078 -0.33088
#
# Static dielectric constant tensor:
#      x y z
#    x 1.947110 0.000000 0.000000 
#    y 0.000000 1.829900 0.000000 
#    z 0.000000 0.000000 1.798760 
# 
# From -- ./inp_files/3807.got.cif
#   From: 2010.05.17/outbox.cif.g08.bks.cpg/sg71_2_cif.got.tgz:3807.got - 2010.06.03 16:22:01.
