data_PCOD9522457
_publ_section_title
;
Structure prediction by ZEFSAII (Michael W. Deem and Ramdas Pophale) SiO2 
 PCOD9522457
Probable space group: I M M M
;
_chemical_formula_sum "Si O2"
_cell_formula_units_Z 104
_cell_length_a 14.415239
_cell_length_b 17.072210
_cell_length_c 22.279756
_cell_angle_alpha 90.000000
_cell_angle_beta 90.000000
_cell_angle_gamma 90.000000
_cell_volume 5483.047671
_symmetry_space_group_name_H-M "I M M M"
_symmetry_group_IT_number 71
_symmetry_cell_setting 'orthorhombic'
loop_
_space_group_symop_operation_xyz
x,y,z
-x,-y,z
x,-y,-z
-x,y,-z
-x,-y,-z
x,y,-z
-x,y,z
x,-y,z
1/2+x,1/2+y,1/2+z
1/2-x,1/2-y,1/2+z
1/2+x,1/2-y,1/2-z
1/2-x,1/2+y,1/2-z
1/2-x,1/2-y,1/2-z
1/2+x,1/2+y,1/2-z
1/2-x,1/2+y,1/2+z
1/2+x,1/2-y,1/2+z
loop_
_atom_site_type_symbol
_atom_site_label
_atom_site_fract_x
_atom_site_fract_y
_atom_site_fract_z
Si Si1 0.892727 0.700474 0.071084
Si Si2 0.102899 0.871032 0.131676
Si Si3 0.609347 0.907079 0.000000
Si Si4 0.287824 0.906868 0.658674
Si Si5 0.607467 0.834974 0.229620
Si Si6 0.698881 0.088437 0.882219
Si Si7 0.604991 0.352437 0.772929
O O1 0.888102 0.780909 0.109569
O O2 0.819656 0.639945 0.099408
O O3 0.000000 0.671951 0.077381
O O4 0.877147 0.715196 0.000000
O O5 0.192101 0.913083 0.105704
O O6 0.110553 0.880498 0.203770
O O7 0.000000 0.897484 0.113538
O O8 0.650096 0.873361 0.060695
O O9 0.500000 0.901542 0.000000
O O10 0.635077 0.000000 0.000000
O O11 0.358497 0.875525 0.709699
O O12 0.185896 0.885577 0.684946
O O13 0.294941 0.000000 0.651395
O O14 0.500000 0.854799 0.217280
O O15 0.673461 0.864214 0.176724
O O16 0.615248 0.741390 0.232514
O O17 0.663644 0.000000 0.873192
O O18 0.500000 0.369761 0.794493
#
# Coordination Sequence:
#
# PCOD9522457 Si02
#       7
#    16  16   8  16  16  16  16
#     4  10  22  40  61  85 114 154 201 245 293 348
#     4  10  20  37  59  82 112 152 196 238 283 339
#     4   9  20  38  53  69 105 151 185 220 278 344
#     4  12  23  36  58  89 121 151 188 238 297 353
#     4  11  21  35  57  83 111 147 191 237 285 342
#     4  11  22  35  53  81 115 151 188 234 288 345
#     4  10  21  39  61  83 115 153 188 232 286 344
#
# _framework density 18.967554
#
# number of rings (size 3 to 8) (size 9 to 14) (size 15 to 20)
#    0.000    1.462    3.077    2.769    1.077    3.692 
#    0.000    2.308    0.000    1.846    0.000    1.077 
#    0.000    0.000    0.000    0.000    0.000    0.000 
#
# Total GULP energy -290280.370545 kJ/mol
# GULP energy per Si atom -5582.314818 kJ/mol
# Density = 1.892438 g / cm^3
# Si number density = 18.967554 Si / 1000 Ang^3
#
#
#
# Elastic Constant Matrix: (Units=GPa)
#
#
# Indices 1 2 3 4 5 6 
#
# 1 77.9678 8.6153 14.2312 0.0000 0.0000 0.0000
# 2 8.6153 41.9177 -3.1231 0.0000 0.0000 0.0000
# 3 14.2312 -3.1231 66.8052 0.0000 0.0000 0.0000
# 4 0.0000 0.0000 0.0000 12.7487 0.0000 0.0000
# 5 0.0000 0.0000 0.0000 0.0000 33.0478 0.0000
# 6 0.0000 0.0000 0.0000 0.0000 0.0000 9.8196
#
#
#
# Elastic Compliance Matrix: (Units=1/GPa)
#
#
# Indices 1 2 3 4 5 6 
#
# 1 0.013722 -0.003049 -0.003066 0.000000 0.000000 0.000000
# 2 -0.003049 0.024617 0.001800 0.000000 0.000000 0.000000
# 3 -0.003066 0.001800 0.015706 0.000000 0.000000 0.000000
# 4 0.000000 0.000000 0.000000 0.078439 0.000000 0.000000
# 5 0.000000 0.000000 0.000000 0.000000 0.030259 0.000000
# 6 0.000000 0.000000 0.000000 0.000000 0.000000 0.101837
#
#
# Mechanical properties :
#
#
# Convention : Reuss Voigt Hill
#
# Bulk Modulus (GPa) = 22.01817 25.12639 23.57228
# Shear Modulus (GPa) = 17.34015 22.25437 19.79726
#
# Velocity S-wave (km/s) = 3.02686 3.42904 3.23421
# Velocity P-wave (km/s) = 4.88358 5.38085 5.13823
#
# Compressibility (1/GPa) = 0.04541704
#
# Stress axis : x y z
#
# Youngs Moduli (GPa) = 72.87430 40.62237 63.66939
#
# Poissons Ratio (x) = 0.12385 0.19519
# Poissons Ratio (y) = 0.22217 -0.11462
# Poissons Ratio (z) = 0.22341 -0.07313
#
# Static dielectric constant tensor:
#      x y z
#    x 1.678070 0.000000 0.000000 
#    y 0.000000 1.657370 0.000000 
#    z 0.000000 0.000000 1.686510 
# 
# From -- ./inp_files/47313.got.cif
#   From: 2010.05.17/outbox.cif.g08.bks.cpg/sg71_24_cif.got.tgz:47313.got - 2010.06.03 16:22:01.
