data_PCOD9522149
_publ_section_title
;
Structure prediction by ZEFSAII (Michael W. Deem and Ramdas Pophale) SiO2 
 PCOD9522149
Probable space group: I M M M
;
_chemical_formula_sum "Si O2"
_cell_formula_units_Z 96
_cell_length_a 19.931380
_cell_length_b 16.432264
_cell_length_c 14.967920
_cell_angle_alpha 90.000000
_cell_angle_beta 90.000000
_cell_angle_gamma 90.000000
_cell_volume 4902.258703
_symmetry_space_group_name_H-M "I M M M"
_symmetry_group_IT_number 71
_symmetry_cell_setting 'orthorhombic'
loop_
_space_group_symop_operation_xyz
x,y,z
-x,-y,z
x,-y,-z
-x,y,-z
-x,-y,-z
x,y,-z
-x,y,z
x,-y,z
1/2+x,1/2+y,1/2+z
1/2-x,1/2-y,1/2+z
1/2+x,1/2-y,1/2-z
1/2-x,1/2+y,1/2-z
1/2-x,1/2-y,1/2-z
1/2+x,1/2+y,1/2-z
1/2-x,1/2+y,1/2+z
1/2+x,1/2-y,1/2+z
loop_
_atom_site_type_symbol
_atom_site_label
_atom_site_fract_x
_atom_site_fract_y
_atom_site_fract_z
Si Si1 0.394335 0.906292 0.098099
Si Si2 0.680411 0.232194 0.402078
Si Si3 0.263721 0.408967 0.639162
Si Si4 0.221092 0.911348 0.646270
Si Si5 0.573112 0.216624 0.247025
Si Si6 0.075259 0.139465 0.602870
O O1 0.313775 0.903648 0.110029
O O2 0.423449 0.860460 0.182342
O O3 0.414629 0.000000 0.099151
O O4 0.411849 0.872062 0.000000
O O5 0.650127 0.218481 0.500000
O O6 0.702198 0.326753 0.395811
O O7 0.741928 0.168360 0.391898
O O8 0.630493 0.215963 0.320506
O O9 0.288219 0.500000 0.611389
O O10 0.270739 0.406195 0.746565
O O11 0.142879 0.910588 0.619582
O O12 0.249666 0.000000 0.618374
O O13 0.500000 0.223135 0.290128
O O14 0.580590 0.290289 0.176868
O O15 0.078240 0.168571 0.500000
O O16 0.000000 0.102327 0.613360
#
# Coordination Sequence:
#
# PCOD9522149 Si02
#       6
#    16  16  16  16  16  16
#     4  10  20  35  59  91 123 154 193 247 311 371
#     4  12  24  39  63  90 119 159 207 256 302 352
#     4  10  20  38  64  92 121 154 194 248 310 362
#     4  11  22  39  63  90 124 164 202 242 295 360
#     4  11  23  40  58  81 118 160 204 253 302 356
#     4  10  21  37  59  87 119 156 194 238 297 361
#
# _framework density 19.582809999999998
#
# number of rings (size 3 to 8) (size 9 to 14) (size 15 to 20)
#    0.000    1.333    3.333    3.000    0.000    4.333 
#    0.000    1.667    0.000    0.500    0.000    3.500 
#    0.000    0.000    0.000    0.000    0.000    0.000 
#
# Total GULP energy -267828.642965 kJ/mol
# GULP energy per Si atom -5579.763395 kJ/mol
# Density = 1.953824 g / cm^3
# Si number density = 19.582810 Si / 1000 Ang^3
#
#
#
# Elastic Constant Matrix: (Units=GPa)
#
#
# Indices 1 2 3 4 5 6 
#
# 1 98.9049 39.8209 42.1722 0.0000 0.0000 0.0000
# 2 39.8209 117.3363 38.1275 0.0000 0.0000 0.0000
# 3 42.1722 38.1275 119.4008 0.0000 0.0000 0.0000
# 4 0.0000 0.0000 0.0000 1.0817 0.0000 0.0000
# 5 0.0000 0.0000 0.0000 0.0000 7.5867 0.0000
# 6 0.0000 0.0000 0.0000 0.0000 0.0000 10.1360
#
#
#
# Elastic Compliance Matrix: (Units=1/GPa)
#
#
# Indices 1 2 3 4 5 6 
#
# 1 0.012919 -0.003238 -0.003529 0.000000 0.000000 0.000000
# 2 -0.003238 0.010321 -0.002152 0.000000 0.000000 0.000000
# 3 -0.003529 -0.002152 0.010309 0.000000 0.000000 0.000000
# 4 0.000000 0.000000 0.000000 0.924506 0.000000 0.000000
# 5 0.000000 0.000000 0.000000 0.000000 0.131810 0.000000
# 6 0.000000 0.000000 0.000000 0.000000 0.000000 0.098658
#
#
# Mechanical properties :
#
#
# Convention : Reuss Voigt Hill
#
# Bulk Modulus (GPa) = 63.65052 63.98701 63.81876
# Shear Modulus (GPa) = 4.12678 18.12896 11.12787
#
# Velocity S-wave (km/s) = 1.45325 3.04593 2.38638
# Velocity P-wave (km/s) = 5.94893 6.71686 6.34453
#
# Compressibility (1/GPa) = 0.01571079
#
# Stress axis : x y z
#
# Youngs Moduli (GPa) = 77.40508 96.89383 97.00403
#
# Poissons Ratio (x) = 0.31371 0.34234
# Poissons Ratio (y) = 0.25061 0.20876
# Poissons Ratio (z) = 0.27317 0.20852
#
# Static dielectric constant tensor:
#      x y z
#    x 1.682930 0.000000 0.000000 
#    y 0.000000 1.718620 0.000000 
#    z 0.000000 0.000000 1.663200 
# 
# From -- ./inp_files/34497.got.cif
#   From: 2010.05.17/outbox.cif.g08.bks.cpg/sg71_18_cif.got.tgz:34497.got - 2010.06.03 16:22:01.
