data_PCOD9522414
_publ_section_title
;
Structure prediction by ZEFSAII (Michael W. Deem and Ramdas Pophale) SiO2 
 PCOD9522414
Probable space group: I M M M
;
_chemical_formula_sum "Si O2"
_cell_formula_units_Z 70
_cell_length_a 20.481343
_cell_length_b 7.370956
_cell_length_c 23.834236
_cell_angle_alpha 90.000000
_cell_angle_beta 90.000000
_cell_angle_gamma 90.000000
_cell_volume 3598.184967
_symmetry_space_group_name_H-M "I M M M"
_symmetry_group_IT_number 71
_symmetry_cell_setting 'orthorhombic'
loop_
_space_group_symop_operation_xyz
x,y,z
-x,-y,z
x,-y,-z
-x,y,-z
-x,-y,-z
x,y,-z
-x,y,z
x,-y,z
1/2+x,1/2+y,1/2+z
1/2-x,1/2-y,1/2+z
1/2+x,1/2-y,1/2-z
1/2-x,1/2+y,1/2-z
1/2-x,1/2-y,1/2-z
1/2+x,1/2+y,1/2-z
1/2-x,1/2+y,1/2+z
1/2+x,1/2-y,1/2+z
loop_
_atom_site_type_symbol
_atom_site_label
_atom_site_fract_x
_atom_site_fract_y
_atom_site_fract_z
Si Si1 0.181750 0.292497 0.830169
Si Si2 0.426125 0.720642 0.891570
Si Si3 0.229754 0.000000 0.000000
Si Si4 0.657500 0.282290 0.000000
Si Si5 0.674754 0.720005 0.199898
Si Si6 0.620258 0.500000 0.593084
Si Si7 0.000000 0.000000 0.000000
O O1 0.180242 0.500000 0.850206
O O2 0.257342 0.224488 0.830311
O O3 0.168605 0.287022 0.763356
O O4 0.131444 0.172179 0.865649
O O5 0.500000 0.785488 0.893773
O O6 0.428085 0.500000 0.891008
O O7 0.386318 0.777238 0.837007
O O8 0.384535 0.769767 0.945840
O O9 0.275295 0.824054 0.000000
O O10 0.183383 0.000000 0.053439
O O11 0.667314 0.500000 0.000000
O O12 0.677562 0.500000 0.202684
O O13 0.558083 0.500000 0.550854
#
# Coordination Sequence:
#
# PCOD9522414 Si02
#       7
#    16  16   4   8  16   8   2
#     4  10  20  36  63  92 121 155 196 252 317 367
#     4   9  17  31  53  79 117 165 206 235 281 345
#     4  11  24  37  65  92 111 142 204 244 305 350
#     4  10  20  37  57  85 117 161 199 245 287 341
#     4   9  17  32  54  91 128 159 200 249 304 365
#     4  11  23  46  66  91 118 157 199 262 311 377
#     4  10  28  52  70  88 122 166 222 262 328 376
#
# _framework density 19.454252
#
# number of rings (size 3 to 8) (size 9 to 14) (size 15 to 20)
#    0.000    2.286    1.143    1.714    1.600    4.114 
#    4.114    4.000    0.000    0.000    0.000    0.000 
#    0.000    0.000    0.000    0.000    0.000    0.000 
#
# Total GULP energy -195077.208271 kJ/mol
# GULP energy per Si atom -5573.634522 kJ/mol
# Density = 1.940997 g / cm^3
# Si number density = 19.454252 Si / 1000 Ang^3
#
#
#
# Elastic Constant Matrix: (Units=GPa)
#
#
# Indices 1 2 3 4 5 6 
#
# 1 155.1056 33.4653 70.6756 0.0000 0.0000 0.0000
# 2 33.4653 91.3042 25.2096 0.0000 0.0000 0.0000
# 3 70.6756 25.2096 89.7965 0.0000 0.0000 0.0000
# 4 0.0000 0.0000 0.0000 -172.4513 0.0000 0.0000
# 5 0.0000 0.0000 0.0000 0.0000 -35.4760 0.0000
# 6 0.0000 0.0000 0.0000 0.0000 0.0000 6.4635
#
#
#
# Elastic Compliance Matrix: (Units=1/GPa)
#
#
# Indices 1 2 3 4 5 6 
#
# 1 0.010280 -0.001663 -0.007624 0.000000 0.000000 0.000000
# 2 -0.001663 0.012142 -0.002100 0.000000 0.000000 0.000000
# 3 -0.007624 -0.002100 0.017727 0.000000 0.000000 0.000000
# 4 0.000000 0.000000 0.000000 -0.005799 0.000000 0.000000
# 5 0.000000 0.000000 0.000000 0.000000 -0.028188 0.000000
# 6 0.000000 0.000000 0.000000 0.000000 0.000000 0.154715
#
#
# Mechanical properties :
#
#
# Convention : Reuss Voigt Hill
#
# Bulk Modulus (GPa) = 57.55613 66.10082 61.82847
# Shear Modulus (GPa) = 26.39336 -26.50237 -0.05451
#
# Velocity S-wave (km/s) = 3.68732 -3.69493 -0.16757
# Velocity P-wave (km/s) = 6.91217 3.98096 5.64030
#
# Compressibility (1/GPa) = 0.01737434
#
# Stress axis : x y z
#
# Youngs Moduli (GPa) = 97.27572 82.36104 56.41238
#
# Poissons Ratio (x) = 0.13695 0.43010
# Poissons Ratio (y) = 0.16175 0.11846
# Poissons Ratio (z) = 0.74165 0.17295
#
# Static dielectric constant tensor:
#      x y z
#    x 1.662800 0.000000 0.000000 
#    y 0.000000 1.403900 0.000000 
#    z 0.000000 0.000000 1.667670 
# 
# From -- ./inp_files/57343.got.cif
#   From: 2010.05.17/outbox.cif.g08.bks.cpg/sg71_29_cif.got.tgz:57343.got - 2010.06.03 16:22:01.
