data_PCOD9522508
_publ_section_title
;
Structure prediction by ZEFSAII (Michael W. Deem and Ramdas Pophale) SiO2 
 PCOD9522508
Probable space group: I M M M
;
_chemical_formula_sum "Si O2"
_cell_formula_units_Z 108
_cell_length_a 13.644092
_cell_length_b 12.597248
_cell_length_c 31.491805
_cell_angle_alpha 90.000000
_cell_angle_beta 90.000000
_cell_angle_gamma 90.000000
_cell_volume 5412.748795
_symmetry_space_group_name_H-M "I M M M"
_symmetry_group_IT_number 71
_symmetry_cell_setting 'orthorhombic'
loop_
_space_group_symop_operation_xyz
x,y,z
-x,-y,z
x,-y,-z
-x,y,-z
-x,-y,-z
x,y,-z
-x,y,z
x,-y,z
1/2+x,1/2+y,1/2+z
1/2-x,1/2-y,1/2+z
1/2+x,1/2-y,1/2-z
1/2-x,1/2+y,1/2-z
1/2-x,1/2-y,1/2-z
1/2+x,1/2+y,1/2-z
1/2-x,1/2+y,1/2+z
1/2+x,1/2-y,1/2+z
loop_
_atom_site_type_symbol
_atom_site_label
_atom_site_fract_x
_atom_site_fract_y
_atom_site_fract_z
Si Si1 0.762483 0.328357 0.576896
Si Si2 0.388731 0.288470 0.771722
Si Si3 0.186962 0.378802 0.794789
Si Si4 0.382659 0.000000 0.547385
Si Si5 0.114527 0.120130 0.448746
Si Si6 0.259094 0.000000 0.000000
Si Si7 0.111178 0.613933 0.655944
Si Si8 0.116254 0.685057 0.113113
O O1 0.822219 0.219238 0.567070
O O2 0.760455 0.406571 0.537248
O O3 0.817770 0.378707 0.616616
O O4 0.655909 0.294772 0.594184
O O5 0.500000 0.330855 0.770850
O O6 0.299056 0.369126 0.778074
O O7 0.370593 0.211577 0.731460
O O8 0.377504 0.209307 0.811646
O O9 0.151952 0.500000 0.788948
O O10 0.173247 0.348951 0.844304
O O11 0.361552 0.101539 0.575769
O O12 0.500000 0.000000 0.542529
O O13 0.338916 0.000000 0.500000
O O14 0.117406 0.121455 0.500000
O O15 0.000000 0.133637 0.436133
O O16 0.144724 0.000000 0.435066
O O17 0.124658 0.500000 0.678297
O O18 0.000000 0.617806 0.639586
O O19 0.000000 0.684141 0.121679
#
# Coordination Sequence:
#
# PCOD9522508 Si02
#       8
#    16  16  16   8  16   4  16  16
#     4  12  23  42  60  87 126 166 220 273 327 384
#     4  10  22  40  64  97 137 180 218 259 319 392
#     4  11  22  40  68 101 136 173 215 270 328 392
#     4   9  20  38  60  91 123 155 203 265 332 393
#     4   9  19  36  58  86 120 157 198 251 324 400
#     4  12  28  44  64  92 122 174 232 282 320 386
#     4  10  20  37  61  89 124 168 216 264 312 375
#     4  11  24  41  65  94 127 164 213 275 335 399
#
# _framework density 19.952894000000001
#
# number of rings (size 3 to 8) (size 9 to 14) (size 15 to 20)
#    0.000    1.556    3.704    1.778    2.074    1.778 
#    0.000    2.222    0.000    0.000    0.000    0.000 
#    0.000    0.000    0.000    0.000    0.000    0.000 
#
# Total GULP energy -300855.398185 kJ/mol
# GULP energy per Si atom -5571.396263 kJ/mol
# Density = 1.990748 g / cm^3
# Si number density = 19.952894 Si / 1000 Ang^3
#
#
#
# Elastic Constant Matrix: (Units=GPa)
#
#
# Indices 1 2 3 4 5 6 
#
# 1 71.6065 22.7198 14.7069 0.0000 0.0000 0.0000
# 2 22.7198 92.3769 18.6510 0.0000 0.0000 0.0000
# 3 14.7069 18.6510 114.8347 0.0000 0.0000 0.0000
# 4 0.0000 0.0000 0.0000 139.0430 0.0000 0.0000
# 5 0.0000 0.0000 0.0000 0.0000 14.0259 0.0000
# 6 0.0000 0.0000 0.0000 0.0000 0.0000 -216.4361
#
#
#
# Elastic Compliance Matrix: (Units=1/GPa)
#
#
# Indices 1 2 3 4 5 6 
#
# 1 0.015362 -0.003496 -0.001400 0.000000 0.000000 0.000000
# 2 -0.003496 0.011988 -0.001499 0.000000 0.000000 0.000000
# 3 -0.001400 -0.001499 0.009131 0.000000 0.000000 0.000000
# 4 0.000000 0.000000 0.000000 0.007192 0.000000 0.000000
# 5 0.000000 0.000000 0.000000 0.000000 0.071297 0.000000
# 6 0.000000 0.000000 0.000000 0.000000 0.000000 -0.004620
#
#
# Mechanical properties :
#
#
# Convention : Reuss Voigt Hill
#
# Bulk Modulus (GPa) = 42.20962 43.44151 42.82556
# Shear Modulus (GPa) = 38.15777 2.17592 20.16684
#
# Velocity S-wave (km/s) = 4.37784 1.04542 3.18264
# Velocity P-wave (km/s) = 6.83773 4.82457 5.91739
#
# Compressibility (1/GPa) = 0.02369128
#
# Stress axis : x y z
#
# Youngs Moduli (GPa) = 65.09663 83.41915 109.51785
#
# Poissons Ratio (x) = 0.29160 0.15329
# Poissons Ratio (y) = 0.22755 0.16420
# Poissons Ratio (z) = 0.09111 0.12507
#
# Static dielectric constant tensor:
#      x y z
#    x 1.743980 0.000000 0.000000 
#    y 0.000000 1.590510 0.000000 
#    z 0.000000 0.000000 1.674370 
# 
# From -- ./inp_files/69963.got.cif
#   From: 2010.05.17/outbox.cif.g08.bks.cpg/sg71_35_cif.got.tgz:69963.got - 2010.06.03 16:22:01.
