data_PCOD9522073
_publ_section_title
;
Structure prediction by ZEFSAII (Michael W. Deem and Ramdas Pophale) SiO2 
 PCOD9522073
Probable space group: I M M M
;
_chemical_formula_sum "Si O2"
_cell_formula_units_Z 70
_cell_length_a 7.593077
_cell_length_b 20.172302
_cell_length_c 23.871379
_cell_angle_alpha 90.000000
_cell_angle_beta 90.000000
_cell_angle_gamma 90.000000
_cell_volume 3656.375358
_symmetry_space_group_name_H-M "I M M M"
_symmetry_group_IT_number 71
_symmetry_cell_setting 'orthorhombic'
loop_
_space_group_symop_operation_xyz
x,y,z
-x,-y,z
x,-y,-z
-x,y,-z
-x,-y,-z
x,y,-z
-x,y,z
x,-y,z
1/2+x,1/2+y,1/2+z
1/2-x,1/2-y,1/2+z
1/2+x,1/2-y,1/2-z
1/2-x,1/2+y,1/2-z
1/2-x,1/2-y,1/2-z
1/2+x,1/2+y,1/2-z
1/2-x,1/2+y,1/2+z
1/2+x,1/2-y,1/2+z
loop_
_atom_site_type_symbol
_atom_site_label
_atom_site_fract_x
_atom_site_fract_y
_atom_site_fract_z
Si Si1 0.710930 0.656348 0.000000
Si Si2 0.796285 0.327157 0.325221
Si Si3 0.000000 0.767094 0.000000
Si Si4 0.000000 0.000000 0.000000
Si Si5 0.204289 0.315380 0.802783
Si Si6 0.500000 0.377995 0.406743
Si Si7 0.712294 0.574889 0.889286
O O1 0.826973 0.721835 0.000000
O O2 0.757832 0.613059 0.054082
O O3 0.500000 0.669152 0.000000
O O4 0.731754 0.329130 0.260390
O O5 0.790776 0.247166 0.334413
O O6 0.670588 0.368501 0.366334
O O7 0.000000 0.349014 0.328893
O O8 0.000000 0.813463 0.053981
O O9 0.000000 0.059060 0.949303
O O10 0.222686 0.381287 0.838226
O O11 0.000000 0.296990 0.797244
O O12 0.500000 0.572976 0.886685
O O13 0.778009 0.500000 0.888836
#
# Coordination Sequence:
#
# PCOD9522073 Si02
#       7
#     8  16   4   2  16   8  16
#     4  10  22  39  57  85 121 164 203 257 294 350
#     4  10  21  38  65  94 124 161 201 257 327 382
#     4  11  24  37  65  96 111 146 216 248 315 360
#     4  10  28  52  70  96 130 170 230 278 320 380
#     4  10  20  35  57  94 129 158 206 261 315 380
#     4  11  23  46  68  93 126 163 205 270 317 381
#     4  10  21  36  54  79 121 171 214 246 294 359
#
# _framework density 19.144644
#
# number of rings (size 3 to 8) (size 9 to 14) (size 15 to 20)
#    0.000    1.829    1.143    2.400    4.800    4.571 
#    2.057    3.429    0.000    0.000    0.000    0.000 
#    0.000    0.000    0.000    0.000    0.000    0.000 
#
# Total GULP energy -195076.981602 kJ/mol
# GULP energy per Si atom -5573.628046 kJ/mol
# Density = 1.910107 g / cm^3
# Si number density = 19.144644 Si / 1000 Ang^3
#
#
#
# Elastic Constant Matrix: (Units=GPa)
#
#
# Indices 1 2 3 4 5 6 
#
# 1 80.6201 40.6081 44.7511 0.0000 0.0000 0.0000
# 2 40.6081 142.2125 71.9103 0.0000 0.0000 0.0000
# 3 44.7511 71.9103 108.5935 0.0000 0.0000 0.0000
# 4 0.0000 0.0000 0.0000 39.3606 0.0000 0.0000
# 5 0.0000 0.0000 0.0000 0.0000 -30.9269 0.0000
# 6 0.0000 0.0000 0.0000 0.0000 0.0000 16.5939
#
#
#
# Elastic Compliance Matrix: (Units=1/GPa)
#
#
# Indices 1 2 3 4 5 6 
#
# 1 0.016419 -0.001905 -0.005505 0.000000 0.000000 0.000000
# 2 -0.001905 0.010793 -0.006362 0.000000 0.000000 0.000000
# 3 -0.005505 -0.006362 0.015690 0.000000 0.000000 0.000000
# 4 0.000000 0.000000 0.000000 0.025406 0.000000 0.000000
# 5 0.000000 0.000000 0.000000 0.000000 -0.032334 0.000000
# 6 0.000000 0.000000 0.000000 0.000000 0.000000 0.060263
#
#
# Mechanical properties :
#
#
# Convention : Reuss Voigt Hill
#
# Bulk Modulus (GPa) = 65.11050 71.77391 68.44221
# Shear Modulus (GPa) = 38.79014 16.61596 27.70305
#
# Velocity S-wave (km/s) = 4.50617 2.94924 3.80812
# Velocity P-wave (km/s) = 7.82034 7.01207 7.42721
#
# Compressibility (1/GPa) = 0.01535850
#
# Stress axis : x y z
#
# Youngs Moduli (GPa) = 60.90510 92.65689 63.73502
#
# Poissons Ratio (x) = 0.17649 0.35085
# Poissons Ratio (y) = 0.11601 0.40547
# Poissons Ratio (z) = 0.33527 0.58946
#
# Static dielectric constant tensor:
#      x y z
#    x 1.644930 0.000000 0.000000 
#    y 0.000000 1.653250 0.000000 
#    z 0.000000 0.000000 1.681290 
# 
# From -- ./inp_files/57344.got.cif
#   From: 2010.05.17/outbox.cif.g08.bks.cpg/sg71_29_cif.got.tgz:57344.got - 2010.06.03 16:22:01.
