data_PCOD9522940
_publ_section_title
;
Structure prediction by ZEFSAII (Michael W. Deem and Ramdas Pophale) SiO2 
 PCOD9522940
Probable space group: I M M M
;
_chemical_formula_sum "Si O2"
_cell_formula_units_Z 72
_cell_length_a 29.691421
_cell_length_b 15.429758
_cell_length_c 8.770682
_cell_angle_alpha 90.000000
_cell_angle_beta 90.000000
_cell_angle_gamma 90.000000
_cell_volume 4018.125181
_symmetry_space_group_name_H-M "I M M M"
_symmetry_group_IT_number 71
_symmetry_cell_setting 'orthorhombic'
loop_
_space_group_symop_operation_xyz
x,y,z
-x,-y,z
x,-y,-z
-x,y,-z
-x,-y,-z
x,y,-z
-x,y,z
x,-y,z
1/2+x,1/2+y,1/2+z
1/2-x,1/2-y,1/2+z
1/2+x,1/2-y,1/2-z
1/2-x,1/2+y,1/2-z
1/2-x,1/2-y,1/2-z
1/2+x,1/2+y,1/2-z
1/2-x,1/2+y,1/2+z
1/2+x,1/2-y,1/2+z
loop_
_atom_site_type_symbol
_atom_site_label
_atom_site_fract_x
_atom_site_fract_y
_atom_site_fract_z
Si Si1 0.291856 0.398780 0.321324
Si Si2 0.358339 0.739305 0.181885
Si Si3 0.305976 0.100512 0.318687
Si Si4 0.054580 0.500000 0.171517
Si Si5 0.448714 0.816985 0.183431
O O1 0.282502 0.382537 0.500000
O O2 0.303972 0.500000 0.303727
O O3 0.330970 0.336376 0.263587
O O4 0.246085 0.383985 0.226905
O O5 0.335309 0.829943 0.228976
O O6 0.410750 0.748056 0.227805
O O7 0.355529 0.728003 0.000000
O O8 0.311714 0.111919 0.500000
O O9 0.316555 0.000000 0.280310
O O10 0.066037 0.411146 0.255275
O O11 0.000000 0.500000 0.164716
O O12 0.072898 0.500000 0.000000
O O13 0.500000 0.799512 0.235767
O O14 0.449395 0.821459 0.000000
#
# Coordination Sequence:
#
# PCOD9522940 Si02
#       5
#    16  16  16   8  16
#     4  10  21  38  58  78 103 136 174 218 265 315
#     4  11  22  34  54  80 106 139 177 219 262 310
#     4  10  21  36  54  78 110 144 175 212 256 308
#     4   9  17  29  47  71  99 133 171 211 255 301
#     4   9  19  35  52  72 102 140 178 214 256 307
#
# _framework density 17.918806
#
# number of rings (size 3 to 8) (size 9 to 14) (size 15 to 20)
#    0.000    2.111    0.000    3.000    1.556    5.778 
#    0.000    0.000    0.000    0.667    0.000    4.667 
#    0.000    0.000    0.000    0.000    0.000    0.000 
#
# Total GULP energy -201008.682644 kJ/mol
# GULP energy per Si atom -5583.574518 kJ/mol
# Density = 1.787802 g / cm^3
# Si number density = 17.918806 Si / 1000 Ang^3
#
#
#
# Elastic Constant Matrix: (Units=GPa)
#
#
# Indices 1 2 3 4 5 6 
#
# 1 74.0372 33.2563 5.7929 0.0000 0.0000 0.0000
# 2 33.2563 32.6089 7.9415 0.0000 0.0000 0.0000
# 3 5.7929 7.9415 22.7321 0.0000 0.0000 0.0000
# 4 0.0000 0.0000 0.0000 22.4379 0.0000 0.0000
# 5 0.0000 0.0000 0.0000 0.0000 19.0396 0.0000
# 6 0.0000 0.0000 0.0000 0.0000 0.0000 27.2579
#
#
#
# Elastic Compliance Matrix: (Units=1/GPa)
#
#
# Indices 1 2 3 4 5 6 
#
# 1 0.025085 -0.026260 0.002782 0.000000 0.000000 0.000000
# 2 -0.026260 0.061009 -0.014622 0.000000 0.000000 0.000000
# 3 0.002782 -0.014622 0.048390 0.000000 0.000000 0.000000
# 4 0.000000 0.000000 0.000000 0.044567 0.000000 0.000000
# 5 0.000000 0.000000 0.000000 0.000000 0.052522 0.000000
# 6 0.000000 0.000000 0.000000 0.000000 0.000000 0.036687
#
#
# Mechanical properties :
#
#
# Convention : Reuss Voigt Hill
#
# Bulk Modulus (GPa) = 17.15763 24.81774 20.98768
# Shear Modulus (GPa) = 13.74053 19.23957 16.49005
#
# Velocity S-wave (km/s) = 2.77216 3.28030 3.03688
# Velocity P-wave (km/s) = 4.45449 5.31294 4.90254
#
# Compressibility (1/GPa) = 0.05828312
#
# Stress axis : x y z
#
# Youngs Moduli (GPa) = 39.86506 16.39113 20.66549
#
# Poissons Ratio (x) = 0.43043 -0.05748
# Poissons Ratio (y) = 1.04686 0.30216
# Poissons Ratio (z) = -0.11089 0.23966
#
# Static dielectric constant tensor:
#      x y z
#    x 1.641730 0.000000 0.000000 
#    y 0.000000 1.586440 0.000000 
#    z 0.000000 0.000000 1.602170 
# 
# From -- ./inp_files/6096.got.cif
#   From: 2010.05.17/outbox.cif.g08.bks.cpg/sg71_4_cif.got.tgz:6096.got - 2010.06.03 16:22:01.
