data_PCOD9522075
_publ_section_title
;
Structure prediction by ZEFSAII (Michael W. Deem and Ramdas Pophale) SiO2 
 PCOD9522075
Probable space group: I M M M
;
_chemical_formula_sum "Si O2"
_cell_formula_units_Z 88
_cell_length_a 7.626708
_cell_length_b 23.033562
_cell_length_c 22.395764
_cell_angle_alpha 90.000000
_cell_angle_beta 90.000000
_cell_angle_gamma 90.000000
_cell_volume 3934.269496
_symmetry_space_group_name_H-M "I M M M"
_symmetry_group_IT_number 71
_symmetry_cell_setting 'orthorhombic'
loop_
_space_group_symop_operation_xyz
x,y,z
-x,-y,z
x,-y,-z
-x,y,-z
-x,-y,-z
x,y,-z
-x,y,z
x,-y,z
1/2+x,1/2+y,1/2+z
1/2-x,1/2-y,1/2+z
1/2+x,1/2-y,1/2-z
1/2-x,1/2+y,1/2-z
1/2-x,1/2-y,1/2-z
1/2+x,1/2+y,1/2-z
1/2-x,1/2+y,1/2+z
1/2+x,1/2-y,1/2+z
loop_
_atom_site_type_symbol
_atom_site_label
_atom_site_fract_x
_atom_site_fract_y
_atom_site_fract_z
Si Si1 0.208030 0.068760 0.935222
Si Si2 0.794910 0.566665 0.761560
Si Si3 0.800228 0.128448 0.381001
Si Si4 0.284760 0.752565 0.929858
Si Si5 0.804841 0.650145 0.337253
Si Si6 0.297859 0.931328 0.500000
O O1 0.313409 0.096947 0.882998
O O2 0.000000 0.079960 0.927651
O O3 0.230022 0.000000 0.935359
O O4 0.261903 0.092061 0.000000
O O5 0.724137 0.500000 0.756742
O O6 0.786285 0.591401 0.828517
O O7 0.718021 0.618212 0.719548
O O8 0.000000 0.562914 0.744676
O O9 0.728673 0.190951 0.401775
O O10 0.793566 0.091513 0.441089
O O11 0.000000 0.138083 0.361563
O O12 0.500000 0.754266 0.931533
O O13 0.226314 0.800649 0.881113
O O14 0.229552 0.758966 0.000000
O O15 0.000000 0.671168 0.319413
O O16 0.500000 0.910713 0.500000
O O17 0.298377 0.000000 0.500000
#
# Coordination Sequence:
#
# PCOD9522075 Si02
#       6
#    16  16  16  16  16   8
#     4   9  18  32  49  73 109 147 184 237 298 342
#     4  10  22  39  56  81 119 154 190 242 293 336
#     4  11  22  38  61  87 115 152 194 234 285 349
#     4   9  18  35  58  85 117 148 184 240 294 332
#     4  10  20  35  58  82 108 151 197 233 281 342
#     4  11  23  39  61  89 119 149 184 237 298 343
#
# _framework density 22.367557999999999
#
# number of rings (size 3 to 8) (size 9 to 14) (size 15 to 20)
#    0.000    2.091    0.909    3.000    0.000    6.909 
#    0.000    2.727    0.000    0.000    0.000    0.000 
#    0.000    0.000    0.000    0.000    0.000    0.000 
#
# Total GULP energy -245304.809310 kJ/mol
# GULP energy per Si atom -5575.109302 kJ/mol
# Density = 2.231665 g / cm^3
# Si number density = 22.367558 Si / 1000 Ang^3
#
#
#
# Elastic Constant Matrix: (Units=GPa)
#
#
# Indices 1 2 3 4 5 6 
#
# 1 38.9179 10.9694 1.4439 0.0000 0.0000 0.0000
# 2 10.9694 124.1033 62.6558 0.0000 0.0000 0.0000
# 3 1.4439 62.6558 137.2985 0.0000 0.0000 0.0000
# 4 0.0000 0.0000 0.0000 24.8501 0.0000 0.0000
# 5 0.0000 0.0000 0.0000 0.0000 12.9120 0.0000
# 6 0.0000 0.0000 0.0000 0.0000 0.0000 23.2082
#
#
#
# Elastic Compliance Matrix: (Units=1/GPa)
#
#
# Indices 1 2 3 4 5 6 
#
# 1 0.026462 -0.002857 0.001025 0.000000 0.000000 0.000000
# 2 -0.002857 0.010778 -0.004889 0.000000 0.000000 0.000000
# 3 0.001025 -0.004889 0.009504 0.000000 0.000000 0.000000
# 4 0.000000 0.000000 0.000000 0.040241 0.000000 0.000000
# 5 0.000000 0.000000 0.000000 0.000000 0.077448 0.000000
# 6 0.000000 0.000000 0.000000 0.000000 0.000000 0.043088
#
#
# Mechanical properties :
#
#
# Convention : Reuss Voigt Hill
#
# Bulk Modulus (GPa) = 30.02619 50.05089 40.03854
# Shear Modulus (GPa) = 21.54591 27.21076 24.37833
#
# Velocity S-wave (km/s) = 3.10702 3.49166 3.30494
# Velocity P-wave (km/s) = 5.13075 6.21938 5.70111
#
# Compressibility (1/GPa) = 0.03330426
#
# Stress axis : x y z
#
# Youngs Moduli (GPa) = 37.78973 92.77790 105.22386
#
# Poissons Ratio (x) = 0.26503 -0.10789
# Poissons Ratio (y) = 0.10795 0.51440
# Poissons Ratio (z) = -0.03875 0.45356
#
# Static dielectric constant tensor:
#      x y z
#    x 1.934470 0.000000 0.000000 
#    y 0.000000 1.848660 0.000000 
#    z 0.000000 0.000000 1.818810 
# 
# From -- ./inp_files/10421.got.cif
#   From: 2010.05.17/outbox.cif.g08.bks.cpg/sg71_6_cif.got.tgz:10421.got - 2010.06.03 16:22:01.
