data_PCOD9522388
_publ_section_title
;
Structure prediction by ZEFSAII (Michael W. Deem and Ramdas Pophale) SiO2 
 PCOD9522388
Probable space group: I M M M
;
_chemical_formula_sum "Si O2"
_cell_formula_units_Z 72
_cell_length_a 18.108153
_cell_length_b 7.706818
_cell_length_c 24.670556
_cell_angle_alpha 90.000000
_cell_angle_beta 90.000000
_cell_angle_gamma 90.000000
_cell_volume 3442.930021
_symmetry_space_group_name_H-M "I M M M"
_symmetry_group_IT_number 71
_symmetry_cell_setting 'orthorhombic'
loop_
_space_group_symop_operation_xyz
x,y,z
-x,-y,z
x,-y,-z
-x,y,-z
-x,-y,-z
x,y,-z
-x,y,z
x,-y,z
1/2+x,1/2+y,1/2+z
1/2-x,1/2-y,1/2+z
1/2+x,1/2-y,1/2-z
1/2-x,1/2+y,1/2-z
1/2-x,1/2-y,1/2-z
1/2+x,1/2+y,1/2-z
1/2-x,1/2+y,1/2+z
1/2+x,1/2-y,1/2+z
loop_
_atom_site_type_symbol
_atom_site_label
_atom_site_fract_x
_atom_site_fract_y
_atom_site_fract_z
Si Si1 0.500000 0.292552 0.438657
Si Si2 0.163363 0.291375 0.752405
Si Si3 0.145493 0.706866 0.872071
Si Si4 0.787168 0.791717 0.438270
Si Si5 0.084042 0.709490 0.643246
O O1 0.500000 0.500000 0.440755
O O2 0.500000 0.224147 0.500000
O O3 0.573142 0.236434 0.407299
O O4 0.154729 0.500000 0.751468
O O5 0.250000 0.250000 0.750000
O O6 0.136410 0.225096 0.810888
O O7 0.120803 0.225110 0.699370
O O8 0.156477 0.500000 0.866824
O O9 0.218079 0.776556 0.902826
O O10 0.786659 0.725253 0.500000
O O11 0.862345 0.755341 0.406221
O O12 0.778940 0.000000 0.441259
O O13 0.081848 0.500000 0.646042
O O14 0.000000 0.771620 0.637147
#
# Coordination Sequence:
#
# PCOD9522388 Si02
#       5
#     8  16  16  16  16
#     4  11  25  41  57  85 123 157 194 243 292 341
#     4  10  20  36  61  87 114 146 187 235 285 342
#     4  10  21  38  62  87 114 153 195 236 289 352
#     4  10  21  38  60  85 112 147 194 241 285 338
#     4  10  22  38  57  84 118 153 189 234 287 341
#
# _framework density 20.912421999999999
#
# number of rings (size 3 to 8) (size 9 to 14) (size 15 to 20)
#    0.000    1.889    2.222    1.000    1.556    4.889 
#    0.000    2.222    0.000    0.000    0.000    0.000 
#    0.000    0.000    0.000    0.000    0.000    0.000 
#
# Total GULP energy -201132.321165 kJ/mol
# GULP energy per Si atom -5587.008921 kJ/mol
# Density = 2.086482 g / cm^3
# Si number density = 20.912422 Si / 1000 Ang^3
#
#
#
# Elastic Constant Matrix: (Units=GPa)
#
#
# Indices 1 2 3 4 5 6 
#
# 1 123.2776 -12.6138 46.2150 0.0000 0.0000 0.0000
# 2 -12.6138 31.3212 4.0998 0.0000 0.0000 0.0000
# 3 46.2150 4.0998 151.1857 0.0000 0.0000 0.0000
# 4 0.0000 0.0000 0.0000 19.5651 0.0000 0.0000
# 5 0.0000 0.0000 0.0000 0.0000 33.8508 0.0000
# 6 0.0000 0.0000 0.0000 0.0000 0.0000 25.0397
#
#
#
# Elastic Compliance Matrix: (Units=1/GPa)
#
#
# Indices 1 2 3 4 5 6 
#
# 1 0.009710 0.004314 -0.003085 0.000000 0.000000 0.000000
# 2 0.004314 0.033958 -0.002240 0.000000 0.000000 0.000000
# 3 -0.003085 -0.002240 0.007618 0.000000 0.000000 0.000000
# 4 0.000000 0.000000 0.000000 0.051111 0.000000 0.000000
# 5 0.000000 0.000000 0.000000 0.000000 0.029541 0.000000
# 6 0.000000 0.000000 0.000000 0.000000 0.000000 0.039937
#
#
# Mechanical properties :
#
#
# Convention : Reuss Voigt Hill
#
# Bulk Modulus (GPa) = 20.29855 42.35407 31.32631
# Shear Modulus (GPa) = 26.27185 33.56334 29.91759
#
# Velocity S-wave (km/s) = 3.54825 4.01053 3.78645
# Velocity P-wave (km/s) = 5.14920 6.46087 5.84196
#
# Compressibility (1/GPa) = 0.04926460
#
# Stress axis : x y z
#
# Youngs Moduli (GPa) = 102.98910 29.44832 131.26485
#
# Poissons Ratio (x) = -0.12704 0.40497
# Poissons Ratio (y) = -0.44431 0.29398
# Poissons Ratio (z) = 0.31773 0.06595
#
# Static dielectric constant tensor:
#      x y z
#    x 1.765060 0.000000 0.000000 
#    y 0.000000 1.789250 0.000000 
#    z 0.000000 0.000000 1.758080 
# 
# From -- ./inp_files/7895.got.cif
#   From: 2010.05.17/outbox.cif.g08.bks.cpg/sg71_4_cif.got.tgz:7895.got - 2010.06.03 16:22:01.
