data_PCOD9522261
_publ_section_title
;
Structure prediction by ZEFSAII (Michael W. Deem and Ramdas Pophale) SiO2 
 PCOD9522261
Probable space group: I M M M
;
_chemical_formula_sum "Si O2"
_cell_formula_units_Z 104
_cell_length_a 24.556398
_cell_length_b 26.621315
_cell_length_c 8.587581
_cell_angle_alpha 90.000000
_cell_angle_beta 90.000000
_cell_angle_gamma 90.000000
_cell_volume 5613.904422
_symmetry_space_group_name_H-M "I M M M"
_symmetry_group_IT_number 71
_symmetry_cell_setting 'orthorhombic'
loop_
_space_group_symop_operation_xyz
x,y,z
-x,-y,z
x,-y,-z
-x,y,-z
-x,-y,-z
x,y,-z
-x,y,z
x,-y,z
1/2+x,1/2+y,1/2+z
1/2-x,1/2-y,1/2+z
1/2+x,1/2-y,1/2-z
1/2-x,1/2+y,1/2-z
1/2-x,1/2-y,1/2-z
1/2+x,1/2+y,1/2-z
1/2-x,1/2+y,1/2+z
1/2+x,1/2-y,1/2+z
loop_
_atom_site_type_symbol
_atom_site_label
_atom_site_fract_x
_atom_site_fract_y
_atom_site_fract_z
Si Si1 0.936947 0.000000 0.188935
Si Si2 0.787223 0.709349 0.826053
Si Si3 0.716205 0.391636 0.177185
Si Si4 0.888639 0.345891 0.809007
Si Si5 0.177104 0.443802 0.190299
Si Si6 0.401379 0.610268 0.313750
Si Si7 0.000000 0.293248 0.188889
Si Si8 0.000000 0.821282 0.314054
O O1 0.912157 0.947154 0.241187
O O2 0.000000 0.000000 0.232472
O O3 0.933402 0.000000 0.000000
O O4 0.750000 0.750000 0.750000
O O5 0.752477 0.658459 0.831917
O O6 0.844229 0.694434 0.750649
O O7 0.799618 0.726863 0.000000
O O8 0.760850 0.431067 0.241678
O O9 0.661314 0.380256 0.269532
O O10 0.701057 0.406265 0.000000
O O11 0.865642 0.400559 0.760854
O O12 0.947293 0.325676 0.763184
O O13 0.886928 0.346325 0.000000
O O14 0.161646 0.500000 0.237171
O O15 0.178960 0.441950 0.000000
O O16 0.408211 0.612282 0.500000
O O17 0.446232 0.648154 0.243279
O O18 0.000000 0.236188 0.251890
O O19 0.000000 0.289635 0.000000
O O20 0.000000 0.820341 0.500000
#
# Coordination Sequence:
#
# PCOD9522261 Si02
#       8
#     8  16  16  16  16  16   8   8
#     4   9  18  36  56  72  98 134 170 213 260 311
#     4   9  18  32  49  71 101 137 176 218 266 317
#     4   9  19  33  49  76 109 137 174 223 265 314
#     4   8  16  31  50  75 106 140 180 223 267 323
#     4   8  14  28  51  78 112 148 176 213 272 329
#     4  11  22  38  58  78 103 139 180 218 268 324
#     4  10  20  36  58  81 108 144 183 225 274 325
#     4  12  26  41  55  77 108 139 180 231 272 317
#
# _framework density 18.525431000000001
#
# number of rings (size 3 to 8) (size 9 to 14) (size 15 to 20)
#    0.000    2.692    0.769    3.000    3.231    0.615 
#    0.000    1.923    0.000    3.231    0.000    0.000 
#    0.000    0.615    0.000    0.000    0.000    0.000 
#
# Total GULP energy -289586.662119 kJ/mol
# GULP energy per Si atom -5568.974272 kJ/mol
# Density = 1.848327 g / cm^3
# Si number density = 18.525431 Si / 1000 Ang^3
#
#
#
# Elastic Constant Matrix: (Units=GPa)
#
#
# Indices 1 2 3 4 5 6 
#
# 1 163.2739 74.4127 24.2615 0.0000 0.0000 0.0000
# 2 74.4127 109.7255 23.6273 0.0000 0.0000 0.0000
# 3 24.2615 23.6273 26.4602 0.0000 0.0000 0.0000
# 4 0.0000 0.0000 0.0000 10.6926 0.0000 0.0000
# 5 0.0000 0.0000 0.0000 0.0000 14.2067 0.0000
# 6 0.0000 0.0000 0.0000 0.0000 0.0000 8.0084
#
#
#
# Elastic Compliance Matrix: (Units=1/GPa)
#
#
# Indices 1 2 3 4 5 6 
#
# 1 0.009121 -0.005429 -0.003516 0.000000 0.000000 0.000000
# 2 -0.005429 0.014514 -0.007983 0.000000 0.000000 0.000000
# 3 -0.003516 -0.007983 0.048144 0.000000 0.000000 0.000000
# 4 0.000000 0.000000 0.000000 0.093522 0.000000 0.000000
# 5 0.000000 0.000000 0.000000 0.000000 0.070389 0.000000
# 6 0.000000 0.000000 0.000000 0.000000 0.000000 0.124869
#
#
# Mechanical properties :
#
#
# Convention : Reuss Voigt Hill
#
# Bulk Modulus (GPa) = 26.36761 60.45142 43.40951
# Shear Modulus (GPa) = 12.28330 18.39208 15.33769
#
# Velocity S-wave (km/s) = 2.57777 3.15429 2.88049
# Velocity P-wave (km/s) = 4.80874 6.78001 5.87761
#
# Compressibility (1/GPa) = 0.03792532
#
# Stress axis : x y z
#
# Youngs Moduli (GPa) = 109.63390 68.89818 20.77092
#
# Poissons Ratio (x) = 0.37403 0.07303
# Poissons Ratio (y) = 0.59517 0.16581
# Poissons Ratio (z) = 0.38545 0.54999
#
# Static dielectric constant tensor:
#      x y z
#    x 1.626680 0.000000 0.000000 
#    y 0.000000 1.668130 0.000000 
#    z 0.000000 0.000000 1.657880 
# 
# From -- ./inp_files/13388.got.cif
#   From: 2010.05.17/outbox.cif.g08.bks.cpg/sg71_7_cif.got.tgz:13388.got - 2010.06.03 16:22:01.
