data_PCOD9522323
_publ_section_title
;
Structure prediction by ZEFSAII (Michael W. Deem and Ramdas Pophale) SiO2 
 PCOD9522323
Probable space group: I M M M
;
_chemical_formula_sum "Si O2"
_cell_formula_units_Z 88
_cell_length_a 21.104008
_cell_length_b 8.818530
_cell_length_c 25.602026
_cell_angle_alpha 90.000000
_cell_angle_beta 90.000000
_cell_angle_gamma 90.000000
_cell_volume 4764.699040
_symmetry_space_group_name_H-M "I M M M"
_symmetry_group_IT_number 71
_symmetry_cell_setting 'orthorhombic'
loop_
_space_group_symop_operation_xyz
x,y,z
-x,-y,z
x,-y,-z
-x,y,-z
-x,-y,-z
x,y,-z
-x,y,z
x,-y,z
1/2+x,1/2+y,1/2+z
1/2-x,1/2-y,1/2+z
1/2+x,1/2-y,1/2-z
1/2-x,1/2+y,1/2-z
1/2-x,1/2-y,1/2-z
1/2+x,1/2+y,1/2-z
1/2-x,1/2+y,1/2+z
1/2+x,1/2-y,1/2+z
loop_
_atom_site_type_symbol
_atom_site_label
_atom_site_fract_x
_atom_site_fract_y
_atom_site_fract_z
Si Si1 0.675124 0.821049 0.191184
Si Si2 0.779618 0.318005 0.000000
Si Si3 0.367526 0.677747 0.588504
Si Si4 0.000000 0.328977 0.062328
Si Si5 0.187434 0.676631 0.813210
Si Si6 0.574260 0.683499 0.111570
Si Si7 0.632696 0.315893 0.000000
O O1 0.739338 0.726737 0.181704
O O2 0.664703 0.805872 0.253496
O O3 0.618749 0.758927 0.155274
O O4 0.685853 0.000000 0.180508
O O5 0.817037 0.258144 0.050436
O O6 0.781212 0.500000 0.000000
O O7 0.706286 0.268113 0.000000
O O8 0.365347 0.500000 0.578420
O O9 0.436813 0.742349 0.577736
O O10 0.350423 0.718244 0.647544
O O11 0.000000 0.500000 0.084057
O O12 0.000000 0.339250 0.000000
O O13 0.181037 0.500000 0.827872
O O14 0.500000 0.720895 0.117858
O O15 0.580511 0.500000 0.115088
O O16 0.598302 0.730530 0.053669
O O17 0.631916 0.500000 0.000000
#
# Coordination Sequence:
#
# PCOD9522323 Si02
#       7
#    16   8  16   8  16  16   8
#     4  10  21  38  61  88 117 151 192 244 298 347
#     4  11  21  35  58  86 118 157 196 239 293 353
#     4  12  24  38  59  88 120 153 194 246 294 346
#     4  11  23  41  63  83 114 160 202 237 290 361
#     4  10  21  39  62  86 115 153 195 242 294 354
#     4  10  20  36  59  85 116 156 196 237 284 346
#     4   9  19  35  57  85 114 149 195 236 277 334
#
# _framework density 18.469161
#
# number of rings (size 3 to 8) (size 9 to 14) (size 15 to 20)
#    0.000    1.545    0.909    4.636    0.000    5.455 
#    1.636    1.364    0.000    1.091    0.000    0.000 
#    0.000    0.000    0.000    0.000    0.000    0.000 
#
# Total GULP energy -245827.097239 kJ/mol
# GULP energy per Si atom -5586.979483 kJ/mol
# Density = 1.842712 g / cm^3
# Si number density = 18.469161 Si / 1000 Ang^3
#
#
#
# Elastic Constant Matrix: (Units=GPa)
#
#
# Indices 1 2 3 4 5 6 
#
# 1 123.3632 35.3265 62.9635 0.0000 0.0000 0.0000
# 2 35.3265 80.2429 30.5201 0.0000 0.0000 0.0000
# 3 62.9635 30.5201 73.7680 0.0000 0.0000 0.0000
# 4 0.0000 0.0000 0.0000 27.3648 0.0000 0.0000
# 5 0.0000 0.0000 0.0000 0.0000 23.6195 0.0000
# 6 0.0000 0.0000 0.0000 0.0000 0.0000 20.8271
#
#
#
# Elastic Compliance Matrix: (Units=1/GPa)
#
#
# Indices 1 2 3 4 5 6 
#
# 1 0.014631 -0.002007 -0.011657 0.000000 0.000000 0.000000
# 2 -0.002007 0.015065 -0.004520 0.000000 0.000000 0.000000
# 3 -0.011657 -0.004520 0.025376 0.000000 0.000000 0.000000
# 4 0.000000 0.000000 0.000000 0.036543 0.000000 0.000000
# 5 0.000000 0.000000 0.000000 0.000000 0.042338 0.000000
# 6 0.000000 0.000000 0.000000 0.000000 0.000000 0.048014
#
#
# Mechanical properties :
#
#
# Convention : Reuss Voigt Hill
#
# Bulk Modulus (GPa) = 53.46705 59.44382 56.45543
# Shear Modulus (GPa) = 22.26478 24.26653 23.26565
#
# Velocity S-wave (km/s) = 3.47581 3.62870 3.55308
# Velocity P-wave (km/s) = 6.71719 7.05776 6.88958
#
# Compressibility (1/GPa) = 0.01870311
#
# Stress axis : x y z
#
# Youngs Moduli (GPa) = 68.34901 66.37979 39.40747
#
# Poissons Ratio (x) = 0.13324 0.45939
# Poissons Ratio (y) = 0.13719 0.17810
# Poissons Ratio (z) = 0.79677 0.30001
#
# Static dielectric constant tensor:
#      x y z
#    x 1.583210 0.000000 0.000000 
#    y 0.000000 1.632170 0.000000 
#    z 0.000000 0.000000 1.632120 
# 
# From -- ./inp_files/61174.got.cif
#   From: 2010.05.17/outbox.cif.g08.bks.cpg/sg71_31_cif.got.tgz:61174.got - 2010.06.03 16:22:01.
