data_PCOD9522434
_publ_section_title
;
Structure prediction by ZEFSAII (Michael W. Deem and Ramdas Pophale) SiO2 
 PCOD9522434
Probable space group: I M M M
;
_chemical_formula_sum "Si O2"
_cell_formula_units_Z 120
_cell_length_a 22.146797
_cell_length_b 20.409685
_cell_length_c 14.553018
_cell_angle_alpha 90.000000
_cell_angle_beta 90.000000
_cell_angle_gamma 90.000000
_cell_volume 6578.097304
_symmetry_space_group_name_H-M "I M M M"
_symmetry_group_IT_number 71
_symmetry_cell_setting 'orthorhombic'
loop_
_space_group_symop_operation_xyz
x,y,z
-x,-y,z
x,-y,-z
-x,y,-z
-x,-y,-z
x,y,-z
-x,y,z
x,-y,z
1/2+x,1/2+y,1/2+z
1/2-x,1/2-y,1/2+z
1/2+x,1/2-y,1/2-z
1/2-x,1/2+y,1/2-z
1/2-x,1/2-y,1/2-z
1/2+x,1/2+y,1/2-z
1/2-x,1/2+y,1/2+z
1/2+x,1/2-y,1/2+z
loop_
_atom_site_type_symbol
_atom_site_label
_atom_site_fract_x
_atom_site_fract_y
_atom_site_fract_z
Si Si1 0.124283 0.073530 0.709731
Si Si2 0.747539 0.647409 0.234820
Si Si3 0.927553 0.897829 0.903066
Si Si4 0.145170 0.622778 0.106064
Si Si5 0.698412 0.233574 0.107318
Si Si6 0.929918 0.208868 0.646873
Si Si7 0.065472 0.500000 0.889132
Si Si8 0.430924 0.748142 0.360361
O O1 0.191029 0.098826 0.736304
O O2 0.091780 0.071301 0.808197
O O3 0.091975 0.132326 0.651866
O O4 0.124053 0.000000 0.669050
O O5 0.800530 0.616858 0.175594
O O6 0.724740 0.707330 0.169753
O O7 0.775427 0.672729 0.331919
O O8 0.909763 0.821199 0.899834
O O9 0.000000 0.898973 0.903647
O O10 0.905656 0.925703 0.000000
O O11 0.098902 0.566424 0.133301
O O12 0.112900 0.692952 0.115370
O O13 0.163799 0.613683 0.000000
O O14 0.625649 0.248172 0.105952
O O15 0.718160 0.232797 0.000000
O O16 0.931783 0.234668 0.751670
O O17 0.000000 0.213208 0.612539
O O18 0.000000 0.500000 0.846768
O O19 0.061211 0.500000 0.000000
O O20 0.500000 0.761887 0.390063
#
# Coordination Sequence:
#
# PCOD9522434 Si02
#       8
#    16  16  16  16  16  16   8  16
#     4  10  21  35  52  72 104 149 187 222 265 317
#     4  10  22  37  52  80 108 141 185 220 264 328
#     4   9  18  31  48  76 109 135 169 216 265 321
#     4  11  20  32  53  76 106 144 178 218 266 322
#     4  10  20  37  58  80 109 139 173 227 282 326
#     4   9  18  34  55  81 110 136 176 228 275 329
#     4   9  20  34  48  76 111 141 178 219 265 327
#     4   9  16  29  50  77 107 137 167 209 265 322
#
# _framework density 18.242356999999998
#
# number of rings (size 3 to 8) (size 9 to 14) (size 15 to 20)
#    0.000    2.333    1.333    2.400    2.800    3.467 
#    0.000    0.667    0.000    3.600    0.000    3.733 
#    0.000    0.533    0.000    0.000    0.000    0.000 
#
# Total GULP energy -334116.536181 kJ/mol
# GULP energy per Si atom -5568.608936 kJ/mol
# Density = 1.820084 g / cm^3
# Si number density = 18.242357 Si / 1000 Ang^3
#
#
#
# Elastic Constant Matrix: (Units=GPa)
#
#
# Indices 1 2 3 4 5 6 
#
# 1 89.7686 32.9742 16.5300 0.0000 0.0000 0.0000
# 2 32.9742 65.6890 10.1069 0.0000 0.0000 0.0000
# 3 16.5300 10.1069 76.0325 0.0000 0.0000 0.0000
# 4 0.0000 0.0000 0.0000 5.3158 0.0000 0.0000
# 5 0.0000 0.0000 0.0000 0.0000 11.7381 0.0000
# 6 0.0000 0.0000 0.0000 0.0000 0.0000 24.8515
#
#
#
# Elastic Compliance Matrix: (Units=1/GPa)
#
#
# Indices 1 2 3 4 5 6 
#
# 1 0.013995 -0.006694 -0.002153 0.000000 0.000000 0.000000
# 2 -0.006694 0.018743 -0.001036 0.000000 0.000000 0.000000
# 3 -0.002153 -0.001036 0.013758 0.000000 0.000000 0.000000
# 4 0.000000 0.000000 0.000000 0.188119 0.000000 0.000000
# 5 0.000000 0.000000 0.000000 0.000000 0.085193 0.000000
# 6 0.000000 0.000000 0.000000 0.000000 0.000000 0.040239
#
#
# Mechanical properties :
#
#
# Convention : Reuss Voigt Hill
#
# Bulk Modulus (GPa) = 37.41093 38.96804 38.18948
# Shear Modulus (GPa) = 12.86265 19.83968 16.35117
#
# Velocity S-wave (km/s) = 2.65825 3.30140 2.99712
# Velocity P-wave (km/s) = 5.47485 5.99500 5.74082
#
# Compressibility (1/GPa) = 0.02673015
#
# Stress axis : x y z
#
# Youngs Moduli (GPa) = 71.45406 53.35366 72.68483
#
# Poissons Ratio (x) = 0.35715 0.15648
# Poissons Ratio (y) = 0.47831 0.07531
# Poissons Ratio (z) = 0.15383 0.05528
#
# Static dielectric constant tensor:
#      x y z
#    x 1.668760 0.000000 0.000000 
#    y 0.000000 1.640720 0.000000 
#    z 0.000000 0.000000 1.675820 
# 
# From -- ./inp_files/38446.got.cif
#   From: 2010.05.17/outbox.cif.g08.bks.cpg/sg71_20_cif.got.tgz:38446.got - 2010.06.03 16:22:01.
