data_PCOD9522878
_publ_section_title
;
Structure prediction by ZEFSAII (Michael W. Deem and Ramdas Pophale) SiO2 
 PCOD9522878
Probable space group: I M M M
;
_chemical_formula_sum "Si O2"
_cell_formula_units_Z 104
_cell_length_a 23.328171
_cell_length_b 30.876283
_cell_length_c 8.675677
_cell_angle_alpha 90.000000
_cell_angle_beta 90.000000
_cell_angle_gamma 90.000000
_cell_volume 6248.979178
_symmetry_space_group_name_H-M "I M M M"
_symmetry_group_IT_number 71
_symmetry_cell_setting 'orthorhombic'
loop_
_space_group_symop_operation_xyz
x,y,z
-x,-y,z
x,-y,-z
-x,y,-z
-x,-y,-z
x,y,-z
-x,y,z
x,-y,z
1/2+x,1/2+y,1/2+z
1/2-x,1/2-y,1/2+z
1/2+x,1/2-y,1/2-z
1/2-x,1/2+y,1/2-z
1/2-x,1/2-y,1/2-z
1/2+x,1/2+y,1/2-z
1/2-x,1/2+y,1/2+z
1/2+x,1/2-y,1/2+z
loop_
_atom_site_type_symbol
_atom_site_label
_atom_site_fract_x
_atom_site_fract_y
_atom_site_fract_z
Si Si1 0.933476 0.806449 0.812097
Si Si2 0.000000 0.949183 0.685114
Si Si3 0.565642 0.120639 0.185243
Si Si4 0.217257 0.050381 0.684459
Si Si5 0.342732 0.950119 0.186383
Si Si6 0.430365 0.211965 0.321684
Si Si7 0.889946 0.101238 0.185207
O O1 0.911948 0.759139 0.760006
O O2 0.898373 0.848710 0.765672
O O3 0.000000 0.812377 0.764616
O O4 0.933786 0.804640 0.000000
O O5 0.056311 0.925871 0.750656
O O6 0.000000 0.945959 0.500000
O O7 0.000000 0.000000 0.726650
O O8 0.500000 0.114727 0.241621
O O9 0.608573 0.083259 0.239211
O O10 0.586023 0.168506 0.233490
O O11 0.563962 0.118747 0.000000
O O12 0.216208 0.053478 0.500000
O O13 0.280560 0.060975 0.746030
O O14 0.168474 0.080426 0.755070
O O15 0.205690 0.000000 0.726792
O O16 0.355939 0.000000 0.229097
O O17 0.339507 0.948266 0.000000
O O18 0.412786 0.207785 0.500000
O O19 0.500000 0.213937 0.318849
O O20 0.891627 0.099768 0.000000
#
# Coordination Sequence:
#
# PCOD9522878 Si02
#       7
#    16   8  16  16  16  16  16
#     4   8  14  27  46  69  95 122 157 200 241 282
#     4  11  23  35  45  65 101 135 161 199 252 299
#     4   9  17  29  47  75 107 129 151 192 241 283
#     4  10  21  36  51  68  94 127 162 203 248 290
#     4   9  18  33  52  72  95 128 167 198 229 281
#     4   8  14  26  46  68  94 129 161 188 227 286
#     4  11  20  32  52  73  94 124 165 209 247 291
#
# _framework density 16.642719
#
# number of rings (size 3 to 8) (size 9 to 14) (size 15 to 20)
#    0.000    2.692    0.769    2.538    0.000    4.308 
#    0.000    3.077    0.000    0.923    0.000    4.308 
#    0.000    0.000    0.000    0.000    0.000    0.000 
#
# Total GULP energy -289785.034829 kJ/mol
# GULP energy per Si atom -5572.789131 kJ/mol
# Density = 1.660484 g / cm^3
# Si number density = 16.642719 Si / 1000 Ang^3
#
#
#
# Elastic Constant Matrix: (Units=GPa)
#
#
# Indices 1 2 3 4 5 6 
#
# 1 96.8662 98.5973 24.9545 0.0000 0.0000 0.0000
# 2 98.5973 163.0514 32.2813 0.0000 0.0000 0.0000
# 3 24.9545 32.2813 19.0356 0.0000 0.0000 0.0000
# 4 0.0000 0.0000 0.0000 23.8030 0.0000 0.0000
# 5 0.0000 0.0000 0.0000 0.0000 13.4333 0.0000
# 6 0.0000 0.0000 0.0000 0.0000 0.0000 11.3608
#
#
#
# Elastic Compliance Matrix: (Units=1/GPa)
#
#
# Indices 1 2 3 4 5 6 
#
# 1 0.028646 -0.014885 -0.012311 0.000000 0.000000 0.000000
# 2 -0.014885 0.016967 -0.009261 0.000000 0.000000 0.000000
# 3 -0.012311 -0.009261 0.084377 0.000000 0.000000 0.000000
# 4 0.000000 0.000000 0.000000 0.042011 0.000000 0.000000
# 5 0.000000 0.000000 0.000000 0.000000 0.074442 0.000000
# 6 0.000000 0.000000 0.000000 0.000000 0.000000 0.088022
#
#
# Mechanical properties :
#
#
# Convention : Reuss Voigt Hill
#
# Bulk Modulus (GPa) = 17.52013 65.62439 41.57226
# Shear Modulus (GPa) = 11.72598 17.92743 14.82670
#
# Velocity S-wave (km/s) = 2.65726 3.28562 2.98800
# Velocity P-wave (km/s) = 4.46819 7.34239 6.07764
#
# Compressibility (1/GPa) = 0.05707719
#
# Stress axis : x y z
#
# Youngs Moduli (GPa) = 34.90900 58.93640 11.85162
#
# Poissons Ratio (x) = 0.87726 0.14590
# Poissons Ratio (y) = 0.51962 0.10976
# Poissons Ratio (z) = 0.42975 0.54580
#
# Static dielectric constant tensor:
#      x y z
#    x 1.529700 0.000000 0.000000 
#    y 0.000000 1.581550 0.000000 
#    z 0.000000 0.000000 1.567480 
# 
# From -- ./inp_files/11509.got.cif
#   From: 2010.05.17/outbox.cif.g08.bks.cpg/sg71_6_cif.got.tgz:11509.got - 2010.06.03 16:22:01.
