data_PCOD9522325
_publ_section_title
;
Structure prediction by ZEFSAII (Michael W. Deem and Ramdas Pophale) SiO2 
 PCOD9522325
Probable space group: I M M M
;
_chemical_formula_sum "Si O2"
_cell_formula_units_Z 72
_cell_length_a 25.039427
_cell_length_b 8.146903
_cell_length_c 17.538374
_cell_angle_alpha 90.000000
_cell_angle_beta 90.000000
_cell_angle_gamma 90.000000
_cell_volume 3577.719259
_symmetry_space_group_name_H-M "I M M M"
_symmetry_group_IT_number 71
_symmetry_cell_setting 'orthorhombic'
loop_
_space_group_symop_operation_xyz
x,y,z
-x,-y,z
x,-y,-z
-x,y,-z
-x,-y,-z
x,y,-z
-x,y,z
x,-y,z
1/2+x,1/2+y,1/2+z
1/2-x,1/2-y,1/2+z
1/2+x,1/2-y,1/2-z
1/2-x,1/2+y,1/2-z
1/2-x,1/2-y,1/2-z
1/2+x,1/2+y,1/2-z
1/2-x,1/2+y,1/2+z
1/2+x,1/2-y,1/2+z
loop_
_atom_site_type_symbol
_atom_site_label
_atom_site_fract_x
_atom_site_fract_y
_atom_site_fract_z
Si Si1 0.560794 0.195666 0.500000
Si Si2 0.238524 0.801845 0.583576
Si Si3 0.856403 0.196700 0.873219
Si Si4 0.651803 0.304549 0.799010
Si Si5 0.438137 0.198201 0.913688
O O1 0.500000 0.261224 0.500000
O O2 0.594895 0.246829 0.425963
O O3 0.558019 0.000000 0.500000
O O4 0.218829 0.745674 0.500000
O O5 0.299828 0.752089 0.592580
O O6 0.202632 0.738018 0.653516
O O7 0.235504 0.000000 0.584407
O O8 0.856978 0.260802 0.786130
O O9 0.857699 0.000000 0.872517
O O10 0.659634 0.500000 0.791353
O O11 0.600910 0.272415 0.851793
O O12 0.500000 0.242465 0.900515
O O13 0.434549 0.000000 0.910752
O O14 0.423895 0.250019 0.000000
#
# Coordination Sequence:
#
# PCOD9522325 Si02
#       5
#     8  16  16  16  16
#     4  11  25  45  67  87 111 153 204 249 302 361
#     4  10  20  36  59  85 119 158 194 233 283 347
#     4  11  23  39  60  87 119 151 190 243 297 351
#     4  10  22  37  56  87 121 154 192 237 293 351
#     4   9  19  36  56  80 113 152 194 240 287 338
#
# _framework density 20.124552000000001
#
# number of rings (size 3 to 8) (size 9 to 14) (size 15 to 20)
#    0.000    1.889    1.111    3.000    0.000    6.222 
#    0.000    5.556    0.000    0.000    0.000    0.000 
#    0.000    0.000    0.000    0.000    0.000    0.000 
#
# Total GULP energy -201077.601167 kJ/mol
# GULP energy per Si atom -5585.488921 kJ/mol
# Density = 2.007875 g / cm^3
# Si number density = 20.124552 Si / 1000 Ang^3
#
#
#
# Elastic Constant Matrix: (Units=GPa)
#
#
# Indices 1 2 3 4 5 6 
#
# 1 129.8593 1.9146 93.7209 0.0000 0.0000 0.0000
# 2 1.9146 12.1980 17.6942 0.0000 0.0000 0.0000
# 3 93.7209 17.6942 181.9956 0.0000 0.0000 0.0000
# 4 0.0000 0.0000 0.0000 9.4322 0.0000 0.0000
# 5 0.0000 0.0000 0.0000 0.0000 0.0646 0.0000
# 6 0.0000 0.0000 0.0000 0.0000 0.0000 26.7523
#
#
#
# Elastic Compliance Matrix: (Units=1/GPa)
#
#
# Indices 1 2 3 4 5 6 
#
# 1 0.013046 0.008961 -0.007589 0.000000 0.000000 0.000000
# 2 0.008961 0.101596 -0.014492 0.000000 0.000000 0.000000
# 3 -0.007589 -0.014492 0.010812 0.000000 0.000000 0.000000
# 4 0.000000 0.000000 0.000000 0.106020 0.000000 0.000000
# 5 0.000000 0.000000 0.000000 0.000000 15.485823 0.000000
# 6 0.000000 0.000000 0.000000 0.000000 0.000000 0.037380
#
#
# Mechanical properties :
#
#
# Convention : Reuss Voigt Hill
#
# Bulk Modulus (GPa) = 10.07931 61.19025 35.63478
# Shear Modulus (GPa) = 0.31618 21.29802 10.80710
#
# Velocity S-wave (km/s) = 0.39680 3.25670 2.31986
# Velocity P-wave (km/s) = 2.28676 6.67931 4.99212
#
# Compressibility (1/GPa) = 0.09921315
#
# Stress axis : x y z
#
# Youngs Moduli (GPa) = 76.65278 9.84290 92.49118
#
# Poissons Ratio (x) = -0.08820 0.70195
# Poissons Ratio (y) = -0.68690 1.34040
# Poissons Ratio (z) = 0.58175 0.14265
#
# Static dielectric constant tensor:
#      x y z
#    x 1.685310 0.000000 0.000000 
#    y 0.000000 1.702070 0.000000 
#    z 0.000000 0.000000 1.687870 
# 
# From -- ./inp_files/6050.got.cif
#   From: 2010.05.17/outbox.cif.g08.bks.cpg/sg71_4_cif.got.tgz:6050.got - 2010.06.03 16:22:01.
