data_PCOD9522707
_publ_section_title
;
Structure prediction by ZEFSAII (Michael W. Deem and Ramdas Pophale) SiO2 
 PCOD9522707
Probable space group: I M M M
;
_chemical_formula_sum "Si O2"
_cell_formula_units_Z 80
_cell_length_a 9.760820
_cell_length_b 30.908257
_cell_length_c 18.678662
_cell_angle_alpha 90.000000
_cell_angle_beta 90.000000
_cell_angle_gamma 90.000000
_cell_volume 5635.164289
_symmetry_space_group_name_H-M "I M M M"
_symmetry_group_IT_number 71
_symmetry_cell_setting 'orthorhombic'
loop_
_space_group_symop_operation_xyz
x,y,z
-x,-y,z
x,-y,-z
-x,y,-z
-x,-y,-z
x,y,-z
-x,y,z
x,-y,z
1/2+x,1/2+y,1/2+z
1/2-x,1/2-y,1/2+z
1/2+x,1/2-y,1/2-z
1/2-x,1/2+y,1/2-z
1/2-x,1/2-y,1/2-z
1/2+x,1/2+y,1/2-z
1/2-x,1/2+y,1/2+z
1/2+x,1/2-y,1/2+z
loop_
_atom_site_type_symbol
_atom_site_label
_atom_site_fract_x
_atom_site_fract_y
_atom_site_fract_z
Si Si1 0.663271 0.732784 0.000000
Si Si2 0.000000 0.950109 0.913846
Si Si3 0.837061 0.815616 0.230525
Si Si4 0.252009 0.391372 0.631975
Si Si5 0.660494 0.836174 0.000000
Si Si6 0.336172 0.227259 0.643179
Si Si7 0.500000 0.051525 0.912179
O O1 0.749666 0.720123 0.929370
O O2 0.500000 0.719970 0.000000
O O3 0.665698 0.784892 0.000000
O O4 0.125915 0.923333 0.884973
O O5 0.000000 0.000000 0.891546
O O6 0.000000 0.949313 0.000000
O O7 0.783321 0.861242 0.199882
O O8 0.740375 0.800488 0.295543
O O9 0.825534 0.777161 0.171048
O O10 0.000000 0.818081 0.248846
O O11 0.231246 0.356882 0.568441
O O12 0.124824 0.423519 0.624544
O O13 0.500000 0.848150 0.000000
O O14 0.500000 0.218024 0.636259
O O15 0.500000 0.000000 0.899595
O O16 0.500000 0.056410 0.000000
#
# Coordination Sequence:
#
# PCOD9522707 Si02
#       7
#     8   8  16  16   8  16   8
#     4  11  21  33  51  70 102 130 161 207 248 288
#     4  11  22  32  46  69  96 127 167 212 259 291
#     4  10  21  34  48  70  97 128 165 207 250 291
#     4  12  19  33  49  67  93 130 170 213 244 291
#     4  11  20  30  45  71  91 129 175 204 240 289
#     4  10  21  34  50  72  97 126 164 206 246 291
#     4  11  22  34  48  67  96 131 171 214 255 293
#
# _framework density 14.196569999999999
#
# number of rings (size 3 to 8) (size 9 to 14) (size 15 to 20)
#    0.000    1.200    6.000    1.500    1.400    2.400 
#    1.800    0.000    0.000    0.000    0.000    0.000 
#    0.000    0.000    0.000    5.400    0.000    0.100 
#
# Total GULP energy -222829.823160 kJ/mol
# GULP energy per Si atom -5570.745579 kJ/mol
# Density = 1.416426 g / cm^3
# Si number density = 14.196570 Si / 1000 Ang^3
#
#
#
# Elastic Constant Matrix: (Units=GPa)
#
#
# Indices 1 2 3 4 5 6 
#
# 1 157.0431 56.2756 61.8324 0.0000 0.0000 0.0000
# 2 56.2756 95.6715 38.8032 0.0000 0.0000 0.0000
# 3 61.8324 38.8032 82.5250 0.0001 0.0000 0.0000
# 4 0.0000 0.0000 0.0001 28.4685 0.0000 0.0000
# 5 0.0000 0.0000 0.0000 0.0000 22.0325 0.0000
# 6 0.0000 0.0000 0.0000 0.0000 0.0000 21.6069
#
#
#
# Elastic Compliance Matrix: (Units=1/GPa)
#
#
# Indices 1 2 3 4 5 6 
#
# 1 0.009886 -0.003473 -0.005774 0.000000 0.000000 0.000000
# 2 -0.003473 0.014136 -0.004044 0.000000 0.000000 0.000000
# 3 -0.005774 -0.004044 0.018345 0.000000 0.000000 0.000000
# 4 0.000000 0.000000 0.000000 0.035127 0.000000 0.000000
# 5 0.000000 0.000000 0.000000 0.000000 0.045387 0.000000
# 6 0.000000 0.000000 0.000000 0.000000 0.000000 0.046281
#
#
# Mechanical properties :
#
#
# Convention : Reuss Voigt Hill
#
# Bulk Modulus (GPa) = 63.35511 72.11800 67.73656
# Shear Modulus (GPa) = 24.87492 26.31015 25.59254
#
# Velocity S-wave (km/s) = 4.19044 4.30964 4.25046
# Velocity P-wave (km/s) = 8.25452 8.69907 8.47971
#
# Compressibility (1/GPa) = 0.01578405
#
# Stress axis : x y z
#
# Youngs Moduli (GPa) = 101.15794 70.74286 54.51012
#
# Poissons Ratio (x) = 0.24570 0.31473
# Poissons Ratio (y) = 0.35133 0.22046
# Poissons Ratio (z) = 0.58406 0.28611
#
# Static dielectric constant tensor:
#      x y z
#    x 1.456910 0.000000 0.000000 
#    y 0.000000 1.445330 0.000000 
#    z 0.000000 0.000000 1.456950 
# 
# From -- ./inp_files/42419.got.cif
#   From: 2010.05.17/outbox.cif.g08.bks.cpg/sg71_22_cif.got.tgz:42419.got - 2010.06.03 16:22:01.
