data_PCOD9522439
_publ_section_title
;
Structure prediction by ZEFSAII (Michael W. Deem and Ramdas Pophale) SiO2 
 PCOD9522439
Probable space group: I M M M
;
_chemical_formula_sum "Si O2"
_cell_formula_units_Z 92
_cell_length_a 14.586910
_cell_length_b 16.459594
_cell_length_c 19.873594
_cell_angle_alpha 90.000000
_cell_angle_beta 90.000000
_cell_angle_gamma 90.000000
_cell_volume 4771.542926
_symmetry_space_group_name_H-M "I M M M"
_symmetry_group_IT_number 71
_symmetry_cell_setting 'orthorhombic'
loop_
_space_group_symop_operation_xyz
x,y,z
-x,-y,z
x,-y,-z
-x,y,-z
-x,-y,-z
x,y,-z
-x,y,z
x,-y,z
1/2+x,1/2+y,1/2+z
1/2-x,1/2-y,1/2+z
1/2+x,1/2-y,1/2-z
1/2-x,1/2+y,1/2-z
1/2-x,1/2-y,1/2-z
1/2+x,1/2+y,1/2-z
1/2-x,1/2+y,1/2+z
1/2+x,1/2-y,1/2+z
loop_
_atom_site_type_symbol
_atom_site_label
_atom_site_fract_x
_atom_site_fract_y
_atom_site_fract_z
Si Si1 0.100009 0.729639 0.077494
Si Si2 0.300788 0.692303 0.876727
Si Si3 0.857458 0.911032 0.104417
Si Si4 0.391980 0.406945 0.763837
Si Si5 0.000000 0.500000 0.622837
Si Si6 0.391447 0.402772 0.000000
Si Si7 0.649002 0.871099 0.079166
O O1 0.190840 0.701028 0.116094
O O2 0.100967 0.827882 0.076894
O O3 0.000000 0.703263 0.103779
O O4 0.109162 0.702433 0.000000
O O5 0.331785 0.654998 0.806303
O O6 0.343603 0.780880 0.890771
O O7 0.341912 0.634711 0.934903
O O8 0.869252 0.904748 0.184958
O O9 0.751227 0.906470 0.084577
O O10 0.893468 0.000000 0.084141
O O11 0.500000 0.389169 0.772738
O O12 0.376400 0.500000 0.787158
O O13 0.920622 0.570871 0.616838
O O14 0.384349 0.500000 0.000000
O O15 0.500000 0.381620 0.000000
O O16 0.623155 0.867559 0.000000
#
# Coordination Sequence:
#
# PCOD9522439 Si02
#       7
#    16  16  16  16   4   8  16
#     4  10  21  37  58  85 117 153 195 245 293 349
#     4  11  21  38  61  85 119 156 196 244 304 358
#     4  10  20  37  58  81 117 155 199 243 295 350
#     4  10  22  39  60  86 116 152 196 247 305 359
#     4  12  25  36  56  92 130 170 200 245 296 351
#     4  11  22  36  59  91 117 144 190 250 305 353
#     4  11  22  36  57  88 124 162 201 240 290 359
#
# _framework density 19.280975000000002
#
# number of rings (size 3 to 8) (size 9 to 14) (size 15 to 20)
#    0.000    1.478    2.609    3.913    2.435    6.261 
#    0.000    0.870    1.913    2.609    0.000    0.000 
#    0.000    0.000    0.000    0.000    0.000    0.000 
#
# Total GULP energy -256367.795990 kJ/mol
# GULP energy per Si atom -5573.212956 kJ/mol
# Density = 1.923709 g / cm^3
# Si number density = 19.280975 Si / 1000 Ang^3
#
#
#
# Elastic Constant Matrix: (Units=GPa)
#
#
# Indices 1 2 3 4 5 6 
#
# 1 130.5517 42.3857 16.1667 0.0000 0.0000 0.0000
# 2 42.3857 90.0091 27.2065 0.0000 0.0000 0.0000
# 3 16.1667 27.2065 52.1106 0.0000 0.0000 0.0000
# 4 0.0000 0.0000 0.0000 58.3602 0.0000 0.0000
# 5 0.0000 0.0000 0.0000 0.0000 367.1791 0.0000
# 6 0.0000 0.0000 0.0000 0.0000 0.0000 -8.9051
#
#
#
# Elastic Compliance Matrix: (Units=1/GPa)
#
#
# Indices 1 2 3 4 5 6 
#
# 1 0.009063 -0.004059 -0.000693 0.000000 0.000000 0.000000
# 2 -0.004059 0.015009 -0.006577 0.000000 0.000000 0.000000
# 3 -0.000693 -0.006577 0.022839 0.000000 0.000000 0.000000
# 4 0.000000 0.000000 0.000000 0.017135 0.000000 0.000000
# 5 0.000000 0.000000 0.000000 0.000000 0.002723 0.000000
# 6 0.000000 0.000000 0.000000 0.000000 0.000000 -0.112295
#
#
# Mechanical properties :
#
#
# Convention : Reuss Voigt Hill
#
# Bulk Modulus (GPa) = 41.22976 49.35435 45.29206
# Shear Modulus (GPa) = -338.21228 95.78766 -121.21231
#
# Velocity S-wave (km/s) = -13.25870 7.05604 -7.93743
# Velocity P-wave (km/s) = 14.59318 9.59357 7.77574
#
# Compressibility (1/GPa) = 0.02425432
#
# Stress axis : x y z
#
# Youngs Moduli (GPa) = 110.33556 66.62600 43.78529
#
# Poissons Ratio (x) = 0.27040 0.03034
# Poissons Ratio (y) = 0.44780 0.28798
# Poissons Ratio (z) = 0.07645 0.43820
#
# Static dielectric constant tensor:
#      x y z
#    x 1.676300 0.000000 0.000000 
#    y 0.000000 1.668840 0.000000 
#    z 0.000000 0.000000 1.671900 
# 
# From -- ./inp_files/53008.got.cif
#   From: 2010.05.17/outbox.cif.g08.bks.cpg/sg71_27_cif.got.tgz:53008.got - 2010.06.03 16:22:01.
