data_PCOD9522642
_publ_section_title
;
Structure prediction by ZEFSAII (Michael W. Deem and Ramdas Pophale) SiO2 
 PCOD9522642
Probable space group: I M M M
;
_chemical_formula_sum "Si O2"
_cell_formula_units_Z 88
_cell_length_a 23.453682
_cell_length_b 16.930766
_cell_length_c 11.377223
_cell_angle_alpha 90.000000
_cell_angle_beta 90.000000
_cell_angle_gamma 90.000000
_cell_volume 4517.767849
_symmetry_space_group_name_H-M "I M M M"
_symmetry_group_IT_number 71
_symmetry_cell_setting 'orthorhombic'
loop_
_space_group_symop_operation_xyz
x,y,z
-x,-y,z
x,-y,-z
-x,y,-z
-x,-y,-z
x,y,-z
-x,y,z
x,-y,z
1/2+x,1/2+y,1/2+z
1/2-x,1/2-y,1/2+z
1/2+x,1/2-y,1/2-z
1/2-x,1/2+y,1/2-z
1/2-x,1/2-y,1/2-z
1/2+x,1/2+y,1/2-z
1/2-x,1/2+y,1/2+z
1/2+x,1/2-y,1/2+z
loop_
_atom_site_type_symbol
_atom_site_label
_atom_site_fract_x
_atom_site_fract_y
_atom_site_fract_z
Si Si1 0.909589 0.584719 0.000000
Si Si2 0.565651 0.262909 0.500000
Si Si3 0.567356 0.500000 0.366035
Si Si4 0.341478 0.089046 0.741360
Si Si5 0.108282 0.837388 0.237827
Si Si6 0.219244 0.095766 0.641001
Si Si7 0.937561 0.306713 0.638857
O O1 0.870293 0.584598 0.114082
O O2 0.940394 0.500000 0.000000
O O3 0.939975 0.668636 0.000000
O O4 0.500000 0.296174 0.500000
O O5 0.600941 0.290146 0.614474
O O6 0.500000 0.500000 0.376631
O O7 0.591510 0.500000 0.500000
O O8 0.585232 0.577043 0.295606
O O9 0.277034 0.114223 0.712978
O O10 0.383194 0.145666 0.813349
O O11 0.340770 0.000000 0.792422
O O12 0.168910 0.854187 0.298732
O O13 0.071329 0.784190 0.325600
O O14 0.224109 0.111702 0.500000
O O15 0.209831 0.000000 0.651579
O O16 0.938753 0.315489 0.500000
O O17 0.000000 0.333354 0.686758
#
# Coordination Sequence:
#
# PCOD9522642 Si02
#       7
#     8   8   8  16  16  16  16
#     4  10  20  39  67  97 126 162 210 260 325 391
#     4  12  24  40  64  98 135 167 208 270 326 375
#     4  11  22  38  61  91 129 173 217 265 324 381
#     4  10  21  41  69  97 125 166 209 264 329 388
#     4  12  23  40  62  94 127 173 215 262 322 384
#     4  10  21  41  67  94 131 169 215 268 321 382
#     4  11  25  44  63  91 132 172 215 266 319 380
#
# _framework density 19.478646000000001
#
# number of rings (size 3 to 8) (size 9 to 14) (size 15 to 20)
#    0.000    1.182    4.545    2.182    0.000    1.636 
#    1.636    2.727    0.000    2.182    0.000    0.000 
#    0.000    0.000    0.000    0.000    0.000    0.000 
#
# Total GULP energy -245353.460727 kJ/mol
# GULP energy per Si atom -5576.215017 kJ/mol
# Density = 1.943431 g / cm^3
# Si number density = 19.478646 Si / 1000 Ang^3
#
#
#
# Elastic Constant Matrix: (Units=GPa)
#
#
# Indices 1 2 3 4 5 6 
#
# 1 148.6724 51.7720 56.6938 0.0000 0.0000 0.0000
# 2 51.7720 110.8074 35.3952 0.0000 0.0000 0.0000
# 3 56.6938 35.3952 82.2381 0.0000 0.0000 0.0000
# 4 0.0000 0.0000 0.0000 36.8269 0.0000 0.0000
# 5 0.0000 0.0000 0.0000 0.0000 39.4136 0.0000
# 6 0.0000 0.0000 0.0000 0.0000 0.0000 17.3762
#
#
#
# Elastic Compliance Matrix: (Units=1/GPa)
#
#
# Indices 1 2 3 4 5 6 
#
# 1 0.009828 -0.002815 -0.005564 0.000000 0.000000 0.000000
# 2 -0.002815 0.011269 -0.002910 0.000000 0.000000 0.000000
# 3 -0.005564 -0.002910 0.017248 0.000000 0.000000 0.000000
# 4 0.000000 0.000000 0.000000 0.027154 0.000000 0.000000
# 5 0.000000 0.000000 0.000000 0.000000 0.025372 0.000000
# 6 0.000000 0.000000 0.000000 0.000000 0.000000 0.057550
#
#
# Mechanical properties :
#
#
# Convention : Reuss Voigt Hill
#
# Bulk Modulus (GPa) = 63.41828 69.93776 66.67802
# Shear Modulus (GPa) = 28.36814 31.91381 30.14098
#
# Velocity S-wave (km/s) = 3.82038 4.05211 3.93795
# Velocity P-wave (km/s) = 7.21727 7.60760 7.41500
#
# Compressibility (1/GPa) = 0.01576832
#
# Stress axis : x y z
#
# Youngs Moduli (GPa) = 101.74982 88.73707 57.97803
#
# Poissons Ratio (x) = 0.24976 0.32258
# Poissons Ratio (y) = 0.28639 0.16871
# Poissons Ratio (z) = 0.56612 0.25822
#
# Static dielectric constant tensor:
#      x y z
#    x 1.688550 0.000000 0.000000 
#    y 0.000000 1.723090 0.000000 
#    z 0.000000 0.000000 1.649110 
# 
# From -- ./inp_files/25708.got.cif
#   From: 2010.05.17/outbox.cif.g08.bks.cpg/sg71_13_cif.got.tgz:25708.got - 2010.06.03 16:22:01.
