data_PCOD9522812
_publ_section_title
;
Structure prediction by ZEFSAII (Michael W. Deem and Ramdas Pophale) SiO2 
 PCOD9522812
Probable space group: I M M M
;
_chemical_formula_sum "Si O2"
_cell_formula_units_Z 104
_cell_length_a 7.855717
_cell_length_b 32.059870
_cell_length_c 20.156861
_cell_angle_alpha 90.000000
_cell_angle_beta 90.000000
_cell_angle_gamma 90.000000
_cell_volume 5076.571271
_symmetry_space_group_name_H-M "I M M M"
_symmetry_group_IT_number 71
_symmetry_cell_setting 'orthorhombic'
loop_
_space_group_symop_operation_xyz
x,y,z
-x,-y,z
x,-y,-z
-x,y,-z
-x,-y,-z
x,y,-z
-x,y,z
x,-y,z
1/2+x,1/2+y,1/2+z
1/2-x,1/2-y,1/2+z
1/2+x,1/2-y,1/2-z
1/2-x,1/2+y,1/2-z
1/2-x,1/2-y,1/2-z
1/2+x,1/2+y,1/2-z
1/2-x,1/2+y,1/2+z
1/2+x,1/2-y,1/2+z
loop_
_atom_site_type_symbol
_atom_site_label
_atom_site_fract_x
_atom_site_fract_y
_atom_site_fract_z
Si Si1 0.701631 0.127877 0.793444
Si Si2 0.294604 0.545605 0.787686
Si Si3 0.704583 0.409374 0.574624
Si Si4 0.294828 0.419762 0.073503
Si Si5 0.705514 0.207649 0.712866
Si Si6 0.294714 0.822334 0.573332
Si Si7 0.306045 0.500000 0.580805
O O1 0.500000 0.131492 0.792631
O O2 0.747799 0.084930 0.756861
O O3 0.757235 0.124041 0.869498
O O4 0.771713 0.167624 0.753854
O O5 0.500000 0.544511 0.788890
O O6 0.234777 0.500000 0.764524
O O7 0.233652 0.554625 0.862919
O O8 0.765147 0.400051 0.500000
O O9 0.500000 0.414066 0.571192
O O10 0.772923 0.455163 0.596688
O O11 0.500000 0.423165 0.072530
O O12 0.249723 0.371088 0.083368
O O13 0.232271 0.432230 0.000000
O O14 0.500000 0.205007 0.710468
O O15 0.750000 0.250000 0.750000
O O16 0.767303 0.203415 0.636873
O O17 0.230595 0.810126 0.500000
O O18 0.500000 0.819459 0.571827
O O19 0.500000 0.500000 0.608158
O O20 0.316742 0.500000 0.500000
#
# Coordination Sequence:
#
# PCOD9522812 Si02
#       7
#    16  16  16  16  16  16   8
#     4  11  23  38  55  80 114 146 179 227 284 332
#     4  10  21  35  52  77 111 153 194 228 268 322
#     4   9  18  34  56  80 107 144 187 227 270 324
#     4   9  17  30  51  79 109 143 185 231 273 313
#     4  10  22  39  59  84 110 141 180 225 280 335
#     4   9  17  33  57  81 108 142 179 221 268 322
#     4   7  12  26  49  75 101 131 174 223 260 301
#
# _framework density 20.486267000000002
#
# number of rings (size 3 to 8) (size 9 to 14) (size 15 to 20)
#    0.000    2.538    1.538    1.385    1.077    2.769 
#    0.000    2.308    0.000    4.154    0.000    3.231 
#    0.000    0.000    0.000    0.000    0.000    0.000 
#
# Total GULP energy -290079.750063 kJ/mol
# GULP energy per Si atom -5578.456732 kJ/mol
# Density = 2.043964 g / cm^3
# Si number density = 20.486267 Si / 1000 Ang^3
#
#
#
# Elastic Constant Matrix: (Units=GPa)
#
#
# Indices 1 2 3 4 5 6 
#
# 1 21.7530 2.4369 11.9483 0.0000 0.0000 0.0000
# 2 2.4369 109.1537 82.5310 0.0000 0.0000 0.0000
# 3 11.9483 82.5310 151.5691 0.0000 0.0000 0.0000
# 4 0.0000 0.0000 0.0000 27.6133 0.0000 0.0000
# 5 0.0000 0.0000 0.0000 0.0000 15.2204 0.0000
# 6 0.0000 0.0000 0.0000 0.0000 0.0000 16.1823
#
#
#
# Elastic Compliance Matrix: (Units=1/GPa)
#
#
# Indices 1 2 3 4 5 6 
#
# 1 0.048654 0.003083 -0.005514 0.000000 0.000000 0.000000
# 2 0.003083 0.015768 -0.008829 0.000000 0.000000 0.000000
# 3 -0.005514 -0.008829 0.011840 0.000000 0.000000 0.000000
# 4 0.000000 0.000000 0.000000 0.036214 0.000000 0.000000
# 5 0.000000 0.000000 0.000000 0.000000 0.065701 0.000000
# 6 0.000000 0.000000 0.000000 0.000000 0.000000 0.061796
#
#
# Mechanical properties :
#
#
# Convention : Reuss Voigt Hill
#
# Bulk Modulus (GPa) = 18.60746 52.92313 35.76530
# Shear Modulus (GPa) = 17.83118 24.17385 21.00251
#
# Velocity S-wave (km/s) = 2.95345 3.43884 3.20535
# Velocity P-wave (km/s) = 4.55336 6.45423 5.58526
#
# Compressibility (1/GPa) = 0.05374188
#
# Stress axis : x y z
#
# Youngs Moduli (GPa) = 20.55324 63.41910 84.46091
#
# Poissons Ratio (x) = -0.19553 0.46574
# Poissons Ratio (y) = -0.06337 0.74570
# Poissons Ratio (z) = 0.11333 0.55992
#
# Static dielectric constant tensor:
#      x y z
#    x 1.808770 0.000000 0.000000 
#    y 0.000000 1.733810 0.000000 
#    z 0.000000 0.000000 1.771460 
# 
# From -- ./inp_files/50931.got.cif
#   From: 2010.05.17/outbox.cif.g08.bks.cpg/sg71_26_cif.got.tgz:50931.got - 2010.06.03 16:22:01.
