data_PCOD9522322
_publ_section_title
;
Structure prediction by ZEFSAII (Michael W. Deem and Ramdas Pophale) SiO2 
 PCOD9522322
Probable space group: I M M M
;
_chemical_formula_sum "Si O2"
_cell_formula_units_Z 88
_cell_length_a 17.430367
_cell_length_b 9.026539
_cell_length_c 29.505833
_cell_angle_alpha 90.000000
_cell_angle_beta 90.000000
_cell_angle_gamma 90.000000
_cell_volume 4642.326422
_symmetry_space_group_name_H-M "I M M M"
_symmetry_group_IT_number 71
_symmetry_cell_setting 'orthorhombic'
loop_
_space_group_symop_operation_xyz
x,y,z
-x,-y,z
x,-y,-z
-x,y,-z
-x,-y,-z
x,y,-z
-x,y,z
x,-y,z
1/2+x,1/2+y,1/2+z
1/2-x,1/2-y,1/2+z
1/2+x,1/2-y,1/2-z
1/2-x,1/2+y,1/2-z
1/2-x,1/2-y,1/2-z
1/2+x,1/2+y,1/2-z
1/2-x,1/2+y,1/2+z
1/2+x,1/2-y,1/2+z
loop_
_atom_site_type_symbol
_atom_site_label
_atom_site_fract_x
_atom_site_fract_y
_atom_site_fract_z
Si Si1 0.302545 0.323183 0.184106
Si Si2 0.908339 0.322341 0.500000
Si Si3 0.185313 0.177622 0.582670
Si Si4 0.839057 0.829854 0.947057
Si Si5 0.000000 0.329917 0.069518
Si Si6 0.000000 0.667910 0.822339
Si Si7 0.353015 0.675740 0.282748
O O1 0.287383 0.500000 0.183772
O O2 0.336537 0.286484 0.134834
O O3 0.352237 0.290803 0.228824
O O4 0.223077 0.240499 0.194061
O O5 0.897276 0.500000 0.500000
O O6 0.867435 0.253859 0.455438
O O7 0.000000 0.291937 0.500000
O O8 0.272587 0.236072 0.576974
O O9 0.183180 0.000000 0.576367
O O10 0.922538 0.755194 0.944098
O O11 0.841775 0.000000 0.930242
O O12 0.817360 0.833832 0.000000
O O13 0.000000 0.500000 0.052863
O O14 0.000000 0.334802 0.123655
O O15 0.925545 0.751631 0.805508
O O16 0.000000 0.500000 0.805272
O O17 0.353704 0.500000 0.288157
#
# Coordination Sequence:
#
# PCOD9522322 Si02
#       7
#    16   8  16  16   8   8  16
#     4   9  20  38  59  87 118 149 189 238 287 342
#     4  11  25  45  65  88 121 152 189 247 301 351
#     4  11  22  39  65  91 117 154 197 240 292 356
#     4  11  23  38  57  84 121 157 195 245 293 340
#     4  11  24  38  55  82 118 160 205 247 285 337
#     4  11  23  38  54  79 116 153 191 240 288 336
#     4  10  20  36  59  85 116 153 193 237 286 342
#
# _framework density 18.956014
#
# number of rings (size 3 to 8) (size 9 to 14) (size 15 to 20)
#    0.000    1.545    0.909    3.818    0.000   10.909 
#    1.636    0.000    0.000    0.000    0.000    0.000 
#    0.000    0.000    0.000    0.000    0.000    0.000 
#
# Total GULP energy -245792.938866 kJ/mol
# GULP energy per Si atom -5586.203156 kJ/mol
# Density = 1.891287 g / cm^3
# Si number density = 18.956014 Si / 1000 Ang^3
#
#
#
# Elastic Constant Matrix: (Units=GPa)
#
#
# Indices 1 2 3 4 5 6 
#
# 1 56.0194 27.5042 31.3777 0.0000 0.0000 0.0000
# 2 27.5042 62.9320 52.3973 0.0000 0.0000 0.0000
# 3 31.3777 52.3973 136.6339 0.0000 0.0000 0.0000
# 4 0.0000 0.0000 0.0000 28.4465 0.0000 0.0000
# 5 0.0000 0.0000 0.0000 0.0000 16.1964 0.0000
# 6 0.0000 0.0000 0.0000 0.0000 0.0000 47.4551
#
#
#
# Elastic Compliance Matrix: (Units=1/GPa)
#
#
# Indices 1 2 3 4 5 6 
#
# 1 0.023134 -0.008355 -0.002109 0.000000 0.000000 0.000000
# 2 -0.008355 0.026361 -0.008190 0.000000 0.000000 0.000000
# 3 -0.002109 -0.008190 0.010944 0.000000 0.000000 0.000000
# 4 0.000000 0.000000 0.000000 0.035154 0.000000 0.000000
# 5 0.000000 0.000000 0.000000 0.000000 0.061742 0.000000
# 6 0.000000 0.000000 0.000000 0.000000 0.000000 0.021073
#
#
# Mechanical properties :
#
#
# Convention : Reuss Voigt Hill
#
# Bulk Modulus (GPa) = 43.23196 53.12705 48.17950
# Shear Modulus (GPa) = 22.37876 28.04001 25.20938
#
# Velocity S-wave (km/s) = 3.43966 3.85023 3.65072
# Velocity P-wave (km/s) = 6.21538 6.91759 6.57586
#
# Compressibility (1/GPa) = 0.02313104
#
# Stress axis : x y z
#
# Youngs Moduli (GPa) = 43.22609 37.93483 91.37445
#
# Poissons Ratio (x) = 0.31695 0.19268
# Poissons Ratio (y) = 0.36115 0.74839
# Poissons Ratio (z) = 0.09115 0.31070
#
# Static dielectric constant tensor:
#      x y z
#    x 1.599610 0.000000 0.000000 
#    y 0.000000 1.643420 0.000000 
#    z 0.000000 0.000000 1.678610 
# 
# From -- ./inp_files/70392.got.cif
#   From: 2010.05.17/outbox.cif.g08.bks.cpg/sg71_36_cif.got.tgz:70392.got - 2010.06.03 16:22:01.
