data_PCOD9522419
_publ_section_title
;
Structure prediction by ZEFSAII (Michael W. Deem and Ramdas Pophale) SiO2 
 PCOD9522419
Probable space group: I M M M
;
_chemical_formula_sum "Si O2"
_cell_formula_units_Z 50
_cell_length_a 15.159646
_cell_length_b 12.794956
_cell_length_c 12.706863
_cell_angle_alpha 90.000000
_cell_angle_beta 90.000000
_cell_angle_gamma 90.000000
_cell_volume 2464.712141
_symmetry_space_group_name_H-M "I M M M"
_symmetry_group_IT_number 71
_symmetry_cell_setting 'orthorhombic'
loop_
_space_group_symop_operation_xyz
x,y,z
-x,-y,z
x,-y,-z
-x,y,-z
-x,-y,-z
x,y,-z
-x,y,z
x,-y,z
1/2+x,1/2+y,1/2+z
1/2-x,1/2-y,1/2+z
1/2+x,1/2-y,1/2-z
1/2-x,1/2+y,1/2-z
1/2-x,1/2-y,1/2-z
1/2+x,1/2+y,1/2-z
1/2-x,1/2+y,1/2+z
1/2+x,1/2-y,1/2+z
loop_
_atom_site_type_symbol
_atom_site_label
_atom_site_fract_x
_atom_site_fract_y
_atom_site_fract_z
Si Si1 0.500000 0.381254 0.278822
Si Si2 0.184612 0.387489 0.190599
Si Si3 0.812113 0.840188 0.882561
Si Si4 0.000000 0.343212 0.300932
Si Si5 0.500000 0.000000 0.000000
O O1 0.500000 0.500000 0.236080
O O2 0.412244 0.366553 0.349349
O O3 0.500000 0.284346 0.196345
O O4 0.195167 0.500000 0.138227
O O5 0.201157 0.285024 0.122229
O O6 0.248915 0.382988 0.291720
O O7 0.086449 0.374967 0.235927
O O8 0.792374 0.877638 0.000000
O O9 0.000000 0.407862 0.407997
#
# Coordination Sequence:
#
# PCOD9522419 Si02
#       5
#     8  16  16   8   2
#     4  10  21  40  56  79 117 151 184 229 276 333
#     4  10  20  37  55  80 113 144 181 235 286 333
#     4  10  22  35  56  83 109 146 192 229 279 336
#     4  10  22  35  58  87 111 143 187 229 284 324
#     4  12  20  36  62  92 106 146 188 238 272 348
#
# _framework density 20.286342999999999
#
# number of rings (size 3 to 8) (size 9 to 14) (size 15 to 20)
#    0.000    1.920    1.600    1.440    2.240    3.840 
#    0.000    0.400    0.000    5.760    0.000    0.000 
#    0.000    0.000    0.000    0.000    0.000    0.000 
#
# Total GULP energy -139268.814860 kJ/mol
# GULP energy per Si atom -5570.752594 kJ/mol
# Density = 2.024017 g / cm^3
# Si number density = 20.286343 Si / 1000 Ang^3
#
#
#
# Elastic Constant Matrix: (Units=GPa)
#
#
# Indices 1 2 3 4 5 6 
#
# 1 108.0825 -11.8467 10.4726 0.0000 0.0000 0.0000
# 2 -11.8467 212.5080 20.5002 0.0000 0.0000 0.0000
# 3 10.4726 20.5002 84.2274 0.0000 0.0000 0.0000
# 4 0.0000 0.0000 0.0000 0.1704 0.0000 0.0000
# 5 0.0000 0.0000 0.0000 0.0000 -1.2012 0.0000
# 6 0.0000 0.0000 0.0000 0.0000 0.0000 27.6520
#
#
#
# Elastic Compliance Matrix: (Units=1/GPa)
#
#
# Indices 1 2 3 4 5 6 
#
# 1 0.009453 0.000656 -0.001335 0.000000 0.000000 0.000000
# 2 0.000656 0.004864 -0.001265 0.000000 0.000000 0.000000
# 3 -0.001335 -0.001265 0.012347 0.000000 0.000000 0.000000
# 4 0.000000 0.000000 0.000000 5.868872 0.000000 0.000000
# 5 0.000000 0.000000 0.000000 0.000000 -0.832477 0.000000
# 6 0.000000 0.000000 0.000000 0.000000 0.000000 0.036164
#
#
# Mechanical properties :
#
#
# Convention : Reuss Voigt Hill
#
# Bulk Modulus (GPa) = 43.90787 49.23002 46.56895
# Shear Modulus (GPa) = 0.97834 31.03702 16.00768
#
# Velocity S-wave (km/s) = 0.69521 3.91570 2.81212
# Velocity P-wave (km/s) = 4.72604 6.69058 5.79221
#
# Compressibility (1/GPa) = 0.02277496
#
# Stress axis : x y z
#
# Youngs Moduli (GPa) = 105.78179 205.57773 80.99382
#
# Poissons Ratio (x) = -0.13481 0.10813
# Poissons Ratio (y) = -0.06937 0.10250
# Poissons Ratio (z) = 0.14122 0.26015
#
# Static dielectric constant tensor:
#      x y z
#    x 1.717280 0.000000 0.000000 
#    y 0.000000 1.784260 0.000000 
#    z 0.000000 0.000000 1.640020 
# 
# From -- ./inp_files/32030.got.cif
#   From: 2010.05.17/outbox.cif.g08.bks.cpg/sg71_17_cif.got.tgz:32030.got - 2010.06.03 16:22:01.
