data_PCOD9522719
_publ_section_title
;
Structure prediction by ZEFSAII (Michael W. Deem and Ramdas Pophale) SiO2 
 PCOD9522719
Probable space group: I M M M
;
_chemical_formula_sum "Si O2"
_cell_formula_units_Z 72
_cell_length_a 7.333737
_cell_length_b 14.924166
_cell_length_c 30.779311
_cell_angle_alpha 90.000000
_cell_angle_beta 90.000000
_cell_angle_gamma 90.000000
_cell_volume 3368.792769
_symmetry_space_group_name_H-M "I M M M"
_symmetry_group_IT_number 71
_symmetry_cell_setting 'orthorhombic'
loop_
_space_group_symop_operation_xyz
x,y,z
-x,-y,z
x,-y,-z
-x,y,-z
-x,-y,-z
x,y,-z
-x,y,z
x,-y,z
1/2+x,1/2+y,1/2+z
1/2-x,1/2-y,1/2+z
1/2+x,1/2-y,1/2-z
1/2-x,1/2+y,1/2-z
1/2-x,1/2-y,1/2-z
1/2+x,1/2+y,1/2-z
1/2-x,1/2+y,1/2+z
1/2+x,1/2-y,1/2+z
loop_
_atom_site_type_symbol
_atom_site_label
_atom_site_fract_x
_atom_site_fract_y
_atom_site_fract_z
Si Si1 0.500000 0.609039 0.550417
Si Si2 0.283113 0.106618 0.875716
Si Si3 0.776964 0.102359 0.639386
Si Si4 0.718345 0.391929 0.045876
Si Si5 0.782854 0.258088 0.698946
O O1 0.500000 0.500000 0.548081
O O2 0.500000 0.640332 0.500000
O O3 0.326795 0.633753 0.580797
O O4 0.500000 0.121684 0.882252
O O5 0.221209 0.160552 0.832476
O O6 0.254965 0.000000 0.869117
O O7 0.715676 0.139362 0.592506
O O8 0.714790 0.167225 0.676842
O O9 0.000000 0.101232 0.638806
O O10 0.719049 0.000000 0.644688
O O11 0.500000 0.378514 0.045346
O O12 0.746160 0.500000 0.046333
O O13 0.790953 0.357211 0.000000
O O14 0.750000 0.250000 0.750000
O O15 0.000000 0.260676 0.694576
#
# Coordination Sequence:
#
# PCOD9522719 Si02
#       5
#     8  16  16  16  16
#     4   9  18  34  60  90 115 149 193 233 289 354
#     4   9  19  36  56  81 116 151 186 234 286 345
#     4   8  14  26  43  66  97 127 162 212 261 310
#     4   7   9  15  31  55  83 115 144 175 226 286
#     4  10  21  34  50  74 102 140 185 230 281 333
#
# _framework density 21.372638999999999
#
# number of rings (size 3 to 8) (size 9 to 14) (size 15 to 20)
#    0.000    3.444    0.000    2.000    1.556    1.333 
#    0.000    3.333    0.000    4.000    0.000    0.000 
#    0.000    0.889    0.000    0.000    0.000    0.000 
#
# Total GULP energy -200569.478334 kJ/mol
# GULP energy per Si atom -5571.374398 kJ/mol
# Density = 2.132399 g / cm^3
# Si number density = 21.372639 Si / 1000 Ang^3
#
#
#
# Elastic Constant Matrix: (Units=GPa)
#
#
# Indices 1 2 3 4 5 6 
#
# 1 90.6710 24.6837 35.8662 0.0000 0.0000 0.0000
# 2 24.6837 83.7855 91.0083 0.0000 0.0000 0.0000
# 3 35.8662 91.0083 273.1161 0.0000 0.0000 0.0000
# 4 0.0000 0.0000 0.0000 46.4576 0.0000 0.0000
# 5 0.0000 0.0000 0.0000 0.0000 17.9692 0.0000
# 6 0.0000 0.0000 0.0000 0.0000 0.0000 -3.6049
#
#
#
# Elastic Compliance Matrix: (Units=1/GPa)
#
#
# Indices 1 2 3 4 5 6 
#
# 1 0.012059 -0.002872 -0.000627 0.000000 0.000000 0.000000
# 2 -0.002872 0.019390 -0.006084 0.000000 0.000000 0.000000
# 3 -0.000627 -0.006084 0.005771 0.000000 0.000000 0.000000
# 4 0.000000 0.000000 0.000000 0.021525 0.000000 0.000000
# 5 0.000000 0.000000 0.000000 0.000000 0.055651 0.000000
# 6 0.000000 0.000000 0.000000 0.000000 0.000000 -0.277401
#
#
# Mechanical properties :
#
#
# Convention : Reuss Voigt Hill
#
# Bulk Modulus (GPa) = 55.38805 83.40990 69.39898
# Shear Modulus (GPa) = -36.27848 31.89866 -2.18991
#
# Velocity S-wave (km/s) = -4.12445 3.86748 -1.01334
# Velocity P-wave (km/s) = 1.81388 7.68469 5.58322
#
# Compressibility (1/GPa) = 0.01805444
#
# Stress axis : x y z
#
# Youngs Moduli (GPa) = 82.92849 51.57369 173.27937
#
# Poissons Ratio (x) = 0.14812 0.10857
# Poissons Ratio (y) = 0.23817 1.05422
# Poissons Ratio (z) = 0.05196 0.31377
#
# Static dielectric constant tensor:
#      x y z
#    x 2.313050 0.000000 0.000000 
#    y 0.000000 1.782260 0.000000 
#    z 0.000000 0.000000 1.757490 
# 
# From -- ./inp_files/62875.got.cif
#   From: 2010.05.17/outbox.cif.g08.bks.cpg/sg71_32_cif.got.tgz:62875.got - 2010.06.03 16:22:01.
