data_PCOD9522553
_publ_section_title
;
Structure prediction by ZEFSAII (Michael W. Deem and Ramdas Pophale) SiO2 
 PCOD9522553
Probable space group: I M M M
;
_chemical_formula_sum "Si O2"
_cell_formula_units_Z 96
_cell_length_a 15.005778
_cell_length_b 13.763023
_cell_length_c 23.800723
_cell_angle_alpha 90.000000
_cell_angle_beta 90.000000
_cell_angle_gamma 90.000000
_cell_volume 4915.441170
_symmetry_space_group_name_H-M "I M M M"
_symmetry_group_IT_number 71
_symmetry_cell_setting 'orthorhombic'
loop_
_space_group_symop_operation_xyz
x,y,z
-x,-y,z
x,-y,-z
-x,y,-z
-x,-y,-z
x,y,-z
-x,y,z
x,-y,z
1/2+x,1/2+y,1/2+z
1/2-x,1/2-y,1/2+z
1/2+x,1/2-y,1/2-z
1/2-x,1/2+y,1/2-z
1/2-x,1/2-y,1/2-z
1/2+x,1/2+y,1/2-z
1/2-x,1/2+y,1/2+z
1/2+x,1/2-y,1/2+z
loop_
_atom_site_type_symbol
_atom_site_label
_atom_site_fract_x
_atom_site_fract_y
_atom_site_fract_z
Si Si1 0.602133 0.768663 0.143651
Si Si2 0.736528 0.116033 0.065169
Si Si3 0.753260 0.388186 0.143298
Si Si4 0.601278 0.611978 0.349287
Si Si5 0.404553 0.118042 0.434898
Si Si6 0.848736 0.715586 0.765813
O O1 0.500000 0.751995 0.127183
O O2 0.655914 0.834675 0.099569
O O3 0.663017 0.672162 0.148714
O O4 0.603996 0.809405 0.207636
O O5 0.826335 0.130605 0.102143
O O6 0.721902 0.000000 0.064307
O O7 0.743572 0.148384 0.000000
O O8 0.731480 0.500000 0.136700
O O9 0.812558 0.349259 0.091839
O O10 0.825124 0.373178 0.193338
O O11 0.500000 0.615222 0.370745
O O12 0.616524 0.500000 0.328304
O O13 0.610961 0.694317 0.301213
O O14 0.405425 0.143429 0.500000
O O15 0.500000 0.151098 0.409670
O O16 0.403998 0.000000 0.430647
O O17 0.750000 0.750000 0.750000
#
# Coordination Sequence:
#
# PCOD9522553 Si02
#       6
#    16  16  16  16  16  16
#     4  11  24  42  61  85 120 162 207 257 305 357
#     4  10  22  42  66  92 123 159 206 260 312 367
#     4  10  21  37  58  87 120 156 197 246 299 355
#     4  10  20  37  65  97 128 159 193 245 317 388
#     4   8  15  30  52  77 107 144 184 226 277 340
#     4  10  20  38  57  87 121 158 196 243 297 367
#
# _framework density 19.530290999999998
#
# number of rings (size 3 to 8) (size 9 to 14) (size 15 to 20)
#    0.000    2.167    3.333    1.000    0.000    6.667 
#    0.000    2.500    0.000    0.000    0.000    3.500 
#    0.000    0.000    0.000    0.000    0.000    0.000 
#
# Total GULP energy -267437.421360 kJ/mol
# GULP energy per Si atom -5571.612945 kJ/mol
# Density = 1.948584 g / cm^3
# Si number density = 19.530291 Si / 1000 Ang^3
#
#
#
# Elastic Constant Matrix: (Units=GPa)
#
#
# Indices 1 2 3 4 5 6 
#
# 1 160.0302 27.2296 49.0209 0.0000 0.0000 0.0000
# 2 27.2296 74.2146 21.4484 0.0000 0.0000 0.0000
# 3 49.0209 21.4484 100.8552 0.0000 0.0000 0.0000
# 4 0.0000 0.0000 0.0000 15.3124 0.0000 0.0000
# 5 0.0000 0.0000 0.0000 0.0000 12.9272 0.0000
# 6 0.0000 0.0000 0.0000 0.0000 0.0000 23.2645
#
#
#
# Elastic Compliance Matrix: (Units=1/GPa)
#
#
# Indices 1 2 3 4 5 6 
#
# 1 0.007567 -0.001826 -0.003290 0.000000 0.000000 0.000000
# 2 -0.001826 0.014797 -0.002260 0.000000 0.000000 0.000000
# 3 -0.003290 -0.002260 0.011995 0.000000 0.000000 0.000000
# 4 0.000000 0.000000 0.000000 0.065307 0.000000 0.000000
# 5 0.000000 0.000000 0.000000 0.000000 0.077356 0.000000
# 6 0.000000 0.000000 0.000000 0.000000 0.000000 0.042984
#
#
# Mechanical properties :
#
#
# Convention : Reuss Voigt Hill
#
# Bulk Modulus (GPa) = 50.99622 58.94421 54.97022
# Shear Modulus (GPa) = 20.72173 26.12754 23.42464
#
# Velocity S-wave (km/s) = 3.26084 3.66156 3.46699
# Velocity P-wave (km/s) = 6.35181 6.93703 6.65086
#
# Compressibility (1/GPa) = 0.01960930
#
# Stress axis : x y z
#
# Youngs Moduli (GPa) = 132.14923 67.57991 83.36991
#
# Poissons Ratio (x) = 0.12338 0.27427
# Poissons Ratio (y) = 0.24126 0.18837
# Poissons Ratio (z) = 0.43474 0.15270
#
# Static dielectric constant tensor:
#      x y z
#    x 1.678830 0.000000 0.000000 
#    y 0.000000 1.721230 0.000000 
#    z 0.000000 0.000000 1.780660 
# 
# From -- ./inp_files/52986.got.cif
#   From: 2010.05.17/outbox.cif.g08.bks.cpg/sg71_27_cif.got.tgz:52986.got - 2010.06.03 16:22:01.
