data_PCOD9522058
_publ_section_title
;
Structure prediction by ZEFSAII (Michael W. Deem and Ramdas Pophale) SiO2 
 PCOD9522058
Probable space group: I M M M
;
_chemical_formula_sum "Si O2"
_cell_formula_units_Z 104
_cell_length_a 29.111213
_cell_length_b 21.545499
_cell_length_c 8.763822
_cell_angle_alpha 90.000000
_cell_angle_beta 90.000000
_cell_angle_gamma 90.000000
_cell_volume 5496.805967
_symmetry_space_group_name_H-M "I M M M"
_symmetry_group_IT_number 71
_symmetry_cell_setting 'orthorhombic'
loop_
_space_group_symop_operation_xyz
x,y,z
-x,-y,z
x,-y,-z
-x,y,-z
-x,-y,-z
x,y,-z
-x,y,z
x,-y,z
1/2+x,1/2+y,1/2+z
1/2-x,1/2-y,1/2+z
1/2+x,1/2-y,1/2-z
1/2-x,1/2+y,1/2-z
1/2-x,1/2-y,1/2-z
1/2+x,1/2+y,1/2-z
1/2-x,1/2+y,1/2+z
1/2+x,1/2-y,1/2+z
loop_
_atom_site_type_symbol
_atom_site_label
_atom_site_fract_x
_atom_site_fract_y
_atom_site_fract_z
Si Si1 0.189545 0.571448 0.319070
Si Si2 0.921109 0.428560 0.325442
Si Si3 0.055312 0.000000 0.326820
Si Si4 0.946336 0.131146 0.817611
Si Si5 0.119508 0.233903 0.675744
Si Si6 0.710187 0.793986 0.682289
Si Si7 0.551832 0.815261 0.331095
O O1 0.200027 0.574401 0.500000
O O2 0.201956 0.500000 0.267607
O O3 0.134153 0.576466 0.304324
O O4 0.209849 0.634024 0.241930
O O5 0.932082 0.409838 0.500000
O O6 0.933403 0.500000 0.311046
O O7 0.945848 0.387778 0.199710
O O8 0.066754 0.062255 0.236714
O O9 0.073510 0.000000 0.500000
O O10 0.000000 0.000000 0.336860
O O11 0.908501 0.176691 0.747331
O O12 0.000000 0.142859 0.768698
O O13 0.945729 0.135932 0.000000
O O14 0.131121 0.222652 0.500000
O O15 0.163546 0.259542 0.764460
O O16 0.082182 0.287839 0.697280
O O17 0.713108 0.795503 0.500000
O O18 0.750000 0.750000 0.750000
O O19 0.570214 0.799609 0.500000
O O20 0.500000 0.792109 0.324283
#
# Coordination Sequence:
#
# PCOD9522058 Si02
#       7
#    16  16   8  16  16  16  16
#     4   9  18  36  63  93 123 155 194 242 295 352
#     4   9  18  33  54  79 109 149 195 240 287 340
#     4   9  17  31  53  83 117 155 201 245 287 345
#     4  10  20  35  57  86 120 158 200 245 295 351
#     4  12  24  39  59  84 116 153 196 243 295 350
#     4  12  25  42  66  94 123 155 196 243 299 359
#     4  11  23  36  51  77 114 154 196 242 291 342
#
# _framework density 18.920078
#
# number of rings (size 3 to 8) (size 9 to 14) (size 15 to 20)
#    0.000    1.615    1.538    5.308    0.000    5.846 
#    0.000    3.077    1.692    0.000    0.000    0.000 
#    0.000    0.000    0.000    0.000    0.000    0.000 
#
# Total GULP energy -289991.229912 kJ/mol
# GULP energy per Si atom -5576.754421 kJ/mol
# Density = 1.887702 g / cm^3
# Si number density = 18.920078 Si / 1000 Ang^3
#
#
#
# Elastic Constant Matrix: (Units=GPa)
#
#
# Indices 1 2 3 4 5 6 
#
# 1 66.1728 50.0574 33.8018 0.0000 0.0000 0.0000
# 2 50.0574 157.7724 60.2324 0.0000 0.0000 0.0000
# 3 33.8018 60.2324 97.1728 0.0000 0.0000 0.0000
# 4 0.0000 0.0000 0.0000 33.0282 0.0000 0.0000
# 5 0.0000 0.0000 0.0000 0.0000 22.0498 0.0000
# 6 0.0000 0.0000 0.0000 0.0000 0.0000 29.5417
#
#
#
# Elastic Compliance Matrix: (Units=1/GPa)
#
#
# Indices 1 2 3 4 5 6 
#
# 1 0.021106 -0.005100 -0.004180 0.000000 0.000000 0.000000
# 2 -0.005100 0.009536 -0.004136 0.000000 0.000000 0.000000
# 3 -0.004180 -0.004136 0.014309 0.000000 0.000000 0.000000
# 4 0.000000 0.000000 0.000000 0.030277 0.000000 0.000000
# 5 0.000000 0.000000 0.000000 0.000000 0.045352 0.000000
# 6 0.000000 0.000000 0.000000 0.000000 0.000000 0.033850
#
#
# Mechanical properties :
#
#
# Convention : Reuss Voigt Hill
#
# Bulk Modulus (GPa) = 55.19943 67.70014 61.44978
# Shear Modulus (GPa) = 26.69480 28.72570 27.71025
#
# Velocity S-wave (km/s) = 3.76030 3.90072 3.83115
# Velocity P-wave (km/s) = 6.93481 7.49315 7.21938
#
# Compressibility (1/GPa) = 0.01811613
#
# Stress axis : x y z
#
# Youngs Moduli (GPa) = 47.38097 104.86958 69.88620
#
# Poissons Ratio (x) = 0.53488 0.29213
# Poissons Ratio (y) = 0.24166 0.28908
# Poissons Ratio (z) = 0.19806 0.43379
#
# Static dielectric constant tensor:
#      x y z
#    x 1.647630 0.000000 0.000000 
#    y 0.000000 1.733610 0.000000 
#    z 0.000000 0.000000 1.657780 
# 
# From -- ./inp_files/14990.got.cif
#   From: 2010.05.17/outbox.cif.g08.bks.cpg/sg71_8_cif.got.tgz:14990.got - 2010.06.03 16:22:01.
