data_PCOD9522494
_publ_section_title
;
Structure prediction by ZEFSAII (Michael W. Deem and Ramdas Pophale) SiO2 
 PCOD9522494
Probable space group: I M M M
;
_chemical_formula_sum "Si O2"
_cell_formula_units_Z 112
_cell_length_a 14.076317
_cell_length_b 18.039915
_cell_length_c 22.997434
_cell_angle_alpha 90.000000
_cell_angle_beta 90.000000
_cell_angle_gamma 90.000000
_cell_volume 5839.866332
_symmetry_space_group_name_H-M "I M M M"
_symmetry_group_IT_number 71
_symmetry_cell_setting 'orthorhombic'
loop_
_space_group_symop_operation_xyz
x,y,z
-x,-y,z
x,-y,-z
-x,y,-z
-x,-y,-z
x,y,-z
-x,y,z
x,-y,z
1/2+x,1/2+y,1/2+z
1/2-x,1/2-y,1/2+z
1/2+x,1/2-y,1/2-z
1/2-x,1/2+y,1/2-z
1/2-x,1/2-y,1/2-z
1/2+x,1/2+y,1/2-z
1/2-x,1/2+y,1/2+z
1/2+x,1/2-y,1/2+z
loop_
_atom_site_type_symbol
_atom_site_label
_atom_site_fract_x
_atom_site_fract_y
_atom_site_fract_z
Si Si1 0.611188 0.804467 0.733868
Si Si2 0.388530 0.369503 0.722871
Si Si3 0.236274 0.086341 0.325326
Si Si4 0.287976 0.583733 0.390066
Si Si5 0.390392 0.182445 0.126774
Si Si6 0.603357 0.278049 0.568438
Si Si7 0.713041 0.316583 0.930309
O O1 0.500000 0.821359 0.722822
O O2 0.629445 0.718889 0.716215
O O3 0.680988 0.861868 0.702388
O O4 0.624808 0.807308 0.803884
O O5 0.500000 0.383240 0.713534
O O6 0.355454 0.394798 0.786177
O O7 0.323687 0.411724 0.676481
O O8 0.213864 0.110324 0.391251
O O9 0.260479 0.000000 0.320864
O O10 0.289366 0.500000 0.411027
O O11 0.184358 0.620732 0.394154
O O12 0.361312 0.638735 0.421271
O O13 0.500000 0.162530 0.117329
O O14 0.364835 0.258457 0.093404
O O15 0.595352 0.266779 0.500000
O O16 0.500000 0.265207 0.595638
O O17 0.687231 0.223566 0.586225
O O18 0.706919 0.325947 0.000000
#
# Coordination Sequence:
#
# PCOD9522494 Si02
#       7
#    16  16  16  16  16  16  16
#     4  10  20  37  62  86 112 152 199 246 295 350
#     4  11  22  37  57  81 113 154 196 236 284 346
#     4  12  24  37  57  88 125 157 189 238 299 359
#     4  11  22  34  52  83 121 153 184 229 291 356
#     4  10  20  37  61  85 112 150 199 251 298 344
#     4   9  19  37  60  83 108 146 196 242 283 335
#     4  10  22  40  62  85 113 153 205 253 289 342
#
# _framework density 19.178521
#
# number of rings (size 3 to 8) (size 9 to 14) (size 15 to 20)
#    0.000    1.571    2.857    3.000    0.000    5.143 
#    0.000    2.143    0.000    0.000    0.000    9.000 
#    0.000    0.000    0.000    0.000    0.000    0.000 
#
# Total GULP energy -312765.052834 kJ/mol
# GULP energy per Si atom -5585.090229 kJ/mol
# Density = 1.913487 g / cm^3
# Si number density = 19.178521 Si / 1000 Ang^3
#
#
#
# Elastic Constant Matrix: (Units=GPa)
#
#
# Indices 1 2 3 4 5 6 
#
# 1 88.8605 13.4897 10.2780 0.0000 0.0000 0.0000
# 2 13.4897 83.9419 16.2432 0.0000 0.0000 0.0000
# 3 10.2780 16.2432 68.8459 0.0000 0.0000 0.0000
# 4 0.0000 0.0000 0.0000 4.9414 0.0000 0.0000
# 5 0.0000 0.0000 0.0000 0.0000 17.3916 0.0000
# 6 0.0000 0.0000 0.0000 0.0000 0.0000 11.8551
#
#
#
# Elastic Compliance Matrix: (Units=1/GPa)
#
#
# Indices 1 2 3 4 5 6 
#
# 1 0.011655 -0.001610 -0.001360 0.000000 0.000000 0.000000
# 2 -0.001610 0.012705 -0.002757 0.000000 0.000000 0.000000
# 3 -0.001360 -0.002757 0.015379 0.000000 0.000000 0.000000
# 4 0.000000 0.000000 0.000000 0.202372 0.000000 0.000000
# 5 0.000000 0.000000 0.000000 0.000000 0.057499 0.000000
# 6 0.000000 0.000000 0.000000 0.000000 0.000000 0.084352
#
#
# Mechanical properties :
#
#
# Convention : Reuss Voigt Hill
#
# Bulk Modulus (GPa) = 35.35479 35.74112 35.54796
# Shear Modulus (GPa) = 12.35041 20.28012 16.31526
#
# Velocity S-wave (km/s) = 2.54041 3.25536 2.91985
# Velocity P-wave (km/s) = 5.20380 5.72768 5.47201
#
# Compressibility (1/GPa) = 0.02828471
#
# Stress axis : x y z
#
# Youngs Moduli (GPa) = 85.79784 78.70761 65.02459
#
# Poissons Ratio (x) = 0.12671 0.08845
# Poissons Ratio (y) = 0.13812 0.17929
# Poissons Ratio (z) = 0.11670 0.21702
#
# Static dielectric constant tensor:
#      x y z
#    x 1.718070 0.000000 0.000000 
#    y 0.000000 1.638300 0.000000 
#    z 0.000000 0.000000 1.717430 
# 
# From -- ./inp_files/59912.got.cif
#   From: 2010.05.17/outbox.cif.g08.bks.cpg/sg71_30_cif.got.tgz:59912.got - 2010.06.03 16:22:01.
