data_PCOD9522774
_publ_section_title
;
Structure prediction by ZEFSAII (Michael W. Deem and Ramdas Pophale) SiO2 
 PCOD9522774
Probable space group: I M M M
;
_chemical_formula_sum "Si O2"
_cell_formula_units_Z 74
_cell_length_a 14.338560
_cell_length_b 34.034388
_cell_length_c 9.042533
_cell_angle_alpha 90.000000
_cell_angle_beta 90.000000
_cell_angle_gamma 90.000000
_cell_volume 4412.793309
_symmetry_space_group_name_H-M "I M M M"
_symmetry_group_IT_number 71
_symmetry_cell_setting 'orthorhombic'
loop_
_space_group_symop_operation_xyz
x,y,z
-x,-y,z
x,-y,-z
-x,y,-z
-x,-y,-z
x,y,-z
-x,y,z
x,-y,z
1/2+x,1/2+y,1/2+z
1/2-x,1/2-y,1/2+z
1/2+x,1/2-y,1/2-z
1/2-x,1/2+y,1/2-z
1/2-x,1/2-y,1/2-z
1/2+x,1/2+y,1/2-z
1/2-x,1/2+y,1/2+z
1/2+x,1/2-y,1/2+z
loop_
_atom_site_type_symbol
_atom_site_label
_atom_site_fract_x
_atom_site_fract_y
_atom_site_fract_z
Si Si1 0.109637 0.651867 0.174894
Si Si2 0.890691 0.854659 0.677982
Si Si3 0.242356 0.419863 0.824554
Si Si4 0.500000 0.000000 0.000000
Si Si5 0.744635 0.707387 0.323645
Si Si6 0.195728 0.500000 0.338342
O O1 0.155814 0.609556 0.204578
O O2 0.163974 0.683287 0.272956
O O3 0.000000 0.651702 0.201582
O O4 0.126352 0.660425 0.000000
O O5 0.879690 0.849553 0.500000
O O6 0.833167 0.894079 0.718454
O O7 0.841023 0.818269 0.758856
O O8 0.000000 0.857385 0.711323
O O9 0.226413 0.460688 0.744448
O O10 0.247591 0.426694 0.000000
O O11 0.584527 0.000000 0.873222
O O12 0.738471 0.710270 0.500000
O O13 0.750000 0.750000 0.250000
O O14 0.241563 0.500000 0.500000
#
# Coordination Sequence:
#
# PCOD9522774 Si02
#       6
#    16  16  16   2  16   8
#     4   9  19  35  55  78 105 136 173 217 264 316
#     4   9  19  38  61  82 105 138 179 227 276 327
#     4   9  18  34  56  80 105 136 176 219 265 316
#     4   8  24  36  46  76 110 152 190 208 268 316
#     4  11  22  36  54  78 108 142 177 219 265 318
#     4  10  21  35  50  74 110 145 180 218 257 312
#
# _framework density 16.769423
#
# number of rings (size 3 to 8) (size 9 to 14) (size 15 to 20)
#    0.324    2.162    0.000    3.568    1.514    5.189 
#    0.000    1.081    0.000    3.243    0.000    0.000 
#    0.000    0.000    0.000    0.000    0.000    0.000 
#
# Total GULP energy -206002.327885 kJ/mol
# GULP energy per Si atom -5567.630483 kJ/mol
# Density = 1.673126 g / cm^3
# Si number density = 16.769423 Si / 1000 Ang^3
#
#
#
# Elastic Constant Matrix: (Units=GPa)
#
#
# Indices 1 2 3 4 5 6 
#
# 1 145.1998 77.9588 62.7885 0.0001 0.0019 -0.0001
# 2 77.9588 172.8010 92.0247 0.0004 0.0007 -0.0001
# 3 62.7885 92.0247 87.1930 0.0023 0.0036 -0.0005
# 4 0.0001 0.0004 0.0023 29.9194 -0.0006 -0.0006
# 5 0.0019 0.0007 0.0036 -0.0006 26.0606 0.0004
# 6 -0.0001 -0.0001 -0.0005 -0.0006 0.0004 4.4762
#
#
#
# Elastic Compliance Matrix: (Units=1/GPa)
#
#
# Indices 1 2 3 4 5 6 
#
# 1 0.010185 -0.001574 -0.005674 0.000000 0.000000 0.000000
# 2 -0.001574 0.013457 -0.013070 0.000001 0.000002 -0.000001
# 3 -0.005674 -0.013070 0.029349 -0.000002 -0.000003 0.000003
# 4 0.000000 0.000001 -0.000002 0.033423 0.000001 0.000004
# 5 0.000000 0.000002 -0.000003 0.000001 0.038372 -0.000003
# 6 0.000000 -0.000001 0.000003 0.000004 -0.000003 0.223404
#
#
# Mechanical properties :
#
#
# Convention : Reuss Voigt Hill
#
# Bulk Modulus (GPa) = 80.92671 96.74866 88.83768
# Shear Modulus (GPa) = 12.72447 23.58602 18.15524
#
# Velocity S-wave (km/s) = 2.75760 3.75439 3.29392
# Velocity P-wave (km/s) = 7.64869 8.75286 8.21934
#
# Compressibility (1/GPa) = 0.01235686
#
# Stress axis : x y z
#
# Youngs Moduli (GPa) = 98.17911 74.30978 34.07303
#
# Poissons Ratio (x) = 0.11693 0.19333
# Poissons Ratio (y) = 0.15449 0.44533
# Poissons Ratio (z) = 0.55706 0.97121
#
# Static dielectric constant tensor:
#      x y z
#    x 1.558120 0.000000 0.000000 
#    y 0.000000 1.560920 0.000000 
#    z 0.000000 0.000000 1.567640 
# 
# From -- ./inp_files/6570.got.cif
#   From: 2010.05.17/outbox.cif.g08.bks.cpg/sg71_4_cif.got.tgz:6570.got - 2010.06.03 16:22:01.
