data_PCOD9522479
_publ_section_title
;
Structure prediction by ZEFSAII (Michael W. Deem and Ramdas Pophale) SiO2 
 PCOD9522479
Probable space group: I M M M
;
_chemical_formula_sum "Si O2"
_cell_formula_units_Z 104
_cell_length_a 16.198116
_cell_length_b 20.319658
_cell_length_c 15.654654
_cell_angle_alpha 90.000000
_cell_angle_beta 90.000000
_cell_angle_gamma 90.000000
_cell_volume 5152.575594
_symmetry_space_group_name_H-M "I M M M"
_symmetry_group_IT_number 71
_symmetry_cell_setting 'orthorhombic'
loop_
_space_group_symop_operation_xyz
x,y,z
-x,-y,z
x,-y,-z
-x,y,-z
-x,-y,-z
x,y,-z
-x,y,z
x,-y,z
1/2+x,1/2+y,1/2+z
1/2-x,1/2-y,1/2+z
1/2+x,1/2-y,1/2-z
1/2-x,1/2+y,1/2-z
1/2-x,1/2-y,1/2-z
1/2+x,1/2+y,1/2-z
1/2-x,1/2+y,1/2+z
1/2+x,1/2-y,1/2+z
loop_
_atom_site_type_symbol
_atom_site_label
_atom_site_fract_x
_atom_site_fract_y
_atom_site_fract_z
Si Si1 0.406427 0.880221 0.369420
Si Si2 0.599250 0.268560 0.592532
Si Si3 0.847964 0.630664 0.685740
Si Si4 0.163318 0.000000 0.244688
Si Si5 0.599467 0.733209 0.900006
Si Si6 0.285978 0.000000 0.406692
Si Si7 0.799595 0.500000 0.400293
Si Si8 0.339910 0.644143 0.749268
O O1 0.500000 0.891149 0.399919
O O2 0.377338 0.807844 0.397707
O O3 0.406629 0.878945 0.266619
O O4 0.344869 0.936676 0.398790
O O5 0.629242 0.293500 0.500000
O O6 0.500000 0.269774 0.592673
O O7 0.628087 0.310456 0.672522
O O8 0.870240 0.695753 0.633496
O O9 0.847031 0.566104 0.627127
O O10 0.757369 0.637116 0.729271
O O11 0.120628 0.071114 0.247115
O O12 0.223674 0.000000 0.327341
O O13 0.217558 0.000000 0.158108
O O14 0.500000 0.729618 0.889779
O O15 0.641288 0.679518 0.838416
O O16 0.619183 0.724617 0.000000
O O17 0.245053 0.000000 0.500000
O O18 0.781355 0.500000 0.500000
#
# Coordination Sequence:
#
# PCOD9522479 Si02
#       8
#    16  16  16   8  16   8   8  16
#     4  11  21  38  62  88 126 166 197 239 291 355
#     4  10  22  39  62  94 125 156 196 245 304 363
#     4  11  21  39  61  92 123 160 207 244 295 351
#     4  10  24  43  60  90 121 147 205 251 307 362
#     4  11  24  41  62  90 123 161 205 250 299 356
#     4  12  23  39  59  87 128 166 198 241 288 350
#     4  10  20  37  60  85 124 161 193 238 292 350
#     4  11  22  42  65  87 118 158 200 253 308 358
#
# _framework density 20.184080000000002
#
# number of rings (size 3 to 8) (size 9 to 14) (size 15 to 20)
#    0.000    1.231    4.615    2.538    0.000    4.923 
#    0.000    2.692    0.000    4.615    0.000    0.000 
#    0.000    0.000    0.000    0.000    0.000    0.000 
#
# Total GULP energy -290617.407751 kJ/mol
# GULP energy per Si atom -5588.796303 kJ/mol
# Density = 2.013814 g / cm^3
# Si number density = 20.184080 Si / 1000 Ang^3
#
#
#
# Elastic Constant Matrix: (Units=GPa)
#
#
# Indices 1 2 3 4 5 6 
#
# 1 38.0052 21.8679 24.3590 0.0000 0.0000 0.0000
# 2 21.8679 138.1548 57.1646 0.0000 0.0000 0.0000
# 3 24.3590 57.1646 181.0745 0.0000 0.0000 0.0000
# 4 0.0000 0.0000 0.0000 0.7990 0.0000 0.0000
# 5 0.0000 0.0000 0.0000 0.0000 11.4839 0.0000
# 6 0.0000 0.0000 0.0000 0.0000 0.0000 75.8680
#
#
#
# Elastic Compliance Matrix: (Units=1/GPa)
#
#
# Indices 1 2 3 4 5 6 
#
# 1 0.030253 -0.003571 -0.002942 0.000000 0.000000 0.000000
# 2 -0.003571 0.008747 -0.002281 0.000000 0.000000 0.000000
# 3 -0.002942 -0.002281 0.006639 0.000000 0.000000 0.000000
# 4 0.000000 0.000000 0.000000 1.251521 0.000000 0.000000
# 5 0.000000 0.000000 0.000000 0.000000 0.087079 0.000000
# 6 0.000000 0.000000 0.000000 0.000000 0.000000 0.013181
#
#
# Mechanical properties :
#
#
# Convention : Reuss Voigt Hill
#
# Bulk Modulus (GPa) = 35.65115 62.66863 49.15989
# Shear Modulus (GPa) = 3.51035 34.55304 19.03170
#
# Velocity S-wave (km/s) = 1.32021 4.14199 3.07401
# Velocity P-wave (km/s) = 4.47496 7.34784 6.08342
#
# Compressibility (1/GPa) = 0.02804959
#
# Stress axis : x y z
#
# Youngs Moduli (GPa) = 33.05470 114.31999 150.63532
#
# Poissons Ratio (x) = 0.40825 0.44322
# Poissons Ratio (y) = 0.11804 0.34362
# Poissons Ratio (z) = 0.09726 0.26078
#
# Static dielectric constant tensor:
#      x y z
#    x 1.726200 0.000000 0.000000 
#    y 0.000000 1.719680 0.000000 
#    z 0.000000 0.000000 1.710170 
# 
# From -- ./inp_files/36733.got.cif
#   From: 2010.05.17/outbox.cif.g08.bks.cpg/sg71_19_cif.got.tgz:36733.got - 2010.06.03 16:22:01.
