data_PCOD9522466
_publ_section_title
;
Structure prediction by ZEFSAII (Michael W. Deem and Ramdas Pophale) SiO2 
 PCOD9522466
Probable space group: I M M M
;
_chemical_formula_sum "Si O2"
_cell_formula_units_Z 88
_cell_length_a 21.091736
_cell_length_b 7.613030
_cell_length_c 25.054758
_cell_angle_alpha 90.000000
_cell_angle_beta 90.000000
_cell_angle_gamma 90.000000
_cell_volume 4023.093076
_symmetry_space_group_name_H-M "I M M M"
_symmetry_group_IT_number 71
_symmetry_cell_setting 'orthorhombic'
loop_
_space_group_symop_operation_xyz
x,y,z
-x,-y,z
x,-y,-z
-x,y,-z
-x,-y,-z
x,y,-z
-x,y,z
x,-y,z
1/2+x,1/2+y,1/2+z
1/2-x,1/2-y,1/2+z
1/2+x,1/2-y,1/2-z
1/2-x,1/2+y,1/2-z
1/2-x,1/2-y,1/2-z
1/2+x,1/2+y,1/2-z
1/2-x,1/2+y,1/2+z
1/2+x,1/2-y,1/2+z
loop_
_atom_site_type_symbol
_atom_site_label
_atom_site_fract_x
_atom_site_fract_y
_atom_site_fract_z
Si Si1 0.068590 0.787735 0.297774
Si Si2 0.664223 0.287568 0.397661
Si Si3 0.295576 0.799841 0.061503
Si Si4 0.432048 0.203404 0.079565
Si Si5 0.926477 0.707902 0.000000
Si Si6 0.818880 0.211170 0.223937
O O1 0.068698 0.709303 0.356578
O O2 0.127721 0.723639 0.264455
O O3 0.000000 0.749423 0.272480
O O4 0.072974 0.000000 0.303590
O O5 0.667051 0.500000 0.397582
O O6 0.734334 0.217062 0.412251
O O7 0.613570 0.249622 0.445313
O O8 0.659725 0.229818 0.335660
O O9 0.364844 0.715267 0.064185
O O10 0.302588 0.000000 0.083720
O O11 0.278563 0.814681 0.000000
O O12 0.500000 0.280582 0.062687
O O13 0.431663 0.000000 0.061244
O O14 0.932059 0.500000 0.000000
O O15 0.000000 0.779091 0.000000
O O16 0.750000 0.250000 0.250000
O O17 0.822125 0.000000 0.221873
#
# Coordination Sequence:
#
# PCOD9522466 Si02
#       6
#    16  16  16  16   8  16
#     4   9  18  33  50  70 102 140 174 211 259 313
#     4  10  20  37  60  83 109 147 193 235 280 342
#     4   9  16  28  49  74 102 133 169 216 263 306
#     4   9  17  29  48  75 104 137 177 216 255 303
#     4  11  25  43  61  85 116 147 186 246 317 371
#     4  10  21  35  56  86 116 147 186 232 282 338
#
# _framework density 21.873716999999999
#
# number of rings (size 3 to 8) (size 9 to 14) (size 15 to 20)
#    0.000    2.455    0.909    1.364    0.000    4.727 
#    0.000    4.545    0.000    2.182    0.000    2.545 
#    0.000    0.000    0.000    0.000    0.000    0.000 
#
# Total GULP energy -244991.979781 kJ/mol
# GULP energy per Si atom -5567.999540 kJ/mol
# Density = 2.182393 g / cm^3
# Si number density = 21.873717 Si / 1000 Ang^3
#
#
#
# Elastic Constant Matrix: (Units=GPa)
#
#
# Indices 1 2 3 4 5 6 
#
# 1 157.6909 8.0371 73.9341 0.0000 0.0000 0.0000
# 2 8.0371 53.9630 7.3584 0.0000 0.0000 0.0000
# 3 73.9341 7.3584 142.7719 0.0000 0.0000 0.0000
# 4 0.0000 0.0000 0.0000 -3.8033 0.0000 0.0000
# 5 0.0000 0.0000 0.0000 0.0000 38.4361 0.0000
# 6 0.0000 0.0000 0.0000 0.0000 0.0000 11.4688
#
#
#
# Elastic Compliance Matrix: (Units=1/GPa)
#
#
# Indices 1 2 3 4 5 6 
#
# 1 0.008398 -0.000662 -0.004315 0.000000 0.000000 0.000000
# 2 -0.000662 0.018715 -0.000621 0.000000 0.000000 0.000000
# 3 -0.004315 -0.000621 0.009271 0.000000 0.000000 0.000000
# 4 0.000000 0.000000 0.000000 -0.262928 0.000000 0.000000
# 5 0.000000 0.000000 0.000000 0.000000 0.026017 0.000000
# 6 0.000000 0.000000 0.000000 0.000000 0.000000 0.087193
#
#
# Mechanical properties :
#
#
# Convention : Reuss Voigt Hill
#
# Bulk Modulus (GPa) = 39.70471 59.23166 49.46818
# Shear Modulus (GPa) = -53.33815 26.89341 -13.22237
#
# Velocity S-wave (km/s) = -4.94343 3.51021 -2.46130
# Velocity P-wave (km/s) = 3.79370 6.60049 3.81931
#
# Compressibility (1/GPa) = 0.02518593
#
# Stress axis : x y z
#
# Youngs Moduli (GPa) = 119.07096 53.43420 107.86692
#
# Poissons Ratio (x) = 0.03540 0.46544
# Poissons Ratio (y) = 0.07888 0.06704
# Poissons Ratio (z) = 0.51378 0.03321
#
# Static dielectric constant tensor:
#      x y z
#    x 1.862910 0.000000 0.000000 
#    y 0.000000 1.833360 0.000000 
#    z 0.000000 0.000000 1.808440 
# 
# From -- ./inp_files/12517.got.cif
#   From: 2010.05.17/outbox.cif.g08.bks.cpg/sg71_7_cif.got.tgz:12517.got - 2010.06.03 16:22:01.
