data_PCOD9522826
_publ_section_title
;
Structure prediction by ZEFSAII (Michael W. Deem and Ramdas Pophale) SiO2 
 PCOD9522826
Probable space group: I M M M
;
_chemical_formula_sum "Si O2"
_cell_formula_units_Z 88
_cell_length_a 7.906471
_cell_length_b 28.648014
_cell_length_c 18.502896
_cell_angle_alpha 90.000000
_cell_angle_beta 90.000000
_cell_angle_gamma 90.000000
_cell_volume 4190.992758
_symmetry_space_group_name_H-M "I M M M"
_symmetry_group_IT_number 71
_symmetry_cell_setting 'orthorhombic'
loop_
_space_group_symop_operation_xyz
x,y,z
-x,-y,z
x,-y,-z
-x,y,-z
-x,-y,-z
x,y,-z
-x,y,z
x,-y,z
1/2+x,1/2+y,1/2+z
1/2-x,1/2-y,1/2+z
1/2+x,1/2-y,1/2-z
1/2-x,1/2+y,1/2-z
1/2-x,1/2-y,1/2-z
1/2+x,1/2+y,1/2-z
1/2-x,1/2+y,1/2+z
1/2+x,1/2-y,1/2+z
loop_
_atom_site_type_symbol
_atom_site_label
_atom_site_fract_x
_atom_site_fract_y
_atom_site_fract_z
Si Si1 0.792647 0.784541 0.083743
Si Si2 0.201947 0.552060 0.585600
Si Si3 0.196844 0.679718 0.913519
Si Si4 0.300751 0.000000 0.417818
Si Si5 0.194313 0.866915 0.815983
Si Si6 0.807513 0.908347 0.330233
O O1 0.743006 0.731899 0.105132
O O2 0.731373 0.822277 0.142005
O O3 0.000000 0.785568 0.082591
O O4 0.740189 0.793972 0.000000
O O5 0.231161 0.554431 0.500000
O O6 0.247501 0.500000 0.610836
O O7 0.301079 0.591859 0.626025
O O8 0.000000 0.558242 0.597095
O O9 0.297361 0.636749 0.881341
O O10 0.000000 0.675002 0.891004
O O11 0.200614 0.677398 0.000000
O O12 0.259766 0.046589 0.372331
O O13 0.500000 0.000000 0.426555
O O14 0.225424 0.000000 0.500000
O O15 0.275190 0.889396 0.744173
O O16 0.000000 0.854046 0.797471
O O17 0.000000 0.920733 0.311964
#
# Coordination Sequence:
#
# PCOD9522826 Si02
#       6
#    16  16  16   8  16  16
#     4   8  15  31  56  82 109 146 190 232 267 307
#     4   9  19  35  53  75 105 142 185 233 281 326
#     4   9  18  35  59  83 107 142 191 234 269 325
#     4  11  25  45  67  85 102 137 192 237 273 336
#     4  10  21  35  53  80 114 149 186 225 269 330
#     4  11  24  38  55  85 120 147 175 226 290 337
#
# _framework density 20.997411
#
# number of rings (size 3 to 8) (size 9 to 14) (size 15 to 20)
#    0.000    2.455    0.000    3.545    1.273    6.909 
#    0.000    1.818    0.000    1.091    0.000    0.000 
#    0.000    0.000    0.000    0.000    0.000    0.000 
#
# Total GULP energy -245367.054348 kJ/mol
# GULP energy per Si atom -5576.523962 kJ/mol
# Density = 2.094962 g / cm^3
# Si number density = 20.997411 Si / 1000 Ang^3
#
#
#
# Elastic Constant Matrix: (Units=GPa)
#
#
# Indices 1 2 3 4 5 6 
#
# 1 19.1580 13.2534 14.9478 0.0000 0.0000 0.0000
# 2 13.2534 163.3604 85.8192 0.0000 0.0000 0.0000
# 3 14.9478 85.8192 81.6805 -0.0002 -0.0005 0.0000
# 4 0.0000 0.0000 -0.0002 33.9050 -0.0001 0.0000
# 5 0.0000 0.0000 -0.0005 -0.0001 -16.3507 0.0001
# 6 0.0000 0.0000 0.0000 0.0000 0.0001 -0.3111
#
#
#
# Elastic Compliance Matrix: (Units=1/GPa)
#
#
# Indices 1 2 3 4 5 6 
#
# 1 0.061198 0.002050 -0.013353 0.000000 0.000000 -0.000001
# 2 0.002050 0.013731 -0.014802 0.000000 0.000000 -0.000002
# 3 -0.013353 -0.014802 0.030239 0.000000 -0.000001 0.000004
# 4 0.000000 0.000000 0.000000 0.029494 0.000000 0.000001
# 5 0.000000 0.000000 -0.000001 0.000000 -0.061160 -0.000012
# 6 -0.000001 -0.000002 0.000004 0.000001 -0.000012 -3.213940
#
#
# Mechanical properties :
#
#
# Convention : Reuss Voigt Hill
#
# Bulk Modulus (GPa) = 18.88322 54.69329 36.78825
# Shear Modulus (GPa) = -1.62836 13.46053 5.91608
#
# Velocity S-wave (km/s) = -0.88158 2.53466 1.68037
# Velocity P-wave (km/s) = 2.82425 5.88814 4.61771
#
# Compressibility (1/GPa) = 0.05295708
#
# Stress axis : x y z
#
# Youngs Moduli (GPa) = 16.34040 72.82672 33.07027
#
# Poissons Ratio (x) = -0.14929 0.44159
# Poissons Ratio (y) = -0.03350 0.48951
# Poissons Ratio (z) = 0.21820 1.07799
#
# Static dielectric constant tensor:
#      x y z
#    x 1.784760 0.000000 0.000000 
#    y 0.000000 1.740090 0.000000 
#    z 0.000000 0.000000 1.783260 
# 
# From -- ./inp_files/42490.got.cif
#   From: 2010.05.17/outbox.cif.g08.bks.cpg/sg71_22_cif.got.tgz:42490.got - 2010.06.03 16:22:01.
