data_PCOD9522730
_publ_section_title
;
Structure prediction by ZEFSAII (Michael W. Deem and Ramdas Pophale) SiO2 
 PCOD9522730
Probable space group: I M M M
;
_chemical_formula_sum "Si O2"
_cell_formula_units_Z 112
_cell_length_a 17.485763
_cell_length_b 14.671047
_cell_length_c 21.184372
_cell_angle_alpha 90.000000
_cell_angle_beta 90.000000
_cell_angle_gamma 90.000000
_cell_volume 5434.521237
_symmetry_space_group_name_H-M "I M M M"
_symmetry_group_IT_number 71
_symmetry_cell_setting 'orthorhombic'
loop_
_space_group_symop_operation_xyz
x,y,z
-x,-y,z
x,-y,-z
-x,y,-z
-x,-y,-z
x,y,-z
-x,y,z
x,-y,z
1/2+x,1/2+y,1/2+z
1/2-x,1/2-y,1/2+z
1/2+x,1/2-y,1/2-z
1/2-x,1/2+y,1/2-z
1/2-x,1/2-y,1/2-z
1/2+x,1/2+y,1/2-z
1/2-x,1/2+y,1/2+z
1/2+x,1/2-y,1/2+z
loop_
_atom_site_type_symbol
_atom_site_label
_atom_site_fract_x
_atom_site_fract_y
_atom_site_fract_z
Si Si1 0.089933 0.107391 0.307165
Si Si2 0.310396 0.399484 0.685931
Si Si3 0.913895 0.608504 0.805712
Si Si4 0.085411 0.869474 0.928299
Si Si5 0.657727 0.822778 0.569111
Si Si6 0.799260 0.255773 0.368668
Si Si7 0.910147 0.392489 0.337162
O O1 0.121926 0.114424 0.235986
O O2 0.148402 0.172631 0.344452
O O3 0.000000 0.132949 0.311913
O O4 0.096410 0.000000 0.325371
O O5 0.274710 0.500000 0.700354
O O6 0.350438 0.404386 0.618244
O O7 0.255832 0.311294 0.680881
O O8 0.918874 0.500000 0.798885
O O9 0.860083 0.626339 0.865364
O O10 0.892179 0.640338 0.735172
O O11 0.000000 0.643178 0.818991
O O12 0.098250 0.760761 0.930063
O O13 0.000000 0.891370 0.906383
O O14 0.094194 0.900598 0.000000
O O15 0.651459 0.868648 0.500000
O O16 0.741944 0.780499 0.578319
O O17 0.858995 0.335342 0.384841
O O18 0.896251 0.500000 0.342250
O O19 0.000000 0.377078 0.345939
#
# Coordination Sequence:
#
# PCOD9522730 Si02
#       7
#    16  16  16  16  16  16  16
#     4  10  22  38  55  79 109 139 178 227 276 334
#     4  10  21  34  51  79 112 143 180 225 271 324
#     4   9  19  34  53  80 113 147 184 229 281 339
#     4   9  18  32  50  73 105 150 196 227 255 307
#     4  10  22  36  51  75 110 148 193 236 274 324
#     4  11  22  36  57  82 109 149 185 223 284 335
#     4   9  19  35  57  88 119 145 182 233 284 340
#
# _framework density 20.608991
#
# number of rings (size 3 to 8) (size 9 to 14) (size 15 to 20)
#    0.000    2.286    0.000    3.000    6.000    2.857 
#    0.000    1.429    0.000    3.000    0.000    2.000 
#    0.000    0.000    0.000    0.000    0.000    0.000 
#
# Total GULP energy -312062.409754 kJ/mol
# GULP energy per Si atom -5572.543031 kJ/mol
# Density = 2.056208 g / cm^3
# Si number density = 20.608991 Si / 1000 Ang^3
#
#
#
# Elastic Constant Matrix: (Units=GPa)
#
#
# Indices 1 2 3 4 5 6 
#
# 1 120.9537 32.2758 28.4055 0.0000 0.0000 0.0000
# 2 32.2758 66.8043 4.9268 0.0000 0.0000 0.0000
# 3 28.4055 4.9268 12.6527 0.0000 0.0000 0.0000
# 4 0.0000 0.0000 0.0000 10.9047 0.0000 0.0000
# 5 0.0000 0.0000 0.0000 0.0000 20.3620 0.0000
# 6 0.0000 0.0000 0.0000 0.0000 0.0000 32.2125
#
#
#
# Elastic Compliance Matrix: (Units=1/GPa)
#
#
# Indices 1 2 3 4 5 6 
#
# 1 0.019902 -0.006507 -0.042146 0.000000 0.000000 0.000000
# 2 -0.006507 0.017539 0.007779 0.000000 0.000000 0.000000
# 3 -0.042146 0.007779 0.170624 0.000000 0.000000 0.000000
# 4 0.000000 0.000000 0.000000 0.091703 0.000000 0.000000
# 5 0.000000 0.000000 0.000000 0.000000 0.049111 0.000000
# 6 0.000000 0.000000 0.000000 0.000000 0.000000 0.031044
#
#
# Mechanical properties :
#
#
# Convention : Reuss Voigt Hill
#
# Bulk Modulus (GPa) = 7.91661 36.84743 22.38202
# Shear Modulus (GPa) = 9.92501 21.68269 15.80385
#
# Velocity S-wave (km/s) = 2.19689 3.24713 2.77220
# Velocity P-wave (km/s) = 3.20699 5.65478 4.59681
#
# Compressibility (1/GPa) = 0.12631674
#
# Stress axis : x y z
#
# Youngs Moduli (GPa) = 50.24648 57.01496 5.86084
#
# Poissons Ratio (x) = 0.37100 0.24701
# Poissons Ratio (y) = 0.32696 -0.04559
# Poissons Ratio (z) = 2.11770 -0.44353
#
# Static dielectric constant tensor:
#      x y z
#    x 1.764750 0.000000 0.000000 
#    y 0.000000 1.796280 0.000000 
#    z 0.000000 0.000000 1.725570 
# 
# From -- ./inp_files/59910.got.cif
#   From: 2010.05.17/outbox.cif.g08.bks.cpg/sg71_30_cif.got.tgz:59910.got - 2010.06.03 16:22:01.
