data_PCOD9522108
_publ_section_title
;
Structure prediction by ZEFSAII (Michael W. Deem and Ramdas Pophale) SiO2 
 PCOD9522108
Probable space group: I M M M
;
_chemical_formula_sum "Si O2"
_cell_formula_units_Z 112
_cell_length_a 14.759316
_cell_length_b 16.383396
_cell_length_c 23.214280
_cell_angle_alpha 90.000000
_cell_angle_beta 90.000000
_cell_angle_gamma 90.000000
_cell_volume 5613.392088
_symmetry_space_group_name_H-M "I M M M"
_symmetry_group_IT_number 71
_symmetry_cell_setting 'orthorhombic'
loop_
_space_group_symop_operation_xyz
x,y,z
-x,-y,z
x,-y,-z
-x,y,-z
-x,-y,-z
x,y,-z
-x,y,z
x,-y,z
1/2+x,1/2+y,1/2+z
1/2-x,1/2-y,1/2+z
1/2+x,1/2-y,1/2-z
1/2-x,1/2+y,1/2-z
1/2-x,1/2-y,1/2-z
1/2+x,1/2+y,1/2-z
1/2-x,1/2+y,1/2+z
1/2+x,1/2-y,1/2+z
loop_
_atom_site_type_symbol
_atom_site_label
_atom_site_fract_x
_atom_site_fract_y
_atom_site_fract_z
Si Si1 0.603993 0.758104 0.620744
Si Si2 0.392215 0.087050 0.823837
Si Si3 0.607853 0.827973 0.064447
Si Si4 0.895852 0.091719 0.666398
Si Si5 0.110294 0.911400 0.933346
Si Si6 0.142974 0.248691 0.254055
Si Si7 0.276154 0.338561 0.067454
O O1 0.500000 0.771691 0.601090
O O2 0.636202 0.668089 0.601462
O O3 0.605148 0.756634 0.689767
O O4 0.676179 0.819398 0.592435
O O5 0.500000 0.078741 0.826856
O O6 0.360575 0.107997 0.888129
O O7 0.378845 0.168626 0.787769
O O8 0.354618 0.000000 0.802510
O O9 0.500000 0.809900 0.073150
O O10 0.665209 0.745304 0.069856
O O11 0.618277 0.859983 0.000000
O O12 0.884092 0.166313 0.711698
O O13 0.828321 0.104119 0.612702
O O14 0.000000 0.096466 0.645858
O O15 0.882447 0.000000 0.691099
O O16 0.000000 0.912621 0.932904
O O17 0.140741 0.000000 0.911653
O O18 0.138120 0.902305 0.000000
O O19 0.250000 0.250000 0.250000
O O20 0.273280 0.363848 0.000000
#
# Coordination Sequence:
#
# PCOD9522108 Si02
#       7
#    16  16  16  16  16  16  16
#     4  11  22  37  61  90 124 170 216 260 315 381
#     4  10  20  35  58  87 120 161 206 250 300 367
#     4   9  17  32  57  86 119 160 202 249 307 369
#     4  11  24  43  69  99 131 167 212 271 333 389
#     4   8  15  30  53  83 120 159 201 251 304 362
#     4  12  23  42  64  89 129 170 212 265 316 375
#     4  11  22  39  63  92 126 166 213 265 322 382
#
# _framework density 19.952283999999999
#
# number of rings (size 3 to 8) (size 9 to 14) (size 15 to 20)
#    0.000    1.714    2.857    2.571    0.000    3.429 
#    0.000    5.714    0.000    1.286    0.000    1.000 
#    0.000    0.000    0.000    0.000    0.000    0.000 
#
# Total GULP energy -312420.189965 kJ/mol
# GULP energy per Si atom -5578.931964 kJ/mol
# Density = 1.990687 g / cm^3
# Si number density = 19.952284 Si / 1000 Ang^3
#
#
#
# Elastic Constant Matrix: (Units=GPa)
#
#
# Indices 1 2 3 4 5 6 
#
# 1 87.5761 15.5840 9.2133 0.0000 0.0000 0.0000
# 2 15.5840 117.4389 42.8418 0.0000 0.0000 0.0000
# 3 9.2133 42.8418 80.2499 0.0000 0.0000 0.0000
# 4 0.0000 0.0000 0.0000 -3.6021 0.0000 0.0000
# 5 0.0000 0.0000 0.0000 0.0000 -32.8517 0.0000
# 6 0.0000 0.0000 0.0000 0.0000 0.0000 -13.0133
#
#
#
# Elastic Compliance Matrix: (Units=1/GPa)
#
#
# Indices 1 2 3 4 5 6 
#
# 1 0.011721 -0.001322 -0.000640 0.000000 0.000000 0.000000
# 2 -0.001322 0.010724 -0.005573 0.000000 0.000000 0.000000
# 3 -0.000640 -0.005573 0.015510 0.000000 0.000000 0.000000
# 4 0.000000 0.000000 0.000000 -0.277612 0.000000 0.000000
# 5 0.000000 0.000000 0.000000 0.000000 -0.030440 0.000000
# 6 0.000000 0.000000 0.000000 0.000000 0.000000 -0.076844
#
#
# Mechanical properties :
#
#
# Convention : Reuss Voigt Hill
#
# Bulk Modulus (GPa) = 43.69749 46.72701 45.21225
# Shear Modulus (GPa) = -15.42049 4.61495 -5.40277
#
# Velocity S-wave (km/s) = -2.78307 1.52250 -1.64734
# Velocity P-wave (km/s) = 3.40900 5.15373 4.36933
#
# Compressibility (1/GPa) = 0.02288461
#
# Stress axis : x y z
#
# Youngs Moduli (GPa) = 85.31546 93.25280 64.47558
#
# Poissons Ratio (x) = 0.12327 0.04126
# Poissons Ratio (y) = 0.11278 0.35933
# Poissons Ratio (z) = 0.05460 0.51970
#
# Static dielectric constant tensor:
#      x y z
#    x 1.729900 0.000000 0.000000 
#    y 0.000000 1.745480 0.000000 
#    z 0.000000 0.000000 1.708660 
# 
# From -- ./inp_files/59934.got.cif
#   From: 2010.05.17/outbox.cif.g08.bks.cpg/sg71_30_cif.got.tgz:59934.got - 2010.06.03 16:22:01.
