data_PCOD9522767
_publ_section_title
;
Structure prediction by ZEFSAII (Michael W. Deem and Ramdas Pophale) SiO2 
 PCOD9522767
Probable space group: I M M M
;
_chemical_formula_sum "Si O2"
_cell_formula_units_Z 80
_cell_length_a 9.248789
_cell_length_b 26.264279
_cell_length_c 19.935162
_cell_angle_alpha 90.000000
_cell_angle_beta 90.000000
_cell_angle_gamma 90.000000
_cell_volume 4842.505516
_symmetry_space_group_name_H-M "I M M M"
_symmetry_group_IT_number 71
_symmetry_cell_setting 'orthorhombic'
loop_
_space_group_symop_operation_xyz
x,y,z
-x,-y,z
x,-y,-z
-x,y,-z
-x,-y,-z
x,y,-z
-x,y,z
x,-y,z
1/2+x,1/2+y,1/2+z
1/2-x,1/2-y,1/2+z
1/2+x,1/2-y,1/2-z
1/2-x,1/2+y,1/2-z
1/2-x,1/2-y,1/2-z
1/2+x,1/2+y,1/2-z
1/2-x,1/2+y,1/2+z
1/2+x,1/2-y,1/2+z
loop_
_atom_site_type_symbol
_atom_site_label
_atom_site_fract_x
_atom_site_fract_y
_atom_site_fract_z
Si Si1 0.174216 0.361389 0.079277
Si Si2 0.326944 0.941224 0.817623
Si Si3 0.826342 0.645540 0.422321
Si Si4 0.172099 0.059545 0.676003
Si Si5 0.166377 0.247411 0.081472
O O1 0.254176 0.403568 0.122455
O O2 0.215872 0.303946 0.101763
O O3 0.000000 0.365339 0.086591
O O4 0.206479 0.366732 0.000000
O O5 0.500000 0.936292 0.806035
O O6 0.284433 0.901261 0.874887
O O7 0.242819 0.931220 0.748764
O O8 0.299750 0.000000 0.837596
O O9 0.781794 0.637297 0.500000
O O10 0.759932 0.698975 0.398078
O O11 0.000000 0.649331 0.421468
O O12 0.000000 0.067431 0.678435
O O13 0.198786 0.000000 0.659379
O O14 0.000000 0.240595 0.102587
O O15 0.167558 0.248483 0.000000
#
# Coordination Sequence:
#
# PCOD9522767 Si02
#       5
#    16  16  16  16  16
#     4   9  18  33  53  75  97 124 160 197 233 281
#     4   9  18  33  51  69  94 130 165 196 235 284
#     4   9  17  29  48  75 101 124 156 198 240 282
#     4  10  21  35  50  70  97 127 159 198 242 284
#     4   8  15  29  48  70  97 127 156 189 233 282
#
# _framework density 16.520372999999999
#
# number of rings (size 3 to 8) (size 9 to 14) (size 15 to 20)
#    0.000    3.000    0.000    1.800    0.000    4.000 
#    0.000    7.000    0.000    0.000    0.000    5.600 
#    0.000    0.000    0.000    0.000    0.000    0.000 
#
# Total GULP energy -222835.008893 kJ/mol
# GULP energy per Si atom -5570.875222 kJ/mol
# Density = 1.648277 g / cm^3
# Si number density = 16.520373 Si / 1000 Ang^3
#
#
#
# Elastic Constant Matrix: (Units=GPa)
#
#
# Indices 1 2 3 4 5 6 
#
# 1 37.2064 67.5382 46.5590 0.0000 0.0000 0.0000
# 2 67.5382 162.4691 97.9120 0.0000 0.0000 0.0000
# 3 46.5590 97.9120 79.9864 -0.0003 0.0000 0.0000
# 4 0.0000 0.0000 -0.0003 -23.9638 0.0000 0.0000
# 5 0.0000 0.0000 0.0000 0.0000 16.9190 0.0000
# 6 0.0000 0.0000 0.0000 0.0000 0.0000 31.1112
#
#
#
# Elastic Compliance Matrix: (Units=1/GPa)
#
#
# Indices 1 2 3 4 5 6 
#
# 1 0.133411 -0.033013 -0.037246 0.000001 0.000000 0.000000
# 2 -0.033013 0.031635 -0.019509 0.000000 0.000000 0.000000
# 3 -0.037246 -0.019509 0.058063 -0.000001 0.000000 0.000000
# 4 0.000001 0.000000 -0.000001 -0.041730 0.000000 0.000000
# 5 0.000000 0.000000 0.000000 0.000000 0.059105 0.000000
# 6 0.000000 0.000000 0.000000 0.000000 0.000000 0.032143
#
#
# Mechanical properties :
#
#
# Convention : Reuss Voigt Hill
#
# Bulk Modulus (GPa) = 22.94885 78.18670 50.56777
# Shear Modulus (GPa) = 10.71382 9.32346 10.01864
#
# Velocity S-wave (km/s) = 2.54937 2.37821 2.46528
# Velocity P-wave (km/s) = 4.75259 7.41427 6.22730
#
# Compressibility (1/GPa) = 0.04357518
#
# Stress axis : x y z
#
# Youngs Moduli (GPa) = 7.49564 31.61022 17.22261
#
# Poissons Ratio (x) = 1.04354 0.64147
# Poissons Ratio (y) = 0.24745 0.33599
# Poissons Ratio (z) = 0.27918 0.61668
#
# Static dielectric constant tensor:
#      x y z
#    x 1.549810 0.000000 0.000000 
#    y 0.000000 1.556720 0.000000 
#    z 0.000000 0.000000 1.532960 
# 
# From -- ./inp_files/8266.got.cif
#   From: 2010.05.17/outbox.cif.g08.bks.cpg/sg71_5_cif.got.tgz:8266.got - 2010.06.03 16:22:01.
