data_PCOD9522103
_publ_section_title
;
Structure prediction by ZEFSAII (Michael W. Deem and Ramdas Pophale) SiO2 
 PCOD9522103
Probable space group: I M M M
;
_chemical_formula_sum "Si O2"
_cell_formula_units_Z 72
_cell_length_a 27.539504
_cell_length_b 8.524029
_cell_length_c 15.915367
_cell_angle_alpha 90.000000
_cell_angle_beta 90.000000
_cell_angle_gamma 90.000000
_cell_volume 3736.093104
_symmetry_space_group_name_H-M "I M M M"
_symmetry_group_IT_number 71
_symmetry_cell_setting 'orthorhombic'
loop_
_space_group_symop_operation_xyz
x,y,z
-x,-y,z
x,-y,-z
-x,y,-z
-x,-y,-z
x,y,-z
-x,y,z
x,-y,z
1/2+x,1/2+y,1/2+z
1/2-x,1/2-y,1/2+z
1/2+x,1/2-y,1/2-z
1/2-x,1/2+y,1/2-z
1/2-x,1/2-y,1/2-z
1/2+x,1/2+y,1/2-z
1/2-x,1/2+y,1/2+z
1/2+x,1/2-y,1/2+z
loop_
_atom_site_type_symbol
_atom_site_label
_atom_site_fract_x
_atom_site_fract_y
_atom_site_fract_z
Si Si1 0.387612 0.189928 0.332320
Si Si2 0.443740 0.189902 0.163464
Si Si3 0.944069 0.308496 0.000000
Si Si4 0.277995 0.311811 0.668455
Si Si5 0.888092 0.813395 0.500000
Si Si6 0.721587 0.189782 0.000000
O O1 0.416555 0.239015 0.248764
O O2 0.415937 0.241287 0.416123
O O3 0.333036 0.252130 0.331701
O O4 0.386105 0.000000 0.332611
O O5 0.500000 0.239609 0.163666
O O6 0.415812 0.252347 0.082412
O O7 0.442952 0.000000 0.160712
O O8 0.944533 0.500000 0.000000
O O9 0.000000 0.256984 0.000000
O O10 0.277870 0.500000 0.670037
O O11 0.250000 0.250000 0.750000
O O12 0.250269 0.260046 0.583685
O O13 0.832994 0.752272 0.500000
O O14 0.888008 0.000000 0.500000
O O15 0.719606 0.000000 0.000000
#
# Coordination Sequence:
#
# PCOD9522103 Si02
#       6
#    16  16   8  16   8   8
#     4  10  20  35  58  87 116 147 185 228 274 324
#     4  10  21  38  59  82 112 152 191 224 268 332
#     4   9  17  32  57  88 118 147 184 229 270 316
#     4  11  23  39  59  83 112 147 187 230 278 332
#     4  12  25  38  57  85 112 141 184 239 290 329
#     4  10  23  42  60  79 110 152 190 224 272 339
#
# _framework density 19.271467999999999
#
# number of rings (size 3 to 8) (size 9 to 14) (size 15 to 20)
#    0.000    1.667    0.000    4.667    0.000   12.444 
#    0.000    0.000    0.000    2.667    0.000    0.000 
#    0.000    0.000    0.000    0.000    0.000    0.000 
#
# Total GULP energy -201286.025944 kJ/mol
# GULP energy per Si atom -5591.278498 kJ/mol
# Density = 1.922761 g / cm^3
# Si number density = 19.271468 Si / 1000 Ang^3
#
#
#
# Elastic Constant Matrix: (Units=GPa)
#
#
# Indices 1 2 3 4 5 6 
#
# 1 233.7047 33.4198 141.8179 0.0000 0.0000 0.0000
# 2 33.4198 16.3420 36.8785 0.0000 0.0000 0.0000
# 3 141.8179 36.8785 236.8614 0.0000 0.0000 0.0000
# 4 0.0000 0.0000 0.0000 8.5545 0.0000 0.0000
# 5 0.0000 0.0000 0.0000 0.0000 46.6661 0.0000
# 6 0.0000 0.0000 0.0000 0.0000 0.0000 33.1883
#
#
#
# Elastic Compliance Matrix: (Units=1/GPa)
#
#
# Indices 1 2 3 4 5 6 
#
# 1 0.007317 -0.007827 -0.003162 0.000000 0.000000 0.000000
# 2 -0.007827 0.102711 -0.011305 0.000000 0.000000 0.000000
# 3 -0.003162 -0.011305 0.007876 0.000000 0.000000 0.000000
# 4 0.000000 0.000000 0.000000 0.116898 0.000000 0.000000
# 5 0.000000 0.000000 0.000000 0.000000 0.021429 0.000000
# 6 0.000000 0.000000 0.000000 0.000000 0.000000 0.030131
#
#
# Mechanical properties :
#
#
# Convention : Reuss Voigt Hill
#
# Bulk Modulus (GPa) = 13.63997 101.23786 57.43891
# Shear Modulus (GPa) = 14.06906 36.00124 25.03515
#
# Velocity S-wave (km/s) = 2.70487 4.32685 3.60818
# Velocity P-wave (km/s) = 4.10466 8.80958 6.87230
#
# Compressibility (1/GPa) = 0.07331396
#
# Stress axis : x y z
#
# Youngs Moduli (GPa) = 136.66309 9.73602 126.97577
#
# Poissons Ratio (x) = 0.07621 0.40155
# Poissons Ratio (y) = 1.06972 1.43549
# Poissons Ratio (z) = 0.43219 0.11007
#
# Static dielectric constant tensor:
#      x y z
#    x 1.625420 0.000000 0.000000 
#    y 0.000000 1.662920 0.000000 
#    z 0.000000 0.000000 1.641340 
# 
# From -- ./inp_files/6119.got.cif
#   From: 2010.05.17/outbox.cif.g08.bks.cpg/sg71_4_cif.got.tgz:6119.got - 2010.06.03 16:22:01.
