data_PCOD9522949
_publ_section_title
;
Structure prediction by ZEFSAII (Michael W. Deem and Ramdas Pophale) SiO2 
 PCOD9522949
Probable space group: I M M M
;
_chemical_formula_sum "Si O2"
_cell_formula_units_Z 96
_cell_length_a 8.718325
_cell_length_b 24.249360
_cell_length_c 25.825272
_cell_angle_alpha 90.000000
_cell_angle_beta 90.000000
_cell_angle_gamma 90.000000
_cell_volume 5459.818929
_symmetry_space_group_name_H-M "I M M M"
_symmetry_group_IT_number 71
_symmetry_cell_setting 'orthorhombic'
loop_
_space_group_symop_operation_xyz
x,y,z
-x,-y,z
x,-y,-z
-x,y,-z
-x,-y,-z
x,y,-z
-x,y,z
x,-y,z
1/2+x,1/2+y,1/2+z
1/2-x,1/2-y,1/2+z
1/2+x,1/2-y,1/2-z
1/2-x,1/2+y,1/2-z
1/2-x,1/2-y,1/2-z
1/2+x,1/2+y,1/2-z
1/2-x,1/2+y,1/2+z
1/2+x,1/2-y,1/2+z
loop_
_atom_site_type_symbol
_atom_site_label
_atom_site_fract_x
_atom_site_fract_y
_atom_site_fract_z
Si Si1 0.315767 0.881883 0.347199
Si Si2 0.815030 0.804961 0.940216
Si Si3 0.686384 0.000000 0.305457
Si Si4 0.815875 0.188612 0.747275
Si Si5 0.183311 0.184825 0.560178
Si Si6 0.683795 0.000000 0.185253
Si Si7 0.815169 0.115725 0.847864
O O1 0.500000 0.879806 0.345998
O O2 0.250350 0.842473 0.302507
O O3 0.256423 0.859478 0.401709
O O4 0.264946 0.944069 0.333768
O O5 0.743557 0.745935 0.925915
O O6 0.768009 0.851941 0.899804
O O7 0.000000 0.799768 0.937497
O O8 0.773599 0.817148 0.000000
O O9 0.500000 0.000000 0.304796
O O10 0.736819 0.000000 0.245502
O O11 0.750000 0.250000 0.750000
O O12 0.773372 0.153465 0.798367
O O13 0.000000 0.190839 0.744353
O O14 0.224616 0.175374 0.500000
O O15 0.000000 0.183803 0.564887
O O16 0.743854 0.055586 0.158790
O O17 0.500000 0.000000 0.185067
O O18 0.000000 0.110483 0.848338
#
# Coordination Sequence:
#
# PCOD9522949 Si02
#       7
#    16  16   8  16  16   8  16
#     4  11  21  37  58  80 109 144 186 231 276 331
#     4   9  18  35  59  84 111 147 188 229 276 329
#     4   9  20  37  56  79 106 142 187 231 276 325
#     4  11  22  34  52  81 114 145 179 225 281 336
#     4  10  21  37  57  84 116 147 182 226 277 332
#     4  11  21  37  58  79 106 146 189 229 275 328
#     4  10  21  36  54  80 111 143 183 228 275 330
#
# _framework density 17.583002
#
# number of rings (size 3 to 8) (size 9 to 14) (size 15 to 20)
#    0.000    1.833    1.667    2.750    0.000    3.667 
#    0.000    2.500    0.000    5.000    0.000    0.000 
#    0.000    0.000    0.000    0.000    0.000    0.000 
#
# Total GULP energy -268102.147208 kJ/mol
# GULP energy per Si atom -5585.461400 kJ/mol
# Density = 1.754298 g / cm^3
# Si number density = 17.583002 Si / 1000 Ang^3
#
#
#
# Elastic Constant Matrix: (Units=GPa)
#
#
# Indices 1 2 3 4 5 6 
#
# 1 30.2589 39.1642 32.0690 0.0000 0.0000 0.0000
# 2 39.1642 171.5075 83.8289 0.0000 0.0000 0.0000
# 3 32.0690 83.8289 102.0072 0.0000 0.0000 0.0000
# 4 0.0000 0.0000 0.0000 23.7266 0.0000 0.0000
# 5 0.0000 0.0000 0.0000 0.0000 17.1889 0.0000
# 6 0.0000 0.0000 0.0000 0.0000 0.0000 28.1958
#
#
#
# Elastic Compliance Matrix: (Units=1/GPa)
#
#
# Indices 1 2 3 4 5 6 
#
# 1 0.053827 -0.006719 -0.011400 0.000000 0.000000 0.000000
# 2 -0.006719 0.010584 -0.006585 0.000000 0.000000 0.000000
# 3 -0.011400 -0.006585 0.018799 0.000000 0.000000 0.000000
# 4 0.000000 0.000000 0.000000 0.042147 0.000000 0.000000
# 5 0.000000 0.000000 0.000000 0.000000 0.058177 0.000000
# 6 0.000000 0.000000 0.000000 0.000000 0.000000 0.035466
#
#
# Mechanical properties :
#
#
# Convention : Reuss Voigt Hill
#
# Bulk Modulus (GPa) = 29.58561 68.21086 48.89824
# Shear Modulus (GPa) = 17.87779 23.73635 20.80707
#
# Velocity S-wave (km/s) = 3.19214 3.67817 3.44374
# Velocity P-wave (km/s) = 5.51807 7.54430 6.60929
#
# Compressibility (1/GPa) = 0.03380021
#
# Stress axis : x y z
#
# Youngs Moduli (GPa) = 18.57796 94.48446 53.19454
#
# Poissons Ratio (x) = 0.63488 0.60643
# Poissons Ratio (y) = 0.12483 0.35030
# Poissons Ratio (z) = 0.21179 0.62220
#
# Static dielectric constant tensor:
#      x y z
#    x 1.590190 0.000000 0.000000 
#    y 0.000000 1.565610 0.000000 
#    z 0.000000 0.000000 1.593950 
# 
# From -- ./inp_files/57756.got.cif
#   From: 2010.05.17/outbox.cif.g08.bks.cpg/sg71_29_cif.got.tgz:57756.got - 2010.06.03 16:22:01.
