data_PCOD9522836
_publ_section_title
;
Structure prediction by ZEFSAII (Michael W. Deem and Ramdas Pophale) SiO2 
 PCOD9522836
Probable space group: I M M M
;
_chemical_formula_sum "Si O2"
_cell_formula_units_Z 42
_cell_length_a 8.062570
_cell_length_b 7.678156
_cell_length_c 33.421418
_cell_angle_alpha 90.000000
_cell_angle_beta 90.000000
_cell_angle_gamma 90.000000
_cell_volume 2068.975281
_symmetry_space_group_name_H-M "I M M M"
_symmetry_group_IT_number 71
_symmetry_cell_setting 'orthorhombic'
loop_
_space_group_symop_operation_xyz
x,y,z
-x,-y,z
x,-y,-z
-x,y,-z
-x,-y,-z
x,y,-z
-x,y,z
x,-y,z
1/2+x,1/2+y,1/2+z
1/2-x,1/2-y,1/2+z
1/2+x,1/2-y,1/2-z
1/2-x,1/2+y,1/2-z
1/2-x,1/2-y,1/2-z
1/2+x,1/2+y,1/2-z
1/2-x,1/2+y,1/2+z
1/2+x,1/2-y,1/2+z
loop_
_atom_site_type_symbol
_atom_site_label
_atom_site_fract_x
_atom_site_fract_y
_atom_site_fract_z
Si Si1 0.500000 0.500000 0.000000
Si Si2 0.185462 0.791391 0.206001
Si Si3 0.688056 0.000000 0.563511
Si Si4 0.193620 0.296532 0.379438
O O1 0.348438 0.500000 0.034355
O O2 0.250000 0.750000 0.250000
O O3 0.286968 0.737928 0.166832
O O4 0.000000 0.721214 0.201787
O O5 0.180640 0.000000 0.204246
O O6 0.707214 0.830149 0.591662
O O7 0.500000 0.000000 0.546413
O O8 0.245934 0.500000 0.382629
O O9 0.000000 0.287989 0.390077
#
# Coordination Sequence:
#
# PCOD9522836 Si02
#       4
#     2  16   8  16
#     4  12  26  52  70 110 140 162 238 284 342 422
#     4  10  21  35  53  83 123 169 222 274 320 385
#     4  12  25  45  75 102 135 179 216 279 349 408
#     4  10  21  41  67  95 132 177 225 275 334 402
#
# _framework density 20.299901999999999
#
# number of rings (size 3 to 8) (size 9 to 14) (size 15 to 20)
#    0.000    1.524    1.905    2.571    2.667    4.571 
#    0.000    1.905    0.000    2.286    0.000    0.000 
#    0.000    0.000    0.000    0.000    0.000    0.000 
#
# Total GULP energy -116915.602285 kJ/mol
# GULP energy per Si atom -5567.409633 kJ/mol
# Density = 2.025370 g / cm^3
# Si number density = 20.299902 Si / 1000 Ang^3
#
#
#
# Elastic Constant Matrix: (Units=GPa)
#
#
# Indices 1 2 3 4 5 6 
#
# 1 132.5888 37.0589 50.4370 0.0000 0.0000 0.0000
# 2 37.0589 77.3443 45.5554 0.0000 0.0000 0.0000
# 3 50.4370 45.5554 130.7404 0.0000 0.0000 0.0000
# 4 0.0000 0.0000 0.0000 -12.7029 0.0000 0.0000
# 5 0.0000 0.0000 0.0000 0.0000 36.6492 0.0000
# 6 0.0000 0.0000 0.0000 0.0000 0.0000 15.9506
#
#
#
# Elastic Compliance Matrix: (Units=1/GPa)
#
#
# Indices 1 2 3 4 5 6 
#
# 1 0.009350 -0.002964 -0.002574 0.000000 0.000000 0.000000
# 2 -0.002964 0.017207 -0.004852 0.000000 0.000000 0.000000
# 3 -0.002574 -0.004852 0.010333 0.000000 0.000000 0.000000
# 4 0.000000 0.000000 0.000000 -0.078722 0.000000 0.000000
# 5 0.000000 0.000000 0.000000 0.000000 0.027286 0.000000
# 6 0.000000 0.000000 0.000000 0.000000 0.000000 0.062694
#
#
# Mechanical properties :
#
#
# Convention : Reuss Voigt Hill
#
# Bulk Modulus (GPa) = 62.07722 67.41957 64.74840
# Shear Modulus (GPa) = 67.29730 21.82084 44.55907
#
# Velocity S-wave (km/s) = 5.76398 3.28216 4.69021
# Velocity P-wave (km/s) = 8.65705 6.90270 7.82917
#
# Compressibility (1/GPa) = 0.01610897
#
# Stress axis : x y z
#
# Youngs Moduli (GPa) = 106.95515 58.11506 96.78064
#
# Poissons Ratio (x) = 0.17223 0.24914
# Poissons Ratio (y) = 0.31697 0.46962
# Poissons Ratio (z) = 0.27533 0.28200
#
# Static dielectric constant tensor:
#      x y z
#    x 1.749610 0.000000 0.000000 
#    y 0.000000 1.728200 0.000000 
#    z 0.000000 0.000000 1.723220 
# 
# From -- ./inp_files/1982.got.cif
#   From: 2010.05.17/outbox.cif.g08.bks.cpg/sg71_1_cif.got.tgz:1982.got - 2010.06.03 16:22:01.
