data_PCOD9522916
_publ_section_title
;
Structure prediction by ZEFSAII (Michael W. Deem and Ramdas Pophale) SiO2 
 PCOD9522916
Probable space group: I M M M
;
_chemical_formula_sum "Si O2"
_cell_formula_units_Z 96
_cell_length_a 26.108789
_cell_length_b 13.879622
_cell_length_c 15.361788
_cell_angle_alpha 90.000000
_cell_angle_beta 90.000000
_cell_angle_gamma 90.000000
_cell_volume 5566.806613
_symmetry_space_group_name_H-M "I M M M"
_symmetry_group_IT_number 71
_symmetry_cell_setting 'orthorhombic'
loop_
_space_group_symop_operation_xyz
x,y,z
-x,-y,z
x,-y,-z
-x,y,-z
-x,-y,-z
x,y,-z
-x,y,z
x,-y,z
1/2+x,1/2+y,1/2+z
1/2-x,1/2-y,1/2+z
1/2+x,1/2-y,1/2-z
1/2-x,1/2+y,1/2-z
1/2-x,1/2-y,1/2-z
1/2+x,1/2+y,1/2-z
1/2-x,1/2+y,1/2+z
1/2+x,1/2-y,1/2+z
loop_
_atom_site_type_symbol
_atom_site_label
_atom_site_fract_x
_atom_site_fract_y
_atom_site_fract_z
Si Si1 0.500000 0.393323 0.102619
Si Si2 0.940675 0.116462 0.000000
Si Si3 0.629984 0.616581 0.664083
Si Si4 0.256660 0.383761 0.711294
Si Si5 0.843285 0.612936 0.602977
Si Si6 0.894863 0.203885 0.652885
Si Si7 0.711772 0.383379 0.096427
O O1 0.500000 0.500000 0.144387
O O2 0.551115 0.337284 0.125530
O O3 0.500000 0.404352 0.000000
O O4 0.906185 0.142166 0.083476
O O5 0.000000 0.151385 0.000000
O O6 0.943651 0.000000 0.000000
O O7 0.625957 0.500000 0.678731
O O8 0.690794 0.638842 0.659734
O O9 0.611671 0.675600 0.747071
O O10 0.254748 0.500000 0.714564
O O11 0.206224 0.355191 0.658766
O O12 0.260635 0.351739 0.812872
O O13 0.833282 0.624184 0.500000
O O14 0.853281 0.500000 0.618994
O O15 0.888251 0.683960 0.631678
O O16 0.846871 0.151803 0.605404
O O17 0.712140 0.500000 0.097820
O O18 0.731305 0.353117 0.000000
#
# Coordination Sequence:
#
# PCOD9522916 Si02
#       7
#     8   8  16  16  16  16  16
#     4  11  22  34  53  80 106 130 158 196 249 317
#     4   9  18  30  48  76 113 151 177 200 246 311
#     4   9  18  31  50  78 109 141 175 212 257 315
#     4   8  16  30  49  73  99 133 177 218 259 308
#     4  10  21  36  54  73  98 135 180 227 270 310
#     4  11  21  34  51  73 103 136 173 213 259 311
#     4   9  16  28  47  73 107 140 168 205 259 322
#
# _framework density 17.245076000000001
#
# number of rings (size 3 to 8) (size 9 to 14) (size 15 to 20)
#    0.000    2.500    0.000    4.000    2.333    4.000 
#    0.000    0.417    1.833    1.500    0.000    0.000 
#    0.000    0.667    0.000    0.000    0.000    0.000 
#
# Total GULP energy -267516.770147 kJ/mol
# GULP energy per Si atom -5573.266045 kJ/mol
# Density = 1.720583 g / cm^3
# Si number density = 17.245076 Si / 1000 Ang^3
#
#
#
# Elastic Constant Matrix: (Units=GPa)
#
#
# Indices 1 2 3 4 5 6 
#
# 1 103.4144 46.7528 49.7991 0.0000 0.0000 0.0000
# 2 46.7528 86.0678 37.6400 0.0000 0.0000 0.0000
# 3 49.7991 37.6400 113.4327 0.0000 0.0000 0.0000
# 4 0.0000 0.0000 0.0000 222.0585 0.0000 0.0000
# 5 0.0000 0.0000 0.0000 0.0000 11.4487 0.0000
# 6 0.0000 0.0000 0.0000 0.0000 0.0000 26.7550
#
#
#
# Elastic Compliance Matrix: (Units=1/GPa)
#
#
# Indices 1 2 3 4 5 6 
#
# 1 0.014465 -0.005943 -0.004378 0.000000 0.000000 0.000000
# 2 -0.005943 0.016032 -0.002711 0.000000 0.000000 0.000000
# 3 -0.004378 -0.002711 0.011638 0.000000 0.000000 0.000000
# 4 0.000000 0.000000 0.000000 0.004503 0.000000 0.000000
# 5 0.000000 0.000000 0.000000 0.000000 0.087346 0.000000
# 6 0.000000 0.000000 0.000000 0.000000 0.000000 0.037376
#
#
# Mechanical properties :
#
#
# Convention : Reuss Voigt Hill
#
# Bulk Modulus (GPa) = 62.22505 63.47762 62.85134
# Shear Modulus (GPa) = 24.65702 63.30064 43.97883
#
# Velocity S-wave (km/s) = 3.78537 6.06516 5.05545
# Velocity P-wave (km/s) = 7.43415 9.27024 8.40249
#
# Compressibility (1/GPa) = 0.01607070
#
# Stress axis : x y z
#
# Youngs Moduli (GPa) = 69.13299 62.37348 85.92829
#
# Poissons Ratio (x) = 0.37066 0.37623
# Poissons Ratio (y) = 0.41083 0.23296
# Poissons Ratio (z) = 0.30269 0.16910
#
# Static dielectric constant tensor:
#      x y z
#    x 1.551520 0.000000 0.000000 
#    y 0.000000 1.612610 0.000000 
#    z 0.000000 0.000000 1.617920 
# 
# From -- ./inp_files/40297.got.cif
#   From: 2010.05.17/outbox.cif.g08.bks.cpg/sg71_21_cif.got.tgz:40297.got - 2010.06.03 16:22:01.
