data_PCOD9522750
_publ_section_title
;
Structure prediction by ZEFSAII (Michael W. Deem and Ramdas Pophale) SiO2 
 PCOD9522750
Probable space group: I M M M
;
_chemical_formula_sum "Si O2"
_cell_formula_units_Z 80
_cell_length_a 17.418884
_cell_length_b 21.132177
_cell_length_c 11.590929
_cell_angle_alpha 90.000000
_cell_angle_beta 90.000000
_cell_angle_gamma 90.000000
_cell_volume 4266.608677
_symmetry_space_group_name_H-M "I M M M"
_symmetry_group_IT_number 71
_symmetry_cell_setting 'orthorhombic'
loop_
_space_group_symop_operation_xyz
x,y,z
-x,-y,z
x,-y,-z
-x,y,-z
-x,-y,-z
x,y,-z
-x,y,z
x,-y,z
1/2+x,1/2+y,1/2+z
1/2-x,1/2-y,1/2+z
1/2+x,1/2-y,1/2-z
1/2-x,1/2+y,1/2-z
1/2-x,1/2-y,1/2-z
1/2+x,1/2+y,1/2-z
1/2-x,1/2+y,1/2+z
1/2+x,1/2-y,1/2+z
loop_
_atom_site_type_symbol
_atom_site_label
_atom_site_fract_x
_atom_site_fract_y
_atom_site_fract_z
Si Si1 0.590636 0.000000 0.865279
Si Si2 0.817854 0.617332 0.290139
Si Si3 0.656952 0.252512 0.740355
Si Si4 0.906985 0.805322 0.000000
Si Si5 0.587628 0.500000 0.858989
Si Si6 0.676342 0.623329 0.136394
Si Si7 0.705291 0.578185 0.500000
O O1 0.623306 0.060823 0.801452
O O2 0.500000 0.000000 0.866624
O O3 0.617316 0.000000 0.000000
O O4 0.862578 0.684039 0.292019
O O5 0.764354 0.618530 0.177295
O O6 0.755700 0.602813 0.391063
O O7 0.750000 0.250000 0.750000
O O8 0.625699 0.268281 0.612989
O O9 0.637005 0.313498 0.815942
O O10 0.870589 0.876794 0.000000
O O11 0.000000 0.806468 0.000000
O O12 0.500000 0.500000 0.821483
O O13 0.631730 0.437960 0.818605
O O14 0.588483 0.500000 0.000000
O O15 0.673293 0.624001 0.000000
O O16 0.696177 0.500000 0.500000
#
# Coordination Sequence:
#
# PCOD9522750 Si02
#       7
#     8  16  16   8   8  16   8
#     4  11  23  40  63  93 124 161 212 291 358 393
#     4  11  21  38  68  88 125 161 218 274 325 396
#     4  10  23  38  67  91 125 173 223 263 323 397
#     4  12  26  45  64 103 146 172 217 285 346 394
#     4   9  19  36  52  75 123 164 190 245 305 361
#     4  10  21  34  59  94 117 158 222 255 305 384
#     4  12  22  41  70 104 125 177 226 276 335 407
#
# _framework density 18.750254999999999
#
# number of rings (size 3 to 8) (size 9 to 14) (size 15 to 20)
#    0.000    1.400    6.000    0.600    7.000    1.800 
#    0.000    0.000    0.000    3.000    0.000    0.000 
#    0.000    0.000    0.000    0.000    0.000    0.000 
#
# Total GULP energy -222955.114595 kJ/mol
# GULP energy per Si atom -5573.877865 kJ/mol
# Density = 1.870758 g / cm^3
# Si number density = 18.750255 Si / 1000 Ang^3
#
#
#
# Elastic Constant Matrix: (Units=GPa)
#
#
# Indices 1 2 3 4 5 6 
#
# 1 86.0376 54.4795 28.7931 0.0000 0.0000 0.0000
# 2 54.4795 225.5542 54.2841 0.0000 0.0000 0.0000
# 3 28.7931 54.2841 86.3022 0.0000 0.0000 0.0000
# 4 0.0000 0.0000 0.0000 25.1960 0.0000 0.0000
# 5 0.0000 0.0000 0.0000 0.0000 16.1744 0.0000
# 6 0.0000 0.0000 0.0000 0.0000 0.0000 -8.9464
#
#
#
# Elastic Compliance Matrix: (Units=1/GPa)
#
#
# Indices 1 2 3 4 5 6 
#
# 1 0.014384 -0.002733 -0.003080 0.000000 0.000000 0.000000
# 2 -0.002733 0.005744 -0.002701 0.000000 0.000000 0.000000
# 3 -0.003080 -0.002701 0.014314 0.000000 0.000000 0.000000
# 4 0.000000 0.000000 0.000000 0.039689 0.000000 0.000000
# 5 0.000000 0.000000 0.000000 0.000000 0.061826 0.000000
# 6 0.000000 0.000000 0.000000 0.000000 0.000000 -0.111777
#
#
# Mechanical properties :
#
#
# Convention : Reuss Voigt Hill
#
# Bulk Modulus (GPa) = 57.42622 74.77860 66.10241
# Shear Modulus (GPa) = 106.35680 23.84062 65.09871
#
# Velocity S-wave (km/s) = 7.53963 3.56965 5.89866
# Velocity P-wave (km/s) = 10.31930 7.54704 9.04008
#
# Compressibility (1/GPa) = 0.01741365
#
# Stress axis : x y z
#
# Youngs Moduli (GPa) = 69.52109 174.10405 69.86344
#
# Poissons Ratio (x) = 0.47583 0.21517
# Poissons Ratio (y) = 0.19000 0.18870
# Poissons Ratio (z) = 0.21412 0.47025
#
# Static dielectric constant tensor:
#      x y z
#    x 1.636720 0.000000 0.000000 
#    y 0.000000 1.714050 0.000000 
#    z 0.000000 0.000000 1.668660 
# 
# From -- ./inp_files/23907.got.cif
#   From: 2010.05.17/outbox.cif.g08.bks.cpg/sg71_12_cif.got.tgz:23907.got - 2010.06.03 16:22:01.
