data_PCOD9522866
_publ_section_title
;
Structure prediction by ZEFSAII (Michael W. Deem and Ramdas Pophale) SiO2 
 PCOD9522866
Probable space group: I M M M
;
_chemical_formula_sum "Si O2"
_cell_formula_units_Z 96
_cell_length_a 11.949571
_cell_length_b 24.640258
_cell_length_c 17.917407
_cell_angle_alpha 90.000000
_cell_angle_beta 90.000000
_cell_angle_gamma 90.000000
_cell_volume 5275.610498
_symmetry_space_group_name_H-M "I M M M"
_symmetry_group_IT_number 71
_symmetry_cell_setting 'orthorhombic'
loop_
_space_group_symop_operation_xyz
x,y,z
-x,-y,z
x,-y,-z
-x,y,-z
-x,-y,-z
x,y,-z
-x,y,z
x,-y,z
1/2+x,1/2+y,1/2+z
1/2-x,1/2-y,1/2+z
1/2+x,1/2-y,1/2-z
1/2-x,1/2+y,1/2-z
1/2-x,1/2-y,1/2-z
1/2+x,1/2+y,1/2-z
1/2-x,1/2+y,1/2+z
1/2+x,1/2-y,1/2+z
loop_
_atom_site_type_symbol
_atom_site_label
_atom_site_fract_x
_atom_site_fract_y
_atom_site_fract_z
Si Si1 0.000000 0.131448 0.589149
Si Si2 0.868470 0.744881 0.839542
Si Si3 0.129495 0.707994 0.000000
Si Si4 0.706539 0.559741 0.864110
Si Si5 0.130037 0.561138 0.276118
Si Si6 0.870491 0.421389 0.000000
Si Si7 0.500000 0.239165 0.910830
Si Si8 0.678404 0.820708 0.808312
O O1 0.888484 0.104419 0.623212
O O2 0.000000 0.195988 0.599477
O O3 0.000000 0.120186 0.500000
O O4 0.804213 0.799306 0.816793
O O5 0.852464 0.698637 0.776100
O O6 0.000000 0.754194 0.844183
O O7 0.822977 0.727044 0.920846
O O8 0.129945 0.643568 0.000000
O O9 0.000000 0.725939 0.000000
O O10 0.652455 0.500000 0.865479
O O11 0.779210 0.565028 0.789519
O O12 0.799328 0.561467 0.928812
O O13 0.140789 0.500000 0.309418
O O14 0.154323 0.616006 0.321701
O O15 0.000000 0.565134 0.249915
O O16 0.000000 0.438975 0.000000
O O17 0.395661 0.213237 0.866759
O O18 0.500000 0.228136 0.000000
#
# Coordination Sequence:
#
# PCOD9522866 Si02
#       8
#     8  16   8  16  16   8   8  16
#     4  11  25  40  55  77 121 160 195 242 295 348
#     4  10  21  35  57  87 119 155 192 237 290 350
#     4   9  20  35  53  83 119 153 189 238 294 343
#     4  11  23  36  55  77 108 158 204 239 284 343
#     4  10  21  39  59  81 111 147 193 247 300 347
#     4  11  21  31  51  78 112 146 196 250 284 334
#     4  11  26  41  61  94 118 153 194 243 305 360
#     4  11  22  38  62  85 117 153 192 238 297 362
#
# _framework density 18.196946000000001
#
# number of rings (size 3 to 8) (size 9 to 14) (size 15 to 20)
#    0.000    1.500    2.500    2.000    8.167    3.000 
#    0.000    0.000    0.000    1.000    0.000    0.000 
#    0.000    2.000    0.000    0.000    0.000    0.000 
#
# Total GULP energy -267751.614071 kJ/mol
# GULP energy per Si atom -5578.158626 kJ/mol
# Density = 1.815553 g / cm^3
# Si number density = 18.196946 Si / 1000 Ang^3
#
#
#
# Elastic Constant Matrix: (Units=GPa)
#
#
# Indices 1 2 3 4 5 6 
#
# 1 72.6324 52.1455 25.2484 0.0000 0.0000 0.0000
# 2 52.1455 141.9479 40.8429 0.0000 0.0000 0.0000
# 3 25.2484 40.8429 79.9863 0.0000 0.0000 0.0000
# 4 0.0000 0.0000 0.0000 18.2345 0.0000 0.0000
# 5 0.0000 0.0000 0.0000 0.0000 0.9263 0.0000
# 6 0.0000 0.0000 0.0000 0.0000 0.0000 -2.6732
#
#
#
# Elastic Compliance Matrix: (Units=1/GPa)
#
#
# Indices 1 2 3 4 5 6 
#
# 1 0.019254 -0.006241 -0.002891 0.000000 0.000000 0.000000
# 2 -0.006241 0.010281 -0.003280 0.000000 0.000000 0.000000
# 3 -0.002891 -0.003280 0.015089 0.000000 0.000000 0.000000
# 4 0.000000 0.000000 0.000000 0.054841 0.000000 0.000000
# 5 0.000000 0.000000 0.000000 0.000000 1.079591 0.000002
# 6 0.000000 0.000000 0.000000 0.000000 0.000002 -0.374080
#
#
# Mechanical properties :
#
#
# Convention : Reuss Voigt Hill
#
# Bulk Modulus (GPa) = 50.50269 59.00448 54.75359
# Shear Modulus (GPa) = 5.97800 15.05283 10.51542
#
# Velocity S-wave (km/s) = 1.81447 2.87926 2.40649
# Velocity P-wave (km/s) = 5.67480 6.59920 6.15438
#
# Compressibility (1/GPa) = 0.01980093
#
# Stress axis : x y z
#
# Youngs Moduli (GPa) = 51.93835 97.26422 66.27197
#
# Poissons Ratio (x) = 0.60704 0.19157
# Poissons Ratio (y) = 0.32416 0.21736
# Poissons Ratio (z) = 0.15014 0.31900
#
# Static dielectric constant tensor:
#      x y z
#    x 1.632990 0.000000 0.000000 
#    y 0.000000 1.645370 0.000000 
#    z 0.000000 0.000000 1.643470 
# 
# From -- ./inp_files/43614.got.cif
#   From: 2010.05.17/outbox.cif.g08.bks.cpg/sg71_22_cif.got.tgz:43614.got - 2010.06.03 16:22:01.
