data_PCOD9522008
_publ_section_title
;
Structure prediction by ZEFSAII (Michael W. Deem and Ramdas Pophale) SiO2 
 PCOD9522008
Probable space group: I M M M
;
_chemical_formula_sum "Si O2"
_cell_formula_units_Z 104
_cell_length_a 21.816557
_cell_length_b 24.617200
_cell_length_c 10.065169
_cell_angle_alpha 90.000000
_cell_angle_beta 90.000000
_cell_angle_gamma 90.000000
_cell_volume 5405.625299
_symmetry_space_group_name_H-M "I M M M"
_symmetry_group_IT_number 71
_symmetry_cell_setting 'orthorhombic'
loop_
_space_group_symop_operation_xyz
x,y,z
-x,-y,z
x,-y,-z
-x,y,-z
-x,-y,-z
x,y,-z
-x,y,z
x,-y,z
1/2+x,1/2+y,1/2+z
1/2-x,1/2-y,1/2+z
1/2+x,1/2-y,1/2-z
1/2-x,1/2+y,1/2-z
1/2-x,1/2-y,1/2-z
1/2+x,1/2+y,1/2-z
1/2-x,1/2+y,1/2+z
1/2+x,1/2-y,1/2+z
loop_
_atom_site_type_symbol
_atom_site_label
_atom_site_fract_x
_atom_site_fract_y
_atom_site_fract_z
Si Si1 0.104999 0.379994 0.844286
Si Si2 0.697739 0.271827 0.848573
Si Si3 0.751973 0.611201 0.144777
Si Si4 0.828608 0.064453 0.147347
Si Si5 0.426610 0.000000 0.347079
Si Si6 0.068407 0.717747 0.657798
Si Si7 0.429655 0.433765 0.851779
O O1 0.177933 0.370457 0.843948
O O2 0.094258 0.441622 0.793449
O O3 0.074608 0.335420 0.750168
O O4 0.084174 0.376733 0.000000
O O5 0.750000 0.250000 0.750000
O O6 0.708943 0.336109 0.850922
O O7 0.628248 0.254747 0.812737
O O8 0.708928 0.251780 0.000000
O O9 0.731824 0.574790 0.266887
O O10 0.744962 0.583895 0.000000
O O11 0.885231 0.085010 0.235855
O O12 0.836879 0.000000 0.136056
O O13 0.825878 0.088219 0.000000
O O14 0.500000 0.000000 0.346707
O O15 0.403877 0.000000 0.500000
O O16 0.071998 0.704269 0.500000
O O17 0.000000 0.741813 0.679594
O O18 0.500000 0.417500 0.831458
O O19 0.428446 0.500000 0.852826
O O20 0.410313 0.416080 0.000000
#
# Coordination Sequence:
#
# PCOD9522008 Si02
#       7
#    16  16  16  16   8  16  16
#     4  10  20  35  57  83 111 149 195 238 279 329
#     4  10  20  37  59  83 111 143 185 234 287 344
#     4  10  21  35  54  80 108 143 192 240 284 334
#     4  10  21  34  49  74 108 146 186 229 281 336
#     4   9  18  32  51  79 115 151 186 231 284 329
#     4  10  21  37  59  87 118 150 183 226 286 350
#     4   8  14  27  48  71  94 126 171 219 268 323
#
# _framework density 19.239217
#
# number of rings (size 3 to 8) (size 9 to 14) (size 15 to 20)
#    0.000    2.385    1.538    1.385    1.077    3.385 
#    0.000    2.692    0.000    4.154    0.000    0.000 
#    0.000    0.000    0.000    0.000    0.000    0.000 
#
# Total GULP energy -289751.273261 kJ/mol
# GULP energy per Si atom -5572.139870 kJ/mol
# Density = 1.919543 g / cm^3
# Si number density = 19.239217 Si / 1000 Ang^3
#
#
#
# Elastic Constant Matrix: (Units=GPa)
#
#
# Indices 1 2 3 4 5 6 
#
# 1 118.9677 25.2004 49.0226 0.0000 0.0000 0.0000
# 2 25.2004 43.6976 6.4948 0.0000 0.0000 0.0000
# 3 49.0226 6.4948 103.0789 0.0000 0.0000 0.0000
# 4 0.0000 0.0000 0.0000 21.5938 0.0000 0.0000
# 5 0.0000 0.0000 0.0000 0.0000 14.6155 0.0000
# 6 0.0000 0.0000 0.0000 0.0000 0.0000 25.9657
#
#
#
# Elastic Compliance Matrix: (Units=1/GPa)
#
#
# Indices 1 2 3 4 5 6 
#
# 1 0.011854 -0.006055 -0.005256 0.000000 0.000000 0.000000
# 2 -0.006055 0.026194 0.001229 0.000000 0.000000 0.000000
# 3 -0.005256 0.001229 0.012124 0.000000 0.000000 0.000000
# 4 0.000000 0.000000 0.000000 0.046310 0.000000 0.000000
# 5 0.000000 0.000000 0.000000 0.000000 0.068421 0.000000
# 6 0.000000 0.000000 0.000000 0.000000 0.000000 0.038512
#
#
# Mechanical properties :
#
#
# Convention : Reuss Voigt Hill
#
# Bulk Modulus (GPa) = 33.32483 47.46443 40.39463
# Shear Modulus (GPa) = 21.40590 24.77008 23.08799
#
# Velocity S-wave (km/s) = 3.33921 3.59204 3.46793
# Velocity P-wave (km/s) = 5.67680 6.47517 6.08908
#
# Compressibility (1/GPa) = 0.03000765
#
# Stress axis : x y z
#
# Youngs Moduli (GPa) = 84.35892 38.17704 82.48403
#
# Poissons Ratio (x) = 0.23116 0.43354
# Poissons Ratio (y) = 0.51080 -0.10139
# Poissons Ratio (z) = 0.44340 -0.04693
#
# Static dielectric constant tensor:
#      x y z
#    x 1.691480 0.000000 0.000000 
#    y 0.000000 1.688600 0.000000 
#    z 0.000000 0.000000 1.690690 
# 
# From -- ./inp_files/11157.got.cif
#   From: 2010.05.17/outbox.cif.g08.bks.cpg/sg71_6_cif.got.tgz:11157.got - 2010.06.03 16:22:01.
