data_PCOD9522213
_publ_section_title
;
Structure prediction by ZEFSAII (Michael W. Deem and Ramdas Pophale) SiO2 
 PCOD9522213
Probable space group: I M M M
;
_chemical_formula_sum "Si O2"
_cell_formula_units_Z 72
_cell_length_a 32.591622
_cell_length_b 14.697518
_cell_length_c 7.651572
_cell_angle_alpha 90.000000
_cell_angle_beta 90.000000
_cell_angle_gamma 90.000000
_cell_volume 3665.225038
_symmetry_space_group_name_H-M "I M M M"
_symmetry_group_IT_number 71
_symmetry_cell_setting 'orthorhombic'
loop_
_space_group_symop_operation_xyz
x,y,z
-x,-y,z
x,-y,-z
-x,y,-z
-x,-y,-z
x,y,-z
-x,y,z
x,-y,z
1/2+x,1/2+y,1/2+z
1/2-x,1/2-y,1/2+z
1/2+x,1/2-y,1/2-z
1/2-x,1/2+y,1/2-z
1/2-x,1/2-y,1/2-z
1/2+x,1/2+y,1/2-z
1/2-x,1/2+y,1/2+z
1/2+x,1/2-y,1/2+z
loop_
_atom_site_type_symbol
_atom_site_label
_atom_site_fract_x
_atom_site_fract_y
_atom_site_fract_z
Si Si1 0.240066 0.103802 0.211007
Si Si2 0.408697 0.216969 0.200556
Si Si3 0.952773 0.899005 0.712351
Si Si4 0.684166 0.230576 0.292447
Si Si5 0.952612 0.608395 0.000000
O O1 0.283327 0.149957 0.259680
O O2 0.205518 0.175735 0.271889
O O3 0.235862 0.000000 0.273809
O O4 0.238011 0.102165 0.000000
O O5 0.423549 0.316838 0.263159
O O6 0.359694 0.212639 0.209111
O O7 0.429518 0.146148 0.330138
O O8 0.422307 0.204243 0.000000
O O9 0.952643 0.901383 0.500000
O O10 0.000000 0.882189 0.766021
O O11 0.940682 0.000000 0.773164
O O12 0.677880 0.238490 0.500000
O O13 0.951900 0.500000 0.000000
O O14 0.000000 0.639409 0.000000
#
# Coordination Sequence:
#
# PCOD9522213 Si02
#       5
#    16  16  16  16   8
#     4   9  19  36  58  83 115 158 201 245 299 358
#     4  11  22  39  64  91 122 164 204 251 308 368
#     4   8  15  30  54  85 118 151 191 238 291 356
#     4  10  20  36  56  84 121 156 197 249 299 356
#     4  11  26  46  65  89 121 157 208 270 319 363
#
# _framework density 19.644088
#
# number of rings (size 3 to 8) (size 9 to 14) (size 15 to 20)
#    0.000    2.333    1.111    2.000    0.000    4.889 
#    0.000    1.667    0.000    2.000    0.000    0.000 
#    0.000    0.000    0.000    0.000    0.000    0.000 
#
# Total GULP energy -200993.840291 kJ/mol
# GULP energy per Si atom -5583.162230 kJ/mol
# Density = 1.959938 g / cm^3
# Si number density = 19.644088 Si / 1000 Ang^3
#
#
#
# Elastic Constant Matrix: (Units=GPa)
#
#
# Indices 1 2 3 4 5 6 
#
# 1 110.1782 47.0294 27.6902 0.0000 0.0000 0.0000
# 2 47.0294 111.1804 32.8156 0.0000 0.0000 0.0000
# 3 27.6902 32.8156 76.9821 0.0000 0.0000 0.0000
# 4 0.0000 0.0000 0.0000 20.3485 0.0000 0.0000
# 5 0.0000 0.0000 0.0000 0.0000 -60.9641 0.0000
# 6 0.0000 0.0000 0.0000 0.0000 0.0000 93.7505
#
#
#
# Elastic Compliance Matrix: (Units=1/GPa)
#
#
# Indices 1 2 3 4 5 6 
#
# 1 0.011435 -0.004144 -0.002346 0.000000 0.000000 0.000000
# 2 -0.004144 0.011791 -0.003535 0.000000 0.000000 0.000000
# 3 -0.002346 -0.003535 0.015341 0.000000 0.000000 0.000000
# 4 0.000000 0.000000 0.000000 0.049144 0.000000 0.000000
# 5 0.000000 0.000000 0.000000 0.000000 -0.016403 0.000000
# 6 0.000000 0.000000 0.000000 0.000000 0.000000 0.010667
#
#
# Mechanical properties :
#
#
# Convention : Reuss Voigt Hill
#
# Bulk Modulus (GPa) = 54.01208 57.04569 55.52888
# Shear Modulus (GPa) = 46.21141 23.34734 34.77938
#
# Velocity S-wave (km/s) = 4.85545 3.45123 4.21227
# Velocity P-wave (km/s) = 7.68042 6.70701 7.21016
#
# Compressibility (1/GPa) = 0.01851438
#
# Stress axis : x y z
#
# Youngs Moduli (GPa) = 87.45104 84.81038 65.18424
#
# Poissons Ratio (x) = 0.35149 0.15295
# Poissons Ratio (y) = 0.36243 0.23046
# Poissons Ratio (z) = 0.20520 0.29985
#
# Static dielectric constant tensor:
#      x y z
#    x 1.656480 0.000000 0.000000 
#    y 0.000000 1.682680 0.000000 
#    z 0.000000 0.000000 1.720200 
# 
# From -- ./inp_files/16373.got.cif
#   From: 2010.05.17/outbox.cif.g08.bks.cpg/sg71_9_cif.got.tgz:16373.got - 2010.06.03 16:22:01.
