data_PCOD9522738
_publ_section_title
;
Structure prediction by ZEFSAII (Michael W. Deem and Ramdas Pophale) SiO2 
 PCOD9522738
Probable space group: I M M M
;
_chemical_formula_sum "Si O2"
_cell_formula_units_Z 66
_cell_length_a 7.378050
_cell_length_b 20.772312
_cell_length_c 19.265052
_cell_angle_alpha 90.000000
_cell_angle_beta 90.000000
_cell_angle_gamma 90.000000
_cell_volume 2952.545620
_symmetry_space_group_name_H-M "I M M M"
_symmetry_group_IT_number 71
_symmetry_cell_setting 'orthorhombic'
loop_
_space_group_symop_operation_xyz
x,y,z
-x,-y,z
x,-y,-z
-x,y,-z
-x,-y,-z
x,y,-z
-x,y,z
x,-y,z
1/2+x,1/2+y,1/2+z
1/2-x,1/2-y,1/2+z
1/2+x,1/2-y,1/2-z
1/2-x,1/2+y,1/2-z
1/2-x,1/2-y,1/2-z
1/2+x,1/2+y,1/2-z
1/2-x,1/2+y,1/2+z
1/2+x,1/2-y,1/2+z
loop_
_atom_site_type_symbol
_atom_site_label
_atom_site_fract_x
_atom_site_fract_y
_atom_site_fract_z
Si Si1 0.716873 0.234491 0.423646
Si Si2 0.000000 0.500000 0.000000
Si Si3 0.221939 0.135630 0.854444
Si Si4 0.785322 0.133562 0.698718
Si Si5 0.778578 0.000000 0.628958
Si Si6 0.720913 0.500000 0.419485
O O1 0.784276 0.213998 0.500000
O O2 0.500000 0.237686 0.428391
O O3 0.781753 0.305583 0.402968
O O4 0.752269 0.185594 0.361081
O O5 0.159832 0.500000 0.060085
O O6 0.284836 0.148398 0.775646
O O7 0.278335 0.065558 0.881492
O O8 0.000000 0.136032 0.855775
O O9 0.728611 0.063759 0.671835
O O10 0.000000 0.129829 0.707089
O O11 0.000000 0.000000 0.617289
O O12 0.500000 0.500000 0.418507
O O13 0.776097 0.500000 0.500000
#
# Coordination Sequence:
#
# PCOD9522738 Si02
#       6
#    16   2  16  16   8   8
#     4  10  21  34  53  81 114 145 189 243 295 354
#     4  12  26  40  68  86 128 160 196 250 324 346
#     4   9  17  32  52  79 112 148 186 234 291 355
#     4  10  21  37  57  79 111 152 193 238 290 351
#     4  10  24  41  61  92 121 157 208 250 296 366
#     4   9  15  25  50  81 110 139 175 225 291 353
#
# _framework density 22.353591999999999
#
# number of rings (size 3 to 8) (size 9 to 14) (size 15 to 20)
#    0.000    2.303    0.000    2.364    3.394    6.303 
#    0.000    0.000    0.000    0.000    0.000    0.000 
#    0.000    3.879    0.000    0.000    0.000    0.000 
#
# Total GULP energy -184109.985847 kJ/mol
# GULP energy per Si atom -5579.090480 kJ/mol
# Density = 2.230271 g / cm^3
# Si number density = 22.353592 Si / 1000 Ang^3
#
#
#
# Elastic Constant Matrix: (Units=GPa)
#
#
# Indices 1 2 3 4 5 6 
#
# 1 75.7445 -18.5145 -7.5194 0.0000 0.0000 0.0000
# 2 -18.5145 132.5982 46.8859 0.0000 0.0000 0.0000
# 3 -7.5194 46.8859 161.9569 0.0000 0.0000 0.0000
# 4 0.0000 0.0000 0.0000 65.5057 0.0000 0.0000
# 5 0.0000 0.0000 0.0000 0.0000 7.8270 0.0000
# 6 0.0000 0.0000 0.0000 0.0000 0.0000 14.5157
#
#
#
# Elastic Compliance Matrix: (Units=1/GPa)
#
#
# Indices 1 2 3 4 5 6 
#
# 1 0.013670 0.001876 0.000091 0.000000 0.000000 0.000000
# 2 0.001876 0.008659 -0.002420 0.000000 0.000000 0.000000
# 3 0.000091 -0.002420 0.006879 0.000000 0.000000 0.000000
# 4 0.000000 0.000000 0.000000 0.015266 0.000000 0.000000
# 5 0.000000 0.000000 0.000000 0.000000 0.127762 0.000000
# 6 0.000000 0.000000 0.000000 0.000000 0.000000 0.068891
#
#
# Mechanical properties :
#
#
# Convention : Reuss Voigt Hill
#
# Bulk Modulus (GPa) = 35.32978 45.77818 40.55398
# Shear Modulus (GPa) = 19.88341 40.86618 30.37480
#
# Velocity S-wave (km/s) = 2.98568 4.28035 3.69023
# Velocity P-wave (km/s) = 5.26545 6.70463 6.02814
#
# Compressibility (1/GPa) = 0.02830473
#
# Stress axis : x y z
#
# Youngs Moduli (GPa) = 73.15282 115.48462 145.36534
#
# Poissons Ratio (x) = -0.21669 -0.01330
# Poissons Ratio (y) = -0.13726 0.35174
# Poissons Ratio (z) = -0.00669 0.27944
#
# Static dielectric constant tensor:
#      x y z
#    x 1.887670 0.000000 0.000000 
#    y 0.000000 1.691950 0.000000 
#    z 0.000000 0.000000 1.788660 
# 
# From -- ./inp_files/7655.got.cif
#   From: 2010.05.17/outbox.cif.g08.bks.cpg/sg71_4_cif.got.tgz:7655.got - 2010.06.03 16:22:01.
