data_PCOD9522066
_publ_section_title
;
Structure prediction by ZEFSAII (Michael W. Deem and Ramdas Pophale) SiO2 
 PCOD9522066
Probable space group: I M M M
;
_chemical_formula_sum "Si O2"
_cell_formula_units_Z 72
_cell_length_a 27.768018
_cell_length_b 9.614959
_cell_length_c 13.981734
_cell_angle_alpha 90.000000
_cell_angle_beta 90.000000
_cell_angle_gamma 90.000000
_cell_volume 3732.960155
_symmetry_space_group_name_H-M "I M M M"
_symmetry_group_IT_number 71
_symmetry_cell_setting 'orthorhombic'
loop_
_space_group_symop_operation_xyz
x,y,z
-x,-y,z
x,-y,-z
-x,y,-z
-x,-y,-z
x,y,-z
-x,y,z
x,-y,z
1/2+x,1/2+y,1/2+z
1/2-x,1/2-y,1/2+z
1/2+x,1/2-y,1/2-z
1/2-x,1/2+y,1/2-z
1/2-x,1/2-y,1/2-z
1/2+x,1/2+y,1/2-z
1/2-x,1/2+y,1/2+z
1/2+x,1/2-y,1/2+z
loop_
_atom_site_type_symbol
_atom_site_label
_atom_site_fract_x
_atom_site_fract_y
_atom_site_fract_z
Si Si1 0.056871 0.500000 0.391101
Si Si2 0.372705 0.336030 0.612275
Si Si3 0.056718 0.215636 0.717823
Si Si4 0.699846 0.167878 0.260270
Si Si5 0.147229 0.149987 0.387847
O O1 0.078737 0.500000 0.500000
O O2 0.065049 0.630409 0.323003
O O3 0.000000 0.500000 0.407402
O O4 0.381216 0.313670 0.500000
O O5 0.359897 0.500000 0.626010
O O6 0.419522 0.307150 0.678252
O O7 0.330791 0.235475 0.652407
O O8 0.091919 0.138549 0.644499
O O9 0.000000 0.182287 0.715917
O O10 0.750000 0.250000 0.250000
O O11 0.670423 0.222029 0.167893
O O12 0.703658 0.000000 0.265590
O O13 0.151062 0.168425 0.500000
O O14 0.170531 0.000000 0.361671
#
# Coordination Sequence:
#
# PCOD9522066 Si02
#       5
#     8  16  16  16  16
#     4   9  18  32  51  79 117 159 200 246 303 363
#     4  10  23  42  62  88 124 164 208 257 310 365
#     4  10  20  35  57  87 121 163 209 253 302 355
#     4  11  23  41  66  92 119 154 197 248 308 369
#     4  10  22  38  57  87 125 160 198 246 300 362
#
# _framework density 19.287642999999999
#
# number of rings (size 3 to 8) (size 9 to 14) (size 15 to 20)
#    0.000    1.889    0.000    4.667    6.222    5.333 
#    0.000    2.222    0.000    2.000    0.000    0.000 
#    0.000    0.000    0.000    0.000    0.000    0.000 
#
# Total GULP energy -200483.567726 kJ/mol
# GULP energy per Si atom -5568.987992 kJ/mol
# Density = 1.924374 g / cm^3
# Si number density = 19.287643 Si / 1000 Ang^3
#
#
#
# Elastic Constant Matrix: (Units=GPa)
#
#
# Indices 1 2 3 4 5 6 
#
# 1 105.8889 44.9653 10.6223 0.0000 0.0000 0.0000
# 2 44.9653 184.1061 52.4535 0.0000 0.0000 0.0000
# 3 10.6223 52.4535 118.0972 0.0000 0.0000 0.0000
# 4 0.0000 0.0000 0.0000 29.6973 0.0000 0.0000
# 5 0.0000 0.0000 0.0000 0.0000 2.7782 0.0000
# 6 0.0000 0.0000 0.0000 0.0000 0.0000 65.3541
#
#
#
# Elastic Compliance Matrix: (Units=1/GPa)
#
#
# Indices 1 2 3 4 5 6 
#
# 1 0.010542 -0.002638 0.000224 0.000000 0.000000 0.000000
# 2 -0.002638 0.006879 -0.002818 0.000000 0.000000 0.000000
# 3 0.000224 -0.002818 0.009699 0.000000 0.000000 0.000000
# 4 0.000000 0.000000 0.000000 0.033673 0.000000 0.000000
# 5 0.000000 0.000000 0.000000 0.000000 0.359950 0.000000
# 6 0.000000 0.000000 0.000000 0.000000 0.000000 0.015301
#
#
# Mechanical properties :
#
#
# Convention : Reuss Voigt Hill
#
# Bulk Modulus (GPa) = 60.04429 69.35274 64.69852
# Shear Modulus (GPa) = 11.06044 39.56931 25.31487
#
# Velocity S-wave (km/s) = 2.39727 4.53430 3.62676
# Velocity P-wave (km/s) = 6.23387 7.96545 7.15225
#
# Compressibility (1/GPa) = 0.01665437
#
# Stress axis : x y z
#
# Youngs Moduli (GPa) = 94.86032 145.37161 103.10219
#
# Poissons Ratio (x) = 0.38355 -0.02306
# Poissons Ratio (y) = 0.25028 0.29054
# Poissons Ratio (z) = -0.02122 0.40966
#
# Static dielectric constant tensor:
#      x y z
#    x 1.710690 0.000000 0.000000 
#    y 0.000000 1.769630 0.000000 
#    z 0.000000 0.000000 1.661560 
# 
# From -- ./inp_files/14336.got.cif
#   From: 2010.05.17/outbox.cif.g08.bks.cpg/sg71_8_cif.got.tgz:14336.got - 2010.06.03 16:22:01.
