data_PCOD9522189
_publ_section_title
;
Structure prediction by ZEFSAII (Michael W. Deem and Ramdas Pophale) SiO2 
 PCOD9522189
Probable space group: I M M M
;
_chemical_formula_sum "Si O2"
_cell_formula_units_Z 72
_cell_length_a 28.088308
_cell_length_b 16.805790
_cell_length_c 7.834707
_cell_angle_alpha 90.000000
_cell_angle_beta 90.000000
_cell_angle_gamma 90.000000
_cell_volume 3698.343712
_symmetry_space_group_name_H-M "I M M M"
_symmetry_group_IT_number 71
_symmetry_cell_setting 'orthorhombic'
loop_
_space_group_symop_operation_xyz
x,y,z
-x,-y,z
x,-y,-z
-x,y,-z
-x,-y,-z
x,y,-z
-x,y,z
x,-y,z
1/2+x,1/2+y,1/2+z
1/2-x,1/2-y,1/2+z
1/2+x,1/2-y,1/2-z
1/2-x,1/2+y,1/2-z
1/2-x,1/2-y,1/2-z
1/2+x,1/2+y,1/2-z
1/2-x,1/2+y,1/2+z
1/2+x,1/2-y,1/2+z
loop_
_atom_site_type_symbol
_atom_site_label
_atom_site_fract_x
_atom_site_fract_y
_atom_site_fract_z
Si Si1 0.445996 0.175759 0.706918
Si Si2 0.395159 0.662686 0.703722
Si Si3 0.194949 0.254304 0.703443
Si Si4 0.444222 0.500000 0.709379
Si Si5 0.855036 0.586860 0.296715
O O1 0.445384 0.176497 0.500000
O O2 0.500000 0.165514 0.763696
O O3 0.424749 0.260609 0.767760
O O4 0.410114 0.107934 0.767075
O O5 0.401352 0.661034 0.500000
O O6 0.339898 0.683299 0.737382
O O7 0.416661 0.579621 0.767774
O O8 0.190967 0.255744 0.500000
O O9 0.250000 0.250000 0.750000
O O10 0.173626 0.337449 0.774111
O O11 0.500000 0.500000 0.759354
O O12 0.443766 0.500000 0.500000
O O13 0.846494 0.584757 0.500000
O O14 0.842912 0.500000 0.226155
#
# Coordination Sequence:
#
# PCOD9522189 Si02
#       5
#    16  16  16   8  16
#     4   9  17  29  47  72 102 134 165 199 241 287
#     4   9  17  31  51  75 103 135 172 210 249 296
#     4  10  20  36  56  74  97 128 165 209 257 307
#     4   9  16  28  51  81 109 139 177 217 252 297
#     4   9  19  35  52  71  95 125 162 202 241 288
#
# _framework density 19.468174000000001
#
# number of rings (size 3 to 8) (size 9 to 14) (size 15 to 20)
#    0.000    2.778    0.000    1.333    0.000    4.889 
#    2.000    2.778    0.000    2.667    0.000    0.000 
#    0.000    0.000    0.000    0.000    0.000    0.000 
#
# Total GULP energy -200715.061051 kJ/mol
# GULP energy per Si atom -5575.418363 kJ/mol
# Density = 1.942386 g / cm^3
# Si number density = 19.468174 Si / 1000 Ang^3
#
#
#
# Elastic Constant Matrix: (Units=GPa)
#
#
# Indices 1 2 3 4 5 6 
#
# 1 138.4924 61.7239 -12.1563 0.0000 0.0000 0.0000
# 2 61.7239 134.1609 5.4386 0.0000 0.0000 0.0000
# 3 -12.1563 5.4386 19.1078 0.0000 0.0000 0.0000
# 4 0.0000 0.0000 0.0000 15.0981 0.0000 0.0000
# 5 0.0000 0.0000 0.0000 0.0000 22.9888 0.0000
# 6 0.0000 0.0000 0.0000 0.0000 0.0000 15.2926
#
#
#
# Elastic Compliance Matrix: (Units=1/GPa)
#
#
# Indices 1 2 3 4 5 6 
#
# 1 0.010130 -0.004979 0.007862 0.000000 0.000000 0.000000
# 2 -0.004979 0.009988 -0.006011 0.000000 0.000000 0.000000
# 3 0.007862 -0.006011 0.059047 0.000000 0.000000 0.000000
# 4 0.000000 0.000000 0.000000 0.066233 0.000000 0.000000
# 5 0.000000 0.000000 0.000000 0.000000 0.043499 0.000000
# 6 0.000000 0.000000 0.000000 0.000000 0.000000 0.065391
#
#
# Mechanical properties :
#
#
# Convention : Reuss Voigt Hill
#
# Bulk Modulus (GPa) = 13.71570 44.64148 29.17859
# Shear Modulus (GPa) = 17.55319 26.45955 22.00637
#
# Velocity S-wave (km/s) = 3.00598 3.69062 3.36575
# Velocity P-wave (km/s) = 4.37131 6.41414 5.48860
#
# Compressibility (1/GPa) = 0.07290917
#
# Stress axis : x y z
#
# Youngs Moduli (GPa) = 98.71828 100.11826 16.93560
#
# Poissons Ratio (x) = 0.49851 -0.13314
# Poissons Ratio (y) = 0.49154 0.10179
# Poissons Ratio (z) = -0.77610 0.60178
#
# Static dielectric constant tensor:
#      x y z
#    x 1.679260 0.000000 0.000000 
#    y 0.000000 1.699970 0.000000 
#    z 0.000000 0.000000 1.718820 
# 
# From -- ./inp_files/6037.got.cif
#   From: 2010.05.17/outbox.cif.g08.bks.cpg/sg71_4_cif.got.tgz:6037.got - 2010.06.03 16:22:01.
