data_PCOD9522164
_publ_section_title
;
Structure prediction by ZEFSAII (Michael W. Deem and Ramdas Pophale) SiO2 
 PCOD9522164
Probable space group: I M M M
;
_chemical_formula_sum "Si O2"
_cell_formula_units_Z 64
_cell_length_a 25.133652
_cell_length_b 7.865159
_cell_length_c 16.286973
_cell_angle_alpha 90.000000
_cell_angle_beta 90.000000
_cell_angle_gamma 90.000000
_cell_volume 3219.611579
_symmetry_space_group_name_H-M "I M M M"
_symmetry_group_IT_number 71
_symmetry_cell_setting 'orthorhombic'
loop_
_space_group_symop_operation_xyz
x,y,z
-x,-y,z
x,-y,-z
-x,y,-z
-x,-y,-z
x,y,-z
-x,y,z
x,-y,z
1/2+x,1/2+y,1/2+z
1/2-x,1/2-y,1/2+z
1/2+x,1/2-y,1/2-z
1/2-x,1/2+y,1/2-z
1/2-x,1/2-y,1/2-z
1/2+x,1/2+y,1/2-z
1/2-x,1/2+y,1/2+z
1/2+x,1/2-y,1/2+z
loop_
_atom_site_type_symbol
_atom_site_label
_atom_site_fract_x
_atom_site_fract_y
_atom_site_fract_z
Si Si1 0.863815 0.305019 0.599297
Si Si2 0.939640 0.000000 0.155194
Si Si3 0.060323 0.000000 0.351096
Si Si4 0.631976 0.811959 0.400650
Si Si5 0.753424 0.795262 0.903499
O O1 0.860583 0.309721 0.500000
O O2 0.874528 0.500000 0.626253
O O3 0.804838 0.251096 0.630543
O O4 0.907518 0.167666 0.622583
O O5 0.941960 0.000000 0.253098
O O6 0.907036 0.165026 0.127715
O O7 0.000000 0.000000 0.122475
O O8 0.000000 0.000000 0.383839
O O9 0.634105 0.803991 0.500000
O O10 0.692309 0.781711 0.368974
O O11 0.614011 0.000000 0.376251
O O12 0.757895 0.000000 0.900010
O O13 0.752384 0.746330 0.000000
#
# Coordination Sequence:
#
# PCOD9522164 Si02
#       5
#    16   8   8  16  16
#     4   9  19  36  61  90 116 146 187 238 288 337
#     4  11  25  43  57  75 115 163 198 235 282 335
#     4  11  25  41  57  79 113 161 204 233 278 341
#     4  10  20  35  61  91 113 143 188 238 290 342
#     4   8  14  29  56  87 117 144 174 222 287 345
#
# _framework density 19.878174999999999
#
# number of rings (size 3 to 8) (size 9 to 14) (size 15 to 20)
#    0.000    2.500    1.250    2.250    1.750    4.000 
#    0.000    6.250    0.000    0.000    0.000    0.000 
#    0.000    0.000    0.000    0.000    0.000    0.000 
#
# Total GULP energy -178528.898508 kJ/mol
# GULP energy per Si atom -5579.028078 kJ/mol
# Density = 1.983293 g / cm^3
# Si number density = 19.878175 Si / 1000 Ang^3
#
#
#
# Elastic Constant Matrix: (Units=GPa)
#
#
# Indices 1 2 3 4 5 6 
#
# 1 192.1629 122.8325 17.4776 0.0000 0.0000 0.0000
# 2 122.8325 150.5067 18.9243 0.0000 0.0000 0.0000
# 3 17.4776 18.9243 15.5923 0.0000 0.0000 0.0000
# 4 0.0000 0.0000 0.0000 -27.0240 0.0000 0.0000
# 5 0.0000 0.0000 0.0000 0.0000 40.3943 0.0000
# 6 0.0000 0.0000 0.0000 0.0000 0.0000 79.8882
#
#
#
# Elastic Compliance Matrix: (Units=1/GPa)
#
#
# Indices 1 2 3 4 5 6 
#
# 1 0.010917 -0.008698 -0.001680 0.000000 0.000000 0.000000
# 2 -0.008698 0.014771 -0.008178 0.000000 0.000000 0.000000
# 3 -0.001680 -0.008178 0.075942 0.000000 0.000000 0.000000
# 4 0.000000 0.000000 0.000000 -0.037004 0.000000 0.000000
# 5 0.000000 0.000000 0.000000 0.000000 0.024756 0.000000
# 6 0.000000 0.000000 0.000000 0.000000 0.000000 0.012517
#
#
# Mechanical properties :
#
#
# Convention : Reuss Voigt Hill
#
# Bulk Modulus (GPa) = 15.49939 75.19230 45.34585
# Shear Modulus (GPa) = 31.14928 31.92019 31.53474
#
# Velocity S-wave (km/s) = 3.96284 4.01158 3.98728
# Velocity P-wave (km/s) = 5.36218 7.70491 6.63772
#
# Compressibility (1/GPa) = 0.06451866
#
# Stress axis : x y z
#
# Youngs Moduli (GPa) = 91.60319 67.69886 13.16789
#
# Poissons Ratio (x) = 0.58886 0.02212
# Poissons Ratio (y) = 0.79678 0.10769
# Poissons Ratio (z) = 0.15387 0.55364
#
# Static dielectric constant tensor:
#      x y z
#    x 1.717040 0.000000 0.000000 
#    y 0.000000 1.694800 0.000000 
#    z 0.000000 0.000000 1.708420 
# 
# From -- ./inp_files/54628.got.cif
#   From: 2010.05.17/outbox.cif.g08.bks.cpg/sg71_28_cif.got.tgz:54628.got - 2010.06.03 16:22:01.
