data_PCOD9522193
_publ_section_title
;
Structure prediction by ZEFSAII (Michael W. Deem and Ramdas Pophale) SiO2 
 PCOD9522193
Probable space group: I M M M
;
_chemical_formula_sum "Si O2"
_cell_formula_units_Z 72
_cell_length_a 28.260535
_cell_length_b 16.672061
_cell_length_c 8.338371
_cell_angle_alpha 90.000000
_cell_angle_beta 90.000000
_cell_angle_gamma 90.000000
_cell_volume 3928.718249
_symmetry_space_group_name_H-M "I M M M"
_symmetry_group_IT_number 71
_symmetry_cell_setting 'orthorhombic'
loop_
_space_group_symop_operation_xyz
x,y,z
-x,-y,z
x,-y,-z
-x,y,-z
-x,-y,-z
x,y,-z
-x,y,z
x,-y,z
1/2+x,1/2+y,1/2+z
1/2-x,1/2-y,1/2+z
1/2+x,1/2-y,1/2-z
1/2-x,1/2+y,1/2-z
1/2-x,1/2-y,1/2-z
1/2+x,1/2+y,1/2-z
1/2-x,1/2+y,1/2+z
1/2+x,1/2-y,1/2+z
loop_
_atom_site_type_symbol
_atom_site_label
_atom_site_fract_x
_atom_site_fract_y
_atom_site_fract_z
Si Si1 0.445980 0.170942 0.693805
Si Si2 0.394679 0.663943 0.695263
Si Si3 0.196758 0.253523 0.810612
Si Si4 0.444722 0.500000 0.696423
Si Si5 0.854886 0.589429 0.309429
O O1 0.442855 0.164591 0.500000
O O2 0.500000 0.158832 0.741878
O O3 0.428088 0.260506 0.736771
O O4 0.409320 0.109223 0.769824
O O5 0.393319 0.660634 0.500000
O O6 0.341904 0.688557 0.752415
O O7 0.417137 0.580226 0.749573
O O8 0.250000 0.250000 0.750000
O O9 0.175051 0.340376 0.771548
O O10 0.198132 0.242558 0.000000
O O11 0.500000 0.500000 0.745134
O O12 0.444778 0.500000 0.500000
O O13 0.847629 0.593902 0.500000
O O14 0.842657 0.500000 0.253978
#
# Coordination Sequence:
#
# PCOD9522193 Si02
#       5
#    16  16  16   8  16
#     4   9  17  30  49  73 103 139 175 210 254 310
#     4   8  15  27  44  70 102 134 168 208 250 302
#     4  10  20  36  56  76 102 135 173 214 263 318
#     4   9  14  22  42  72 105 135 163 201 250 301
#     4  10  21  36  53  75 102 132 171 218 264 310
#
# _framework density 18.326588999999998
#
# number of rings (size 3 to 8) (size 9 to 14) (size 15 to 20)
#    0.000    2.778    0.000    3.333    0.000    5.333 
#    2.000    2.222    0.000    0.000    0.000    7.000 
#    0.000   29.333    0.000    0.000    0.000    0.000 
#
# Total GULP energy -200684.158556 kJ/mol
# GULP energy per Si atom -5574.559960 kJ/mol
# Density = 1.828488 g / cm^3
# Si number density = 18.326589 Si / 1000 Ang^3
#
#
#
# Elastic Constant Matrix: (Units=GPa)
#
#
# Indices 1 2 3 4 5 6 
#
# 1 152.1815 49.1853 11.9259 0.0000 0.0000 0.0000
# 2 49.1853 99.2185 1.3850 0.0000 0.0000 0.0000
# 3 11.9259 1.3850 7.8750 0.0000 0.0000 0.0000
# 4 0.0000 0.0000 0.0000 14.5651 0.0000 0.0000
# 5 0.0000 0.0000 0.0000 0.0000 27.8071 0.0000
# 6 0.0000 0.0000 0.0000 0.0000 0.0000 11.0179
#
#
#
# Elastic Compliance Matrix: (Units=1/GPa)
#
#
# Indices 1 2 3 4 5 6 
#
# 1 0.008951 -0.004259 -0.012807 0.000000 0.000000 0.000000
# 2 -0.004259 0.012130 0.004316 0.000000 0.000000 0.000000
# 3 -0.012807 0.004316 0.145620 0.000000 0.000000 0.000000
# 4 0.000000 0.000000 0.000000 0.068657 0.000000 0.000000
# 5 0.000000 0.000000 0.000000 0.000000 0.035962 0.000000
# 6 0.000000 0.000000 0.000000 0.000000 0.000000 0.090761
#
#
# Mechanical properties :
#
#
# Convention : Reuss Voigt Hill
#
# Bulk Modulus (GPa) = 7.08203 42.69637 24.88920
# Shear Modulus (GPa) = 11.50357 23.79661 17.65009
#
# Velocity S-wave (km/s) = 2.50811 3.60734 3.10673
# Velocity P-wave (km/s) = 3.50146 6.37955 5.14582
#
# Compressibility (1/GPa) = 0.14120246
#
# Stress axis : x y z
#
# Youngs Moduli (GPa) = 111.71835 82.44301 6.86717
#
# Poissons Ratio (x) = 0.35109 0.08795
# Poissons Ratio (y) = 0.47576 -0.02964
# Poissons Ratio (z) = 1.43074 -0.35582
#
# Static dielectric constant tensor:
#      x y z
#    x 1.630360 0.000000 0.000000 
#    y 0.000000 1.623300 0.000000 
#    z 0.000000 0.000000 1.643510 
# 
# From -- ./inp_files/8182.got.cif
#   From: 2010.05.17/outbox.cif.g08.bks.cpg/sg71_5_cif.got.tgz:8182.got - 2010.06.03 16:22:01.
