data_PCOD9522831
_publ_section_title
;
Structure prediction by ZEFSAII (Michael W. Deem and Ramdas Pophale) SiO2 
 PCOD9522831
Probable space group: I M M M
;
_chemical_formula_sum "Si O2"
_cell_formula_units_Z 96
_cell_length_a 20.261013
_cell_length_b 14.946038
_cell_length_c 15.980905
_cell_angle_alpha 90.000000
_cell_angle_beta 90.000000
_cell_angle_gamma 90.000000
_cell_volume 4839.367540
_symmetry_space_group_name_H-M "I M M M"
_symmetry_group_IT_number 71
_symmetry_cell_setting 'orthorhombic'
loop_
_space_group_symop_operation_xyz
x,y,z
-x,-y,z
x,-y,-z
-x,y,-z
-x,-y,-z
x,y,-z
-x,y,z
x,-y,z
1/2+x,1/2+y,1/2+z
1/2-x,1/2-y,1/2+z
1/2+x,1/2-y,1/2-z
1/2-x,1/2+y,1/2-z
1/2-x,1/2-y,1/2-z
1/2+x,1/2+y,1/2-z
1/2-x,1/2+y,1/2+z
1/2+x,1/2-y,1/2+z
loop_
_atom_site_type_symbol
_atom_site_label
_atom_site_fract_x
_atom_site_fract_y
_atom_site_fract_z
Si Si1 0.623133 0.100653 0.406491
Si Si2 0.422305 0.798829 0.094367
Si Si3 0.327713 0.397407 0.302351
Si Si4 0.076433 0.098359 0.356237
Si Si5 0.069398 0.789867 0.903535
Si Si6 0.323728 0.105266 0.222788
O O1 0.654914 0.107917 0.500000
O O2 0.573268 0.182713 0.401386
O O3 0.666290 0.112321 0.323027
O O4 0.594938 0.000000 0.402098
O O5 0.500000 0.819338 0.110870
O O6 0.416066 0.690863 0.094532
O O7 0.375513 0.839259 0.166640
O O8 0.406000 0.831343 0.000000
O O9 0.329434 0.500000 0.333795
O O10 0.368615 0.397617 0.215998
O O11 0.367808 0.331136 0.360398
O O12 0.251871 0.369650 0.294743
O O13 0.000000 0.099978 0.325012
O O14 0.083984 0.000000 0.397718
O O15 0.000000 0.819836 0.864714
O O16 0.070048 0.817081 0.000000
O O17 0.332595 0.000000 0.202168
#
# Coordination Sequence:
#
# PCOD9522831 Si02
#       6
#    16  16  16  16  16  16
#     4   9  19  37  60  86 116 147 181 228 287 347
#     4  10  22  39  59  85 116 151 192 236 281 331
#     4  10  21  37  56  80 112 149 190 236 285 337
#     4   9  18  34  57  83 111 145 184 228 281 339
#     4  10  21  35  53  81 115 151 192 237 285 337
#     4  10  22  39  59  84 114 150 192 237 285 337
#
# _framework density 19.837302999999999
#
# number of rings (size 3 to 8) (size 9 to 14) (size 15 to 20)
#    0.000    2.333    0.000    1.500    0.000    8.000 
#    0.000   10.833    0.000    3.000    0.000    0.000 
#    0.000    0.000    0.000    0.000    0.000    0.000 
#
# Total GULP energy -267360.130583 kJ/mol
# GULP energy per Si atom -5570.002720 kJ/mol
# Density = 1.979215 g / cm^3
# Si number density = 19.837303 Si / 1000 Ang^3
#
#
#
# Elastic Constant Matrix: (Units=GPa)
#
#
# Indices 1 2 3 4 5 6 
#
# 1 134.9093 58.8681 74.3429 0.0000 0.0000 0.0000
# 2 58.8681 73.1087 56.9518 0.0000 0.0000 0.0000
# 3 74.3429 56.9518 113.0722 0.0000 0.0000 0.0000
# 4 0.0000 0.0000 0.0000 18.5446 0.0000 0.0000
# 5 0.0000 0.0000 0.0000 0.0000 15.0418 0.0000
# 6 0.0000 0.0000 0.0000 0.0000 0.0000 16.2040
#
#
#
# Elastic Compliance Matrix: (Units=1/GPa)
#
#
# Indices 1 2 3 4 5 6 
#
# 1 0.013210 -0.006371 -0.005477 0.000000 0.000000 0.000000
# 2 -0.006371 0.025583 -0.008697 0.000000 0.000000 0.000000
# 3 -0.005477 -0.008697 0.016825 0.000000 0.000000 0.000000
# 4 0.000000 0.000000 0.000000 0.053924 0.000000 0.000000
# 5 0.000000 0.000000 0.000000 0.000000 0.066481 0.000000
# 6 0.000000 0.000000 0.000000 0.000000 0.000000 0.061713
#
#
# Mechanical properties :
#
#
# Convention : Reuss Voigt Hill
#
# Bulk Modulus (GPa) = 68.82450 77.93510 73.37980
# Shear Modulus (GPa) = 17.62619 18.68658 18.15639
#
# Velocity S-wave (km/s) = 2.98407 3.07252 3.02862
# Velocity P-wave (km/s) = 6.82955 7.20830 7.02148
#
# Compressibility (1/GPa) = 0.01452971
#
# Stress axis : x y z
#
# Youngs Moduli (GPa) = 75.69872 39.08857 59.43466
#
# Poissons Ratio (x) = 0.24902 0.32551
# Poissons Ratio (y) = 0.48225 0.51690
# Poissons Ratio (z) = 0.41458 0.33995
#
# Static dielectric constant tensor:
#      x y z
#    x 1.669410 0.000000 0.000000 
#    y 0.000000 1.727720 0.000000 
#    z 0.000000 0.000000 1.712620 
# 
# From -- ./inp_files/34512.got.cif
#   From: 2010.05.17/outbox.cif.g08.bks.cpg/sg71_18_cif.got.tgz:34512.got - 2010.06.03 16:22:01.
