data_PCOD9522078
_publ_section_title
;
Structure prediction by ZEFSAII (Michael W. Deem and Ramdas Pophale) SiO2 
 PCOD9522078
Probable space group: I M M M
;
_chemical_formula_sum "Si O2"
_cell_formula_units_Z 64
_cell_length_a 23.408553
_cell_length_b 8.291468
_cell_length_c 17.002748
_cell_angle_alpha 90.000000
_cell_angle_beta 90.000000
_cell_angle_gamma 90.000000
_cell_volume 3300.084921
_symmetry_space_group_name_H-M "I M M M"
_symmetry_group_IT_number 71
_symmetry_cell_setting 'orthorhombic'
loop_
_space_group_symop_operation_xyz
x,y,z
-x,-y,z
x,-y,-z
-x,y,-z
-x,-y,-z
x,y,-z
-x,y,z
x,-y,z
1/2+x,1/2+y,1/2+z
1/2-x,1/2-y,1/2+z
1/2+x,1/2-y,1/2-z
1/2-x,1/2+y,1/2-z
1/2-x,1/2-y,1/2-z
1/2+x,1/2+y,1/2-z
1/2-x,1/2+y,1/2+z
1/2+x,1/2-y,1/2+z
loop_
_atom_site_type_symbol
_atom_site_label
_atom_site_fract_x
_atom_site_fract_y
_atom_site_fract_z
Si Si1 0.614191 0.307909 0.322199
Si Si2 0.564743 0.697591 0.000000
Si Si3 0.859541 0.803207 0.644250
Si Si4 0.264357 0.192917 0.661243
Si Si5 0.500000 0.192453 0.409800
O O1 0.609710 0.500000 0.319467
O O2 0.622175 0.248014 0.231714
O O3 0.674566 0.263075 0.363032
O O4 0.557609 0.244375 0.364483
O O5 0.597000 0.750870 0.921842
O O6 0.565597 0.500000 0.000000
O O7 0.500000 0.750838 0.000000
O O8 0.794810 0.758199 0.619826
O O9 0.859953 0.000000 0.647464
O O10 0.250000 0.250000 0.750000
O O11 0.269171 0.000000 0.659489
O O12 0.500000 0.255198 0.500000
O O13 0.500000 0.000000 0.413070
#
# Coordination Sequence:
#
# PCOD9522078 Si02
#       5
#    16   8  16  16   8
#     4  10  20  35  58  83 109 141 181 227 281 338
#     4   9  16  26  44  74 114 147 180 221 258 300
#     4   8  16  29  48  79 112 146 183 223 265 312
#     4   9  16  30  51  78 111 144 187 233 275 323
#     4  11  25  43  59  80 107 138 180 227 281 345
#
# _framework density 19.393439000000001
#
# number of rings (size 3 to 8) (size 9 to 14) (size 15 to 20)
#    0.000    2.750    0.000    3.375    1.750    1.000 
#    2.250    0.000    0.000    0.000    0.000   18.375 
#    0.000    0.000    0.000    0.000    0.000    0.000 
#
# Total GULP energy -178287.889026 kJ/mol
# GULP energy per Si atom -5571.496532 kJ/mol
# Density = 1.934930 g / cm^3
# Si number density = 19.393439 Si / 1000 Ang^3
#
#
#
# Elastic Constant Matrix: (Units=GPa)
#
#
# Indices 1 2 3 4 5 6 
#
# 1 239.0150 29.6527 92.5499 0.0000 0.0000 0.0000
# 2 29.6527 30.4256 14.5901 0.0000 0.0000 0.0000
# 3 92.5499 14.5901 87.2128 0.0000 0.0000 0.0000
# 4 0.0000 0.0000 0.0000 13.7513 0.0000 0.0000
# 5 0.0000 0.0000 0.0000 0.0000 29.8666 0.0000
# 6 0.0000 0.0000 0.0000 0.0000 0.0000 32.1186
#
#
#
# Elastic Compliance Matrix: (Units=1/GPa)
#
#
# Indices 1 2 3 4 5 6 
#
# 1 0.007484 -0.003789 -0.007308 0.000000 0.000000 0.000000
# 2 -0.003789 0.037652 -0.002278 0.000000 0.000000 0.000000
# 3 -0.007308 -0.002278 0.019602 0.000000 0.000000 0.000000
# 4 0.000000 0.000000 0.000000 0.072721 0.000000 0.000000
# 5 0.000000 0.000000 0.000000 0.000000 0.033482 0.000000
# 6 0.000000 0.000000 0.000000 0.000000 0.000000 0.031135
#
#
# Mechanical properties :
#
#
# Convention : Reuss Voigt Hill
#
# Bulk Modulus (GPa) = 26.32374 70.02652 48.17513
# Shear Modulus (GPa) = 20.70501 29.80467 25.25484
#
# Velocity S-wave (km/s) = 3.27100 3.92451 3.61257
# Velocity P-wave (km/s) = 5.27911 7.53143 6.50352
#
# Compressibility (1/GPa) = 0.03798853
#
# Stress axis : x y z
#
# Youngs Moduli (GPa) = 133.62685 26.55882 51.01500
#
# Poissons Ratio (x) = 0.10064 0.37280
# Poissons Ratio (y) = 0.50634 0.11621
# Poissons Ratio (z) = 0.97649 0.06050
#
# Static dielectric constant tensor:
#      x y z
#    x 1.692670 0.000000 0.000000 
#    y 0.000000 1.674820 0.000000 
#    z 0.000000 0.000000 1.690790 
# 
# From -- ./inp_files/46814.got.cif
#   From: 2010.05.17/outbox.cif.g08.bks.cpg/sg71_24_cif.got.tgz:46814.got - 2010.06.03 16:22:01.
