data_PCOD9522993
_publ_section_title
;
Structure prediction by ZEFSAII (Michael W. Deem and Ramdas Pophale) SiO2 
 PCOD9522993
Probable space group: I M M M
;
_chemical_formula_sum "Si O2"
_cell_formula_units_Z 100
_cell_length_a 20.308137
_cell_length_b 17.130345
_cell_length_c 14.689877
_cell_angle_alpha 90.000000
_cell_angle_beta 90.000000
_cell_angle_gamma 90.000000
_cell_volume 5110.393635
_symmetry_space_group_name_H-M "I M M M"
_symmetry_group_IT_number 71
_symmetry_cell_setting 'orthorhombic'
loop_
_space_group_symop_operation_xyz
x,y,z
-x,-y,z
x,-y,-z
-x,y,-z
-x,-y,-z
x,y,-z
-x,y,z
x,-y,z
1/2+x,1/2+y,1/2+z
1/2-x,1/2-y,1/2+z
1/2+x,1/2-y,1/2-z
1/2-x,1/2+y,1/2-z
1/2-x,1/2-y,1/2-z
1/2+x,1/2+y,1/2-z
1/2-x,1/2+y,1/2+z
1/2+x,1/2-y,1/2+z
loop_
_atom_site_type_symbol
_atom_site_label
_atom_site_fract_x
_atom_site_fract_y
_atom_site_fract_z
Si Si1 0.074137 0.760870 0.227846
Si Si2 0.887888 0.585061 0.775137
Si Si3 0.500000 0.500000 0.129344
Si Si4 0.306924 0.088928 0.103358
Si Si5 0.261963 0.880367 0.605386
Si Si6 0.194367 0.798724 0.894413
Si Si7 0.111486 0.864025 0.607818
O O1 0.077434 0.667779 0.208048
O O2 0.127835 0.799347 0.162137
O O3 0.094608 0.789512 0.328899
O O4 0.000000 0.787927 0.210934
O O5 0.919405 0.500000 0.793269
O O6 0.868808 0.589893 0.669070
O O7 0.818924 0.585734 0.830872
O O8 0.557756 0.431313 0.124638
O O9 0.249724 0.143255 0.141817
O O10 0.282732 0.000000 0.101056
O O11 0.321857 0.113738 0.000000
O O12 0.271675 0.904837 0.500000
O O13 0.274603 0.787356 0.609429
O O14 0.185735 0.893412 0.629820
O O15 0.181635 0.818174 0.000000
O O16 0.111131 0.844591 0.500000
#
# Coordination Sequence:
#
# PCOD9522993 Si02
#       7
#    16  16   4  16  16  16  16
#     4  11  23  38  55  77 107 148 188 224 273 326
#     4  10  21  36  55  82 110 137 181 232 276 325
#     4  12  25  40  56  84 123 156 183 212 256 328
#     4   9  17  31  53  80 108 137 169 216 275 324
#     4   9  19  34  58  84 108 141 177 226 280 324
#     4   9  18  36  57  80 107 137 183 232 276 326
#     4  11  22  38  58  83 116 151 184 217 262 325
#
# _framework density 19.567965000000001
#
# number of rings (size 3 to 8) (size 9 to 14) (size 15 to 20)
#    0.000    2.080    0.800    2.640    1.120    5.440 
#    1.440    0.000    0.000    0.000    0.000   10.640 
#    0.000    0.000    0.000    0.000    0.000    0.000 
#
# Total GULP energy -278352.021144 kJ/mol
# GULP energy per Si atom -5567.040423 kJ/mol
# Density = 1.952343 g / cm^3
# Si number density = 19.567965 Si / 1000 Ang^3
#
#
#
# Elastic Constant Matrix: (Units=GPa)
#
#
# Indices 1 2 3 4 5 6 
#
# 1 84.0223 -12.3899 16.2900 0.0000 0.0000 0.0000
# 2 -12.3899 37.7852 -2.9312 0.0000 0.0000 0.0000
# 3 16.2900 -2.9312 39.0095 0.0000 0.0000 0.0000
# 4 0.0000 0.0000 0.0000 2.9804 0.0000 0.0000
# 5 0.0000 0.0000 0.0000 0.0000 5.5642 0.0000
# 6 0.0000 0.0000 0.0000 0.0000 0.0000 26.5670
#
#
#
# Elastic Compliance Matrix: (Units=1/GPa)
#
#
# Indices 1 2 3 4 5 6 
#
# 1 0.013532 0.004022 -0.005348 0.000000 0.000000 0.000000
# 2 0.004022 0.027816 0.000410 0.000000 0.000000 0.000000
# 3 -0.005348 0.000410 0.027899 0.000000 0.000000 0.000000
# 4 0.000000 0.000000 0.000000 0.335527 0.000000 0.000000
# 5 0.000000 0.000000 0.000000 0.000000 0.179719 0.000000
# 6 0.000000 0.000000 0.000000 0.000000 0.000000 0.037641
#
#
# Mechanical properties :
#
#
# Convention : Reuss Voigt Hill
#
# Bulk Modulus (GPa) = 14.83343 18.08388 16.45866
# Shear Modulus (GPa) = 7.73471 17.67886 12.70678
#
# Velocity S-wave (km/s) = 1.99031 3.00902 2.55103
# Velocity P-wave (km/s) = 3.58869 4.61886 4.13598
#
# Compressibility (1/GPa) = 0.06741527
#
# Stress axis : x y z
#
# Youngs Moduli (GPa) = 73.90076 35.95033 35.84341
#
# Poissons Ratio (x) = -0.14460 0.19171
# Poissons Ratio (y) = -0.29724 -0.01471
# Poissons Ratio (z) = 0.39526 -0.01476
#
# Static dielectric constant tensor:
#      x y z
#    x 1.656290 0.000000 0.000000 
#    y 0.000000 1.715540 0.000000 
#    z 0.000000 0.000000 1.710800 
# 
# From -- ./inp_files/38065.got.cif
#   From: 2010.05.17/outbox.cif.g08.bks.cpg/sg71_20_cif.got.tgz:38065.got - 2010.06.03 16:22:01.
