data_PCOD9522150
_publ_section_title
;
Structure prediction by ZEFSAII (Michael W. Deem and Ramdas Pophale) SiO2 
 PCOD9522150
Probable space group: I M M M
;
_chemical_formula_sum "Si O2"
_cell_formula_units_Z 72
_cell_length_a 17.601932
_cell_length_b 12.031547
_cell_length_c 17.425743
_cell_angle_alpha 90.000000
_cell_angle_beta 90.000000
_cell_angle_gamma 90.000000
_cell_volume 3690.397229
_symmetry_space_group_name_H-M "I M M M"
_symmetry_group_IT_number 71
_symmetry_cell_setting 'orthorhombic'
loop_
_space_group_symop_operation_xyz
x,y,z
-x,-y,z
x,-y,-z
-x,y,-z
-x,-y,-z
x,y,-z
-x,y,z
x,-y,z
1/2+x,1/2+y,1/2+z
1/2-x,1/2-y,1/2+z
1/2+x,1/2-y,1/2-z
1/2-x,1/2+y,1/2-z
1/2-x,1/2-y,1/2-z
1/2+x,1/2+y,1/2-z
1/2-x,1/2+y,1/2+z
1/2+x,1/2-y,1/2+z
loop_
_atom_site_type_symbol
_atom_site_label
_atom_site_fract_x
_atom_site_fract_y
_atom_site_fract_z
Si Si1 0.176004 0.627508 0.216612
Si Si2 0.413482 0.500000 0.262159
Si Si3 0.912563 0.747796 0.082282
Si Si4 0.365014 0.500000 0.582616
Si Si5 0.591211 0.365386 0.000000
Si Si6 0.655736 0.312147 0.165143
O O1 0.152545 0.500000 0.220021
O O2 0.129979 0.696917 0.153533
O O3 0.262378 0.635864 0.186205
O O4 0.162418 0.690431 0.297090
O O5 0.500000 0.500000 0.293435
O O6 0.345840 0.500000 0.326531
O O7 0.402984 0.609238 0.210831
O O8 0.000000 0.715676 0.085959
O O9 0.907474 0.881780 0.081195
O O10 0.880055 0.709472 0.000000
O O11 0.320754 0.500000 0.500000
O O12 0.631627 0.318355 0.923397
O O13 0.599746 0.500000 0.000000
O O14 0.500000 0.342250 0.000000
#
# Coordination Sequence:
#
# PCOD9522150 Si02
#       6
#    16   8  16   8   8  16
#     4  11  24  42  62  85 127 172 207 248 304 381
#     4  12  20  36  66  92 120 155 204 265 313 362
#     4  10  21  36  58  89 122 160 205 250 299 357
#     4  10  20  35  59  93 126 157 201 258 312 357
#     4  11  22  40  69 101 126 154 210 280 331 375
#     4  11  24  41  63  93 126 158 208 259 320 374
#
# _framework density 19.510093999999999
#
# number of rings (size 3 to 8) (size 9 to 14) (size 15 to 20)
#    0.000    1.222    4.444    1.667    1.556    4.222 
#    0.000    1.667    0.000    0.667    0.000    0.000 
#    0.000    0.000    0.000    0.000    0.000    0.000 
#
# Total GULP energy -200568.697857 kJ/mol
# GULP energy per Si atom -5571.352718 kJ/mol
# Density = 1.946569 g / cm^3
# Si number density = 19.510094 Si / 1000 Ang^3
#
#
#
# Elastic Constant Matrix: (Units=GPa)
#
#
# Indices 1 2 3 4 5 6 
#
# 1 59.4597 32.8015 39.7782 0.0000 0.0000 0.0000
# 2 32.8015 116.8286 58.5428 0.0000 0.0000 0.0000
# 3 39.7782 58.5428 185.5676 0.0000 0.0000 0.0000
# 4 0.0000 0.0000 0.0000 11.3823 0.0000 0.0000
# 5 0.0000 0.0000 0.0000 0.0000 22.4691 0.0000
# 6 0.0000 0.0000 0.0000 0.0000 0.0000 9.5765
#
#
#
# Elastic Compliance Matrix: (Units=1/GPa)
#
#
# Indices 1 2 3 4 5 6 
#
# 1 0.021384 -0.004403 -0.003195 0.000000 0.000000 0.000000
# 2 -0.004403 0.011073 -0.002550 0.000000 0.000000 0.000000
# 3 -0.003195 -0.002550 0.006878 0.000000 0.000000 0.000000
# 4 0.000000 0.000000 0.000000 0.087855 0.000000 0.000000
# 5 0.000000 0.000000 0.000000 0.000000 0.044506 0.000000
# 6 0.000000 0.000000 0.000000 0.000000 0.000000 0.104422
#
#
# Mechanical properties :
#
#
# Convention : Reuss Voigt Hill
#
# Bulk Modulus (GPa) = 52.51871 69.34454 60.93163
# Shear Modulus (GPa) = 16.51469 24.06781 20.29125
#
# Velocity S-wave (km/s) = 2.91257 3.51609 3.22846
# Velocity P-wave (km/s) = 6.18772 7.21830 6.72279
#
# Compressibility (1/GPa) = 0.01904083
#
# Stress axis : x y z
#
# Youngs Moduli (GPa) = 46.76286 90.30662 145.38967
#
# Poissons Ratio (x) = 0.39763 0.46450
# Poissons Ratio (y) = 0.20590 0.37068
# Poissons Ratio (z) = 0.14940 0.23024
#
# Static dielectric constant tensor:
#      x y z
#    x 1.664370 0.000000 0.000000 
#    y 0.000000 1.672960 0.000000 
#    z 0.000000 0.000000 1.761290 
# 
# From -- ./inp_files/47001.got.cif
#   From: 2010.05.17/outbox.cif.g08.bks.cpg/sg71_24_cif.got.tgz:47001.got - 2010.06.03 16:22:01.
