data_PCOD9522124
_publ_section_title
;
Structure prediction by ZEFSAII (Michael W. Deem and Ramdas Pophale) SiO2 
 PCOD9522124
Probable space group: I M M M
;
_chemical_formula_sum "Si O2"
_cell_formula_units_Z 96
_cell_length_a 20.332965
_cell_length_b 17.137752
_cell_length_c 14.419427
_cell_angle_alpha 90.000000
_cell_angle_beta 90.000000
_cell_angle_gamma 90.000000
_cell_volume 5024.612445
_symmetry_space_group_name_H-M "I M M M"
_symmetry_group_IT_number 71
_symmetry_cell_setting 'orthorhombic'
loop_
_space_group_symop_operation_xyz
x,y,z
-x,-y,z
x,-y,-z
-x,y,-z
-x,-y,-z
x,y,-z
-x,y,z
x,-y,z
1/2+x,1/2+y,1/2+z
1/2-x,1/2-y,1/2+z
1/2+x,1/2-y,1/2-z
1/2-x,1/2+y,1/2-z
1/2-x,1/2-y,1/2-z
1/2+x,1/2+y,1/2-z
1/2-x,1/2+y,1/2+z
1/2+x,1/2-y,1/2+z
loop_
_atom_site_type_symbol
_atom_site_label
_atom_site_fract_x
_atom_site_fract_y
_atom_site_fract_z
Si Si1 0.573840 0.251801 0.608439
Si Si2 0.278061 0.586240 0.789440
Si Si3 0.000000 0.762099 0.393018
Si Si4 0.861982 0.641260 0.251250
Si Si5 0.000000 0.587438 0.325617
Si Si6 0.854479 0.223993 0.611622
Si Si7 0.639395 0.587166 0.604547
O O1 0.579718 0.230853 0.500000
O O2 0.500000 0.234060 0.640369
O O3 0.623474 0.203944 0.670924
O O4 0.587870 0.343485 0.615782
O O5 0.297333 0.500000 0.824605
O O6 0.199785 0.591384 0.780251
O O7 0.307480 0.656482 0.850227
O O8 0.308009 0.594717 0.686178
O O9 0.000000 0.667375 0.385929
O O10 0.069669 0.791730 0.355347
O O11 0.000000 0.784476 0.500000
O O12 0.840820 0.692417 0.341094
O O13 0.930662 0.596791 0.270760
O O14 0.000000 0.500000 0.367887
O O15 0.852339 0.228467 0.500000
O O16 0.667631 0.595184 0.500000
O O17 0.610657 0.500000 0.611006
#
# Coordination Sequence:
#
# PCOD9522124 Si02
#       7
#    16  16   8  16   8  16  16
#     4  10  20  35  59  86 111 144 188 234 280 335
#     4  11  23  38  56  83 116 150 191 237 284 336
#     4   8  18  37  59  83 113 145 187 233 273 326
#     4  11  21  38  58  83 112 146 192 234 283 333
#     4  10  20  35  59  83 111 147 181 227 286 337
#     4  10  21  37  59  85 115 151 190 231 277 334
#     4   9  19  35  55  83 118 147 177 227 288 343
#
# _framework density 19.105951000000001
#
# number of rings (size 3 to 8) (size 9 to 14) (size 15 to 20)
#    0.000    2.000    2.500    1.000    0.000    2.167 
#    0.000    2.083    0.000    6.500    0.000    0.000 
#    0.000    0.000    0.000    0.000    0.000    0.000 
#
# Total GULP energy -267527.571823 kJ/mol
# GULP energy per Si atom -5573.491080 kJ/mol
# Density = 1.906246 g / cm^3
# Si number density = 19.105951 Si / 1000 Ang^3
#
#
#
# Elastic Constant Matrix: (Units=GPa)
#
#
# Indices 1 2 3 4 5 6 
#
# 1 71.4854 30.0813 15.5462 0.0000 0.0000 0.0000
# 2 30.0813 82.6243 31.6392 0.0000 0.0000 0.0000
# 3 15.5462 31.6392 66.2781 0.0000 0.0000 0.0000
# 4 0.0000 0.0000 0.0000 12.5647 0.0000 0.0000
# 5 0.0000 0.0000 0.0000 0.0000 13.3317 0.0000
# 6 0.0000 0.0000 0.0000 0.0000 0.0000 19.1151
#
#
#
# Elastic Compliance Matrix: (Units=1/GPa)
#
#
# Indices 1 2 3 4 5 6 
#
# 1 0.016602 -0.005572 -0.001234 0.000000 0.000000 0.000000
# 2 -0.005572 0.016680 -0.006656 0.000000 0.000000 0.000000
# 3 -0.001234 -0.006656 0.018555 0.000000 0.000000 0.000000
# 4 0.000000 0.000000 0.000000 0.079588 0.000000 0.000000
# 5 0.000000 0.000000 0.000000 0.000000 0.075009 0.000000
# 6 0.000000 0.000000 0.000000 0.000000 0.000000 0.052315
#
#
# Mechanical properties :
#
#
# Convention : Reuss Voigt Hill
#
# Bulk Modulus (GPa) = 40.13930 41.65791 40.89861
# Shear Modulus (GPa) = 17.00814 18.54369 17.77591
#
# Velocity S-wave (km/s) = 2.98686 3.11878 3.05353
# Velocity P-wave (km/s) = 5.74017 5.90085 5.82106
#
# Compressibility (1/GPa) = 0.02491324
#
# Stress axis : x y z
#
# Youngs Moduli (GPa) = 60.23414 59.95165 53.89463
#
# Poissons Ratio (x) = 0.33403 0.06653
# Poissons Ratio (y) = 0.33560 0.35871
# Poissons Ratio (z) = 0.07435 0.39902
#
# Static dielectric constant tensor:
#      x y z
#    x 1.680670 0.000000 0.000000 
#    y 0.000000 1.650180 0.000000 
#    z 0.000000 0.000000 1.665220 
# 
# From -- ./inp_files/37842.got.cif
#   From: 2010.05.17/outbox.cif.g08.bks.cpg/sg71_19_cif.got.tgz:37842.got - 2010.06.03 16:22:01.
