data_PCOD9522190
_publ_section_title
;
Structure prediction by ZEFSAII (Michael W. Deem and Ramdas Pophale) SiO2 
 PCOD9522190
Probable space group: I M M M
;
_chemical_formula_sum "Si O2"
_cell_formula_units_Z 80
_cell_length_a 17.846252
_cell_length_b 14.060564
_cell_length_c 18.682926
_cell_angle_alpha 90.000000
_cell_angle_beta 90.000000
_cell_angle_gamma 90.000000
_cell_volume 4688.076138
_symmetry_space_group_name_H-M "I M M M"
_symmetry_group_IT_number 71
_symmetry_cell_setting 'orthorhombic'
loop_
_space_group_symop_operation_xyz
x,y,z
-x,-y,z
x,-y,-z
-x,y,-z
-x,-y,-z
x,y,-z
-x,y,z
x,-y,z
1/2+x,1/2+y,1/2+z
1/2-x,1/2-y,1/2+z
1/2+x,1/2-y,1/2-z
1/2-x,1/2+y,1/2-z
1/2-x,1/2-y,1/2-z
1/2+x,1/2+y,1/2-z
1/2-x,1/2+y,1/2+z
1/2+x,1/2-y,1/2+z
loop_
_atom_site_type_symbol
_atom_site_label
_atom_site_fract_x
_atom_site_fract_y
_atom_site_fract_z
Si Si1 0.286421 0.887522 0.361212
Si Si2 0.194435 0.111780 0.783308
Si Si3 0.089674 0.293623 0.500000
Si Si4 0.651886 0.114320 0.145458
Si Si5 0.687998 0.386492 0.000000
Si Si6 0.911799 0.716656 0.212965
O O1 0.235670 0.866107 0.291797
O O2 0.238854 0.864814 0.431023
O O3 0.364712 0.835904 0.348907
O O4 0.300343 0.000000 0.361011
O O5 0.259083 0.131931 0.842131
O O6 0.122501 0.177727 0.787044
O O7 0.177012 0.000000 0.785289
O O8 0.122159 0.344486 0.429020
O O9 0.117944 0.184378 0.500000
O O10 0.000000 0.299392 0.500000
O O11 0.609997 0.164491 0.212214
O O12 0.640833 0.000000 0.149508
O O13 0.669717 0.500000 0.000000
O O14 0.000000 0.714386 0.203131
#
# Coordination Sequence:
#
# PCOD9522190 Si02
#       6
#    16  16   8  16   8  16
#     4   9  18  33  53  73  95 128 168 205 240 289
#     4   9  18  34  53  72  97 131 170 205 239 290
#     4  12  23  33  50  78 109 133 158 201 248 291
#     4  10  21  36  53  72  99 136 171 202 240 292
#     4  10  20  36  56  74  97 133 171 202 238 290
#     4  11  20  31  51  76 102 130 161 205 255 296
#
# _framework density 17.064568000000001
#
# number of rings (size 3 to 8) (size 9 to 14) (size 15 to 20)
#    0.000    2.000    0.000    7.500    0.000    3.800 
#    0.000    0.500    0.000    7.800    0.000    0.000 
#    0.000    8.000    0.000    0.000    0.000    0.400 
#
# Total GULP energy -223242.953132 kJ/mol
# GULP energy per Si atom -5581.073828 kJ/mol
# Density = 1.702573 g / cm^3
# Si number density = 17.064568 Si / 1000 Ang^3
#
#
#
# Elastic Constant Matrix: (Units=GPa)
#
#
# Indices 1 2 3 4 5 6 
#
# 1 49.4974 32.3178 10.8905 0.0000 0.0000 0.0000
# 2 32.3178 82.4609 23.9543 0.0000 0.0000 0.0000
# 3 10.8905 23.9543 79.6779 0.0000 0.0000 0.0000
# 4 0.0000 0.0000 0.0000 23.0992 0.0000 0.0000
# 5 0.0000 0.0000 0.0000 0.0000 8.1515 0.0000
# 6 0.0000 0.0000 0.0000 0.0000 0.0000 3.3643
#
#
#
# Elastic Compliance Matrix: (Units=1/GPa)
#
#
# Indices 1 2 3 4 5 6 
#
# 1 0.027174 -0.010487 -0.000561 0.000000 0.000000 0.000000
# 2 -0.010487 0.017334 -0.003778 0.000000 0.000000 0.000000
# 3 -0.000561 -0.003778 0.013763 0.000000 0.000000 0.000000
# 4 0.000000 0.000000 0.000000 0.043292 0.000000 0.000000
# 5 0.000000 0.000000 0.000000 0.000000 0.122677 0.000000
# 6 0.000000 0.000000 0.000000 0.000000 0.000000 0.297242
#
#
# Mechanical properties :
#
#
# Convention : Reuss Voigt Hill
#
# Bulk Modulus (GPa) = 34.94214 38.44013 36.69114
# Shear Modulus (GPa) = 8.91785 16.55456 12.73620
#
# Velocity S-wave (km/s) = 2.28851 3.11804 2.73491
# Velocity P-wave (km/s) = 5.24442 5.96138 5.61436
#
# Compressibility (1/GPa) = 0.02861874
#
# Stress axis : x y z
#
# Youngs Moduli (GPa) = 36.80046 57.68887 72.65805
#
# Poissons Ratio (x) = 0.60497 0.04079
# Poissons Ratio (y) = 0.38591 0.27451
# Poissons Ratio (z) = 0.02066 0.21795
#
# Static dielectric constant tensor:
#      x y z
#    x 1.545590 0.000000 0.000000 
#    y 0.000000 1.609230 0.000000 
#    z 0.000000 0.000000 1.572830 
# 
# From -- ./inp_files/36295.got.cif
#   From: 2010.05.17/outbox.cif.g08.bks.cpg/sg71_19_cif.got.tgz:36295.got - 2010.06.03 16:22:01.
