data_PCOD9522300
_publ_section_title
;
Structure prediction by ZEFSAII (Michael W. Deem and Ramdas Pophale) SiO2 
 PCOD9522300
Probable space group: I M M M
;
_chemical_formula_sum "Si O2"
_cell_formula_units_Z 82
_cell_length_a 24.604103
_cell_length_b 16.785289
_cell_length_c 11.760722
_cell_angle_alpha 90.000000
_cell_angle_beta 90.000000
_cell_angle_gamma 90.000000
_cell_volume 4857.025055
_symmetry_space_group_name_H-M "I M M M"
_symmetry_group_IT_number 71
_symmetry_cell_setting 'orthorhombic'
loop_
_space_group_symop_operation_xyz
x,y,z
-x,-y,z
x,-y,-z
-x,y,-z
-x,-y,-z
x,y,-z
-x,y,z
x,-y,z
1/2+x,1/2+y,1/2+z
1/2-x,1/2-y,1/2+z
1/2+x,1/2-y,1/2-z
1/2-x,1/2+y,1/2-z
1/2-x,1/2-y,1/2-z
1/2+x,1/2+y,1/2-z
1/2-x,1/2+y,1/2+z
1/2+x,1/2-y,1/2+z
loop_
_atom_site_type_symbol
_atom_site_label
_atom_site_fract_x
_atom_site_fract_y
_atom_site_fract_z
Si Si1 0.767583 0.408138 0.132802
Si Si2 0.437275 0.911332 0.363678
Si Si3 0.385807 0.911855 0.000000
Si Si4 0.937145 0.000000 0.638410
Si Si5 0.643342 0.359810 0.865438
Si Si6 0.000000 0.500000 0.500000
Si Si7 0.853811 0.316439 0.274110
O O1 0.783262 0.500000 0.155214
O O2 0.702785 0.399447 0.144013
O O3 0.798717 0.348864 0.216647
O O4 0.781440 0.391135 0.000000
O O5 0.435098 0.910842 0.500000
O O6 0.500000 0.903143 0.328829
O O7 0.400576 0.843726 0.312310
O O8 0.419229 0.000000 0.324589
O O9 0.367221 0.863488 0.889817
O O10 0.450609 0.931533 0.000000
O O11 0.359746 0.000000 0.000000
O O12 0.903065 0.921662 0.672803
O O13 0.936777 0.000000 0.500000
O O14 0.000000 0.000000 0.675270
O O15 0.644900 0.276840 0.799319
O O16 0.634512 0.343196 0.000000
#
# Coordination Sequence:
#
# PCOD9522300 Si02
#       7
#    16  16   8   8  16   2  16
#     4  10  20  36  59  80 107 145 182 227 280 328
#     4   9  19  34  52  75 106 143 184 228 267 312
#     4  10  22  36  48  71 116 156 185 207 262 338
#     4   9  18  36  57  78 106 143 182 230 279 327
#     4  10  20  37  54  79 111 141 180 228 281 328
#     4   8  24  40  44  64 114 182 176 184 270 350
#     4  12  21  32  53  84 110 140 186 227 268 329
#
# _framework density 16.882762
#
# number of rings (size 3 to 8) (size 9 to 14) (size 15 to 20)
#    0.293    1.659    1.951    3.512    1.366    2.341 
#    0.000    0.000    0.000    0.000    0.000    2.732 
#    0.000    4.683    0.000    0.000    0.000    0.000 
#
# Total GULP energy -228427.761726 kJ/mol
# GULP energy per Si atom -5571.408823 kJ/mol
# Density = 1.684434 g / cm^3
# Si number density = 16.882762 Si / 1000 Ang^3
#
#
#
# Elastic Constant Matrix: (Units=GPa)
#
#
# Indices 1 2 3 4 5 6 
#
# 1 106.5147 57.2281 35.9686 0.0000 0.0000 0.0000
# 2 57.2281 129.2470 35.9758 0.0000 0.0000 0.0000
# 3 35.9686 35.9758 40.6049 0.0000 0.0000 0.0000
# 4 0.0000 0.0000 0.0000 20.1659 0.0000 0.0000
# 5 0.0000 0.0000 0.0000 0.0000 31.9779 0.0000
# 6 0.0000 0.0000 0.0000 0.0000 0.0000 -11.8915
#
#
#
# Elastic Compliance Matrix: (Units=1/GPa)
#
#
# Indices 1 2 3 4 5 6 
#
# 1 0.014695 -0.003827 -0.009627 0.000000 0.000000 0.000000
# 2 -0.003827 0.011267 -0.006592 0.000000 0.000000 0.000000
# 3 -0.009627 -0.006592 0.038995 0.000000 0.000000 0.000000
# 4 0.000000 0.000000 0.000000 0.049589 0.000000 0.000000
# 5 0.000000 0.000000 0.000000 0.000000 0.031272 0.000000
# 6 0.000000 0.000000 0.000000 0.000000 0.000000 -0.084094
#
#
# Mechanical properties :
#
#
# Convention : Reuss Voigt Hill
#
# Bulk Modulus (GPa) = 40.21565 59.41240 49.81402
# Shear Modulus (GPa) = 45.41168 17.86341 31.63755
#
# Velocity S-wave (km/s) = 5.19198 3.25635 4.33362
# Velocity P-wave (km/s) = 7.73398 7.02894 7.38987
#
# Compressibility (1/GPa) = 0.02486594
#
# Stress axis : x y z
#
# Youngs Moduli (GPa) = 68.04812 88.75761 25.64409
#
# Poissons Ratio (x) = 0.33970 0.24686
# Poissons Ratio (y) = 0.26044 0.16904
# Poissons Ratio (z) = 0.65507 0.58508
#
# Static dielectric constant tensor:
#      x y z
#    x 1.581620 0.000000 0.000000 
#    y 0.000000 1.561570 0.000000 
#    z 0.000000 0.000000 1.596980 
# 
# From -- ./inp_files/27391.got.cif
#   From: 2010.05.17/outbox.cif.g08.bks.cpg/sg71_14_cif.got.tgz:27391.got - 2010.06.03 16:22:01.
