data_PCOD9522037
_publ_section_title
;
Structure prediction by ZEFSAII (Michael W. Deem and Ramdas Pophale) SiO2 
 PCOD9522037
Probable space group: I M M M
;
_chemical_formula_sum "Si O2"
_cell_formula_units_Z 104
_cell_length_a 26.809139
_cell_length_b 22.393644
_cell_length_c 7.910184
_cell_angle_alpha 90.000000
_cell_angle_beta 90.000000
_cell_angle_gamma 90.000000
_cell_volume 4748.913095
_symmetry_space_group_name_H-M "I M M M"
_symmetry_group_IT_number 71
_symmetry_cell_setting 'orthorhombic'
loop_
_space_group_symop_operation_xyz
x,y,z
-x,-y,z
x,-y,-z
-x,y,-z
-x,-y,-z
x,y,-z
-x,y,z
x,-y,z
1/2+x,1/2+y,1/2+z
1/2-x,1/2-y,1/2+z
1/2+x,1/2-y,1/2-z
1/2-x,1/2+y,1/2-z
1/2-x,1/2-y,1/2-z
1/2+x,1/2+y,1/2-z
1/2-x,1/2+y,1/2+z
1/2+x,1/2-y,1/2+z
loop_
_atom_site_type_symbol
_atom_site_label
_atom_site_fract_x
_atom_site_fract_y
_atom_site_fract_z
Si Si1 0.443214 0.500000 0.796838
Si Si2 0.783141 0.692601 0.204071
Si Si3 0.396127 0.187673 0.294702
Si Si4 0.237511 0.067946 0.695849
Si Si5 0.944752 0.804021 0.302381
Si Si6 0.057849 0.434659 0.205897
Si Si7 0.869277 0.897602 0.192144
O O1 0.500000 0.500000 0.739337
O O2 0.413346 0.443418 0.731396
O O3 0.442515 0.500000 0.000000
O O4 0.750000 0.750000 0.250000
O O5 0.840011 0.702696 0.258904
O O6 0.764044 0.627581 0.268640
O O7 0.782532 0.689000 0.000000
O O8 0.398886 0.190877 0.500000
O O9 0.435699 0.234070 0.221757
O O10 0.409531 0.120903 0.239825
O O11 0.253530 0.064097 0.500000
O O12 0.178826 0.084904 0.700446
O O13 0.243928 0.000000 0.767013
O O14 0.943946 0.820251 0.500000
O O15 0.896623 0.834914 0.220146
O O16 0.000000 0.820837 0.235685
O O17 0.075059 0.500000 0.262992
O O18 0.000000 0.426955 0.255217
O O19 0.058592 0.434980 0.000000
O O20 0.852421 0.902938 0.000000
#
# Coordination Sequence:
#
# PCOD9522037 Si02
#       7
#     8  16  16  16  16  16  16
#     4  11  23  39  59  83 115 153 189 227 280 345
#     4  10  22  38  57  84 113 149 195 243 296 349
#     4  10  20  35  57  85 115 146 190 246 294 342
#     4  10  21  39  62  85 117 161 203 243 296 360
#     4  11  24  40  58  82 115 156 198 238 291 361
#     4   8  14  26  48  80 115 147 176 215 276 343
#     4  12  24  38  59  87 116 148 194 245 290 337
#
# _framework density 21.899749
#
# number of rings (size 3 to 8) (size 9 to 14) (size 15 to 20)
#    0.000    1.769    0.769    4.385    0.000    8.615 
#    0.000    3.077    0.000    0.462    0.000    4.308 
#    0.000    0.000    0.000    0.000    0.000    0.000 
#
# Total GULP energy -290377.481772 kJ/mol
# GULP energy per Si atom -5584.182342 kJ/mol
# Density = 2.184990 g / cm^3
# Si number density = 21.899749 Si / 1000 Ang^3
#
#
#
# Elastic Constant Matrix: (Units=GPa)
#
#
# Indices 1 2 3 4 5 6 
#
# 1 57.1513 23.7489 -4.8748 0.0000 0.0000 0.0000
# 2 23.7489 123.7958 -1.4181 0.0000 0.0000 0.0000
# 3 -4.8748 -1.4181 32.7463 0.0000 0.0000 0.0000
# 4 0.0000 0.0000 0.0000 -138.9574 0.0000 0.0000
# 5 0.0000 0.0000 0.0000 0.0000 11.1858 0.0000
# 6 0.0000 0.0000 0.0000 0.0000 0.0000 50.3561
#
#
#
# Elastic Compliance Matrix: (Units=1/GPa)
#
#
# Indices 1 2 3 4 5 6 
#
# 1 0.019250 -0.003662 0.002707 0.000000 0.000000 0.000000
# 2 -0.003662 0.008778 -0.000165 0.000000 0.000000 0.000000
# 3 0.002707 -0.000165 0.030934 0.000000 0.000000 0.000000
# 4 0.000000 0.000000 0.000000 -0.007196 0.000000 0.000000
# 5 0.000000 0.000000 0.000000 0.000000 0.089399 0.000000
# 6 0.000000 0.000000 0.000000 0.000000 0.000000 0.019859
#
#
# Mechanical properties :
#
#
# Convention : Reuss Voigt Hill
#
# Bulk Modulus (GPa) = 17.62969 27.62281 22.62625
# Shear Modulus (GPa) = 27.44679 -2.40062 12.52308
#
# Velocity S-wave (km/s) = 3.54403 -1.04813 2.39391
# Velocity P-wave (km/s) = 4.98141 3.34304 4.24208
#
# Compressibility (1/GPa) = 0.05672251
#
# Stress axis : x y z
#
# Youngs Moduli (GPa) = 51.94805 113.91563 32.32727
#
# Poissons Ratio (x) = 0.41715 -0.08751
# Poissons Ratio (y) = 0.19023 0.00533
# Poissons Ratio (z) = -0.14063 0.01879
#
# Static dielectric constant tensor:
#      x y z
#    x 1.793130 0.000000 0.000000 
#    y 0.000000 1.844900 0.000000 
#    z 0.000000 0.000000 1.821120 
# 
# From -- ./inp_files/14971.got.cif
#   From: 2010.05.17/outbox.cif.g08.bks.cpg/sg71_8_cif.got.tgz:14971.got - 2010.06.03 16:22:01.
