data_PCOD9522242
_publ_section_title
;
Structure prediction by ZEFSAII (Michael W. Deem and Ramdas Pophale) SiO2 
 PCOD9522242
Probable space group: I M M M
;
_chemical_formula_sum "Si O2"
_cell_formula_units_Z 100
_cell_length_a 21.376962
_cell_length_b 29.310577
_cell_length_c 7.512201
_cell_angle_alpha 90.000000
_cell_angle_beta 90.000000
_cell_angle_gamma 90.000000
_cell_volume 4706.927974
_symmetry_space_group_name_H-M "I M M M"
_symmetry_group_IT_number 71
_symmetry_cell_setting 'orthorhombic'
loop_
_space_group_symop_operation_xyz
x,y,z
-x,-y,z
x,-y,-z
-x,y,-z
-x,-y,-z
x,y,-z
-x,y,z
x,-y,z
1/2+x,1/2+y,1/2+z
1/2-x,1/2-y,1/2+z
1/2+x,1/2-y,1/2-z
1/2-x,1/2+y,1/2-z
1/2-x,1/2-y,1/2-z
1/2+x,1/2+y,1/2-z
1/2-x,1/2+y,1/2+z
1/2+x,1/2-y,1/2+z
loop_
_atom_site_type_symbol
_atom_site_label
_atom_site_fract_x
_atom_site_fract_y
_atom_site_fract_z
Si Si1 0.410460 0.125842 0.704313
Si Si2 0.070954 0.893131 0.785129
Si Si3 0.568600 0.230453 0.283791
Si Si4 0.229489 0.635780 0.297524
Si Si5 0.813141 0.949168 0.291020
Si Si6 0.500000 0.090331 0.000000
Si Si7 0.342549 0.691888 0.282418
O O1 0.430545 0.119571 0.500000
O O2 0.426964 0.177588 0.764739
O O3 0.335459 0.124464 0.706436
O O4 0.445377 0.093613 0.842789
O O5 0.114468 0.935160 0.730108
O O6 0.108185 0.847556 0.729584
O O7 0.000000 0.894586 0.720327
O O8 0.069316 0.892249 0.000000
O O9 0.569737 0.232011 0.500000
O O10 0.500000 0.248316 0.228249
O O11 0.626846 0.260807 0.222694
O O12 0.213867 0.648130 0.500000
O O13 0.272891 0.590819 0.296670
O O14 0.274023 0.675800 0.220721
O O15 0.797850 0.948208 0.500000
O O16 0.801556 0.000000 0.222219
O O17 0.339734 0.691871 0.500000
#
# Coordination Sequence:
#
# PCOD9522242 Si02
#       7
#    16  16  16  16  16   4  16
#     4  11  22  37  60  85 115 151 187 232 281 330
#     4   9  17  30  50  75 105 143 189 239 286 332
#     4   9  16  28  49  76 107 146 191 234 279 326
#     4  10  20  36  57  83 112 144 182 230 281 337
#     4  10  21  36  54  76 106 143 184 231 281 339
#     4  12  22  40  60  86 117 146 188 236 273 334
#     4   8  15  28  49  75 107 147 190 233 279 328
#
# _framework density 21.245279
#
# number of rings (size 3 to 8) (size 9 to 14) (size 15 to 20)
#    0.000    2.400    1.600    2.640    0.000    4.480 
#    0.000    1.600    8.800    0.000    0.000    1.120 
#    0.000    2.560    0.000    0.000    0.000    0.000 
#
# Total GULP energy -278540.310175 kJ/mol
# GULP energy per Si atom -5570.806204 kJ/mol
# Density = 2.119692 g / cm^3
# Si number density = 21.245279 Si / 1000 Ang^3
#
#
#
# Elastic Constant Matrix: (Units=GPa)
#
#
# Indices 1 2 3 4 5 6 
#
# 1 134.9036 -13.9442 11.8331 0.0000 0.0000 0.0000
# 2 -13.9442 7.2020 -6.6281 0.0000 0.0000 0.0000
# 3 11.8331 -6.6281 85.3880 0.0000 0.0000 0.0000
# 4 0.0000 0.0000 0.0000 17.2857 0.0000 0.0000
# 5 0.0000 0.0000 0.0000 0.0000 2.2365 0.0000
# 6 0.0000 0.0000 0.0000 0.0000 0.0000 12.9479
#
#
#
# Elastic Compliance Matrix: (Units=1/GPa)
#
#
# Indices 1 2 3 4 5 6 
#
# 1 0.009268 0.018053 0.000117 0.000000 0.000000 0.000000
# 2 0.018053 0.184696 0.011835 0.000000 0.000000 0.000000
# 3 0.000117 0.011835 0.012614 0.000000 0.000000 0.000000
# 4 0.000000 0.000000 0.000000 0.057851 0.000000 0.000000
# 5 0.000000 0.000000 0.000000 0.000000 0.447121 0.000000
# 6 0.000000 0.000000 0.000000 0.000000 0.000000 0.077233
#
#
# Mechanical properties :
#
#
# Convention : Reuss Voigt Hill
#
# Bulk Modulus (GPa) = 3.75110 23.33500 13.54305
# Shear Modulus (GPa) = 6.11519 22.24288 14.17903
#
# Velocity S-wave (km/s) = 1.69842 3.23918 2.58621
# Velocity P-wave (km/s) = 2.36973 4.99972 3.91234
#
# Compressibility (1/GPa) = 0.26658818
#
# Stress axis : x y z
#
# Youngs Moduli (GPa) = 107.89253 5.41429 79.27872
#
# Poissons Ratio (x) = -0.09774 -0.00927
# Poissons Ratio (y) = -1.94778 -0.93826
# Poissons Ratio (z) = -0.01261 -0.06408
#
# Static dielectric constant tensor:
#      x y z
#    x 1.788220 0.000000 0.000000 
#    y 0.000000 1.756340 0.000000 
#    z 0.000000 0.000000 1.803530 
# 
# From -- ./inp_files/11073.got.cif
#   From: 2010.05.17/outbox.cif.g08.bks.cpg/sg71_6_cif.got.tgz:11073.got - 2010.06.03 16:22:01.
