data_PCOD9522760
_publ_section_title
;
Structure prediction by ZEFSAII (Michael W. Deem and Ramdas Pophale) SiO2 
 PCOD9522760
Probable space group: I M M M
;
_chemical_formula_sum "Si O2"
_cell_formula_units_Z 72
_cell_length_a 7.599890
_cell_length_b 13.641813
_cell_length_c 32.475369
_cell_angle_alpha 90.000000
_cell_angle_beta 90.000000
_cell_angle_gamma 90.000000
_cell_volume 3366.925391
_symmetry_space_group_name_H-M "I M M M"
_symmetry_group_IT_number 71
_symmetry_cell_setting 'orthorhombic'
loop_
_space_group_symop_operation_xyz
x,y,z
-x,-y,z
x,-y,-z
-x,y,-z
-x,-y,-z
x,y,-z
-x,y,z
x,-y,z
1/2+x,1/2+y,1/2+z
1/2-x,1/2-y,1/2+z
1/2+x,1/2-y,1/2-z
1/2-x,1/2+y,1/2-z
1/2-x,1/2-y,1/2-z
1/2+x,1/2+y,1/2-z
1/2-x,1/2+y,1/2+z
1/2+x,1/2-y,1/2+z
loop_
_atom_site_type_symbol
_atom_site_label
_atom_site_fract_x
_atom_site_fract_y
_atom_site_fract_z
Si Si1 0.795741 0.000000 0.949662
Si Si2 0.213969 0.180754 0.306754
Si Si3 0.288863 0.288820 0.453276
Si Si4 0.292432 0.893189 0.783395
Si Si5 0.211405 0.892699 0.605069
O O1 0.718928 0.105569 0.937400
O O2 0.000000 0.000000 0.936372
O O3 0.793266 0.000000 0.000000
O O4 0.272124 0.125588 0.265496
O O5 0.277392 0.293758 0.304111
O O6 0.273813 0.130944 0.348756
O O7 0.000000 0.181169 0.305985
O O8 0.224011 0.272795 0.500000
O O9 0.500000 0.299691 0.455702
O O10 0.253569 0.196650 0.424803
O O11 0.500000 0.896013 0.792721
O O12 0.217123 0.000000 0.794197
O O13 0.000000 0.896964 0.607084
O O14 0.275644 0.000000 0.591482
#
# Coordination Sequence:
#
# PCOD9522760 Si02
#       5
#     8  16  16  16  16
#     4   7  12  28  53  75  95 121 153 195 249 299
#     4   9  18  33  50  69  97 132 166 199 242 295
#     4   9  18  34  56  78  99 127 165 207 251 298
#     4   9  17  30  50  74  97 123 160 206 250 289
#     4  10  21  35  49  70 103 139 171 204 246 295
#
# _framework density 21.384495999999999
#
# number of rings (size 3 to 8) (size 9 to 14) (size 15 to 20)
#    0.000    3.000    0.000    2.000    0.000    3.556 
#    2.000    2.778    0.000    2.000    0.000    0.000 
#    0.000    0.000    0.000    0.000    0.000    0.000 
#
# Total GULP energy -200762.623333 kJ/mol
# GULP energy per Si atom -5576.739537 kJ/mol
# Density = 2.133582 g / cm^3
# Si number density = 21.384496 Si / 1000 Ang^3
#
#
#
# Elastic Constant Matrix: (Units=GPa)
#
#
# Indices 1 2 3 4 5 6 
#
# 1 45.6161 5.6087 -2.7414 0.0000 0.0000 0.0000
# 2 5.6087 196.4668 42.5183 0.0000 0.0000 0.0000
# 3 -2.7414 42.5183 40.6279 0.0000 0.0000 0.0000
# 4 0.0000 0.0000 0.0000 6.0741 0.0000 0.0000
# 5 0.0000 0.0000 0.0000 0.0000 23.4282 0.0000
# 6 0.0000 0.0000 0.0000 0.0000 0.0000 57.3944
#
#
#
# Elastic Compliance Matrix: (Units=1/GPa)
#
#
# Indices 1 2 3 4 5 6 
#
# 1 0.022243 -0.001241 0.002799 0.000000 0.000000 0.000000
# 2 -0.001241 0.006649 -0.007043 0.000000 0.000000 0.000000
# 3 0.002799 -0.007043 0.032173 0.000000 0.000000 0.000000
# 4 0.000000 0.000000 0.000000 0.164634 0.000000 0.000000
# 5 0.000000 0.000000 0.000000 0.000000 0.042684 0.000000
# 6 0.000000 0.000000 0.000000 0.000000 0.000000 0.017423
#
#
# Mechanical properties :
#
#
# Convention : Reuss Voigt Hill
#
# Bulk Modulus (GPa) = 19.96121 41.49800 30.72961
# Shear Modulus (GPa) = 15.95033 33.20101 24.57567
#
# Velocity S-wave (km/s) = 2.73405 3.94455 3.39370
# Velocity P-wave (km/s) = 4.39561 6.33985 5.45505
#
# Compressibility (1/GPa) = 0.05009715
#
# Stress axis : x y z
#
# Youngs Moduli (GPa) = 44.95816 150.38814 31.08214
#
# Poissons Ratio (x) = 0.18660 -0.08701
# Poissons Ratio (y) = 0.05578 0.21890
# Poissons Ratio (z) = -0.12586 1.05912
#
# Static dielectric constant tensor:
#      x y z
#    x 1.596730 0.000000 0.000000 
#    y 0.000000 1.832050 0.000000 
#    z 0.000000 0.000000 1.727280 
# 
# From -- ./inp_files/20042.got.cif
#   From: 2010.05.17/outbox.cif.g08.bks.cpg/sg71_11_cif.got.tgz:20042.got - 2010.06.03 16:22:01.
