data_PCOD9522370
_publ_section_title
;
Structure prediction by ZEFSAII (Michael W. Deem and Ramdas Pophale) SiO2 
 PCOD9522370
Probable space group: I M M M
;
_chemical_formula_sum "Si O2"
_cell_formula_units_Z 90
_cell_length_a 22.413445
_cell_length_b 23.435356
_cell_length_c 8.886521
_cell_angle_alpha 90.000000
_cell_angle_beta 90.000000
_cell_angle_gamma 90.000000
_cell_volume 4667.796784
_symmetry_space_group_name_H-M "I M M M"
_symmetry_group_IT_number 71
_symmetry_cell_setting 'orthorhombic'
loop_
_space_group_symop_operation_xyz
x,y,z
-x,-y,z
x,-y,-z
-x,y,-z
-x,-y,-z
x,y,-z
-x,y,z
x,-y,z
1/2+x,1/2+y,1/2+z
1/2-x,1/2-y,1/2+z
1/2+x,1/2-y,1/2-z
1/2-x,1/2+y,1/2-z
1/2-x,1/2-y,1/2-z
1/2+x,1/2+y,1/2-z
1/2-x,1/2+y,1/2+z
1/2+x,1/2-y,1/2+z
loop_
_atom_site_type_symbol
_atom_site_label
_atom_site_fract_x
_atom_site_fract_y
_atom_site_fract_z
Si Si1 0.000000 0.797953 0.823377
Si Si2 0.000000 0.917352 0.323207
Si Si3 0.500000 0.000000 0.000000
Si Si4 0.873619 0.737457 0.821688
Si Si5 0.125524 0.062275 0.178776
Si Si6 0.832394 0.382820 0.181093
Si Si7 0.874074 0.500000 0.334598
Si Si8 0.298900 0.663087 0.179648
O O1 0.000000 0.849965 0.708924
O O2 0.939276 0.763212 0.799972
O O3 0.000000 0.817663 0.000000
O O4 0.058878 0.939318 0.241945
O O5 0.000000 0.930006 0.500000
O O6 0.554623 0.000000 0.870681
O O7 0.873002 0.671394 0.774588
O O8 0.823894 0.777463 0.744856
O O9 0.860288 0.738709 0.000000
O O10 0.157515 0.113774 0.261555
O O11 0.153889 0.000000 0.207039
O O12 0.124856 0.072434 0.000000
O O13 0.852997 0.442220 0.252510
O O14 0.766657 0.359363 0.224258
O O15 0.833303 0.389690 0.000000
O O16 0.844683 0.500000 0.500000
O O17 0.300250 0.667060 0.000000
#
# Coordination Sequence:
#
# PCOD9522370 Si02
#       8
#     8   8   2  16  16  16   8  16
#     4  10  20  36  60  87 119 161 210 265 309 383
#     4  12  23  37  59  86 121 160 207 266 325 366
#     4   8  24  48  70 100 136 160 210 282 330 388
#     4  10  21  39  63  92 127 168 214 260 322 384
#     4  11  24  40  59  84 118 167 219 258 310 373
#     4  10  23  42  66  98 129 168 213 261 321 391
#     4  10  23  45  71  95 133 165 207 262 329 383
#     4  11  23  38  60  92 133 166 210 267 317 375
#
# _framework density 19.281044000000001
#
# number of rings (size 3 to 8) (size 9 to 14) (size 15 to 20)
#    0.267    1.244    1.778    2.933    1.244    5.333 
#    0.000    1.778    0.000    0.000    0.000    0.000 
#    0.000    0.000    0.000    0.000    0.000    0.000 
#
# Total GULP energy -250905.639097 kJ/mol
# GULP energy per Si atom -5575.680869 kJ/mol
# Density = 1.923716 g / cm^3
# Si number density = 19.281044 Si / 1000 Ang^3
#
#
#
# Elastic Constant Matrix: (Units=GPa)
#
#
# Indices 1 2 3 4 5 6 
#
# 1 79.1507 53.1855 39.1078 0.0000 0.0000 0.0000
# 2 53.1855 172.8128 52.0436 0.0000 0.0000 0.0000
# 3 39.1078 52.0436 40.9335 0.0000 0.0000 0.0000
# 4 0.0000 0.0000 0.0000 -6.5136 0.0000 0.0000
# 5 0.0000 0.0000 0.0000 0.0000 24.6962 0.0000
# 6 0.0000 0.0000 0.0000 0.0000 0.0000 17.8179
#
#
#
# Elastic Compliance Matrix: (Units=1/GPa)
#
#
# Indices 1 2 3 4 5 6 
#
# 1 0.023995 -0.000779 -0.021934 0.000000 0.000000 0.000000
# 2 -0.000779 0.009402 -0.011210 0.000000 0.000000 0.000000
# 3 -0.021934 -0.011210 0.059638 0.000000 0.000000 0.000000
# 4 0.000000 0.000000 0.000000 -0.153524 0.000000 0.000000
# 5 0.000000 0.000000 0.000000 0.000000 0.040492 0.000000
# 6 0.000000 0.000000 0.000000 0.000000 0.000000 0.056123
#
#
# Mechanical properties :
#
#
# Convention : Reuss Voigt Hill
#
# Bulk Modulus (GPa) = 39.69971 64.61900 52.15935
# Shear Modulus (GPa) = 44.49563 17.10410 30.79987
#
# Velocity S-wave (km/s) = 4.80911 2.98164 4.00111
# Velocity P-wave (km/s) = 7.17436 6.74097 6.96103
#
# Compressibility (1/GPa) = 0.02518910
#
# Stress axis : x y z
#
# Youngs Moduli (GPa) = 41.67466 106.35660 16.76772
#
# Poissons Ratio (x) = 0.08288 0.36779
# Poissons Ratio (y) = 0.03247 0.18796
# Poissons Ratio (z) = 0.91411 1.19224
#
# Static dielectric constant tensor:
#      x y z
#    x 1.620590 0.000000 0.000000 
#    y 0.000000 1.699550 0.000000 
#    z 0.000000 0.000000 1.651530 
# 
# From -- ./inp_files/10593.got.cif
#   From: 2010.05.17/outbox.cif.g08.bks.cpg/sg71_6_cif.got.tgz:10593.got - 2010.06.03 16:22:01.
