data_PCOD9522516
_publ_section_title
;
Structure prediction by ZEFSAII (Michael W. Deem and Ramdas Pophale) SiO2 
 PCOD9522516
Probable space group: I M M M
;
_chemical_formula_sum "Si O2"
_cell_formula_units_Z 104
_cell_length_a 27.510522
_cell_length_b 9.080564
_cell_length_c 22.204752
_cell_angle_alpha 90.000000
_cell_angle_beta 90.000000
_cell_angle_gamma 90.000000
_cell_volume 5546.992539
_symmetry_space_group_name_H-M "I M M M"
_symmetry_group_IT_number 71
_symmetry_cell_setting 'orthorhombic'
loop_
_space_group_symop_operation_xyz
x,y,z
-x,-y,z
x,-y,-z
-x,y,-z
-x,-y,-z
x,y,-z
-x,y,z
x,-y,z
1/2+x,1/2+y,1/2+z
1/2-x,1/2-y,1/2+z
1/2+x,1/2-y,1/2-z
1/2-x,1/2+y,1/2-z
1/2-x,1/2-y,1/2-z
1/2+x,1/2+y,1/2-z
1/2-x,1/2+y,1/2+z
1/2+x,1/2-y,1/2+z
loop_
_atom_site_type_symbol
_atom_site_label
_atom_site_fract_x
_atom_site_fract_y
_atom_site_fract_z
Si Si1 0.826221 0.834261 0.781340
Si Si2 0.920036 0.323052 0.432725
Si Si3 0.500000 0.821045 0.301190
Si Si4 0.285384 0.835922 0.176232
Si Si5 0.684364 0.673468 0.065539
Si Si6 0.588672 0.677683 0.374147
Si Si7 0.058849 0.322216 0.000000
Si Si8 0.500000 0.821082 0.160925
O O1 0.769540 0.841194 0.799491
O O2 0.823916 0.722129 0.725605
O O3 0.861033 0.795153 0.837334
O O4 0.840616 0.000000 0.761468
O O5 0.939604 0.287831 0.500000
O O6 0.916462 0.500000 0.429642
O O7 0.867273 0.252818 0.428506
O O8 0.953765 0.272056 0.378169
O O9 0.546637 0.751210 0.333710
O O10 0.500000 0.779684 0.230600
O O11 0.500000 0.000000 0.307114
O O12 0.284045 0.727153 0.120454
O O13 0.299388 0.000000 0.157004
O O14 0.677040 0.500000 0.067954
O O15 0.705244 0.712211 0.000000
O O16 0.582610 0.500000 0.379022
O O17 0.582547 0.750707 0.440075
O O18 0.064836 0.500000 0.000000
O O19 0.000000 0.293316 0.000000
O O20 0.500000 0.000000 0.159927
#
# Coordination Sequence:
#
# PCOD9522516 Si02
#       8
#    16  16   8  16  16  16   8   8
#     4   9  21  40  61  89 119 148 186 233 285 342
#     4   9  17  32  54  78 105 144 193 235 279 333
#     4  11  23  37  54  84 122 151 191 239 281 339
#     4  10  20  37  62  87 114 151 191 234 286 340
#     4  10  21  36  53  77 112 150 189 233 280 329
#     4  11  23  41  64  88 117 153 193 235 286 346
#     4  11  23  41  65  91 120 154 194 240 290 347
#     4   9  19  33  51  79 112 145 182 235 286 327
#
# _framework density 18.748898000000001
#
# number of rings (size 3 to 8) (size 9 to 14) (size 15 to 20)
#    0.000    2.077    0.769    2.077    2.154    4.000 
#    1.385    1.154    0.000    1.846    0.000    0.000 
#    0.000    0.000    0.000    0.000    0.000    0.000 
#
# Total GULP energy -289941.621463 kJ/mol
# GULP energy per Si atom -5575.800413 kJ/mol
# Density = 1.870622 g / cm^3
# Si number density = 18.748898 Si / 1000 Ang^3
#
#
#
# Elastic Constant Matrix: (Units=GPa)
#
#
# Indices 1 2 3 4 5 6 
#
# 1 39.8312 27.8619 24.2345 0.0000 0.0000 0.0000
# 2 27.8619 61.3417 47.4912 0.0000 0.0000 0.0000
# 3 24.2345 47.4912 121.1097 0.0000 0.0000 0.0000
# 4 0.0000 0.0000 0.0000 29.9659 0.0000 0.0000
# 5 0.0000 0.0000 0.0000 0.0000 28.7733 0.0000
# 6 0.0000 0.0000 0.0000 0.0000 0.0000 127.8174
#
#
#
# Elastic Compliance Matrix: (Units=1/GPa)
#
#
# Indices 1 2 3 4 5 6 
#
# 1 0.036911 -0.015863 -0.001166 0.000000 0.000000 0.000000
# 2 -0.015863 0.030226 -0.008678 0.000000 0.000000 0.000000
# 3 -0.001166 -0.008678 0.011893 0.000000 0.000000 0.000000
# 4 0.000000 0.000000 0.000000 0.033371 0.000000 0.000000
# 5 0.000000 0.000000 0.000000 0.000000 0.034754 0.000000
# 6 0.000000 0.000000 0.000000 0.000000 0.000000 0.007824
#
#
# Mechanical properties :
#
#
# Convention : Reuss Voigt Hill
#
# Bulk Modulus (GPa) = 36.21006 46.82863 41.51935
# Shear Modulus (GPa) = 23.19113 45.49099 34.34106
#
# Velocity S-wave (km/s) = 3.52082 4.93112 4.28440
# Velocity P-wave (km/s) = 5.99027 7.57973 6.83138
#
# Compressibility (1/GPa) = 0.02761663
#
# Stress axis : x y z
#
# Youngs Moduli (GPa) = 27.09202 33.08399 84.08060
#
# Poissons Ratio (x) = 0.52481 0.09801
# Poissons Ratio (y) = 0.42976 0.72969
# Poissons Ratio (z) = 0.03158 0.28712
#
# Static dielectric constant tensor:
#      x y z
#    x 1.636960 0.000000 0.000000 
#    y 0.000000 1.644770 0.000000 
#    z 0.000000 0.000000 1.674140 
# 
# From -- ./inp_files/56294.got.cif
#   From: 2010.05.17/outbox.cif.g08.bks.cpg/sg71_29_cif.got.tgz:56294.got - 2010.06.03 16:22:01.
