data_PCOD9522835
_publ_section_title
;
Structure prediction by ZEFSAII (Michael W. Deem and Ramdas Pophale) SiO2 
 PCOD9522835
Probable space group: I M M M
;
_chemical_formula_sum "Si O2"
_cell_formula_units_Z 104
_cell_length_a 15.066298
_cell_length_b 15.724941
_cell_length_c 19.893854
_cell_angle_alpha 90.000000
_cell_angle_beta 90.000000
_cell_angle_gamma 90.000000
_cell_volume 4713.185188
_symmetry_space_group_name_H-M "I M M M"
_symmetry_group_IT_number 71
_symmetry_cell_setting 'orthorhombic'
loop_
_space_group_symop_operation_xyz
x,y,z
-x,-y,z
x,-y,-z
-x,y,-z
-x,-y,-z
x,y,-z
-x,y,z
x,-y,z
1/2+x,1/2+y,1/2+z
1/2-x,1/2-y,1/2+z
1/2+x,1/2-y,1/2-z
1/2-x,1/2+y,1/2-z
1/2-x,1/2-y,1/2-z
1/2+x,1/2+y,1/2-z
1/2-x,1/2+y,1/2+z
1/2+x,1/2-y,1/2+z
loop_
_atom_site_type_symbol
_atom_site_label
_atom_site_fract_x
_atom_site_fract_y
_atom_site_fract_z
Si Si1 0.891496 0.094644 0.353726
Si Si2 0.147403 0.906572 0.077377
Si Si3 0.167810 0.591825 0.356177
Si Si4 0.107531 0.252949 0.265728
Si Si5 0.898518 0.278387 0.882756
Si Si6 0.395140 0.145210 0.000000
Si Si7 0.391419 0.661403 0.000000
Si Si8 0.890698 0.400675 0.000000
O O1 0.861619 0.166221 0.301352
O O2 0.865128 0.117401 0.430228
O O3 0.000000 0.095304 0.353216
O O4 0.861764 0.000000 0.335816
O O5 0.227375 0.904420 0.130229
O O6 0.098964 0.817230 0.087392
O O7 0.102903 0.000000 0.085540
O O8 0.180401 0.905629 0.000000
O O9 0.143596 0.500000 0.327053
O O10 0.132560 0.669041 0.313040
O O11 0.130118 0.599698 0.431505
O O12 0.143085 0.269917 0.190977
O O13 0.000000 0.246650 0.261970
O O14 0.859625 0.346099 0.935209
O O15 0.000000 0.306625 0.872556
O O16 0.500000 0.154577 0.000000
O O17 0.357724 0.241514 0.000000
O O18 0.500000 0.661856 0.000000
O O19 0.864827 0.500000 0.000000
O O20 0.000000 0.398368 0.000000
#
# Coordination Sequence:
#
# PCOD9522835 Si02
#       8
#    16  16  16  16  16   8   8   8
#     4   9  16  27  44  68 101 141 183 229 279 326
#     4  10  21  38  60  86 114 148 193 241 291 348
#     4  11  22  36  54  80 116 157 194 231 281 340
#     4  10  21  35  53  83 118 150 190 237 284 343
#     4  10  21  38  62  89 113 144 188 238 298 357
#     4  11  19  30  51  78 108 148 197 238 273 321
#     4   9  15  25  44  68  95 135 186 231 266 310
#     4   9  18  35  60  87 111 137 176 228 287 350
#
# _framework density 22.065757999999999
#
# number of rings (size 3 to 8) (size 9 to 14) (size 15 to 20)
#    0.000    2.077    3.077    0.923    0.000    4.615 
#    0.000    3.846    0.000    0.923    0.000    0.000 
#    0.000    0.000    0.000    0.000    0.000    0.000 
#
# Total GULP energy -290314.162620 kJ/mol
# GULP energy per Si atom -5582.964666 kJ/mol
# Density = 2.201554 g / cm^3
# Si number density = 22.065758 Si / 1000 Ang^3
#
#
#
# Elastic Constant Matrix: (Units=GPa)
#
#
# Indices 1 2 3 4 5 6 
#
# 1 25.8735 10.1454 3.0044 0.0000 0.0000 0.0000
# 2 10.1454 203.7176 92.0950 0.0000 0.0000 0.0000
# 3 3.0044 92.0950 161.3098 0.0000 0.0000 0.0000
# 4 0.0000 0.0000 0.0000 -10.5007 0.0000 0.0000
# 5 0.0000 0.0000 0.0000 0.0000 -12.0237 0.0000
# 6 0.0000 0.0000 0.0000 0.0000 0.0000 15.5965
#
#
#
# Elastic Compliance Matrix: (Units=1/GPa)
#
#
# Indices 1 2 3 4 5 6 
#
# 1 0.039452 -0.002201 0.000522 0.000000 0.000000 0.000000
# 2 -0.002201 0.006739 -0.003807 0.000000 0.000000 0.000000
# 3 0.000522 -0.003807 0.008363 0.000000 0.000000 0.000000
# 4 0.000000 0.000000 0.000000 -0.095232 0.000000 0.000000
# 5 0.000000 0.000000 0.000000 0.000000 -0.083169 0.000000
# 6 0.000000 0.000000 0.000000 0.000000 0.000000 0.064117
#
#
# Mechanical properties :
#
#
# Convention : Reuss Voigt Hill
#
# Bulk Modulus (GPa) = 22.94483 66.82117 44.88300
# Shear Modulus (GPa) = -146.06308 17.65817 -64.20246
#
# Velocity S-wave (km/s) = -8.14482 2.83194 -5.39992
# Velocity P-wave (km/s) = 8.83345 6.40638 4.30048
#
# Compressibility (1/GPa) = 0.04358280
#
# Stress axis : x y z
#
# Youngs Moduli (GPa) = 25.34730 148.38605 119.57750
#
# Poissons Ratio (x) = 0.32653 -0.06236
# Poissons Ratio (y) = 0.05578 0.45518
# Poissons Ratio (z) = -0.01322 0.56484
#
# Static dielectric constant tensor:
#      x y z
#    x 1.828720 0.000000 0.000000 
#    y 0.000000 1.795320 0.000000 
#    z 0.000000 0.000000 1.776750 
# 
# From -- ./inp_files/47356.got.cif
#   From: 2010.05.17/outbox.cif.g08.bks.cpg/sg71_24_cif.got.tgz:47356.got - 2010.06.03 16:22:01.
