data_PCOD9522985
_publ_section_title
;
Structure prediction by ZEFSAII (Michael W. Deem and Ramdas Pophale) SiO2 
 PCOD9522985
Probable space group: I M M M
;
_chemical_formula_sum "Si O2"
_cell_formula_units_Z 80
_cell_length_a 8.601440
_cell_length_b 18.910387
_cell_length_c 26.169396
_cell_angle_alpha 90.000000
_cell_angle_beta 90.000000
_cell_angle_gamma 90.000000
_cell_volume 4256.623909
_symmetry_space_group_name_H-M "I M M M"
_symmetry_group_IT_number 71
_symmetry_cell_setting 'orthorhombic'
loop_
_space_group_symop_operation_xyz
x,y,z
-x,-y,z
x,-y,-z
-x,y,-z
-x,-y,-z
x,y,-z
-x,y,z
x,-y,z
1/2+x,1/2+y,1/2+z
1/2-x,1/2-y,1/2+z
1/2+x,1/2-y,1/2-z
1/2-x,1/2+y,1/2-z
1/2-x,1/2-y,1/2-z
1/2+x,1/2+y,1/2-z
1/2-x,1/2+y,1/2+z
1/2+x,1/2-y,1/2+z
loop_
_atom_site_type_symbol
_atom_site_label
_atom_site_fract_x
_atom_site_fract_y
_atom_site_fract_z
Si Si1 0.811763 0.918462 0.654578
Si Si2 0.313319 0.829461 0.250239
Si Si3 0.312290 0.673091 0.058159
Si Si4 0.186125 0.829366 0.058585
Si Si5 0.312289 0.081177 0.151175
O O1 0.745775 0.871983 0.700578
O O2 0.764598 0.883319 0.600724
O O3 0.000000 0.916687 0.656988
O O4 0.761943 0.000000 0.658440
O O5 0.500000 0.827400 0.250696
O O6 0.250000 0.750000 0.250000
O O7 0.261925 0.871452 0.199344
O O8 0.500000 0.677331 0.058890
O O9 0.246744 0.750574 0.070801
O O10 0.264383 0.655303 0.000000
O O11 0.251967 0.884230 0.099193
O O12 0.000000 0.829488 0.060722
O O13 0.234165 0.845103 0.000000
O O14 0.500000 0.081793 0.150314
O O15 0.260755 0.000000 0.156841
#
# Coordination Sequence:
#
# PCOD9522985 Si02
#       5
#    16  16  16  16  16
#     4  10  21  36  55  82 114 145 180 224 273 323
#     4  11  23  39  59  82 109 142 182 226 272 323
#     4   9  18  34  56  80 108 145 186 224 263 313
#     4  10  21  36  55  81 111 141 176 221 270 318
#     4  10  22  39  57  78 106 141 180 220 264 318
#
# _framework density 18.794238
#
# number of rings (size 3 to 8) (size 9 to 14) (size 15 to 20)
#    0.000    2.000    0.000    3.000    0.000   10.800 
#    0.000    4.000    0.000    0.000    0.000    4.200 
#    0.000    0.000    0.000    0.000    0.000    0.000 
#
# Total GULP energy -223455.990243 kJ/mol
# GULP energy per Si atom -5586.399756 kJ/mol
# Density = 1.875146 g / cm^3
# Si number density = 18.794238 Si / 1000 Ang^3
#
#
#
# Elastic Constant Matrix: (Units=GPa)
#
#
# Indices 1 2 3 4 5 6 
#
# 1 13.6778 35.4084 29.0293 0.0000 0.0000 0.0000
# 2 35.4084 200.2502 123.7434 0.0000 0.0000 0.0000
# 3 29.0293 123.7434 135.5721 0.0000 0.0000 0.0000
# 4 0.0000 0.0000 0.0000 -7.4310 0.0000 0.0000
# 5 0.0000 0.0000 0.0000 0.0000 31.8829 0.0000
# 6 0.0000 0.0000 0.0000 0.0000 0.0000 21.1521
#
#
#
# Elastic Compliance Matrix: (Units=1/GPa)
#
#
# Indices 1 2 3 4 5 6 
#
# 1 0.152620 -0.015579 -0.018459 0.000000 0.000000 0.000000
# 2 -0.015579 0.013045 -0.008571 0.000000 0.000000 0.000000
# 3 -0.018459 -0.008571 0.019152 0.000000 0.000000 0.000000
# 4 0.000000 0.000000 0.000000 -0.134572 0.000000 0.000000
# 5 0.000000 0.000000 0.000000 0.000000 0.031365 0.000000
# 6 0.000000 0.000000 0.000000 0.000000 0.000000 0.047277
#
#
# Mechanical properties :
#
#
# Convention : Reuss Voigt Hill
#
# Bulk Modulus (GPa) = 10.04047 80.65137 45.34592
# Shear Modulus (GPa) = 20.21812 19.87541 20.04677
#
# Velocity S-wave (km/s) = 3.28344 3.25549 3.26950
# Velocity P-wave (km/s) = 4.44168 7.55890 6.19941
#
# Compressibility (1/GPa) = 0.09959693
#
# Stress axis : x y z
#
# Youngs Moduli (GPa) = 6.55224 76.65982 52.21509
#
# Poissons Ratio (x) = 1.19431 0.96386
# Poissons Ratio (y) = 0.10208 0.44751
# Poissons Ratio (z) = 0.12095 0.65702
#
# Static dielectric constant tensor:
#      x y z
#    x 1.643910 0.000000 0.000000 
#    y 0.000000 1.615680 0.000000 
#    z 0.000000 0.000000 1.640700 
# 
# From -- ./inp_files/8303.got.cif
#   From: 2010.05.17/outbox.cif.g08.bks.cpg/sg71_5_cif.got.tgz:8303.got - 2010.06.03 16:22:01.
