data_PCOD9522704
_publ_section_title
;
Structure prediction by ZEFSAII (Michael W. Deem and Ramdas Pophale) SiO2 
 PCOD9522704
Probable space group: I M M M
;
_chemical_formula_sum "Si O2"
_cell_formula_units_Z 120
_cell_length_a 21.750260
_cell_length_b 13.417923
_cell_length_c 18.978697
_cell_angle_alpha 90.000000
_cell_angle_beta 90.000000
_cell_angle_gamma 90.000000
_cell_volume 5538.805826
_symmetry_space_group_name_H-M "I M M M"
_symmetry_group_IT_number 71
_symmetry_cell_setting 'orthorhombic'
loop_
_space_group_symop_operation_xyz
x,y,z
-x,-y,z
x,-y,-z
-x,y,-z
-x,-y,-z
x,y,-z
-x,y,z
x,-y,z
1/2+x,1/2+y,1/2+z
1/2-x,1/2-y,1/2+z
1/2+x,1/2-y,1/2-z
1/2-x,1/2+y,1/2-z
1/2-x,1/2-y,1/2-z
1/2+x,1/2+y,1/2-z
1/2-x,1/2+y,1/2+z
1/2+x,1/2-y,1/2+z
loop_
_atom_site_type_symbol
_atom_site_label
_atom_site_fract_x
_atom_site_fract_y
_atom_site_fract_z
Si Si1 0.700289 0.378105 0.187453
Si Si2 0.434768 0.177560 0.580353
Si Si3 0.500000 0.884419 0.085962
Si Si4 0.259850 0.620246 0.344270
Si Si5 0.568186 0.382346 0.780896
Si Si6 0.804072 0.619335 0.919685
Si Si7 0.894339 0.114737 0.115576
Si Si8 0.134406 0.378063 0.418326
O O1 0.698840 0.500000 0.185942
O O2 0.725512 0.349947 0.264366
O O3 0.629569 0.344399 0.180681
O O4 0.748602 0.345080 0.128791
O O5 0.434200 0.138894 0.500000
O O6 0.500000 0.148206 0.613372
O O7 0.370988 0.141957 0.613184
O O8 0.430347 0.297158 0.578419
O O9 0.433228 0.842839 0.106702
O O10 0.500000 0.000000 0.108542
O O11 0.500000 0.883507 0.000000
O O12 0.258098 0.500000 0.343247
O O13 0.321684 0.641075 0.388932
O O14 0.193879 0.650928 0.373641
O O15 0.500000 0.338920 0.792733
O O16 0.564135 0.500000 0.798336
O O17 0.584895 0.378922 0.697572
O O18 0.799231 0.500000 0.923666
O O19 0.800867 0.658408 0.000000
O O20 0.903928 0.000000 0.092983
O O21 0.143018 0.347707 0.500000
O O22 0.131925 0.500000 0.418303
#
# Coordination Sequence:
#
# PCOD9522704 Si02
#       8
#    16  16   8  16  16  16  16  16
#     4   8  14  26  45  68  93 119 151 197 245 287
#     4  10  21  34  48  69  95 123 160 204 243 283
#     4   7  10  16  26  42  66 100 145 193 232 264
#     4   8  14  24  39  61  92 127 158 191 227 267
#     4   8  13  23  42  67  96 132 165 188 219 273
#     4   9  18  34  55  72  88 118 160 207 257 302
#     4   9  17  29  45  68 100 134 160 184 222 277
#     4   8  12  18  30  49  76 114 157 195 229 266
#
# _framework density 21.665320000000001
#
# number of rings (size 3 to 8) (size 9 to 14) (size 15 to 20)
#    0.000    3.533    0.000    2.800    0.000    1.867 
#    0.000    6.000    1.467    0.400    0.000    2.800 
#    2.000    0.000    0.400    0.000    0.667    0.000 
#
# Total GULP energy -334425.550679 kJ/mol
# GULP energy per Si atom -5573.759178 kJ/mol
# Density = 2.161601 g / cm^3
# Si number density = 21.665320 Si / 1000 Ang^3
#
#
#
# Elastic Constant Matrix: (Units=GPa)
#
#
# Indices 1 2 3 4 5 6 
#
# 1 261.8621 22.3245 67.5604 0.0000 0.0000 0.0000
# 2 22.3245 41.2197 5.7716 0.0000 0.0000 0.0000
# 3 67.5604 5.7716 40.7279 0.0000 0.0000 0.0000
# 4 0.0000 0.0000 0.0000 2.7028 0.0000 0.0000
# 5 0.0000 0.0000 0.0000 0.0000 26.5007 0.0000
# 6 0.0000 0.0000 0.0000 0.0000 0.0000 24.2067
#
#
#
# Elastic Compliance Matrix: (Units=1/GPa)
#
#
# Indices 1 2 3 4 5 6 
#
# 1 0.006860 -0.002165 -0.011073 0.000000 0.000000 0.000000
# 2 -0.002165 0.025435 -0.000013 0.000000 0.000000 0.000000
# 3 -0.011073 -0.000013 0.042923 0.000000 0.000000 0.000000
# 4 0.000000 0.000000 0.000000 0.369988 0.000000 0.000000
# 5 0.000000 0.000000 0.000000 0.000000 0.037735 0.000000
# 6 0.000000 0.000000 0.000000 0.000000 0.000000 0.041311
#
#
# Mechanical properties :
#
#
# Convention : Reuss Voigt Hill
#
# Bulk Modulus (GPa) = 20.52716 59.45808 39.99262
# Shear Modulus (GPa) = 8.81845 27.22559 18.02202
#
# Velocity S-wave (km/s) = 2.01969 3.54876 2.88729
# Velocity P-wave (km/s) = 3.86447 6.65546 5.44193
#
# Compressibility (1/GPa) = 0.04871594
#
# Stress axis : x y z
#
# Youngs Moduli (GPa) = 145.76757 39.31650 23.29734
#
# Poissons Ratio (x) = 0.08512 0.25797
# Poissons Ratio (y) = 0.31559 0.00030
# Poissons Ratio (z) = 1.61410 0.00051
#
# Static dielectric constant tensor:
#      x y z
#    x 1.837360 0.000000 0.000000 
#    y 0.000000 1.809410 0.000000 
#    z 0.000000 0.000000 1.765410 
# 
# From -- ./inp_files/55150.got.cif
#   From: 2010.05.17/outbox.cif.g08.bks.cpg/sg71_28_cif.got.tgz:55150.got - 2010.06.03 16:22:01.
