data_PCOD9522110
_publ_section_title
;
Structure prediction by ZEFSAII (Michael W. Deem and Ramdas Pophale) SiO2 
 PCOD9522110
Probable space group: I M M M
;
_chemical_formula_sum "Si O2"
_cell_formula_units_Z 72
_cell_length_a 9.431954
_cell_length_b 23.851526
_cell_length_c 15.249945
_cell_angle_alpha 90.000000
_cell_angle_beta 90.000000
_cell_angle_gamma 90.000000
_cell_volume 3430.726692
_symmetry_space_group_name_H-M "I M M M"
_symmetry_group_IT_number 71
_symmetry_cell_setting 'orthorhombic'
loop_
_space_group_symop_operation_xyz
x,y,z
-x,-y,z
x,-y,-z
-x,y,-z
-x,-y,-z
x,y,-z
-x,y,z
x,-y,z
1/2+x,1/2+y,1/2+z
1/2-x,1/2-y,1/2+z
1/2+x,1/2-y,1/2-z
1/2-x,1/2+y,1/2-z
1/2-x,1/2-y,1/2-z
1/2+x,1/2+y,1/2-z
1/2-x,1/2+y,1/2+z
1/2+x,1/2-y,1/2+z
loop_
_atom_site_type_symbol
_atom_site_label
_atom_site_fract_x
_atom_site_fract_y
_atom_site_fract_z
Si Si1 0.846576 0.661086 0.898567
Si Si2 0.337645 0.560764 0.107318
Si Si3 0.669198 0.278388 0.668990
Si Si4 0.835443 0.000000 0.107178
Si Si5 0.833862 0.388401 0.393485
O O1 0.739312 0.616307 0.859062
O O2 0.814096 0.726755 0.898418
O O3 0.000000 0.654817 0.855035
O O4 0.857537 0.644696 0.000000
O O5 0.500000 0.562238 0.136073
O O6 0.274702 0.500000 0.132245
O O7 0.340529 0.561636 0.000000
O O8 0.500000 0.288009 0.682532
O O9 0.750000 0.250000 0.750000
O O10 0.749837 0.334177 0.640748
O O11 0.749803 0.944487 0.134510
O O12 0.000000 0.000000 0.136068
O O13 0.837430 0.000000 0.000000
O O14 0.830544 0.386849 0.500000
O O15 0.000000 0.388771 0.367659
#
# Coordination Sequence:
#
# PCOD9522110 Si02
#       5
#    16  16  16   8  16
#     4   9  18  32  51  75 101 131 170 216 265 318
#     4   8  14  25  43  69  99 128 159 200 249 297
#     4  11  23  38  55  76 108 147 187 230 279 336
#     4   9  17  31  55  87 119 149 182 225 280 337
#     4  10  20  35  58  88 118 148 186 232 283 340
#
# _framework density 20.986806999999999
#
# number of rings (size 3 to 8) (size 9 to 14) (size 15 to 20)
#    0.000    2.556    0.000    3.000    0.000    5.778 
#    0.000    4.444    2.444    0.000    0.000    0.000 
#    0.000    0.000    0.000    0.000    0.000    0.000 
#
# Total GULP energy -200674.069036 kJ/mol
# GULP energy per Si atom -5574.279695 kJ/mol
# Density = 2.093904 g / cm^3
# Si number density = 20.986807 Si / 1000 Ang^3
#
#
#
# Elastic Constant Matrix: (Units=GPa)
#
#
# Indices 1 2 3 4 5 6 
#
# 1 176.2364 139.4338 24.8947 0.0000 0.0000 0.0000
# 2 139.4338 224.7707 13.5232 0.0000 0.0000 0.0000
# 3 24.8947 13.5232 28.0562 0.0000 0.0000 0.0000
# 4 0.0000 0.0000 0.0000 11.2536 0.0000 0.0000
# 5 0.0000 0.0000 0.0000 0.0000 12.1791 0.0000
# 6 0.0000 0.0000 0.0000 0.0000 0.0000 45.2934
#
#
#
# Elastic Compliance Matrix: (Units=1/GPa)
#
#
# Indices 1 2 3 4 5 6 
#
# 1 0.012541 -0.007322 -0.007598 0.000000 0.000000 0.000000
# 2 -0.007322 0.008857 0.002228 0.000000 0.000000 0.000000
# 3 -0.007598 0.002228 0.041311 0.000000 0.000000 0.000000
# 4 0.000000 0.000000 0.000000 0.088861 0.000000 0.000000
# 5 0.000000 0.000000 0.000000 0.000000 0.082108 0.000000
# 6 0.000000 0.000000 0.000000 0.000000 0.000000 0.022078
#
#
# Mechanical properties :
#
#
# Convention : Reuss Voigt Hill
#
# Bulk Modulus (GPa) = 26.79262 87.19629 56.99445
# Shear Modulus (GPa) = 17.03100 30.49265 23.76183
#
# Velocity S-wave (km/s) = 2.85179 3.81589 3.36851
# Velocity P-wave (km/s) = 4.86187 7.81364 6.50733
#
# Compressibility (1/GPa) = 0.03732372
#
# Stress axis : x y z
#
# Youngs Moduli (GPa) = 79.73981 112.90144 24.20674
#
# Poissons Ratio (x) = 0.82671 0.18393
# Poissons Ratio (y) = 0.58389 -0.05393
# Poissons Ratio (z) = 0.60588 -0.25155
#
# Static dielectric constant tensor:
#      x y z
#    x 1.758220 0.000000 0.000000 
#    y 0.000000 1.767560 0.000000 
#    z 0.000000 0.000000 1.657750 
# 
# From -- ./inp_files/42088.got.cif
#   From: 2010.05.17/outbox.cif.g08.bks.cpg/sg71_22_cif.got.tgz:42088.got - 2010.06.03 16:22:01.
