data_PCOD9522792
_publ_section_title
;
Structure prediction by ZEFSAII (Michael W. Deem and Ramdas Pophale) SiO2 
 PCOD9522792
Probable space group: I M M M
;
_chemical_formula_sum "Si O2"
_cell_formula_units_Z 88
_cell_length_a 7.559760
_cell_length_b 29.814469
_cell_length_c 20.046478
_cell_angle_alpha 90.000000
_cell_angle_beta 90.000000
_cell_angle_gamma 90.000000
_cell_volume 4518.280290
_symmetry_space_group_name_H-M "I M M M"
_symmetry_group_IT_number 71
_symmetry_cell_setting 'orthorhombic'
loop_
_space_group_symop_operation_xyz
x,y,z
-x,-y,z
x,-y,-z
-x,y,-z
-x,-y,-z
x,y,-z
-x,y,z
x,-y,z
1/2+x,1/2+y,1/2+z
1/2-x,1/2-y,1/2+z
1/2+x,1/2-y,1/2-z
1/2-x,1/2+y,1/2-z
1/2-x,1/2-y,1/2-z
1/2+x,1/2+y,1/2-z
1/2-x,1/2+y,1/2+z
1/2+x,1/2-y,1/2+z
loop_
_atom_site_type_symbol
_atom_site_label
_atom_site_fract_x
_atom_site_fract_y
_atom_site_fract_z
Si Si1 0.287486 0.091940 0.171952
Si Si2 0.713927 0.194127 0.802664
Si Si3 0.287430 0.625994 0.075406
Si Si4 0.704727 0.713239 0.849700
Si Si5 0.000000 0.053423 0.924614
Si Si6 0.788090 0.550863 0.814952
O O1 0.500000 0.085849 0.164732
O O2 0.247383 0.144910 0.171037
O O3 0.232244 0.071916 0.244072
O O4 0.173178 0.068932 0.115246
O O5 0.500000 0.198001 0.796978
O O6 0.779025 0.236165 0.846771
O O7 0.786389 0.198417 0.727708
O O8 0.500000 0.629939 0.072736
O O9 0.217394 0.672775 0.106794
O O10 0.252280 0.584814 0.125085
O O11 0.222709 0.618770 0.000000
O O12 0.500000 0.717535 0.870228
O O13 0.000000 0.000000 0.926386
O O14 0.000000 0.071008 0.000000
O O15 0.720041 0.500000 0.823894
O O16 0.000000 0.548249 0.811551
#
# Coordination Sequence:
#
# PCOD9522792 Si02
#       6
#    16  16  16  16   8  16
#     4  10  21  39  64  93 122 155 197 246 296 354
#     4   9  17  30  53  85 112 141 188 239 290 344
#     4  10  21  35  51  75 111 153 194 241 294 348
#     4   9  17  30  50  79 111 148 189 235 290 350
#     4  11  26  44  64  92 123 157 195 239 305 377
#     4  10  21  36  55  80 109 146 195 246 292 342
#
# _framework density 19.476434999999999
#
# number of rings (size 3 to 8) (size 9 to 14) (size 15 to 20)
#    0.000    2.273    1.818    0.545    2.545    2.545 
#    0.000    3.636    0.000    3.273    0.000    0.000 
#    0.000    0.000    0.000    0.000    0.000    0.000 
#
# Total GULP energy -245464.469194 kJ/mol
# GULP energy per Si atom -5578.737936 kJ/mol
# Density = 1.943211 g / cm^3
# Si number density = 19.476435 Si / 1000 Ang^3
#
#
#
# Elastic Constant Matrix: (Units=GPa)
#
#
# Indices 1 2 3 4 5 6 
#
# 1 52.0846 30.1477 26.6750 0.0000 0.0000 0.0000
# 2 30.1477 169.5466 95.5713 0.0000 0.0000 0.0000
# 3 26.6750 95.5713 153.7946 0.0000 0.0000 0.0000
# 4 0.0000 0.0000 0.0000 21.6963 0.0000 0.0000
# 5 0.0000 0.0000 0.0000 0.0000 7.9642 0.0000
# 6 0.0000 0.0000 0.0000 0.0000 0.0000 18.2275
#
#
#
# Elastic Compliance Matrix: (Units=1/GPa)
#
#
# Indices 1 2 3 4 5 6 
#
# 1 0.021841 -0.002691 -0.002116 0.000000 0.000000 0.000000
# 2 -0.002691 0.009409 -0.005381 0.000000 0.000000 0.000000
# 3 -0.002116 -0.005381 0.010213 0.000000 0.000000 0.000000
# 4 0.000000 0.000000 0.000000 0.046091 0.000000 0.000000
# 5 0.000000 0.000000 0.000000 0.000000 0.125561 0.000000
# 6 0.000000 0.000000 0.000000 0.000000 0.000000 0.054862
#
#
# Mechanical properties :
#
#
# Convention : Reuss Voigt Hill
#
# Bulk Modulus (GPa) = 47.41986 75.57931 61.49958
# Shear Modulus (GPa) = 16.92724 24.44638 20.68681
#
# Velocity S-wave (km/s) = 2.95127 3.54669 3.26259
# Velocity P-wave (km/s) = 6.00112 7.46068 6.77035
#
# Compressibility (1/GPa) = 0.02108821
#
# Stress axis : x y z
#
# Youngs Moduli (GPa) = 45.78600 106.27564 97.91637
#
# Poissons Ratio (x) = 0.28596 0.20720
# Poissons Ratio (y) = 0.12320 0.52684
# Poissons Ratio (z) = 0.09689 0.57182
#
# Static dielectric constant tensor:
#      x y z
#    x 1.708520 0.000000 0.000000 
#    y 0.000000 1.706710 0.000000 
#    z 0.000000 0.000000 1.644240 
# 
# From -- ./inp_files/42429.got.cif
#   From: 2010.05.17/outbox.cif.g08.bks.cpg/sg71_22_cif.got.tgz:42429.got - 2010.06.03 16:22:01.
