data_PCOD9522656
_publ_section_title
;
Structure prediction by ZEFSAII (Michael W. Deem and Ramdas Pophale) SiO2 
 PCOD9522656
Probable space group: I M M M
;
_chemical_formula_sum "Si O2"
_cell_formula_units_Z 56
_cell_length_a 15.568627
_cell_length_b 7.664505
_cell_length_c 23.718754
_cell_angle_alpha 90.000000
_cell_angle_beta 90.000000
_cell_angle_gamma 90.000000
_cell_volume 2830.259758
_symmetry_space_group_name_H-M "I M M M"
_symmetry_group_IT_number 71
_symmetry_cell_setting 'orthorhombic'
loop_
_space_group_symop_operation_xyz
x,y,z
-x,-y,z
x,-y,-z
-x,y,-z
-x,-y,-z
x,y,-z
-x,y,z
x,-y,z
1/2+x,1/2+y,1/2+z
1/2-x,1/2-y,1/2+z
1/2+x,1/2-y,1/2-z
1/2-x,1/2+y,1/2-z
1/2-x,1/2-y,1/2-z
1/2+x,1/2+y,1/2-z
1/2-x,1/2+y,1/2+z
1/2+x,1/2-y,1/2+z
loop_
_atom_site_type_symbol
_atom_site_label
_atom_site_fract_x
_atom_site_fract_y
_atom_site_fract_z
Si Si1 0.654891 0.708348 0.270862
Si Si2 0.000000 0.787921 0.311434
Si Si3 0.400210 0.287837 0.394645
Si Si4 0.000000 0.500000 0.593959
Si Si5 0.782411 0.306088 0.000000
Si Si6 0.144884 0.500000 0.500000
O O1 0.646799 0.500000 0.274411
O O2 0.750000 0.750000 0.250000
O O3 0.583154 0.762315 0.225788
O O4 0.633879 0.773674 0.333693
O O5 0.000000 0.672490 0.367322
O O6 0.000000 0.000000 0.320491
O O7 0.500000 0.238382 0.401119
O O8 0.396465 0.500000 0.396271
O O9 0.342095 0.220329 0.445283
O O10 0.916553 0.500000 0.554241
O O11 0.746176 0.500000 0.000000
O O12 0.707117 0.165833 0.000000
#
# Coordination Sequence:
#
# PCOD9522656 Si02
#       6
#    16   8  16   4   8   4
#     4  10  22  38  62  96 135 175 218 273 339 400
#     4  10  23  45  69 105 139 169 223 283 336 407
#     4  10  20  40  65  91 134 184 220 268 336 403
#     4  11  28  48  80  90 130 185 224 282 352 395
#     4  12  26  42  68  99 133 174 229 284 334 393
#     4  11  28  54  67 100 130 176 235 284 336 411
#
# _framework density 19.786168
#
# number of rings (size 3 to 8) (size 9 to 14) (size 15 to 20)
#    0.000    1.571    2.857    0.429    6.000    4.571 
#    0.000    1.429    0.000    0.000    0.000    0.000 
#    0.000    0.000    0.000    0.000    0.000    0.000 
#
# Total GULP energy -156546.808982 kJ/mol
# GULP energy per Si atom -5590.957464 kJ/mol
# Density = 1.974113 g / cm^3
# Si number density = 19.786168 Si / 1000 Ang^3
#
#
#
# Elastic Constant Matrix: (Units=GPa)
#
#
# Indices 1 2 3 4 5 6 
#
# 1 184.8079 54.8230 102.8352 0.0000 0.0000 0.0000
# 2 54.8230 96.2992 61.6758 0.0000 0.0000 0.0000
# 3 102.8352 61.6758 187.0963 0.0000 0.0000 0.0000
# 4 0.0000 0.0000 0.0000 -16.1751 0.0000 0.0000
# 5 0.0000 0.0000 0.0000 0.0000 -111.0879 0.0000
# 6 0.0000 0.0000 0.0000 0.0000 0.0000 9.4817
#
#
#
# Elastic Compliance Matrix: (Units=1/GPa)
#
#
# Indices 1 2 3 4 5 6 
#
# 1 0.008162 -0.002248 -0.003745 0.000000 0.000000 0.000000
# 2 -0.002248 0.013783 -0.003308 0.000000 0.000000 0.000000
# 3 -0.003745 -0.003308 0.008494 0.000000 0.000000 0.000000
# 4 0.000000 0.000000 0.000000 -0.061823 0.000000 0.000000
# 5 0.000000 0.000000 0.000000 0.000000 -0.009002 0.000000
# 6 0.000000 0.000000 0.000000 0.000000 0.000000 0.105466
#
#
# Mechanical properties :
#
#
# Convention : Reuss Voigt Hill
#
# Bulk Modulus (GPa) = 84.48479 100.76349 92.62414
# Shear Modulus (GPa) = 57.06092 -6.96496 25.04798
#
# Velocity S-wave (km/s) = 5.37600 -1.87823 3.56186
# Velocity P-wave (km/s) = 9.01814 6.80684 7.98937
#
# Compressibility (1/GPa) = 0.01183645
#
# Stress axis : x y z
#
# Youngs Moduli (GPa) = 122.52278 72.55530 117.73520
#
# Poissons Ratio (x) = 0.16310 0.44092
# Poissons Ratio (y) = 0.27543 0.38945
# Poissons Ratio (z) = 0.45884 0.24000
#
# Static dielectric constant tensor:
#      x y z
#    x -1.679540 0.000000 0.000000 
#    y 0.000000 1.717330 0.000000 
#    z 0.000000 0.000000 1.684870 
# 
# From -- ./inp_files/49856.got.cif
#   From: 2010.05.17/outbox.cif.g08.bks.cpg/sg71_25_cif.got.tgz:49856.got - 2010.06.03 16:22:01.
