data_PCOD9522051
_publ_section_title
;
Structure prediction by ZEFSAII (Michael W. Deem and Ramdas Pophale) SiO2 
 PCOD9522051
Probable space group: I M M M
;
_chemical_formula_sum "Si O2"
_cell_formula_units_Z 100
_cell_length_a 23.182444
_cell_length_b 7.472461
_cell_length_c 29.440989
_cell_angle_alpha 90.000000
_cell_angle_beta 90.000000
_cell_angle_gamma 90.000000
_cell_volume 5100.059836
_symmetry_space_group_name_H-M "I M M M"
_symmetry_group_IT_number 71
_symmetry_cell_setting 'orthorhombic'
loop_
_space_group_symop_operation_xyz
x,y,z
-x,-y,z
x,-y,-z
-x,y,-z
-x,-y,-z
x,y,-z
-x,y,z
x,-y,z
1/2+x,1/2+y,1/2+z
1/2-x,1/2-y,1/2+z
1/2+x,1/2-y,1/2-z
1/2-x,1/2+y,1/2-z
1/2-x,1/2-y,1/2-z
1/2+x,1/2+y,1/2-z
1/2-x,1/2+y,1/2+z
1/2+x,1/2-y,1/2+z
loop_
_atom_site_type_symbol
_atom_site_label
_atom_site_fract_x
_atom_site_fract_y
_atom_site_fract_z
Si Si1 0.682292 0.711124 0.754483
Si Si2 0.209550 0.210897 0.100647
Si Si3 0.392370 0.719411 0.335132
Si Si4 0.751008 0.786677 0.500000
Si Si5 0.826744 0.294270 0.644032
Si Si6 0.384527 0.715492 0.000000
Si Si7 0.000000 0.500000 0.835379
Si Si8 0.936781 0.290594 0.596136
O O1 0.675151 0.500000 0.759780
O O2 0.750000 0.750000 0.750000
O O3 0.645241 0.760695 0.710374
O O4 0.665630 0.795976 0.802258
O O5 0.149583 0.272469 0.122635
O O6 0.219603 0.233872 0.046878
O O7 0.266076 0.285624 0.126894
O O8 0.208562 0.000000 0.110718
O O9 0.402919 0.500000 0.336020
O O10 0.449072 0.841074 0.335267
O O11 0.817659 0.720983 0.500000
O O12 0.753711 0.000000 0.500000
O O13 0.825107 0.500000 0.627320
O O14 0.883111 0.207390 0.622572
O O15 0.418473 0.779205 0.956041
O O16 0.383593 0.500000 0.000000
O O17 0.940298 0.500000 0.609188
O O18 0.000000 0.212083 0.603622
#
# Coordination Sequence:
#
# PCOD9522051 Si02
#       8
#    16  16  16   8  16   8   4  16
#     4  11  22  37  62  94 130 163 205 267 316 372
#     4  10  20  38  63  90 125 165 203 268 326 376
#     4  10  24  44  66 101 133 167 227 270 317 396
#     4  11  23  34  56  93 129 151 204 266 324 396
#     4  10  20  35  57  85 121 160 211 259 314 374
#     4  11  22  34  51  80 114 157 205 259 309 365
#     4  12  26  44  76  95 130 192 206 267 334 396
#     4  10  21  37  54  76 109 160 212 256 295 362
#
# _framework density 19.607614000000002
#
# number of rings (size 3 to 8) (size 9 to 14) (size 15 to 20)
#    0.000    1.600    3.200    1.440    3.360    3.200 
#    1.440    0.000    0.000    0.960    0.000    2.240 
#    0.000    0.000    0.000    0.000    0.000    0.000 
#
# Total GULP energy -278407.861770 kJ/mol
# GULP energy per Si atom -5568.157235 kJ/mol
# Density = 1.956299 g / cm^3
# Si number density = 19.607614 Si / 1000 Ang^3
#
#
#
# Elastic Constant Matrix: (Units=GPa)
#
#
# Indices 1 2 3 4 5 6 
#
# 1 197.5092 46.5907 57.7683 0.0000 0.0000 0.0000
# 2 46.5907 84.2259 2.0284 0.0000 0.0000 0.0000
# 3 57.7683 2.0284 72.0824 0.0000 0.0000 0.0000
# 4 0.0000 0.0000 0.0000 9.2842 0.0000 0.0000
# 5 0.0000 0.0000 0.0000 0.0000 4.9895 0.0000
# 6 0.0000 0.0000 0.0000 0.0000 0.0000 18.5598
#
#
#
# Elastic Compliance Matrix: (Units=1/GPa)
#
#
# Indices 1 2 3 4 5 6 
#
# 1 0.007862 -0.004200 -0.006183 0.000000 0.000000 0.000000
# 2 -0.004200 0.014125 0.002969 0.000000 0.000000 0.000000
# 3 -0.006183 0.002969 0.018744 0.000000 0.000000 0.000000
# 4 0.000000 0.000000 0.000000 0.107710 0.000000 0.000000
# 5 0.000000 0.000000 0.000000 0.000000 0.200422 0.000000
# 6 0.000000 0.000000 0.000000 0.000000 0.000000 0.053880
#
#
# Mechanical properties :
#
#
# Convention : Reuss Voigt Hill
#
# Bulk Modulus (GPa) = 38.60581 62.95468 50.78025
# Shear Modulus (GPa) = 11.73141 23.06202 17.39672
#
# Velocity S-wave (km/s) = 2.44869 3.43326 2.98189
# Velocity P-wave (km/s) = 5.26562 6.92050 6.14899
#
# Compressibility (1/GPa) = 0.02590284
#
# Stress axis : x y z
#
# Youngs Moduli (GPa) = 127.19100 70.79780 53.34914
#
# Poissons Ratio (x) = 0.29736 0.32984
# Poissons Ratio (y) = 0.53423 -0.15837
# Poissons Ratio (z) = 0.78639 -0.21017
#
# Static dielectric constant tensor:
#      x y z
#    x 1.708450 0.000000 0.000000 
#    y 0.000000 1.746270 0.000000 
#    z 0.000000 0.000000 1.729210 
# 
# From -- ./inp_files/66493.got.cif
#   From: 2010.05.17/outbox.cif.g08.bks.cpg/sg71_34_cif.got.tgz:66493.got - 2010.06.03 16:22:01.
