data_PCOD9522091
_publ_section_title
;
Structure prediction by ZEFSAII (Michael W. Deem and Ramdas Pophale) SiO2 
 PCOD9522091
Probable space group: I M M M
;
_chemical_formula_sum "Si O2"
_cell_formula_units_Z 64
_cell_length_a 15.108987
_cell_length_b 15.238596
_cell_length_c 13.405740
_cell_angle_alpha 90.000000
_cell_angle_beta 90.000000
_cell_angle_gamma 90.000000
_cell_volume 3086.534211
_symmetry_space_group_name_H-M "I M M M"
_symmetry_group_IT_number 71
_symmetry_cell_setting 'orthorhombic'
loop_
_space_group_symop_operation_xyz
x,y,z
-x,-y,z
x,-y,-z
-x,y,-z
-x,-y,-z
x,y,-z
-x,y,z
x,-y,z
1/2+x,1/2+y,1/2+z
1/2-x,1/2-y,1/2+z
1/2+x,1/2-y,1/2-z
1/2-x,1/2+y,1/2-z
1/2-x,1/2-y,1/2-z
1/2+x,1/2+y,1/2-z
1/2-x,1/2+y,1/2+z
1/2+x,1/2-y,1/2+z
loop_
_atom_site_type_symbol
_atom_site_label
_atom_site_fract_x
_atom_site_fract_y
_atom_site_fract_z
Si Si1 0.892291 0.650175 0.777549
Si Si2 0.870766 0.000000 0.888819
Si Si3 0.601330 0.895417 0.500000
Si Si4 0.840736 0.500000 0.381417
Si Si5 0.101546 0.845397 0.259625
Si Si6 0.391984 0.500000 0.885650
O O1 0.867010 0.583517 0.688191
O O2 0.861078 0.749228 0.754979
O O3 0.000000 0.646752 0.781609
O O4 0.860950 0.629211 0.890873
O O5 0.899758 0.089683 0.835076
O O6 0.764879 0.000000 0.887171
O O7 0.902766 0.000000 0.000000
O O8 0.500000 0.859655 0.500000
O O9 0.597438 0.000000 0.500000
O O10 0.872209 0.500000 0.500000
O O11 0.145067 0.911226 0.338473
O O12 0.000000 0.829768 0.291411
O O13 0.500000 0.500000 0.868119
O O14 0.375617 0.500000 0.000000
#
# Coordination Sequence:
#
# PCOD9522091 Si02
#       6
#    16   8   8   8  16   8
#     4  10  20  35  58  86 111 138 182 234 283 331
#     4  10  22  38  54  77 114 155 184 220 274 329
#     4   9  16  30  54  81 109 135 165 224 289 328
#     4  11  24  39  54  75 115 161 191 220 266 330
#     4   9  19  34  57  85 107 137 183 233 282 326
#     4   8  14  28  49  73 105 139 170 212 266 320
#
# _framework density 20.735230999999999
#
# number of rings (size 3 to 8) (size 9 to 14) (size 15 to 20)
#    0.000    2.500    1.250    1.500    1.750    4.000 
#    0.000    2.500   11.000    0.000    0.000    0.000 
#    0.000    0.000    0.000    0.000    0.000    0.000 
#
# Total GULP energy -178160.678887 kJ/mol
# GULP energy per Si atom -5567.521215 kJ/mol
# Density = 2.068804 g / cm^3
# Si number density = 20.735231 Si / 1000 Ang^3
#
#
#
# Elastic Constant Matrix: (Units=GPa)
#
#
# Indices 1 2 3 4 5 6 
#
# 1 57.0907 9.9386 15.5831 0.0000 0.0000 0.0000
# 2 9.9386 200.7321 104.5860 0.0000 0.0000 0.0000
# 3 15.5831 104.5860 180.5092 0.0000 0.0000 0.0000
# 4 0.0000 0.0000 0.0000 -37.2441 0.0000 0.0000
# 5 0.0000 0.0000 0.0000 0.0000 10.8587 0.0000
# 6 0.0000 0.0000 0.0000 0.0000 0.0000 11.0307
#
#
#
# Elastic Compliance Matrix: (Units=1/GPa)
#
#
# Indices 1 2 3 4 5 6 
#
# 1 0.017941 -0.000116 -0.001481 0.000000 0.000000 0.000000
# 2 -0.000116 0.007137 -0.004125 0.000000 0.000000 0.000000
# 3 -0.001481 -0.004125 0.008058 0.000000 0.000000 0.000000
# 4 0.000000 0.000000 0.000000 -0.026850 0.000000 0.000000
# 5 0.000000 0.000000 0.000000 0.000000 0.092092 0.000000
# 6 0.000000 0.000000 0.000000 0.000000 0.000000 0.090656
#
#
# Mechanical properties :
#
#
# Convention : Reuss Voigt Hill
#
# Bulk Modulus (GPa) = 46.10497 77.61636 61.86067
# Shear Modulus (GPa) = 24.07224 17.47735 20.77479
#
# Velocity S-wave (km/s) = 3.41094 2.90639 3.16873
# Velocity P-wave (km/s) = 6.14785 6.98400 6.57922
#
# Compressibility (1/GPa) = 0.02168963
#
# Stress axis : x y z
#
# Youngs Moduli (GPa) = 55.73953 140.12071 124.10473
#
# Poissons Ratio (x) = 0.01632 0.18384
# Poissons Ratio (y) = 0.00649 0.51192
# Poissons Ratio (z) = 0.08257 0.57799
#
# Static dielectric constant tensor:
#      x y z
#    x 1.783870 0.000000 0.000000 
#    y 0.000000 1.728450 0.000000 
#    z 0.000000 0.000000 1.761630 
# 
# From -- ./inp_files/23272.got.cif
#   From: 2010.05.17/outbox.cif.g08.bks.cpg/sg71_12_cif.got.tgz:23272.got - 2010.06.03 16:22:01.
