data_PCOD9522702
_publ_section_title
;
Structure prediction by ZEFSAII (Michael W. Deem and Ramdas Pophale) SiO2 
 PCOD9522702
Probable space group: I M M M
;
_chemical_formula_sum "Si O2"
_cell_formula_units_Z 72
_cell_length_a 7.383430
_cell_length_b 24.528530
_cell_length_c 18.267138
_cell_angle_alpha 90.000000
_cell_angle_beta 90.000000
_cell_angle_gamma 90.000000
_cell_volume 3308.264260
_symmetry_space_group_name_H-M "I M M M"
_symmetry_group_IT_number 71
_symmetry_cell_setting 'orthorhombic'
loop_
_space_group_symop_operation_xyz
x,y,z
-x,-y,z
x,-y,-z
-x,y,-z
-x,-y,-z
x,y,-z
-x,y,z
x,-y,z
1/2+x,1/2+y,1/2+z
1/2-x,1/2-y,1/2+z
1/2+x,1/2-y,1/2-z
1/2-x,1/2+y,1/2-z
1/2-x,1/2-y,1/2-z
1/2+x,1/2+y,1/2-z
1/2-x,1/2+y,1/2+z
1/2+x,1/2-y,1/2+z
loop_
_atom_site_type_symbol
_atom_site_label
_atom_site_fract_x
_atom_site_fract_y
_atom_site_fract_z
Si Si1 0.220483 0.437119 0.500000
Si Si2 0.786363 0.438829 0.779249
Si Si3 0.279988 0.755285 0.085296
Si Si4 0.782056 0.866329 0.583192
Si Si5 0.778568 0.368923 0.356621
O O1 0.279911 0.500000 0.500000
O O2 0.275108 0.404530 0.572686
O O3 0.000000 0.437719 0.500000
O O4 0.710991 0.500000 0.776300
O O5 0.767724 0.411556 0.858303
O O6 0.714264 0.398515 0.716733
O O7 0.000000 0.443269 0.764185
O O8 0.500000 0.755088 0.087427
O O9 0.219610 0.694460 0.106209
O O10 0.218115 0.806606 0.132515
O O11 0.230768 0.764153 0.000000
O O12 0.719460 0.876640 0.500000
O O13 0.000000 0.864565 0.580791
O O14 0.000000 0.367686 0.356167
#
# Coordination Sequence:
#
# PCOD9522702 Si02
#       5
#     8  16  16  16  16
#     4   9  14  20  36  64  97 133 166 189 218 272
#     4  10  21  34  47  70 104 132 156 194 243 290
#     4   8  13  25  46  71  96 122 157 199 239 279
#     4   9  19  35  54  73  92 120 163 209 245 283
#     4   9  15  25  43  68  99 132 159 189 233 282
#
# _framework density 21.763679
#
# number of rings (size 3 to 8) (size 9 to 14) (size 15 to 20)
#    0.000    3.000    1.111    2.000    0.000    4.889 
#    0.000    2.222    0.000    0.000    0.000    0.778 
#    0.000    2.667    0.000    0.000    0.000    0.000 
#
# Total GULP energy -200987.419548 kJ/mol
# GULP energy per Si atom -5582.983876 kJ/mol
# Density = 2.171414 g / cm^3
# Si number density = 21.763679 Si / 1000 Ang^3
#
#
#
# Elastic Constant Matrix: (Units=GPa)
#
#
# Indices 1 2 3 4 5 6 
#
# 1 74.0129 -0.8545 -4.9473 0.0000 0.0000 0.0000
# 2 -0.8545 103.5677 48.1167 0.0000 0.0000 0.0000
# 3 -4.9473 48.1167 91.7828 -0.0001 0.0000 0.0000
# 4 0.0000 0.0000 -0.0001 11.2702 0.0000 0.0000
# 5 0.0000 0.0000 0.0000 0.0000 -1.2171 0.0000
# 6 0.0000 0.0000 0.0000 0.0000 0.0000 1.7572
#
#
#
# Elastic Compliance Matrix: (Units=1/GPa)
#
#
# Indices 1 2 3 4 5 6 
#
# 1 0.013567 -0.000301 0.000889 0.000000 0.000000 0.000000
# 2 -0.000301 0.012771 -0.006711 0.000000 0.000000 0.000000
# 3 0.000889 -0.006711 0.014462 0.000000 -0.000001 0.000000
# 4 0.000000 0.000000 0.000000 0.088729 -0.000003 0.000000
# 5 0.000000 0.000000 -0.000001 -0.000003 -0.821639 -0.000005
# 6 0.000000 0.000000 0.000000 0.000000 -0.000005 0.569083
#
#
# Mechanical properties :
#
#
# Convention : Reuss Voigt Hill
#
# Bulk Modulus (GPa) = 35.02252 39.33259 37.17756
# Shear Modulus (GPa) = -49.37684 17.49863 -15.93911
#
# Velocity S-wave (km/s) = -4.76833 2.83862 -2.70917
# Velocity P-wave (km/s) = 3.76681 5.37173 2.70801
#
# Compressibility (1/GPa) = 0.02855305
#
# Stress axis : x y z
#
# Youngs Moduli (GPa) = 73.70758 78.30176 69.14843
#
# Poissons Ratio (x) = 0.02358 -0.06149
# Poissons Ratio (y) = 0.02220 0.46408
# Poissons Ratio (z) = -0.06554 0.52552
#
# Static dielectric constant tensor:
#      x y z
#    x 1.900410 0.000000 0.000000 
#    y 0.000000 1.776980 0.000000 
#    z 0.000000 0.000000 1.745060 
# 
# From -- ./inp_files/12170.got.cif
#   From: 2010.05.17/outbox.cif.g08.bks.cpg/sg71_7_cif.got.tgz:12170.got - 2010.06.03 16:22:01.
