data_PCOD9522981
_publ_section_title
;
Structure prediction by ZEFSAII (Michael W. Deem and Ramdas Pophale) SiO2 
 PCOD9522981
Probable space group: I M M M
;
_chemical_formula_sum "Si O2"
_cell_formula_units_Z 64
_cell_length_a 23.876060
_cell_length_b 14.299341
_cell_length_c 10.546841
_cell_angle_alpha 90.000000
_cell_angle_beta 90.000000
_cell_angle_gamma 90.000000
_cell_volume 3600.817275
_symmetry_space_group_name_H-M "I M M M"
_symmetry_group_IT_number 71
_symmetry_cell_setting 'orthorhombic'
loop_
_space_group_symop_operation_xyz
x,y,z
-x,-y,z
x,-y,-z
-x,y,-z
-x,-y,-z
x,y,-z
-x,y,z
x,-y,z
1/2+x,1/2+y,1/2+z
1/2-x,1/2-y,1/2+z
1/2+x,1/2-y,1/2-z
1/2-x,1/2+y,1/2-z
1/2-x,1/2-y,1/2-z
1/2+x,1/2+y,1/2-z
1/2-x,1/2+y,1/2+z
1/2+x,1/2-y,1/2+z
loop_
_atom_site_type_symbol
_atom_site_label
_atom_site_fract_x
_atom_site_fract_y
_atom_site_fract_z
Si Si1 0.826460 0.230665 0.642387
Si Si2 0.764390 0.888831 0.853827
Si Si3 0.067889 0.395501 0.000000
Si Si4 0.067425 0.897196 0.000000
Si Si5 0.566637 0.750552 0.715864
O O1 0.815833 0.195773 0.500000
O O2 0.803377 0.159472 0.748424
O O3 0.792945 0.328623 0.655826
O O4 0.892037 0.246503 0.666800
O O5 0.757619 0.000000 0.833874
O O6 0.784911 0.875330 0.000000
O O7 0.082522 0.337905 0.125653
O O8 0.090126 0.500000 0.000000
O O9 0.000000 0.398023 0.000000
O O10 0.079159 0.838147 0.125448
O O11 0.000000 0.904954 0.000000
O O12 0.092900 0.000000 0.000000
O O13 0.500000 0.753285 0.742529
#
# Coordination Sequence:
#
# PCOD9522981 Si02
#       5
#    16  16   8   8  16
#     4  10  21  36  55  80 113 140 172 224 270 322
#     4   9  20  39  60  77  99 139 185 226 269 314
#     4   8  15  29  48  73 107 142 179 221 254 293
#     4   8  15  29  48  71 101 138 179 217 248 293
#     4   9  18  31  50  78 110 142 176 213 261 320
#
# _framework density 17.773741999999999
#
# number of rings (size 3 to 8) (size 9 to 14) (size 15 to 20)
#    0.000    3.000    0.000    1.500    3.500    3.000 
#    0.000    0.000    0.000    0.000    0.000   12.250 
#    0.000    0.000    0.000    0.000    0.000    0.000 
#
# Total GULP energy -178234.759502 kJ/mol
# GULP energy per Si atom -5569.836234 kJ/mol
# Density = 1.773329 g / cm^3
# Si number density = 17.773742 Si / 1000 Ang^3
#
#
#
# Elastic Constant Matrix: (Units=GPa)
#
#
# Indices 1 2 3 4 5 6 
#
# 1 82.0683 25.4117 50.4112 0.0000 0.0000 0.0000
# 2 25.4117 134.6061 56.8330 0.0000 0.0000 0.0000
# 3 50.4112 56.8330 103.6432 0.0000 0.0000 0.0000
# 4 0.0000 0.0000 0.0000 14.9511 0.0000 0.0000
# 5 0.0000 0.0000 0.0000 0.0000 24.8639 0.0000
# 6 0.0000 0.0000 0.0000 0.0000 0.0000 8.2179
#
#
#
# Elastic Compliance Matrix: (Units=1/GPa)
#
#
# Indices 1 2 3 4 5 6 
#
# 1 0.017391 0.000375 -0.008665 0.000000 0.000000 0.000000
# 2 0.000375 0.009675 -0.005488 0.000000 0.000000 0.000000
# 3 -0.008665 -0.005488 0.016872 0.000000 0.000000 0.000000
# 4 0.000000 0.000000 0.000000 0.066885 0.000000 0.000000
# 5 0.000000 0.000000 0.000000 0.000000 0.040219 0.000000
# 6 0.000000 0.000000 0.000000 0.000000 0.000000 0.121686
#
#
# Mechanical properties :
#
#
# Convention : Reuss Voigt Hill
#
# Bulk Modulus (GPa) = 61.03574 65.06992 63.05283
# Shear Modulus (GPa) = 16.35351 22.11735 19.23543
#
# Velocity S-wave (km/s) = 3.03660 3.53141 3.29331
# Velocity P-wave (km/s) = 6.83443 7.30188 7.07202
#
# Compressibility (1/GPa) = 0.01638384
#
# Stress axis : x y z
#
# Youngs Moduli (GPa) = 57.50058 103.35502 59.26894
#
# Poissons Ratio (x) = -0.03877 0.51354
# Poissons Ratio (y) = -0.02157 0.32527
# Poissons Ratio (z) = 0.49822 0.56721
#
# Static dielectric constant tensor:
#      x y z
#    x 1.627330 0.000000 0.000000 
#    y 0.000000 1.611060 0.000000 
#    z 0.000000 0.000000 1.594800 
# 
# From -- ./inp_files/11999.got.cif
#   From: 2010.05.17/outbox.cif.g08.bks.cpg/sg71_6_cif.got.tgz:11999.got - 2010.06.03 16:22:01.
