data_PCOD9522283
_publ_section_title
;
Structure prediction by ZEFSAII (Michael W. Deem and Ramdas Pophale) SiO2 
 PCOD9522283
Probable space group: I M M M
;
_chemical_formula_sum "Si O2"
_cell_formula_units_Z 120
_cell_length_a 30.184421
_cell_length_b 15.474157
_cell_length_c 13.970290
_cell_angle_alpha 90.000000
_cell_angle_beta 90.000000
_cell_angle_gamma 90.000000
_cell_volume 6525.221672
_symmetry_space_group_name_H-M "I M M M"
_symmetry_group_IT_number 71
_symmetry_cell_setting 'orthorhombic'
loop_
_space_group_symop_operation_xyz
x,y,z
-x,-y,z
x,-y,-z
-x,y,-z
-x,-y,-z
x,y,-z
-x,y,z
x,-y,z
1/2+x,1/2+y,1/2+z
1/2-x,1/2-y,1/2+z
1/2+x,1/2-y,1/2-z
1/2-x,1/2+y,1/2-z
1/2-x,1/2-y,1/2-z
1/2+x,1/2+y,1/2-z
1/2-x,1/2+y,1/2+z
1/2+x,1/2-y,1/2+z
loop_
_atom_site_type_symbol
_atom_site_label
_atom_site_fract_x
_atom_site_fract_y
_atom_site_fract_z
Si Si1 0.373833 0.325242 0.113813
Si Si2 0.049056 0.901141 0.742996
Si Si3 0.792415 0.901617 0.723738
Si Si4 0.108182 0.353715 0.721877
Si Si5 0.681680 0.287688 0.398833
Si Si6 0.190665 0.405897 0.840115
Si Si7 0.446995 0.000000 0.114762
Si Si8 0.420612 0.264782 0.610298
O O1 0.412831 0.377301 0.167608
O O2 0.326822 0.366413 0.144734
O O3 0.378565 0.229284 0.158316
O O4 0.378729 0.325201 0.000000
O O5 0.051859 0.836071 0.832500
O O6 0.000000 0.892199 0.699268
O O7 0.054794 0.000000 0.774407
O O8 0.796161 0.835437 0.811267
O O9 0.741585 0.904249 0.692131
O O10 0.805523 0.000000 0.749903
O O11 0.153895 0.397653 0.756443
O O12 0.076531 0.417413 0.663566
O O13 0.084010 0.317515 0.818450
O O14 0.699470 0.319488 0.500000
O O15 0.685205 0.184001 0.395313
O O16 0.629196 0.303588 0.392404
O O17 0.182994 0.500000 0.886766
O O18 0.500000 0.000000 0.131389
O O19 0.439828 0.000000 0.000000
O O20 0.433669 0.246858 0.500000
#
# Coordination Sequence:
#
# PCOD9522283 Si02
#       8
#    16  16  16  16  16  16   8  16
#     4  11  23  39  60  85 117 157 201 250 305 364
#     4  10  21  37  57  82 113 152 196 242 294 352
#     4  11  22  37  58  86 122 160 202 251 303 360
#     4  10  20  40  63  86 120 158 199 248 310 364
#     4  10  20  36  58  84 117 156 197 240 296 361
#     4  10  20  37  61  84 120 160 198 249 305 365
#     4  11  24  42  67  97 125 159 208 264 320 377
#     4   9  19  36  58  85 115 151 192 238 294 358
#
# _framework density 18.390180000000001
#
# number of rings (size 3 to 8) (size 9 to 14) (size 15 to 20)
#    0.000    1.800    4.667    1.200    0.000    5.067 
#    0.000    5.000    0.000    0.400    0.000    0.000 
#    0.000    0.000    0.000    0.000    0.000    0.000 
#
# Total GULP energy -334394.350498 kJ/mol
# GULP energy per Si atom -5573.239175 kJ/mol
# Density = 1.834832 g / cm^3
# Si number density = 18.390180 Si / 1000 Ang^3
#
#
#
# Elastic Constant Matrix: (Units=GPa)
#
#
# Indices 1 2 3 4 5 6 
#
# 1 113.4066 48.0020 48.0659 0.0000 0.0000 0.0000
# 2 48.0020 107.4183 41.4280 0.0000 0.0000 0.0000
# 3 48.0659 41.4280 131.7050 0.0000 0.0000 0.0000
# 4 0.0000 0.0000 0.0000 -45.2471 0.0000 0.0000
# 5 0.0000 0.0000 0.0000 0.0000 -12.3957 0.0000
# 6 0.0000 0.0000 0.0000 0.0000 0.0000 26.8751
#
#
#
# Elastic Compliance Matrix: (Units=1/GPa)
#
#
# Indices 1 2 3 4 5 6 
#
# 1 0.011847 -0.004127 -0.003025 0.000000 0.000000 0.000000
# 2 -0.004127 0.012033 -0.002279 0.000000 0.000000 0.000000
# 3 -0.003025 -0.002279 0.009414 0.000000 0.000000 0.000000
# 4 0.000000 0.000000 0.000000 -0.022101 0.000000 0.000000
# 5 0.000000 0.000000 0.000000 0.000000 -0.080673 0.000000
# 6 0.000000 0.000000 0.000000 0.000000 0.000000 0.037209
#
#
# Mechanical properties :
#
#
# Convention : Reuss Voigt Hill
#
# Bulk Modulus (GPa) = 69.29680 69.72465 69.51072
# Shear Modulus (GPa) = -581.49143 8.18204 -286.65470
#
# Velocity S-wave (km/s) = -17.80121 2.11159 -12.49849
# Velocity P-wave (km/s) = 19.61498 6.62883 13.05385
#
# Compressibility (1/GPa) = 0.01443068
#
# Stress axis : x y z
#
# Youngs Moduli (GPa) = 84.40912 83.10784 106.22968
#
# Poissons Ratio (x) = 0.34301 0.32138
# Poissons Ratio (y) = 0.34838 0.24205
# Poissons Ratio (z) = 0.25537 0.18937
#
# Static dielectric constant tensor:
#      x y z
#    x 1.627490 0.000000 0.000000 
#    y 0.000000 1.646830 0.000000 
#    z 0.000000 0.000000 1.635940 
# 
# From -- ./inp_files/41171.got.cif
#   From: 2010.05.17/outbox.cif.g08.bks.cpg/sg71_21_cif.got.tgz:41171.got - 2010.06.03 16:22:01.
