data_PCOD9522053
_publ_section_title
;
Structure prediction by ZEFSAII (Michael W. Deem and Ramdas Pophale) SiO2 
 PCOD9522053
Probable space group: I M M M
;
_chemical_formula_sum "Si O2"
_cell_formula_units_Z 116
_cell_length_a 24.755326
_cell_length_b 8.555267
_cell_length_c 27.541075
_cell_angle_alpha 90.000000
_cell_angle_beta 90.000000
_cell_angle_gamma 90.000000
_cell_volume 5832.880859
_symmetry_space_group_name_H-M "I M M M"
_symmetry_group_IT_number 71
_symmetry_cell_setting 'orthorhombic'
loop_
_space_group_symop_operation_xyz
x,y,z
-x,-y,z
x,-y,-z
-x,y,-z
-x,-y,-z
x,y,-z
-x,y,z
x,-y,z
1/2+x,1/2+y,1/2+z
1/2-x,1/2-y,1/2+z
1/2+x,1/2-y,1/2-z
1/2-x,1/2+y,1/2-z
1/2-x,1/2-y,1/2-z
1/2+x,1/2+y,1/2-z
1/2-x,1/2+y,1/2+z
1/2+x,1/2-y,1/2+z
loop_
_atom_site_type_symbol
_atom_site_label
_atom_site_fract_x
_atom_site_fract_y
_atom_site_fract_z
Si Si1 0.058915 0.687509 0.216366
Si Si2 0.412231 0.316390 0.924077
Si Si3 0.179404 0.188996 0.052546
Si Si4 0.105692 0.814457 0.688633
Si Si5 0.699011 0.822805 0.068547
Si Si6 0.664722 0.812652 0.659921
Si Si7 0.000000 0.288332 0.500000
Si Si8 0.779395 0.676424 0.683826
O O1 0.059067 0.500000 0.211883
O O2 0.068449 0.731552 0.272191
O O3 0.110771 0.745723 0.186647
O O4 0.000000 0.745657 0.200098
O O5 0.426771 0.500000 0.928630
O O6 0.410328 0.272274 0.866886
O O7 0.351084 0.287646 0.941529
O O8 0.453105 0.221783 0.957406
O O9 0.243031 0.227995 0.049740
O O10 0.160964 0.262104 0.103354
O O11 0.175890 0.000000 0.056930
O O12 0.154687 0.233882 0.000000
O O13 0.167859 0.769131 0.701327
O O14 0.100274 0.000000 0.692193
O O15 0.708501 0.830148 0.126290
O O16 0.686768 0.000000 0.052913
O O17 0.719513 0.748530 0.685353
O O18 0.667595 0.000000 0.662138
O O19 0.779474 0.500000 0.703803
#
# Coordination Sequence:
#
# PCOD9522053 Si02
#       8
#    16  16  16  16  16  16   4  16
#     4  10  23  42  61  81 109 150 191 229 285 346
#     4  10  21  36  53  72 101 141 185 230 279 328
#     4   9  18  33  55  83 115 151 180 212 272 341
#     4  10  21  36  59  87 111 140 189 246 288 334
#     4   8  16  31  51  74 105 139 175 219 264 318
#     4  10  20  35  57  86 117 145 186 238 277 329
#     4  12  25  40  53  70 105 152 189 230 289 328
#     4   9  17  33  57  83 115 152 181 219 288 350
#
# _framework density 19.887256000000001
#
# number of rings (size 3 to 8) (size 9 to 14) (size 15 to 20)
#    0.000    2.483    0.000    2.690    1.931    6.069 
#    0.000    0.690    0.000    0.414    0.000    2.897 
#    0.000    0.000    0.000    0.000    0.000    0.000 
#
# Total GULP energy -322952.591204 kJ/mol
# GULP energy per Si atom -5568.148124 kJ/mol
# Density = 1.984199 g / cm^3
# Si number density = 19.887256 Si / 1000 Ang^3
#
#
#
# Elastic Constant Matrix: (Units=GPa)
#
#
# Indices 1 2 3 4 5 6 
#
# 1 116.5612 13.2000 31.2303 0.0000 0.0000 0.0000
# 2 13.2000 9.9623 -1.8486 0.0000 0.0000 0.0000
# 3 31.2303 -1.8486 66.0693 0.0000 0.0000 0.0000
# 4 0.0000 0.0000 0.0000 -717.0869 0.0000 0.0000
# 5 0.0000 0.0000 0.0000 0.0000 -24.4972 0.0000
# 6 0.0000 0.0000 0.0000 0.0000 0.0000 -3.0930
#
#
#
# Elastic Compliance Matrix: (Units=1/GPa)
#
#
# Indices 1 2 3 4 5 6 
#
# 1 0.012223 -0.017358 -0.006263 0.000000 0.000000 0.000000
# 2 -0.017358 0.125552 0.011718 0.000000 0.000000 0.000000
# 3 -0.006263 0.011718 0.018424 0.000000 0.000000 0.000000
# 4 0.000000 0.000000 0.000000 -0.001395 0.000000 0.000000
# 5 0.000000 0.000000 0.000000 0.000000 -0.040821 0.000000
# 6 0.000000 0.000000 0.000000 0.000000 0.000000 -0.323311
#
#
# Mechanical properties :
#
#
# Convention : Reuss Voigt Hill
#
# Bulk Modulus (GPa) = 7.55331 30.86179 19.20755
# Shear Modulus (GPa) = -35.36312 -138.93468 -87.14890
#
# Velocity S-wave (km/s) = -4.22142 -8.36737 -6.62696
# Velocity P-wave (km/s) = 4.46701 8.82034 6.99116
#
# Compressibility (1/GPa) = 0.13239228
#
# Stress axis : x y z
#
# Youngs Moduli (GPa) = 81.81306 7.96484 54.27676
#
# Poissons Ratio (x) = 0.13825 0.33995
# Poissons Ratio (y) = 1.42008 -0.63600
# Poissons Ratio (z) = 0.51242 -0.09333
#
# Static dielectric constant tensor:
#      x y z
#    x 1.695340 0.000000 0.000000 
#    y 0.000000 1.709620 0.000000 
#    z 0.000000 0.000000 1.713540 
# 
# From -- ./inp_files/58071.got.cif
#   From: 2010.05.17/outbox.cif.g08.bks.cpg/sg71_30_cif.got.tgz:58071.got - 2010.06.03 16:22:01.
