data_PCOD9522194
_publ_section_title
;
Structure prediction by ZEFSAII (Michael W. Deem and Ramdas Pophale) SiO2 
 PCOD9522194
Probable space group: I M M M
;
_chemical_formula_sum "Si O2"
_cell_formula_units_Z 96
_cell_length_a 24.920701
_cell_length_b 8.459122
_cell_length_c 24.189422
_cell_angle_alpha 90.000000
_cell_angle_beta 90.000000
_cell_angle_gamma 90.000000
_cell_volume 5099.305533
_symmetry_space_group_name_H-M "I M M M"
_symmetry_group_IT_number 71
_symmetry_cell_setting 'orthorhombic'
loop_
_space_group_symop_operation_xyz
x,y,z
-x,-y,z
x,-y,-z
-x,y,-z
-x,-y,-z
x,y,-z
-x,y,z
x,-y,z
1/2+x,1/2+y,1/2+z
1/2-x,1/2-y,1/2+z
1/2+x,1/2-y,1/2-z
1/2-x,1/2+y,1/2-z
1/2-x,1/2-y,1/2-z
1/2+x,1/2+y,1/2-z
1/2-x,1/2+y,1/2+z
1/2+x,1/2-y,1/2+z
loop_
_atom_site_type_symbol
_atom_site_label
_atom_site_fract_x
_atom_site_fract_y
_atom_site_fract_z
Si Si1 0.560057 0.690866 0.160325
Si Si2 0.157243 0.188459 0.139428
Si Si3 0.839372 0.807499 0.734326
Si Si4 0.271210 0.688735 0.131866
Si Si5 0.560967 0.190685 0.563789
Si Si6 0.871703 0.310882 0.436527
O O1 0.500000 0.741232 0.174615
O O2 0.561359 0.500000 0.157777
O O3 0.605113 0.739119 0.204514
O O4 0.579118 0.756778 0.101598
O O5 0.159927 0.249420 0.202861
O O6 0.214773 0.237217 0.115090
O O7 0.106932 0.251097 0.104852
O O8 0.153153 0.000000 0.141093
O O9 0.791855 0.755190 0.692805
O O10 0.837089 0.000000 0.735341
O O11 0.265975 0.500000 0.133525
O O12 0.318658 0.734935 0.090282
O O13 0.571106 0.240647 0.500000
O O14 0.500000 0.241859 0.578602
O O15 0.561316 0.000000 0.564347
O O16 0.878077 0.263107 0.500000
O O17 0.866649 0.500000 0.433742
#
# Coordination Sequence:
#
# PCOD9522194 Si02
#       6
#    16  16  16  16  16  16
#     4   9  18  34  55  77 104 140 180 217 254 305
#     4  11  21  33  55  85 111 135 168 211 260 314
#     4   8  17  33  52  77 108 140 172 211 259 305
#     4  10  20  36  56  76 104 141 178 214 254 307
#     4   9  20  40  60  76 101 138 177 216 256 301
#     4  10  21  36  53  75 105 138 174 221 271 311
#
# _framework density 18.826093
#
# number of rings (size 3 to 8) (size 9 to 14) (size 15 to 20)
#    0.000    2.500    0.000    3.500    0.000    4.000 
#    0.000   11.667    0.000    0.000    0.000    0.000 
#    0.000    0.000    0.000    0.000    0.000    0.000 
#
# Total GULP energy -267792.466502 kJ/mol
# GULP energy per Si atom -5579.009719 kJ/mol
# Density = 1.878324 g / cm^3
# Si number density = 18.826093 Si / 1000 Ang^3
#
#
#
# Elastic Constant Matrix: (Units=GPa)
#
#
# Indices 1 2 3 4 5 6 
#
# 1 121.4914 14.7089 18.6334 0.0000 0.0000 0.0000
# 2 14.7089 18.8068 5.9067 0.0000 0.0000 0.0000
# 3 18.6334 5.9067 27.5886 0.0000 0.0000 0.0000
# 4 0.0000 0.0000 0.0000 18.1990 0.0000 0.0000
# 5 0.0000 0.0000 0.0000 0.0000 18.2032 0.0000
# 6 0.0000 0.0000 0.0000 0.0000 0.0000 20.7635
#
#
#
# Elastic Compliance Matrix: (Units=1/GPa)
#
#
# Indices 1 2 3 4 5 6 
#
# 1 0.009770 -0.005970 -0.005320 0.000000 0.000000 0.000000
# 2 -0.005970 0.060653 -0.008954 0.000000 0.000000 0.000000
# 3 -0.005320 -0.008954 0.041757 0.000000 0.000000 0.000000
# 4 0.000000 0.000000 0.000000 0.054948 0.000000 0.000000
# 5 0.000000 0.000000 0.000000 0.000000 0.054935 0.000000
# 6 0.000000 0.000000 0.000000 0.000000 0.000000 0.048161
#
#
# Mechanical properties :
#
#
# Convention : Reuss Voigt Hill
#
# Bulk Modulus (GPa) = 13.94847 27.37607 20.66227
# Shear Modulus (GPa) = 14.94274 20.00901 17.47587
#
# Velocity S-wave (km/s) = 2.82037 3.26365 3.05007
# Velocity P-wave (km/s) = 4.24631 5.36423 4.83767
#
# Compressibility (1/GPa) = 0.07169244
#
# Stress axis : x y z
#
# Youngs Moduli (GPa) = 102.35601 16.48710 23.94800
#
# Poissons Ratio (x) = 0.09843 0.12741
# Poissons Ratio (y) = 0.61107 0.21442
# Poissons Ratio (z) = 0.54457 0.14762
#
# Static dielectric constant tensor:
#      x y z
#    x 1.632610 0.000000 0.000000 
#    y 0.000000 1.642250 0.000000 
#    z 0.000000 0.000000 1.654580 
# 
# From -- ./inp_files/12838.got.cif
#   From: 2010.05.17/outbox.cif.g08.bks.cpg/sg71_7_cif.got.tgz:12838.got - 2010.06.03 16:22:01.
