data_PCOD9522208
_publ_section_title
;
Structure prediction by ZEFSAII (Michael W. Deem and Ramdas Pophale) SiO2 
 PCOD9522208
Probable space group: I M M M
;
_chemical_formula_sum "Si O2"
_cell_formula_units_Z 104
_cell_length_a 20.852623
_cell_length_b 32.765051
_cell_length_c 8.421544
_cell_angle_alpha 90.000000
_cell_angle_beta 90.000000
_cell_angle_gamma 90.000000
_cell_volume 5753.912615
_symmetry_space_group_name_H-M "I M M M"
_symmetry_group_IT_number 71
_symmetry_cell_setting 'orthorhombic'
loop_
_space_group_symop_operation_xyz
x,y,z
-x,-y,z
x,-y,-z
-x,y,-z
-x,-y,-z
x,y,-z
-x,y,z
x,-y,z
1/2+x,1/2+y,1/2+z
1/2-x,1/2-y,1/2+z
1/2+x,1/2-y,1/2-z
1/2-x,1/2+y,1/2-z
1/2-x,1/2-y,1/2-z
1/2+x,1/2+y,1/2-z
1/2-x,1/2+y,1/2+z
1/2+x,1/2-y,1/2+z
loop_
_atom_site_type_symbol
_atom_site_label
_atom_site_fract_x
_atom_site_fract_y
_atom_site_fract_z
Si Si1 0.924508 0.044546 0.000000
Si Si2 0.776696 0.454342 0.814743
Si Si3 0.131919 0.075444 0.675928
Si Si4 0.573884 0.276705 0.812250
Si Si5 0.927701 0.313277 0.813803
Si Si6 0.172325 0.158759 0.812187
Si Si7 0.185141 0.366549 0.686688
O O1 0.906513 0.064476 0.166822
O O2 0.000000 0.041355 0.000000
O O3 0.893070 0.000000 0.000000
O O4 0.792111 0.500000 0.753194
O O5 0.699810 0.447966 0.812320
O O6 0.804161 0.414147 0.729875
O O7 0.796113 0.452665 0.000000
O O8 0.104404 0.067235 0.500000
O O9 0.146180 0.123191 0.698621
O O10 0.500000 0.286751 0.761107
O O11 0.583113 0.228652 0.781000
O O12 0.629073 0.301957 0.723174
O O13 0.578346 0.284912 0.000000
O O14 0.873980 0.346332 0.776138
O O15 0.000000 0.327890 0.776639
O O16 0.925511 0.302954 0.000000
O O17 0.248740 0.158375 0.779568
O O18 0.165897 0.147840 0.000000
O O19 0.173238 0.363423 0.500000
#
# Coordination Sequence:
#
# PCOD9522208 Si02
#       7
#     8  16  16  16  16  16  16
#     4  11  24  38  52  74 104 142 189 237 285 343
#     4   9  18  33  56  84 110 140 180 227 279 334
#     4  10  20  37  57  78 107 145 186 234 290 346
#     4  10  21  36  55  80 109 146 192 237 281 334
#     4  10  21  38  59  81 108 146 187 226 275 337
#     4  10  20  36  56  82 114 146 185 234 285 337
#     4  10  21  35  55  84 114 146 182 226 281 335
#
# _framework density 18.074656999999998
#
# number of rings (size 3 to 8) (size 9 to 14) (size 15 to 20)
#    0.000    2.077    0.769    2.308    1.077    6.462 
#    0.000    0.769    0.000    0.462    0.000    3.231 
#    0.000    0.000    0.000    0.000    0.000    0.000 
#
# Total GULP energy -289845.497771 kJ/mol
# GULP energy per Si atom -5573.951880 kJ/mol
# Density = 1.803352 g / cm^3
# Si number density = 18.074657 Si / 1000 Ang^3
#
#
#
# Elastic Constant Matrix: (Units=GPa)
#
#
# Indices 1 2 3 4 5 6 
#
# 1 73.8492 47.4801 35.8397 -0.0001 0.0000 0.0000
# 2 47.4801 68.3911 14.4419 0.0000 -0.0001 0.0000
# 3 35.8397 14.4419 83.2735 -0.0001 -0.0002 0.0000
# 4 -0.0001 0.0000 -0.0001 26.7119 0.0000 0.0000
# 5 0.0000 -0.0001 -0.0002 0.0000 14.5658 0.0000
# 6 0.0000 0.0000 0.0000 0.0000 0.0000 13.9402
#
#
#
# Elastic Compliance Matrix: (Units=1/GPa)
#
#
# Indices 1 2 3 4 5 6 
#
# 1 0.030693 -0.019223 -0.009876 0.000000 0.000000 0.000000
# 2 -0.019223 0.027217 0.003553 0.000000 0.000000 0.000000
# 3 -0.009876 0.003553 0.015643 0.000000 0.000000 0.000000
# 4 0.000000 0.000000 0.000000 0.037437 0.000000 0.000000
# 5 0.000000 0.000000 0.000000 0.000000 0.068654 0.000000
# 6 0.000000 0.000000 0.000000 0.000000 0.000000 0.071735
#
#
# Mechanical properties :
#
#
# Convention : Reuss Voigt Hill
#
# Bulk Modulus (GPa) = 44.52142 46.78190 45.65166
# Shear Modulus (GPa) = 16.13123 19.56038 17.84580
#
# Velocity S-wave (km/s) = 2.99068 3.29325 3.14560
# Velocity P-wave (km/s) = 6.05070 6.35605 6.20526
#
# Compressibility (1/GPa) = 0.02246110
#
# Stress axis : x y z
#
# Youngs Moduli (GPa) = 32.58038 36.74168 63.92659
#
# Poissons Ratio (x) = 0.70629 0.63135
# Poissons Ratio (y) = 0.62630 -0.22714
# Poissons Ratio (z) = 0.32177 -0.13055
#
# Static dielectric constant tensor:
#      x y z
#    x 1.608310 0.000000 0.000000 
#    y 0.000000 1.628280 0.000000 
#    z 0.000000 0.000000 1.672010 
# 
# From -- ./inp_files/11460.got.cif
#   From: 2010.05.17/outbox.cif.g08.bks.cpg/sg71_6_cif.got.tgz:11460.got - 2010.06.03 16:22:01.
