data_PCOD9522717
_publ_section_title
;
Structure prediction by ZEFSAII (Michael W. Deem and Ramdas Pophale) SiO2 
 PCOD9522717
Probable space group: I M M M
;
_chemical_formula_sum "Si O2"
_cell_formula_units_Z 96
_cell_length_a 31.334620
_cell_length_b 7.379366
_cell_length_c 18.243449
_cell_angle_alpha 90.000000
_cell_angle_beta 90.000000
_cell_angle_gamma 90.000000
_cell_volume 4218.425952
_symmetry_space_group_name_H-M "I M M M"
_symmetry_group_IT_number 71
_symmetry_cell_setting 'orthorhombic'
loop_
_space_group_symop_operation_xyz
x,y,z
-x,-y,z
x,-y,-z
-x,y,-z
-x,-y,-z
x,y,-z
-x,y,z
x,-y,z
1/2+x,1/2+y,1/2+z
1/2-x,1/2-y,1/2+z
1/2+x,1/2-y,1/2-z
1/2-x,1/2+y,1/2-z
1/2-x,1/2-y,1/2-z
1/2+x,1/2+y,1/2-z
1/2-x,1/2+y,1/2+z
1/2+x,1/2-y,1/2+z
loop_
_atom_site_type_symbol
_atom_site_label
_atom_site_fract_x
_atom_site_fract_y
_atom_site_fract_z
Si Si1 0.358731 0.278735 0.582514
Si Si2 0.047972 0.779272 0.130271
Si Si3 0.385204 0.714138 0.083725
Si Si4 0.281267 0.283442 0.320181
Si Si5 0.452390 0.720423 0.199999
Si Si6 0.793242 0.282331 0.418545
O O1 0.343601 0.227749 0.500000
O O2 0.358550 0.500000 0.584031
O O3 0.408247 0.221695 0.591419
O O4 0.327976 0.219657 0.650609
O O5 0.053124 0.725412 0.215641
O O6 0.000000 0.721622 0.105870
O O7 0.047304 0.000000 0.126688
O O8 0.392922 0.500000 0.077334
O O9 0.418892 0.789078 0.141009
O O10 0.338136 0.737319 0.117947
O O11 0.386713 0.788254 0.000000
O O12 0.285569 0.500000 0.319467
O O13 0.250000 0.250000 0.250000
O O14 0.249516 0.216307 0.383070
O O15 0.500000 0.769654 0.176843
O O16 0.449711 0.500000 0.201143
O O17 0.797244 0.210807 0.500000
O O18 0.790435 0.500000 0.420175
#
# Coordination Sequence:
#
# PCOD9522717 Si02
#       6
#    16  16  16  16  16  16
#     4   9  17  29  46  68  95 129 165 198 236 287
#     4   8  14  24  39  63  94 126 157 192 239 289
#     4   9  17  27  43  68  92 119 159 201 237 277
#     4  10  21  34  50  73  98 127 161 197 236 281
#     4   8  14  24  38  59  91 125 153 189 239 289
#     4   9  18  33  49  64  90 127 160 192 233 280
#
# _framework density 22.757304999999999
#
# number of rings (size 3 to 8) (size 9 to 14) (size 15 to 20)
#    0.000    3.167    0.000    1.500    2.333    3.333 
#    0.000    3.333    0.000    2.000    0.000    2.333 
#    0.000    0.667    0.000    1.500    0.000    1.667 
#
# Total GULP energy -267235.509640 kJ/mol
# GULP energy per Si atom -5567.406451 kJ/mol
# Density = 2.270551 g / cm^3
# Si number density = 22.757305 Si / 1000 Ang^3
#
#
#
# Elastic Constant Matrix: (Units=GPa)
#
#
# Indices 1 2 3 4 5 6 
#
# 1 165.9684 1.1560 65.5606 0.0000 0.0000 0.0000
# 2 1.1560 79.6931 2.4381 0.0000 0.0000 0.0000
# 3 65.5606 2.4381 53.5930 0.0000 0.0000 0.0000
# 4 0.0000 0.0000 0.0000 -0.2241 0.0000 0.0000
# 5 0.0000 0.0000 0.0000 0.0000 41.8139 0.0000
# 6 0.0000 0.0000 0.0000 0.0000 0.0000 5.6692
#
#
#
# Elastic Compliance Matrix: (Units=1/GPa)
#
#
# Indices 1 2 3 4 5 6 
#
# 1 0.011665 0.000268 -0.014282 0.000000 0.000000 0.000000
# 2 0.000268 0.012572 -0.000899 0.000000 0.000000 0.000000
# 3 -0.014282 -0.000899 0.036172 0.000000 0.000000 0.000000
# 4 0.000000 0.000000 0.000000 -4.462330 0.000000 0.000000
# 5 0.000000 0.000000 0.000000 0.000000 0.023915 0.000000
# 6 0.000000 0.000000 0.000000 0.000000 0.000000 0.176390
#
#
# Mechanical properties :
#
#
# Convention : Reuss Voigt Hill
#
# Bulk Modulus (GPa) = 32.70042 48.61823 40.65932
# Shear Modulus (GPa) = -1.20146 24.79180 11.79517
#
# Velocity S-wave (km/s) = -0.72739 3.30419 2.27910
# Velocity P-wave (km/s) = 3.70067 5.99725 4.98307
#
# Compressibility (1/GPa) = 0.03058065
#
# Stress axis : x y z
#
# Youngs Moduli (GPa) = 85.72576 79.54333 27.64603
#
# Poissons Ratio (x) = -0.02130 0.39485
# Poissons Ratio (y) = -0.02295 0.02487
# Poissons Ratio (z) = 1.22435 0.07154
#
# Static dielectric constant tensor:
#      x y z
#    x 1.851060 0.000000 0.000000 
#    y 0.000000 1.897230 0.000000 
#    z 0.000000 0.000000 1.889910 
# 
# From -- ./inp_files/24230.got.cif
#   From: 2010.05.17/outbox.cif.g08.bks.cpg/sg71_13_cif.got.tgz:24230.got - 2010.06.03 16:22:01.
