data_PCOD9522109
_publ_section_title
;
Structure prediction by ZEFSAII (Michael W. Deem and Ramdas Pophale) SiO2 
 PCOD9522109
Probable space group: I M M M
;
_chemical_formula_sum "Si O2"
_cell_formula_units_Z 104
_cell_length_a 27.629674
_cell_length_b 19.435265
_cell_length_c 11.361878
_cell_angle_alpha 90.000000
_cell_angle_beta 90.000000
_cell_angle_gamma 90.000000
_cell_volume 6101.215277
_symmetry_space_group_name_H-M "I M M M"
_symmetry_group_IT_number 71
_symmetry_cell_setting 'orthorhombic'
loop_
_space_group_symop_operation_xyz
x,y,z
-x,-y,z
x,-y,-z
-x,y,-z
-x,-y,-z
x,y,-z
-x,y,z
x,-y,z
1/2+x,1/2+y,1/2+z
1/2-x,1/2-y,1/2+z
1/2+x,1/2-y,1/2-z
1/2-x,1/2+y,1/2-z
1/2-x,1/2-y,1/2-z
1/2+x,1/2+y,1/2-z
1/2-x,1/2+y,1/2+z
1/2+x,1/2-y,1/2+z
loop_
_atom_site_type_symbol
_atom_site_label
_atom_site_fract_x
_atom_site_fract_y
_atom_site_fract_z
Si Si1 0.943625 0.301275 0.859351
Si Si2 0.376822 0.418076 0.500000
Si Si3 0.590615 0.344042 0.261716
Si Si4 0.312187 0.297390 0.140502
Si Si5 0.870079 0.421657 0.141160
Si Si6 0.500000 0.418783 0.859140
Si Si7 0.217957 0.649471 0.733912
Si Si8 0.738618 0.581877 0.500000
O O1 0.926620 0.232792 0.793943
O O2 0.911422 0.366926 0.826765
O O3 0.000000 0.313893 0.836343
O O4 0.937780 0.289832 0.000000
O O5 0.385118 0.500000 0.500000
O O6 0.398549 0.383878 0.616868
O O7 0.319035 0.405527 0.500000
O O8 0.640311 0.335996 0.188648
O O9 0.547861 0.382910 0.193367
O O10 0.263388 0.336044 0.181012
O O11 0.307065 0.222217 0.200684
O O12 0.314077 0.290471 0.000000
O O13 0.883034 0.500000 0.171131
O O14 0.821081 0.398768 0.204333
O O15 0.863440 0.417783 0.000000
O O16 0.500000 0.500000 0.829899
O O17 0.500000 0.411733 0.000000
O O18 0.238326 0.615927 0.615127
O O19 0.746549 0.500000 0.500000
#
# Coordination Sequence:
#
# PCOD9522109 Si02
#       8
#    16   8  16  16  16   8  16   8
#     4  10  20  35  58  88 117 150 191 243 299 346
#     4  11  24  39  60  91 121 153 196 244 301 360
#     4  12  21  40  64  86 120 155 194 250 295 351
#     4  11  23  36  58  87 117 154 200 242 292 355
#     4  10  21  37  58  86 122 160 198 242 295 356
#     4  11  26  45  63  85 118 158 200 246 301 359
#     4  11  21  37  58  84 119 154 195 247 294 343
#     4  11  22  38  57  82 120 159 192 237 298 349
#
# _framework density 17.045784999999999
#
# number of rings (size 3 to 8) (size 9 to 14) (size 15 to 20)
#    0.000    1.154    5.385    1.846    0.000    0.615 
#    0.000    2.308    0.000    3.692    0.000    0.000 
#    0.000    3.692    0.000    0.000    0.000    0.000 
#
# Total GULP energy -290479.674720 kJ/mol
# GULP energy per Si atom -5586.147591 kJ/mol
# Density = 1.700699 g / cm^3
# Si number density = 17.045785 Si / 1000 Ang^3
#
#
#
# Elastic Constant Matrix: (Units=GPa)
#
#
# Indices 1 2 3 4 5 6 
#
# 1 127.3111 75.3462 58.0430 0.0000 0.0000 0.0000
# 2 75.3462 133.9047 50.2679 0.0000 0.0000 0.0000
# 3 58.0430 50.2679 73.2586 0.0000 0.0000 0.0000
# 4 0.0000 0.0000 0.0000 21.3900 0.0000 0.0000
# 5 0.0000 0.0000 0.0000 0.0000 29.1171 0.0000
# 6 0.0000 0.0000 0.0000 0.0000 0.0000 29.6694
#
#
#
# Elastic Compliance Matrix: (Units=1/GPa)
#
#
# Indices 1 2 3 4 5 6 
#
# 1 0.014570 -0.005206 -0.007972 0.000000 0.000000 0.000000
# 2 -0.005206 0.011919 -0.004054 0.000000 0.000000 0.000000
# 3 -0.007972 -0.004054 0.022748 0.000000 0.000000 0.000000
# 4 0.000000 0.000000 0.000000 0.046751 0.000000 0.000000
# 5 0.000000 0.000000 0.000000 0.000000 0.034344 0.000000
# 6 0.000000 0.000000 0.000000 0.000000 0.000000 0.033705
#
#
# Mechanical properties :
#
#
# Convention : Reuss Voigt Hill
#
# Bulk Modulus (GPa) = 67.68620 77.97650 72.83135
# Shear Modulus (GPa) = 24.57906 26.08980 25.33443
#
# Velocity S-wave (km/s) = 3.80141 3.91650 3.85938
# Velocity P-wave (km/s) = 7.68520 8.14227 7.91703
#
# Compressibility (1/GPa) = 0.01477406
#
# Stress axis : x y z
#
# Youngs Moduli (GPa) = 68.63307 83.89915 43.95947
#
# Poissons Ratio (x) = 0.43676 0.35044
# Poissons Ratio (y) = 0.35729 0.17821
# Poissons Ratio (z) = 0.54714 0.34013
#
# Static dielectric constant tensor:
#      x y z
#    x 1.551770 0.000000 0.000000 
#    y 0.000000 1.562760 0.000000 
#    z 0.000000 0.000000 1.543800 
# 
# From -- ./inp_files/28935.got.cif
#   From: 2010.05.17/outbox.cif.g08.bks.cpg/sg71_15_cif.got.tgz:28935.got - 2010.06.03 16:22:01.
