data_PCOD9522274
_publ_section_title
;
Structure prediction by ZEFSAII (Michael W. Deem and Ramdas Pophale) SiO2 
 PCOD9522274
Probable space group: I M M M
;
_chemical_formula_sum "Si O2"
_cell_formula_units_Z 88
_cell_length_a 8.192867
_cell_length_b 25.341137
_cell_length_c 20.368381
_cell_angle_alpha 90.000000
_cell_angle_beta 90.000000
_cell_angle_gamma 90.000000
_cell_volume 4228.813299
_symmetry_space_group_name_H-M "I M M M"
_symmetry_group_IT_number 71
_symmetry_cell_setting 'orthorhombic'
loop_
_space_group_symop_operation_xyz
x,y,z
-x,-y,z
x,-y,-z
-x,y,-z
-x,-y,-z
x,y,-z
-x,y,z
x,-y,z
1/2+x,1/2+y,1/2+z
1/2-x,1/2-y,1/2+z
1/2+x,1/2-y,1/2-z
1/2-x,1/2+y,1/2-z
1/2-x,1/2-y,1/2-z
1/2+x,1/2+y,1/2-z
1/2-x,1/2+y,1/2+z
1/2+x,1/2-y,1/2+z
loop_
_atom_site_type_symbol
_atom_site_label
_atom_site_fract_x
_atom_site_fract_y
_atom_site_fract_z
Si Si1 0.197361 0.778687 0.182882
Si Si2 0.699625 0.500000 0.421841
Si Si3 0.187744 0.896372 0.160009
Si Si4 0.689258 0.579697 0.927793
Si Si5 0.808167 0.303602 0.073068
Si Si6 0.820676 0.439531 0.786219
O O1 0.250000 0.750000 0.250000
O O2 0.260635 0.837134 0.163011
O O3 0.244091 0.738260 0.125998
O O4 0.000000 0.782863 0.185411
O O5 0.500000 0.500000 0.417904
O O6 0.742363 0.500000 0.500000
O O7 0.754750 0.554131 0.383640
O O8 0.196753 0.912538 0.236729
O O9 0.000000 0.891123 0.138415
O O10 0.500000 0.564436 0.924735
O O11 0.707020 0.642833 0.924416
O O12 0.777404 0.560754 0.862651
O O13 0.754198 0.563801 0.000000
O O14 0.000000 0.317554 0.084035
O O15 0.796094 0.281141 0.000000
O O16 0.826450 0.500000 0.765366
O O17 0.000000 0.415085 0.777200
#
# Coordination Sequence:
#
# PCOD9522274 Si02
#       6
#    16   8  16  16  16  16
#     4  10  21  34  52  81 112 145 185 229 277 331
#     4   9  18  34  59  89 116 145 186 239 293 344
#     4  10  20  36  58  83 113 148 188 234 286 341
#     4  10  21  36  55  80 109 142 181 225 271 322
#     4   9  18  34  54  76 107 145 181 219 267 322
#     4  11  23  37  55  78 106 142 183 226 274 330
#
# _framework density 20.809619999999999
#
# number of rings (size 3 to 8) (size 9 to 14) (size 15 to 20)
#    0.000    2.091    0.909    2.182    0.000    7.636 
#    0.000    5.455    0.000    1.091    0.000    2.545 
#    0.000    0.000    0.000    0.000    0.000    0.000 
#
# Total GULP energy -245225.826800 kJ/mol
# GULP energy per Si atom -5573.314245 kJ/mol
# Density = 2.076226 g / cm^3
# Si number density = 20.809620 Si / 1000 Ang^3
#
#
#
# Elastic Constant Matrix: (Units=GPa)
#
#
# Indices 1 2 3 4 5 6 
#
# 1 18.2558 8.3229 5.1994 0.0000 0.0000 0.0000
# 2 8.3229 138.3279 64.2268 0.0000 0.0000 0.0000
# 3 5.1994 64.2268 109.0188 0.0000 0.0000 0.0000
# 4 0.0000 0.0000 0.0000 37.6586 0.0000 0.0000
# 5 0.0000 0.0000 0.0000 0.0000 18.1626 0.0000
# 6 0.0000 0.0000 0.0000 0.0000 0.0000 10.7571
#
#
#
# Elastic Compliance Matrix: (Units=1/GPa)
#
#
# Indices 1 2 3 4 5 6 
#
# 1 0.056394 -0.002952 -0.000951 0.000000 0.000000 0.000000
# 2 -0.002952 0.010106 -0.005813 0.000000 0.000000 0.000000
# 3 -0.000951 -0.005813 0.012643 0.000000 0.000000 0.000000
# 4 0.000000 0.000000 0.000000 0.026554 0.000000 0.000000
# 5 0.000000 0.000000 0.000000 0.000000 0.055058 0.000000
# 6 0.000000 0.000000 0.000000 0.000000 0.000000 0.092962
#
#
# Mechanical properties :
#
#
# Convention : Reuss Voigt Hill
#
# Bulk Modulus (GPa) = 16.74714 46.78896 31.76805
# Shear Modulus (GPa) = 17.06190 25.83923 21.45056
#
# Velocity S-wave (km/s) = 2.86650 3.52759 3.21409
# Velocity P-wave (km/s) = 4.36131 6.25500 5.39194
#
# Compressibility (1/GPa) = 0.05971167
#
# Stress axis : x y z
#
# Youngs Moduli (GPa) = 17.73250 98.95336 79.09734
#
# Poissons Ratio (x) = 0.29208 0.07519
# Poissons Ratio (y) = 0.05234 0.45978
# Poissons Ratio (z) = 0.01686 0.57521
#
# Static dielectric constant tensor:
#      x y z
#    x 1.780190 0.000000 0.000000 
#    y 0.000000 1.808310 0.000000 
#    z 0.000000 0.000000 1.739490 
# 
# From -- ./inp_files/12567.got.cif
#   From: 2010.05.17/outbox.cif.g08.bks.cpg/sg71_7_cif.got.tgz:12567.got - 2010.06.03 16:22:01.
