data_PCOD9522966
_publ_section_title
;
Structure prediction by ZEFSAII (Michael W. Deem and Ramdas Pophale) SiO2 
 PCOD9522966
Probable space group: I M M M
;
_chemical_formula_sum "Si O2"
_cell_formula_units_Z 56
_cell_length_a 30.461098
_cell_length_b 7.265931
_cell_length_c 10.273876
_cell_angle_alpha 90.000000
_cell_angle_beta 90.000000
_cell_angle_gamma 90.000000
_cell_volume 2273.898855
_symmetry_space_group_name_H-M "I M M M"
_symmetry_group_IT_number 71
_symmetry_cell_setting 'orthorhombic'
loop_
_space_group_symop_operation_xyz
x,y,z
-x,-y,z
x,-y,-z
-x,y,-z
-x,-y,-z
x,y,-z
-x,y,z
x,-y,z
1/2+x,1/2+y,1/2+z
1/2-x,1/2-y,1/2+z
1/2+x,1/2-y,1/2-z
1/2-x,1/2+y,1/2-z
1/2-x,1/2-y,1/2-z
1/2+x,1/2+y,1/2-z
1/2-x,1/2+y,1/2+z
1/2+x,1/2-y,1/2+z
loop_
_atom_site_type_symbol
_atom_site_label
_atom_site_fract_x
_atom_site_fract_y
_atom_site_fract_z
Si Si1 0.356391 0.223952 0.861422
Si Si2 0.947364 0.703509 0.000000
Si Si3 0.289852 0.780782 0.648943
Si Si4 0.549413 0.774807 0.214228
O O1 0.331666 0.287849 0.732061
O O2 0.407450 0.277118 0.862864
O O3 0.355091 0.000000 0.858342
O O4 0.335610 0.280571 0.000000
O O5 0.939568 0.788836 0.139137
O O6 0.926000 0.500000 0.000000
O O7 0.000000 0.681090 0.000000
O O8 0.284976 0.710497 0.500000
O O9 0.250000 0.750000 0.750000
O O10 0.294478 0.000000 0.636960
O O11 0.500000 0.716721 0.176262
O O12 0.547738 0.000000 0.216357
#
# Coordination Sequence:
#
# PCOD9522966 Si02
#       4
#    16   8  16  16
#     4   9  17  27  40  61  91 126 162 202 246 292
#     4   7  10  16  26  42  66 100 141 183 223 265
#     4  10  21  36  55  77 101 132 169 210 257 307
#     4   8  13  20  32  52  81 119 159 195 234 283
#
# _framework density 24.627305
#
# number of rings (size 3 to 8) (size 9 to 14) (size 15 to 20)
#    0.000    3.286    0.000    2.571    2.000    2.286 
#    0.000    2.857    0.000    0.000    0.000    0.000 
#    0.000    1.143    0.000    8.571    0.000   11.143 
#
# Total GULP energy -156066.066030 kJ/mol
# GULP energy per Si atom -5573.788073 kJ/mol
# Density = 2.457125 g / cm^3
# Si number density = 24.627305 Si / 1000 Ang^3
#
#
#
# Elastic Constant Matrix: (Units=GPa)
#
#
# Indices 1 2 3 4 5 6 
#
# 1 146.0696 -1.6969 92.4716 0.0000 0.0000 0.0000
# 2 -1.6969 110.1966 7.2241 0.0000 0.0000 0.0000
# 3 92.4716 7.2241 246.3372 0.0000 0.0000 0.0000
# 4 0.0000 0.0000 0.0000 87.0948 0.0000 0.0000
# 5 0.0000 0.0000 0.0000 0.0000 32.6772 0.0000
# 6 0.0000 0.0000 0.0000 0.0000 0.0000 -10.1139
#
#
#
# Elastic Compliance Matrix: (Units=1/GPa)
#
#
# Indices 1 2 3 4 5 6 
#
# 1 0.008994 0.000361 -0.003387 0.000000 0.000000 0.000000
# 2 0.000361 0.009107 -0.000402 0.000000 0.000000 0.000000
# 3 -0.003387 -0.000402 0.005343 0.000000 0.000000 0.000000
# 4 0.000000 0.000000 0.000000 0.011482 0.000000 0.000000
# 5 0.000000 0.000000 0.000000 0.000000 0.030602 0.000000
# 6 0.000000 0.000000 0.000000 0.000000 0.000000 -0.098874
#
#
# Mechanical properties :
#
#
# Convention : Reuss Voigt Hill
#
# Bulk Modulus (GPa) = 60.29147 77.62231 68.95689
# Shear Modulus (GPa) = -238.54721 48.90528 -94.82096
#
# Velocity S-wave (km/s) = -9.85257 4.46108 -6.21176
# Velocity P-wave (km/s) = 10.24188 7.62379 4.83601
#
# Compressibility (1/GPa) = 0.01658609
#
# Stress axis : x y z
#
# Youngs Moduli (GPa) = 111.18036 109.81022 187.17164
#
# Poissons Ratio (x) = -0.03959 0.63394
# Poissons Ratio (y) = -0.04009 0.07532
# Poissons Ratio (z) = 0.37656 0.04419
#
# Static dielectric constant tensor:
#      x y z
#    x 1.939250 0.000000 0.000000 
#    y 0.000000 2.616070 0.000000 
#    z 0.000000 0.000000 2.013900 
# 
# From -- ./inp_files/28260.got.cif
#   From: 2010.05.17/outbox.cif.g08.bks.cpg/sg71_15_cif.got.tgz:28260.got - 2010.06.03 16:22:01.
