data_PCOD9522914
_publ_section_title
;
Structure prediction by ZEFSAII (Michael W. Deem and Ramdas Pophale) SiO2 
 PCOD9522914
Probable space group: I M M M
;
_chemical_formula_sum "Si O2"
_cell_formula_units_Z 116
_cell_length_a 24.842037
_cell_length_b 29.905267
_cell_length_c 7.644075
_cell_angle_alpha 90.000000
_cell_angle_beta 90.000000
_cell_angle_gamma 90.000000
_cell_volume 5678.842554
_symmetry_space_group_name_H-M "I M M M"
_symmetry_group_IT_number 71
_symmetry_cell_setting 'orthorhombic'
loop_
_space_group_symop_operation_xyz
x,y,z
-x,-y,z
x,-y,-z
-x,y,-z
-x,-y,-z
x,y,-z
-x,y,z
x,-y,z
1/2+x,1/2+y,1/2+z
1/2-x,1/2-y,1/2+z
1/2+x,1/2-y,1/2-z
1/2-x,1/2+y,1/2-z
1/2-x,1/2-y,1/2-z
1/2+x,1/2+y,1/2-z
1/2-x,1/2+y,1/2+z
1/2+x,1/2-y,1/2+z
loop_
_atom_site_type_symbol
_atom_site_label
_atom_site_fract_x
_atom_site_fract_y
_atom_site_fract_z
Si Si1 0.060776 0.551251 0.788500
Si Si2 0.763849 0.877500 0.209987
Si Si3 0.907347 0.278758 0.201079
Si Si4 0.146026 0.949511 0.291689
Si Si5 0.357343 0.871185 0.205642
Si Si6 0.560443 0.375964 0.707672
Si Si7 0.150556 0.807910 0.788115
Si Si8 0.000000 0.272230 0.500000
O O1 0.070481 0.500000 0.733035
O O2 0.105181 0.585572 0.725320
O O3 0.000000 0.564035 0.732458
O O4 0.061193 0.551798 0.000000
O O5 0.801361 0.920213 0.248051
O O6 0.702884 0.879877 0.274706
O O7 0.796667 0.833979 0.275794
O O8 0.760886 0.874769 0.000000
O O9 0.885142 0.328946 0.205089
O O10 0.859990 0.243617 0.249591
O O11 0.953371 0.273540 0.344792
O O12 0.924726 0.268195 0.000000
O O13 0.142960 0.951887 0.500000
O O14 0.093941 0.921477 0.232175
O O15 0.148030 0.000000 0.221279
O O16 0.354086 0.860244 0.000000
O O17 0.556067 0.368838 0.500000
O O18 0.500000 0.376652 0.780741
O O19 0.598674 0.336287 0.776245
O O20 0.151880 0.812023 0.000000
#
# Coordination Sequence:
#
# PCOD9522914 Si02
#       8
#    16  16  16  16  16  16  16   4
#     4   9  20  39  61  84 114 157 204 248 303 371
#     4   9  20  40  62  82 114 156 200 254 300 358
#     4  11  24  42  65  92 128 170 202 251 307 354
#     4  10  21  36  53  79 114 149 192 249 309 362
#     4  11  23  39  60  92 125 155 203 252 303 367
#     4   9  18  34  56  81 111 151 197 243 293 361
#     4   8  17  37  60  83 114 156 202 244 303 356
#     4  12  26  44  60  98 133 158 215 248 298 366
#
# _framework density 20.426697999999998
#
# number of rings (size 3 to 8) (size 9 to 14) (size 15 to 20)
#    0.000    2.345    0.690    2.276    1.931    4.414 
#    4.966    4.828    0.000    0.000    0.000    0.000 
#    0.000    0.000    0.000    0.000    0.000    0.000 
#
# Total GULP energy -323149.170885 kJ/mol
# GULP energy per Si atom -5571.537429 kJ/mol
# Density = 2.038021 g / cm^3
# Si number density = 20.426698 Si / 1000 Ang^3
#
#
#
# Elastic Constant Matrix: (Units=GPa)
#
#
# Indices 1 2 3 4 5 6 
#
# 1 128.6373 50.6934 12.7148 0.0000 0.0000 0.0000
# 2 50.6934 90.6157 0.9418 0.0000 0.0000 0.0000
# 3 12.7148 0.9418 71.5505 0.0000 0.0000 0.0000
# 4 0.0000 0.0000 0.0000 31.9634 0.0000 0.0000
# 5 0.0000 0.0000 0.0000 0.0000 19.9894 0.0000
# 6 0.0000 0.0000 0.0000 0.0000 0.0000 69.8221
#
#
#
# Elastic Compliance Matrix: (Units=1/GPa)
#
#
# Indices 1 2 3 4 5 6 
#
# 1 0.010183 -0.005679 -0.001735 0.000000 0.000000 0.000000
# 2 -0.005679 0.014204 0.000822 0.000000 0.000000 0.000000
# 3 -0.001735 0.000822 0.014274 0.000000 0.000000 0.000000
# 4 0.000000 0.000000 0.000000 0.031286 0.000000 0.000000
# 5 0.000000 0.000000 0.000000 0.000000 0.050026 0.000000
# 6 0.000000 0.000000 0.000000 0.000000 0.000000 0.014322
#
#
# Mechanical properties :
#
#
# Convention : Reuss Voigt Hill
#
# Bulk Modulus (GPa) = 39.24974 46.61151 42.93062
# Shear Modulus (GPa) = 32.05732 39.45188 35.75460
#
# Velocity S-wave (km/s) = 3.96584 4.39952 4.18830
# Velocity P-wave (km/s) = 6.34249 6.97683 6.66721
#
# Compressibility (1/GPa) = 0.02547788
#
# Stress axis : x y z
#
# Youngs Moduli (GPa) = 98.20136 70.40290 70.05935
#
# Poissons Ratio (x) = 0.39980 0.12154
# Poissons Ratio (y) = 0.55766 -0.05760
# Poissons Ratio (z) = 0.17036 -0.05788
#
# Static dielectric constant tensor:
#      x y z
#    x 1.767150 0.000000 0.000000 
#    y 0.000000 1.720280 0.000000 
#    z 0.000000 0.000000 1.766720 
# 
# From -- ./inp_files/13440.got.cif
#   From: 2010.05.17/outbox.cif.g08.bks.cpg/sg71_7_cif.got.tgz:13440.got - 2010.06.03 16:22:01.
