data_PCOD9522131
_publ_section_title
;
Structure prediction by ZEFSAII (Michael W. Deem and Ramdas Pophale) SiO2 
 PCOD9522131
Probable space group: I M M M
;
_chemical_formula_sum "Si O2"
_cell_formula_units_Z 82
_cell_length_a 25.613158
_cell_length_b 20.114461
_cell_length_c 8.767058
_cell_angle_alpha 90.000000
_cell_angle_beta 90.000000
_cell_angle_gamma 90.000000
_cell_volume 4516.743286
_symmetry_space_group_name_H-M "I M M M"
_symmetry_group_IT_number 71
_symmetry_cell_setting 'orthorhombic'
loop_
_space_group_symop_operation_xyz
x,y,z
-x,-y,z
x,-y,-z
-x,y,-z
-x,-y,-z
x,y,-z
-x,y,z
x,-y,z
1/2+x,1/2+y,1/2+z
1/2-x,1/2-y,1/2+z
1/2+x,1/2-y,1/2-z
1/2-x,1/2+y,1/2-z
1/2-x,1/2-y,1/2-z
1/2+x,1/2+y,1/2-z
1/2-x,1/2+y,1/2+z
1/2+x,1/2-y,1/2+z
loop_
_atom_site_type_symbol
_atom_site_label
_atom_site_fract_x
_atom_site_fract_y
_atom_site_fract_z
Si Si1 0.500000 0.000000 0.000000
Si Si2 0.000000 0.075496 0.185846
Si Si3 0.292593 0.577938 0.818354
Si Si4 0.500000 0.138933 0.831496
Si Si5 0.781408 0.686267 0.318597
Si Si6 0.604317 0.196918 0.320133
Si Si7 0.894197 0.144773 0.818928
O O1 0.500000 0.939829 0.869222
O O2 0.947625 0.111566 0.234004
O O3 0.000000 0.000000 0.237030
O O4 0.000000 0.076606 0.000000
O O5 0.293529 0.500000 0.776512
O O6 0.248376 0.619990 0.733546
O O7 0.346333 0.613568 0.771578
O O8 0.284922 0.582908 0.000000
O O9 0.447069 0.161539 0.747068
O O10 0.500000 0.171885 0.000000
O O11 0.780421 0.693343 0.500000
O O12 0.750000 0.750000 0.250000
O O13 0.840779 0.680961 0.260432
O O14 0.608257 0.181958 0.500000
O O15 0.599860 0.276486 0.302435
O O16 0.886035 0.131067 0.000000
#
# Coordination Sequence:
#
# PCOD9522131 Si02
#       7
#     2   8  16   8  16  16  16
#     4   8  24  48  70  92 136 172 220 280 336 406
#     4   9  17  30  50  81 116 156 202 244 289 356
#     4  11  24  41  60  88 127 169 211 260 319 387
#     4  10  22  44  68  94 127 169 213 266 328 391
#     4  12  24  41  65  94 127 168 215 268 329 391
#     4  11  22  39  66  98 127 163 213 273 324 387
#     4  10  20  35  59  87 121 163 208 258 315 373
#
# _framework density 18.154672999999999
#
# number of rings (size 3 to 8) (size 9 to 14) (size 15 to 20)
#    0.293    1.073    1.951    4.390    0.000    4.683 
#    1.756    1.463    0.000    1.756    0.000    0.000 
#    0.000    0.000    0.000    0.000    0.000    0.000 
#
# Total GULP energy -228669.584676 kJ/mol
# GULP energy per Si atom -5577.306943 kJ/mol
# Density = 1.811335 g / cm^3
# Si number density = 18.154673 Si / 1000 Ang^3
#
#
#
# Elastic Constant Matrix: (Units=GPa)
#
#
# Indices 1 2 3 4 5 6 
#
# 1 174.0365 67.3608 77.1050 0.0000 0.0000 0.0000
# 2 67.3608 102.6617 71.1327 0.0000 0.0000 0.0000
# 3 77.1050 71.1327 118.8807 0.0000 0.0000 0.0000
# 4 0.0000 0.0000 0.0000 17.3978 0.0000 0.0000
# 5 0.0000 0.0000 0.0000 0.0000 37.5385 0.0000
# 6 0.0000 0.0000 0.0000 0.0000 0.0000 85.4811
#
#
#
# Elastic Compliance Matrix: (Units=1/GPa)
#
#
# Indices 1 2 3 4 5 6 
#
# 1 0.008581 -0.003031 -0.003752 0.000000 0.000000 0.000000
# 2 -0.003031 0.017709 -0.008631 0.000000 0.000000 0.000000
# 3 -0.003752 -0.008631 0.016010 0.000000 0.000000 0.000000
# 4 0.000000 0.000000 0.000000 0.057478 0.000000 0.000000
# 5 0.000000 0.000000 0.000000 0.000000 0.026639 0.000000
# 6 0.000000 0.000000 0.000000 0.000000 0.000000 0.011698
#
#
# Mechanical properties :
#
#
# Convention : Reuss Voigt Hill
#
# Bulk Modulus (GPa) = 87.16204 91.86400 89.51302
# Shear Modulus (GPa) = 28.94036 40.08220 34.51128
#
# Velocity S-wave (km/s) = 3.99695 4.70384 4.36473
# Velocity P-wave (km/s) = 8.33162 8.95612 8.64951
#
# Compressibility (1/GPa) = 0.01147288
#
# Stress axis : x y z
#
# Youngs Moduli (GPa) = 116.53110 56.46705 62.46129
#
# Poissons Ratio (x) = 0.17113 0.23438
# Poissons Ratio (y) = 0.35316 0.53910
# Poissons Ratio (z) = 0.43728 0.48736
#
# Static dielectric constant tensor:
#      x y z
#    x 1.700990 0.000000 0.000000 
#    y 0.000000 1.605420 0.000000 
#    z 0.000000 0.000000 1.628030 
# 
# From -- ./inp_files/12452.got.cif
#   From: 2010.05.17/outbox.cif.g08.bks.cpg/sg71_7_cif.got.tgz:12452.got - 2010.06.03 16:22:01.
