data_PCOD9522433
_publ_section_title
;
Structure prediction by ZEFSAII (Michael W. Deem and Ramdas Pophale) SiO2 
 PCOD9522433
Probable space group: I M M M
;
_chemical_formula_sum "Si O2"
_cell_formula_units_Z 82
_cell_length_a 19.889271
_cell_length_b 7.507442
_cell_length_c 26.279998
_cell_angle_alpha 90.000000
_cell_angle_beta 90.000000
_cell_angle_gamma 90.000000
_cell_volume 3924.064875
_symmetry_space_group_name_H-M "I M M M"
_symmetry_group_IT_number 71
_symmetry_cell_setting 'orthorhombic'
loop_
_space_group_symop_operation_xyz
x,y,z
-x,-y,z
x,-y,-z
-x,y,-z
-x,-y,-z
x,y,-z
-x,y,z
x,-y,z
1/2+x,1/2+y,1/2+z
1/2-x,1/2-y,1/2+z
1/2+x,1/2-y,1/2-z
1/2-x,1/2+y,1/2-z
1/2-x,1/2-y,1/2-z
1/2+x,1/2+y,1/2-z
1/2-x,1/2+y,1/2+z
1/2+x,1/2-y,1/2+z
loop_
_atom_site_type_symbol
_atom_site_label
_atom_site_fract_x
_atom_site_fract_y
_atom_site_fract_z
Si Si1 0.923143 0.789256 0.683713
Si Si2 0.312695 0.283604 0.896783
Si Si3 0.158097 0.717884 0.102275
Si Si4 0.576505 0.785196 0.700674
Si Si5 0.886439 0.302834 0.500000
Si Si6 0.500000 0.500000 0.000000
Si Si7 0.578668 0.782479 0.500000
O O1 0.865383 0.719940 0.646264
O O2 0.902305 0.765863 0.742405
O O3 0.000000 0.717174 0.677258
O O4 0.928215 0.000000 0.673488
O O5 0.312197 0.500000 0.894926
O O6 0.235476 0.225301 0.893562
O O7 0.341425 0.223537 0.950414
O O8 0.157478 0.500000 0.101400
O O9 0.120295 0.776743 0.153387
O O10 0.118804 0.773383 0.050985
O O11 0.500000 0.722317 0.694476
O O12 0.576165 0.000000 0.699176
O O13 0.915666 0.500000 0.500000
O O14 0.942266 0.153648 0.500000
O O15 0.500000 0.727129 0.500000
O O16 0.578140 0.000000 0.500000
#
# Coordination Sequence:
#
# PCOD9522433 Si02
#       7
#    16  16  16  16   8   2   8
#     4   9  19  33  52  73 101 144 192 235 296 362
#     4  10  20  37  58  79 115 155 191 246 300 358
#     4   9  17  29  50  77 106 149 192 233 304 367
#     4   9  17  31  50  76 110 144 189 252 303 351
#     4  12  26  42  66  95 122 158 205 246 304 362
#     4  12  26  48  68  90 128 164 192 260 300 352
#     4   9  15  24  43  73 105 137 183 238 288 362
#
# _framework density 20.896698000000001
#
# number of rings (size 3 to 8) (size 9 to 14) (size 15 to 20)
#    0.000    2.439    0.976    1.317    1.366    5.463 
#    0.000    0.976    0.000    0.000    0.000    0.000 
#    0.000    6.244    0.000    0.000    0.000    0.000 
#
# Total GULP energy -228660.836835 kJ/mol
# GULP energy per Si atom -5577.093581 kJ/mol
# Density = 2.084914 g / cm^3
# Si number density = 20.896698 Si / 1000 Ang^3
#
#
#
# Elastic Constant Matrix: (Units=GPa)
#
#
# Indices 1 2 3 4 5 6 
#
# 1 187.3206 24.2862 157.3422 0.0000 0.0000 0.0000
# 2 24.2862 69.2843 4.3366 0.0000 0.0000 0.0000
# 3 157.3422 4.3366 216.3488 0.0000 0.0000 0.0000
# 4 0.0000 0.0000 0.0000 20.1987 0.0000 0.0000
# 5 0.0000 0.0000 0.0000 0.0000 -899.6756 0.0000
# 6 0.0000 0.0000 0.0000 0.0000 0.0000 9.5184
#
#
#
# Elastic Compliance Matrix: (Units=1/GPa)
#
#
# Indices 1 2 3 4 5 6 
#
# 1 0.015052 -0.004597 -0.010854 0.000000 0.000000 0.000000
# 2 -0.004597 0.015855 0.003025 0.000000 0.000000 0.000000
# 3 -0.010854 0.003025 0.012455 0.000000 0.000000 0.000000
# 4 0.000000 0.000000 0.000000 0.049508 0.000000 0.000000
# 5 0.000000 0.000000 0.000000 0.000000 -0.001112 0.000000
# 6 0.000000 0.000000 0.000000 0.000000 0.000000 0.105060
#
#
# Mechanical properties :
#
#
# Convention : Reuss Voigt Hill
#
# Bulk Modulus (GPa) = 54.02298 93.87597 73.94948
# Shear Modulus (GPa) = 21.94519 -154.85911 -66.45696
#
# Velocity S-wave (km/s) = 3.24416 -8.61788 -5.64550
# Velocity P-wave (km/s) = 6.31991 7.34864 2.65153
#
# Compressibility (1/GPa) = 0.01851064
#
# Stress axis : x y z
#
# Youngs Moduli (GPa) = 66.43807 63.07081 80.28609
#
# Poissons Ratio (x) = 0.28991 0.87145
# Poissons Ratio (y) = 0.30539 -0.24288
# Poissons Ratio (z) = 0.72114 -0.19080
#
# Static dielectric constant tensor:
#      x y z
#    x 1.724030 0.000000 0.000000 
#    y 0.000000 1.792020 0.000000 
#    z 0.000000 0.000000 1.736830 
# 
# From -- ./inp_files/61069.got.cif
#   From: 2010.05.17/outbox.cif.g08.bks.cpg/sg71_31_cif.got.tgz:61069.got - 2010.06.03 16:22:01.
