data_PCOD9522247
_publ_section_title
;
Structure prediction by ZEFSAII (Michael W. Deem and Ramdas Pophale) SiO2 
 PCOD9522247
Probable space group: I M M M
;
_chemical_formula_sum "Si O2"
_cell_formula_units_Z 90
_cell_length_a 20.418106
_cell_length_b 27.153661
_cell_length_c 7.457315
_cell_angle_alpha 90.000000
_cell_angle_beta 90.000000
_cell_angle_gamma 90.000000
_cell_volume 4134.531777
_symmetry_space_group_name_H-M "I M M M"
_symmetry_group_IT_number 71
_symmetry_cell_setting 'orthorhombic'
loop_
_space_group_symop_operation_xyz
x,y,z
-x,-y,z
x,-y,-z
-x,y,-z
-x,-y,-z
x,y,-z
-x,y,z
x,-y,z
1/2+x,1/2+y,1/2+z
1/2-x,1/2-y,1/2+z
1/2+x,1/2-y,1/2-z
1/2-x,1/2+y,1/2-z
1/2-x,1/2-y,1/2-z
1/2+x,1/2+y,1/2-z
1/2-x,1/2+y,1/2+z
1/2+x,1/2-y,1/2+z
loop_
_atom_site_type_symbol
_atom_site_label
_atom_site_fract_x
_atom_site_fract_y
_atom_site_fract_z
Si Si1 0.637246 0.760746 0.206762
Si Si2 0.000000 0.309557 0.215231
Si Si3 0.500000 0.075621 0.717147
Si Si4 0.132189 0.148648 0.203442
Si Si5 0.000000 0.000000 0.500000
Si Si6 0.355849 0.052697 0.283234
Si Si7 0.000000 0.907014 0.222025
Si Si8 0.774604 0.349793 0.711786
O O1 0.566169 0.785651 0.214459
O O2 0.630444 0.707930 0.297511
O O3 0.688889 0.800761 0.282955
O O4 0.654568 0.750935 0.000000
O O5 0.000000 0.366859 0.260148
O O6 0.000000 0.304706 0.000000
O O7 0.500000 0.070049 0.500000
O O8 0.568892 0.054560 0.779451
O O9 0.203061 0.138329 0.289773
O O10 0.065287 0.124539 0.272144
O O11 0.136041 0.129842 0.000000
O O12 0.000000 0.043551 0.659753
O O13 0.356355 0.053586 0.500000
O O14 0.319443 0.102143 0.227748
O O15 0.326478 0.000000 0.226682
O O16 0.000000 0.913917 0.000000
O O17 0.766138 0.339844 0.500000
#
# Coordination Sequence:
#
# PCOD9522247 Si02
#       8
#    16   8   8  16   2  16   8  16
#     4  11  22  35  58  91 128 164 207 260 314 373
#     4  11  20  33  56  82 115 165 209 242 293 361
#     4   9  17  32  55  77 109 152 202 249 291 339
#     4  10  22  42  66  91 124 165 206 254 317 395
#     4  12  26  48  84 106 136 168 214 290 350 398
#     4  10  20  36  57  84 114 156 210 263 303 353
#     4  10  24  48  75 105 135 172 223 273 337 416
#     4  10  22  39  57  86 126 165 205 254 317 384
#
# _framework density 21.767882
#
# number of rings (size 3 to 8) (size 9 to 14) (size 15 to 20)
#    0.000    1.778    1.778    2.267    1.244    3.556 
#    1.600    0.444    0.000    1.067    0.000    0.000 
#    0.000    0.000    0.000    0.000    0.000    0.000 
#
# Total GULP energy -250914.890414 kJ/mol
# GULP energy per Si atom -5575.886454 kJ/mol
# Density = 2.171834 g / cm^3
# Si number density = 21.767882 Si / 1000 Ang^3
#
#
#
# Elastic Constant Matrix: (Units=GPa)
#
#
# Indices 1 2 3 4 5 6 
#
# 1 174.3165 80.7868 10.1671 0.0000 0.0000 0.0000
# 2 80.7868 149.3367 11.8227 0.0000 0.0000 0.0000
# 3 10.1671 11.8227 78.5029 0.0000 0.0000 0.0000
# 4 0.0000 0.0000 0.0000 13.7585 0.0000 0.0000
# 5 0.0000 0.0000 0.0000 0.0000 6.9609 0.0000
# 6 0.0000 0.0000 0.0000 0.0000 0.0000 12.3886
#
#
#
# Elastic Compliance Matrix: (Units=1/GPa)
#
#
# Indices 1 2 3 4 5 6 
#
# 1 0.007667 -0.004118 -0.000373 0.000000 0.000000 0.000000
# 2 -0.004118 0.008989 -0.000820 0.000000 0.000000 0.000000
# 3 -0.000373 -0.000820 0.012910 0.000000 0.000000 0.000000
# 4 0.000000 0.000000 0.000000 0.072682 0.000000 0.000000
# 5 0.000000 0.000000 0.000000 0.000000 0.143660 0.000000
# 6 0.000000 0.000000 0.000000 0.000000 0.000000 0.080720
#
#
# Mechanical properties :
#
#
# Convention : Reuss Voigt Hill
#
# Bulk Modulus (GPa) = 52.78823 67.52325 60.15574
# Shear Modulus (GPa) = 14.55327 26.58021 20.56674
#
# Velocity S-wave (km/s) = 2.58847 3.49818 3.07713
# Velocity P-wave (km/s) = 5.76513 6.88501 6.34981
#
# Compressibility (1/GPa) = 0.01894362
#
# Stress axis : x y z
#
# Youngs Moduli (GPa) = 130.42978 111.24711 77.45800
#
# Poissons Ratio (x) = 0.45813 0.02887
# Poissons Ratio (y) = 0.53712 0.06355
# Poissons Ratio (z) = 0.04862 0.09127
#
# Static dielectric constant tensor:
#      x y z
#    x 1.817440 0.000000 0.000000 
#    y 0.000000 1.762920 0.000000 
#    z 0.000000 0.000000 1.870100 
# 
# From -- ./inp_files/10602.got.cif
#   From: 2010.05.17/outbox.cif.g08.bks.cpg/sg71_6_cif.got.tgz:10602.got - 2010.06.03 16:22:01.
