data_PCOD9522254
_publ_section_title
;
Structure prediction by ZEFSAII (Michael W. Deem and Ramdas Pophale) SiO2 
 PCOD9522254
Probable space group: I M M M
;
_chemical_formula_sum "Si O2"
_cell_formula_units_Z 116
_cell_length_a 23.545681
_cell_length_b 8.909810
_cell_length_c 26.934124
_cell_angle_alpha 90.000000
_cell_angle_beta 90.000000
_cell_angle_gamma 90.000000
_cell_volume 5650.443725
_symmetry_space_group_name_H-M "I M M M"
_symmetry_group_IT_number 71
_symmetry_cell_setting 'orthorhombic'
loop_
_space_group_symop_operation_xyz
x,y,z
-x,-y,z
x,-y,-z
-x,y,-z
-x,-y,-z
x,y,-z
-x,y,z
x,-y,z
1/2+x,1/2+y,1/2+z
1/2-x,1/2-y,1/2+z
1/2+x,1/2-y,1/2-z
1/2-x,1/2+y,1/2-z
1/2-x,1/2-y,1/2-z
1/2+x,1/2+y,1/2-z
1/2-x,1/2+y,1/2+z
1/2+x,1/2-y,1/2+z
loop_
_atom_site_type_symbol
_atom_site_label
_atom_site_fract_x
_atom_site_fract_y
_atom_site_fract_z
Si Si1 0.437272 0.177686 0.891403
Si Si2 0.261948 0.677628 0.196990
Si Si3 0.567119 0.323008 0.303203
Si Si4 0.282446 0.678625 0.398826
Si Si5 0.378881 0.824561 0.208455
Si Si6 0.591473 0.680869 0.581475
Si Si7 0.500000 0.229435 0.500000
Si Si8 0.170945 0.171013 0.440960
O O1 0.500000 0.230856 0.905737
O O2 0.428425 0.192309 0.832110
O O3 0.386079 0.261403 0.917982
O O4 0.432896 0.000000 0.902593
O O5 0.257130 0.500000 0.198840
O O6 0.250000 0.750000 0.250000
O O7 0.221174 0.744754 0.155076
O O8 0.326316 0.730126 0.186971
O O9 0.500000 0.302997 0.293864
O O10 0.581010 0.500000 0.297668
O O11 0.602227 0.232187 0.262324
O O12 0.578439 0.284301 0.360783
O O13 0.280562 0.500000 0.392151
O O14 0.341860 0.714254 0.425617
O O15 0.226610 0.734674 0.426836
O O16 0.362631 0.000000 0.210515
O O17 0.582226 0.500000 0.574634
O O18 0.549640 0.760935 0.543526
O O19 0.165177 0.170287 0.500000
O O20 0.179529 0.000000 0.423158
#
# Coordination Sequence:
#
# PCOD9522254 Si02
#       8
#    16  16  16  16  16  16   4  16
#     4  10  22  41  66  96 130 168 215 269 327 393
#     4  12  24  40  64  95 132 175 217 267 328 393
#     4  10  20  36  57  89 130 172 218 272 332 402
#     4  11  23  40  64  99 134 171 221 277 337 405
#     4  11  22  38  62  93 129 173 218 268 325 397
#     4  10  21  36  61  94 130 167 215 275 337 396
#     4  12  21  40  68 100 137 174 223 288 343 390
#     4  11  25  44  65  92 128 174 225 277 334 399
#
# _framework density 20.52936
#
# number of rings (size 3 to 8) (size 9 to 14) (size 15 to 20)
#    0.000    1.241    2.069    4.345    0.966    4.138 
#    0.000    2.069    0.000    0.000    0.000    4.345 
#    0.000    0.000    0.000    0.000    0.000    0.000 
#
# Total GULP energy -323805.444244 kJ/mol
# GULP energy per Si atom -5582.852487 kJ/mol
# Density = 2.048263 g / cm^3
# Si number density = 20.529360 Si / 1000 Ang^3
#
#
#
# Elastic Constant Matrix: (Units=GPa)
#
#
# Indices 1 2 3 4 5 6 
#
# 1 146.0193 59.8075 45.9037 0.0000 0.0000 0.0000
# 2 59.8075 88.0642 38.3413 0.0000 0.0000 0.0000
# 3 45.9037 38.3413 95.9737 0.0000 0.0000 0.0000
# 4 0.0000 0.0000 0.0000 15.4641 0.0000 0.0000
# 5 0.0000 0.0000 0.0000 0.0000 71.1591 0.0000
# 6 0.0000 0.0000 0.0000 0.0000 0.0000 11.0410
#
#
#
# Elastic Compliance Matrix: (Units=1/GPa)
#
#
# Indices 1 2 3 4 5 6 
#
# 1 0.009958 -0.005676 -0.002495 0.000000 0.000000 0.000000
# 2 -0.005676 0.016982 -0.004069 0.000000 0.000000 0.000000
# 3 -0.002495 -0.004069 0.013239 0.000000 0.000000 0.000000
# 4 0.000000 0.000000 0.000000 0.064666 0.000000 0.000000
# 5 0.000000 0.000000 0.000000 0.000000 0.014053 0.000000
# 6 0.000000 0.000000 0.000000 0.000000 0.000000 0.090571
#
#
# Mechanical properties :
#
#
# Convention : Reuss Voigt Hill
#
# Bulk Modulus (GPa) = 63.70673 68.68469 66.19571
# Shear Modulus (GPa) = 20.90456 31.93317 26.41887
#
# Velocity S-wave (km/s) = 3.19451 3.94825 3.59121
# Velocity P-wave (km/s) = 6.68624 7.36982 7.03634
#
# Compressibility (1/GPa) = 0.01569693
#
# Stress axis : x y z
#
# Youngs Moduli (GPa) = 100.42454 58.88561 75.53685
#
# Poissons Ratio (x) = 0.33426 0.18847
# Poissons Ratio (y) = 0.57005 0.30738
# Poissons Ratio (z) = 0.25056 0.23962
#
# Static dielectric constant tensor:
#      x y z
#    x 1.752070 0.000000 0.000000 
#    y 0.000000 1.710680 0.000000 
#    z 0.000000 0.000000 1.726860 
# 
# From -- ./inp_files/66912.got.cif
#   From: 2010.05.17/outbox.cif.g08.bks.cpg/sg71_34_cif.got.tgz:66912.got - 2010.06.03 16:22:01.
