data_PCOD9522327
_publ_section_title
;
Structure prediction by ZEFSAII (Michael W. Deem and Ramdas Pophale) SiO2 
 PCOD9522327
Probable space group: I M M M
;
_chemical_formula_sum "Si O2"
_cell_formula_units_Z 66
_cell_length_a 7.658850
_cell_length_b 22.588332
_cell_length_c 18.259232
_cell_angle_alpha 90.000000
_cell_angle_beta 90.000000
_cell_angle_gamma 90.000000
_cell_volume 3158.858941
_symmetry_space_group_name_H-M "I M M M"
_symmetry_group_IT_number 71
_symmetry_cell_setting 'orthorhombic'
loop_
_space_group_symop_operation_xyz
x,y,z
-x,-y,z
x,-y,-z
-x,y,-z
-x,-y,-z
x,y,-z
-x,y,z
x,-y,z
1/2+x,1/2+y,1/2+z
1/2-x,1/2-y,1/2+z
1/2+x,1/2-y,1/2-z
1/2-x,1/2+y,1/2-z
1/2-x,1/2-y,1/2-z
1/2+x,1/2+y,1/2-z
1/2-x,1/2+y,1/2+z
1/2+x,1/2-y,1/2+z
loop_
_atom_site_type_symbol
_atom_site_label
_atom_site_fract_x
_atom_site_fract_y
_atom_site_fract_z
Si Si1 0.295395 0.372379 0.203903
Si Si2 0.285967 0.431983 0.500000
Si Si3 0.191466 0.500000 0.152572
Si Si4 0.789583 0.149817 0.133121
Si Si5 0.000000 0.500000 0.000000
Si Si6 0.790106 0.217305 0.417669
O O1 0.500000 0.357044 0.209382
O O2 0.280747 0.439732 0.177568
O O3 0.221587 0.362603 0.285158
O O4 0.219426 0.329134 0.141798
O O5 0.230677 0.500000 0.500000
O O6 0.500000 0.431520 0.500000
O O7 0.227157 0.396418 0.428028
O O8 0.000000 0.500000 0.189073
O O9 0.149798 0.500000 0.065886
O O10 0.747358 0.216124 0.107777
O O11 0.000000 0.144189 0.134681
O O12 0.721765 0.207467 0.500000
O O13 0.000000 0.210355 0.421034
#
# Coordination Sequence:
#
# PCOD9522327 Si02
#       6
#    16   8   8  16   2  16
#     4  10  22  38  60  87 116 153 199 241 293 350
#     4   9  18  32  54  83 115 149 187 239 289 338
#     4  10  23  41  61  86 118 153 187 244 288 344
#     4  10  20  36  59  86 114 150 198 245 290 345
#     4   8  24  44  58  80 124 142 202 228 294 340
#     4  10  21  36  55  81 117 155 192 241 299 351
#
# _framework density 20.893621
#
# number of rings (size 3 to 8) (size 9 to 14) (size 15 to 20)
#    0.364    1.818    1.212    1.091    3.394    1.939 
#    0.000    0.606    0.000    0.727    0.000    0.000 
#    0.000    0.000    0.000    0.000    0.000    0.000 
#
# Total GULP energy -183936.514247 kJ/mol
# GULP energy per Si atom -5573.833765 kJ/mol
# Density = 2.084607 g / cm^3
# Si number density = 20.893621 Si / 1000 Ang^3
#
#
#
# Elastic Constant Matrix: (Units=GPa)
#
#
# Indices 1 2 3 4 5 6 
#
# 1 34.7788 -11.8099 12.9253 0.0000 0.0000 0.0000
# 2 -11.8099 176.6231 122.9453 0.0000 0.0000 0.0000
# 3 12.9253 122.9453 257.0245 0.0000 0.0000 0.0000
# 4 0.0000 0.0000 0.0000 -5.8757 0.0000 0.0000
# 5 0.0000 0.0000 0.0000 0.0000 -9.8693 0.0000
# 6 0.0000 0.0000 0.0000 0.0000 0.0000 55.8178
#
#
#
# Elastic Compliance Matrix: (Units=1/GPa)
#
#
# Indices 1 2 3 4 5 6 
#
# 1 0.031866 0.004867 -0.003930 0.000000 0.000000 0.000000
# 2 0.004867 0.009231 -0.004660 0.000000 0.000000 0.000000
# 3 -0.003930 -0.004660 0.006318 0.000000 0.000000 0.000000
# 4 0.000000 0.000000 0.000000 -0.170191 0.000000 0.000000
# 5 0.000000 0.000000 0.000000 0.000000 -0.101324 0.000000
# 6 0.000000 0.000000 0.000000 0.000000 0.000000 0.017915
#
#
# Mechanical properties :
#
#
# Convention : Reuss Voigt Hill
#
# Bulk Modulus (GPa) = 25.02068 79.61643 52.31856
# Shear Modulus (GPa) = -26.96675 30.97225 2.00275
#
# Velocity S-wave (km/s) = -3.59649 3.85434 0.98012
# Velocity P-wave (km/s) = 2.29020 7.61553 5.13572
#
# Compressibility (1/GPa) = 0.03996694
#
# Stress axis : x y z
#
# Youngs Moduli (GPa) = 31.38098 108.32766 158.28780
#
# Poissons Ratio (x) = -0.52720 0.62214
# Poissons Ratio (y) = -0.15272 0.73769
# Poissons Ratio (z) = 0.12334 0.50485
#
# Static dielectric constant tensor:
#      x y z
#    x 1.778470 0.000000 0.000000 
#    y 0.000000 1.699280 0.000000 
#    z 0.000000 0.000000 1.758060 
# 
# From -- ./inp_files/41958.got.cif
#   From: 2010.05.17/outbox.cif.g08.bks.cpg/sg71_21_cif.got.tgz:41958.got - 2010.06.03 16:22:01.
