data_PCOD9522577
_publ_section_title
;
Structure prediction by ZEFSAII (Michael W. Deem and Ramdas Pophale) SiO2 
 PCOD9522577
Probable space group: I M M M
;
_chemical_formula_sum "Si O2"
_cell_formula_units_Z 88
_cell_length_a 24.821126
_cell_length_b 10.212354
_cell_length_c 18.558113
_cell_angle_alpha 90.000000
_cell_angle_beta 90.000000
_cell_angle_gamma 90.000000
_cell_volume 4704.149926
_symmetry_space_group_name_H-M "I M M M"
_symmetry_group_IT_number 71
_symmetry_cell_setting 'orthorhombic'
loop_
_space_group_symop_operation_xyz
x,y,z
-x,-y,z
x,-y,-z
-x,y,-z
-x,-y,-z
x,y,-z
-x,y,z
x,-y,z
1/2+x,1/2+y,1/2+z
1/2-x,1/2-y,1/2+z
1/2+x,1/2-y,1/2-z
1/2-x,1/2+y,1/2-z
1/2-x,1/2-y,1/2-z
1/2+x,1/2+y,1/2-z
1/2-x,1/2+y,1/2+z
1/2+x,1/2-y,1/2+z
loop_
_atom_site_type_symbol
_atom_site_label
_atom_site_fract_x
_atom_site_fract_y
_atom_site_fract_z
Si Si1 0.591004 0.224862 0.800492
Si Si2 0.000000 0.341580 0.585368
Si Si3 0.661112 0.000000 0.586910
Si Si4 0.613329 0.500000 0.583172
Si Si5 0.937080 0.000000 0.234371
Si Si6 0.715617 0.148630 0.797882
Si Si7 0.204216 0.217583 0.915978
Si Si8 0.059951 0.500000 0.189098
O O1 0.552855 0.208377 0.870797
O O2 0.587847 0.370631 0.769378
O O3 0.653585 0.187603 0.808976
O O4 0.567786 0.125371 0.740569
O O5 0.000000 0.500000 0.590154
O O6 0.000000 0.306562 0.500000
O O7 0.691415 0.133934 0.607224
O O8 0.654328 0.000000 0.500000
O O9 0.604585 0.000000 0.627653
O O10 0.593611 0.500000 0.500000
O O11 0.571663 0.500000 0.648294
O O12 0.651600 0.373168 0.593326
O O13 0.000000 0.000000 0.250820
O O14 0.750000 0.250000 0.750000
O O15 0.747042 0.155739 0.872960
O O16 0.717658 0.000000 0.769341
O O17 0.216743 0.219814 0.000000
O O18 0.000000 0.500000 0.158705
#
# Coordination Sequence:
#
# PCOD9522577 Si02
#       8
#    16   8   8   8   8  16  16   8
#     4  12  24  42  62  98 127 164 216 265 327 381
#     4  11  22  45  73  97 124 165 217 273 331 395
#     4  10  22  38  59  91 127 172 209 253 309 372
#     4  10  20  38  61  91 127 172 221 259 301 370
#     4  12  24  40  65  91 131 173 208 262 322 377
#     4  12  25  39  64  96 130 164 213 267 318 382
#     4  10  22  40  61  87 127 169 210 251 313 377
#     4  12  20  38  65  85 129 163 212 266 312 371
#
# _framework density 18.706886999999998
#
# number of rings (size 3 to 8) (size 9 to 14) (size 15 to 20)
#    0.000    0.818    4.545    3.273    2.545    1.091 
#    0.000    0.909    0.000    5.455    0.000    0.000 
#    0.000    0.000    0.000    0.000    0.000    0.000 
#
# Total GULP energy -245869.225985 kJ/mol
# GULP energy per Si atom -5587.936954 kJ/mol
# Density = 1.866431 g / cm^3
# Si number density = 18.706887 Si / 1000 Ang^3
#
#
#
# Elastic Constant Matrix: (Units=GPa)
#
#
# Indices 1 2 3 4 5 6 
#
# 1 107.6455 30.1610 50.1493 0.0000 0.0000 0.0000
# 2 30.1610 155.2502 45.0326 0.0000 0.0000 0.0000
# 3 50.1493 45.0326 81.4060 0.0000 0.0000 0.0000
# 4 0.0000 0.0000 0.0000 91.6684 0.0000 0.0000
# 5 0.0000 0.0000 0.0000 0.0000 38.0717 0.0000
# 6 0.0000 0.0000 0.0000 0.0000 0.0000 26.4544
#
#
#
# Elastic Compliance Matrix: (Units=1/GPa)
#
#
# Indices 1 2 3 4 5 6 
#
# 1 0.013037 -0.000242 -0.007897 0.000000 0.000000 0.000000
# 2 -0.000242 0.007677 -0.004098 0.000000 0.000000 0.000000
# 3 -0.007897 -0.004098 0.019416 0.000000 0.000000 0.000000
# 4 0.000000 0.000000 0.000000 0.010909 0.000000 0.000000
# 5 0.000000 0.000000 0.000000 0.000000 0.026266 0.000000
# 6 0.000000 0.000000 0.000000 0.000000 0.000000 0.037801
#
#
# Mechanical properties :
#
#
# Convention : Reuss Voigt Hill
#
# Bulk Modulus (GPa) = 63.87471 66.10972 64.99221
# Shear Modulus (GPa) = 34.53097 45.83617 40.18357
#
# Velocity S-wave (km/s) = 4.30105 4.95535 4.63975
# Velocity P-wave (km/s) = 7.67363 8.25573 7.97000
#
# Compressibility (1/GPa) = 0.01565565
#
# Stress axis : x y z
#
# Youngs Moduli (GPa) = 76.70674 130.26258 51.50432
#
# Poissons Ratio (x) = 0.03152 0.40674
# Poissons Ratio (y) = 0.01856 0.21105
# Poissons Ratio (z) = 0.60577 0.53377
#
# Static dielectric constant tensor:
#      x y z
#    x 1.665160 0.000000 0.000000 
#    y 0.000000 1.668930 0.000000 
#    z 0.000000 0.000000 1.663210 
# 
# From -- ./inp_files/55642.got.cif
#   From: 2010.05.17/outbox.cif.g08.bks.cpg/sg71_28_cif.got.tgz:55642.got - 2010.06.03 16:22:01.
