data_PCOD9522544
_publ_section_title
;
Structure prediction by ZEFSAII (Michael W. Deem and Ramdas Pophale) SiO2 
 PCOD9522544
Probable space group: I M M M
;
_chemical_formula_sum "Si O2"
_cell_formula_units_Z 52
_cell_length_a 19.042546
_cell_length_b 14.536166
_cell_length_c 7.638915
_cell_angle_alpha 90.000000
_cell_angle_beta 90.000000
_cell_angle_gamma 90.000000
_cell_volume 2114.494524
_symmetry_space_group_name_H-M "I M M M"
_symmetry_group_IT_number 71
_symmetry_cell_setting 'orthorhombic'
loop_
_space_group_symop_operation_xyz
x,y,z
-x,-y,z
x,-y,-z
-x,y,-z
-x,-y,-z
x,y,-z
-x,y,z
x,-y,z
1/2+x,1/2+y,1/2+z
1/2-x,1/2-y,1/2+z
1/2+x,1/2-y,1/2-z
1/2-x,1/2+y,1/2-z
1/2-x,1/2-y,1/2-z
1/2+x,1/2+y,1/2-z
1/2-x,1/2+y,1/2+z
1/2+x,1/2-y,1/2+z
loop_
_atom_site_type_symbol
_atom_site_label
_atom_site_fract_x
_atom_site_fract_y
_atom_site_fract_z
Si Si1 0.728618 0.353604 0.697593
Si Si2 0.915492 0.598931 0.793692
Si Si3 0.419478 0.305216 0.202626
Si Si4 0.736279 0.000000 0.500000
O O1 0.752038 0.373540 0.500000
O O2 0.750000 0.250000 0.750000
O O3 0.643298 0.357674 0.703842
O O4 0.757439 0.420370 0.845374
O O5 0.892247 0.500000 0.720364
O O6 0.899146 0.696806 0.711784
O O7 0.000000 0.596400 0.786909
O O8 0.896358 0.599469 0.000000
O O9 0.500000 0.314647 0.269403
O O10 0.419447 0.333461 0.000000
#
# Coordination Sequence:
#
# PCOD9522544 Si02
#       4
#    16  16  16   4
#     4  12  25  49  79 109 151 198 251 315 379 454
#     4   8  14  26  45  75 118 169 225 281 346 423
#     4  10  20  37  63  97 142 192 243 308 372 439
#     4  12  26  52  81 114 149 198 256 316 390 446
#
# _framework density 24.592168000000001
#
# number of rings (size 3 to 8) (size 9 to 14) (size 15 to 20)
#    0.000    1.846    3.077    2.308    0.000    2.462 
#    2.769    4.615    0.000    1.846    0.000    0.000 
#    0.000    0.000    0.000    0.000    0.000    0.000 
#
# Total GULP energy -144955.592075 kJ/mol
# GULP energy per Si atom -5575.215080 kJ/mol
# Density = 2.453619 g / cm^3
# Si number density = 24.592168 Si / 1000 Ang^3
#
#
#
# Elastic Constant Matrix: (Units=GPa)
#
#
# Indices 1 2 3 4 5 6 
#
# 1 148.1751 19.4849 19.5562 0.0000 0.0000 0.0000
# 2 19.4849 95.4277 52.1716 0.0000 0.0000 0.0000
# 3 19.5562 52.1716 181.2203 0.0000 0.0000 0.0000
# 4 0.0000 0.0000 0.0000 50.2402 0.0000 0.0000
# 5 0.0000 0.0000 0.0000 0.0000 28.7383 0.0000
# 6 0.0000 0.0000 0.0000 0.0000 0.0000 10.3002
#
#
#
# Elastic Compliance Matrix: (Units=1/GPa)
#
#
# Indices 1 2 3 4 5 6 
#
# 1 0.006960 -0.001199 -0.000406 0.000000 0.000000 0.000000
# 2 -0.001199 0.012643 -0.003510 0.000000 0.000000 0.000000
# 3 -0.000406 -0.003510 0.006573 0.000000 0.000000 0.000000
# 4 0.000000 0.000000 0.000000 0.019904 0.000000 0.000000
# 5 0.000000 0.000000 0.000000 0.000000 0.034797 0.000000
# 6 0.000000 0.000000 0.000000 0.000000 0.000000 0.097085
#
#
# Mechanical properties :
#
#
# Convention : Reuss Voigt Hill
#
# Bulk Modulus (GPa) = 62.71657 67.47203 65.09430
# Shear Modulus (GPa) = 25.83872 40.09644 32.96758
#
# Velocity S-wave (km/s) = 3.24495 4.04227 3.66535
# Velocity P-wave (km/s) = 6.29266 7.02015 6.66634
#
# Compressibility (1/GPa) = 0.01594475
#
# Stress axis : x y z
#
# Youngs Moduli (GPa) = 143.67741 79.09377 152.14756
#
# Poissons Ratio (x) = 0.09485 0.06175
# Poissons Ratio (y) = 0.17231 0.53411
# Poissons Ratio (z) = 0.05831 0.27765
#
# Static dielectric constant tensor:
#      x y z
#    x 2.097460 0.000000 0.000000 
#    y 0.000000 1.946460 0.000000 
#    z 0.000000 0.000000 1.879920 
# 
# From -- ./inp_files/9268.got.cif
#   From: 2010.05.17/outbox.cif.g08.bks.cpg/sg71_5_cif.got.tgz:9268.got - 2010.06.03 16:22:01.
