data_PCOD9522292
_publ_section_title
;
Structure prediction by ZEFSAII (Michael W. Deem and Ramdas Pophale) SiO2 
 PCOD9522292
Probable space group: I M M M
;
_chemical_formula_sum "Si O2"
_cell_formula_units_Z 120
_cell_length_a 14.301160
_cell_length_b 32.555476
_cell_length_c 14.459333
_cell_angle_alpha 90.000000
_cell_angle_beta 90.000000
_cell_angle_gamma 90.000000
_cell_volume 6731.991746
_symmetry_space_group_name_H-M "I M M M"
_symmetry_group_IT_number 71
_symmetry_cell_setting 'orthorhombic'
loop_
_space_group_symop_operation_xyz
x,y,z
-x,-y,z
x,-y,-z
-x,y,-z
-x,-y,-z
x,y,-z
-x,y,z
x,-y,z
1/2+x,1/2+y,1/2+z
1/2-x,1/2-y,1/2+z
1/2+x,1/2-y,1/2-z
1/2-x,1/2+y,1/2-z
1/2-x,1/2-y,1/2-z
1/2+x,1/2+y,1/2-z
1/2-x,1/2+y,1/2+z
1/2+x,1/2-y,1/2+z
loop_
_atom_site_type_symbol
_atom_site_label
_atom_site_fract_x
_atom_site_fract_y
_atom_site_fract_z
Si Si1 0.108170 0.837589 0.107114
Si Si2 0.110032 0.451930 0.728820
Si Si3 0.389557 0.717534 0.216083
Si Si4 0.244464 0.567409 0.891397
Si Si5 0.205672 0.382313 0.390844
Si Si6 0.888721 0.312823 0.730112
Si Si7 0.106065 0.000000 0.612141
Si Si8 0.243220 0.663896 0.892369
O O1 0.124952 0.801597 0.181449
O O2 0.184281 0.873031 0.124805
O O3 0.000000 0.850777 0.117532
O O4 0.120849 0.824143 0.000000
O O5 0.119447 0.500000 0.704940
O O6 0.156368 0.444563 0.828894
O O7 0.166355 0.422296 0.660026
O O8 0.000000 0.441373 0.728402
O O9 0.500000 0.714064 0.195448
O O10 0.363486 0.765339 0.212848
O O11 0.327968 0.691026 0.146337
O O12 0.332583 0.539669 0.861796
O O13 0.264663 0.615604 0.880553
O O14 0.226555 0.559389 0.000000
O O15 0.188885 0.384775 0.500000
O O16 0.153749 0.343100 0.346311
O O17 0.844728 0.325941 0.827763
O O18 0.000000 0.316386 0.731411
O O19 0.100810 0.000000 0.500000
O O20 0.000000 0.000000 0.647457
O O21 0.225869 0.671932 0.000000
#
# Coordination Sequence:
#
# PCOD9522292 Si02
#       8
#    16  16  16  16  16  16   8  16
#     4   9  18  35  62  91 116 150 195 240 288 341
#     4  11  23  39  61  85 115 152 191 238 288 342
#     4  10  21  38  58  83 118 154 196 245 289 344
#     4  10  20  36  58  86 119 153 193 234 282 347
#     4  11  23  40  63  86 113 149 192 243 294 348
#     4  11  23  39  58  82 115 156 201 244 291 341
#     4   9  18  34  57  85 118 153 191 235 279 337
#     4  11  23  37  57  85 120 157 192 236 292 349
#
# _framework density 17.825333000000001
#
# number of rings (size 3 to 8) (size 9 to 14) (size 15 to 20)
#    0.000    1.667    3.333    0.800    0.000    3.733 
#    0.000    7.333    0.000    0.000    0.000    1.867 
#    0.000    0.000    0.000    0.000    0.000    0.000 
#
# Total GULP energy -334932.116301 kJ/mol
# GULP energy per Si atom -5582.201938 kJ/mol
# Density = 1.778476 g / cm^3
# Si number density = 17.825333 Si / 1000 Ang^3
#
#
#
# Elastic Constant Matrix: (Units=GPa)
#
#
# Indices 1 2 3 4 5 6 
#
# 1 97.5561 62.4198 49.4718 -0.0001 0.0000 0.0000
# 2 62.4198 116.4893 53.9989 -0.0001 -0.0001 0.0000
# 3 49.4718 53.9989 88.4038 -0.0004 -0.0005 -0.0002
# 4 -0.0001 -0.0001 -0.0004 14.0655 -0.0001 0.0000
# 5 0.0000 -0.0001 -0.0005 -0.0001 19.2787 0.0001
# 6 0.0000 0.0000 -0.0002 0.0000 0.0001 26.3079
#
#
#
# Elastic Compliance Matrix: (Units=1/GPa)
#
#
# Indices 1 2 3 4 5 6 
#
# 1 0.017405 -0.006712 -0.005641 0.000000 0.000000 0.000000
# 2 -0.006712 0.014563 -0.005140 0.000000 0.000000 0.000000
# 3 -0.005641 -0.005140 0.017608 0.000000 0.000000 0.000000
# 4 0.000000 0.000000 0.000000 0.071096 0.000000 0.000000
# 5 0.000000 0.000000 0.000000 0.000000 0.051871 0.000000
# 6 0.000000 0.000000 0.000000 0.000000 0.000000 0.038011
#
#
# Mechanical properties :
#
#
# Convention : Reuss Voigt Hill
#
# Bulk Modulus (GPa) = 68.52855 70.47003 69.49929
# Shear Modulus (GPa) = 19.96782 21.03432 20.50107
#
# Velocity S-wave (km/s) = 3.35056 3.43887 3.39500
# Velocity P-wave (km/s) = 7.31411 7.44226 7.37847
#
# Compressibility (1/GPa) = 0.01459246
#
# Stress axis : x y z
#
# Youngs Moduli (GPa) = 57.45355 68.66499 56.79360
#
# Poissons Ratio (x) = 0.46087 0.32034
# Poissons Ratio (y) = 0.38562 0.29190
# Poissons Ratio (z) = 0.32407 0.35291
#
# Static dielectric constant tensor:
#      x y z
#    x 1.610400 0.000000 0.000000 
#    y 0.000000 1.600340 0.000000 
#    z 0.000000 0.000000 1.598720 
# 
# From -- ./inp_files/35459.got.cif
#   From: 2010.05.17/outbox.cif.g08.bks.cpg/sg71_18_cif.got.tgz:35459.got - 2010.06.03 16:22:01.
