data_PCOD9522054
_publ_section_title
;
Structure prediction by ZEFSAII (Michael W. Deem and Ramdas Pophale) SiO2 
 PCOD9522054
Probable space group: I M M M
;
_chemical_formula_sum "Si O2"
_cell_formula_units_Z 68
_cell_length_a 27.028463
_cell_length_b 11.495131
_cell_length_c 12.851069
_cell_angle_alpha 90.000000
_cell_angle_beta 90.000000
_cell_angle_gamma 90.000000
_cell_volume 3992.772173
_symmetry_space_group_name_H-M "I M M M"
_symmetry_group_IT_number 71
_symmetry_cell_setting 'orthorhombic'
loop_
_space_group_symop_operation_xyz
x,y,z
-x,-y,z
x,-y,-z
-x,y,-z
-x,-y,-z
x,y,-z
-x,y,z
x,-y,z
1/2+x,1/2+y,1/2+z
1/2-x,1/2-y,1/2+z
1/2+x,1/2-y,1/2-z
1/2-x,1/2+y,1/2-z
1/2-x,1/2-y,1/2-z
1/2+x,1/2+y,1/2-z
1/2-x,1/2+y,1/2+z
1/2+x,1/2-y,1/2+z
loop_
_atom_site_type_symbol
_atom_site_label
_atom_site_fract_x
_atom_site_fract_y
_atom_site_fract_z
Si Si1 0.000000 0.723679 0.379704
Si Si2 0.830708 0.706287 0.770796
Si Si3 0.255425 0.631252 0.618269
Si Si4 0.000000 0.500000 0.229586
Si Si5 0.393090 0.000000 0.375036
Si Si6 0.102154 0.861810 0.378346
O O1 0.000000 0.614433 0.302681
O O2 0.048391 0.803245 0.365423
O O3 0.000000 0.682220 0.500000
O O4 0.790543 0.645923 0.695626
O O5 0.798040 0.778424 0.852584
O O6 0.865697 0.612439 0.825974
O O7 0.861441 0.795264 0.699215
O O8 0.238669 0.649133 0.500000
O O9 0.274854 0.500000 0.628345
O O10 0.049871 0.500000 0.161401
O O11 0.389225 0.000000 0.500000
O O12 0.116742 0.845574 0.500000
O O13 0.100567 0.000000 0.358603
#
# Coordination Sequence:
#
# PCOD9522054 Si02
#       6
#     8  16  16   4   8  16
#     4  10  20  35  58  88 119 150 190 235 294 358
#     4  11  21  38  58  84 116 155 192 243 287 351
#     4  10  21  37  58  84 114 151 192 238 292 348
#     4  12  22  42  60  88 118 158 194 252 298 354
#     4  12  25  41  61  86 115 159 204 248 300 354
#     4  10  20  35  57  86 118 153 191 235 291 352
#
# _framework density 17.030774000000001
#
# number of rings (size 3 to 8) (size 9 to 14) (size 15 to 20)
#    0.000    1.412    3.529    2.824    0.000    1.412 
#    0.000    0.000    0.000    0.000    0.000    1.647 
#    0.000    0.000    0.000    0.000    0.000    0.000 
#
# Total GULP energy -189815.355425 kJ/mol
# GULP energy per Si atom -5582.804571 kJ/mol
# Density = 1.699201 g / cm^3
# Si number density = 17.030774 Si / 1000 Ang^3
#
#
#
# Elastic Constant Matrix: (Units=GPa)
#
#
# Indices 1 2 3 4 5 6 
#
# 1 98.4088 50.9547 46.1774 0.0000 0.0000 0.0000
# 2 50.9547 129.0883 71.9675 0.0000 0.0000 0.0000
# 3 46.1774 71.9675 102.3810 0.0000 0.0000 0.0000
# 4 0.0000 0.0000 0.0000 48.7480 0.0000 0.0000
# 5 0.0000 0.0000 0.0000 0.0000 22.6303 0.0000
# 6 0.0000 0.0000 0.0000 0.0000 0.0000 26.8847
#
#
#
# Elastic Compliance Matrix: (Units=1/GPa)
#
#
# Indices 1 2 3 4 5 6 
#
# 1 0.013657 -0.003218 -0.003898 0.000000 0.000000 0.000000
# 2 -0.003218 0.013497 -0.008036 0.000000 0.000000 0.000000
# 3 -0.003898 -0.008036 0.017175 0.000000 0.000000 0.000000
# 4 0.000000 0.000000 0.000000 0.020514 0.000000 0.000000
# 5 0.000000 0.000000 0.000000 0.000000 0.044189 0.000000
# 6 0.000000 0.000000 0.000000 0.000000 0.000000 0.037196
#
#
# Mechanical properties :
#
#
# Convention : Reuss Voigt Hill
#
# Bulk Modulus (GPa) = 71.30273 74.23079 72.76676
# Shear Modulus (GPa) = 27.59306 30.37115 28.98211
#
# Velocity S-wave (km/s) = 4.02952 4.22751 4.12970
# Velocity P-wave (km/s) = 7.97542 8.21645 8.09683
#
# Compressibility (1/GPa) = 0.01402471
#
# Stress axis : x y z
#
# Youngs Moduli (GPa) = 73.22367 74.09063 58.22569
#
# Poissons Ratio (x) = 0.23839 0.22696
# Poissons Ratio (y) = 0.23560 0.46792
# Poissons Ratio (z) = 0.28542 0.59541
#
# Static dielectric constant tensor:
#      x y z
#    x 1.551000 0.000000 0.000000 
#    y 0.000000 1.554070 0.000000 
#    z 0.000000 0.000000 1.556290 
# 
# From -- ./inp_files/19918.got.cif
#   From: 2010.05.17/outbox.cif.g08.bks.cpg/sg71_10_cif.got.tgz:19918.got - 2010.06.03 16:22:01.
