data_PCOD9522406
_publ_section_title
;
Structure prediction by ZEFSAII (Michael W. Deem and Ramdas Pophale) SiO2 
 PCOD9522406
Probable space group: I M M M
;
_chemical_formula_sum "Si O2"
_cell_formula_units_Z 116
_cell_length_a 22.349239
_cell_length_b 14.806699
_cell_length_c 17.475053
_cell_angle_alpha 90.000000
_cell_angle_beta 90.000000
_cell_angle_gamma 90.000000
_cell_volume 5782.817535
_symmetry_space_group_name_H-M "I M M M"
_symmetry_group_IT_number 71
_symmetry_cell_setting 'orthorhombic'
loop_
_space_group_symop_operation_xyz
x,y,z
-x,-y,z
x,-y,-z
-x,y,-z
-x,-y,-z
x,y,-z
-x,y,z
x,-y,z
1/2+x,1/2+y,1/2+z
1/2-x,1/2-y,1/2+z
1/2+x,1/2-y,1/2-z
1/2-x,1/2+y,1/2-z
1/2-x,1/2-y,1/2-z
1/2+x,1/2+y,1/2-z
1/2-x,1/2+y,1/2+z
1/2+x,1/2-y,1/2+z
loop_
_atom_site_type_symbol
_atom_site_label
_atom_site_fract_x
_atom_site_fract_y
_atom_site_fract_z
Si Si1 0.569366 0.362172 0.080537
Si Si2 0.814641 0.732763 0.909358
Si Si3 0.726885 0.104804 0.128310
Si Si4 0.068758 0.274206 0.196131
Si Si5 0.257084 0.604936 0.799233
Si Si6 0.114634 0.900688 0.741728
Si Si7 0.905420 0.660584 0.631116
Si Si8 0.500000 0.000000 0.894197
O O1 0.500000 0.384952 0.077495
O O2 0.594850 0.407657 0.154774
O O3 0.575046 0.255083 0.094244
O O4 0.598583 0.386548 0.000000
O O5 0.781453 0.829935 0.896529
O O6 0.879136 0.718206 0.867733
O O7 0.770986 0.662475 0.866340
O O8 0.819613 0.717686 0.000000
O O9 0.720248 0.106539 0.220848
O O10 0.662115 0.140720 0.103781
O O11 0.736924 0.000000 0.106289
O O12 0.071391 0.167636 0.216200
O O13 0.086403 0.324069 0.276222
O O14 0.000000 0.299668 0.175969
O O15 0.265887 0.500000 0.821195
O O16 0.320215 0.643361 0.769009
O O17 0.119745 0.000000 0.777302
O O18 0.948079 0.579117 0.607807
#
# Coordination Sequence:
#
# PCOD9522406 Si02
#       8
#    16  16  16  16  16  16  16   4
#     4  10  21  36  51  76 120 160 189 233 293 353
#     4  12  25  41  62  90 127 163 203 254 308 367
#     4  11  22  38  64  92 118 159 202 249 299 357
#     4  11  22  39  61  87 121 158 202 254 302 358
#     4  10  21  39  65  90 116 152 197 247 302 359
#     4  10  20  36  62  90 112 148 199 252 298 355
#     4  11  20  36  63  88 120 154 201 247 296 359
#     4  12  20  36  61 104 115 154 206 254 288 358
#
# _framework density 20.059425000000001
#
# number of rings (size 3 to 8) (size 9 to 14) (size 15 to 20)
#    0.000    1.241    4.828    3.310    0.000    4.414 
#    0.000    2.759    0.000    0.000    0.000    3.379 
#    0.000    0.000    0.000    0.000    0.000    0.000 
#
# Total GULP energy -323046.656179 kJ/mol
# GULP energy per Si atom -5569.769934 kJ/mol
# Density = 2.001377 g / cm^3
# Si number density = 20.059425 Si / 1000 Ang^3
#
#
#
# Elastic Constant Matrix: (Units=GPa)
#
#
# Indices 1 2 3 4 5 6 
#
# 1 109.9295 9.1513 4.3768 0.0000 0.0000 0.0000
# 2 9.1513 80.3811 -3.6970 0.0000 0.0000 0.0000
# 3 4.3768 -3.6970 68.2024 0.0000 0.0000 0.0000
# 4 0.0000 0.0000 0.0000 2.7408 0.0000 0.0000
# 5 0.0000 0.0000 0.0000 0.0000 40.9651 0.0000
# 6 0.0000 0.0000 0.0000 0.0000 0.0000 31.0300
#
#
#
# Elastic Compliance Matrix: (Units=1/GPa)
#
#
# Indices 1 2 3 4 5 6 
#
# 1 0.009212 -0.001079 -0.000650 0.000000 0.000000 0.000000
# 2 -0.001079 0.012598 0.000752 0.000000 0.000000 0.000000
# 3 -0.000650 0.000752 0.014745 0.000000 0.000000 0.000000
# 4 0.000000 0.000000 0.000000 0.364857 0.000000 0.000000
# 5 0.000000 0.000000 0.000000 0.000000 0.024411 0.000000
# 6 0.000000 0.000000 0.000000 0.000000 0.000000 0.032227
#
#
# Mechanical properties :
#
#
# Convention : Reuss Voigt Hill
#
# Bulk Modulus (GPa) = 28.89945 30.90836 29.90390
# Shear Modulus (GPa) = 10.60362 31.52596 21.06479
#
# Velocity S-wave (km/s) = 2.30165 3.96868 3.24407
# Velocity P-wave (km/s) = 4.63699 6.03675 5.38257
#
# Compressibility (1/GPa) = 0.03460273
#
# Stress axis : x y z
#
# Youngs Moduli (GPa) = 108.54926 79.37680 67.82102
#
# Poissons Ratio (x) = 0.08562 0.04406
# Poissons Ratio (y) = 0.11709 -0.05101
# Poissons Ratio (z) = 0.07052 -0.05970
#
# Static dielectric constant tensor:
#      x y z
#    x 1.739120 0.000000 0.000000 
#    y 0.000000 1.727750 0.000000 
#    z 0.000000 0.000000 1.813700 
# 
# From -- ./inp_files/48292.got.cif
#   From: 2010.05.17/outbox.cif.g08.bks.cpg/sg71_25_cif.got.tgz:48292.got - 2010.06.03 16:22:01.
