data_PCOD9522928
_publ_section_title
;
Structure prediction by ZEFSAII (Michael W. Deem and Ramdas Pophale) SiO2 
 PCOD9522928
Probable space group: I M M M
;
_chemical_formula_sum "Si O2"
_cell_formula_units_Z 88
_cell_length_a 9.069558
_cell_length_b 19.013086
_cell_length_c 28.310182
_cell_angle_alpha 90.000000
_cell_angle_beta 90.000000
_cell_angle_gamma 90.000000
_cell_volume 4881.815887
_symmetry_space_group_name_H-M "I M M M"
_symmetry_group_IT_number 71
_symmetry_cell_setting 'orthorhombic'
loop_
_space_group_symop_operation_xyz
x,y,z
-x,-y,z
x,-y,-z
-x,y,-z
-x,-y,-z
x,y,-z
-x,y,z
x,-y,z
1/2+x,1/2+y,1/2+z
1/2-x,1/2-y,1/2+z
1/2+x,1/2-y,1/2-z
1/2-x,1/2+y,1/2-z
1/2-x,1/2-y,1/2-z
1/2+x,1/2+y,1/2-z
1/2-x,1/2+y,1/2+z
1/2+x,1/2-y,1/2+z
loop_
_atom_site_type_symbol
_atom_site_label
_atom_site_fract_x
_atom_site_fract_y
_atom_site_fract_z
Si Si1 0.666181 0.082863 0.000000
Si Si2 0.176858 0.814790 0.447295
Si Si3 0.177133 0.579077 0.242749
Si Si4 0.824419 0.167506 0.078060
Si Si5 0.177269 0.312224 0.675973
Si Si6 0.324504 0.648668 0.843038
O O1 0.754849 0.108702 0.954816
O O2 0.500000 0.113489 0.000000
O O3 0.655590 0.000000 0.000000
O O4 0.206833 0.844426 0.500000
O O5 0.261787 0.741319 0.441877
O O6 0.214463 0.855996 0.398842
O O7 0.000000 0.801711 0.444629
O O8 0.220736 0.500000 0.258163
O O9 0.221575 0.641384 0.278854
O O10 0.241999 0.596073 0.191485
O O11 0.000000 0.580905 0.240457
O O12 0.762098 0.159255 0.130539
O O13 0.000000 0.167600 0.076948
O O14 0.208721 0.228424 0.675337
O O15 0.000000 0.319028 0.669728
O O16 0.500000 0.638534 0.838989
#
# Coordination Sequence:
#
# PCOD9522928 Si02
#       6
#     8  16  16  16  16  16
#     4  11  23  37  51  65  93 143 186 213 254 313
#     4   9  17  32  55  78 105 138 171 208 256 316
#     4  10  21  36  54  76 104 140 179 219 267 326
#     4  11  21  32  50  78 106 129 166 220 269 308
#     4   9  19  36  55  75 103 140 181 218 258 318
#     4   9  18  32  53  81 106 135 175 220 268 313
#
# _framework density 18.02608
#
# number of rings (size 3 to 8) (size 9 to 14) (size 15 to 20)
#    0.000    2.273    0.909    3.545    0.000    5.455 
#    0.000    1.818    0.000    0.545    0.000    3.818 
#    0.000    0.000    0.000    0.000    0.000    0.000 
#
# Total GULP energy -245283.472762 kJ/mol
# GULP energy per Si atom -5574.624381 kJ/mol
# Density = 1.798505 g / cm^3
# Si number density = 18.026080 Si / 1000 Ang^3
#
#
#
# Elastic Constant Matrix: (Units=GPa)
#
#
# Indices 1 2 3 4 5 6 
#
# 1 23.1772 11.0750 23.6398 0.0000 0.0000 0.0000
# 2 11.0750 21.0274 18.5111 0.0000 0.0000 0.0000
# 3 23.6398 18.5111 116.7498 0.0000 0.0000 0.0000
# 4 0.0000 0.0000 0.0000 10.7237 0.0000 0.0000
# 5 0.0000 0.0000 0.0000 0.0000 24.6012 0.0000
# 6 0.0000 0.0000 0.0000 0.0000 0.0000 16.7164
#
#
#
# Elastic Compliance Matrix: (Units=1/GPa)
#
#
# Indices 1 2 3 4 5 6 
#
# 1 0.064836 -0.026257 -0.008965 0.000000 0.000000 0.000000
# 2 -0.026257 0.065905 -0.005133 0.000000 0.000000 0.000000
# 3 -0.008965 -0.005133 0.011194 0.000000 0.000000 0.000000
# 4 0.000000 0.000000 0.000000 0.093251 0.000000 0.000000
# 5 0.000000 0.000000 0.000000 0.000000 0.040648 0.000000
# 6 0.000000 0.000000 0.000000 0.000000 0.000000 0.059822
#
#
# Mechanical properties :
#
#
# Convention : Reuss Voigt Hill
#
# Bulk Modulus (GPa) = 16.33286 29.71181 23.02234
# Shear Modulus (GPa) = 11.44753 17.59017 14.51885
#
# Velocity S-wave (km/s) = 2.52276 3.12720 2.84110
# Velocity P-wave (km/s) = 4.19120 5.43669 4.85406
#
# Compressibility (1/GPa) = 0.06122625
#
# Stress axis : x y z
#
# Youngs Moduli (GPa) = 15.42343 15.17337 89.32994
#
# Poissons Ratio (x) = 0.39840 0.80086
# Poissons Ratio (y) = 0.40497 0.45852
# Poissons Ratio (z) = 0.13827 0.07788
#
# Static dielectric constant tensor:
#      x y z
#    x 1.594690 0.000000 0.000000 
#    y 0.000000 1.608650 0.000000 
#    z 0.000000 0.000000 1.700840 
# 
# From -- ./inp_files/11328.got.cif
#   From: 2010.05.17/outbox.cif.g08.bks.cpg/sg71_6_cif.got.tgz:11328.got - 2010.06.03 16:22:01.
