data_PCOD9522042
_publ_section_title
;
Structure prediction by ZEFSAII (Michael W. Deem and Ramdas Pophale) SiO2 
 PCOD9522042
Probable space group: I M M M
;
_chemical_formula_sum "Si O2"
_cell_formula_units_Z 112
_cell_length_a 14.277671
_cell_length_b 25.813752
_cell_length_c 14.868502
_cell_angle_alpha 90.000000
_cell_angle_beta 90.000000
_cell_angle_gamma 90.000000
_cell_volume 5479.938938
_symmetry_space_group_name_H-M "I M M M"
_symmetry_group_IT_number 71
_symmetry_cell_setting 'orthorhombic'
loop_
_space_group_symop_operation_xyz
x,y,z
-x,-y,z
x,-y,-z
-x,y,-z
-x,-y,-z
x,y,-z
-x,y,z
x,-y,z
1/2+x,1/2+y,1/2+z
1/2-x,1/2-y,1/2+z
1/2+x,1/2-y,1/2-z
1/2-x,1/2+y,1/2-z
1/2-x,1/2-y,1/2-z
1/2+x,1/2+y,1/2-z
1/2-x,1/2+y,1/2+z
1/2+x,1/2-y,1/2+z
loop_
_atom_site_type_symbol
_atom_site_label
_atom_site_fract_x
_atom_site_fract_y
_atom_site_fract_z
Si Si1 0.609792 0.296553 0.602601
Si Si2 0.308740 0.437742 0.900271
Si Si3 0.398992 0.939942 0.631328
Si Si4 0.106058 0.667248 0.393083
Si Si5 0.608639 0.943857 0.847463
Si Si6 0.389898 0.646094 0.218179
Si Si7 0.219386 0.231615 0.392613
O O1 0.634890 0.312409 0.500000
O O2 0.500000 0.284165 0.605013
O O3 0.626455 0.340619 0.677226
O O4 0.672739 0.246377 0.623719
O O5 0.307832 0.500000 0.888977
O O6 0.200411 0.418564 0.899562
O O7 0.362887 0.410021 0.819848
O O8 0.348216 0.426181 0.000000
O O9 0.500000 0.916319 0.606141
O O10 0.394494 0.941753 0.739505
O O11 0.401033 0.000000 0.601460
O O12 0.098741 0.672831 0.500000
O O13 0.150170 0.610797 0.376628
O O14 0.165184 0.716137 0.362324
O O15 0.000000 0.668293 0.354746
O O16 0.500000 0.943537 0.879940
O O17 0.649256 0.000000 0.874013
O O18 0.500000 0.656015 0.200202
O O19 0.324972 0.684895 0.161387
O O20 0.206324 0.223607 0.500000
#
# Coordination Sequence:
#
# PCOD9522042 Si02
#       7
#    16  16  16  16  16  16  16
#     4   9  20  40  63  87 116 148 186 234 286 342
#     4  10  22  38  57  85 118 152 194 244 295 347
#     4   8  15  30  51  74 104 145 189 230 276 334
#     4   9  17  27  42  71 109 146 184 226 273 328
#     4   8  14  25  42  66  98 140 186 228 273 325
#     4  11  23  39  62  88 115 153 194 235 290 348
#     4  10  20  35  57  85 116 150 189 233 281 337
#
# _framework density 20.438185000000001
#
# number of rings (size 3 to 8) (size 9 to 14) (size 15 to 20)
#    0.000    2.714    0.000    2.143    2.000    2.571 
#    0.000    4.286    0.000    2.143    0.000    2.000 
#    0.000    0.000    0.000    0.000    0.000    0.286 
#
# Total GULP energy -312166.718407 kJ/mol
# GULP energy per Si atom -5574.405686 kJ/mol
# Density = 2.039167 g / cm^3
# Si number density = 20.438185 Si / 1000 Ang^3
#
#
#
# Elastic Constant Matrix: (Units=GPa)
#
#
# Indices 1 2 3 4 5 6 
#
# 1 63.8083 19.7125 43.2455 0.0000 0.0000 0.0000
# 2 19.7125 71.6985 23.9544 -0.0001 0.0000 0.0000
# 3 43.2455 23.9544 82.9853 -0.0001 0.0000 0.0000
# 4 0.0000 -0.0001 -0.0001 38.1700 0.0001 0.0000
# 5 0.0000 0.0000 0.0000 0.0001 18.3169 0.0000
# 6 0.0000 0.0000 0.0000 0.0000 0.0000 21.3008
#
#
#
# Elastic Compliance Matrix: (Units=1/GPa)
#
#
# Indices 1 2 3 4 5 6 
#
# 1 0.024713 -0.002758 -0.012082 0.000000 0.000000 0.000000
# 2 -0.002758 0.015744 -0.003107 0.000000 0.000000 0.000000
# 3 -0.012082 -0.003107 0.019244 0.000000 0.000000 0.000000
# 4 0.000000 0.000000 0.000000 0.026199 0.000000 0.000000
# 5 0.000000 0.000000 0.000000 0.000000 0.054594 0.000000
# 6 0.000000 0.000000 0.000000 0.000000 0.000000 0.046946
#
#
# Mechanical properties :
#
#
# Convention : Reuss Voigt Hill
#
# Bulk Modulus (GPa) = 42.00781 43.59077 42.79929
# Shear Modulus (GPa) = 21.61984 24.32952 22.97468
#
# Velocity S-wave (km/s) = 3.25594 3.45395 3.35641
# Velocity P-wave (km/s) = 5.89347 6.10580 6.00058
#
# Compressibility (1/GPa) = 0.02380510
#
# Stress axis : x y z
#
# Youngs Moduli (GPa) = 40.46535 63.51751 51.96526
#
# Poissons Ratio (x) = 0.17516 0.62785
# Poissons Ratio (y) = 0.11159 0.16148
# Poissons Ratio (z) = 0.48891 0.19738
#
# Static dielectric constant tensor:
#      x y z
#    x 1.770030 0.000000 0.000000 
#    y 0.000000 1.726120 0.000000 
#    z 0.000000 0.000000 1.753790 
# 
# From -- ./inp_files/34910.got.cif
#   From: 2010.05.17/outbox.cif.g08.bks.cpg/sg71_18_cif.got.tgz:34910.got - 2010.06.03 16:22:01.
