data_PCOD9522742
_publ_section_title
;
Structure prediction by ZEFSAII (Michael W. Deem and Ramdas Pophale) SiO2 
 PCOD9522742
Probable space group: I M M M
;
_chemical_formula_sum "Si O2"
_cell_formula_units_Z 88
_cell_length_a 7.565001
_cell_length_b 19.734768
_cell_length_c 25.128916
_cell_angle_alpha 90.000000
_cell_angle_beta 90.000000
_cell_angle_gamma 90.000000
_cell_volume 3751.584817
_symmetry_space_group_name_H-M "I M M M"
_symmetry_group_IT_number 71
_symmetry_cell_setting 'orthorhombic'
loop_
_space_group_symop_operation_xyz
x,y,z
-x,-y,z
x,-y,-z
-x,y,-z
-x,-y,-z
x,y,-z
-x,y,z
x,-y,z
1/2+x,1/2+y,1/2+z
1/2-x,1/2-y,1/2+z
1/2+x,1/2-y,1/2-z
1/2-x,1/2+y,1/2-z
1/2-x,1/2-y,1/2-z
1/2+x,1/2+y,1/2-z
1/2-x,1/2+y,1/2+z
1/2+x,1/2-y,1/2+z
loop_
_atom_site_type_symbol
_atom_site_label
_atom_site_fract_x
_atom_site_fract_y
_atom_site_fract_z
Si Si1 0.288746 0.212412 0.663955
Si Si2 0.710328 0.640714 0.328054
Si Si3 0.797124 0.500000 0.935128
Si Si4 0.716887 0.147373 0.560306
Si Si5 0.212634 0.421669 0.441103
Si Si6 0.287828 0.573195 0.224634
O O1 0.500000 0.218948 0.662600
O O2 0.217806 0.283958 0.684743
O O3 0.226786 0.201597 0.603336
O O4 0.253592 0.142425 0.693941
O O5 0.500000 0.642456 0.319780
O O6 0.737254 0.620729 0.389252
O O7 0.776746 0.586565 0.285102
O O8 0.718680 0.572694 0.921288
O O9 0.000000 0.500000 0.916551
O O10 0.801277 0.500000 0.000000
O O11 0.773105 0.160129 0.500000
O O12 0.500000 0.144245 0.559804
O O13 0.273564 0.397926 0.500000
O O14 0.272181 0.500000 0.434560
O O15 0.000000 0.422542 0.442471
O O16 0.500000 0.568701 0.223938
O O17 0.220549 0.500000 0.204487
#
# Coordination Sequence:
#
# PCOD9522742 Si02
#       6
#    16  16   8  16  16  16
#     4  10  21  34  54  84 110 136 179 233 278 325
#     4  10  21  37  56  81 113 148 184 224 278 338
#     4   7  10  18  34  56  85 123 157 187 236 295
#     4   8  14  25  42  68 102 133 161 202 259 314
#     4   9  19  36  58  86 118 150 187 230 273 320
#     4  10  22  39  56  74 103 145 187 229 282 341
#
# _framework density 23.456754
#
# number of rings (size 3 to 8) (size 9 to 14) (size 15 to 20)
#    0.000    2.818    0.000    2.727    1.273    4.000 
#    0.000    2.727    0.000    0.545    0.000    1.273 
#    0.000    0.000    0.000    0.000    0.000    0.000 
#
# Total GULP energy -245511.340381 kJ/mol
# GULP energy per Si atom -5579.803190 kJ/mol
# Density = 2.340337 g / cm^3
# Si number density = 23.456754 Si / 1000 Ang^3
#
#
#
# Elastic Constant Matrix: (Units=GPa)
#
#
# Indices 1 2 3 4 5 6 
#
# 1 51.6329 3.7211 -8.3222 0.0000 0.0000 0.0000
# 2 3.7211 117.2859 39.5157 0.0000 0.0000 0.0000
# 3 -8.3222 39.5157 88.9705 0.0000 0.0000 0.0000
# 4 0.0000 0.0000 0.0000 31.6470 0.0000 0.0000
# 5 0.0000 0.0000 0.0000 0.0000 -91.9308 0.0000
# 6 0.0000 0.0000 0.0000 0.0000 0.0000 -23.0061
#
#
#
# Elastic Compliance Matrix: (Units=1/GPa)
#
#
# Indices 1 2 3 4 5 6 
#
# 1 0.019880 -0.001478 0.002516 0.000000 0.000000 0.000000
# 2 -0.001478 0.010137 -0.004640 0.000000 0.000000 0.000000
# 3 0.002516 -0.004640 0.013536 0.000000 0.000000 0.000000
# 4 0.000000 0.000000 0.000000 0.031599 0.000000 0.000000
# 5 0.000000 0.000000 0.000000 0.000000 -0.010878 0.000000
# 6 0.000000 0.000000 0.000000 0.000000 0.000000 -0.043467
#
#
# Mechanical properties :
#
#
# Convention : Reuss Voigt Hill
#
# Bulk Modulus (GPa) = 27.51271 36.41316 31.96293
# Shear Modulus (GPa) = 124.60369 -1.79300 61.40534
#
# Velocity S-wave (km/s) = 7.29629 -0.87524 5.12201
# Velocity P-wave (km/s) = 9.09592 3.81259 6.97394
#
# Compressibility (1/GPa) = 0.03634683
#
# Stress axis : x y z
#
# Youngs Moduli (GPa) = 50.30284 98.65338 73.87690
#
# Poissons Ratio (x) = 0.14585 -0.18589
# Poissons Ratio (y) = 0.07437 0.34282
# Poissons Ratio (z) = -0.12657 0.45779
#
# Static dielectric constant tensor:
#      x y z
#    x 1.881040 0.000000 0.000000 
#    y 0.000000 1.956950 0.000000 
#    z 0.000000 0.000000 1.905150 
# 
# From -- ./inp_files/57548.got.cif
#   From: 2010.05.17/outbox.cif.g08.bks.cpg/sg71_29_cif.got.tgz:57548.got - 2010.06.03 16:22:01.
