data_PCOD9522898
_publ_section_title
;
Structure prediction by ZEFSAII (Michael W. Deem and Ramdas Pophale) SiO2 
 PCOD9522898
Probable space group: I M M M
;
_chemical_formula_sum "Si O2"
_cell_formula_units_Z 80
_cell_length_a 21.070236
_cell_length_b 25.542650
_cell_length_c 8.705742
_cell_angle_alpha 90.000000
_cell_angle_beta 90.000000
_cell_angle_gamma 90.000000
_cell_volume 4685.340358
_symmetry_space_group_name_H-M "I M M M"
_symmetry_group_IT_number 71
_symmetry_cell_setting 'orthorhombic'
loop_
_space_group_symop_operation_xyz
x,y,z
-x,-y,z
x,-y,-z
-x,y,-z
-x,-y,-z
x,y,-z
-x,y,z
x,-y,z
1/2+x,1/2+y,1/2+z
1/2-x,1/2-y,1/2+z
1/2+x,1/2-y,1/2-z
1/2-x,1/2+y,1/2-z
1/2-x,1/2-y,1/2-z
1/2+x,1/2+y,1/2-z
1/2-x,1/2+y,1/2+z
1/2+x,1/2-y,1/2+z
loop_
_atom_site_type_symbol
_atom_site_label
_atom_site_fract_x
_atom_site_fract_y
_atom_site_fract_z
Si Si1 0.307502 0.284724 0.682867
Si Si2 0.601497 0.000000 0.822947
Si Si3 0.114471 0.387457 0.686367
Si Si4 0.743225 0.610536 0.816969
Si Si5 0.929297 0.272597 0.684828
Si Si6 0.756332 0.000000 0.177896
O O1 0.302344 0.285303 0.500000
O O2 0.250000 0.250000 0.750000
O O3 0.298669 0.342980 0.748182
O O4 0.373321 0.258961 0.735024
O O5 0.584827 0.057223 0.757862
O O6 0.678825 0.000000 0.819864
O O7 0.579670 0.000000 0.000000
O O8 0.119966 0.391352 0.500000
O O9 0.185030 0.381855 0.754208
O O10 0.077701 0.334367 0.721738
O O11 0.722776 0.553107 0.760194
O O12 0.743707 0.613142 0.000000
O O13 0.921806 0.267963 0.500000
O O14 0.000000 0.254801 0.726530
O O15 0.775165 0.000000 0.000000
#
# Coordination Sequence:
#
# PCOD9522898 Si02
#       6
#    16   8  16  16  16   8
#     4  12  23  36  55  79 106 140 183 230 277 326
#     4   7  12  23  42  67  93 131 175 214 254 299
#     4   9  16  29  48  69 101 141 180 221 267 316
#     4  11  20  31  51  80 109 139 175 220 270 322
#     4  10  21  36  53  75 106 144 184 227 275 328
#     4   9  17  31  49  74 109 142 172 213 263 318
#
# _framework density 17.074532999999999
#
# number of rings (size 3 to 8) (size 9 to 14) (size 15 to 20)
#    0.000    2.000    2.000    5.100    0.000    0.400 
#    0.000    0.500    0.000    3.000    0.000    0.700 
#    0.000   12.000    0.000    0.000    0.000    0.000 
#
# Total GULP energy -223184.239635 kJ/mol
# GULP energy per Si atom -5579.605991 kJ/mol
# Density = 1.703567 g / cm^3
# Si number density = 17.074533 Si / 1000 Ang^3
#
#
#
# Elastic Constant Matrix: (Units=GPa)
#
#
# Indices 1 2 3 4 5 6 
#
# 1 80.8234 57.6884 39.0672 0.0000 0.0000 0.0000
# 2 57.6884 136.6314 50.1605 0.0000 0.0000 0.0000
# 3 39.0672 50.1605 75.4255 0.0000 0.0000 0.0000
# 4 0.0000 0.0000 0.0000 26.2120 0.0000 0.0000
# 5 0.0000 0.0000 0.0000 0.0000 14.2495 0.0000
# 6 0.0000 0.0000 0.0000 0.0000 0.0000 9.8641
#
#
#
# Elastic Compliance Matrix: (Units=1/GPa)
#
#
# Indices 1 2 3 4 5 6 
#
# 1 0.019664 -0.006037 -0.006170 0.000000 0.000000 0.000000
# 2 -0.006037 0.011537 -0.004545 0.000000 0.000000 0.000000
# 3 -0.006170 -0.004545 0.019477 0.000000 0.000000 0.000000
# 4 0.000000 0.000000 0.000000 0.038150 0.000000 0.000000
# 5 0.000000 0.000000 0.000000 0.000000 0.070178 0.000000
# 6 0.000000 0.000000 0.000000 0.000000 0.000000 0.101378
#
#
# Mechanical properties :
#
#
# Convention : Reuss Voigt Hill
#
# Bulk Modulus (GPa) = 58.23377 65.19029 61.71203
# Shear Modulus (GPa) = 16.68814 19.79606 18.24210
#
# Velocity S-wave (km/s) = 3.12968 3.40868 3.27216
# Velocity P-wave (km/s) = 6.87310 7.33177 7.10614
#
# Compressibility (1/GPa) = 0.01717217
#
# Stress axis : x y z
#
# Youngs Moduli (GPa) = 50.85331 86.67967 51.34334
#
# Poissons Ratio (x) = 0.52333 0.31680
# Poissons Ratio (y) = 0.30703 0.23336
# Poissons Ratio (z) = 0.31378 0.39397
#
# Static dielectric constant tensor:
#      x y z
#    x 1.561160 0.000000 0.000000 
#    y 0.000000 1.610610 0.000000 
#    z 0.000000 0.000000 1.571580 
# 
# From -- ./inp_files/10215.got.cif
#   From: 2010.05.17/outbox.cif.g08.bks.cpg/sg71_6_cif.got.tgz:10215.got - 2010.06.03 16:22:01.
