data_PCOD9522381
_publ_section_title
;
Structure prediction by ZEFSAII (Michael W. Deem and Ramdas Pophale) SiO2 
 PCOD9522381
Probable space group: I M M M
;
_chemical_formula_sum "Si O2"
_cell_formula_units_Z 72
_cell_length_a 24.287948
_cell_length_b 8.543793
_cell_length_c 18.130110
_cell_angle_alpha 90.000000
_cell_angle_beta 90.000000
_cell_angle_gamma 90.000000
_cell_volume 3762.200884
_symmetry_space_group_name_H-M "I M M M"
_symmetry_group_IT_number 71
_symmetry_cell_setting 'orthorhombic'
loop_
_space_group_symop_operation_xyz
x,y,z
-x,-y,z
x,-y,-z
-x,y,-z
-x,-y,-z
x,y,-z
-x,y,z
x,-y,z
1/2+x,1/2+y,1/2+z
1/2-x,1/2-y,1/2+z
1/2+x,1/2-y,1/2-z
1/2-x,1/2+y,1/2-z
1/2-x,1/2-y,1/2-z
1/2+x,1/2+y,1/2-z
1/2-x,1/2+y,1/2+z
1/2+x,1/2-y,1/2+z
loop_
_atom_site_type_symbol
_atom_site_label
_atom_site_fract_x
_atom_site_fract_y
_atom_site_fract_z
Si Si1 0.630559 0.810319 0.643471
Si Si2 0.750335 0.813905 0.833353
Si Si3 0.436296 0.810841 0.790131
Si Si4 0.357648 0.312291 0.085075
Si Si5 0.562283 0.190645 0.500000
O O1 0.690715 0.737781 0.635708
O O2 0.600229 0.762337 0.719296
O O3 0.593784 0.763589 0.573903
O O4 0.635606 0.000000 0.644729
O O5 0.750000 0.750000 0.750000
O O6 0.699598 0.745108 0.879358
O O7 0.744981 0.000000 0.831684
O O8 0.500000 0.760294 0.783786
O O9 0.406677 0.750262 0.863492
O O10 0.435929 0.000000 0.791036
O O11 0.358366 0.500000 0.086609
O O12 0.362262 0.260309 0.000000
O O13 0.500000 0.247838 0.500000
O O14 0.560788 0.000000 0.500000
#
# Coordination Sequence:
#
# PCOD9522381 Si02
#       5
#    16  16  16  16   8
#     4  10  20  36  60  91 124 162 205 249 298 358
#     4  12  24  40  63  90 121 157 200 250 308 366
#     4  10  21  38  62  90 121 161 207 252 304 368
#     4  11  25  43  63  89 122 162 208 255 307 365
#     4   9  18  34  59  91 127 165 204 245 290 349
#
# _framework density 19.137733999999998
#
# number of rings (size 3 to 8) (size 9 to 14) (size 15 to 20)
#    0.000    1.444    2.222    3.333    1.556    5.333 
#    0.000    2.222    0.000    2.667    0.000    0.000 
#    0.000    0.000    0.000    0.000    0.000    0.000 
#
# Total GULP energy -201232.373582 kJ/mol
# GULP energy per Si atom -5589.788155 kJ/mol
# Density = 1.909418 g / cm^3
# Si number density = 19.137734 Si / 1000 Ang^3
#
#
#
# Elastic Constant Matrix: (Units=GPa)
#
#
# Indices 1 2 3 4 5 6 
#
# 1 107.8933 11.7645 23.4601 0.0000 0.0000 0.0000
# 2 11.7645 26.8109 13.7567 0.0000 0.0000 0.0000
# 3 23.4601 13.7567 113.3822 0.0000 0.0000 0.0000
# 4 0.0000 0.0000 0.0000 23.7573 0.0000 0.0000
# 5 0.0000 0.0000 0.0000 0.0000 31.5740 0.0000
# 6 0.0000 0.0000 0.0000 0.0000 0.0000 31.0479
#
#
#
# Elastic Compliance Matrix: (Units=1/GPa)
#
#
# Indices 1 2 3 4 5 6 
#
# 1 0.010012 -0.003552 -0.001641 0.000000 0.000000 0.000000
# 2 -0.003552 0.041034 -0.004244 0.000000 0.000000 0.000000
# 3 -0.001641 -0.004244 0.009674 0.000000 0.000000 0.000000
# 4 0.000000 0.000000 0.000000 0.042092 0.000000 0.000000
# 5 0.000000 0.000000 0.000000 0.000000 0.031672 0.000000
# 6 0.000000 0.000000 0.000000 0.000000 0.000000 0.032208
#
#
# Mechanical properties :
#
#
# Convention : Reuss Voigt Hill
#
# Bulk Modulus (GPa) = 23.89572 38.44987 31.17280
# Shear Modulus (GPa) = 25.06078 30.54950 27.80514
#
# Velocity S-wave (km/s) = 3.62262 3.99970 3.81582
# Velocity P-wave (km/s) = 5.47824 6.43933 5.97813
#
# Compressibility (1/GPa) = 0.04184850
#
# Stress axis : x y z
#
# Youngs Moduli (GPa) = 99.87578 24.36990 103.36851
#
# Poissons Ratio (x) = 0.08655 0.16961
# Poissons Ratio (y) = 0.35471 0.43868
# Poissons Ratio (z) = 0.16387 0.10342
#
# Static dielectric constant tensor:
#      x y z
#    x 1.660430 0.000000 0.000000 
#    y 0.000000 1.655440 0.000000 
#    z 0.000000 0.000000 1.654820 
# 
# From -- ./inp_files/12192.got.cif
#   From: 2010.05.17/outbox.cif.g08.bks.cpg/sg71_7_cif.got.tgz:12192.got - 2010.06.03 16:22:01.
