data_PCOD9522490
_publ_section_title
;
Structure prediction by ZEFSAII (Michael W. Deem and Ramdas Pophale) SiO2 
 PCOD9522490
Probable space group: I M M M
;
_chemical_formula_sum "Si O2"
_cell_formula_units_Z 56
_cell_length_a 7.516920
_cell_length_b 14.707018
_cell_length_c 26.772087
_cell_angle_alpha 90.000000
_cell_angle_beta 90.000000
_cell_angle_gamma 90.000000
_cell_volume 2959.693780
_symmetry_space_group_name_H-M "I M M M"
_symmetry_group_IT_number 71
_symmetry_cell_setting 'orthorhombic'
loop_
_space_group_symop_operation_xyz
x,y,z
-x,-y,z
x,-y,-z
-x,y,-z
-x,-y,-z
x,y,-z
-x,y,z
x,-y,z
1/2+x,1/2+y,1/2+z
1/2-x,1/2-y,1/2+z
1/2+x,1/2-y,1/2-z
1/2-x,1/2+y,1/2-z
1/2-x,1/2-y,1/2-z
1/2+x,1/2+y,1/2-z
1/2-x,1/2+y,1/2+z
1/2+x,1/2-y,1/2+z
loop_
_atom_site_type_symbol
_atom_site_label
_atom_site_fract_x
_atom_site_fract_y
_atom_site_fract_z
Si Si1 0.716819 0.902632 0.662013
Si Si2 0.210759 0.351351 0.731023
Si Si3 0.704151 0.703697 0.623934
Si Si4 0.000000 0.607646 0.440519
O O1 0.500000 0.898702 0.662752
O O2 0.774310 0.904523 0.720141
O O3 0.770302 0.806797 0.637158
O O4 0.768668 0.000000 0.638791
O O5 0.250000 0.250000 0.750000
O O6 0.289835 0.353891 0.675805
O O7 0.000000 0.367159 0.725379
O O8 0.500000 0.709657 0.607388
O O9 0.830109 0.655479 0.584532
O O10 0.000000 0.500000 0.429236
O O11 0.000000 0.618958 0.500000
#
# Coordination Sequence:
#
# PCOD9522490 Si02
#       4
#    16  16  16   8
#     4   8  15  28  51  85 122 160 192 219 264 333
#     4   9  15  26  47  79 118 160 195 227 263 320
#     4  10  20  37  61  84 114 152 191 238 290 347
#     4  11  26  46  65  83 105 139 190 254 312 355
#
# _framework density 18.920874999999999
#
# number of rings (size 3 to 8) (size 9 to 14) (size 15 to 20)
#    0.000    2.714    1.429    2.571    0.000    2.286 
#    0.000    2.143    0.000    1.714    0.000    4.000 
#    0.000    0.000    0.000    0.000    0.000    0.000 
#
# Total GULP energy -155917.376115 kJ/mol
# GULP energy per Si atom -5568.477718 kJ/mol
# Density = 1.887781 g / cm^3
# Si number density = 18.920875 Si / 1000 Ang^3
#
#
#
# Elastic Constant Matrix: (Units=GPa)
#
#
# Indices 1 2 3 4 5 6 
#
# 1 90.1341 40.9894 39.1984 0.0000 0.0000 0.0000
# 2 40.9894 148.8344 66.7878 0.0000 0.0000 0.0000
# 3 39.1984 66.7878 88.9119 0.0000 0.0000 0.0000
# 4 0.0000 0.0000 0.0000 23.3128 0.0000 0.0000
# 5 0.0000 0.0000 0.0000 0.0000 15.2131 0.0000
# 6 0.0000 0.0000 0.0000 0.0000 0.0000 9.8870
#
#
#
# Elastic Compliance Matrix: (Units=1/GPa)
#
#
# Indices 1 2 3 4 5 6 
#
# 1 0.013986 -0.001636 -0.004937 0.000000 0.000000 0.000000
# 2 -0.001636 0.010327 -0.007036 0.000000 0.000000 0.000000
# 3 -0.004937 -0.007036 0.018708 0.000000 0.000000 0.000000
# 4 0.000000 0.000000 0.000000 0.042895 0.000000 0.000000
# 5 0.000000 0.000000 0.000000 0.000000 0.065733 0.000000
# 6 0.000000 0.000000 0.000000 0.000000 0.000000 0.101143
#
#
# Mechanical properties :
#
#
# Convention : Reuss Voigt Hill
#
# Bulk Modulus (GPa) = 63.27737 69.09241 66.18489
# Shear Modulus (GPa) = 17.52684 21.74291 19.63487
#
# Velocity S-wave (km/s) = 3.04686 3.39359 3.22489
# Velocity P-wave (km/s) = 6.77448 7.20771 6.99445
#
# Compressibility (1/GPa) = 0.01580344
#
# Stress axis : x y z
#
# Youngs Moduli (GPa) = 71.50193 96.83610 53.45189
#
# Poissons Ratio (x) = 0.15847 0.26387
# Poissons Ratio (y) = 0.11701 0.37607
# Poissons Ratio (z) = 0.35297 0.68130
#
# Static dielectric constant tensor:
#      x y z
#    x 1.622300 0.000000 0.000000 
#    y 0.000000 1.708440 0.000000 
#    z 0.000000 0.000000 1.625330 
# 
# From -- ./inp_files/5753.got.cif
#   From: 2010.05.17/outbox.cif.g08.bks.cpg/sg71_3_cif.got.tgz:5753.got - 2010.06.03 16:22:01.
