data_PCOD9522961
_publ_section_title
;
Structure prediction by ZEFSAII (Michael W. Deem and Ramdas Pophale) SiO2 
 PCOD9522961
Probable space group: I M M M
;
_chemical_formula_sum "Si O2"
_cell_formula_units_Z 100
_cell_length_a 20.623647
_cell_length_b 29.428616
_cell_length_c 7.848568
_cell_angle_alpha 90.000000
_cell_angle_beta 90.000000
_cell_angle_gamma 90.000000
_cell_volume 4763.495179
_symmetry_space_group_name_H-M "I M M M"
_symmetry_group_IT_number 71
_symmetry_cell_setting 'orthorhombic'
loop_
_space_group_symop_operation_xyz
x,y,z
-x,-y,z
x,-y,-z
-x,y,-z
-x,-y,-z
x,y,-z
-x,y,z
x,-y,z
1/2+x,1/2+y,1/2+z
1/2-x,1/2-y,1/2+z
1/2+x,1/2-y,1/2-z
1/2-x,1/2+y,1/2-z
1/2-x,1/2-y,1/2-z
1/2+x,1/2+y,1/2-z
1/2-x,1/2+y,1/2+z
1/2+x,1/2-y,1/2+z
loop_
_atom_site_type_symbol
_atom_site_label
_atom_site_fract_x
_atom_site_fract_y
_atom_site_fract_z
Si Si1 0.071330 0.214783 0.794024
Si Si2 0.186769 0.278691 0.796145
Si Si3 0.927766 0.890273 0.702005
Si Si4 0.895935 0.644051 0.308434
Si Si5 0.804552 0.948442 0.800268
Si Si6 0.838641 0.447751 0.802186
Si Si7 0.000000 0.658681 0.000000
O O1 0.126838 0.247858 0.734219
O O2 0.081057 0.163091 0.738294
O O3 0.000000 0.229694 0.737331
O O4 0.071886 0.215794 0.000000
O O5 0.250000 0.250000 0.750000
O O6 0.171277 0.327725 0.717744
O O7 0.185650 0.283259 0.000000
O O8 0.928543 0.897300 0.500000
O O9 0.866971 0.917477 0.772692
O O10 0.000000 0.902821 0.769222
O O11 0.920017 0.653248 0.500000
O O12 0.879694 0.590618 0.291105
O O13 0.943367 0.657595 0.152701
O O14 0.737753 0.935600 0.708719
O O15 0.820939 0.000000 0.746873
O O16 0.788897 0.948399 0.000000
O O17 0.845049 0.500000 0.739342
O O18 0.858354 0.447101 0.000000
#
# Coordination Sequence:
#
# PCOD9522961 Si02
#       7
#    16  16  16  16  16  16   4
#     4   9  20  38  62  85 116 165 212 263 324 386
#     4  11  24  42  66  98 139 179 228 284 340 400
#     4  10  21  36  54  81 119 161 211 268 326 393
#     4  12  26  46  75 106 141 185 230 283 346 411
#     4  10  21  36  58  87 119 162 215 268 329 400
#     4  10  21  42  70  99 135 177 222 279 344 408
#     4  12  26  52  73 108 148 182 232 286 343 420
#
# _framework density 20.992989999999999
#
# number of rings (size 3 to 8) (size 9 to 14) (size 15 to 20)
#    0.000    1.600    1.600    2.160    3.360    4.480 
#    0.000    2.400    0.000    0.960    0.000    0.000 
#    0.000    0.000    0.000    0.000    0.000    0.000 
#
# Total GULP energy -278758.941223 kJ/mol
# GULP energy per Si atom -5575.178824 kJ/mol
# Density = 2.094521 g / cm^3
# Si number density = 20.992990 Si / 1000 Ang^3
#
#
#
# Elastic Constant Matrix: (Units=GPa)
#
#
# Indices 1 2 3 4 5 6 
#
# 1 67.0701 39.6564 28.2936 0.0000 0.0000 0.0000
# 2 39.6564 57.1632 27.9457 0.0000 0.0000 0.0000
# 3 28.2936 27.9457 99.4835 0.0000 0.0000 0.0000
# 4 0.0000 0.0000 0.0000 7.9785 0.0000 0.0000
# 5 0.0000 0.0000 0.0000 0.0000 28.0132 0.0000
# 6 0.0000 0.0000 0.0000 0.0000 0.0000 19.6878
#
#
#
# Elastic Compliance Matrix: (Units=1/GPa)
#
#
# Indices 1 2 3 4 5 6 
#
# 1 0.025884 -0.016643 -0.002686 0.000000 0.000000 0.000000
# 2 -0.016643 0.030980 -0.003969 0.000000 0.000000 0.000000
# 3 -0.002686 -0.003969 0.011931 0.000000 0.000000 0.000000
# 4 0.000000 0.000000 0.000000 0.125336 0.000000 0.000000
# 5 0.000000 0.000000 0.000000 0.000000 0.035698 0.000000
# 6 0.000000 0.000000 0.000000 0.000000 0.000000 0.050793
#
#
# Mechanical properties :
#
#
# Convention : Reuss Voigt Hill
#
# Bulk Modulus (GPa) = 45.05023 46.16761 45.60892
# Shear Modulus (GPa) = 14.94241 19.65729 17.29985
#
# Velocity S-wave (km/s) = 2.67082 3.06334 2.87379
# Velocity P-wave (km/s) = 5.56931 5.87807 5.72578
#
# Compressibility (1/GPa) = 0.02219745
#
# Stress axis : x y z
#
# Youngs Moduli (GPa) = 38.63451 32.27856 83.81618
#
# Poissons Ratio (x) = 0.53722 0.22515
# Poissons Ratio (y) = 0.64300 0.33268
# Poissons Ratio (z) = 0.10378 0.12812
#
# Static dielectric constant tensor:
#      x y z
#    x 1.702450 0.000000 0.000000 
#    y 0.000000 1.765700 0.000000 
#    z 0.000000 0.000000 1.756930 
# 
# From -- ./inp_files/11075.got.cif
#   From: 2010.05.17/outbox.cif.g08.bks.cpg/sg71_6_cif.got.tgz:11075.got - 2010.06.03 16:22:01.
