data_PCOD9522790
_publ_section_title
;
Structure prediction by ZEFSAII (Michael W. Deem and Ramdas Pophale) SiO2 
 PCOD9522790
Probable space group: I M M M
;
_chemical_formula_sum "Si O2"
_cell_formula_units_Z 96
_cell_length_a 27.542928
_cell_length_b 19.467396
_cell_length_c 9.293234
_cell_angle_alpha 90.000000
_cell_angle_beta 90.000000
_cell_angle_gamma 90.000000
_cell_volume 4982.930648
_symmetry_space_group_name_H-M "I M M M"
_symmetry_group_IT_number 71
_symmetry_cell_setting 'orthorhombic'
loop_
_space_group_symop_operation_xyz
x,y,z
-x,-y,z
x,-y,-z
-x,y,-z
-x,-y,-z
x,y,-z
-x,y,z
x,-y,z
1/2+x,1/2+y,1/2+z
1/2-x,1/2-y,1/2+z
1/2+x,1/2-y,1/2-z
1/2-x,1/2+y,1/2-z
1/2-x,1/2-y,1/2-z
1/2+x,1/2+y,1/2-z
1/2-x,1/2+y,1/2+z
1/2+x,1/2-y,1/2+z
loop_
_atom_site_type_symbol
_atom_site_label
_atom_site_fract_x
_atom_site_fract_y
_atom_site_fract_z
Si Si1 0.152016 0.077223 0.825194
Si Si2 0.943740 0.152733 0.172929
Si Si3 0.918307 0.576935 0.834937
Si Si4 0.261992 0.678875 0.671155
Si Si5 0.801543 0.421406 0.838521
Si Si6 0.057710 0.711316 0.660173
O O1 0.096747 0.096919 0.786098
O O2 0.189290 0.137486 0.780830
O O3 0.164436 0.000000 0.774757
O O4 0.154472 0.075985 0.000000
O O5 0.926805 0.224792 0.241654
O O6 0.000000 0.137660 0.214319
O O7 0.943208 0.159387 0.000000
O O8 0.933827 0.500000 0.790869
O O9 0.859791 0.578052 0.836287
O O10 0.934059 0.638385 0.734097
O O11 0.934747 0.588091 0.000000
O O12 0.264626 0.689680 0.500000
O O13 0.250000 0.750000 0.750000
O O14 0.219488 0.626831 0.716746
O O15 0.785347 0.500000 0.818790
O O16 0.786554 0.398509 0.000000
O O17 0.079209 0.714183 0.500000
O O18 0.000000 0.719532 0.648605
#
# Coordination Sequence:
#
# PCOD9522790 Si02
#       6
#    16  16  16  16  16  16
#     4   9  19  36  58  85 115 145 180 229 284 331
#     4   9  18  34  58  85 110 142 184 227 276 337
#     4   9  19  35  55  78 104 139 184 232 281 334
#     4  11  23  37  55  82 115 151 190 231 276 331
#     4   9  19  37  58  79 107 142 181 229 281 331
#     4  10  21  35  51  75 110 147 182 227 279 332
#
# _framework density 19.265771000000001
#
# number of rings (size 3 to 8) (size 9 to 14) (size 15 to 20)
#    0.000    2.500    0.000    2.500    2.333    3.667 
#    0.000    5.833    0.000    2.500    0.000    2.333 
#    0.000    0.000    0.000    0.000    0.000    0.000 
#
# Total GULP energy -267568.488992 kJ/mol
# GULP energy per Si atom -5574.343521 kJ/mol
# Density = 1.922192 g / cm^3
# Si number density = 19.265771 Si / 1000 Ang^3
#
#
#
# Elastic Constant Matrix: (Units=GPa)
#
#
# Indices 1 2 3 4 5 6 
#
# 1 52.6824 46.4836 23.8823 0.0000 0.0000 0.0000
# 2 46.4836 116.1678 39.1653 0.0000 0.0000 0.0000
# 3 23.8823 39.1653 41.8413 0.0000 0.0000 0.0000
# 4 0.0000 0.0000 0.0000 21.2642 0.0000 0.0000
# 5 0.0000 0.0000 0.0000 0.0000 21.5878 0.0000
# 6 0.0000 0.0000 0.0000 0.0000 0.0000 31.1162
#
#
#
# Elastic Compliance Matrix: (Units=1/GPa)
#
#
# Indices 1 2 3 4 5 6 
#
# 1 0.031518 -0.009565 -0.009037 0.000000 0.000000 0.000000
# 2 -0.009565 0.015480 -0.009031 0.000000 0.000000 0.000000
# 3 -0.009037 -0.009031 0.037511 0.000000 0.000000 0.000000
# 4 0.000000 0.000000 0.000000 0.047028 0.000000 0.000000
# 5 0.000000 0.000000 0.000000 0.000000 0.046322 0.000000
# 6 0.000000 0.000000 0.000000 0.000000 0.000000 0.032138
#
#
# Mechanical properties :
#
#
# Convention : Reuss Voigt Hill
#
# Bulk Modulus (GPa) = 34.19455 47.75042 40.97249
# Shear Modulus (GPa) = 18.18126 21.53766 19.85946
#
# Velocity S-wave (km/s) = 3.07532 3.34716 3.21411
# Velocity P-wave (km/s) = 5.51339 6.30689 5.92344
#
# Compressibility (1/GPa) = 0.02924442
#
# Stress axis : x y z
#
# Youngs Moduli (GPa) = 31.72829 64.59868 26.65898
#
# Poissons Ratio (x) = 0.61788 0.24090
# Poissons Ratio (y) = 0.30348 0.24075
# Poissons Ratio (z) = 0.28671 0.58337
#
# Static dielectric constant tensor:
#      x y z
#    x 1.700320 0.000000 0.000000 
#    y 0.000000 1.723720 0.000000 
#    z 0.000000 0.000000 1.691890 
# 
# From -- ./inp_files/14848.got.cif
#   From: 2010.05.17/outbox.cif.g08.bks.cpg/sg71_8_cif.got.tgz:14848.got - 2010.06.03 16:22:01.
