data_PCOD9522014
_publ_section_title
;
Structure prediction by ZEFSAII (Michael W. Deem and Ramdas Pophale) SiO2 
 PCOD9522014
Probable space group: I M M M
;
_chemical_formula_sum "Si O2"
_cell_formula_units_Z 112
_cell_length_a 15.993545
_cell_length_b 15.463912
_cell_length_c 20.980233
_cell_angle_alpha 90.000000
_cell_angle_beta 90.000000
_cell_angle_gamma 90.000000
_cell_volume 5188.889392
_symmetry_space_group_name_H-M "I M M M"
_symmetry_group_IT_number 71
_symmetry_cell_setting 'orthorhombic'
loop_
_space_group_symop_operation_xyz
x,y,z
-x,-y,z
x,-y,-z
-x,y,-z
-x,-y,-z
x,y,-z
-x,y,z
x,-y,z
1/2+x,1/2+y,1/2+z
1/2-x,1/2-y,1/2+z
1/2+x,1/2-y,1/2-z
1/2-x,1/2+y,1/2-z
1/2-x,1/2-y,1/2-z
1/2+x,1/2+y,1/2-z
1/2-x,1/2+y,1/2+z
1/2+x,1/2-y,1/2+z
loop_
_atom_site_type_symbol
_atom_site_label
_atom_site_fract_x
_atom_site_fract_y
_atom_site_fract_z
Si Si1 0.850067 0.245735 0.243657
Si Si2 0.236645 0.134168 0.426291
Si Si3 0.593573 0.292468 0.400317
Si Si4 0.591347 0.902203 0.601343
Si Si5 0.229783 0.341798 0.570768
Si Si6 0.403880 0.406609 0.162933
Si Si7 0.595340 0.099212 0.174286
O O1 0.750000 0.250000 0.250000
O O2 0.884110 0.225614 0.173598
O O3 0.878704 0.170152 0.290679
O O4 0.888057 0.335264 0.268397
O O5 0.254965 0.110670 0.500000
O O6 0.311075 0.102833 0.379040
O O7 0.224803 0.237506 0.422948
O O8 0.151904 0.096297 0.399797
O O9 0.500000 0.327397 0.407887
O O10 0.592454 0.194538 0.430392
O O11 0.669766 0.352572 0.422899
O O12 0.500000 0.898960 0.635921
O O13 0.588456 0.000000 0.572241
O O14 0.203541 0.368171 0.500000
O O15 0.167947 0.382245 0.622487
O O16 0.500000 0.396776 0.145830
O O17 0.391980 0.500000 0.195048
O O18 0.500000 0.113668 0.149781
O O19 0.601040 0.000000 0.195090
#
# Coordination Sequence:
#
# PCOD9522014 Si02
#       7
#    16  16  16  16  16  16  16
#     4  12  22  41  66  91 129 167 204 258 317 377
#     4  10  20  35  57  83 115 161 212 255 301 361
#     4  10  20  36  61  90 122 166 213 262 320 379
#     4   9  18  32  50  79 120 159 199 251 310 368
#     4  10  21  40  63  90 125 168 215 264 318 377
#     4  11  24  40  59  86 122 164 205 247 299 362
#     4  11  24  42  67 100 134 168 210 264 326 389
#
# _framework density 21.584579999999999
#
# number of rings (size 3 to 8) (size 9 to 14) (size 15 to 20)
#    0.000    1.571    2.857    2.571    0.000    3.714 
#    0.000    7.857    0.000    0.429    0.000    1.000 
#    0.000    0.000    0.000    0.000    0.000    0.000 
#
# Total GULP energy -311907.392527 kJ/mol
# GULP energy per Si atom -5569.774867 kJ/mol
# Density = 2.153545 g / cm^3
# Si number density = 21.584580 Si / 1000 Ang^3
#
#
#
# Elastic Constant Matrix: (Units=GPa)
#
#
# Indices 1 2 3 4 5 6 
#
# 1 161.3214 48.4332 22.8202 0.0000 0.0000 0.0000
# 2 48.4332 72.6018 10.7242 0.0000 0.0000 0.0000
# 3 22.8202 10.7242 74.0504 0.0000 0.0000 0.0000
# 4 0.0000 0.0000 0.0000 -20.7761 0.0000 0.0000
# 5 0.0000 0.0000 0.0000 0.0000 1.2900 0.0000
# 6 0.0000 0.0000 0.0000 0.0000 0.0000 19.1567
#
#
#
# Elastic Compliance Matrix: (Units=1/GPa)
#
#
# Indices 1 2 3 4 5 6 
#
# 1 0.007960 -0.005056 -0.001721 0.000000 0.000000 0.000000
# 2 -0.005056 0.017286 -0.000945 0.000000 0.000000 0.000000
# 3 -0.001721 -0.000945 0.014172 0.000000 0.000000 0.000000
# 4 0.000000 0.000000 0.000000 -0.048132 0.000000 0.000000
# 5 0.000000 0.000000 0.000000 0.000000 0.775169 0.000000
# 6 0.000000 0.000000 0.000000 0.000000 0.000000 0.052201
#
#
# Mechanical properties :
#
#
# Convention : Reuss Voigt Hill
#
# Bulk Modulus (GPa) = 41.71269 52.43654 47.07462
# Shear Modulus (GPa) = 5.93759 15.00053 10.46906
#
# Velocity S-wave (km/s) = 1.66037 2.63908 2.20472
# Velocity P-wave (km/s) = 4.80031 5.79936 5.32332
#
# Compressibility (1/GPa) = 0.02397352
#
# Stress axis : x y z
#
# Youngs Moduli (GPa) = 125.62453 57.84895 70.56399
#
# Poissons Ratio (x) = 0.29249 0.12143
# Poissons Ratio (y) = 0.63518 0.06671
# Poissons Ratio (z) = 0.21618 0.05469
#
# Static dielectric constant tensor:
#      x y z
#    x 1.819330 0.000000 0.000000 
#    y 0.000000 1.774750 0.000000 
#    z 0.000000 0.000000 1.835720 
# 
# From -- ./inp_files/59928.got.cif
#   From: 2010.05.17/outbox.cif.g08.bks.cpg/sg71_30_cif.got.tgz:59928.got - 2010.06.03 16:22:01.
