data_PCOD9522027
_publ_section_title
;
Structure prediction by ZEFSAII (Michael W. Deem and Ramdas Pophale) SiO2 
 PCOD9522027
Probable space group: I M M M
;
_chemical_formula_sum "Si O2"
_cell_formula_units_Z 120
_cell_length_a 26.727245
_cell_length_b 28.244587
_cell_length_c 8.293273
_cell_angle_alpha 90.000000
_cell_angle_beta 90.000000
_cell_angle_gamma 90.000000
_cell_volume 6260.591760
_symmetry_space_group_name_H-M "I M M M"
_symmetry_group_IT_number 71
_symmetry_cell_setting 'orthorhombic'
loop_
_space_group_symop_operation_xyz
x,y,z
-x,-y,z
x,-y,-z
-x,y,-z
-x,-y,-z
x,y,-z
-x,y,z
x,-y,z
1/2+x,1/2+y,1/2+z
1/2-x,1/2-y,1/2+z
1/2+x,1/2-y,1/2-z
1/2-x,1/2+y,1/2-z
1/2-x,1/2-y,1/2-z
1/2+x,1/2+y,1/2-z
1/2-x,1/2+y,1/2+z
1/2+x,1/2-y,1/2+z
loop_
_atom_site_type_symbol
_atom_site_label
_atom_site_fract_x
_atom_site_fract_y
_atom_site_fract_z
Si Si1 0.195448 0.236094 0.192797
Si Si2 0.942962 0.150656 0.196473
Si Si3 0.254510 0.447440 0.306185
Si Si4 0.441338 0.000000 0.303265
Si Si5 0.558755 0.241381 0.317754
Si Si6 0.142876 0.574008 0.811741
Si Si7 0.629727 0.823313 0.182788
Si Si8 0.165026 0.869843 0.802827
O O1 0.250000 0.250000 0.250000
O O2 0.161288 0.278148 0.259363
O O3 0.181027 0.183174 0.247707
O O4 0.193484 0.235759 0.000000
O O5 0.930563 0.205270 0.240443
O O6 0.893203 0.121869 0.245813
O O7 0.000000 0.138838 0.251385
O O8 0.944880 0.149931 0.000000
O O9 0.258368 0.447072 0.500000
O O10 0.268175 0.500000 0.247299
O O11 0.196257 0.438792 0.265962
O O12 0.293472 0.407580 0.246514
O O13 0.406070 0.955316 0.253377
O O14 0.500000 0.000000 0.248521
O O15 0.443988 0.000000 0.500000
O O16 0.580081 0.235613 0.500000
O O17 0.500000 0.240412 0.333187
O O18 0.575280 0.198995 0.204630
O O19 0.135600 0.629746 0.785780
O O20 0.147645 0.562952 0.000000
O O21 0.642656 0.835290 0.000000
O O22 0.165483 0.870375 0.000000
#
# Coordination Sequence:
#
# PCOD9522027 Si02
#       8
#    16  16  16   8  16  16  16  16
#     4  11  21  35  53  76 110 149 192 238 285 343
#     4   8  13  25  49  77 103 137 185 233 271 317
#     4  10  20  35  57  84 115 147 179 226 289 350
#     4   9  20  40  65  89 109 135 182 245 302 346
#     4   9  17  32  54  77 103 143 191 234 276 324
#     4  11  22  39  62  84 108 143 191 240 288 342
#     4  12  24  36  52  79 116 152 186 228 287 345
#     4   9  17  30  51  78 108 144 187 229 274 336
#
# _framework density 19.167515999999999
#
# number of rings (size 3 to 8) (size 9 to 14) (size 15 to 20)
#    0.000    2.067    2.000    3.600    0.000    1.867 
#    0.000    2.000    0.000    3.200    0.000    2.800 
#    0.000    0.000    0.000    1.200    0.000    1.333 
#
# Total GULP energy -334295.443441 kJ/mol
# GULP energy per Si atom -5571.590724 kJ/mol
# Density = 1.912389 g / cm^3
# Si number density = 19.167516 Si / 1000 Ang^3
#
#
#
# Elastic Constant Matrix: (Units=GPa)
#
#
# Indices 1 2 3 4 5 6 
#
# 1 150.7476 79.4383 2.5263 0.0000 0.0000 0.0000
# 2 79.4383 114.4190 2.5365 0.0000 0.0000 0.0000
# 3 2.5263 2.5365 9.9175 0.0000 0.0000 0.0000
# 4 0.0000 0.0000 0.0000 4.3206 0.0000 0.0000
# 5 0.0000 0.0000 0.0000 0.0000 23.5020 0.0000
# 6 0.0000 0.0000 0.0000 0.0000 0.0000 29.9342
#
#
#
# Elastic Compliance Matrix: (Units=1/GPa)
#
#
# Indices 1 2 3 4 5 6 
#
# 1 0.010467 -0.007249 -0.000812 0.000000 0.000000 0.000000
# 2 -0.007249 0.013810 -0.001686 0.000000 0.000000 0.000000
# 3 -0.000812 -0.001686 0.101470 0.000000 0.000000 0.000000
# 4 0.000000 0.000000 0.000000 0.231451 0.000000 0.000000
# 5 0.000000 0.000000 0.000000 0.000000 0.042550 0.000000
# 6 0.000000 0.000000 0.000000 0.000000 0.000000 0.033407
#
#
# Mechanical properties :
#
#
# Convention : Reuss Voigt Hill
#
# Bulk Modulus (GPa) = 9.41147 49.34294 29.37721
# Shear Modulus (GPa) = 10.24452 24.25689 17.25071
#
# Velocity S-wave (km/s) = 2.31438 3.56128 3.00325
# Velocity P-wave (km/s) = 3.47312 6.53522 5.23315
#
# Compressibility (1/GPa) = 0.10625327
#
# Stress axis : x y z
#
# Youngs Moduli (GPa) = 95.53610 72.41090 9.85514
#
# Poissons Ratio (x) = 0.52492 0.00801
# Poissons Ratio (y) = 0.69256 0.01661
# Poissons Ratio (z) = 0.07760 0.12205
#
# Static dielectric constant tensor:
#      x y z
#    x 2.239900 0.000000 0.000000 
#    y 0.000000 1.671610 0.000000 
#    z 0.000000 0.000000 1.627680 
# 
# From -- ./inp_files/15606.got.cif
#   From: 2010.05.17/outbox.cif.g08.bks.cpg/sg71_8_cif.got.tgz:15606.got - 2010.06.03 16:22:01.
