data_PCOD9522089
_publ_section_title
;
Structure prediction by ZEFSAII (Michael W. Deem and Ramdas Pophale) SiO2 
 PCOD9522089
Probable space group: I M M M
;
_chemical_formula_sum "Si O2"
_cell_formula_units_Z 88
_cell_length_a 8.688480
_cell_length_b 19.124210
_cell_length_c 29.084513
_cell_angle_alpha 90.000000
_cell_angle_beta 90.000000
_cell_angle_gamma 90.000000
_cell_volume 4832.691874
_symmetry_space_group_name_H-M "I M M M"
_symmetry_group_IT_number 71
_symmetry_cell_setting 'orthorhombic'
loop_
_space_group_symop_operation_xyz
x,y,z
-x,-y,z
x,-y,-z
-x,y,-z
-x,-y,-z
x,y,-z
-x,y,z
x,-y,z
1/2+x,1/2+y,1/2+z
1/2-x,1/2-y,1/2+z
1/2+x,1/2-y,1/2-z
1/2-x,1/2+y,1/2-z
1/2-x,1/2-y,1/2-z
1/2+x,1/2+y,1/2-z
1/2-x,1/2+y,1/2+z
1/2+x,1/2-y,1/2+z
loop_
_atom_site_type_symbol
_atom_site_label
_atom_site_fract_x
_atom_site_fract_y
_atom_site_fract_z
Si Si1 0.314822 0.890079 0.000000
Si Si2 0.684454 0.141918 0.776483
Si Si3 0.186499 0.350165 0.090041
Si Si4 0.686037 0.000000 0.077303
Si Si5 0.312573 0.000000 0.553325
Si Si6 0.685122 0.235807 0.500000
Si Si7 0.315748 0.708014 0.184708
Si Si8 0.183398 0.000000 0.819974
O O1 0.245508 0.813931 0.000000
O O2 0.270656 0.933714 0.045532
O O3 0.500000 0.886711 0.000000
O O4 0.500000 0.135666 0.776317
O O5 0.726764 0.210413 0.806912
O O6 0.742786 0.162322 0.725717
O O7 0.754418 0.070265 0.795538
O O8 0.234018 0.429744 0.079393
O O9 0.257297 0.319502 0.136142
O O10 0.000000 0.348316 0.093450
O O11 0.234022 0.304836 0.045810
O O12 0.500000 0.000000 0.082402
O O13 0.760346 0.000000 0.127154
O O14 0.500000 0.000000 0.551756
O O15 0.261461 0.000000 0.500000
O O16 0.500000 0.235874 0.500000
O O17 0.500000 0.703222 0.187768
O O18 0.000000 0.000000 0.818256
#
# Coordination Sequence:
#
# PCOD9522089 Si02
#       8
#     8  16  16   8   8   8  16   8
#     4   9  20  38  59  79 112 156 200 242 285 347
#     4  10  22  42  64  85 116 155 196 238 288 352
#     4  10  20  35  58  85 115 152 196 241 289 347
#     4   9  20  40  59  81 113 157 201 238 288 348
#     4   9  16  33  57  78 106 148 193 233 273 327
#     4  10  21  34  53  86 119 150 194 247 291 343
#     4  10  22  40  62  88 117 152 193 241 294 347
#     4  12  25  38  60  92 122 153 191 243 296 345
#
# _framework density 18.209313000000002
#
# number of rings (size 3 to 8) (size 9 to 14) (size 15 to 20)
#    0.000    2.091    0.909    2.455    2.545    4.364 
#    0.000    4.091    0.000    0.545    0.000    0.000 
#    0.000    0.000    0.000    0.000    0.000    0.000 
#
# Total GULP energy -245694.373745 kJ/mol
# GULP energy per Si atom -5583.963040 kJ/mol
# Density = 1.816787 g / cm^3
# Si number density = 18.209313 Si / 1000 Ang^3
#
#
#
# Elastic Constant Matrix: (Units=GPa)
#
#
# Indices 1 2 3 4 5 6 
#
# 1 49.1311 57.5615 55.2913 0.0000 0.0000 0.0000
# 2 57.5615 202.5472 128.2127 0.0000 0.0000 0.0000
# 3 55.2913 128.2127 181.1376 0.0000 0.0000 0.0000
# 4 0.0000 0.0000 0.0000 29.6633 0.0000 0.0000
# 5 0.0000 0.0000 0.0000 0.0000 29.6245 0.0000
# 6 0.0000 0.0000 0.0000 0.0000 0.0000 11.4586
#
#
#
# Elastic Compliance Matrix: (Units=1/GPa)
#
#
# Indices 1 2 3 4 5 6 
#
# 1 0.034227 -0.005641 -0.006455 0.000000 0.000000 0.000000
# 2 -0.005641 0.009875 -0.005268 0.000000 0.000000 0.000000
# 3 -0.006455 -0.005268 0.011219 0.000000 0.000000 0.000000
# 4 0.000000 0.000000 0.000000 0.033712 0.000000 0.000000
# 5 0.000000 0.000000 0.000000 0.000000 0.033756 0.000000
# 6 0.000000 0.000000 0.000000 0.000000 0.000000 0.087271
#
#
# Mechanical properties :
#
#
# Convention : Reuss Voigt Hill
#
# Bulk Modulus (GPa) = 48.55742 101.66078 75.10910
# Shear Modulus (GPa) = 19.86884 26.93263 23.40074
#
# Velocity S-wave (km/s) = 3.30682 3.85002 3.58871
# Velocity P-wave (km/s) = 6.42684 8.70137 7.64912
#
# Compressibility (1/GPa) = 0.02059417
#
# Stress axis : x y z
#
# Youngs Moduli (GPa) = 29.21699 101.27017 89.13124
#
# Poissons Ratio (x) = 0.57126 0.57532
# Poissons Ratio (y) = 0.16481 0.46950
# Poissons Ratio (z) = 0.18859 0.53344
#
# Static dielectric constant tensor:
#      x y z
#    x 1.618290 0.000000 0.000000 
#    y 0.000000 1.610730 0.000000 
#    z 0.000000 0.000000 1.591960 
# 
# From -- ./inp_files/68099.got.cif
#   From: 2010.05.17/outbox.cif.g08.bks.cpg/sg71_35_cif.got.tgz:68099.got - 2010.06.03 16:22:01.
