data_PCOD9522096
_publ_section_title
;
Structure prediction by ZEFSAII (Michael W. Deem and Ramdas Pophale) SiO2 
 PCOD9522096
Probable space group: I M M M
;
_chemical_formula_sum "Si O2"
_cell_formula_units_Z 88
_cell_length_a 24.448304
_cell_length_b 20.809691
_cell_length_c 8.458055
_cell_angle_alpha 90.000000
_cell_angle_beta 90.000000
_cell_angle_gamma 90.000000
_cell_volume 4303.134032
_symmetry_space_group_name_H-M "I M M M"
_symmetry_group_IT_number 71
_symmetry_cell_setting 'orthorhombic'
loop_
_space_group_symop_operation_xyz
x,y,z
-x,-y,z
x,-y,-z
-x,y,-z
-x,-y,-z
x,y,-z
-x,y,z
x,-y,z
1/2+x,1/2+y,1/2+z
1/2-x,1/2-y,1/2+z
1/2+x,1/2-y,1/2-z
1/2-x,1/2+y,1/2-z
1/2-x,1/2-y,1/2-z
1/2+x,1/2+y,1/2-z
1/2-x,1/2+y,1/2+z
1/2+x,1/2-y,1/2+z
loop_
_atom_site_type_symbol
_atom_site_label
_atom_site_fract_x
_atom_site_fract_y
_atom_site_fract_z
Si Si1 0.649765 0.140647 0.188970
Si Si2 0.861290 0.500000 0.320899
Si Si3 0.888653 0.862809 0.691825
Si Si4 0.752320 0.500000 0.827093
Si Si5 0.271367 0.643713 0.819715
Si Si6 0.060272 0.261279 0.188976
Si Si7 0.064101 0.000000 0.692781
O O1 0.628649 0.070504 0.251450
O O2 0.712337 0.154118 0.242169
O O3 0.608057 0.194371 0.243724
O O4 0.650379 0.136525 0.000000
O O5 0.882577 0.500000 0.500000
O O6 0.795019 0.500000 0.314554
O O7 0.885164 0.863676 0.500000
O O8 0.829398 0.836438 0.751942
O O9 0.932066 0.810353 0.745463
O O10 0.906308 0.934118 0.744644
O O11 0.720578 0.433881 0.824044
O O12 0.781864 0.500000 0.000000
O O13 0.267211 0.667782 0.000000
O O14 0.000000 0.285836 0.234329
O O15 0.064036 0.260122 0.000000
O O16 0.065580 0.000000 0.500000
O O17 0.000000 0.000000 0.738616
#
# Coordination Sequence:
#
# PCOD9522096 Si02
#       7
#    16   8  16   8  16  16   8
#     4  10  20  36  60  86 113 146 182 223 274 334
#     4   8  16  31  52  82 112 136 170 215 263 317
#     4  10  20  35  58  86 115 150 190 232 279 329
#     4   8  13  24  45  74 111 149 176 205 254 315
#     4   9  17  30  51  82 117 148 181 223 272 327
#     4  11  25  43  59  77 106 145 188 234 283 334
#     4   9  17  31  55  87 118 149 193 243 279 316
#
# _framework density 20.450210999999999
#
# number of rings (size 3 to 8) (size 9 to 14) (size 15 to 20)
#    0.000    2.455    0.000    2.182    0.000    6.545 
#    0.000    0.909    0.000    6.545    0.000    0.000 
#    0.000    0.000    0.000    0.000    0.000    0.000 
#
# Total GULP energy -245105.966947 kJ/mol
# GULP energy per Si atom -5570.590158 kJ/mol
# Density = 2.040367 g / cm^3
# Si number density = 20.450211 Si / 1000 Ang^3
#
#
#
# Elastic Constant Matrix: (Units=GPa)
#
#
# Indices 1 2 3 4 5 6 
#
# 1 141.9089 54.7916 28.9972 0.0000 0.0000 0.0000
# 2 54.7916 83.6720 13.2759 0.0000 0.0000 0.0000
# 3 28.9972 13.2759 29.1523 0.0000 0.0000 0.0000
# 4 0.0000 0.0000 0.0000 13.6341 0.0000 0.0000
# 5 0.0000 0.0000 0.0000 0.0000 16.1704 0.0000
# 6 0.0000 0.0000 0.0000 0.0000 0.0000 29.5413
#
#
#
# Elastic Compliance Matrix: (Units=1/GPa)
#
#
# Indices 1 2 3 4 5 6 
#
# 1 0.011015 -0.005901 -0.008269 0.000000 0.000000 0.000000
# 2 -0.005901 0.016044 -0.001437 0.000000 0.000000 0.000000
# 3 -0.008269 -0.001437 0.043182 0.000000 0.000000 0.000000
# 4 0.000000 0.000000 0.000000 0.073345 0.000000 0.000000
# 5 0.000000 0.000000 0.000000 0.000000 0.061841 0.000000
# 6 0.000000 0.000000 0.000000 0.000000 0.000000 0.033851
#
#
# Mechanical properties :
#
#
# Convention : Reuss Voigt Hill
#
# Bulk Modulus (GPa) = 25.62323 49.87365 37.74844
# Shear Modulus (GPa) = 17.63670 22.38040 20.00855
#
# Velocity S-wave (km/s) = 2.93989 3.31174 3.13134
# Velocity P-wave (km/s) = 4.90721 6.25014 5.61894
#
# Compressibility (1/GPa) = 0.03902709
#
# Stress axis : x y z
#
# Youngs Moduli (GPa) = 90.78712 62.33050 23.15788
#
# Poissons Ratio (x) = 0.36781 0.19149
# Poissons Ratio (y) = 0.53573 0.03327
# Poissons Ratio (z) = 0.75071 0.08955
#
# Static dielectric constant tensor:
#      x y z
#    x 1.715010 0.000000 0.000000 
#    y 0.000000 1.784100 0.000000 
#    z 0.000000 0.000000 1.731020 
# 
# From -- ./inp_files/12593.got.cif
#   From: 2010.05.17/outbox.cif.g08.bks.cpg/sg71_7_cif.got.tgz:12593.got - 2010.06.03 16:22:01.
