data_PCOD9522660
_publ_section_title
;
Structure prediction by ZEFSAII (Michael W. Deem and Ramdas Pophale) SiO2 
 PCOD9522660
Probable space group: I M M M
;
_chemical_formula_sum "Si O2"
_cell_formula_units_Z 64
_cell_length_a 18.759306
_cell_length_b 15.544589
_cell_length_c 11.097091
_cell_angle_alpha 90.000000
_cell_angle_beta 90.000000
_cell_angle_gamma 90.000000
_cell_volume 3235.975008
_symmetry_space_group_name_H-M "I M M M"
_symmetry_group_IT_number 71
_symmetry_cell_setting 'orthorhombic'
loop_
_space_group_symop_operation_xyz
x,y,z
-x,-y,z
x,-y,-z
-x,y,-z
-x,-y,-z
x,y,-z
-x,y,z
x,-y,z
1/2+x,1/2+y,1/2+z
1/2-x,1/2-y,1/2+z
1/2+x,1/2-y,1/2-z
1/2-x,1/2+y,1/2-z
1/2-x,1/2-y,1/2-z
1/2+x,1/2+y,1/2-z
1/2-x,1/2+y,1/2+z
1/2+x,1/2-y,1/2+z
loop_
_atom_site_type_symbol
_atom_site_label
_atom_site_fract_x
_atom_site_fract_y
_atom_site_fract_z
Si Si1 0.582878 0.811104 0.858362
Si Si2 0.257326 0.500000 0.853297
Si Si3 0.000000 0.101075 0.631566
Si Si4 0.141399 0.500000 0.640380
Si Si5 0.913422 0.895927 0.000000
Si Si6 0.146136 0.154398 0.747166
O O1 0.500000 0.794281 0.821562
O O2 0.643104 0.755410 0.787908
O O3 0.596791 0.912501 0.847914
O O4 0.590856 0.790562 0.000000
O O5 0.194229 0.500000 0.754643
O O6 0.299901 0.588061 0.816808
O O7 0.244415 0.500000 0.000000
O O8 0.929580 0.126453 0.695970
O O9 0.000000 0.138329 0.500000
O O10 0.000000 0.000000 0.623938
O O11 0.171206 0.500000 0.500000
O O12 0.867040 0.862672 0.887295
O O13 0.000000 0.871427 0.000000
O O14 0.913811 0.000000 0.000000
#
# Coordination Sequence:
#
# PCOD9522660 Si02
#       6
#    16   8   8   8   8  16
#     4  10  20  40  70  99 123 154 208 272 319 363
#     4  12  26  42  62  91 131 173 210 251 306 385
#     4  11  18  29  51  88 126 154 191 250 315 370
#     4  10  25  46  67  91 122 169 219 261 310 366
#     4  11  20  34  52  89 137 171 197 248 317 384
#     4  12  22  35  60  94 128 163 205 254 316 377
#
# _framework density 19.777656
#
# number of rings (size 3 to 8) (size 9 to 14) (size 15 to 20)
#    0.000    1.000    5.000    2.625    1.750    2.500 
#    2.250    0.000    0.000    0.750    0.000    0.000 
#    0.000    0.000    0.000    0.000    0.000    0.000 
#
# Total GULP energy -178184.423895 kJ/mol
# GULP energy per Si atom -5568.263247 kJ/mol
# Density = 1.973264 g / cm^3
# Si number density = 19.777656 Si / 1000 Ang^3
#
#
#
# Elastic Constant Matrix: (Units=GPa)
#
#
# Indices 1 2 3 4 5 6 
#
# 1 40.9070 11.7832 31.9418 0.0000 0.0000 0.0000
# 2 11.7832 144.1384 32.0503 0.0000 0.0000 0.0000
# 3 31.9418 32.0503 157.7726 0.0000 0.0000 0.0000
# 4 0.0000 0.0000 0.0000 27.5877 0.0000 0.0000
# 5 0.0000 0.0000 0.0000 0.0000 -5.4543 0.0000
# 6 0.0000 0.0000 0.0000 0.0000 0.0000 28.5044
#
#
#
# Elastic Compliance Matrix: (Units=1/GPa)
#
#
# Indices 1 2 3 4 5 6 
#
# 1 0.029209 -0.001124 -0.005685 0.000000 0.000000 0.000000
# 2 -0.001124 0.007309 -0.001257 0.000000 0.000000 0.000000
# 3 -0.005685 -0.001257 0.007745 0.000000 0.000000 0.000000
# 4 0.000000 0.000000 0.000000 0.036248 0.000000 0.000000
# 5 0.000000 0.000000 0.000000 0.000000 -0.183341 0.000000
# 6 0.000000 0.000000 0.000000 0.000000 0.000000 0.035082
#
#
# Mechanical properties :
#
#
# Convention : Reuss Voigt Hill
#
# Bulk Modulus (GPa) = 35.54904 54.92987 45.23946
# Shear Modulus (GPa) = -118.37369 27.93038 -45.22165
#
# Velocity S-wave (km/s) = -7.74482 3.76203 -4.78693
# Velocity P-wave (km/s) = 7.87165 6.83407 2.76210
#
# Compressibility (1/GPa) = 0.02813015
#
# Stress axis : x y z
#
# Youngs Moduli (GPa) = 34.23655 136.81368 129.12153
#
# Poissons Ratio (x) = 0.15373 0.73408
# Poissons Ratio (y) = 0.03847 0.16235
# Poissons Ratio (z) = 0.19464 0.17202
#
# Static dielectric constant tensor:
#      x y z
#    x 1.689800 0.000000 0.000000 
#    y 0.000000 1.831890 0.000000 
#    z 0.000000 0.000000 1.639580 
# 
# From -- ./inp_files/23266.got.cif
#   From: 2010.05.17/outbox.cif.g08.bks.cpg/sg71_12_cif.got.tgz:23266.got - 2010.06.03 16:22:01.
