data_PCOD9522411
_publ_section_title
;
Structure prediction by ZEFSAII (Michael W. Deem and Ramdas Pophale) SiO2 
 PCOD9522411
Probable space group: I M M M
;
_chemical_formula_sum "Si O2"
_cell_formula_units_Z 64
_cell_length_a 17.111704
_cell_length_b 7.800854
_cell_length_c 24.421634
_cell_angle_alpha 90.000000
_cell_angle_beta 90.000000
_cell_angle_gamma 90.000000
_cell_volume 3259.943906
_symmetry_space_group_name_H-M "I M M M"
_symmetry_group_IT_number 71
_symmetry_cell_setting 'orthorhombic'
loop_
_space_group_symop_operation_xyz
x,y,z
-x,-y,z
x,-y,-z
-x,y,-z
-x,-y,-z
x,y,-z
-x,y,z
x,-y,z
1/2+x,1/2+y,1/2+z
1/2-x,1/2-y,1/2+z
1/2+x,1/2-y,1/2-z
1/2-x,1/2+y,1/2-z
1/2-x,1/2-y,1/2-z
1/2+x,1/2+y,1/2-z
1/2-x,1/2+y,1/2+z
1/2+x,1/2-y,1/2+z
loop_
_atom_site_type_symbol
_atom_site_label
_atom_site_fract_x
_atom_site_fract_y
_atom_site_fract_z
Si Si1 0.500000 0.795869 0.438078
Si Si2 0.587284 0.796930 0.237418
Si Si3 0.180002 0.709076 0.369923
Si Si4 0.091253 0.000000 0.565376
Si Si5 0.641276 0.296956 0.358468
O O1 0.500000 0.725084 0.500000
O O2 0.423498 0.746267 0.403574
O O3 0.500000 0.000000 0.441564
O O4 0.500000 0.721644 0.230641
O O5 0.647404 0.742220 0.190476
O O6 0.616161 0.769483 0.298975
O O7 0.580710 0.000000 0.229777
O O8 0.171978 0.500000 0.377866
O O9 0.131554 0.828130 0.411049
O O10 0.271194 0.757527 0.373605
O O11 0.097260 0.000000 0.500000
O O12 0.000000 0.000000 0.581094
O O13 0.643955 0.500000 0.353041
#
# Coordination Sequence:
#
# PCOD9522411 Si02
#       5
#     8  16  16   8  16
#     4  11  25  43  63  87 125 179 225 268 321 382
#     4  10  20  36  62  93 130 170 210 264 325 388
#     4  10  24  43  66  97 133 171 216 269 331 387
#     4  11  26  46  70  99 129 167 217 272 326 391
#     4  11  23  39  62  94 129 170 217 270 326 382
#
# _framework density 19.632238999999998
#
# number of rings (size 3 to 8) (size 9 to 14) (size 15 to 20)
#    0.000    1.500    1.250    2.625    5.250    4.000 
#    0.000    3.750    0.000    0.000    0.000    0.000 
#    0.000    0.000    0.000    0.000    0.000    0.000 
#
# Total GULP energy -178693.239190 kJ/mol
# GULP energy per Si atom -5584.163725 kJ/mol
# Density = 1.958755 g / cm^3
# Si number density = 19.632239 Si / 1000 Ang^3
#
#
#
# Elastic Constant Matrix: (Units=GPa)
#
#
# Indices 1 2 3 4 5 6 
#
# 1 199.8289 34.6335 81.6150 0.0000 0.0000 0.0000
# 2 34.6335 35.1623 15.3856 0.0000 0.0000 0.0000
# 3 81.6150 15.3856 119.7753 0.0000 0.0000 0.0000
# 4 0.0000 0.0000 0.0000 32.7517 0.0000 0.0000
# 5 0.0000 0.0000 0.0000 0.0000 2.4304 0.0000
# 6 0.0000 0.0000 0.0000 0.0000 0.0000 -28.6662
#
#
#
# Elastic Compliance Matrix: (Units=1/GPa)
#
#
# Indices 1 2 3 4 5 6 
#
# 1 0.007896 -0.005746 -0.004642 0.000000 0.000000 0.000000
# 2 -0.005746 0.034315 -0.000492 0.000000 0.000000 0.000000
# 3 -0.004642 -0.000492 0.011576 0.000000 0.000000 0.000000
# 4 0.000000 0.000000 0.000000 0.030533 0.000000 0.000000
# 5 0.000000 0.000000 0.000000 0.000000 0.411460 0.000000
# 6 0.000000 0.000000 0.000000 0.000000 0.000000 -0.034884
#
#
# Mechanical properties :
#
#
# Convention : Reuss Voigt Hill
#
# Bulk Modulus (GPa) = 31.22599 68.67053 49.94826
# Shear Modulus (GPa) = 10.13517 16.17866 13.15692
#
# Velocity S-wave (km/s) = 2.27458 2.87381 2.59157
# Velocity P-wave (km/s) = 4.77894 6.78720 5.86960
#
# Compressibility (1/GPa) = 0.03202460
#
# Stress axis : x y z
#
# Youngs Moduli (GPa) = 126.64238 29.14196 86.38894
#
# Poissons Ratio (x) = 0.16745 0.40105
# Poissons Ratio (y) = 0.72771 0.04254
# Poissons Ratio (z) = 0.58792 0.01435
#
# Static dielectric constant tensor:
#      x y z
#    x 1.722340 0.000000 0.000000 
#    y 0.000000 1.711200 0.000000 
#    z 0.000000 0.000000 1.687740 
# 
# From -- ./inp_files/47883.got.cif
#   From: 2010.05.17/outbox.cif.g08.bks.cpg/sg71_24_cif.got.tgz:47883.got - 2010.06.03 16:22:01.
