data_PCOD9522862
_publ_section_title
;
Structure prediction by ZEFSAII (Michael W. Deem and Ramdas Pophale) SiO2 
 PCOD9522862
Probable space group: I M M M
;
_chemical_formula_sum "Si O2"
_cell_formula_units_Z 90
_cell_length_a 26.156004
_cell_length_b 20.447270
_cell_length_c 7.926059
_cell_angle_alpha 90.000000
_cell_angle_beta 90.000000
_cell_angle_gamma 90.000000
_cell_volume 4239.005965
_symmetry_space_group_name_H-M "I M M M"
_symmetry_group_IT_number 71
_symmetry_cell_setting 'orthorhombic'
loop_
_space_group_symop_operation_xyz
x,y,z
-x,-y,z
x,-y,-z
-x,y,-z
-x,-y,-z
x,y,-z
-x,y,z
x,-y,z
1/2+x,1/2+y,1/2+z
1/2-x,1/2-y,1/2+z
1/2+x,1/2-y,1/2-z
1/2-x,1/2+y,1/2-z
1/2-x,1/2-y,1/2-z
1/2+x,1/2+y,1/2-z
1/2-x,1/2+y,1/2+z
1/2+x,1/2-y,1/2+z
loop_
_atom_site_type_symbol
_atom_site_label
_atom_site_fract_x
_atom_site_fract_y
_atom_site_fract_z
Si Si1 0.580721 0.500000 0.687350
Si Si2 0.665205 0.928106 0.796733
Si Si3 0.942693 0.227826 0.797602
Si Si4 0.056193 0.619695 0.296845
Si Si5 0.251401 0.674231 0.799436
Si Si6 0.000000 0.000000 0.500000
Si Si7 0.359840 0.376054 0.198255
O O1 0.557013 0.500000 0.500000
O O2 0.615427 0.435960 0.704743
O O3 0.543651 0.500000 0.848596
O O4 0.607345 0.915352 0.734065
O O5 0.702875 0.869109 0.751806
O O6 0.683119 0.000000 0.738193
O O7 0.663008 0.929527 0.000000
O O8 0.938838 0.303475 0.745550
O O9 0.898454 0.184905 0.716699
O O10 0.000000 0.204525 0.747828
O O11 0.938863 0.223257 0.000000
O O12 0.055497 0.612709 0.500000
O O13 0.000000 0.597809 0.234205
O O14 0.250000 0.750000 0.750000
O O15 0.304133 0.642989 0.734111
O O16 0.254076 0.672393 0.000000
O O17 0.355886 0.392893 0.000000
#
# Coordination Sequence:
#
# PCOD9522862 Si02
#       7
#     8  16  16  16  16   2  16
#     4  12  27  45  71 100 133 187 231 282 350 418
#     4  10  22  39  61  91 125 161 208 262 317 385
#     4  10  21  35  56  88 121 157 205 260 317 389
#     4   9  18  35  58  86 121 162 203 251 319 386
#     4  11  25  43  67  93 127 169 217 275 338 403
#     4  12  26  52  68  98 148 180 234 288 340 418
#     4  11  24  43  62  89 128 168 217 280 340 400
#
# _framework density 21.231393000000001
#
# number of rings (size 3 to 8) (size 9 to 14) (size 15 to 20)
#    0.000    1.600    0.889    2.800    2.489    9.600 
#    0.000    1.778    0.000    0.000    0.000    3.733 
#    0.000    0.000    0.000    0.000    0.000    0.000 
#
# Total GULP energy -251212.213068 kJ/mol
# GULP energy per Si atom -5582.493624 kJ/mol
# Density = 2.118307 g / cm^3
# Si number density = 21.231393 Si / 1000 Ang^3
#
#
#
# Elastic Constant Matrix: (Units=GPa)
#
#
# Indices 1 2 3 4 5 6 
#
# 1 163.5387 73.9281 30.5933 0.0000 0.0000 0.0000
# 2 73.9281 109.1297 15.1933 0.0000 0.0000 0.0000
# 3 30.5933 15.1933 72.7911 0.0000 0.0000 0.0000
# 4 0.0000 0.0000 0.0000 40.8574 0.0000 0.0000
# 5 0.0000 0.0000 0.0000 0.0000 21.9981 0.0000
# 6 0.0000 0.0000 0.0000 0.0000 0.0000 -28.9919
#
#
#
# Elastic Compliance Matrix: (Units=1/GPa)
#
#
# Indices 1 2 3 4 5 6 
#
# 1 0.009291 -0.005923 -0.002669 0.000000 0.000000 0.000000
# 2 -0.005923 0.013213 -0.000269 0.000000 0.000000 0.000000
# 3 -0.002669 -0.000269 0.014916 0.000000 0.000000 0.000000
# 4 0.000000 0.000000 0.000000 0.024475 0.000000 0.000000
# 5 0.000000 0.000000 0.000000 0.000000 0.045458 0.000000
# 6 0.000000 0.000000 0.000000 0.000000 0.000000 -0.034492
#
#
# Mechanical properties :
#
#
# Convention : Reuss Voigt Hill
#
# Bulk Modulus (GPa) = 50.76212 64.98764 57.87488
# Shear Modulus (GPa) = 51.46757 21.82240 36.64498
#
# Velocity S-wave (km/s) = 4.92888 3.20947 4.15900
# Velocity P-wave (km/s) = 7.50685 6.66408 7.09798
#
# Compressibility (1/GPa) = 0.01969973
#
# Stress axis : x y z
#
# Youngs Moduli (GPa) = 107.62621 75.68265 67.04344
#
# Poissons Ratio (x) = 0.44825 0.17893
# Poissons Ratio (y) = 0.63744 0.01801
# Poissons Ratio (z) = 0.28724 0.02033
#
# Static dielectric constant tensor:
#      x y z
#    x 1.784060 0.000000 0.000000 
#    y 0.000000 1.643560 0.000000 
#    z 0.000000 0.000000 1.764840 
# 
# From -- ./inp_files/12628.got.cif
#   From: 2010.05.17/outbox.cif.g08.bks.cpg/sg71_7_cif.got.tgz:12628.got - 2010.06.03 16:22:01.
