data_PCOD9522747
_publ_section_title
;
Structure prediction by ZEFSAII (Michael W. Deem and Ramdas Pophale) SiO2 
 PCOD9522747
Probable space group: I M M M
;
_chemical_formula_sum "Si O2"
_cell_formula_units_Z 106
_cell_length_a 14.177628
_cell_length_b 21.496453
_cell_length_c 18.768607
_cell_angle_alpha 90.000000
_cell_angle_beta 90.000000
_cell_angle_gamma 90.000000
_cell_volume 5720.084218
_symmetry_space_group_name_H-M "I M M M"
_symmetry_group_IT_number 71
_symmetry_cell_setting 'orthorhombic'
loop_
_space_group_symop_operation_xyz
x,y,z
-x,-y,z
x,-y,-z
-x,y,-z
-x,-y,-z
x,y,-z
-x,y,z
x,-y,z
1/2+x,1/2+y,1/2+z
1/2-x,1/2-y,1/2+z
1/2+x,1/2-y,1/2-z
1/2-x,1/2+y,1/2-z
1/2-x,1/2-y,1/2-z
1/2+x,1/2+y,1/2-z
1/2-x,1/2+y,1/2+z
1/2+x,1/2-y,1/2+z
loop_
_atom_site_type_symbol
_atom_site_label
_atom_site_fract_x
_atom_site_fract_y
_atom_site_fract_z
Si Si1 0.390056 0.805640 0.298429
Si Si2 0.605536 0.656516 0.693419
Si Si3 0.750286 0.843487 0.414845
Si Si4 0.000000 0.500000 0.500000
Si Si5 0.896788 0.737362 0.584574
Si Si6 0.103954 0.500000 0.647817
Si Si7 0.892495 0.926655 0.663543
Si Si8 0.804760 0.630747 0.661144
O O1 0.500000 0.822941 0.290409
O O2 0.385032 0.730652 0.294988
O O3 0.345115 0.832460 0.370957
O O4 0.328703 0.833778 0.234503
O O5 0.500000 0.645544 0.664604
O O6 0.613804 0.615963 0.765736
O O7 0.694161 0.636540 0.646009
O O8 0.737114 0.843284 0.500000
O O9 0.817329 0.785434 0.392161
O O10 0.811535 0.902658 0.389522
O O11 0.919690 0.500000 0.563751
O O12 0.902979 0.743958 0.500000
O O13 0.866291 0.668002 0.603647
O O14 0.000000 0.751032 0.616400
O O15 0.160837 0.438958 0.667394
O O16 0.000000 0.500000 0.683315
O O17 0.000000 0.918033 0.634715
O O18 0.881423 0.000000 0.679764
#
# Coordination Sequence:
#
# PCOD9522747 Si02
#       8
#    16  16  16   2  16   8  16  16
#     4  11  22  38  59  85 118 155 201 252 295 351
#     4  10  21  37  60  88 120 152 192 247 304 353
#     4  11  22  38  57  83 116 157 200 245 299 354
#     4   8  24  48  56  92 134 156 194 240 306 364
#     4  10  21  34  56  87 116 147 190 243 298 360
#     4  10  24  38  61  89 122 159 191 236 293 360
#     4  10  21  37  59  86 119 154 189 240 303 362
#     4  12  21  37  60  87 116 157 198 240 301 352
#
# _framework density 18.531196000000001
#
# number of rings (size 3 to 8) (size 9 to 14) (size 15 to 20)
#    0.226    1.208    3.019    3.170    2.113    2.717 
#    0.000    0.755    0.000    0.453    0.000    1.585 
#    0.000    0.000    0.000    0.000    0.000    0.000 
#
# Total GULP energy -295526.535328 kJ/mol
# GULP energy per Si atom -5575.972365 kJ/mol
# Density = 1.848902 g / cm^3
# Si number density = 18.531196 Si / 1000 Ang^3
#
#
#
# Elastic Constant Matrix: (Units=GPa)
#
#
# Indices 1 2 3 4 5 6 
#
# 1 108.0111 22.4309 6.9343 0.0000 0.0000 0.0000
# 2 22.4309 88.5524 -2.9480 0.0000 0.0000 0.0000
# 3 6.9343 -2.9480 28.1363 0.0000 0.0000 0.0000
# 4 0.0000 0.0000 0.0000 7.1539 0.0000 0.0000
# 5 0.0000 0.0000 0.0000 0.0000 18.3767 0.0000
# 6 0.0000 0.0000 0.0000 0.0000 0.0000 27.9140
#
#
#
# Elastic Compliance Matrix: (Units=1/GPa)
#
#
# Indices 1 2 3 4 5 6 
#
# 1 0.009978 -0.002618 -0.002733 0.000000 0.000000 0.000000
# 2 -0.002618 0.012019 0.001905 0.000000 0.000000 0.000000
# 3 -0.002733 0.001905 0.036414 0.000000 0.000000 0.000000
# 4 0.000000 0.000000 0.000000 0.139785 0.000000 0.000000
# 5 0.000000 0.000000 0.000000 0.000000 0.054417 0.000000
# 6 0.000000 0.000000 0.000000 0.000000 0.000000 0.035824
#
#
# Mechanical properties :
#
#
# Convention : Reuss Voigt Hill
#
# Bulk Modulus (GPa) = 19.41096 30.83714 25.12405
# Shear Modulus (GPa) = 15.99979 23.90774 19.95377
#
# Velocity S-wave (km/s) = 2.94155 3.59574 3.28497
# Velocity P-wave (km/s) = 4.69409 5.82374 5.28916
#
# Compressibility (1/GPa) = 0.05151729
#
# Stress axis : x y z
#
# Youngs Moduli (GPa) = 100.22502 83.19875 27.46163
#
# Poissons Ratio (x) = 0.21785 0.07506
# Poissons Ratio (y) = 0.26243 -0.05230
# Poissons Ratio (z) = 0.27395 -0.15847
#
# Static dielectric constant tensor:
#      x y z
#    x 1.670800 0.000000 0.000000 
#    y 0.000000 1.646050 0.000000 
#    z 0.000000 0.000000 1.638190 
# 
# From -- ./inp_files/53403.got.cif
#   From: 2010.05.17/outbox.cif.g08.bks.cpg/sg71_27_cif.got.tgz:53403.got - 2010.06.03 16:22:01.
