data_PCOD9522295
_publ_section_title
;
Structure prediction by ZEFSAII (Michael W. Deem and Ramdas Pophale) SiO2 
 PCOD9522295
Probable space group: I M M M
;
_chemical_formula_sum "Si O2"
_cell_formula_units_Z 104
_cell_length_a 27.514686
_cell_length_b 11.756088
_cell_length_c 17.540764
_cell_angle_alpha 90.000000
_cell_angle_beta 90.000000
_cell_angle_gamma 90.000000
_cell_volume 5673.824454
_symmetry_space_group_name_H-M "I M M M"
_symmetry_group_IT_number 71
_symmetry_cell_setting 'orthorhombic'
loop_
_space_group_symop_operation_xyz
x,y,z
-x,-y,z
x,-y,-z
-x,y,-z
-x,-y,-z
x,y,-z
-x,y,z
x,-y,z
1/2+x,1/2+y,1/2+z
1/2-x,1/2-y,1/2+z
1/2+x,1/2-y,1/2-z
1/2-x,1/2+y,1/2-z
1/2-x,1/2-y,1/2-z
1/2+x,1/2+y,1/2-z
1/2-x,1/2+y,1/2+z
1/2+x,1/2-y,1/2+z
loop_
_atom_site_type_symbol
_atom_site_label
_atom_site_fract_x
_atom_site_fract_y
_atom_site_fract_z
Si Si1 0.352810 0.864100 0.914627
Si Si2 0.443188 0.863652 0.180458
Si Si3 0.325140 0.365473 0.589118
Si Si4 0.597455 0.784783 0.338110
Si Si5 0.736119 0.500000 0.912152
Si Si6 0.147756 0.500000 0.912548
Si Si7 0.766740 0.758218 0.662533
Si Si8 0.000000 0.368451 0.909942
O O1 0.408549 0.841694 0.891531
O O2 0.315510 0.811500 0.854707
O O3 0.346280 0.000000 0.913822
O O4 0.341675 0.822296 0.000000
O O5 0.500000 0.834075 0.171988
O O6 0.418096 0.799647 0.250924
O O7 0.441088 0.000000 0.196185
O O8 0.335484 0.340854 0.500000
O O9 0.316655 0.500000 0.597641
O O10 0.370646 0.323690 0.639424
O O11 0.277109 0.297048 0.613726
O O12 0.629753 0.890607 0.367029
O O13 0.547276 0.801519 0.383085
O O14 0.794606 0.500000 0.916502
O O15 0.723409 0.386048 0.866203
O O16 0.717889 0.500000 0.000000
O O17 0.128286 0.500000 0.000000
O O18 0.750000 0.750000 0.750000
O O19 0.000000 0.500000 0.878851
O O20 0.000000 0.377165 0.000000
#
# Coordination Sequence:
#
# PCOD9522295 Si02
#       8
#    16  16  16  16   8   8  16   8
#     4  10  22  39  61  87 121 162 201 241 296 365
#     4  10  20  36  58  88 119 150 191 251 310 356
#     4  11  24  41  60  81 118 167 205 238 289 362
#     4  12  20  34  54  83 117 149 196 245 296 356
#     4  11  24  40  61  92 126 163 204 252 309 364
#     4  11  20  31  54  83 118 153 190 239 296 354
#     4  12  25  39  63  92 126 157 199 252 304 364
#     4  11  20  28  47  79 114 150 193 245 303 353
#
# _framework density 18.329788000000001
#
# number of rings (size 3 to 8) (size 9 to 14) (size 15 to 20)
#    0.000    1.000    3.846    4.154    2.154    1.538 
#    0.000    1.923    0.000    1.385    0.000    0.000 
#    0.000    1.846    0.000    0.000    0.000    0.000 
#
# Total GULP energy -290491.708399 kJ/mol
# GULP energy per Si atom -5586.379008 kJ/mol
# Density = 1.828807 g / cm^3
# Si number density = 18.329788 Si / 1000 Ang^3
#
#
#
# Elastic Constant Matrix: (Units=GPa)
#
#
# Indices 1 2 3 4 5 6 
#
# 1 91.1510 18.8181 19.5364 0.0000 0.0000 0.0000
# 2 18.8181 66.9411 26.3363 0.0000 0.0000 0.0000
# 3 19.5364 26.3363 90.9937 0.0000 0.0000 0.0000
# 4 0.0000 0.0000 0.0000 21.2340 0.0000 0.0000
# 5 0.0000 0.0000 0.0000 0.0000 31.5730 0.0000
# 6 0.0000 0.0000 0.0000 0.0000 0.0000 21.7851
#
#
#
# Elastic Compliance Matrix: (Units=1/GPa)
#
#
# Indices 1 2 3 4 5 6 
#
# 1 0.011900 -0.002641 -0.001791 0.000000 0.000000 0.000000
# 2 -0.002641 0.017444 -0.004482 0.000000 0.000000 0.000000
# 3 -0.001791 -0.004482 0.012671 0.000000 0.000000 0.000000
# 4 0.000000 0.000000 0.000000 0.047094 0.000000 0.000000
# 5 0.000000 0.000000 0.000000 0.000000 0.031673 0.000000
# 6 0.000000 0.000000 0.000000 0.000000 0.000000 0.045903
#
#
# Mechanical properties :
#
#
# Convention : Reuss Voigt Hill
#
# Bulk Modulus (GPa) = 41.34128 42.05194 41.69661
# Shear Modulus (GPa) = 25.96396 27.21141 26.58768
#
# Velocity S-wave (km/s) = 3.76771 3.85716 3.81270
# Velocity P-wave (km/s) = 6.44443 6.54435 6.49458
#
# Compressibility (1/GPa) = 0.02418890
#
# Stress axis : x y z
#
# Youngs Moduli (GPa) = 84.03531 57.32581 78.91785
#
# Poissons Ratio (x) = 0.15138 0.14131
# Poissons Ratio (y) = 0.22192 0.35370
# Poissons Ratio (z) = 0.15047 0.25693
#
# Static dielectric constant tensor:
#      x y z
#    x 1.626760 0.000000 0.000000 
#    y 0.000000 1.632630 0.000000 
#    z 0.000000 0.000000 1.653160 
# 
# From -- ./inp_files/48875.got.cif
#   From: 2010.05.17/outbox.cif.g08.bks.cpg/sg71_25_cif.got.tgz:48875.got - 2010.06.03 16:22:01.
