data_PCOD9522822
_publ_section_title
;
Structure prediction by ZEFSAII (Michael W. Deem and Ramdas Pophale) SiO2 
 PCOD9522822
Probable space group: I M M M
;
_chemical_formula_sum "Si O2"
_cell_formula_units_Z 96
_cell_length_a 17.349510
_cell_length_b 30.355462
_cell_length_c 9.557814
_cell_angle_alpha 90.000000
_cell_angle_beta 90.000000
_cell_angle_gamma 90.000000
_cell_volume 5033.645601
_symmetry_space_group_name_H-M "I M M M"
_symmetry_group_IT_number 71
_symmetry_cell_setting 'orthorhombic'
loop_
_space_group_symop_operation_xyz
x,y,z
-x,-y,z
x,-y,-z
-x,y,-z
-x,-y,-z
x,y,-z
-x,y,z
x,-y,z
1/2+x,1/2+y,1/2+z
1/2-x,1/2-y,1/2+z
1/2+x,1/2-y,1/2-z
1/2-x,1/2+y,1/2-z
1/2-x,1/2-y,1/2-z
1/2+x,1/2+y,1/2-z
1/2-x,1/2+y,1/2+z
1/2+x,1/2-y,1/2+z
loop_
_atom_site_type_symbol
_atom_site_label
_atom_site_fract_x
_atom_site_fract_y
_atom_site_fract_z
Si Si1 0.593109 0.381199 0.158414
Si Si2 0.908279 0.195895 0.152084
Si Si3 0.344682 0.049665 0.333237
Si Si4 0.813975 0.051087 0.162752
Si Si5 0.310791 0.221253 0.337993
Si Si6 0.086178 0.642890 0.830394
O O1 0.500000 0.381854 0.157367
O O2 0.620639 0.334783 0.223190
O O3 0.625041 0.418533 0.259231
O O4 0.620593 0.386996 0.000000
O O5 0.884276 0.246221 0.162493
O O6 0.000000 0.192584 0.152112
O O7 0.879564 0.179570 0.000000
O O8 0.327841 0.052080 0.500000
O O9 0.266686 0.054591 0.244811
O O10 0.397563 0.091603 0.299224
O O11 0.375938 0.000000 0.306953
O O12 0.837988 0.000000 0.169892
O O13 0.805180 0.063017 0.000000
O O14 0.284674 0.216280 0.500000
O O15 0.250000 0.250000 0.250000
O O16 0.343897 0.174785 0.282630
O O17 0.000000 0.655196 0.781088
O O18 0.086106 0.647426 0.000000
#
# Coordination Sequence:
#
# PCOD9522822 Si02
#       6
#    16  16  16  16  16  16
#     4  10  21  35  53  78 106 138 178 227 281 332
#     4   9  18  34  54  74 101 140 183 224 267 319
#     4   9  18  33  55  84 114 144 181 227 277 329
#     4  10  21  36  54  76 106 145 184 224 271 328
#     4  10  21  35  53  80 110 144 184 228 273 322
#     4   9  18  34  57  84 113 146 184 227 277 330
#
# _framework density 19.071663999999998
#
# number of rings (size 3 to 8) (size 9 to 14) (size 15 to 20)
#    0.000    2.500    0.000    1.500    2.333    5.333 
#    0.000    3.333    0.000    3.000    0.000    2.333 
#    0.000    0.000    0.000    0.000    0.000    0.000 
#
# Total GULP energy -267454.289227 kJ/mol
# GULP energy per Si atom -5571.964359 kJ/mol
# Density = 1.902826 g / cm^3
# Si number density = 19.071664 Si / 1000 Ang^3
#
#
#
# Elastic Constant Matrix: (Units=GPa)
#
#
# Indices 1 2 3 4 5 6 
#
# 1 28.8710 35.0649 19.0172 0.0001 -0.0007 -0.0003
# 2 35.0649 97.2034 35.8895 -0.0010 0.0005 0.0001
# 3 19.0172 35.8895 65.8309 -0.0041 -0.0006 -0.0004
# 4 0.0001 -0.0010 -0.0041 21.4440 0.0000 -0.0001
# 5 -0.0007 0.0005 -0.0006 0.0000 16.4623 -0.0001
# 6 -0.0003 0.0001 -0.0004 -0.0001 -0.0001 31.3562
#
#
#
# Elastic Compliance Matrix: (Units=1/GPa)
#
#
# Indices 1 2 3 4 5 6 
#
# 1 0.064429 -0.020495 -0.007439 -0.000003 0.000003 0.000001
# 2 -0.020495 0.019400 -0.004656 0.000000 -0.000002 0.000000
# 3 -0.007439 -0.004656 0.019878 0.000004 0.000000 0.000000
# 4 -0.000003 0.000000 0.000004 0.046633 0.000000 0.000000
# 5 0.000003 -0.000002 0.000000 0.000000 0.060745 0.000000
# 6 0.000001 0.000000 0.000000 0.000000 0.000000 0.031892
#
#
# Mechanical properties :
#
#
# Convention : Reuss Voigt Hill
#
# Bulk Modulus (GPa) = 25.95578 41.31651 33.63614
# Shear Modulus (GPa) = 15.57639 20.64808 18.11223
#
# Velocity S-wave (km/s) = 2.86095 3.29395 3.08505
# Velocity P-wave (km/s) = 4.95505 6.01478 5.51045
#
# Compressibility (1/GPa) = 0.03852707
#
# Stress axis : x y z
#
# Youngs Moduli (GPa) = 15.52093 51.54587 50.30803
#
# Poissons Ratio (x) = 1.05646 0.37422
# Poissons Ratio (y) = 0.31811 0.23423
# Poissons Ratio (z) = 0.11545 0.23999
#
# Static dielectric constant tensor:
#      x y z
#    x 1.674030 0.000000 0.000000 
#    y 0.000000 1.679340 0.000000 
#    z 0.000000 0.000000 1.666520 
# 
# From -- ./inp_files/10913.got.cif
#   From: 2010.05.17/outbox.cif.g08.bks.cpg/sg71_6_cif.got.tgz:10913.got - 2010.06.03 16:22:01.
