data_PCOD9522607
_publ_section_title
;
Structure prediction by ZEFSAII (Michael W. Deem and Ramdas Pophale) SiO2 
 PCOD9522607
Probable space group: I M M M
;
_chemical_formula_sum "Si O2"
_cell_formula_units_Z 100
_cell_length_a 22.151240
_cell_length_b 16.690901
_cell_length_c 15.021476
_cell_angle_alpha 90.000000
_cell_angle_beta 90.000000
_cell_angle_gamma 90.000000
_cell_volume 5553.802504
_symmetry_space_group_name_H-M "I M M M"
_symmetry_group_IT_number 71
_symmetry_cell_setting 'orthorhombic'
loop_
_space_group_symop_operation_xyz
x,y,z
-x,-y,z
x,-y,-z
-x,y,-z
-x,-y,-z
x,y,-z
-x,y,z
x,-y,z
1/2+x,1/2+y,1/2+z
1/2-x,1/2-y,1/2+z
1/2+x,1/2-y,1/2-z
1/2-x,1/2+y,1/2-z
1/2-x,1/2-y,1/2-z
1/2+x,1/2+y,1/2-z
1/2-x,1/2+y,1/2+z
1/2+x,1/2-y,1/2+z
loop_
_atom_site_type_symbol
_atom_site_label
_atom_site_fract_x
_atom_site_fract_y
_atom_site_fract_z
Si Si1 0.931402 0.281590 0.394761
Si Si2 0.736943 0.654645 0.750000
Si Si3 0.826947 0.407316 0.105419
Si Si4 0.000000 0.000000 0.250000
Si Si5 0.826947 0.407316 0.394581
Si Si6 0.905493 0.851586 0.750000
Si Si7 0.931402 0.718411 0.105239
O O1 0.925174 0.263801 0.500000
O O2 0.882509 0.349079 0.371423
O O3 0.920294 0.203560 0.335588
O O4 0.000000 0.309696 0.379403
O O5 0.750000 0.750000 0.750000
O O6 0.770116 0.618210 0.835933
O O7 0.770116 0.618210 0.664067
O O8 0.666360 0.635045 0.750000
O O9 0.842001 0.500000 0.122586
O O10 0.882509 0.349079 0.128577
O O11 0.814818 0.398485 0.000000
O O12 0.947030 0.070544 0.250000
O O13 0.814818 0.398485 0.500000
O O14 0.842001 0.500000 0.377414
O O15 0.920294 0.796440 0.835587
O O16 0.000000 0.690304 0.120597
O O17 0.925174 0.736199 0.000000
#
# Coordination Sequence:
#
# PCOD9522607 Si02
#       7
#    16  16  16   4  16  16  16
#     4  10  20  38  64  89 120 160 200 244 301 367
#     4  12  23  38  65  89 118 166 210 254 312 367
#     4  10  22  39  60  94 130 156 197 253 309 373
#     4  12  28  44  66  84 126 170 210 264 314 364
#     4  10  22  39  60  94 130 156 197 253 309 373
#     4  12  24  43  61  87 119 159 210 261 305 361
#     4  10  20  38  64  89 120 160 200 244 301 367
#
# _framework density 18.005680999999999
#
# number of rings (size 3 to 8) (size 9 to 14) (size 15 to 20)
#    0.000    1.280    4.800    0.480    2.240    2.560 
#    0.000    4.800    0.000    3.840    0.000    0.000 
#    0.000    0.000    0.000    0.000    0.000    0.000 
#
# Total GULP energy -278749.936498 kJ/mol
# GULP energy per Si atom -5574.998730 kJ/mol
# Density = 1.796470 g / cm^3
# Si number density = 18.005681 Si / 1000 Ang^3
#
#
#
# Elastic Constant Matrix: (Units=GPa)
#
#
# Indices 1 2 3 4 5 6 
#
# 1 194.5860 82.9073 57.7821 0.0000 0.0000 0.0000
# 2 82.9073 163.6461 56.3588 0.0000 0.0000 0.0000
# 3 57.7821 56.3588 60.4716 0.0000 0.0000 0.0000
# 4 0.0000 0.0000 0.0000 16.7968 0.0000 0.0000
# 5 0.0000 0.0000 0.0000 0.0000 33.4447 0.0000
# 6 0.0000 0.0000 0.0000 0.0000 0.0000 38.5718
#
#
#
# Elastic Compliance Matrix: (Units=1/GPa)
#
#
# Indices 1 2 3 4 5 6 
#
# 1 0.007589 -0.001984 -0.005402 0.000000 0.000000 0.000000
# 2 -0.001984 0.009518 -0.006975 0.000000 0.000000 0.000000
# 3 -0.005402 -0.006975 0.028199 0.000000 0.000000 0.000000
# 4 0.000000 0.000000 0.000000 0.059535 0.000000 0.000000
# 5 0.000000 0.000000 0.000000 0.000000 0.029900 0.000000
# 6 0.000000 0.000000 0.000000 0.000000 0.000000 0.025926
#
#
# Mechanical properties :
#
#
# Convention : Reuss Voigt Hill
#
# Bulk Modulus (GPa) = 60.30006 90.31112 75.30559
# Shear Modulus (GPa) = 25.65210 32.53969 29.09589
#
# Velocity S-wave (km/s) = 3.77857 4.25572 4.02422
# Velocity P-wave (km/s) = 7.25251 8.62636 7.96910
#
# Compressibility (1/GPa) = 0.01658373
#
# Stress axis : x y z
#
# Youngs Moduli (GPa) = 131.77667 105.06329 35.46268
#
# Poissons Ratio (x) = 0.20847 0.19156
# Poissons Ratio (y) = 0.26147 0.24734
# Poissons Ratio (z) = 0.71183 0.73279
#
# Static dielectric constant tensor:
#      x y z
#    x 1.607730 0.000000 0.000000 
#    y 0.000000 1.587250 0.000000 
#    z 0.000000 0.000000 1.630580 
# 
# From -- ./inp_files/38094.got.cif
#   From: 2010.05.17/outbox.cif.g08.bks.cpg/sg71_20_cif.got.tgz:38094.got - 2010.06.03 16:22:01.
