data_PCOD9522079
_publ_section_title
;
Structure prediction by ZEFSAII (Michael W. Deem and Ramdas Pophale) SiO2 
 PCOD9522079
Probable space group: I M M M
;
_chemical_formula_sum "Si O2"
_cell_formula_units_Z 120
_cell_length_a 14.240323
_cell_length_b 14.662848
_cell_length_c 29.774993
_cell_angle_alpha 90.000000
_cell_angle_beta 90.000000
_cell_angle_gamma 90.000000
_cell_volume 6217.128456
_symmetry_space_group_name_H-M "I M M M"
_symmetry_group_IT_number 71
_symmetry_cell_setting 'orthorhombic'
loop_
_space_group_symop_operation_xyz
x,y,z
-x,-y,z
x,-y,-z
-x,y,-z
-x,-y,-z
x,y,-z
-x,y,z
x,-y,z
1/2+x,1/2+y,1/2+z
1/2-x,1/2-y,1/2+z
1/2+x,1/2-y,1/2-z
1/2-x,1/2+y,1/2-z
1/2-x,1/2-y,1/2-z
1/2+x,1/2+y,1/2-z
1/2-x,1/2+y,1/2+z
1/2+x,1/2-y,1/2+z
loop_
_atom_site_type_symbol
_atom_site_label
_atom_site_fract_x
_atom_site_fract_y
_atom_site_fract_z
Si Si1 0.200896 0.390102 0.312851
Si Si2 0.766175 0.175508 0.446694
Si Si3 0.394871 0.500000 0.053604
Si Si4 0.610969 0.768291 0.883479
Si Si5 0.113157 0.101939 0.318543
Si Si6 0.612032 0.890240 0.619894
Si Si7 0.609099 0.889486 0.279641
Si Si8 0.104632 0.889791 0.785353
O O1 0.199225 0.500000 0.312225
O O2 0.137509 0.353496 0.352761
O O3 0.161873 0.357083 0.264634
O O4 0.309320 0.359052 0.315934
O O5 0.749494 0.179115 0.500000
O O6 0.834796 0.089310 0.436694
O O7 0.825417 0.260147 0.427544
O O8 0.672386 0.159079 0.418094
O O9 0.500000 0.500000 0.074148
O O10 0.406162 0.500000 0.000000
O O11 0.500000 0.763916 0.893019
O O12 0.638982 0.681747 0.852130
O O13 0.132533 0.125357 0.266671
O O14 0.000000 0.095947 0.320556
O O15 0.151155 0.000000 0.328596
O O16 0.500000 0.873529 0.616325
O O17 0.642331 0.863035 0.670612
O O18 0.624983 0.000000 0.615365
O O19 0.500000 0.864039 0.275250
O O20 0.613337 0.000000 0.279343
O O21 0.000000 0.853302 0.794176
O O22 0.099003 0.000000 0.789172
#
# Coordination Sequence:
#
# PCOD9522079 Si02
#       8
#    16  16   8  16  16  16  16  16
#     4  10  20  35  58  83 110 148 190 237 287 339
#     4  11  23  38  55  78 107 143 188 235 285 338
#     4   9  18  34  55  77 101 133 174 222 277 333
#     4  11  24  37  54  82 110 145 191 238 290 343
#     4   8  16  31  48  70 105 145 182 217 257 316
#     4   9  18  34  56  83 114 150 192 232 276 335
#     4   8  15  29  50  76 108 145 180 221 274 330
#     4   8  15  30  51  76 109 149 186 223 273 327
#
# _framework density 19.301514999999998
#
# number of rings (size 3 to 8) (size 9 to 14) (size 15 to 20)
#    0.000    2.733    0.667    2.400    2.800    2.400 
#    0.000    1.333    0.000    0.400    0.000    0.933 
#    0.000    0.000    0.000    4.533    0.000    0.000 
#
# Total GULP energy -334991.848968 kJ/mol
# GULP energy per Si atom -5583.197483 kJ/mol
# Density = 1.925758 g / cm^3
# Si number density = 19.301515 Si / 1000 Ang^3
#
#
#
# Elastic Constant Matrix: (Units=GPa)
#
#
# Indices 1 2 3 4 5 6 
#
# 1 78.1477 19.2740 56.0095 0.0000 0.0000 0.0000
# 2 19.2740 41.9421 18.3753 0.0000 0.0000 0.0000
# 3 56.0095 18.3753 85.8005 0.0000 0.0000 0.0000
# 4 0.0000 0.0000 0.0000 13.2673 0.0000 0.0000
# 5 0.0000 0.0000 0.0000 0.0000 23.9690 0.0000
# 6 0.0000 0.0000 0.0000 0.0000 0.0000 15.2711
#
#
#
# Elastic Compliance Matrix: (Units=1/GPa)
#
#
# Indices 1 2 3 4 5 6 
#
# 1 0.024881 -0.004765 -0.015222 0.000000 0.000000 0.000000
# 2 -0.004765 0.027224 -0.002720 0.000000 0.000000 0.000000
# 3 -0.015222 -0.002720 0.022174 0.000000 0.000000 0.000000
# 4 0.000000 0.000000 0.000000 0.075373 0.000000 0.000000
# 5 0.000000 0.000000 0.000000 0.000000 0.041721 0.000000
# 6 0.000000 0.000000 0.000000 0.000000 0.000000 0.065483
#
#
# Mechanical properties :
#
#
# Convention : Reuss Voigt Hill
#
# Bulk Modulus (GPa) = 34.64295 43.68977 39.16636
# Shear Modulus (GPa) = 16.03131 17.98359 17.00745
#
# Velocity S-wave (km/s) = 2.88509 3.05572 2.97163
# Velocity P-wave (km/s) = 5.39311 5.92743 5.66657
#
# Compressibility (1/GPa) = 0.02886590
#
# Stress axis : x y z
#
# Youngs Moduli (GPa) = 40.19135 36.73272 45.09815
#
# Poissons Ratio (x) = 0.17503 0.68646
# Poissons Ratio (y) = 0.19151 0.12266
# Poissons Ratio (z) = 0.61177 0.09990
#
# Static dielectric constant tensor:
#      x y z
#    x 1.702200 0.000000 0.000000 
#    y 0.000000 1.736160 0.000000 
#    z 0.000000 0.000000 1.662050 
# 
# From -- ./inp_files/70148.got.cif
#   From: 2010.05.17/outbox.cif.g08.bks.cpg/sg71_36_cif.got.tgz:70148.got - 2010.06.03 16:22:01.
