data_PCOD9522573
_publ_section_title
;
Structure prediction by ZEFSAII (Michael W. Deem and Ramdas Pophale) SiO2 
 PCOD9522573
Probable space group: I M M M
;
_chemical_formula_sum "Si O2"
_cell_formula_units_Z 92
_cell_length_a 7.720555
_cell_length_b 20.300789
_cell_length_c 27.373508
_cell_angle_alpha 90.000000
_cell_angle_beta 90.000000
_cell_angle_gamma 90.000000
_cell_volume 4290.341830
_symmetry_space_group_name_H-M "I M M M"
_symmetry_group_IT_number 71
_symmetry_cell_setting 'orthorhombic'
loop_
_space_group_symop_operation_xyz
x,y,z
-x,-y,z
x,-y,-z
-x,y,-z
-x,-y,-z
x,y,-z
-x,y,z
x,-y,z
1/2+x,1/2+y,1/2+z
1/2-x,1/2-y,1/2+z
1/2+x,1/2-y,1/2-z
1/2-x,1/2+y,1/2-z
1/2-x,1/2-y,1/2-z
1/2+x,1/2+y,1/2-z
1/2-x,1/2+y,1/2+z
1/2+x,1/2-y,1/2+z
loop_
_atom_site_type_symbol
_atom_site_label
_atom_site_fract_x
_atom_site_fract_y
_atom_site_fract_z
Si Si1 0.294934 0.692356 0.288209
Si Si2 0.707135 0.925573 0.721415
Si Si3 0.500000 0.500000 0.590865
Si Si4 0.198591 0.404698 0.442749
Si Si5 0.289255 0.272080 0.602903
Si Si6 0.207370 0.000000 0.555276
Si Si7 0.206046 0.372800 0.881843
O O1 0.500000 0.691593 0.291989
O O2 0.250000 0.750000 0.250000
O O3 0.238918 0.622550 0.266460
O O4 0.230130 0.707696 0.342390
O O5 0.500000 0.930550 0.715624
O O6 0.776634 0.891287 0.671943
O O7 0.774987 0.000000 0.726893
O O8 0.345916 0.557078 0.587133
O O9 0.229524 0.419948 0.500000
O O10 0.219405 0.326867 0.433542
O O11 0.000000 0.422860 0.430859
O O12 0.500000 0.274196 0.600125
O O13 0.230437 0.196494 0.596831
O O14 0.264800 0.934957 0.583775
O O15 0.273568 0.000000 0.500000
O O16 0.000000 0.000000 0.554376
O O17 0.000000 0.363819 0.875524
#
# Coordination Sequence:
#
# PCOD9522573 Si02
#       7
#    16  16   4  16  16   8  16
#     4  11  22  38  61  89 125 166 209 255 312 380
#     4  10  20  38  61  86 120 159 205 262 313 366
#     4  12  23  46  76  96 132 170 208 270 326 386
#     4  11  24  42  69 101 130 172 222 263 325 401
#     4  10  22  41  63  91 130 172 216 271 328 382
#     4  11  25  41  57  88 130 163 205 271 335 383
#     4  10  20  39  65  87 116 165 217 260 315 389
#
# _framework density 21.443512999999999
#
# number of rings (size 3 to 8) (size 9 to 14) (size 15 to 20)
#    0.000    1.478    3.478    1.826    0.000    5.217 
#    1.565    3.478    0.000    0.000    0.000    0.000 
#    0.000    0.000    0.000    0.000    0.000    0.000 
#
# Total GULP energy -256536.041866 kJ/mol
# GULP energy per Si atom -5576.870475 kJ/mol
# Density = 2.139471 g / cm^3
# Si number density = 21.443513 Si / 1000 Ang^3
#
#
#
# Elastic Constant Matrix: (Units=GPa)
#
#
# Indices 1 2 3 4 5 6 
#
# 1 68.6363 16.4600 -4.2051 0.0000 0.0000 0.0000
# 2 16.4600 184.1434 20.5428 0.0000 0.0000 0.0000
# 3 -4.2051 20.5428 41.9350 0.0000 0.0000 0.0000
# 4 0.0000 0.0000 0.0000 -145.5849 0.0000 0.0000
# 5 0.0000 0.0000 0.0000 0.0000 21.0008 0.0000
# 6 0.0000 0.0000 0.0000 0.0000 0.0000 18.0259
#
#
#
# Elastic Compliance Matrix: (Units=1/GPa)
#
#
# Indices 1 2 3 4 5 6 
#
# 1 0.015096 -0.001606 0.002300 0.000000 0.000000 0.000000
# 2 -0.001606 0.005915 -0.003059 0.000000 0.000000 0.000000
# 3 0.002300 -0.003059 0.025576 0.000000 0.000000 0.000000
# 4 0.000000 0.000000 0.000000 -0.006869 0.000000 0.000000
# 5 0.000000 0.000000 0.000000 0.000000 0.047617 0.000000
# 6 0.000000 0.000000 0.000000 0.000000 0.000000 0.055476
#
#
# Mechanical properties :
#
#
# Convention : Reuss Voigt Hill
#
# Bulk Modulus (GPa) = 23.89038 40.03446 31.96242
# Shear Modulus (GPa) = 30.96126 -3.85054 13.55536
#
# Velocity S-wave (km/s) = 3.80393 -1.34148 2.51697
# Velocity P-wave (km/s) = 5.51891 4.03867 4.83577
#
# Compressibility (1/GPa) = 0.04185785
#
# Stress axis : x y z
#
# Youngs Moduli (GPa) = 66.24432 169.05197 39.09985
#
# Poissons Ratio (x) = 0.27150 -0.08995
# Poissons Ratio (y) = 0.10639 0.11960
# Poissons Ratio (z) = -0.15239 0.51710
#
# Static dielectric constant tensor:
#      x y z
#    x 1.783950 0.000000 0.000000 
#    y 0.000000 1.762390 0.000000 
#    z 0.000000 0.000000 1.781550 
# 
# From -- ./inp_files/63237.got.cif
#   From: 2010.05.17/outbox.cif.g08.bks.cpg/sg71_32_cif.got.tgz:63237.got - 2010.06.03 16:22:01.
