data_PCOD9522709
_publ_section_title
;
Structure prediction by ZEFSAII (Michael W. Deem and Ramdas Pophale) SiO2 
 PCOD9522709
Probable space group: I M M M
;
_chemical_formula_sum "Si O2"
_cell_formula_units_Z 104
_cell_length_a 14.260450
_cell_length_b 12.811203
_cell_length_c 30.631775
_cell_angle_alpha 90.000000
_cell_angle_beta 90.000000
_cell_angle_gamma 90.000000
_cell_volume 5596.226793
_symmetry_space_group_name_H-M "I M M M"
_symmetry_group_IT_number 71
_symmetry_cell_setting 'orthorhombic'
loop_
_space_group_symop_operation_xyz
x,y,z
-x,-y,z
x,-y,-z
-x,y,-z
-x,-y,-z
x,y,-z
-x,y,z
x,-y,z
1/2+x,1/2+y,1/2+z
1/2-x,1/2-y,1/2+z
1/2+x,1/2-y,1/2-z
1/2-x,1/2+y,1/2-z
1/2-x,1/2-y,1/2-z
1/2+x,1/2+y,1/2-z
1/2-x,1/2+y,1/2+z
1/2+x,1/2-y,1/2+z
loop_
_atom_site_type_symbol
_atom_site_label
_atom_site_fract_x
_atom_site_fract_y
_atom_site_fract_z
Si Si1 0.112160 0.383461 0.953387
Si Si2 0.887423 0.621537 0.308763
Si Si3 0.889403 0.876811 0.552115
Si Si4 0.386167 0.119100 0.289713
Si Si5 0.198172 0.690240 0.604648
Si Si6 0.387790 0.000000 0.051184
Si Si7 0.390305 0.263521 0.370852
O O1 0.151784 0.500000 0.949913
O O2 0.120784 0.320582 0.909420
O O3 0.000000 0.392795 0.957217
O O4 0.145446 0.337092 0.000000
O O5 0.862196 0.500000 0.317332
O O6 0.855296 0.646395 0.259446
O O7 0.849364 0.690728 0.347790
O O8 0.000000 0.627129 0.308979
O O9 0.874938 0.862269 0.500000
O O10 0.824339 0.798993 0.579807
O O11 0.000000 0.852904 0.560753
O O12 0.875375 0.000000 0.561648
O O13 0.500000 0.114777 0.289245
O O14 0.363882 0.204657 0.326050
O O15 0.354793 0.000000 0.300175
O O16 0.152159 0.601461 0.575030
O O17 0.306502 0.660734 0.615088
O O18 0.500000 0.000000 0.055411
O O19 0.363890 0.000000 0.000000
O O20 0.500000 0.297556 0.369245
#
# Coordination Sequence:
#
# PCOD9522709 Si02
#       7
#    16  16  16  16  16   8  16
#     4   8  14  26  45  67  93 131 177 222 261 293
#     4   9  17  32  56  84 109 133 176 242 302 340
#     4   9  19  36  56  81 116 152 180 214 275 356
#     4   8  15  30  53  79 109 148 189 233 283 331
#     4  12  22  34  58  84 112 146 189 234 288 335
#     4  11  24  42  65  91 113 135 180 248 306 348
#     4  10  21  34  48  73 111 151 190 226 266 323
#
# _framework density 18.583950999999999
#
# number of rings (size 3 to 8) (size 9 to 14) (size 15 to 20)
#    0.000    2.538    0.769    4.154    0.000    6.154 
#    0.000    1.923    0.000    0.462    0.000    0.000 
#    0.000    0.000    0.000    0.000    0.000    0.000 
#
# Total GULP energy -289579.028777 kJ/mol
# GULP energy per Si atom -5568.827476 kJ/mol
# Density = 1.854165 g / cm^3
# Si number density = 18.583951 Si / 1000 Ang^3
#
#
#
# Elastic Constant Matrix: (Units=GPa)
#
#
# Indices 1 2 3 4 5 6 
#
# 1 86.5378 17.1908 27.7843 0.0000 0.0000 0.0000
# 2 17.1908 36.1751 27.0420 0.0000 0.0000 0.0000
# 3 27.7843 27.0420 106.1205 0.0000 0.0000 0.0000
# 4 0.0000 0.0000 0.0000 -1.9252 0.0000 0.0000
# 5 0.0000 0.0000 0.0000 0.0000 -1.9032 0.0000
# 6 0.0000 0.0000 0.0000 0.0000 0.0000 8.6347
#
#
#
# Elastic Compliance Matrix: (Units=1/GPa)
#
#
# Indices 1 2 3 4 5 6 
#
# 1 0.013197 -0.004557 -0.002294 0.000000 0.000000 0.000000
# 2 -0.004557 0.035721 -0.007910 0.000000 0.000000 0.000000
# 3 -0.002294 -0.007910 0.012039 0.000000 0.000000 0.000000
# 4 0.000000 0.000000 0.000000 -0.519433 0.000000 0.000000
# 5 0.000000 0.000000 0.000000 0.000000 -0.525420 0.000000
# 6 0.000000 0.000000 0.000000 0.000000 0.000000 0.115811
#
#
# Mechanical properties :
#
#
# Convention : Reuss Voigt Hill
#
# Bulk Modulus (GPa) = 31.80926 41.42975 36.61950
# Shear Modulus (GPa) = -6.03803 11.41569 2.68883
#
# Velocity S-wave (km/s) = -1.80447 2.48115 1.20416
# Velocity P-wave (km/s) = 3.57941 5.52719 4.65629
#
# Compressibility (1/GPa) = 0.03143739
#
# Stress axis : x y z
#
# Youngs Moduli (GPa) = 75.77257 27.99449 83.05997
#
# Poissons Ratio (x) = 0.12756 0.19056
# Poissons Ratio (y) = 0.34526 0.65698
# Poissons Ratio (z) = 0.17384 0.22143
#
# Static dielectric constant tensor:
#      x y z
#    x 1.713810 0.000000 0.000000 
#    y 0.000000 1.658510 0.000000 
#    z 0.000000 0.000000 1.651220 
# 
# From -- ./inp_files/69955.got.cif
#   From: 2010.05.17/outbox.cif.g08.bks.cpg/sg71_35_cif.got.tgz:69955.got - 2010.06.03 16:22:01.
