data_PCOD9522493
_publ_section_title
;
Structure prediction by ZEFSAII (Michael W. Deem and Ramdas Pophale) SiO2 
 PCOD9522493
Probable space group: I M M M
;
_chemical_formula_sum "Si O2"
_cell_formula_units_Z 72
_cell_length_a 8.105775
_cell_length_b 23.426724
_cell_length_c 19.627259
_cell_angle_alpha 90.000000
_cell_angle_beta 90.000000
_cell_angle_gamma 90.000000
_cell_volume 3727.054632
_symmetry_space_group_name_H-M "I M M M"
_symmetry_group_IT_number 71
_symmetry_cell_setting 'orthorhombic'
loop_
_space_group_symop_operation_xyz
x,y,z
-x,-y,z
x,-y,-z
-x,y,-z
-x,-y,-z
x,y,-z
-x,y,z
x,-y,z
1/2+x,1/2+y,1/2+z
1/2-x,1/2-y,1/2+z
1/2+x,1/2-y,1/2-z
1/2-x,1/2+y,1/2-z
1/2-x,1/2-y,1/2-z
1/2+x,1/2+y,1/2-z
1/2-x,1/2+y,1/2+z
1/2+x,1/2-y,1/2+z
loop_
_atom_site_type_symbol
_atom_site_label
_atom_site_fract_x
_atom_site_fract_y
_atom_site_fract_z
Si Si1 0.699062 0.398354 0.175075
Si Si2 0.298233 0.435376 0.673381
Si Si3 0.801326 0.832796 0.922609
Si Si4 0.197569 0.230805 0.674433
Si Si5 0.196849 0.500000 0.922759
O O1 0.500000 0.397305 0.177044
O O2 0.754638 0.418312 0.250267
O O3 0.757462 0.333861 0.161734
O O4 0.749540 0.444215 0.119049
O O5 0.500000 0.434728 0.673288
O O6 0.246468 0.500000 0.657706
O O7 0.241569 0.387862 0.619813
O O8 0.759346 0.776220 0.880411
O O9 0.000000 0.836918 0.925237
O O10 0.738766 0.831266 0.000000
O O11 0.250000 0.250000 0.750000
O O12 0.000000 0.230319 0.672343
O O13 0.000000 0.500000 0.925691
O O14 0.262612 0.500000 0.000000
#
# Coordination Sequence:
#
# PCOD9522493 Si02
#       5
#    16  16  16  16   8
#     4  10  20  37  61  85 110 148 196 241 282 340
#     4   9  16  31  57  85 111 142 188 236 278 331
#     4  10  21  37  57  85 121 154 188 237 293 345
#     4  11  22  37  60  87 117 152 197 245 290 346
#     4  11  25  41  57  85 122 151 184 238 298 352
#
# _framework density 19.318203
#
# number of rings (size 3 to 8) (size 9 to 14) (size 15 to 20)
#    0.000    1.889    3.333    1.000    0.000    4.444 
#    0.000    6.667    0.000    0.000    0.000    1.556 
#    0.000    0.000    0.000    0.000    0.000    0.000 
#
# Total GULP energy -201052.796095 kJ/mol
# GULP energy per Si atom -5584.799892 kJ/mol
# Density = 1.927423 g / cm^3
# Si number density = 19.318203 Si / 1000 Ang^3
#
#
#
# Elastic Constant Matrix: (Units=GPa)
#
#
# Indices 1 2 3 4 5 6 
#
# 1 11.0850 10.6146 11.3446 0.0000 0.0000 0.0000
# 2 10.6146 231.9340 126.4993 0.0000 0.0000 0.0000
# 3 11.3446 126.4993 203.3539 0.0000 0.0000 0.0000
# 4 0.0000 0.0000 0.0000 32.0315 0.0000 0.0000
# 5 0.0000 0.0000 0.0000 0.0000 19.7723 0.0000
# 6 0.0000 0.0000 0.0000 0.0000 0.0000 27.5256
#
#
#
# Elastic Compliance Matrix: (Units=1/GPa)
#
#
# Indices 1 2 3 4 5 6 
#
# 1 0.096436 -0.002239 -0.003987 0.000000 0.000000 0.000000
# 2 -0.002239 0.006578 -0.003967 0.000000 0.000000 0.000000
# 3 -0.003987 -0.003967 0.007608 0.000000 0.000000 0.000000
# 4 0.000000 0.000000 0.000000 0.031219 0.000000 0.000000
# 5 0.000000 0.000000 0.000000 0.000000 0.050576 0.000000
# 6 0.000000 0.000000 0.000000 0.000000 0.000000 0.036330
#
#
# Mechanical properties :
#
#
# Convention : Reuss Voigt Hill
#
# Bulk Modulus (GPa) = 11.08206 82.58777 46.83492
# Shear Modulus (GPa) = 17.90762 35.72684 26.81723
#
# Velocity S-wave (km/s) = 3.04794 4.30512 3.72988
# Velocity P-wave (km/s) = 4.25859 8.21925 6.54568
#
# Compressibility (1/GPa) = 0.09023595
#
# Stress axis : x y z
#
# Youngs Moduli (GPa) = 10.36952 152.03239 131.44807
#
# Poissons Ratio (x) = 0.34036 0.52413
# Poissons Ratio (y) = 0.02321 0.52142
# Poissons Ratio (z) = 0.04135 0.60308
#
# Static dielectric constant tensor:
#      x y z
#    x 1.696840 0.000000 0.000000 
#    y 0.000000 1.651310 0.000000 
#    z 0.000000 0.000000 1.639490 
# 
# From -- ./inp_files/7993.got.cif
#   From: 2010.05.17/outbox.cif.g08.bks.cpg/sg71_4_cif.got.tgz:7993.got - 2010.06.03 16:22:01.
