data_PCOD9522856
_publ_section_title
;
Structure prediction by ZEFSAII (Michael W. Deem and Ramdas Pophale) SiO2 
 PCOD9522856
Probable space group: I M M M
;
_chemical_formula_sum "Si O2"
_cell_formula_units_Z 56
_cell_length_a 10.257143
_cell_length_b 30.453805
_cell_length_c 7.856300
_cell_angle_alpha 90.000000
_cell_angle_beta 90.000000
_cell_angle_gamma 90.000000
_cell_volume 2454.064832
_symmetry_space_group_name_H-M "I M M M"
_symmetry_group_IT_number 71
_symmetry_cell_setting 'orthorhombic'
loop_
_space_group_symop_operation_xyz
x,y,z
-x,-y,z
x,-y,-z
-x,y,-z
-x,-y,-z
x,y,-z
-x,y,z
x,-y,z
1/2+x,1/2+y,1/2+z
1/2-x,1/2-y,1/2+z
1/2+x,1/2-y,1/2-z
1/2-x,1/2+y,1/2-z
1/2-x,1/2-y,1/2-z
1/2+x,1/2+y,1/2-z
1/2-x,1/2+y,1/2+z
1/2+x,1/2-y,1/2+z
loop_
_atom_site_type_symbol
_atom_site_label
_atom_site_fract_x
_atom_site_fract_y
_atom_site_fract_z
Si Si1 0.361377 0.856223 0.705245
Si Si2 0.351593 0.288257 0.299287
Si Si3 0.715409 0.049486 0.709107
Si Si4 0.000000 0.052594 0.689652
O O1 0.360518 0.854443 0.500000
O O2 0.500000 0.835668 0.762891
O O3 0.230203 0.832242 0.761064
O O4 0.362406 0.907350 0.756226
O O5 0.366251 0.284630 0.500000
O O6 0.500000 0.286847 0.225999
O O7 0.250000 0.250000 0.250000
O O8 0.719030 0.047904 0.500000
O O9 0.861561 0.060522 0.772089
O O10 0.676939 0.000000 0.762557
O O11 0.000000 0.073240 0.500000
O O12 0.000000 0.000000 0.668075
#
# Coordination Sequence:
#
# PCOD9522856 Si02
#       4
#    16  16  16   8
#     4  10  21  35  55  88 125 159 198 241 288 345
#     4  11  25  44  66  91 117 147 188 236 289 353
#     4   8  14  25  44  74 114 156 197 242 287 331
#     4   7  10  18  34  60  95 137 185 231 273 319
#
# _framework density 22.819282000000001
#
# number of rings (size 3 to 8) (size 9 to 14) (size 15 to 20)
#    0.000    2.714    0.000    3.429    2.000    6.857 
#    0.000    2.857    0.000    0.857    0.000    4.000 
#    0.000    0.000    0.000    0.000    0.000    0.000 
#
# Total GULP energy -155943.806518 kJ/mol
# GULP energy per Si atom -5569.421661 kJ/mol
# Density = 2.276734 g / cm^3
# Si number density = 22.819282 Si / 1000 Ang^3
#
#
#
# Elastic Constant Matrix: (Units=GPa)
#
#
# Indices 1 2 3 4 5 6 
#
# 1 220.4006 79.2238 20.6189 0.0001 0.0003 0.0001
# 2 79.2238 130.5851 7.8304 0.0002 -0.0002 0.0000
# 3 20.6189 7.8304 33.9964 0.0021 -0.0004 -0.0003
# 4 0.0001 0.0002 0.0021 8.8092 0.0000 -0.0002
# 5 0.0003 -0.0002 -0.0004 0.0000 13.2811 0.0003
# 6 0.0001 0.0000 -0.0003 -0.0002 0.0003 29.0759
#
#
#
# Elastic Compliance Matrix: (Units=1/GPa)
#
#
# Indices 1 2 3 4 5 6 
#
# 1 0.006067 -0.003509 -0.002872 0.000001 0.000000 0.000000
# 2 -0.003509 0.009794 -0.000128 0.000000 0.000000 0.000000
# 3 -0.002872 -0.000128 0.031186 -0.000007 0.000001 0.000000
# 4 0.000001 0.000000 -0.000007 0.113518 0.000000 0.000001
# 5 0.000000 0.000000 0.000001 0.000000 0.075295 -0.000001
# 6 0.000000 0.000000 0.000000 0.000001 -0.000001 0.034393
#
#
# Mechanical properties :
#
#
# Convention : Reuss Voigt Hill
#
# Bulk Modulus (GPa) = 29.38499 66.70314 48.04406
# Shear Modulus (GPa) = 16.97148 28.72052 22.84600
#
# Velocity S-wave (km/s) = 2.73011 3.55153 3.16756
# Velocity P-wave (km/s) = 4.77946 6.79061 5.87178
#
# Compressibility (1/GPa) = 0.03403098
#
# Stress axis : x y z
#
# Youngs Moduli (GPa) = 164.82648 102.10239 32.06578
#
# Poissons Ratio (x) = 0.35823 0.09208
# Poissons Ratio (y) = 0.57830 0.00410
# Poissons Ratio (z) = 0.47330 0.01306
#
# Static dielectric constant tensor:
#      x y z
#    x 1.959900 0.000000 0.000000 
#    y 0.000000 1.874070 0.000000 
#    z 0.000000 0.000000 1.894920 
# 
# From -- ./inp_files/3576.got.cif
#   From: 2010.05.17/outbox.cif.g08.bks.cpg/sg71_2_cif.got.tgz:3576.got - 2010.06.03 16:22:01.
