data_PCOD9522807
_publ_section_title
;
Structure prediction by ZEFSAII (Michael W. Deem and Ramdas Pophale) SiO2 
 PCOD9522807
Probable space group: I M M M
;
_chemical_formula_sum "Si O2"
_cell_formula_units_Z 96
_cell_length_a 19.275693
_cell_length_b 15.130380
_cell_length_c 16.986110
_cell_angle_alpha 90.000000
_cell_angle_beta 90.000000
_cell_angle_gamma 90.000000
_cell_volume 4953.974519
_symmetry_space_group_name_H-M "I M M M"
_symmetry_group_IT_number 71
_symmetry_cell_setting 'orthorhombic'
loop_
_space_group_symop_operation_xyz
x,y,z
-x,-y,z
x,-y,-z
-x,y,-z
-x,-y,-z
x,y,-z
-x,y,z
x,-y,z
1/2+x,1/2+y,1/2+z
1/2-x,1/2-y,1/2+z
1/2+x,1/2-y,1/2-z
1/2-x,1/2+y,1/2-z
1/2-x,1/2-y,1/2-z
1/2+x,1/2+y,1/2-z
1/2-x,1/2+y,1/2+z
1/2+x,1/2-y,1/2+z
loop_
_atom_site_type_symbol
_atom_site_label
_atom_site_fract_x
_atom_site_fract_y
_atom_site_fract_z
Si Si1 0.855418 0.103345 0.590532
Si Si2 0.833443 0.101775 0.090508
Si Si3 0.697273 0.897959 0.626804
Si Si4 0.078145 0.737232 0.871777
Si Si5 0.921326 0.262136 0.681513
Si Si6 0.802351 0.602873 0.316591
O O1 0.878286 0.112996 0.500000
O O2 0.773371 0.125045 0.595149
O O3 0.896837 0.168889 0.646575
O O4 0.862364 0.000000 0.613287
O O5 0.897574 0.166893 0.100118
O O6 0.770410 0.132393 0.146006
O O7 0.850149 0.000000 0.110443
O O8 0.809722 0.104321 0.000000
O O9 0.635862 0.833223 0.601422
O O10 0.702293 0.892792 0.721962
O O11 0.682504 0.000000 0.605696
O O12 0.079608 0.739328 0.776487
O O13 0.000000 0.715469 0.896600
O O14 0.865556 0.335914 0.656674
O O15 0.000000 0.282091 0.656575
O O16 0.812765 0.500000 0.338476
#
# Coordination Sequence:
#
# PCOD9522807 Si02
#       6
#    16  16  16  16  16  16
#     4  10  21  36  54  76 102 134 173 215 256 299
#     4  10  21  36  54  76 102 134 173 215 256 299
#     4   9  18  34  56  79 103 133 169 209 253 302
#     4  10  21  35  52  77 107 137 169 207 253 304
#     4  10  21  35  52  77 107 137 169 207 253 304
#     4   9  18  34  56  79 103 133 169 209 253 302
#
# _framework density 19.37838
#
# number of rings (size 3 to 8) (size 9 to 14) (size 15 to 20)
#    0.000    2.333    0.000    2.000    0.000    9.333 
#    0.000    6.667    0.000    0.000    0.000    7.000 
#    0.000    0.000    0.000    0.000    0.000    0.000 
#
# Total GULP energy -268055.600684 kJ/mol
# GULP energy per Si atom -5584.491681 kJ/mol
# Density = 1.933427 g / cm^3
# Si number density = 19.378380 Si / 1000 Ang^3
#
#
#
# Elastic Constant Matrix: (Units=GPa)
#
#
# Indices 1 2 3 4 5 6 
#
# 1 28.6477 -0.0379 4.0098 0.0000 0.0000 0.0000
# 2 -0.0379 29.1158 5.2096 0.0000 0.0000 0.0000
# 3 4.0098 5.2096 19.5980 0.0000 0.0000 0.0000
# 4 0.0000 0.0000 0.0000 12.6415 0.0000 0.0000
# 5 0.0000 0.0000 0.0000 0.0000 -33.5068 0.0000
# 6 0.0000 0.0000 0.0000 0.0000 0.0000 2.9239
#
#
#
# Elastic Compliance Matrix: (Units=1/GPa)
#
#
# Indices 1 2 3 4 5 6 
#
# 1 0.035993 0.001433 -0.007745 0.000000 0.000000 0.000000
# 2 0.001433 0.036118 -0.009894 0.000000 0.000000 0.000000
# 3 -0.007745 -0.009894 0.055240 0.000000 0.000000 0.000000
# 4 0.000000 0.000000 0.000000 0.079105 0.000000 0.000000
# 5 0.000000 0.000000 0.000000 0.000000 -0.029845 0.000000
# 6 0.000000 0.000000 0.000000 0.000000 0.000000 0.342012
#
#
# Mechanical properties :
#
#
# Convention : Reuss Voigt Hill
#
# Bulk Modulus (GPa) = 10.53318 10.63604 10.58461
# Shear Modulus (GPa) = 8.58103 0.95706 4.76904
#
# Velocity S-wave (km/s) = 2.10660 0.70353 1.57046
# Velocity P-wave (km/s) = 3.37110 2.48203 2.96014
#
# Compressibility (1/GPa) = 0.09493813
#
# Stress axis : x y z
#
# Youngs Moduli (GPa) = 27.78337 27.68723 18.10273
#
# Poissons Ratio (x) = -0.03967 0.14021
# Poissons Ratio (y) = -0.03980 0.17911
# Poissons Ratio (z) = 0.21518 0.27394
#
# Static dielectric constant tensor:
#      x y z
#    x 1.653640 0.000000 0.000000 
#    y 0.000000 1.669670 0.000000 
#    z 0.000000 0.000000 1.690980 
# 
# From -- ./inp_files/34511.got.cif
#   From: 2010.05.17/outbox.cif.g08.bks.cpg/sg71_18_cif.got.tgz:34511.got - 2010.06.03 16:22:01.
