data_PCOD9522551
_publ_section_title
;
Structure prediction by ZEFSAII (Michael W. Deem and Ramdas Pophale) SiO2 
 PCOD9522551
Probable space group: I M M M
;
_chemical_formula_sum "Si O2"
_cell_formula_units_Z 84
_cell_length_a 17.078029
_cell_length_b 20.268605
_cell_length_c 13.718990
_cell_angle_alpha 90.000000
_cell_angle_beta 90.000000
_cell_angle_gamma 90.000000
_cell_volume 4748.798536
_symmetry_space_group_name_H-M "I M M M"
_symmetry_group_IT_number 71
_symmetry_cell_setting 'orthorhombic'
loop_
_space_group_symop_operation_xyz
x,y,z
-x,-y,z
x,-y,-z
-x,y,-z
-x,-y,-z
x,y,-z
-x,y,z
x,-y,z
1/2+x,1/2+y,1/2+z
1/2-x,1/2-y,1/2+z
1/2+x,1/2-y,1/2-z
1/2-x,1/2+y,1/2-z
1/2-x,1/2-y,1/2-z
1/2+x,1/2+y,1/2-z
1/2-x,1/2+y,1/2+z
1/2+x,1/2-y,1/2+z
loop_
_atom_site_type_symbol
_atom_site_label
_atom_site_fract_x
_atom_site_fract_y
_atom_site_fract_z
Si Si1 0.686451 0.201420 0.386900
Si Si2 0.588420 0.320034 0.301198
Si Si3 0.865736 0.750953 0.386326
Si Si4 0.297467 0.424080 0.388434
Si Si5 0.137274 0.388410 0.711628
Si Si6 0.000000 0.500000 0.275184
O O1 0.680257 0.182798 0.500000
O O2 0.623845 0.257345 0.358576
O O3 0.772508 0.234022 0.371885
O O4 0.669337 0.140917 0.314267
O O5 0.500000 0.333105 0.331216
O O6 0.592651 0.300612 0.187600
O O7 0.644636 0.380259 0.325345
O O8 0.883750 0.758934 0.500000
O O9 0.885545 0.677223 0.349912
O O10 0.297466 0.399127 0.500000
O O11 0.321837 0.500000 0.388299
O O12 0.210546 0.418591 0.345986
O O13 0.068822 0.441451 0.723244
#
# Coordination Sequence:
#
# PCOD9522551 Si02
#       6
#    16  16  16  16  16   4
#     4  10  20  37  65  90 113 157 209 257 306 356
#     4  11  22  37  58  89 125 152 191 254 309 358
#     4  10  20  38  65  91 115 154 207 256 307 361
#     4  11  22  39  62  83 115 160 196 238 296 364
#     4  11  21  41  58  86 126 161 203 248 297 365
#     4  12  28  40  62  88 134 180 204 244 314 376
#
# _framework density 17.688685
#
# number of rings (size 3 to 8) (size 9 to 14) (size 15 to 20)
#    0.000    1.333    4.762    2.286    5.333    2.286 
#    0.000    5.238    0.000    1.714    0.000    1.333 
#    0.000    0.000    0.000    0.000    0.000    0.000 
#
# Total GULP energy -233948.352222 kJ/mol
# GULP energy per Si atom -5570.198862 kJ/mol
# Density = 1.764843 g / cm^3
# Si number density = 17.688685 Si / 1000 Ang^3
#
#
#
# Elastic Constant Matrix: (Units=GPa)
#
#
# Indices 1 2 3 4 5 6 
#
# 1 88.5783 41.0314 12.2029 0.0000 0.0000 0.0000
# 2 41.0314 106.1051 44.2309 0.0000 0.0000 0.0000
# 3 12.2029 44.2309 104.4878 0.0000 0.0000 0.0000
# 4 0.0000 0.0000 0.0000 17.4775 0.0000 0.0000
# 5 0.0000 0.0000 0.0000 0.0000 0.7864 0.0000
# 6 0.0000 0.0000 0.0000 0.0000 0.0000 36.1503
#
#
#
# Elastic Compliance Matrix: (Units=1/GPa)
#
#
# Indices 1 2 3 4 5 6 
#
# 1 0.013806 -0.005667 0.000786 0.000000 0.000000 0.000000
# 2 -0.005667 0.013770 -0.005167 0.000000 0.000000 0.000000
# 3 0.000786 -0.005167 0.011666 0.000000 0.000000 0.000000
# 4 0.000000 0.000000 0.000000 0.057216 0.000000 0.000000
# 5 0.000000 0.000000 0.000000 0.000000 1.271641 0.000000
# 6 0.000000 0.000000 0.000000 0.000000 0.000000 0.027662
#
#
# Mechanical properties :
#
#
# Convention : Reuss Voigt Hill
#
# Bulk Modulus (GPa) = 52.22743 54.90019 53.56381
# Shear Modulus (GPa) = 3.51558 24.32991 13.92275
#
# Velocity S-wave (km/s) = 1.41131 3.71273 2.80857
# Velocity P-wave (km/s) = 5.67853 7.03445 6.39254
#
# Compressibility (1/GPa) = 0.01914703
#
# Stress axis : x y z
#
# Youngs Moduli (GPa) = 72.43205 72.62190 85.71931
#
# Poissons Ratio (x) = 0.41153 -0.06741
# Poissons Ratio (y) = 0.41045 0.44293
# Poissons Ratio (z) = -0.05696 0.37525
#
# Static dielectric constant tensor:
#      x y z
#    x 1.596930 0.000000 0.000000 
#    y 0.000000 1.592190 0.000000 
#    z 0.000000 0.000000 1.615810 
# 
# From -- ./inp_files/34420.got.cif
#   From: 2010.05.17/outbox.cif.g08.bks.cpg/sg71_18_cif.got.tgz:34420.got - 2010.06.03 16:22:01.
