data_PCOD9522999
_publ_section_title
;
Structure prediction by ZEFSAII (Michael W. Deem and Ramdas Pophale) SiO2 
 PCOD9522999
Probable space group: I M M M
;
_chemical_formula_sum "Si O2"
_cell_formula_units_Z 84
_cell_length_a 26.501511
_cell_length_b 13.458274
_cell_length_c 12.561305
_cell_angle_alpha 90.000000
_cell_angle_beta 90.000000
_cell_angle_gamma 90.000000
_cell_volume 4480.172779
_symmetry_space_group_name_H-M "I M M M"
_symmetry_group_IT_number 71
_symmetry_cell_setting 'orthorhombic'
loop_
_space_group_symop_operation_xyz
x,y,z
-x,-y,z
x,-y,-z
-x,y,-z
-x,-y,-z
x,y,-z
-x,y,z
x,-y,z
1/2+x,1/2+y,1/2+z
1/2-x,1/2-y,1/2+z
1/2+x,1/2-y,1/2-z
1/2-x,1/2+y,1/2-z
1/2-x,1/2-y,1/2-z
1/2+x,1/2+y,1/2-z
1/2-x,1/2+y,1/2+z
1/2+x,1/2-y,1/2+z
loop_
_atom_site_type_symbol
_atom_site_label
_atom_site_fract_x
_atom_site_fract_y
_atom_site_fract_z
Si Si1 0.282320 0.888409 0.284725
Si Si2 0.060319 0.807210 0.380160
Si Si3 0.000000 0.823855 0.000000
Si Si4 0.702822 0.319100 0.617644
Si Si5 0.124814 0.611976 0.622013
Si Si6 0.589026 0.615998 0.657275
O O1 0.285626 0.797803 0.366511
O O2 0.233193 0.873859 0.210927
O O3 0.329809 0.875799 0.204755
O O4 0.283520 0.000000 0.329164
O O5 0.074861 0.840230 0.500000
O O6 0.083735 0.697577 0.363699
O O7 0.080149 0.872688 0.283319
O O8 0.000000 0.803835 0.375756
O O9 0.044486 0.830707 0.907344
O O10 0.718996 0.352004 0.500000
O O11 0.643564 0.339883 0.629770
O O12 0.143678 0.620079 0.500000
O O13 0.104210 0.500000 0.635004
O O14 0.587074 0.500000 0.627708
#
# Coordination Sequence:
#
# PCOD9522999 Si02
#       6
#    16  16   4  16  16  16
#     4  10  21  38  59  86 117 151 189 235 292 352
#     4  10  21  36  55  82 115 150 191 240 295 352
#     4  12  25  40  62  86 117 160 205 256 304 350
#     4  11  23  38  60  88 117 152 196 245 295 352
#     4   9  17  32  56  82 110 145 184 228 280 338
#     4  12  23  38  58  85 117 154 200 247 297 352
#
# _framework density 18.749276999999999
#
# number of rings (size 3 to 8) (size 9 to 14) (size 15 to 20)
#    0.000    1.524    3.810    2.000    0.000    3.048 
#    0.000    2.857    0.000    2.286    0.000    1.333 
#    0.000    0.000    0.000    0.000    0.000    0.000 
#
# Total GULP energy -233909.908261 kJ/mol
# GULP energy per Si atom -5569.283530 kJ/mol
# Density = 1.870660 g / cm^3
# Si number density = 18.749277 Si / 1000 Ang^3
#
#
#
# Elastic Constant Matrix: (Units=GPa)
#
#
# Indices 1 2 3 4 5 6 
#
# 1 55.3974 -4.8392 14.8183 0.0000 0.0000 0.0000
# 2 -4.8392 37.2073 0.9081 0.0000 0.0000 0.0000
# 3 14.8183 0.9081 81.3260 0.0000 0.0000 0.0000
# 4 0.0000 0.0000 0.0000 14.1351 0.0000 0.0000
# 5 0.0000 0.0000 0.0000 0.0000 21.0240 0.0000
# 6 0.0000 0.0000 0.0000 0.0000 0.0000 3.2445
#
#
#
# Elastic Compliance Matrix: (Units=1/GPa)
#
#
# Indices 1 2 3 4 5 6 
#
# 1 0.019222 0.002586 -0.003531 0.000000 0.000000 0.000000
# 2 0.002586 0.027232 -0.000775 0.000000 0.000000 0.000000
# 3 -0.003531 -0.000775 0.012948 0.000000 0.000000 0.000000
# 4 0.000000 0.000000 0.000000 0.070746 0.000000 0.000000
# 5 0.000000 0.000000 0.000000 0.000000 0.047565 0.000000
# 6 0.000000 0.000000 0.000000 0.000000 0.000000 0.308210
#
#
# Mechanical properties :
#
#
# Convention : Reuss Voigt Hill
#
# Bulk Modulus (GPa) = 17.86955 21.74502 19.80728
# Shear Modulus (GPa) = 9.84218 18.55028 14.19623
#
# Velocity S-wave (km/s) = 2.29364 3.14886 2.75464
# Velocity P-wave (km/s) = 4.07012 4.98432 4.55023
#
# Compressibility (1/GPa) = 0.05596112
#
# Stress axis : x y z
#
# Youngs Moduli (GPa) = 52.02400 36.72184 77.23033
#
# Poissons Ratio (x) = -0.09497 0.27272
# Poissons Ratio (y) = -0.13454 0.05988
# Poissons Ratio (z) = 0.18371 0.02847
#
# Static dielectric constant tensor:
#      x y z
#    x 1.614530 0.000000 0.000000 
#    y 0.000000 1.655880 0.000000 
#    z 0.000000 0.000000 1.670580 
# 
# From -- ./inp_files/22006.got.cif
#   From: 2010.05.17/outbox.cif.g08.bks.cpg/sg71_12_cif.got.tgz:22006.got - 2010.06.03 16:22:01.
