data_PCOD9522415
_publ_section_title
;
Structure prediction by ZEFSAII (Michael W. Deem and Ramdas Pophale) SiO2 
 PCOD9522415
Probable space group: I M M M
;
_chemical_formula_sum "Si O2"
_cell_formula_units_Z 104
_cell_length_a 8.622236
_cell_length_b 20.659437
_cell_length_c 28.176159
_cell_angle_alpha 90.000000
_cell_angle_beta 90.000000
_cell_angle_gamma 90.000000
_cell_volume 5019.034458
_symmetry_space_group_name_H-M "I M M M"
_symmetry_group_IT_number 71
_symmetry_cell_setting 'orthorhombic'
loop_
_space_group_symop_operation_xyz
x,y,z
-x,-y,z
x,-y,-z
-x,y,-z
-x,-y,-z
x,y,-z
-x,y,z
x,-y,z
1/2+x,1/2+y,1/2+z
1/2-x,1/2-y,1/2+z
1/2+x,1/2-y,1/2-z
1/2-x,1/2+y,1/2-z
1/2-x,1/2-y,1/2-z
1/2+x,1/2+y,1/2-z
1/2-x,1/2+y,1/2+z
1/2+x,1/2-y,1/2+z
loop_
_atom_site_type_symbol
_atom_site_label
_atom_site_fract_x
_atom_site_fract_y
_atom_site_fract_z
Si Si1 0.820599 0.574849 0.918477
Si Si2 0.828686 0.000000 0.159223
Si Si3 0.186610 0.578306 0.500000
Si Si4 0.821144 0.129416 0.900298
Si Si5 0.686083 0.248604 0.148276
Si Si6 0.182432 0.197906 0.450965
Si Si7 0.181175 0.374194 0.189352
Si Si8 0.817727 0.500000 0.756619
O O1 0.785317 0.500000 0.924560
O O2 0.710149 0.621738 0.947277
O O3 0.807569 0.594087 0.863114
O O4 0.000000 0.586196 0.932514
O O5 0.817517 0.060755 0.125252
O O6 0.704465 0.000000 0.200713
O O7 0.000000 0.000000 0.182505
O O8 0.233403 0.500000 0.500000
O O9 0.243457 0.616190 0.452132
O O10 0.000000 0.579178 0.500000
O O11 0.743912 0.175889 0.859977
O O12 0.000000 0.149675 0.907599
O O13 0.500000 0.249037 0.150429
O O14 0.747940 0.275004 0.097367
O O15 0.743546 0.302547 0.185889
O O16 0.250612 0.223223 0.500000
O O17 0.000000 0.212289 0.450597
O O18 0.245883 0.431602 0.222856
O O19 0.000000 0.364002 0.200873
O O20 0.000000 0.500000 0.770519
#
# Coordination Sequence:
#
# PCOD9522415 Si02
#       8
#    16   8   8  16  16  16  16   8
#     4   9  16  28  47  69  97 133 178 231 282 334
#     4  10  24  43  63  90 125 155 189 246 308 366
#     4  11  23  39  65  99 129 162 205 252 297 355
#     4  11  23  42  64  89 125 166 204 246 301 364
#     4  10  21  36  57  85 116 156 202 251 303 358
#     4   9  19  33  45  64 101 142 180 228 284 337
#     4   9  17  34  57  84 115 151 195 247 304 363
#     4  10  20  36  65  95 119 153 203 255 309 374
#
# _framework density 20.721115999999999
#
# number of rings (size 3 to 8) (size 9 to 14) (size 15 to 20)
#    0.000    2.231    1.538    1.154    1.077    3.692 
#    0.000    2.308    0.000    0.000    0.000    0.000 
#    0.000    0.000    0.000    0.000    0.000    0.000 
#
# Total GULP energy -289505.229105 kJ/mol
# GULP energy per Si atom -5567.408252 kJ/mol
# Density = 2.067395 g / cm^3
# Si number density = 20.721116 Si / 1000 Ang^3
#
#
#
# Elastic Constant Matrix: (Units=GPa)
#
#
# Indices 1 2 3 4 5 6 
#
# 1 45.0162 34.7753 15.3248 0.0000 0.0000 0.0000
# 2 34.7753 107.1795 3.8924 0.0000 0.0000 0.0001
# 3 15.3248 3.8924 35.5818 0.0000 0.0000 0.0000
# 4 0.0000 0.0000 0.0000 48.1489 0.0000 0.0000
# 5 0.0000 0.0000 0.0000 0.0000 19.8185 0.0000
# 6 0.0000 0.0001 0.0000 0.0000 0.0000 -309.7512
#
#
#
# Elastic Compliance Matrix: (Units=1/GPa)
#
#
# Indices 1 2 3 4 5 6 
#
# 1 0.035519 -0.011013 -0.014093 0.000000 0.000000 0.000000
# 2 -0.011013 0.012782 0.003345 0.000000 0.000000 0.000000
# 3 -0.014093 0.003345 0.033808 0.000000 0.000000 0.000000
# 4 0.000000 0.000000 0.000000 0.020769 0.000000 0.000000
# 5 0.000000 0.000000 0.000000 0.000000 0.050458 0.000000
# 6 0.000000 0.000000 0.000000 0.000000 0.000000 -0.003228
#
#
# Mechanical properties :
#
#
# Convention : Reuss Voigt Hill
#
# Bulk Modulus (GPa) = 25.91531 32.86249 29.38890
# Shear Modulus (GPa) = 24.21397 -39.43777 -7.61190
#
# Velocity S-wave (km/s) = 3.42214 -4.36737 -1.91872
# Velocity P-wave (km/s) = 5.30552 3.08838 3.05045
#
# Compressibility (1/GPa) = 0.03858722
#
# Stress axis : x y z
#
# Youngs Moduli (GPa) = 28.15368 78.23604 29.57867
#
# Poissons Ratio (x) = 0.86159 0.41686
# Poissons Ratio (y) = 0.31005 -0.09894
# Poissons Ratio (z) = 0.39677 -0.26169
#
# Static dielectric constant tensor:
#      x y z
#    x 1.750470 0.000000 0.000000 
#    y 0.000000 1.886850 0.000000 
#    z 0.000000 0.000000 1.756760 
# 
# From -- ./inp_files/68343.got.cif
#   From: 2010.05.17/outbox.cif.g08.bks.cpg/sg71_35_cif.got.tgz:68343.got - 2010.06.03 16:22:01.
