data_PCOD9522196
_publ_section_title
;
Structure prediction by ZEFSAII (Michael W. Deem and Ramdas Pophale) SiO2 
 PCOD9522196
Probable space group: I M M M
;
_chemical_formula_sum "Si O2"
_cell_formula_units_Z 104
_cell_length_a 21.116596
_cell_length_b 8.812958
_cell_length_c 26.708360
_cell_angle_alpha 90.000000
_cell_angle_beta 90.000000
_cell_angle_gamma 90.000000
_cell_volume 4970.417080
_symmetry_space_group_name_H-M "I M M M"
_symmetry_group_IT_number 71
_symmetry_cell_setting 'orthorhombic'
loop_
_space_group_symop_operation_xyz
x,y,z
-x,-y,z
x,-y,-z
-x,y,-z
-x,-y,-z
x,y,-z
-x,y,z
x,-y,z
1/2+x,1/2+y,1/2+z
1/2-x,1/2-y,1/2+z
1/2+x,1/2-y,1/2-z
1/2-x,1/2+y,1/2-z
1/2-x,1/2-y,1/2-z
1/2+x,1/2+y,1/2-z
1/2-x,1/2+y,1/2+z
1/2+x,1/2-y,1/2+z
loop_
_atom_site_type_symbol
_atom_site_label
_atom_site_fract_x
_atom_site_fract_y
_atom_site_fract_z
Si Si1 0.926352 0.314850 0.500000
Si Si2 0.568306 0.818124 0.586169
Si Si3 0.709047 0.183570 0.444323
Si Si4 0.251189 0.676023 0.341832
Si Si5 0.102605 0.822581 0.189189
Si Si6 0.423989 0.175404 0.107176
Si Si7 0.131720 0.179910 0.295950
O O1 0.926803 0.500000 0.500000
O O2 0.898282 0.268536 0.446670
O O3 0.000000 0.265403 0.500000
O O4 0.500000 0.763436 0.565957
O O5 0.634902 0.766513 0.562170
O O6 0.571901 0.770931 0.644429
O O7 0.568608 0.000000 0.581598
O O8 0.730750 0.229114 0.500000
O O9 0.746716 0.248891 0.396944
O O10 0.710545 0.000000 0.441381
O O11 0.235468 0.500000 0.347083
O O12 0.321997 0.686707 0.320535
O O13 0.201219 0.752139 0.304817
O O14 0.095415 0.766046 0.246008
O O15 0.083418 0.000000 0.185192
O O16 0.500000 0.174488 0.103404
O O17 0.404098 0.274819 0.153717
O O18 0.404385 0.000000 0.114803
O O19 0.137241 0.000000 0.290581
#
# Coordination Sequence:
#
# PCOD9522196 Si02
#       7
#     8  16  16  16  16  16  16
#     4   7  12  28  53  73  91 121 159 197 236 279
#     4   9  18  32  52  80 110 141 179 218 258 310
#     4   9  18  34  55  78 108 143 175 215 267 315
#     4  10  20  36  56  76  99 132 177 221 261 309
#     4   9  20  36  53  73 101 138 175 215 262 310
#     4   9  18  34  55  77 101 131 168 209 252 300
#     4  11  22  35  52  77 106 135 170 213 264 317
#
# _framework density 20.923798000000001
#
# number of rings (size 3 to 8) (size 9 to 14) (size 15 to 20)
#    0.000    2.692    0.000    2.308    0.000    3.692 
#    1.385    5.000    0.000    1.385    0.000    4.308 
#    0.000    0.000    0.000    0.000    0.000    0.000 
#
# Total GULP energy -290054.340232 kJ/mol
# GULP energy per Si atom -5577.968081 kJ/mol
# Density = 2.087617 g / cm^3
# Si number density = 20.923798 Si / 1000 Ang^3
#
#
#
# Elastic Constant Matrix: (Units=GPa)
#
#
# Indices 1 2 3 4 5 6 
#
# 1 33.7701 -5.3270 -13.0648 0.0000 0.0000 0.0000
# 2 -5.3270 22.8346 8.7968 0.0000 0.0000 0.0000
# 3 -13.0648 8.7968 111.7877 0.0000 0.0000 0.0000
# 4 0.0000 0.0000 0.0000 25.4000 0.0000 0.0000
# 5 0.0000 0.0000 0.0000 0.0000 20.6775 0.0000
# 6 0.0000 0.0000 0.0000 0.0000 0.0000 18.2266
#
#
#
# Elastic Compliance Matrix: (Units=1/GPa)
#
#
# Indices 1 2 3 4 5 6 
#
# 1 0.031838 0.006181 0.003235 0.000000 0.000000 0.000000
# 2 0.006181 0.046362 -0.002926 0.000000 0.000000 0.000000
# 3 0.003235 -0.002926 0.009554 0.000000 0.000000 0.000000
# 4 0.000000 0.000000 0.000000 0.039370 0.000000 0.000000
# 5 0.000000 0.000000 0.000000 0.000000 0.048362 0.000000
# 6 0.000000 0.000000 0.000000 0.000000 0.000000 0.054865
#
#
# Mechanical properties :
#
#
# Convention : Reuss Voigt Hill
#
# Bulk Modulus (GPa) = 9.92707 16.57804 13.25255
# Shear Modulus (GPa) = 19.92433 24.72665 22.32549
#
# Velocity S-wave (km/s) = 3.08917 3.44138 3.27003
# Velocity P-wave (km/s) = 4.18075 4.87146 4.53926
#
# Compressibility (1/GPa) = 0.10073468
#
# Stress axis : x y z
#
# Youngs Moduli (GPa) = 31.40861 21.56924 104.67036
#
# Poissons Ratio (x) = -0.13333 -0.33857
# Poissons Ratio (y) = -0.19415 0.30626
# Poissons Ratio (z) = -0.10159 0.06311
#
# Static dielectric constant tensor:
#      x y z
#    x 1.803160 0.000000 0.000000 
#    y 0.000000 1.707810 0.000000 
#    z 0.000000 0.000000 1.777620 
# 
# From -- ./inp_files/63527.got.cif
#   From: 2010.05.17/outbox.cif.g08.bks.cpg/sg71_32_cif.got.tgz:63527.got - 2010.06.03 16:22:01.
