data_PCOD9522617
_publ_section_title
;
Structure prediction by ZEFSAII (Michael W. Deem and Ramdas Pophale) SiO2 
 PCOD9522617
Probable space group: I M M M
;
_chemical_formula_sum "Si O2"
_cell_formula_units_Z 66
_cell_length_a 19.729486
_cell_length_b 14.839718
_cell_length_c 12.104523
_cell_angle_alpha 90.000000
_cell_angle_beta 90.000000
_cell_angle_gamma 90.000000
_cell_volume 3543.962347
_symmetry_space_group_name_H-M "I M M M"
_symmetry_group_IT_number 71
_symmetry_cell_setting 'orthorhombic'
loop_
_space_group_symop_operation_xyz
x,y,z
-x,-y,z
x,-y,-z
-x,y,-z
-x,-y,-z
x,y,-z
-x,y,z
x,-y,z
1/2+x,1/2+y,1/2+z
1/2-x,1/2-y,1/2+z
1/2+x,1/2-y,1/2-z
1/2-x,1/2+y,1/2-z
1/2-x,1/2-y,1/2-z
1/2+x,1/2+y,1/2-z
1/2-x,1/2+y,1/2+z
1/2+x,1/2-y,1/2+z
loop_
_atom_site_type_symbol
_atom_site_label
_atom_site_fract_x
_atom_site_fract_y
_atom_site_fract_z
Si Si1 0.812904 0.606716 0.266033
Si Si2 0.755252 0.106696 0.000000
Si Si3 0.077388 0.756068 0.757186
Si Si4 0.095398 0.173553 0.000000
Si Si5 0.000000 0.000000 0.000000
Si Si6 0.677411 0.392291 0.131737
O O1 0.825213 0.500000 0.253892
O O2 0.785859 0.625184 0.389207
O O3 0.879884 0.664787 0.251879
O O4 0.751130 0.630961 0.183083
O O5 0.824144 0.161152 0.000000
O O6 0.771570 0.000000 0.000000
O O7 0.075964 0.778919 0.886650
O O8 0.120381 0.833458 0.693429
O O9 0.000000 0.751060 0.715981
O O10 0.058473 0.078165 0.000000
O O11 0.666776 0.500000 0.151856
O O12 0.676318 0.377012 0.000000
#
# Coordination Sequence:
#
# PCOD9522617 Si02
#       6
#    16   8  16   8   2  16
#     4  10  23  42  66  90 121 161 210 265 303 357
#     4  10  20  38  67  95 112 155 216 258 308 350
#     4  12  26  40  61  92 127 164 207 248 311 377
#     4  12  24  38  65  96 124 161 201 255 318 376
#     4  12  24  40  64 100 140 156 186 276 324 382
#     4  10  23  41  64  93 122 161 205 249 311 376
#
# _framework density 18.623222999999999
#
# number of rings (size 3 to 8) (size 9 to 14) (size 15 to 20)
#    0.000    1.212    4.242    0.727    5.091    1.455 
#    0.000    1.212    0.000    3.636    0.000    0.000 
#    0.000    0.000    0.000    0.000    0.000    0.000 
#
# Total GULP energy -184146.095710 kJ/mol
# GULP energy per Si atom -5580.184718 kJ/mol
# Density = 1.858084 g / cm^3
# Si number density = 18.623223 Si / 1000 Ang^3
#
#
#
# Elastic Constant Matrix: (Units=GPa)
#
#
# Indices 1 2 3 4 5 6 
#
# 1 156.3620 82.1250 47.2955 0.0000 0.0000 0.0000
# 2 82.1250 80.9321 41.9413 0.0000 0.0000 0.0000
# 3 47.2955 41.9413 108.3878 0.0000 0.0000 0.0000
# 4 0.0000 0.0000 0.0000 -134.2219 0.0000 0.0000
# 5 0.0000 0.0000 0.0000 0.0000 17.4407 0.0000
# 6 0.0000 0.0000 0.0000 0.0000 0.0000 53.6001
#
#
#
# Elastic Compliance Matrix: (Units=1/GPa)
#
#
# Indices 1 2 3 4 5 6 
#
# 1 0.013742 -0.013556 -0.000751 0.000000 0.000000 0.000000
# 2 -0.013556 0.028827 -0.005240 0.000000 0.000000 0.000000
# 3 -0.000751 -0.005240 0.011581 0.000000 0.000000 0.000000
# 4 0.000000 0.000000 0.000000 -0.007450 0.000000 0.000000
# 5 0.000000 0.000000 0.000000 0.000000 0.057337 0.000000
# 6 0.000000 0.000000 0.000000 0.000000 0.000000 0.018657
#
#
# Mechanical properties :
#
#
# Convention : Reuss Voigt Hill
#
# Bulk Modulus (GPa) = 66.41087 76.48949 71.45018
# Shear Modulus (GPa) = 29.97489 -1.01489 14.48000
#
# Velocity S-wave (km/s) = 4.01626 -0.73901 2.79144
# Velocity P-wave (km/s) = 7.56603 6.35870 6.98849
#
# Compressibility (1/GPa) = 0.01505778
#
# Stress axis : x y z
#
# Youngs Moduli (GPa) = 72.76765 34.68985 86.34549
#
# Poissons Ratio (x) = 0.47025 0.06485
# Poissons Ratio (y) = 0.98642 0.45242
# Poissons Ratio (z) = 0.05465 0.18176
#
# Static dielectric constant tensor:
#      x y z
#    x 1.640350 0.000000 0.000000 
#    y 0.000000 1.646480 0.000000 
#    z 0.000000 0.000000 1.618980 
# 
# From -- ./inp_files/23271.got.cif
#   From: 2010.05.17/outbox.cif.g08.bks.cpg/sg71_12_cif.got.tgz:23271.got - 2010.06.03 16:22:01.
