data_PCOD9522800
_publ_section_title
;
Structure prediction by ZEFSAII (Michael W. Deem and Ramdas Pophale) SiO2 
 PCOD9522800
Probable space group: I M M M
;
_chemical_formula_sum "Si O2"
_cell_formula_units_Z 84
_cell_length_a 14.363367
_cell_length_b 16.397593
_cell_length_c 21.407463
_cell_angle_alpha 90.000000
_cell_angle_beta 90.000000
_cell_angle_gamma 90.000000
_cell_volume 5041.985149
_symmetry_space_group_name_H-M "I M M M"
_symmetry_group_IT_number 71
_symmetry_cell_setting 'orthorhombic'
loop_
_space_group_symop_operation_xyz
x,y,z
-x,-y,z
x,-y,-z
-x,y,-z
-x,-y,-z
x,y,-z
-x,y,z
x,-y,z
1/2+x,1/2+y,1/2+z
1/2-x,1/2-y,1/2+z
1/2+x,1/2-y,1/2-z
1/2-x,1/2+y,1/2-z
1/2-x,1/2-y,1/2-z
1/2+x,1/2+y,1/2-z
1/2-x,1/2+y,1/2+z
1/2+x,1/2-y,1/2+z
loop_
_atom_site_type_symbol
_atom_site_label
_atom_site_fract_x
_atom_site_fract_y
_atom_site_fract_z
Si Si1 0.109535 0.813082 0.235471
Si Si2 0.894286 0.500000 0.898778
Si Si3 0.389500 0.661444 0.000000
Si Si4 0.727930 0.908700 0.175073
Si Si5 0.611633 0.758351 0.871391
Si Si6 0.393173 0.129554 0.707910
Si Si7 0.265207 0.500000 0.000000
O O1 0.171873 0.877471 0.198841
O O2 0.131574 0.796992 0.309272
O O3 0.128920 0.725048 0.203940
O O4 0.000000 0.831367 0.231328
O O5 0.886677 0.420515 0.855163
O O6 0.000000 0.500000 0.925587
O O7 0.806625 0.500000 0.943032
O O8 0.370597 0.712182 0.063569
O O9 0.329291 0.579743 0.000000
O O10 0.500000 0.642329 0.000000
O O11 0.674384 0.839605 0.134883
O O12 0.669570 0.909157 0.239215
O O13 0.730372 0.000000 0.148243
O O14 0.500000 0.777180 0.868494
O O15 0.500000 0.124471 0.729651
#
# Coordination Sequence:
#
# PCOD9522800 Si02
#       7
#    16   8   8  16  16  16   4
#     4   9  19  33  51  76 108 142 171 210 261 315
#     4  10  21  35  51  82 113 136 174 220 264 307
#     4  10  23  41  56  76 106 144 183 217 255 308
#     4  11  20  29  53  81 107 132 174 216 266 320
#     4   9  19  36  55  75 105 140 175 217 260 312
#     4   9  17  31  52  74 105 137 166 209 263 315
#     4  12  26  32  60  76 108 146 186 216 256 300
#
# _framework density 16.660105000000001
#
# number of rings (size 3 to 8) (size 9 to 14) (size 15 to 20)
#    0.000    2.286    0.952    4.286    5.333    1.524 
#    0.000    0.476    0.000    1.714    0.000    0.000 
#    0.000    1.524    0.000    0.000    0.000    0.000 
#
# Total GULP energy -234057.161839 kJ/mol
# GULP energy per Si atom -5572.789568 kJ/mol
# Density = 1.662219 g / cm^3
# Si number density = 16.660105 Si / 1000 Ang^3
#
#
#
# Elastic Constant Matrix: (Units=GPa)
#
#
# Indices 1 2 3 4 5 6 
#
# 1 88.9328 65.0659 46.1163 0.0000 0.0000 0.0000
# 2 65.0659 101.9982 56.8732 0.0000 0.0000 0.0000
# 3 46.1163 56.8732 79.8021 0.0000 0.0000 0.0000
# 4 0.0000 0.0000 0.0000 12.6691 0.0000 0.0000
# 5 0.0000 0.0000 0.0000 0.0000 32.6072 0.0000
# 6 0.0000 0.0000 0.0000 0.0000 0.0000 144.6950
#
#
#
# Elastic Compliance Matrix: (Units=1/GPa)
#
#
# Indices 1 2 3 4 5 6 
#
# 1 0.022019 -0.011535 -0.004504 0.000000 0.000000 0.000000
# 2 -0.011535 0.022312 -0.009235 0.000000 0.000000 0.000000
# 3 -0.004504 -0.009235 0.021715 0.000000 0.000000 0.000000
# 4 0.000000 0.000000 0.000000 0.078932 0.000000 0.000000
# 5 0.000000 0.000000 0.000000 0.000000 0.030668 0.000000
# 6 0.000000 0.000000 0.000000 0.000000 0.000000 0.006911
#
#
# Mechanical properties :
#
#
# Convention : Reuss Voigt Hill
#
# Bulk Modulus (GPa) = 64.52296 67.42710 65.97503
# Shear Modulus (GPa) = 20.98434 44.83942 32.91188
#
# Velocity S-wave (km/s) = 3.55287 5.19352 4.44947
# Velocity P-wave (km/s) = 7.45947 8.74778 8.12918
#
# Compressibility (1/GPa) = 0.01549836
#
# Stress axis : x y z
#
# Youngs Moduli (GPa) = 45.41462 44.81885 46.05010
#
# Poissons Ratio (x) = 0.51699 0.20740
# Poissons Ratio (y) = 0.52386 0.42529
# Poissons Ratio (z) = 0.20454 0.41392
#
# Static dielectric constant tensor:
#      x y z
#    x 1.581920 0.000000 0.000000 
#    y 0.000000 1.607110 0.000000 
#    z 0.000000 0.000000 1.560260 
# 
# From -- ./inp_files/52937.got.cif
#   From: 2010.05.17/outbox.cif.g08.bks.cpg/sg71_27_cif.got.tgz:52937.got - 2010.06.03 16:22:01.
