data_PCOD9522666
_publ_section_title
;
Structure prediction by ZEFSAII (Michael W. Deem and Ramdas Pophale) SiO2 
 PCOD9522666
Probable space group: I M M M
;
_chemical_formula_sum "Si O2"
_cell_formula_units_Z 54
_cell_length_a 22.429770
_cell_length_b 10.605676
_cell_length_c 10.709463
_cell_angle_alpha 90.000000
_cell_angle_beta 90.000000
_cell_angle_gamma 90.000000
_cell_volume 2547.597831
_symmetry_space_group_name_H-M "I M M M"
_symmetry_group_IT_number 71
_symmetry_cell_setting 'orthorhombic'
loop_
_space_group_symop_operation_xyz
x,y,z
-x,-y,z
x,-y,-z
-x,y,-z
-x,-y,-z
x,y,-z
-x,y,z
x,-y,z
1/2+x,1/2+y,1/2+z
1/2-x,1/2-y,1/2+z
1/2+x,1/2-y,1/2-z
1/2-x,1/2+y,1/2-z
1/2-x,1/2-y,1/2-z
1/2+x,1/2+y,1/2-z
1/2-x,1/2+y,1/2+z
1/2+x,1/2-y,1/2+z
loop_
_atom_site_type_symbol
_atom_site_label
_atom_site_fract_x
_atom_site_fract_y
_atom_site_fract_z
Si Si1 0.813877 0.000000 0.254664
Si Si2 0.500000 0.000000 0.500000
Si Si3 0.627635 0.247443 0.224046
Si Si4 0.901743 0.275741 0.000000
Si Si5 0.892193 0.000000 0.000000
Si Si6 0.000000 0.148359 0.650799
Si Si7 0.688543 0.000000 0.862278
O O1 0.835074 0.870211 0.316698
O O2 0.850793 0.000000 0.123333
O O3 0.743884 0.000000 0.231636
O O4 0.448465 0.888354 0.500000
O O5 0.635300 0.219450 0.371651
O O6 0.558837 0.282909 0.201005
O O7 0.648581 0.123303 0.154578
O O8 0.927172 0.131819 0.000000
O O9 0.000000 0.153226 0.500000
O O10 0.000000 0.000000 0.687470
O O11 0.715435 0.000000 0.000000
#
# Coordination Sequence:
#
# PCOD9522666 Si02
#       7
#     8   2  16   8   4   8   8
#     4  10  20  42  65  91 125 174 227 270 318 388
#     4  12  20  34  48  92 130 162 196 256 332 386
#     4  11  23  43  68  97 130 176 225 270 342 388
#     4  10  22  37  63  88 133 164 217 274 321 389
#     4   8  18  37  60  84 114 165 216 270 306 372
#     4  11  23  42  67  93 135 178 222 270 317 401
#     4  12  25  41  66  99 139 173 219 278 335 401
#
# _framework density 21.196438000000001
#
# number of rings (size 3 to 8) (size 9 to 14) (size 15 to 20)
#    0.000    1.333    2.222    3.556    0.000    0.889 
#    0.000    1.481    6.519    0.000    0.000    0.000 
#    0.000    0.000    0.000    0.000    0.000    0.000 
#
# Total GULP energy -150600.392842 kJ/mol
# GULP energy per Si atom -5577.792327 kJ/mol
# Density = 2.114819 g / cm^3
# Si number density = 21.196438 Si / 1000 Ang^3
#
#
#
# Elastic Constant Matrix: (Units=GPa)
#
#
# Indices 1 2 3 4 5 6 
#
# 1 122.5057 69.0453 -5.9663 0.0000 0.0000 0.0000
# 2 69.0453 219.0949 7.4484 0.0000 0.0000 0.0000
# 3 -5.9663 7.4484 50.1573 0.0000 0.0000 0.0000
# 4 0.0000 0.0000 0.0000 -16.5423 0.0000 0.0000
# 5 0.0000 0.0000 0.0000 0.0000 5.2774 0.0000
# 6 0.0000 0.0000 0.0000 0.0000 0.0000-1383.7604
#
#
#
# Elastic Compliance Matrix: (Units=1/GPa)
#
#
# Indices 1 2 3 4 5 6 
#
# 1 0.010064 -0.003229 0.001677 0.000000 0.000000 0.000000
# 2 -0.003229 0.005623 -0.001219 0.000000 0.000000 0.000000
# 3 0.001677 -0.001219 0.020318 0.000000 0.000000 0.000000
# 4 0.000000 0.000000 0.000000 -0.060451 0.000000 0.000000
# 5 0.000000 0.000000 0.000000 0.000000 0.189488 0.000000
# 6 0.000000 0.000000 0.000000 0.000000 0.000000 -0.000723
#
#
# Mechanical properties :
#
#
# Convention : Reuss Voigt Hill
#
# Bulk Modulus (GPa) = 32.82679 59.20140 46.01410
# Shear Modulus (GPa) = 27.77538 -257.58968 -114.90715
#
# Velocity S-wave (km/s) = 3.62384 -11.03580 -7.37077
# Velocity P-wave (km/s) = 5.74719 11.59287 7.11914
#
# Compressibility (1/GPa) = 0.03046292
#
# Stress axis : x y z
#
# Youngs Moduli (GPa) = 99.36188 177.83654 49.21802
#
# Poissons Ratio (x) = 0.57417 -0.08252
# Poissons Ratio (y) = 0.32080 0.06000
# Poissons Ratio (z) = -0.16659 0.21680
#
# Static dielectric constant tensor:
#      x y z
#    x 1.697620 0.000000 0.000000 
#    y 0.000000 1.759860 0.000000 
#    z 0.000000 0.000000 1.786930 
# 
# From -- ./inp_files/25124.got.cif
#   From: 2010.05.17/outbox.cif.g08.bks.cpg/sg71_13_cif.got.tgz:25124.got - 2010.06.03 16:22:01.
