data_PCOD9522316
_publ_section_title
;
Structure prediction by ZEFSAII (Michael W. Deem and Ramdas Pophale) SiO2 
 PCOD9522316
Probable space group: I M M M
;
_chemical_formula_sum "Si O2"
_cell_formula_units_Z 64
_cell_length_a 21.508989
_cell_length_b 8.997331
_cell_length_c 17.628901
_cell_angle_alpha 90.000000
_cell_angle_beta 90.000000
_cell_angle_gamma 90.000000
_cell_volume 3411.606508
_symmetry_space_group_name_H-M "I M M M"
_symmetry_group_IT_number 71
_symmetry_cell_setting 'orthorhombic'
loop_
_space_group_symop_operation_xyz
x,y,z
-x,-y,z
x,-y,-z
-x,y,-z
-x,-y,-z
x,y,-z
-x,y,z
x,-y,z
1/2+x,1/2+y,1/2+z
1/2-x,1/2-y,1/2+z
1/2+x,1/2-y,1/2-z
1/2-x,1/2+y,1/2-z
1/2-x,1/2-y,1/2-z
1/2+x,1/2+y,1/2-z
1/2-x,1/2+y,1/2+z
1/2+x,1/2-y,1/2+z
loop_
_atom_site_type_symbol
_atom_site_label
_atom_site_fract_x
_atom_site_fract_y
_atom_site_fract_z
Si Si1 0.128190 0.673269 0.908339
Si Si2 0.747017 0.323178 0.332459
Si Si3 0.500000 0.671241 0.592426
Si Si4 0.135766 0.173954 0.408178
Si Si5 0.000000 0.819183 0.412120
O O1 0.131132 0.500000 0.886758
O O2 0.186155 0.760942 0.874484
O O3 0.062765 0.745224 0.883871
O O4 0.131036 0.681083 0.000000
O O5 0.744253 0.500000 0.327352
O O6 0.750000 0.250000 0.250000
O O7 0.808436 0.270877 0.376924
O O8 0.500000 0.500000 0.617543
O O9 0.500000 0.671385 0.500000
O O10 0.134876 0.179505 0.500000
O O11 0.067182 0.223499 0.379625
O O12 0.145228 0.000000 0.387362
O O13 0.000000 0.769714 0.500000
O O14 0.000000 0.000000 0.413191
#
# Coordination Sequence:
#
# PCOD9522316 Si02
#       5
#    16  16   8  16   8
#     4  10  20  36  59  85 112 143 180 223 272 325
#     4  12  25  39  54  75 107 145 186 229 275 327
#     4   9  17  31  54  85 116 143 176 220 268 319
#     4   9  17  33  58  85 111 140 176 217 263 318
#     4   7  12  26  52  83 110 137 170 208 252 309
#
# _framework density 18.759488999999999
#
# number of rings (size 3 to 8) (size 9 to 14) (size 15 to 20)
#    0.000    2.250    0.000    5.625    0.000    6.500 
#    0.000    1.875    0.000    3.750    0.000    0.000 
#    0.000    0.000    0.000    0.000    0.000    0.000 
#
# Total GULP energy -178580.579865 kJ/mol
# GULP energy per Si atom -5580.643121 kJ/mol
# Density = 1.871679 g / cm^3
# Si number density = 18.759489 Si / 1000 Ang^3
#
#
#
# Elastic Constant Matrix: (Units=GPa)
#
#
# Indices 1 2 3 4 5 6 
#
# 1 215.1319 106.4582 36.9998 0.0000 0.0000 0.0000
# 2 106.4582 166.4081 37.0024 0.0000 0.0000 0.0000
# 3 36.9998 37.0024 20.7264 0.0000 0.0000 0.0000
# 4 0.0000 0.0000 0.0000 24.6809 0.0000 0.0000
# 5 0.0000 0.0000 0.0000 0.0000 -17.2656 0.0000
# 6 0.0000 0.0000 0.0000 0.0000 0.0000 19.9597
#
#
#
# Elastic Compliance Matrix: (Units=1/GPa)
#
#
# Indices 1 2 3 4 5 6 
#
# 1 0.007529 -0.003032 -0.008029 0.000000 0.000000 0.000000
# 2 -0.003032 0.011186 -0.014558 0.000000 0.000000 0.000000
# 3 -0.008029 -0.014558 0.088571 0.000000 0.000000 0.000000
# 4 0.000000 0.000000 0.000000 0.040517 0.000000 0.000000
# 5 0.000000 0.000000 0.000000 0.000000 -0.057919 0.000000
# 6 0.000000 0.000000 0.000000 0.000000 0.000000 0.050101
#
#
# Mechanical properties :
#
#
# Convention : Reuss Voigt Hill
#
# Bulk Modulus (GPa) = 17.84157 84.79857 51.32007
# Shear Modulus (GPa) = 23.82025 20.26207 22.04116
#
# Velocity S-wave (km/s) = 3.56725 3.29005 3.43145
# Velocity P-wave (km/s) = 5.14766 7.72876 6.56628
#
# Compressibility (1/GPa) = 0.05604889
#
# Stress axis : x y z
#
# Youngs Moduli (GPa) = 132.81396 89.39874 11.29041
#
# Poissons Ratio (x) = 0.27101 0.09065
# Poissons Ratio (y) = 0.40263 0.16437
# Poissons Ratio (z) = 1.06635 1.30148
#
# Static dielectric constant tensor:
#      x y z
#    x 1.657320 0.000000 0.000000 
#    y 0.000000 1.622210 0.000000 
#    z 0.000000 0.000000 1.645100 
# 
# From -- ./inp_files/46802.got.cif
#   From: 2010.05.17/outbox.cif.g08.bks.cpg/sg71_24_cif.got.tgz:46802.got - 2010.06.03 16:22:01.
