data_PCOD9522994
_publ_section_title
;
Structure prediction by ZEFSAII (Michael W. Deem and Ramdas Pophale) SiO2 
 PCOD9522994
Probable space group: I M M M
;
_chemical_formula_sum "Si O2"
_cell_formula_units_Z 104
_cell_length_a 24.757911
_cell_length_b 21.156705
_cell_length_c 9.675443
_cell_angle_alpha 90.000000
_cell_angle_beta 90.000000
_cell_angle_gamma 90.000000
_cell_volume 5067.956595
_symmetry_space_group_name_H-M "I M M M"
_symmetry_group_IT_number 71
_symmetry_cell_setting 'orthorhombic'
loop_
_space_group_symop_operation_xyz
x,y,z
-x,-y,z
x,-y,-z
-x,y,-z
-x,-y,-z
x,y,-z
-x,y,z
x,-y,z
1/2+x,1/2+y,1/2+z
1/2-x,1/2-y,1/2+z
1/2+x,1/2-y,1/2-z
1/2-x,1/2+y,1/2-z
1/2-x,1/2-y,1/2-z
1/2+x,1/2+y,1/2-z
1/2-x,1/2+y,1/2+z
1/2+x,1/2-y,1/2+z
loop_
_atom_site_type_symbol
_atom_site_label
_atom_site_fract_x
_atom_site_fract_y
_atom_site_fract_z
Si Si1 0.439260 0.868570 0.836505
Si Si2 0.936609 0.107029 0.149781
Si Si3 0.342290 0.924884 0.657698
Si Si4 0.233724 0.927035 0.165602
Si Si5 0.293608 0.287165 0.339619
Si Si6 0.915014 0.252636 0.159104
Si Si7 0.433672 0.500000 0.846938
O O1 0.500000 0.895016 0.818752
O O2 0.393620 0.901447 0.744316
O O3 0.438886 0.798150 0.773566
O O4 0.426615 0.869756 0.000000
O O5 0.933705 0.180807 0.177321
O O6 0.000000 0.090796 0.139141
O O7 0.914802 0.061521 0.265671
O O8 0.910677 0.094514 0.000000
O O9 0.339944 0.898730 0.500000
O O10 0.288063 0.913971 0.746137
O O11 0.347120 0.000000 0.646133
O O12 0.199685 0.862491 0.192889
O O13 0.215561 0.000000 0.199063
O O14 0.244431 0.927513 0.000000
O O15 0.277060 0.284334 0.500000
O O16 0.250000 0.250000 0.250000
O O17 0.350497 0.251543 0.326406
O O18 0.928557 0.271419 0.000000
O O19 0.500000 0.500000 0.853771
O O20 0.412618 0.500000 0.000000
#
# Coordination Sequence:
#
# PCOD9522994 Si02
#       7
#    16  16  16  16  16  16   8
#     4  11  24  39  56  81 113 149 187 228 277 334
#     4   9  17  31  51  74 101 135 175 217 263 314
#     4  10  21  37  59  86 113 144 184 228 275 330
#     4   9  18  35  58  83 114 150 187 230 282 339
#     4  10  21  36  55  82 111 143 184 228 278 332
#     4  10  21  37  56  81 109 141 183 229 277 326
#     4   9  17  29  47  71  99 133 171 211 255 305
#
# _framework density 20.521091999999999
#
# number of rings (size 3 to 8) (size 9 to 14) (size 15 to 20)
#    0.000    2.231    0.000    2.538    0.000    8.308 
#    1.385    3.077    0.000    0.000    0.000    0.000 
#    0.000    0.000    0.000    0.000    0.000    0.000 
#
# Total GULP energy -290107.977469 kJ/mol
# GULP energy per Si atom -5578.999567 kJ/mol
# Density = 2.047438 g / cm^3
# Si number density = 20.521092 Si / 1000 Ang^3
#
#
#
# Elastic Constant Matrix: (Units=GPa)
#
#
# Indices 1 2 3 4 5 6 
#
# 1 52.3392 7.6767 25.4239 0.0000 0.0000 0.0000
# 2 7.6767 39.4482 15.5301 0.0000 0.0000 0.0000
# 3 25.4239 15.5301 63.9122 0.0000 0.0000 0.0000
# 4 0.0000 0.0000 0.0000 25.9848 0.0000 0.0000
# 5 0.0000 0.0000 0.0000 0.0000 18.8014 0.0000
# 6 0.0000 0.0000 0.0000 0.0000 0.0000 31.4985
#
#
#
# Elastic Compliance Matrix: (Units=1/GPa)
#
#
# Indices 1 2 3 4 5 6 
#
# 1 0.023718 -0.000997 -0.009193 0.000000 0.000000 0.000000
# 2 -0.000997 0.028073 -0.006425 0.000000 0.000000 0.000000
# 3 -0.009193 -0.006425 0.020864 0.000000 0.000000 0.000000
# 4 0.000000 0.000000 0.000000 0.038484 0.000000 0.000000
# 5 0.000000 0.000000 0.000000 0.000000 0.053187 0.000000
# 6 0.000000 0.000000 0.000000 0.000000 0.000000 0.031748
#
#
# Mechanical properties :
#
#
# Convention : Reuss Voigt Hill
#
# Bulk Modulus (GPa) = 25.36350 28.10678 26.73514
# Shear Modulus (GPa) = 20.62324 22.39486 21.50905
#
# Velocity S-wave (km/s) = 3.17358 3.30708 3.24102
# Velocity P-wave (km/s) = 5.08088 5.32059 5.20211
#
# Compressibility (1/GPa) = 0.03942674
#
# Stress axis : x y z
#
# Youngs Moduli (GPa) = 42.16275 35.62129 47.92836
#
# Poissons Ratio (x) = 0.03550 0.44059
# Poissons Ratio (y) = 0.04202 0.30794
# Poissons Ratio (z) = 0.38758 0.22887
#
# Static dielectric constant tensor:
#      x y z
#    x 1.771130 0.000000 0.000000 
#    y 0.000000 1.763000 0.000000 
#    z 0.000000 0.000000 1.710990 
# 
# From -- ./inp_files/14982.got.cif
#   From: 2010.05.17/outbox.cif.g08.bks.cpg/sg71_8_cif.got.tgz:14982.got - 2010.06.03 16:22:01.
