data_PCOD9522404
_publ_section_title
;
Structure prediction by ZEFSAII (Michael W. Deem and Ramdas Pophale) SiO2 
 PCOD9522404
Probable space group: I M M M
;
_chemical_formula_sum "Si O2"
_cell_formula_units_Z 72
_cell_length_a 14.942262
_cell_length_b 14.828239
_cell_length_c 17.473120
_cell_angle_alpha 90.000000
_cell_angle_beta 90.000000
_cell_angle_gamma 90.000000
_cell_volume 3871.474330
_symmetry_space_group_name_H-M "I M M M"
_symmetry_group_IT_number 71
_symmetry_cell_setting 'orthorhombic'
loop_
_space_group_symop_operation_xyz
x,y,z
-x,-y,z
x,-y,-z
-x,y,-z
-x,-y,-z
x,y,-z
-x,y,z
x,-y,z
1/2+x,1/2+y,1/2+z
1/2-x,1/2-y,1/2+z
1/2+x,1/2-y,1/2-z
1/2-x,1/2+y,1/2-z
1/2-x,1/2-y,1/2-z
1/2+x,1/2+y,1/2-z
1/2-x,1/2+y,1/2+z
1/2+x,1/2-y,1/2+z
loop_
_atom_site_type_symbol
_atom_site_label
_atom_site_fract_x
_atom_site_fract_y
_atom_site_fract_z
Si Si1 0.104752 0.709916 0.857939
Si Si2 0.637020 0.104645 0.200815
Si Si3 0.610159 0.102193 0.500000
Si Si4 0.850853 0.098951 0.187101
Si Si5 0.500000 0.793342 0.092761
Si Si6 0.500000 0.603852 0.818789
O O1 0.118933 0.664056 0.776055
O O2 0.131402 0.813375 0.862433
O O3 0.000000 0.708353 0.870492
O O4 0.146033 0.651054 0.924927
O O5 0.744375 0.100464 0.197469
O O6 0.585254 0.154259 0.131165
O O7 0.606212 0.000000 0.207665
O O8 0.500000 0.101703 0.500000
O O9 0.638714 0.000000 0.500000
O O10 0.912413 0.111184 0.263222
O O11 0.875827 0.000000 0.156103
O O12 0.500000 0.689315 0.123900
O O13 0.500000 0.797016 0.000000
O O14 0.500000 0.500000 0.849711
#
# Coordination Sequence:
#
# PCOD9522404 Si02
#       6
#    16  16   8  16   8   8
#     4  11  19  35  59  83 115 154 190 238 296 353
#     4  11  22  37  60  87 115 156 202 246 297 354
#     4   9  20  34  53  85 117 146 182 235 296 355
#     4  10  20  36  62  89 115 153 202 248 294 353
#     4  12  25  41  62  89 121 162 203 251 300 353
#     4  10  20  40  65  92 121 153 199 253 299 357
#
# _framework density 18.597567000000002
#
# number of rings (size 3 to 8) (size 9 to 14) (size 15 to 20)
#    0.000    1.444    4.444    1.667    0.000    2.000 
#    2.000    0.556    0.000    2.000    0.000    0.000 
#    0.000    0.000    0.000    0.000    0.000    0.000 
#
# Total GULP energy -200519.165648 kJ/mol
# GULP energy per Si atom -5569.976824 kJ/mol
# Density = 1.855524 g / cm^3
# Si number density = 18.597567 Si / 1000 Ang^3
#
#
#
# Elastic Constant Matrix: (Units=GPa)
#
#
# Indices 1 2 3 4 5 6 
#
# 1 86.7154 29.5438 28.8026 0.0000 0.0000 0.0000
# 2 29.5438 210.1909 78.3155 0.0000 0.0000 0.0000
# 3 28.8026 78.3155 113.6325 0.0000 0.0000 0.0000
# 4 0.0000 0.0000 0.0000 23.2751 0.0000 0.0000
# 5 0.0000 0.0000 0.0000 0.0000 -4.4553 0.0000
# 6 0.0000 0.0000 0.0000 0.0000 0.0000 31.0628
#
#
#
# Elastic Compliance Matrix: (Units=1/GPa)
#
#
# Indices 1 2 3 4 5 6 
#
# 1 0.012688 -0.000787 -0.002673 0.000000 0.000000 0.000000
# 2 -0.000787 0.006450 -0.004246 0.000000 0.000000 0.000000
# 3 -0.002673 -0.004246 0.012404 0.000000 0.000000 0.000000
# 4 0.000000 0.000000 0.000000 0.042964 0.000000 0.000000
# 5 0.000000 0.000000 0.000000 0.000000 -0.224451 0.000000
# 6 0.000000 0.000000 0.000000 0.000000 0.000000 0.032193
#
#
# Mechanical properties :
#
#
# Convention : Reuss Voigt Hill
#
# Bulk Modulus (GPa) = 61.99922 75.98474 68.99198
# Shear Modulus (GPa) = -51.56707 28.23498 -11.66604
#
# Velocity S-wave (km/s) = -5.27144 3.90065 -2.50729
# Velocity P-wave (km/s) = 1.90816 7.82514 5.36618
#
# Compressibility (1/GPa) = 0.01612924
#
# Stress axis : x y z
#
# Youngs Moduli (GPa) = 78.81335 155.03279 80.61745
#
# Poissons Ratio (x) = 0.12206 0.21553
# Poissons Ratio (y) = 0.06205 0.34230
# Poissons Ratio (z) = 0.21071 0.65826
#
# Static dielectric constant tensor:
#      x y z
#    x -1.000010 0.000000 0.000000 
#    y 0.000000 1.695210 0.000000 
#    z 0.000000 0.000000 1.649020 
# 
# From -- ./inp_files/44501.got.cif
#   From: 2010.05.17/outbox.cif.g08.bks.cpg/sg71_23_cif.got.tgz:44501.got - 2010.06.03 16:22:01.
