data_PCOD9522188
_publ_section_title
;
Structure prediction by ZEFSAII (Michael W. Deem and Ramdas Pophale) SiO2 
 PCOD9522188
Probable space group: I M M M
;
_chemical_formula_sum "Si O2"
_cell_formula_units_Z 112
_cell_length_a 14.782498
_cell_length_b 16.060193
_cell_length_c 26.839067
_cell_angle_alpha 90.000000
_cell_angle_beta 90.000000
_cell_angle_gamma 90.000000
_cell_volume 6371.856748
_symmetry_space_group_name_H-M "I M M M"
_symmetry_group_IT_number 71
_symmetry_cell_setting 'orthorhombic'
loop_
_space_group_symop_operation_xyz
x,y,z
-x,-y,z
x,-y,-z
-x,y,-z
-x,-y,-z
x,y,-z
-x,y,z
x,-y,z
1/2+x,1/2+y,1/2+z
1/2-x,1/2-y,1/2+z
1/2+x,1/2-y,1/2-z
1/2-x,1/2+y,1/2-z
1/2-x,1/2-y,1/2-z
1/2+x,1/2+y,1/2-z
1/2-x,1/2+y,1/2+z
1/2+x,1/2-y,1/2+z
loop_
_atom_site_type_symbol
_atom_site_label
_atom_site_fract_x
_atom_site_fract_y
_atom_site_fract_z
Si Si1 0.101092 0.180108 0.126518
Si Si2 0.253351 0.407327 0.128044
Si Si3 0.893791 0.167819 0.557547
Si Si4 0.606883 0.169088 0.557446
Si Si5 0.892114 0.340874 0.384555
Si Si6 0.263141 0.757153 0.808684
Si Si7 0.601386 0.500000 0.419276
Si Si8 0.309026 0.000000 0.057563
O O1 0.120079 0.236439 0.077478
O O2 0.174152 0.202484 0.167195
O O3 0.000000 0.202934 0.143164
O O4 0.103183 0.084002 0.112708
O O5 0.249148 0.500000 0.148437
O O6 0.335445 0.395530 0.089538
O O7 0.164572 0.386264 0.095271
O O8 0.267714 0.335995 0.168898
O O9 0.867363 0.166320 0.500000
O O10 0.878970 0.260239 0.579873
O O11 0.000000 0.149753 0.561538
O O12 0.635238 0.160688 0.500000
O O13 0.500000 0.150510 0.560163
O O14 0.844892 0.312018 0.332616
O O15 0.844463 0.419372 0.411509
O O16 0.000000 0.355618 0.379049
O O17 0.250000 0.750000 0.750000
O O18 0.500000 0.500000 0.444025
O O19 0.699384 0.500000 0.445444
O O20 0.343290 0.000000 0.000000
#
# Coordination Sequence:
#
# PCOD9522188 Si02
#       8
#    16  16  16  16  16  16   8   8
#     4   9  18  35  57  80 111 145 184 231 282 343
#     4  10  21  36  52  77 107 137 173 226 273 323
#     4   9  18  33  54  78 109 148 183 218 267 328
#     4   9  18  32  52  77 108 146 179 210 257 320
#     4  10  21  38  57  83 118 153 195 242 285 342
#     4  10  21  40  61  82 104 144 189 239 295 346
#     4  10  20  36  55  84 122 155 189 239 291 341
#     4  12  23  35  58  91 127 166 199 237 290 356
#
# _framework density 17.577293999999998
#
# number of rings (size 3 to 8) (size 9 to 14) (size 15 to 20)
#    0.000    2.286    1.429    1.071    0.000    4.143 
#    2.571    2.857    0.000    0.000    0.000    0.000 
#    0.000    0.000    0.000    0.000    0.000    0.000 
#
# Total GULP energy -312131.364198 kJ/mol
# GULP energy per Si atom -5573.774361 kJ/mol
# Density = 1.753729 g / cm^3
# Si number density = 17.577294 Si / 1000 Ang^3
#
#
#
# Elastic Constant Matrix: (Units=GPa)
#
#
# Indices 1 2 3 4 5 6 
#
# 1 96.5155 37.2369 44.1827 0.0000 0.0000 0.0000
# 2 37.2369 102.1301 33.5812 0.0000 0.0000 0.0000
# 3 44.1827 33.5812 120.3018 0.0000 0.0000 0.0000
# 4 0.0000 0.0000 0.0000 1.6024 0.0000 0.0000
# 5 0.0000 0.0000 0.0000 0.0000 13.7363 0.0000
# 6 0.0000 0.0000 0.0000 0.0000 0.0000 11.0763
#
#
#
# Elastic Compliance Matrix: (Units=1/GPa)
#
#
# Indices 1 2 3 4 5 6 
#
# 1 0.013587 -0.003648 -0.003972 0.000000 0.000000 0.000000
# 2 -0.003648 0.011760 -0.001943 0.000000 0.000000 0.000000
# 3 -0.003972 -0.001943 0.010313 0.000000 0.000000 0.000000
# 4 0.000000 0.000000 0.000000 0.624069 0.000000 0.000000
# 5 0.000000 0.000000 0.000000 0.000000 0.072800 0.000000
# 6 0.000000 0.000000 0.000000 0.000000 0.000000 0.090283
#
#
# Mechanical properties :
#
#
# Convention : Reuss Voigt Hill
#
# Bulk Modulus (GPa) = 60.47654 60.99434 60.73544
# Shear Modulus (GPa) = 5.90006 18.87943 12.38975
#
# Velocity S-wave (km/s) = 1.83410 3.28087 2.65782
# Velocity P-wave (km/s) = 6.24227 7.00915 6.63680
#
# Compressibility (1/GPa) = 0.01653534
#
# Stress axis : x y z
#
# Youngs Moduli (GPa) = 73.60236 85.03165 96.96069
#
# Poissons Ratio (x) = 0.31018 0.38509
# Poissons Ratio (y) = 0.26849 0.18840
# Poissons Ratio (z) = 0.29232 0.16522
#
# Static dielectric constant tensor:
#      x y z
#    x 1.632260 0.000000 0.000000 
#    y 0.000000 1.629690 0.000000 
#    z 0.000000 0.000000 1.566190 
# 
# From -- ./inp_files/65561.got.cif
#   From: 2010.05.17/outbox.cif.g08.bks.cpg/sg71_33_cif.got.tgz:65561.got - 2010.06.03 16:22:01.
