data_PCOD9522356
_publ_section_title
;
Structure prediction by ZEFSAII (Michael W. Deem and Ramdas Pophale) SiO2 
 PCOD9522356
Probable space group: I M M M
;
_chemical_formula_sum "Si O2"
_cell_formula_units_Z 72
_cell_length_a 23.547851
_cell_length_b 7.720843
_cell_length_c 23.309731
_cell_angle_alpha 90.000000
_cell_angle_beta 90.000000
_cell_angle_gamma 90.000000
_cell_volume 4237.924957
_symmetry_space_group_name_H-M "I M M M"
_symmetry_group_IT_number 71
_symmetry_cell_setting 'orthorhombic'
loop_
_space_group_symop_operation_xyz
x,y,z
-x,-y,z
x,-y,-z
-x,y,-z
-x,-y,-z
x,y,-z
-x,y,z
x,-y,z
1/2+x,1/2+y,1/2+z
1/2-x,1/2-y,1/2+z
1/2+x,1/2-y,1/2-z
1/2-x,1/2+y,1/2-z
1/2-x,1/2-y,1/2-z
1/2+x,1/2+y,1/2-z
1/2-x,1/2+y,1/2+z
1/2+x,1/2-y,1/2+z
loop_
_atom_site_type_symbol
_atom_site_label
_atom_site_fract_x
_atom_site_fract_y
_atom_site_fract_z
Si Si1 0.133148 0.000000 0.868900
Si Si2 0.566167 0.500000 0.746726
Si Si3 0.566309 0.798838 0.431721
Si Si4 0.158798 0.798784 0.566294
Si Si5 0.565555 0.798819 0.160068
Si Si6 0.751018 0.000000 0.933057
O O1 0.105280 0.831459 0.897818
O O2 0.112215 0.000000 0.803519
O O3 0.198644 0.000000 0.887202
O O4 0.500000 0.500000 0.725507
O O5 0.573436 0.331655 0.786951
O O6 0.573718 0.774726 0.500000
O O7 0.500000 0.764895 0.418808
O O8 0.577895 0.000000 0.418669
O O9 0.140041 0.777711 0.500000
O O10 0.108833 0.749985 0.609788
O O11 0.211220 0.668284 0.574460
O O12 0.174756 0.000000 0.574589
O O13 0.500000 0.777820 0.140872
O O14 0.573721 0.000000 0.176243
O O15 0.771830 0.000000 0.000000
#
# Coordination Sequence:
#
# PCOD9522356 Si02
#       6
#     8   8  16  16  16   8
#     4  12  22  35  56  78 108 158 198 232 270 325
#     4  10  22  38  55  83 115 147 192 236 278 328
#     4   9  18  32  52  80 109 136 176 237 301 350
#     4  10  20  36  60  85 114 147 179 227 287 343
#     4  10  20  36  60  85 114 147 179 227 287 343
#     4  10  22  38  55  83 115 147 192 236 278 328
#
# _framework density 16.989446999999998
#
# number of rings (size 3 to 8) (size 9 to 14) (size 15 to 20)
#    0.000    2.000    2.222    2.667    0.000    3.111 
#    0.000    7.778    0.000    0.000    0.000    0.000 
#    0.000    0.000    0.000    0.000    0.000    0.000 
#
# Total GULP energy -200876.509159 kJ/mol
# GULP energy per Si atom -5579.903032 kJ/mol
# Density = 1.695078 g / cm^3
# Si number density = 16.989447 Si / 1000 Ang^3
#
#
#
# Elastic Constant Matrix: (Units=GPa)
#
#
# Indices 1 2 3 4 5 6 
#
# 1 98.4891 66.4829 83.0032 0.0000 0.0000 0.0000
# 2 66.4829 122.6443 59.2369 0.0000 0.0000 0.0000
# 3 83.0032 59.2369 80.7109 0.0000 0.0000 0.0000
# 4 0.0000 0.0000 0.0000 24.7945 0.0000 0.0000
# 5 0.0000 0.0000 0.0000 0.0000 34.0024 0.0000
# 6 0.0000 0.0000 0.0000 0.0000 0.0000 25.5626
#
#
#
# Elastic Compliance Matrix: (Units=1/GPa)
#
#
# Indices 1 2 3 4 5 6 
#
# 1 0.078508 -0.005517 -0.076688 0.000000 0.000000 0.000000
# 2 -0.005517 0.013019 -0.003881 0.000000 0.000000 0.000000
# 3 -0.076688 -0.003881 0.094104 0.000000 0.000000 0.000000
# 4 0.000000 0.000000 0.000000 0.040332 0.000000 0.000000
# 5 0.000000 0.000000 0.000000 0.000000 0.029410 0.000000
# 6 0.000000 0.000000 0.000000 0.000000 0.000000 0.039120
#
#
# Mechanical properties :
#
#
# Convention : Reuss Voigt Hill
#
# Bulk Modulus (GPa) = 74.30414 79.92113 77.11263
# Shear Modulus (GPa) = 10.61231 23.07999 16.84615
#
# Velocity S-wave (km/s) = 2.50199 3.68977 3.15233
# Velocity P-wave (km/s) = 7.22337 8.08061 7.66398
#
# Compressibility (1/GPa) = 0.01345820
#
# Stress axis : x y z
#
# Youngs Moduli (GPa) = 12.73763 76.81028 10.62649
#
# Poissons Ratio (x) = 0.42378 0.81492
# Poissons Ratio (y) = 0.07028 0.04124
# Poissons Ratio (z) = 0.97682 0.29813
#
# Static dielectric constant tensor:
#      x y z
#    x 1.555340 0.000000 0.000000 
#    y 0.000000 1.580510 0.000000 
#    z 0.000000 0.000000 1.557130 
# 
# From -- ./inp_files/54733.got.cif
#   From: 2010.05.17/outbox.cif.g08.bks.cpg/sg71_28_cif.got.tgz:54733.got - 2010.06.03 16:22:01.
