data_PCOD9522811
_publ_section_title
;
Structure prediction by ZEFSAII (Michael W. Deem and Ramdas Pophale) SiO2 
 PCOD9522811
Probable space group: I M M M
;
_chemical_formula_sum "Si O2"
_cell_formula_units_Z 88
_cell_length_a 13.635682
_cell_length_b 17.597294
_cell_length_c 19.563232
_cell_angle_alpha 90.000000
_cell_angle_beta 90.000000
_cell_angle_gamma 90.000000
_cell_volume 4694.219137
_symmetry_space_group_name_H-M "I M M M"
_symmetry_group_IT_number 71
_symmetry_cell_setting 'orthorhombic'
loop_
_space_group_symop_operation_xyz
x,y,z
-x,-y,z
x,-y,-z
-x,y,-z
-x,-y,-z
x,y,-z
-x,y,z
x,-y,z
1/2+x,1/2+y,1/2+z
1/2-x,1/2-y,1/2+z
1/2+x,1/2-y,1/2-z
1/2-x,1/2+y,1/2-z
1/2-x,1/2-y,1/2-z
1/2+x,1/2+y,1/2-z
1/2-x,1/2+y,1/2+z
1/2+x,1/2-y,1/2+z
loop_
_atom_site_type_symbol
_atom_site_label
_atom_site_fract_x
_atom_site_fract_y
_atom_site_fract_z
Si Si1 0.297161 0.408588 0.423269
Si Si2 0.609028 0.909385 0.161455
Si Si3 0.500000 0.592393 0.079785
Si Si4 0.886437 0.327963 0.191632
Si Si5 0.800560 0.089857 0.657434
Si Si6 0.611967 0.348722 0.707458
O O1 0.311509 0.379850 0.500000
O O2 0.297670 0.500000 0.425687
O O3 0.193131 0.384533 0.390534
O O4 0.375250 0.382012 0.367870
O O5 0.500000 0.895845 0.133263
O O6 0.615170 0.868506 0.234359
O O7 0.619819 0.000000 0.172905
O O8 0.500000 0.500000 0.084504
O O9 0.397568 0.616518 0.115792
O O10 0.500000 0.613426 0.000000
O O11 0.801979 0.366504 0.145794
O O12 0.861399 0.239826 0.203699
O O13 0.000000 0.332996 0.166535
O O14 0.825775 0.105790 0.736981
O O15 0.787716 0.000000 0.646036
O O16 0.500000 0.354511 0.729881
#
# Coordination Sequence:
#
# PCOD9522811 Si02
#       6
#    16  16   8  16  16  16
#     4  10  21  35  52  77 110 149 192 235 278 329
#     4   9  17  31  53  80 111 145 182 228 279 336
#     4   9  20  38  60  88 115 139 174 228 293 348
#     4  10  21  35  56  84 114 148 187 239 287 330
#     4  11  20  34  60  86 112 146 186 232 282 343
#     4  11  22  36  55  80 111 147 193 237 283 338
#
# _framework density 18.746462000000001
#
# number of rings (size 3 to 8) (size 9 to 14) (size 15 to 20)
#    0.000    1.909    2.727    1.636    0.000    2.909 
#    0.000    3.636    0.000    1.636    0.000    2.545 
#    0.000    0.000    0.000    0.000    0.000    0.000 
#
# Total GULP energy -245400.318249 kJ/mol
# GULP energy per Si atom -5577.279960 kJ/mol
# Density = 1.870379 g / cm^3
# Si number density = 18.746462 Si / 1000 Ang^3
#
#
#
# Elastic Constant Matrix: (Units=GPa)
#
#
# Indices 1 2 3 4 5 6 
#
# 1 79.5188 13.9671 21.1511 0.0000 0.0000 0.0000
# 2 13.9671 5.9782 1.0419 0.0000 0.0000 0.0000
# 3 21.1511 1.0419 71.1298 0.0000 0.0000 0.0000
# 4 0.0000 0.0000 0.0000 -19.9915 0.0000 0.0000
# 5 0.0000 0.0000 0.0000 0.0000 21.9806 0.0000
# 6 0.0000 0.0000 0.0000 0.0000 0.0000 27.2723
#
#
#
# Elastic Compliance Matrix: (Units=1/GPa)
#
#
# Indices 1 2 3 4 5 6 
#
# 1 0.023838 -0.054598 -0.006289 0.000000 0.000000 0.000000
# 2 -0.054598 0.292751 0.011947 0.000000 0.000000 0.000000
# 3 -0.006289 0.011947 0.015754 0.000000 0.000000 0.000000
# 4 0.000000 0.000000 0.000000 -0.050021 0.000000 0.000000
# 5 0.000000 0.000000 0.000000 0.000000 0.045495 0.000000
# 6 0.000000 0.000000 0.000000 0.000000 0.000000 0.036667
#
#
# Mechanical properties :
#
#
# Convention : Reuss Voigt Hill
#
# Bulk Modulus (GPa) = 4.26505 25.43855 14.85180
# Shear Modulus (GPa) = 9.25037 13.88339 11.56688
#
# Velocity S-wave (km/s) = 2.22377 2.72433 2.48668
# Velocity P-wave (km/s) = 2.97886 4.84718 4.02298
#
# Compressibility (1/GPa) = 0.23446367
#
# Stress axis : x y z
#
# Youngs Moduli (GPa) = 41.94914 3.41587 63.47651
#
# Poissons Ratio (x) = 0.18650 0.39919
# Poissons Ratio (y) = 2.29036 -0.75837
# Poissons Ratio (z) = 0.26381 -0.04081
#
# Static dielectric constant tensor:
#      x y z
#    x 1.707130 0.000000 0.000000 
#    y 0.000000 1.635650 0.000000 
#    z 0.000000 0.000000 1.619170 
# 
# From -- ./inp_files/53135.got.cif
#   From: 2010.05.17/outbox.cif.g08.bks.cpg/sg71_27_cif.got.tgz:53135.got - 2010.06.03 16:22:01.
