data_PCOD9522968
_publ_section_title
;
Structure prediction by ZEFSAII (Michael W. Deem and Ramdas Pophale) SiO2 
 PCOD9522968
Probable space group: I M M M
;
_chemical_formula_sum "Si O2"
_cell_formula_units_Z 96
_cell_length_a 25.802636
_cell_length_b 20.827181
_cell_length_c 7.405426
_cell_angle_alpha 90.000000
_cell_angle_beta 90.000000
_cell_angle_gamma 90.000000
_cell_volume 3979.647571
_symmetry_space_group_name_H-M "I M M M"
_symmetry_group_IT_number 71
_symmetry_cell_setting 'orthorhombic'
loop_
_space_group_symop_operation_xyz
x,y,z
-x,-y,z
x,-y,-z
-x,y,-z
-x,-y,-z
x,y,-z
-x,y,z
x,-y,z
1/2+x,1/2+y,1/2+z
1/2-x,1/2-y,1/2+z
1/2+x,1/2-y,1/2-z
1/2-x,1/2+y,1/2-z
1/2-x,1/2-y,1/2-z
1/2+x,1/2+y,1/2-z
1/2-x,1/2+y,1/2+z
1/2+x,1/2-y,1/2+z
loop_
_atom_site_type_symbol
_atom_site_label
_atom_site_fract_x
_atom_site_fract_y
_atom_site_fract_z
Si Si1 0.333278 0.069898 0.779678
Si Si2 0.062098 0.759180 0.701476
Si Si3 0.441061 0.880772 0.779069
Si Si4 0.249196 0.326319 0.715966
Si Si5 0.557678 0.598218 0.705060
Si Si6 0.168938 0.930106 0.779078
O O1 0.393546 0.074895 0.726824
O O2 0.300089 0.131539 0.719603
O O3 0.312924 0.000000 0.723847
O O4 0.332017 0.071036 0.000000
O O5 0.084710 0.765230 0.500000
O O6 0.076250 0.690732 0.780917
O O7 0.069487 0.825566 0.800687
O O8 0.000000 0.753292 0.684849
O O9 0.500000 0.895545 0.720410
O O10 0.442882 0.878780 0.000000
O O11 0.249138 0.331408 0.500000
O O12 0.250000 0.250000 0.750000
O O13 0.298563 0.368192 0.780823
O O14 0.554317 0.574618 0.500000
O O15 0.500000 0.589217 0.786365
O O16 0.609723 0.570881 0.787988
O O17 0.191747 0.000000 0.733566
O O18 0.167054 0.927143 0.000000
#
# Coordination Sequence:
#
# PCOD9522968 Si02
#       6
#    16  16  16  16  16  16
#     4   9  17  29  47  71  98 129 165 202 240 288
#     4   8  14  25  41  62  93 132 163 190 233 286
#     4   8  14  24  40  66  98 128 158 194 238 285
#     4  10  21  36  55  77  98 126 165 207 247 290
#     4   9  17  28  45  71  98 124 160 203 242 282
#     4   9  18  33  52  73 100 132 163 200 247 294
#
# _framework density 24.122737999999998
#
# number of rings (size 3 to 8) (size 9 to 14) (size 15 to 20)
#    0.000    3.167    0.000    1.500    2.333    2.667 
#    0.000    3.333    0.000    3.500    0.000    2.333 
#    0.000    0.000    0.000    8.000    0.000    8.333 
#
# Total GULP energy -267578.250904 kJ/mol
# GULP energy per Si atom -5574.546894 kJ/mol
# Density = 2.406783 g / cm^3
# Si number density = 24.122738 Si / 1000 Ang^3
#
#
#
# Elastic Constant Matrix: (Units=GPa)
#
#
# Indices 1 2 3 4 5 6 
#
# 1 175.4549 97.8624 6.7608 0.0000 0.0000 0.0000
# 2 97.8624 205.1318 4.0706 0.0000 0.0000 0.0000
# 3 6.7608 4.0706 78.4504 0.0000 0.0000 0.0000
# 4 0.0000 0.0000 0.0000 4.5494 0.0000 0.0000
# 5 0.0000 0.0000 0.0000 0.0000 -7.1432 0.0000
# 6 0.0000 0.0000 0.0000 0.0000 0.0000 97.9352
#
#
#
# Elastic Compliance Matrix: (Units=1/GPa)
#
#
# Indices 1 2 3 4 5 6 
#
# 1 0.007784 -0.003704 -0.000479 0.000000 0.000000 0.000000
# 2 -0.003704 0.006642 -0.000025 0.000000 0.000000 0.000000
# 3 -0.000479 -0.000025 0.012789 0.000000 0.000000 0.000000
# 4 0.000000 0.000000 0.000000 0.219809 0.000000 0.000000
# 5 0.000000 0.000000 0.000000 0.000000 -0.139994 0.000000
# 6 0.000000 0.000000 0.000000 0.000000 0.000000 0.010211
#
#
# Mechanical properties :
#
#
# Convention : Reuss Voigt Hill
#
# Bulk Modulus (GPa) = 53.19224 75.15830 64.17527
# Shear Modulus (GPa) = 37.90036 42.42451 40.16243
#
# Velocity S-wave (km/s) = 3.96807 4.19823 4.08477
# Velocity P-wave (km/s) = 6.56450 7.39760 6.99346
#
# Compressibility (1/GPa) = 0.01879973
#
# Stress axis : x y z
#
# Youngs Moduli (GPa) = 128.47130 150.54658 78.18933
#
# Poissons Ratio (x) = 0.55762 0.03742
# Poissons Ratio (y) = 0.47585 0.00199
# Poissons Ratio (z) = 0.06149 0.00383
#
# Static dielectric constant tensor:
#      x y z
#    x 1.924550 0.000000 0.000000 
#    y 0.000000 1.942230 0.000000 
#    z 0.000000 0.000000 1.958440 
# 
# From -- ./inp_files/10815.got.cif
#   From: 2010.05.17/outbox.cif.g08.bks.cpg/sg71_6_cif.got.tgz:10815.got - 2010.06.03 16:22:01.
