data_PCOD9522443
_publ_section_title
;
Structure prediction by ZEFSAII (Michael W. Deem and Ramdas Pophale) SiO2 
 PCOD9522443
Probable space group: I M M M
;
_chemical_formula_sum "Si O2"
_cell_formula_units_Z 112
_cell_length_a 27.538320
_cell_length_b 13.426960
_cell_length_c 13.536505
_cell_angle_alpha 90.000000
_cell_angle_beta 90.000000
_cell_angle_gamma 90.000000
_cell_volume 5005.202875
_symmetry_space_group_name_H-M "I M M M"
_symmetry_group_IT_number 71
_symmetry_cell_setting 'orthorhombic'
loop_
_space_group_symop_operation_xyz
x,y,z
-x,-y,z
x,-y,-z
-x,y,-z
-x,-y,-z
x,y,-z
-x,y,z
x,-y,z
1/2+x,1/2+y,1/2+z
1/2-x,1/2-y,1/2+z
1/2+x,1/2-y,1/2-z
1/2-x,1/2+y,1/2-z
1/2-x,1/2-y,1/2-z
1/2+x,1/2+y,1/2-z
1/2-x,1/2+y,1/2+z
1/2+x,1/2-y,1/2+z
loop_
_atom_site_type_symbol
_atom_site_label
_atom_site_fract_x
_atom_site_fract_y
_atom_site_fract_z
Si Si1 0.156199 0.688079 0.107041
Si Si2 0.842922 0.879676 0.392528
Si Si3 0.409967 0.120261 0.108600
Si Si4 0.193598 0.381383 0.314016
Si Si5 0.946923 0.302796 0.813758
Si Si6 0.053921 0.116534 0.305939
Si Si7 0.697467 0.380411 0.321779
O O1 0.185106 0.642623 0.198949
O O2 0.099553 0.664230 0.124893
O O3 0.163487 0.807223 0.116587
O O4 0.172412 0.653117 0.000000
O O5 0.826598 0.842914 0.500000
O O6 0.899945 0.856869 0.373127
O O7 0.813585 0.853731 0.293319
O O8 0.839992 0.000000 0.395809
O O9 0.354175 0.154617 0.128199
O O10 0.440645 0.154218 0.202620
O O11 0.409867 0.000000 0.109504
O O12 0.426625 0.152158 0.000000
O O13 0.193494 0.500000 0.325144
O O14 0.247185 0.351049 0.346343
O O15 0.943759 0.184811 0.791100
O O16 0.000000 0.328226 0.853252
O O17 0.000000 0.131953 0.350296
O O18 0.058531 0.000000 0.282330
O O19 0.690626 0.500000 0.334616
#
# Coordination Sequence:
#
# PCOD9522443 Si02
#       7
#    16  16  16  16  16  16  16
#     4  11  23  38  57  83 112 147 194 238 278 322
#     4   9  17  29  47  73 105 141 179 219 268 326
#     4   9  19  37  60  86 114 141 174 223 285 350
#     4   9  20  39  61  83 112 148 184 229 283 335
#     4  10  21  37  56  81 111 147 188 229 278 332
#     4   9  17  31  51  73 103 142 181 223 270 323
#     4  10  20  37  58  83 116 149 186 230 278 332
#
# _framework density 22.376715000000001
#
# number of rings (size 3 to 8) (size 9 to 14) (size 15 to 20)
#    0.000    2.429    1.429    0.429    0.000    3.429 
#    0.000    6.429    0.000    0.000    0.000    7.000 
#    0.000    0.000    0.000    0.000    0.000    0.000 
#
# Total GULP energy -312662.678838 kJ/mol
# GULP energy per Si atom -5583.262122 kJ/mol
# Density = 2.232578 g / cm^3
# Si number density = 22.376715 Si / 1000 Ang^3
#
#
#
# Elastic Constant Matrix: (Units=GPa)
#
#
# Indices 1 2 3 4 5 6 
#
# 1 88.3826 7.5617 -11.1109 0.0000 0.0000 0.0000
# 2 7.5617 26.1801 -14.9807 0.0000 0.0000 0.0000
# 3 -11.1109 -14.9807 45.0193 0.0000 0.0000 0.0000
# 4 0.0000 0.0000 0.0000 14.9707 0.0000 0.0000
# 5 0.0000 0.0000 0.0000 0.0000 -0.7540 0.0000
# 6 0.0000 0.0000 0.0000 0.0000 0.0000 22.6678
#
#
#
# Elastic Compliance Matrix: (Units=1/GPa)
#
#
# Indices 1 2 3 4 5 6 
#
# 1 0.011774 -0.002147 0.002191 0.000000 0.000000 0.000000
# 2 -0.002147 0.047572 0.015300 0.000000 0.000000 0.000000
# 3 0.002191 0.015300 0.027845 0.000000 0.000000 0.000000
# 4 0.000000 0.000000 0.000000 0.066797 0.000000 0.000000
# 5 0.000000 0.000000 0.000000 0.000000 -1.326196 0.000000
# 6 0.000000 0.000000 0.000000 0.000000 0.000000 0.044115
#
#
# Mechanical properties :
#
#
# Convention : Reuss Voigt Hill
#
# Bulk Modulus (GPa) = 8.48313 13.61357 11.04835
# Shear Modulus (GPa) = -4.46632 19.25103 7.39235
#
# Velocity S-wave (km/s) = -1.41432 2.93629 1.81955
# Velocity P-wave (km/s) = 1.06405 4.19438 3.05982
#
# Compressibility (1/GPa) = 0.11788103
#
# Stress axis : x y z
#
# Youngs Moduli (GPa) = 84.93576 21.02074 35.91318
#
# Poissons Ratio (x) = 0.04512 -0.07870
# Poissons Ratio (y) = 0.18233 -0.54949
# Poissons Ratio (z) = -0.18613 -0.32163
#
# Static dielectric constant tensor:
#      x y z
#    x 1.823420 0.000000 0.000000 
#    y 0.000000 1.887290 0.000000 
#    z 0.000000 0.000000 1.787760 
# 
# From -- ./inp_files/30047.got.cif
#   From: 2010.05.17/outbox.cif.g08.bks.cpg/sg71_16_cif.got.tgz:30047.got - 2010.06.03 16:22:01.
