data_PCOD9522662
_publ_section_title
;
Structure prediction by ZEFSAII (Michael W. Deem and Ramdas Pophale) SiO2 
 PCOD9522662
Probable space group: I M M M
;
_chemical_formula_sum "Si O2"
_cell_formula_units_Z 52
_cell_length_a 15.270347
_cell_length_b 14.707475
_cell_length_c 11.365400
_cell_angle_alpha 90.000000
_cell_angle_beta 90.000000
_cell_angle_gamma 90.000000
_cell_volume 2552.535260
_symmetry_space_group_name_H-M "I M M M"
_symmetry_group_IT_number 71
_symmetry_cell_setting 'orthorhombic'
loop_
_space_group_symop_operation_xyz
x,y,z
-x,-y,z
x,-y,-z
-x,y,-z
-x,-y,-z
x,y,-z
-x,y,z
x,-y,z
1/2+x,1/2+y,1/2+z
1/2-x,1/2-y,1/2+z
1/2+x,1/2-y,1/2-z
1/2-x,1/2+y,1/2-z
1/2-x,1/2-y,1/2-z
1/2+x,1/2+y,1/2-z
1/2-x,1/2+y,1/2+z
1/2+x,1/2-y,1/2+z
loop_
_atom_site_type_symbol
_atom_site_label
_atom_site_fract_x
_atom_site_fract_y
_atom_site_fract_z
Si Si1 0.660092 0.647495 0.202011
Si Si2 0.317639 0.855489 0.133810
Si Si3 0.000000 0.205990 0.862796
Si Si4 0.126858 0.000000 0.500000
Si Si5 0.500000 0.100242 0.748500
O O1 0.681558 0.745497 0.144401
O O2 0.745684 0.613498 0.271749
O O3 0.584638 0.666380 0.297273
O O4 0.629188 0.578788 0.102909
O O5 0.413355 0.888852 0.172328
O O6 0.297626 0.881671 0.000000
O O7 0.000000 0.315011 0.840712
O O8 0.000000 0.185958 0.000000
O O9 0.500000 0.000000 0.693365
#
# Coordination Sequence:
#
# PCOD9522662 Si02
#       5
#    16  16   8   4   8
#     4  10  23  39  66  93 128 169 212 265 321 376
#     4  10  20  41  62  91 132 174 207 259 328 378
#     4  10  22  45  67  94 128 171 210 257 335 387
#     4  12  24  45  64 101 118 170 224 275 292 401
#     4  10  23  39  62  99 129 166 218 258 316 380
#
# _framework density 20.371903
#
# number of rings (size 3 to 8) (size 9 to 14) (size 15 to 20)
#    0.000    1.846    1.538    1.385    2.154    3.385 
#    2.769    3.077    0.000    0.000    0.000    0.000 
#    0.000    0.000    0.000    0.000    0.000    0.000 
#
# Total GULP energy -144781.694713 kJ/mol
# GULP energy per Si atom -5568.526720 kJ/mol
# Density = 2.032554 g / cm^3
# Si number density = 20.371903 Si / 1000 Ang^3
#
#
#
# Elastic Constant Matrix: (Units=GPa)
#
#
# Indices 1 2 3 4 5 6 
#
# 1 104.9561 18.3762 46.6523 0.0000 0.0000 0.0000
# 2 18.3762 117.3856 46.4621 0.0000 0.0000 0.0000
# 3 46.6523 46.4621 173.2899 0.0000 0.0000 0.0000
# 4 0.0000 0.0000 0.0000 38.4366 0.0000 0.0000
# 5 0.0000 0.0000 0.0000 0.0000 -2.0642 0.0000
# 6 0.0000 0.0000 0.0000 0.0000 0.0000 -23.1187
#
#
#
# Elastic Compliance Matrix: (Units=1/GPa)
#
#
# Indices 1 2 3 4 5 6 
#
# 1 0.010861 -0.000607 -0.002761 0.000000 0.000000 0.000000
# 2 -0.000607 0.009564 -0.002401 0.000000 0.000000 0.000000
# 3 -0.002761 -0.002401 0.007158 0.000000 0.000000 0.000000
# 4 0.000000 0.000000 0.000000 0.026017 0.000000 0.000000
# 5 0.000000 0.000000 0.000000 0.000000 -0.484452 0.000000
# 6 0.000000 0.000000 0.000000 0.000000 0.000000 -0.043255
#
#
# Mechanical properties :
#
#
# Convention : Reuss Voigt Hill
#
# Bulk Modulus (GPa) = 62.32629 68.73477 65.53053
# Shear Modulus (GPa) = -10.93566 21.59345 5.32890
#
# Velocity S-wave (km/s) = -2.31941 3.25924 1.61910
# Velocity P-wave (km/s) = 4.84642 6.92652 5.97765
#
# Compressibility (1/GPa) = 0.01604459
#
# Stress axis : x y z
#
# Youngs Moduli (GPa) = 92.06842 104.55561 139.70879
#
# Poissons Ratio (x) = 0.06351 0.38577
# Poissons Ratio (y) = 0.05592 0.33542
# Poissons Ratio (z) = 0.25422 0.25102
#
# Static dielectric constant tensor:
#      x y z
#    x 1.733180 0.000000 0.000000 
#    y 0.000000 1.730250 0.000000 
#    z 0.000000 0.000000 1.649850 
# 
# From -- ./inp_files/20847.got.cif
#   From: 2010.05.17/outbox.cif.g08.bks.cpg/sg71_11_cif.got.tgz:20847.got - 2010.06.03 16:22:01.
