data_PCOD9522024
_publ_section_title
;
Structure prediction by ZEFSAII (Michael W. Deem and Ramdas Pophale) SiO2 
 PCOD9522024
Probable space group: I M M M
;
_chemical_formula_sum "Si O2"
_cell_formula_units_Z 56
_cell_length_a 19.921289
_cell_length_b 8.064524
_cell_length_c 15.915962
_cell_angle_alpha 90.000000
_cell_angle_beta 90.000000
_cell_angle_gamma 90.000000
_cell_volume 2556.990227
_symmetry_space_group_name_H-M "I M M M"
_symmetry_group_IT_number 71
_symmetry_cell_setting 'orthorhombic'
loop_
_space_group_symop_operation_xyz
x,y,z
-x,-y,z
x,-y,-z
-x,y,-z
-x,-y,-z
x,y,-z
-x,y,z
x,-y,z
1/2+x,1/2+y,1/2+z
1/2-x,1/2-y,1/2+z
1/2+x,1/2-y,1/2-z
1/2-x,1/2+y,1/2-z
1/2-x,1/2-y,1/2-z
1/2+x,1/2+y,1/2-z
1/2-x,1/2+y,1/2+z
1/2+x,1/2-y,1/2+z
loop_
_atom_site_type_symbol
_atom_site_label
_atom_site_fract_x
_atom_site_fract_y
_atom_site_fract_z
Si Si1 0.152960 0.678893 0.403335
Si Si2 0.073996 0.298310 0.098876
Si Si3 0.922012 0.000000 0.602897
Si Si4 0.216419 0.699110 0.162346
O O1 0.130653 0.667803 0.500000
O O2 0.140702 0.500000 0.361886
O O3 0.231634 0.719624 0.402333
O O4 0.114209 0.834487 0.365155
O O5 0.073240 0.500000 0.102849
O O6 0.140218 0.243663 0.148448
O O7 0.000000 0.240454 0.127320
O O8 0.081465 0.255527 0.000000
O O9 0.915285 0.000000 0.500000
O O10 0.000000 0.000000 0.622670
O O11 0.218479 0.500000 0.152992
O O12 0.250000 0.750000 0.250000
#
# Coordination Sequence:
#
# PCOD9522024 Si02
#       4
#    16  16   8  16
#     4  10  20  35  57  84 113 148 193 241 293 353
#     4   8  15  30  55  85 111 141 189 247 302 353
#     4   9  18  34  56  82 111 143 184 234 285 336
#     4  11  21  34  54  80 117 156 194 239 297 356
#
# _framework density 21.900749000000001
#
# number of rings (size 3 to 8) (size 9 to 14) (size 15 to 20)
#    0.000    2.429    1.429    2.571    0.000    1.714 
#    0.000    4.286    0.000    6.000    0.000   10.000 
#    0.000    0.000    0.000    0.000    0.000    0.000 
#
# Total GULP energy -156211.664171 kJ/mol
# GULP energy per Si atom -5578.988006 kJ/mol
# Density = 2.185090 g / cm^3
# Si number density = 21.900749 Si / 1000 Ang^3
#
#
#
# Elastic Constant Matrix: (Units=GPa)
#
#
# Indices 1 2 3 4 5 6 
#
# 1 209.2228 74.6482 29.1852 0.0000 0.0000 0.0000
# 2 74.6482 135.5319 9.0605 0.0000 0.0000 0.0000
# 3 29.1852 9.0605 40.8116 0.0000 0.0000 0.0000
# 4 0.0000 0.0000 0.0000 11.4416 0.0000 0.0000
# 5 0.0000 0.0000 0.0000 0.0000 25.6686 0.0000
# 6 0.0000 0.0000 0.0000 0.0000 0.0000 -0.7312
#
#
#
# Elastic Compliance Matrix: (Units=1/GPa)
#
#
# Indices 1 2 3 4 5 6 
#
# 1 0.006513 -0.003325 -0.003919 0.000000 0.000000 0.000000
# 2 -0.003325 0.009187 0.000338 0.000000 0.000000 0.000000
# 3 -0.003919 0.000338 0.027230 0.000000 0.000000 0.000000
# 4 0.000000 0.000000 0.000000 0.087401 0.000000 0.000000
# 5 0.000000 0.000000 0.000000 0.000000 0.038958 0.000000
# 6 0.000000 0.000000 0.000000 0.000000 0.000000 -1.367671
#
#
# Mechanical properties :
#
#
# Convention : Reuss Voigt Hill
#
# Bulk Modulus (GPa) = 34.34282 67.92822 51.13552
# Shear Modulus (GPa) = -4.25581 25.45397 10.59908
#
# Velocity S-wave (km/s) = -1.39551 3.41287 2.20229
# Velocity P-wave (km/s) = 3.62196 6.82744 5.46500
#
# Compressibility (1/GPa) = 0.02911817
#
# Stress axis : x y z
#
# Youngs Moduli (GPa) = 153.54831 108.84855 36.72371
#
# Poissons Ratio (x) = 0.36192 0.14392
# Poissons Ratio (y) = 0.51055 -0.01242
# Poissons Ratio (z) = 0.60177 -0.03681
#
# Static dielectric constant tensor:
#      x y z
#    x 1.790950 0.000000 0.000000 
#    y 0.000000 1.850820 0.000000 
#    z 0.000000 0.000000 2.083590 
# 
# From -- ./inp_files/7217.got.cif
#   From: 2010.05.17/outbox.cif.g08.bks.cpg/sg71_4_cif.got.tgz:7217.got - 2010.06.03 16:22:01.
