data_PCOD9522093
_publ_section_title
;
Structure prediction by ZEFSAII (Michael W. Deem and Ramdas Pophale) SiO2 
 PCOD9522093
Probable space group: I M M M
;
_chemical_formula_sum "Si O2"
_cell_formula_units_Z 80
_cell_length_a 8.808984
_cell_length_b 18.790822
_cell_length_c 26.037979
_cell_angle_alpha 90.000000
_cell_angle_beta 90.000000
_cell_angle_gamma 90.000000
_cell_volume 4310.015899
_symmetry_space_group_name_H-M "I M M M"
_symmetry_group_IT_number 71
_symmetry_cell_setting 'orthorhombic'
loop_
_space_group_symop_operation_xyz
x,y,z
-x,-y,z
x,-y,-z
-x,y,-z
-x,-y,-z
x,y,-z
-x,y,z
x,-y,z
1/2+x,1/2+y,1/2+z
1/2-x,1/2-y,1/2+z
1/2+x,1/2-y,1/2-z
1/2-x,1/2+y,1/2-z
1/2-x,1/2-y,1/2-z
1/2+x,1/2+y,1/2-z
1/2-x,1/2+y,1/2+z
1/2+x,1/2-y,1/2+z
loop_
_atom_site_type_symbol
_atom_site_label
_atom_site_fract_x
_atom_site_fract_y
_atom_site_fract_z
Si Si1 0.318899 0.331033 0.810092
Si Si2 0.318132 0.831418 0.000000
Si Si3 0.681704 0.083141 0.402973
Si Si4 0.682254 0.665681 0.000000
Si Si5 0.183050 0.917815 0.094922
Si Si6 0.817847 0.824020 0.808004
O O1 0.500000 0.335764 0.816313
O O2 0.238980 0.383238 0.849828
O O3 0.264571 0.250221 0.819988
O O4 0.280412 0.345935 0.750383
O O5 0.255083 0.871385 0.950092
O O6 0.500000 0.834310 0.000000
O O7 0.271632 0.748614 0.000000
O O8 0.500000 0.088868 0.406104
O O9 0.754556 0.126609 0.449736
O O10 0.723303 0.000000 0.406526
O O11 0.500000 0.662359 0.000000
O O12 0.220960 0.882746 0.149730
O O13 0.000000 0.915756 0.089507
O O14 0.231030 0.000000 0.091751
O O15 0.000000 0.811795 0.809826
#
# Coordination Sequence:
#
# PCOD9522093 Si02
#       6
#    16   8  16   8  16  16
#     4  10  20  35  58  86 114 147 189 234 278 329
#     4  11  24  39  56  82 112 141 178 225 278 332
#     4  11  24  40  58  83 116 151 186 227 279 338
#     4  11  24  41  62  86 110 141 186 235 280 334
#     4  10  21  37  57  81 109 144 186 227 270 325
#     4   9  19  36  58  83 113 149 188 233 281 328
#
# _framework density 18.561416999999999
#
# number of rings (size 3 to 8) (size 9 to 14) (size 15 to 20)
#    0.000    1.800    0.000    3.600    0.000   11.600 
#    0.000    2.000    0.000    0.000    0.000    0.000 
#    0.000    0.000    0.000    0.000    0.000    0.000 
#
# Total GULP energy -223549.146513 kJ/mol
# GULP energy per Si atom -5588.728663 kJ/mol
# Density = 1.851917 g / cm^3
# Si number density = 18.561417 Si / 1000 Ang^3
#
#
#
# Elastic Constant Matrix: (Units=GPa)
#
#
# Indices 1 2 3 4 5 6 
#
# 1 37.6485 62.4724 48.1577 0.0000 0.0000 0.0000
# 2 62.4724 189.0965 119.9815 0.0000 0.0000 0.0000
# 3 48.1577 119.9815 133.9633 0.0000 0.0000 0.0000
# 4 0.0000 0.0000 0.0000 -110.8966 0.0000 0.0000
# 5 0.0000 0.0000 0.0000 0.0000 17.7063 0.0000
# 6 0.0000 0.0000 0.0000 0.0000 0.0000 28.1299
#
#
#
# Elastic Compliance Matrix: (Units=1/GPa)
#
#
# Indices 1 2 3 4 5 6 
#
# 1 0.063474 -0.015038 -0.009350 0.000000 0.000000 0.000000
# 2 -0.015038 0.015812 -0.008756 0.000000 0.000000 0.000000
# 3 -0.009350 -0.008756 0.018668 0.000000 0.000000 0.000000
# 4 0.000000 0.000000 0.000000 -0.009017 0.000000 0.000000
# 5 0.000000 0.000000 0.000000 0.000000 0.056477 0.000000
# 6 0.000000 0.000000 0.000000 0.000000 0.000000 0.035549
#
#
# Mechanical properties :
#
#
# Convention : Reuss Voigt Hill
#
# Bulk Modulus (GPa) = 31.57839 91.32572 61.45205
# Shear Modulus (GPa) = 19.39453 -4.33898 7.52778
#
# Velocity S-wave (km/s) = 3.23597 -1.53059 2.01604
# Velocity P-wave (km/s) = 5.56883 6.79596 6.21277
#
# Compressibility (1/GPa) = 0.03166722
#
# Stress axis : x y z
#
# Youngs Moduli (GPa) = 15.75451 63.24350 53.56841
#
# Poissons Ratio (x) = 0.95104 0.50085
# Poissons Ratio (y) = 0.23691 0.46903
# Poissons Ratio (z) = 0.14730 0.55375
#
# Static dielectric constant tensor:
#      x y z
#    x 1.614680 0.000000 0.000000 
#    y 0.000000 1.609180 0.000000 
#    z 0.000000 0.000000 1.621810 
# 
# From -- ./inp_files/63087.got.cif
#   From: 2010.05.17/outbox.cif.g08.bks.cpg/sg71_32_cif.got.tgz:63087.got - 2010.06.03 16:22:01.
