data_PCOD9522529
_publ_section_title
;
Structure prediction by ZEFSAII (Michael W. Deem and Ramdas Pophale) SiO2 
 PCOD9522529
Probable space group: I M M M
;
_chemical_formula_sum "Si O2"
_cell_formula_units_Z 82
_cell_length_a 21.181740
_cell_length_b 11.582154
_cell_length_c 18.809844
_cell_angle_alpha 90.000000
_cell_angle_beta 90.000000
_cell_angle_gamma 90.000000
_cell_volume 4614.622314
_symmetry_space_group_name_H-M "I M M M"
_symmetry_group_IT_number 71
_symmetry_cell_setting 'orthorhombic'
loop_
_space_group_symop_operation_xyz
x,y,z
-x,-y,z
x,-y,-z
-x,y,-z
-x,-y,-z
x,y,-z
-x,y,z
x,-y,z
1/2+x,1/2+y,1/2+z
1/2-x,1/2-y,1/2+z
1/2+x,1/2-y,1/2-z
1/2-x,1/2+y,1/2-z
1/2-x,1/2-y,1/2-z
1/2+x,1/2+y,1/2-z
1/2-x,1/2+y,1/2+z
1/2+x,1/2-y,1/2+z
loop_
_atom_site_type_symbol
_atom_site_label
_atom_site_fract_x
_atom_site_fract_y
_atom_site_fract_z
Si Si1 0.572858 0.768215 0.651471
Si Si2 0.675183 0.633847 0.725180
Si Si3 0.000000 0.500000 0.500000
Si Si4 0.797304 0.719789 0.362343
Si Si5 0.244811 0.864798 0.500000
Si Si6 0.074715 0.500000 0.777214
Si Si7 0.614835 0.000000 0.115313
Si Si8 0.602909 0.135992 0.500000
O O1 0.500000 0.753914 0.671875
O O2 0.614017 0.662688 0.678359
O O3 0.601167 0.883531 0.688748
O O4 0.578153 0.798458 0.569034
O O5 0.681212 0.500000 0.742349
O O6 0.734658 0.670694 0.676449
O O7 0.671910 0.705477 0.798642
O O8 0.943351 0.500000 0.561289
O O9 0.779470 0.799634 0.429387
O O10 0.841339 0.614447 0.388622
O O11 0.321061 0.860530 0.500000
O O12 0.226260 0.000000 0.500000
O O13 0.086800 0.500000 0.694525
O O14 0.000000 0.500000 0.793529
O O15 0.583727 0.000000 0.500000
#
# Coordination Sequence:
#
# PCOD9522529 Si02
#       8
#    16  16   2  16   8   8   8   8
#     4  11  22  37  60  89 124 163 204 258 304 375
#     4  11  23  40  62  91 124 165 207 260 314 382
#     4  12  28  40  68  96 142 158 210 264 340 378
#     4  11  23  40  64  93 124 159 208 260 318 380
#     4  11  23  39  61  89 124 163 202 252 312 375
#     4  10  20  37  62  90 124 155 206 262 310 360
#     4  12  22  42  65  98 123 163 201 266 321 377
#     4  11  21  35  58  89 123 155 201 248 314 362
#
# _framework density 17.769601999999999
#
# number of rings (size 3 to 8) (size 9 to 14) (size 15 to 20)
#    0.000    0.976    6.341    1.463    0.000    0.780 
#    0.000    1.463    0.000    1.171    0.000    2.049 
#    0.000    0.000    0.000    0.000    0.000    0.000 
#
# Total GULP energy -228659.563030 kJ/mol
# GULP energy per Si atom -5577.062513 kJ/mol
# Density = 1.772916 g / cm^3
# Si number density = 17.769602 Si / 1000 Ang^3
#
#
#
# Elastic Constant Matrix: (Units=GPa)
#
#
# Indices 1 2 3 4 5 6 
#
# 1 77.0771 41.7204 34.1051 0.0000 0.0000 0.0000
# 2 41.7204 113.0383 41.4323 0.0000 0.0000 0.0000
# 3 34.1051 41.4323 108.7517 0.0000 0.0000 0.0000
# 4 0.0000 0.0000 0.0000 15.6258 0.0000 0.0000
# 5 0.0000 0.0000 0.0000 0.0000 4.4429 0.0000
# 6 0.0000 0.0000 0.0000 0.0000 0.0000 9.8969
#
#
#
# Elastic Compliance Matrix: (Units=1/GPa)
#
#
# Indices 1 2 3 4 5 6 
#
# 1 0.017272 -0.005102 -0.003473 0.000000 0.000000 0.000000
# 2 -0.005102 0.011789 -0.002892 0.000000 0.000000 0.000000
# 3 -0.003473 -0.002892 0.011386 0.000000 0.000000 0.000000
# 4 0.000000 0.000000 0.000000 0.063997 0.000000 0.000000
# 5 0.000000 0.000000 0.000000 0.000000 0.225076 0.000000
# 6 0.000000 0.000000 0.000000 0.000000 0.000000 0.101042
#
#
# Mechanical properties :
#
#
# Convention : Reuss Voigt Hill
#
# Bulk Modulus (GPa) = 57.09429 59.26475 58.17952
# Shear Modulus (GPa) = 10.88534 18.10040 14.49287
#
# Velocity S-wave (km/s) = 2.47772 3.19504 2.85897
# Velocity P-wave (km/s) = 6.35496 6.85822 6.61138
#
# Compressibility (1/GPa) = 0.01751489
#
# Stress axis : x y z
#
# Youngs Moduli (GPa) = 57.89608 84.82161 87.82694
#
# Poissons Ratio (x) = 0.43276 0.30502
# Poissons Ratio (y) = 0.29538 0.25396
# Poissons Ratio (z) = 0.20107 0.24527
#
# Static dielectric constant tensor:
#      x y z
#    x 1.601140 0.000000 0.000000 
#    y 0.000000 1.615420 0.000000 
#    z 0.000000 0.000000 1.591450 
# 
# From -- ./inp_files/23914.got.cif
#   From: 2010.05.17/outbox.cif.g08.bks.cpg/sg71_12_cif.got.tgz:23914.got - 2010.06.03 16:22:01.
