data_PCOD9522841
_publ_section_title
;
Structure prediction by ZEFSAII (Michael W. Deem and Ramdas Pophale) SiO2 
 PCOD9522841
Probable space group: I M M M
;
_chemical_formula_sum "Si O2"
_cell_formula_units_Z 96
_cell_length_a 19.332258
_cell_length_b 27.398351
_cell_length_c 8.945676
_cell_angle_alpha 90.000000
_cell_angle_beta 90.000000
_cell_angle_gamma 90.000000
_cell_volume 4738.274012
_symmetry_space_group_name_H-M "I M M M"
_symmetry_group_IT_number 71
_symmetry_cell_setting 'orthorhombic'
loop_
_space_group_symop_operation_xyz
x,y,z
-x,-y,z
x,-y,-z
-x,y,-z
-x,-y,-z
x,y,-z
-x,y,z
x,-y,z
1/2+x,1/2+y,1/2+z
1/2-x,1/2-y,1/2+z
1/2+x,1/2-y,1/2-z
1/2-x,1/2+y,1/2-z
1/2-x,1/2-y,1/2-z
1/2+x,1/2+y,1/2-z
1/2-x,1/2+y,1/2+z
1/2+x,1/2-y,1/2+z
loop_
_atom_site_type_symbol
_atom_site_label
_atom_site_fract_x
_atom_site_fract_y
_atom_site_fract_z
Si Si1 0.922002 0.583312 0.175222
Si Si2 0.681249 0.271045 0.172811
Si Si3 0.718096 0.057379 0.834619
Si Si4 0.076823 0.682009 0.333903
Si Si5 0.858326 0.057815 0.677748
Si Si6 0.920871 0.150501 0.179222
O O1 0.857667 0.562677 0.265521
O O2 0.916982 0.641004 0.208656
O O3 0.000000 0.568127 0.222504
O O4 0.915117 0.572505 0.000000
O O5 0.750000 0.250000 0.250000
O O6 0.630706 0.224659 0.175852
O O7 0.638444 0.314557 0.251632
O O8 0.695382 0.284639 0.000000
O O9 0.780574 0.073379 0.728017
O O10 0.729515 0.000000 0.850261
O O11 0.722897 0.080385 0.000000
O O12 0.082964 0.658399 0.500000
O O13 0.000000 0.703145 0.324313
O O14 0.865438 0.062966 0.500000
O O15 0.907866 0.095583 0.761689
O O16 0.869231 0.000000 0.713414
O O17 0.000000 0.165457 0.219444
O O18 0.915000 0.151652 0.000000
#
# Coordination Sequence:
#
# PCOD9522841 Si02
#       6
#    16  16  16  16  16  16
#     4  10  21  35  54  82 115 154 200 250 304 362
#     4  11  24  41  63  92 126 165 208 257 310 365
#     4  10  21  37  58  83 115 156 200 251 309 370
#     4   9  19  37  59  81 110 152 199 246 297 355
#     4  10  22  41  66  95 126 163 208 259 316 377
#     4  11  25  44  67  96 131 170 211 258 313 374
#
# _framework density 20.260541
#
# number of rings (size 3 to 8) (size 9 to 14) (size 15 to 20)
#    0.000    1.833    0.000    3.000    2.333    7.000 
#    0.000    5.000    0.000    0.000    0.000    0.000 
#    0.000    0.000    0.000    0.000    0.000    0.000 
#
# Total GULP energy -267801.758346 kJ/mol
# GULP energy per Si atom -5579.203299 kJ/mol
# Density = 2.021443 g / cm^3
# Si number density = 20.260541 Si / 1000 Ang^3
#
#
#
# Elastic Constant Matrix: (Units=GPa)
#
#
# Indices 1 2 3 4 5 6 
#
# 1 108.1373 48.1778 53.9566 0.0000 0.0000 0.0000
# 2 48.1778 53.8495 37.1797 0.0000 0.0000 0.0000
# 3 53.9566 37.1797 95.7679 0.0000 0.0000 0.0000
# 4 0.0000 0.0000 0.0000 27.9393 0.0000 0.0000
# 5 0.0000 0.0000 0.0000 0.0000 29.2840 0.0000
# 6 0.0000 0.0000 0.0000 0.0000 0.0000 33.8432
#
#
#
# Elastic Compliance Matrix: (Units=1/GPa)
#
#
# Indices 1 2 3 4 5 6 
#
# 1 0.016971 -0.011724 -0.005010 0.000000 0.000000 0.000000
# 2 -0.011724 0.033471 -0.006389 0.000000 0.000000 0.000000
# 3 -0.005010 -0.006389 0.015745 0.000000 0.000000 0.000000
# 4 0.000000 0.000000 0.000000 0.035792 0.000000 0.000000
# 5 0.000000 0.000000 0.000000 0.000000 0.034148 0.000000
# 6 0.000000 0.000000 0.000000 0.000000 0.000000 0.029548
#
#
# Mechanical properties :
#
#
# Convention : Reuss Voigt Hill
#
# Bulk Modulus (GPa) = 50.14880 59.59809 54.87344
# Shear Modulus (GPa) = 22.87635 26.10935 24.49285
#
# Velocity S-wave (km/s) = 3.36387 3.59371 3.48069
# Velocity P-wave (km/s) = 6.31610 6.83370 6.57999
#
# Compressibility (1/GPa) = 0.01994066
#
# Stress axis : x y z
#
# Youngs Moduli (GPa) = 58.92539 29.87691 63.51344
#
# Poissons Ratio (x) = 0.35028 0.31818
# Poissons Ratio (y) = 0.69086 0.40577
# Poissons Ratio (z) = 0.29520 0.19087
#
# Static dielectric constant tensor:
#      x y z
#    x 1.829350 0.000000 0.000000 
#    y 0.000000 1.718570 0.000000 
#    z 0.000000 0.000000 1.743970 
# 
# From -- ./inp_files/10828.got.cif
#   From: 2010.05.17/outbox.cif.g08.bks.cpg/sg71_6_cif.got.tgz:10828.got - 2010.06.03 16:22:01.
