data_PCOD9522895
_publ_section_title
;
Structure prediction by ZEFSAII (Michael W. Deem and Ramdas Pophale) SiO2 
 PCOD9522895
Probable space group: I M M M
;
_chemical_formula_sum "Si O2"
_cell_formula_units_Z 96
_cell_length_a 20.595574
_cell_length_b 30.586954
_cell_length_c 8.532455
_cell_angle_alpha 90.000000
_cell_angle_beta 90.000000
_cell_angle_gamma 90.000000
_cell_volume 5375.070152
_symmetry_space_group_name_H-M "I M M M"
_symmetry_group_IT_number 71
_symmetry_cell_setting 'orthorhombic'
loop_
_space_group_symop_operation_xyz
x,y,z
-x,-y,z
x,-y,-z
-x,y,-z
-x,-y,-z
x,y,-z
-x,y,z
x,-y,z
1/2+x,1/2+y,1/2+z
1/2-x,1/2-y,1/2+z
1/2+x,1/2-y,1/2-z
1/2-x,1/2+y,1/2-z
1/2-x,1/2-y,1/2-z
1/2+x,1/2+y,1/2-z
1/2-x,1/2+y,1/2+z
1/2+x,1/2-y,1/2+z
loop_
_atom_site_type_symbol
_atom_site_label
_atom_site_fract_x
_atom_site_fract_y
_atom_site_fract_z
Si Si1 0.570640 0.052822 0.314172
Si Si2 0.428405 0.662880 0.190634
Si Si3 0.206783 0.126029 0.687576
Si Si4 0.292122 0.949526 0.186547
Si Si5 0.571783 0.765288 0.190514
Si Si6 0.211689 0.707485 0.688555
O O1 0.575071 0.061263 0.500000
O O2 0.500000 0.069212 0.257486
O O3 0.636289 0.068135 0.232584
O O4 0.569496 0.000000 0.294102
O O5 0.500000 0.648458 0.243991
O O6 0.366586 0.635402 0.244267
O O7 0.420323 0.714023 0.233169
O O8 0.428718 0.661738 0.000000
O O9 0.206897 0.128428 0.500000
O O10 0.237026 0.080495 0.740595
O O11 0.252115 0.164634 0.752049
O O12 0.287601 0.000000 0.240728
O O13 0.286836 0.948877 0.000000
O O14 0.500000 0.779935 0.244635
O O15 0.636464 0.790123 0.242548
O O16 0.570921 0.766932 0.000000
O O17 0.212422 0.708451 0.500000
O O18 0.250000 0.750000 0.750000
#
# Coordination Sequence:
#
# PCOD9522895 Si02
#       6
#    16  16  16  16  16  16
#     4   8  14  27  49  75 100 127 163 209 258 304
#     4   8  14  27  49  76 101 127 167 214 255 302
#     4  11  21  34  54  79 104 135 173 215 267 315
#     4  10  21  36  53  75 104 138 176 218 263 313
#     4   8  14  27  48  72  99 134 174 211 247 291
#     4  11  20  32  51  76 106 137 170 210 256 308
#
# _framework density 17.860233000000001
#
# number of rings (size 3 to 8) (size 9 to 14) (size 15 to 20)
#    0.000    2.667    1.667    3.000    0.000    1.333 
#    0.000    2.500    0.000    8.500    0.000    3.500 
#    0.000    0.000    0.000    0.000    0.000    0.000 
#
# Total GULP energy -267514.271695 kJ/mol
# GULP energy per Si atom -5573.213994 kJ/mol
# Density = 1.781958 g / cm^3
# Si number density = 17.860233 Si / 1000 Ang^3
#
#
#
# Elastic Constant Matrix: (Units=GPa)
#
#
# Indices 1 2 3 4 5 6 
#
# 1 197.2005 60.9138 28.1543 0.0000 0.0000 0.0000
# 2 60.9138 55.6949 13.4577 0.0000 0.0000 0.0000
# 3 28.1543 13.4577 20.8766 0.0000 0.0000 0.0000
# 4 0.0000 0.0000 0.0000 22.3279 0.0000 0.0000
# 5 0.0000 0.0000 0.0000 0.0000 15.8887 0.0000
# 6 0.0000 0.0000 0.0000 0.0000 0.0000 23.7490
#
#
#
# Elastic Compliance Matrix: (Units=1/GPa)
#
#
# Indices 1 2 3 4 5 6 
#
# 1 0.008310 -0.007558 -0.006335 0.000000 0.000000 0.000000
# 2 -0.007558 0.028142 -0.007948 0.000000 0.000000 0.000000
# 3 -0.006335 -0.007948 0.061568 0.000000 0.000000 0.000000
# 4 0.000000 0.000000 0.000000 0.044787 0.000000 0.000000
# 5 0.000000 0.000000 0.000000 0.000000 0.062938 0.000000
# 6 0.000000 0.000000 0.000000 0.000000 0.000000 0.042107
#
#
# Mechanical properties :
#
#
# Convention : Reuss Voigt Hill
#
# Bulk Modulus (GPa) = 18.40365 53.20263 35.80314
# Shear Modulus (GPa) = 16.14747 23.80953 19.97850
#
# Velocity S-wave (km/s) = 3.01009 3.65513 3.34818
# Velocity P-wave (km/s) = 4.73366 6.90408 5.91920
#
# Compressibility (1/GPa) = 0.05433705
#
# Stress axis : x y z
#
# Youngs Moduli (GPa) = 120.33670 35.53436 16.24232
#
# Poissons Ratio (x) = 0.26857 0.10289
# Poissons Ratio (y) = 0.90951 0.12910
# Poissons Ratio (z) = 0.76231 0.28244
#
# Static dielectric constant tensor:
#      x y z
#    x 1.648610 0.000000 0.000000 
#    y 0.000000 1.595710 0.000000 
#    z 0.000000 0.000000 1.610460 
# 
# From -- ./inp_files/10842.got.cif
#   From: 2010.05.17/outbox.cif.g08.bks.cpg/sg71_6_cif.got.tgz:10842.got - 2010.06.03 16:22:01.
