data_PCOD9522044
_publ_section_title
;
Structure prediction by ZEFSAII (Michael W. Deem and Ramdas Pophale) SiO2 
 PCOD9522044
Probable space group: I M M M
;
_chemical_formula_sum "Si O2"
_cell_formula_units_Z 88
_cell_length_a 24.812172
_cell_length_b 20.567113
_cell_length_c 8.477826
_cell_angle_alpha 90.000000
_cell_angle_beta 90.000000
_cell_angle_gamma 90.000000
_cell_volume 4326.359616
_symmetry_space_group_name_H-M "I M M M"
_symmetry_group_IT_number 71
_symmetry_cell_setting 'orthorhombic'
loop_
_space_group_symop_operation_xyz
x,y,z
-x,-y,z
x,-y,-z
-x,y,-z
-x,-y,-z
x,y,-z
-x,y,z
x,-y,z
1/2+x,1/2+y,1/2+z
1/2-x,1/2-y,1/2+z
1/2+x,1/2-y,1/2-z
1/2-x,1/2+y,1/2-z
1/2-x,1/2-y,1/2-z
1/2+x,1/2+y,1/2-z
1/2-x,1/2+y,1/2+z
1/2+x,1/2-y,1/2+z
loop_
_atom_site_type_symbol
_atom_site_label
_atom_site_fract_x
_atom_site_fract_y
_atom_site_fract_z
Si Si1 0.369044 0.122637 0.316573
Si Si2 0.437002 0.235685 0.181471
Si Si3 0.743022 0.823352 0.188731
Si Si4 0.326634 0.429888 0.307716
Si Si5 0.440539 0.618466 0.309232
Si Si6 0.563131 0.000000 0.810982
O O1 0.360647 0.109187 0.500000
O O2 0.404045 0.187533 0.290505
O O3 0.311861 0.140410 0.238704
O O4 0.403288 0.063273 0.243786
O O5 0.500000 0.217444 0.185567
O O6 0.433316 0.309502 0.239709
O O7 0.418186 0.230014 0.000000
O O8 0.750000 0.750000 0.250000
O O9 0.791942 0.868849 0.246836
O O10 0.744583 0.820276 0.000000
O O11 0.325082 0.428966 0.500000
O O12 0.304929 0.500000 0.256305
O O13 0.388886 0.422634 0.260896
O O14 0.439991 0.622757 0.500000
O O15 0.500000 0.594197 0.262415
O O16 0.500000 0.000000 0.755351
O O17 0.561433 0.000000 0.000000
#
# Coordination Sequence:
#
# PCOD9522044 Si02
#       6
#    16  16  16  16  16   8
#     4  12  25  40  61  89 123 161 206 260 316 379
#     4  10  20  35  57  85 117 154 198 247 300 362
#     4  11  23  40  64  90 121 163 213 267 318 375
#     4   9  19  35  56  84 116 153 198 245 296 357
#     4   9  17  31  55  87 120 152 190 241 299 358
#     4  11  25  45  67  93 127 167 212 261 322 397
#
# _framework density 20.340426000000001
#
# number of rings (size 3 to 8) (size 9 to 14) (size 15 to 20)
#    0.000    1.727    0.000    4.636    1.273    5.818 
#    0.000    2.727    0.000    2.727    0.000    2.545 
#    0.000    0.000    0.000    0.000    0.000    0.000 
#
# Total GULP energy -245740.922900 kJ/mol
# GULP energy per Si atom -5585.020975 kJ/mol
# Density = 2.029413 g / cm^3
# Si number density = 20.340426 Si / 1000 Ang^3
#
#
#
# Elastic Constant Matrix: (Units=GPa)
#
#
# Indices 1 2 3 4 5 6 
#
# 1 125.8693 81.7227 27.2694 0.0000 0.0000 0.0000
# 2 81.7227 121.0165 19.9438 0.0000 0.0000 0.0000
# 3 27.2694 19.9438 49.3367 0.0000 0.0000 0.0000
# 4 0.0000 0.0000 0.0000 25.7380 0.0000 0.0000
# 5 0.0000 0.0000 0.0000 0.0000 18.8373 0.0000
# 6 0.0000 0.0000 0.0000 0.0000 0.0000 26.1544
#
#
#
# Elastic Compliance Matrix: (Units=1/GPa)
#
#
# Indices 1 2 3 4 5 6 
#
# 1 0.015027 -0.009406 -0.004504 0.000000 0.000000 0.000000
# 2 -0.009406 0.014740 -0.000760 0.000000 0.000000 0.000000
# 3 -0.004504 -0.000760 0.023065 0.000000 0.000000 0.000000
# 4 0.000000 0.000000 0.000000 0.038853 0.000000 0.000000
# 5 0.000000 0.000000 0.000000 0.000000 0.053086 0.000000
# 6 0.000000 0.000000 0.000000 0.000000 0.000000 0.038234
#
#
# Mechanical properties :
#
#
# Convention : Reuss Voigt Hill
#
# Bulk Modulus (GPa) = 42.56354 61.56604 52.06479
# Shear Modulus (GPa) = 22.70903 25.29839 24.00371
#
# Velocity S-wave (km/s) = 3.34495 3.53051 3.43898
# Velocity P-wave (km/s) = 5.99077 6.85222 6.43592
#
# Compressibility (1/GPa) = 0.02349429
#
# Stress axis : x y z
#
# Youngs Moduli (GPa) = 66.54551 67.84129 43.35510
#
# Poissons Ratio (x) = 0.63810 0.19526
# Poissons Ratio (y) = 0.62591 0.03294
# Poissons Ratio (z) = 0.29970 0.05155
#
# Static dielectric constant tensor:
#      x y z
#    x 1.768890 0.000000 0.000000 
#    y 0.000000 1.697010 0.000000 
#    z 0.000000 0.000000 1.699570 
# 
# From -- ./inp_files/12560.got.cif
#   From: 2010.05.17/outbox.cif.g08.bks.cpg/sg71_7_cif.got.tgz:12560.got - 2010.06.03 16:22:01.
