data_PCOD9522369
_publ_section_title
;
Structure prediction by ZEFSAII (Michael W. Deem and Ramdas Pophale) SiO2 
 PCOD9522369
Probable space group: I M M M
;
_chemical_formula_sum "Si O2"
_cell_formula_units_Z 72
_cell_length_a 19.432353
_cell_length_b 8.752630
_cell_length_c 23.843831
_cell_angle_alpha 90.000000
_cell_angle_beta 90.000000
_cell_angle_gamma 90.000000
_cell_volume 4055.458821
_symmetry_space_group_name_H-M "I M M M"
_symmetry_group_IT_number 71
_symmetry_cell_setting 'orthorhombic'
loop_
_space_group_symop_operation_xyz
x,y,z
-x,-y,z
x,-y,-z
-x,y,-z
-x,-y,-z
x,y,-z
-x,y,z
x,-y,z
1/2+x,1/2+y,1/2+z
1/2-x,1/2-y,1/2+z
1/2+x,1/2-y,1/2-z
1/2-x,1/2+y,1/2-z
1/2-x,1/2-y,1/2-z
1/2+x,1/2+y,1/2-z
1/2-x,1/2+y,1/2+z
1/2+x,1/2-y,1/2+z
loop_
_atom_site_type_symbol
_atom_site_label
_atom_site_fract_x
_atom_site_fract_y
_atom_site_fract_z
Si Si1 0.423548 0.000000 0.566130
Si Si2 0.180645 0.674989 0.868705
Si Si3 0.919557 0.316575 0.655309
Si Si4 0.173466 0.819641 0.754325
Si Si5 0.318460 0.314940 0.934559
O O1 0.379678 0.144249 0.587088
O O2 0.500000 0.000000 0.590079
O O3 0.426166 0.000000 0.500000
O O4 0.195043 0.500000 0.846987
O O5 0.154915 0.777334 0.818043
O O6 0.249362 0.729662 0.900166
O O7 0.915222 0.500000 0.654935
O O8 0.876928 0.254160 0.708578
O O9 0.882553 0.251523 0.599766
O O10 0.000000 0.272750 0.658089
O O11 0.250000 0.750000 0.750000
O O12 0.174804 0.000000 0.745465
O O13 0.320801 0.500000 0.933460
O O14 0.316059 0.268523 0.000000
#
# Coordination Sequence:
#
# PCOD9522369 Si02
#       5
#     8  16  16  16  16
#     4   9  18  34  60  92 123 157 196 240 291 346
#     4   9  19  34  58  88 118 152 195 242 287 348
#     4  11  25  42  60  85 119 159 203 252 306 361
#     4  12  23  38  61  87 117 154 196 245 303 361
#     4  10  20  36  60  87 117 158 204 248 294 356
#
# _framework density 17.753848000000001
#
# number of rings (size 3 to 8) (size 9 to 14) (size 15 to 20)
#    0.667    1.000    2.222    3.333    0.000    3.556 
#    0.000    2.222    0.000    2.000    0.000    1.556 
#    0.000    0.000    0.000    0.000    0.000    0.000 
#
# Total GULP energy -200721.069657 kJ/mol
# GULP energy per Si atom -5575.585268 kJ/mol
# Density = 1.771344 g / cm^3
# Si number density = 17.753848 Si / 1000 Ang^3
#
#
#
# Elastic Constant Matrix: (Units=GPa)
#
#
# Indices 1 2 3 4 5 6 
#
# 1 125.1124 21.6765 52.6085 0.0000 0.0000 0.0000
# 2 21.6765 39.8705 28.1414 0.0000 0.0000 0.0000
# 3 52.6085 28.1414 121.0803 0.0000 0.0000 0.0000
# 4 0.0000 0.0000 0.0000 32.7345 0.0000 0.0000
# 5 0.0000 0.0000 0.0000 0.0000 29.9696 0.0000
# 6 0.0000 0.0000 0.0000 0.0000 0.0000 21.8471
#
#
#
# Elastic Compliance Matrix: (Units=1/GPa)
#
#
# Indices 1 2 3 4 5 6 
#
# 1 0.010043 -0.002847 -0.003702 0.000000 0.000000 0.000000
# 2 -0.002847 0.030810 -0.005924 0.000000 0.000000 0.000000
# 3 -0.003702 -0.005924 0.011244 0.000000 0.000000 0.000000
# 4 0.000000 0.000000 0.000000 0.030549 0.000000 0.000000
# 5 0.000000 0.000000 0.000000 0.000000 0.033367 0.000000
# 6 0.000000 0.000000 0.000000 0.000000 0.000000 0.045773
#
#
# Mechanical properties :
#
#
# Convention : Reuss Voigt Hill
#
# Bulk Modulus (GPa) = 36.83017 54.54623 45.68820
# Shear Modulus (GPa) = 25.53863 29.15268 27.34566
#
# Velocity S-wave (km/s) = 3.79685 4.05662 3.92888
# Velocity P-wave (km/s) = 6.32545 7.26167 6.80967
#
# Compressibility (1/GPa) = 0.02715165
#
# Stress axis : x y z
#
# Youngs Moduli (GPa) = 99.57541 32.45667 88.93498
#
# Poissons Ratio (x) = 0.09241 0.32921
# Poissons Ratio (y) = 0.28351 0.52684
# Poissons Ratio (z) = 0.36860 0.19227
#
# Static dielectric constant tensor:
#      x y z
#    x 1.616100 0.000000 0.000000 
#    y 0.000000 1.605550 0.000000 
#    z 0.000000 0.000000 1.644420 
# 
# From -- ./inp_files/60377.got.cif
#   From: 2010.05.17/outbox.cif.g08.bks.cpg/sg71_31_cif.got.tgz:60377.got - 2010.06.03 16:22:01.
