data_PCOD9522927
_publ_section_title
;
Structure prediction by ZEFSAII (Michael W. Deem and Ramdas Pophale) SiO2 
 PCOD9522927
Probable space group: I M M M
;
_chemical_formula_sum "Si O2"
_cell_formula_units_Z 104
_cell_length_a 25.551359
_cell_length_b 7.543231
_cell_length_c 25.596703
_cell_angle_alpha 90.000000
_cell_angle_beta 90.000000
_cell_angle_gamma 90.000000
_cell_volume 4933.503501
_symmetry_space_group_name_H-M "I M M M"
_symmetry_group_IT_number 71
_symmetry_cell_setting 'orthorhombic'
loop_
_space_group_symop_operation_xyz
x,y,z
-x,-y,z
x,-y,-z
-x,y,-z
-x,-y,-z
x,y,-z
-x,y,z
x,-y,z
1/2+x,1/2+y,1/2+z
1/2-x,1/2-y,1/2+z
1/2+x,1/2-y,1/2-z
1/2-x,1/2+y,1/2-z
1/2-x,1/2-y,1/2-z
1/2+x,1/2+y,1/2-z
1/2-x,1/2+y,1/2+z
1/2+x,1/2-y,1/2+z
loop_
_atom_site_type_symbol
_atom_site_label
_atom_site_fract_x
_atom_site_fract_y
_atom_site_fract_z
Si Si1 0.339106 0.797225 0.838211
Si Si2 0.769703 0.212206 0.808152
Si Si3 0.000000 0.201261 0.436474
Si Si4 0.439482 0.213659 0.441215
Si Si5 0.611604 0.283744 0.059536
Si Si6 0.886972 0.209558 0.830524
Si Si7 0.559277 0.793006 0.224189
O O1 0.281602 0.713371 0.836346
O O2 0.350401 0.794328 0.899018
O O3 0.389647 0.718039 0.807302
O O4 0.334834 0.000000 0.818203
O O5 0.750000 0.250000 0.750000
O O6 0.827816 0.280586 0.820839
O O7 0.773258 0.000000 0.817272
O O8 0.054494 0.283760 0.422554
O O9 0.000000 0.190885 0.500000
O O10 0.000000 0.000000 0.416551
O O11 0.422286 0.272305 0.500000
O O12 0.500000 0.272381 0.434389
O O13 0.406428 0.263792 0.389953
O O14 0.439732 0.000000 0.442339
O O15 0.611072 0.500000 0.061596
O O16 0.620882 0.233934 0.000000
O O17 0.925535 0.283027 0.785639
O O18 0.886165 0.000000 0.820689
O O19 0.500000 0.719785 0.215300
O O20 0.556614 0.000000 0.209383
#
# Coordination Sequence:
#
# PCOD9522927 Si02
#       7
#    16  16   8  16  16  16  16
#     4  10  21  36  54  76 104 138 177 220 266 312
#     4  10  21  38  57  77 103 141 186 225 266 320
#     4   7  12  26  47  69  95 129 165 201 246 299
#     4   9  19  37  60  85 115 153 191 222 264 331
#     4   9  18  33  52  74 101 134 172 212 257 311
#     4  11  22  35  56  85 112 140 182 231 277 323
#     4  10  21  36  54  78 110 146 179 215 267 330
#
# _framework density 21.080355000000001
#
# number of rings (size 3 to 8) (size 9 to 14) (size 15 to 20)
#    0.000    2.385    1.538    2.308    1.077    4.923 
#    0.000    1.538    0.000    6.000    0.000    0.000 
#    0.000    0.000    0.000    0.000    0.000    0.000 
#
# Total GULP energy -289638.253487 kJ/mol
# GULP energy per Si atom -5569.966413 kJ/mol
# Density = 2.103238 g / cm^3
# Si number density = 21.080355 Si / 1000 Ang^3
#
#
#
# Elastic Constant Matrix: (Units=GPa)
#
#
# Indices 1 2 3 4 5 6 
#
# 1 135.8664 7.2230 43.5619 0.0000 0.0000 0.0000
# 2 7.2230 57.0389 -5.1975 0.0000 0.0000 0.0000
# 3 43.5619 -5.1975 90.3319 0.0000 0.0000 0.0000
# 4 0.0000 0.0000 0.0000 11.3292 0.0000 0.0000
# 5 0.0000 0.0000 0.0000 0.0000 42.2020 0.0000
# 6 0.0000 0.0000 0.0000 0.0000 0.0000 5.4813
#
#
#
# Elastic Compliance Matrix: (Units=1/GPa)
#
#
# Indices 1 2 3 4 5 6 
#
# 1 0.008835 -0.001515 -0.004348 0.000000 0.000000 0.000000
# 2 -0.001515 0.017884 0.001760 0.000000 0.000000 0.000000
# 3 -0.004348 0.001760 0.013268 0.000000 0.000000 0.000000
# 4 0.000000 0.000000 0.000000 0.088268 0.000000 0.000000
# 5 0.000000 0.000000 0.000000 0.000000 0.023696 0.000000
# 6 0.000000 0.000000 0.000000 0.000000 0.000000 0.182437
#
#
# Mechanical properties :
#
#
# Convention : Reuss Voigt Hill
#
# Bulk Modulus (GPa) = 31.46540 41.60132 36.53336
# Shear Modulus (GPa) = 14.15683 27.64584 20.90133
#
# Velocity S-wave (km/s) = 2.59427 3.62532 3.15224
# Velocity P-wave (km/s) = 4.89208 6.10749 5.53326
#
# Compressibility (1/GPa) = 0.03178094
#
# Stress axis : x y z
#
# Youngs Moduli (GPa) = 113.19071 55.91570 75.36859
#
# Poissons Ratio (x) = 0.08471 0.32767
# Poissons Ratio (y) = 0.17147 -0.13262
# Poissons Ratio (z) = 0.49211 -0.09839
#
# Static dielectric constant tensor:
#      x y z
#    x 1.761440 0.000000 0.000000 
#    y 0.000000 3.797540 0.000000 
#    z 0.000000 0.000000 1.756950 
# 
# From -- ./inp_files/15288.got.cif
#   From: 2010.05.17/outbox.cif.g08.bks.cpg/sg71_8_cif.got.tgz:15288.got - 2010.06.03 16:22:01.
