data_PCOD9522868
_publ_section_title
;
Structure prediction by ZEFSAII (Michael W. Deem and Ramdas Pophale) SiO2 
 PCOD9522868
Probable space group: I M M M
;
_chemical_formula_sum "Si O2"
_cell_formula_units_Z 58
_cell_length_a 8.240684
_cell_length_b 15.234359
_cell_length_c 24.066505
_cell_angle_alpha 90.000000
_cell_angle_beta 90.000000
_cell_angle_gamma 90.000000
_cell_volume 3021.346063
_symmetry_space_group_name_H-M "I M M M"
_symmetry_group_IT_number 71
_symmetry_cell_setting 'orthorhombic'
loop_
_space_group_symop_operation_xyz
x,y,z
-x,-y,z
x,-y,-z
-x,y,-z
-x,-y,-z
x,y,-z
-x,y,z
x,-y,z
1/2+x,1/2+y,1/2+z
1/2-x,1/2-y,1/2+z
1/2+x,1/2-y,1/2-z
1/2-x,1/2+y,1/2-z
1/2-x,1/2-y,1/2-z
1/2+x,1/2+y,1/2-z
1/2-x,1/2+y,1/2+z
1/2+x,1/2-y,1/2+z
loop_
_atom_site_type_symbol
_atom_site_label
_atom_site_fract_x
_atom_site_fract_y
_atom_site_fract_z
Si Si1 0.809703 0.900027 0.332261
Si Si2 0.500000 0.000000 0.000000
Si Si3 0.813828 0.773846 0.119102
Si Si4 0.305880 0.640035 0.500000
Si Si5 0.311561 0.899697 0.211956
O O1 0.725248 0.827251 0.369490
O O2 0.785858 0.875592 0.267350
O O3 0.000000 0.899558 0.344689
O O4 0.747778 0.000000 0.338468
O O5 0.349802 0.925242 0.000000
O O6 0.712866 0.834445 0.161122
O O7 0.000000 0.790772 0.134101
O O8 0.789929 0.803229 0.055988
O O9 0.500000 0.607280 0.500000
O O10 0.500000 0.899181 0.228056
O O11 0.267374 0.000000 0.195604
#
# Coordination Sequence:
#
# PCOD9522868 Si02
#       5
#    16   2  16   8  16
#     4  10  21  38  60  87 118 155 200 251 306 363
#     4  12  26  44  76  86 130 168 206 260 308 352
#     4  11  23  40  60  84 122 159 200 254 302 363
#     4  10  27  45  64  97 126 164 212 252 308 368
#     4  10  21  35  57  88 120 156 201 243 302 371
#
# _framework density 19.196740999999999
#
# number of rings (size 3 to 8) (size 9 to 14) (size 15 to 20)
#    0.000    1.655    0.000    3.517    5.793    3.310 
#    0.000    0.690    0.000    4.138    0.000    0.000 
#    0.000    0.000    0.000    0.000    0.000    0.000 
#
# Total GULP energy -161584.627183 kJ/mol
# GULP energy per Si atom -5571.883696 kJ/mol
# Density = 1.915305 g / cm^3
# Si number density = 19.196741 Si / 1000 Ang^3
#
#
#
# Elastic Constant Matrix: (Units=GPa)
#
#
# Indices 1 2 3 4 5 6 
#
# 1 67.1575 20.0135 21.0116 0.0000 0.0000 0.0000
# 2 20.0135 85.2213 57.8899 0.0000 0.0000 0.0000
# 3 21.0116 57.8899 69.7817 0.0000 0.0000 0.0000
# 4 0.0000 0.0000 0.0000 -27.3985 0.0000 0.0000
# 5 0.0000 0.0000 0.0000 0.0000 23.2170 0.0000
# 6 0.0000 0.0000 0.0000 0.0000 0.0000 30.8717
#
#
#
# Elastic Compliance Matrix: (Units=1/GPa)
#
#
# Indices 1 2 3 4 5 6 
#
# 1 0.016488 -0.001145 -0.004015 0.000000 0.000000 0.000000
# 2 -0.001145 0.026964 -0.022024 0.000000 0.000000 0.000000
# 3 -0.004015 -0.022024 0.033810 0.000000 0.000000 0.000000
# 4 0.000000 0.000000 0.000000 -0.036498 0.000000 0.000000
# 5 0.000000 0.000000 0.000000 0.000000 0.043072 0.000000
# 6 0.000000 0.000000 0.000000 0.000000 0.000000 0.032392
#
#
# Mechanical properties :
#
#
# Convention : Reuss Voigt Hill
#
# Bulk Modulus (GPa) = 43.67912 46.66561 45.17237
# Shear Modulus (GPa) = 28.05435 13.55442 20.80438
#
# Velocity S-wave (km/s) = 3.82699 2.66010 3.29560
# Velocity P-wave (km/s) = 6.50620 5.81350 6.16958
#
# Compressibility (1/GPa) = 0.02289423
#
# Stress axis : x y z
#
# Youngs Moduli (GPa) = 60.65145 37.08699 29.57699
#
# Poissons Ratio (x) = 0.04245 0.11875
# Poissons Ratio (y) = 0.06943 0.65140
# Poissons Ratio (z) = 0.24351 0.81680
#
# Static dielectric constant tensor:
#      x y z
#    x 1.668910 0.000000 0.000000 
#    y 0.000000 1.686370 0.000000 
#    z 0.000000 0.000000 1.623090 
# 
# From -- ./inp_files/5339.got.cif
#   From: 2010.05.17/outbox.cif.g08.bks.cpg/sg71_3_cif.got.tgz:5339.got - 2010.06.03 16:22:01.
