data_PCOD9522039
_publ_section_title
;
Structure prediction by ZEFSAII (Michael W. Deem and Ramdas Pophale) SiO2 
 PCOD9522039
Probable space group: I M M M
;
_chemical_formula_sum "Si O2"
_cell_formula_units_Z 80
_cell_length_a 10.838917
_cell_length_b 23.745007
_cell_length_c 17.990679
_cell_angle_alpha 90.000000
_cell_angle_beta 90.000000
_cell_angle_gamma 90.000000
_cell_volume 4630.263933
_symmetry_space_group_name_H-M "I M M M"
_symmetry_group_IT_number 71
_symmetry_cell_setting 'orthorhombic'
loop_
_space_group_symop_operation_xyz
x,y,z
-x,-y,z
x,-y,-z
-x,y,-z
-x,-y,-z
x,y,-z
-x,y,z
x,-y,z
1/2+x,1/2+y,1/2+z
1/2-x,1/2-y,1/2+z
1/2+x,1/2-y,1/2-z
1/2-x,1/2+y,1/2-z
1/2-x,1/2-y,1/2-z
1/2+x,1/2+y,1/2-z
1/2-x,1/2+y,1/2+z
1/2+x,1/2-y,1/2+z
loop_
_atom_site_type_symbol
_atom_site_label
_atom_site_fract_x
_atom_site_fract_y
_atom_site_fract_z
Si Si1 0.738796 0.120416 0.142449
Si Si2 0.650489 0.757213 0.817130
Si Si3 0.149183 0.065136 0.287304
Si Si4 0.000000 0.434082 0.415463
Si Si5 0.855055 0.935221 0.000000
Si Si6 0.351642 0.353751 0.084098
O O1 0.693326 0.184662 0.144722
O O2 0.804774 0.102110 0.218188
O O3 0.616755 0.084507 0.130594
O O4 0.818444 0.100503 0.072158
O O5 0.500000 0.759086 0.798686
O O6 0.750000 0.750000 0.750000
O O7 0.669037 0.704697 0.872572
O O8 0.191874 0.095370 0.363116
O O9 0.000000 0.065748 0.286229
O O10 0.188492 0.000000 0.281157
O O11 0.000000 0.500000 0.423521
O O12 0.000000 0.409263 0.500000
O O13 0.000000 0.941987 0.000000
O O14 0.800917 0.000000 0.000000
O O15 0.500000 0.359600 0.079155
O O16 0.302543 0.353995 0.000000
#
# Coordination Sequence:
#
# PCOD9522039 Si02
#       6
#    16  16  16   8   8  16
#     4  12  22  36  57  85 114 155 201 243 293 354
#     4  11  23  40  62  87 118 155 201 246 298 357
#     4  10  20  35  57  85 115 149 190 242 302 358
#     4  11  22  36  54  82 119 153 190 240 292 349
#     4  11  24  39  57  85 125 168 202 241 300 370
#     4   9  19  35  57  83 114 151 192 244 295 348
#
# _framework density 17.277632000000001
#
# number of rings (size 3 to 8) (size 9 to 14) (size 15 to 20)
#    0.000    1.400    4.000    2.400    1.400    2.800 
#    0.000    2.000    0.000    0.000    0.000    0.000 
#    0.000    4.000    0.000    0.000    0.000    0.000 
#
# Total GULP energy -222877.166722 kJ/mol
# GULP energy per Si atom -5571.929168 kJ/mol
# Density = 1.723831 g / cm^3
# Si number density = 17.277632 Si / 1000 Ang^3
#
#
#
# Elastic Constant Matrix: (Units=GPa)
#
#
# Indices 1 2 3 4 5 6 
#
# 1 62.2615 17.0315 25.8186 0.0000 0.0000 0.0000
# 2 17.0315 86.1722 23.9309 0.0000 0.0000 0.0000
# 3 25.8186 23.9309 118.0078 0.0000 0.0000 0.0000
# 4 0.0000 0.0000 0.0000 25.8538 0.0000 0.0000
# 5 0.0000 0.0000 0.0000 0.0000 21.8029 0.0000
# 6 0.0000 0.0000 0.0000 0.0000 0.0000 32.1413
#
#
#
# Elastic Compliance Matrix: (Units=1/GPa)
#
#
# Indices 1 2 3 4 5 6 
#
# 1 0.018214 -0.002642 -0.003449 0.000000 0.000000 0.000000
# 2 -0.002642 0.012680 -0.001993 0.000000 0.000000 0.000000
# 3 -0.003449 -0.001993 0.009633 0.000000 0.000000 0.000000
# 4 0.000000 0.000000 0.000000 0.038679 0.000000 0.000000
# 5 0.000000 0.000000 0.000000 0.000000 0.045865 0.000000
# 6 0.000000 0.000000 0.000000 0.000000 0.000000 0.031113
#
#
# Mechanical properties :
#
#
# Convention : Reuss Voigt Hill
#
# Bulk Modulus (GPa) = 41.05398 44.44485 42.74942
# Shear Modulus (GPa) = 27.70485 29.27030 28.48757
#
# Velocity S-wave (km/s) = 4.00873 4.12043 4.06496
# Velocity P-wave (km/s) = 6.72603 6.95823 6.84312
#
# Compressibility (1/GPa) = 0.02435817
#
# Stress axis : x y z
#
# Youngs Moduli (GPa) = 54.90166 78.86151 103.81066
#
# Poissons Ratio (x) = 0.20836 0.35807
# Poissons Ratio (y) = 0.14505 0.20694
# Poissons Ratio (z) = 0.18937 0.15720
#
# Static dielectric constant tensor:
#      x y z
#    x 1.568200 0.000000 0.000000 
#    y 0.000000 1.589850 0.000000 
#    z 0.000000 0.000000 1.573340 
# 
# From -- ./inp_files/32696.got.cif
#   From: 2010.05.17/outbox.cif.g08.bks.cpg/sg71_17_cif.got.tgz:32696.got - 2010.06.03 16:22:01.
