data_PCOD9522049
_publ_section_title
;
Structure prediction by ZEFSAII (Michael W. Deem and Ramdas Pophale) SiO2 
 PCOD9522049
Probable space group: I M M M
;
_chemical_formula_sum "Si O2"
_cell_formula_units_Z 80
_cell_length_a 15.298672
_cell_length_b 31.726070
_cell_length_c 8.423340
_cell_angle_alpha 90.000000
_cell_angle_beta 90.000000
_cell_angle_gamma 90.000000
_cell_volume 4088.409065
_symmetry_space_group_name_H-M "I M M M"
_symmetry_group_IT_number 71
_symmetry_cell_setting 'orthorhombic'
loop_
_space_group_symop_operation_xyz
x,y,z
-x,-y,z
x,-y,-z
-x,y,-z
-x,-y,-z
x,y,-z
-x,y,z
x,-y,z
1/2+x,1/2+y,1/2+z
1/2-x,1/2-y,1/2+z
1/2+x,1/2-y,1/2-z
1/2-x,1/2+y,1/2-z
1/2-x,1/2-y,1/2-z
1/2+x,1/2+y,1/2-z
1/2-x,1/2+y,1/2+z
1/2+x,1/2-y,1/2+z
loop_
_atom_site_type_symbol
_atom_site_label
_atom_site_fract_x
_atom_site_fract_y
_atom_site_fract_z
Si Si1 0.212277 0.546147 0.192496
Si Si2 0.593809 0.565987 0.188929
Si Si3 0.000000 0.688429 0.183979
Si Si4 0.338330 0.136442 0.188677
Si Si5 0.640273 0.343581 0.310997
Si Si6 0.500000 0.719039 0.186049
O O1 0.176163 0.500000 0.234515
O O2 0.314042 0.547911 0.247326
O O3 0.166497 0.587288 0.262659
O O4 0.211440 0.549760 0.000000
O O5 0.500000 0.551005 0.253339
O O6 0.600906 0.615780 0.222872
O O7 0.592822 0.558373 0.000000
O O8 0.915166 0.660810 0.224366
O O9 0.000000 0.731377 0.283351
O O10 0.000000 0.700196 0.000000
O O11 0.243333 0.156481 0.227567
O O12 0.351316 0.139582 0.000000
O O13 0.631810 0.350214 0.500000
O O14 0.585272 0.302984 0.261714
O O15 0.500000 0.709994 0.000000
#
# Coordination Sequence:
#
# PCOD9522049 Si02
#       6
#    16  16   8  16  16   8
#     4   9  18  33  54  82 116 153 195 240 285 340
#     4   9  16  27  47  77 114 157 197 234 280 331
#     4  12  26  44  65  87 112 145 189 243 296 348
#     4  10  22  41  63  86 117 154 191 238 294 347
#     4  10  20  35  57  85 118 157 196 233 280 337
#     4  12  24  38  60  89 122 155 192 236 278 336
#
# _framework density 19.567513000000002
#
# number of rings (size 3 to 8) (size 9 to 14) (size 15 to 20)
#    0.000    2.000    1.000    3.000    0.000    4.000 
#    0.000    2.500    0.000    3.000    0.000    5.600 
#    0.000    0.000    0.000    0.000    0.000    0.000 
#
# Total GULP energy -223300.008115 kJ/mol
# GULP energy per Si atom -5582.500203 kJ/mol
# Density = 1.952298 g / cm^3
# Si number density = 19.567513 Si / 1000 Ang^3
#
#
#
# Elastic Constant Matrix: (Units=GPa)
#
#
# Indices 1 2 3 4 5 6 
#
# 1 66.5554 28.6042 11.2038 -0.0007 -0.0024 -0.0021
# 2 28.6042 94.4243 -8.8598 0.0014 -0.0009 -0.0019
# 3 11.2038 -8.8598 25.3170 0.0091 0.0085 -0.0046
# 4 -0.0007 0.0014 0.0091 22.0364 -0.0009 -0.0032
# 5 -0.0024 -0.0009 0.0085 -0.0009 20.2491 -0.0003
# 6 -0.0021 -0.0019 -0.0046 -0.0032 -0.0003 9.8769
#
#
#
# Elastic Compliance Matrix: (Units=1/GPa)
#
#
# Indices 1 2 3 4 5 6 
#
# 1 0.019995 -0.007121 -0.011341 0.000006 0.000007 -0.000002
# 2 -0.007121 0.013486 0.007871 -0.000004 -0.000004 0.000005
# 3 -0.011341 0.007871 0.047272 -0.000020 -0.000021 0.000021
# 4 0.000006 -0.000004 -0.000020 0.045380 0.000002 0.000015
# 5 0.000007 -0.000004 -0.000021 0.000002 0.049385 0.000001
# 6 -0.000002 0.000005 0.000021 0.000015 0.000001 0.101246
#
#
# Mechanical properties :
#
#
# Convention : Reuss Voigt Hill
#
# Bulk Modulus (GPa) = 16.78642 27.57699 22.18171
# Shear Modulus (GPa) = 15.73305 20.78904 18.26105
#
# Velocity S-wave (km/s) = 2.83864 3.26302 3.05820
# Velocity P-wave (km/s) = 4.39786 5.32168 4.88167
#
# Compressibility (1/GPa) = 0.05957196
#
# Stress axis : x y z
#
# Youngs Moduli (GPa) = 50.01341 74.14962 21.15401
#
# Poissons Ratio (x) = 0.52803 0.23990
# Poissons Ratio (y) = 0.35615 -0.16650
# Poissons Ratio (z) = 0.56718 -0.58363
#
# Static dielectric constant tensor:
#      x y z
#    x 1.709610 0.000000 0.000000 
#    y 0.000000 1.665190 0.000000 
#    z 0.000000 0.000000 1.667590 
# 
# From -- ./inp_files/8403.got.cif
#   From: 2010.05.17/outbox.cif.g08.bks.cpg/sg71_5_cif.got.tgz:8403.got - 2010.06.03 16:22:01.
