data_PCOD9522723
_publ_section_title
;
Structure prediction by ZEFSAII (Michael W. Deem and Ramdas Pophale) SiO2 
 PCOD9522723
Probable space group: I M M M
;
_chemical_formula_sum "Si O2"
_cell_formula_units_Z 88
_cell_length_a 16.904388
_cell_length_b 19.982167
_cell_length_c 14.533248
_cell_angle_alpha 90.000000
_cell_angle_beta 90.000000
_cell_angle_gamma 90.000000
_cell_volume 4909.132128
_symmetry_space_group_name_H-M "I M M M"
_symmetry_group_IT_number 71
_symmetry_cell_setting 'orthorhombic'
loop_
_space_group_symop_operation_xyz
x,y,z
-x,-y,z
x,-y,-z
-x,y,-z
-x,-y,-z
x,y,-z
-x,y,z
x,-y,z
1/2+x,1/2+y,1/2+z
1/2-x,1/2-y,1/2+z
1/2+x,1/2-y,1/2-z
1/2-x,1/2+y,1/2-z
1/2-x,1/2-y,1/2-z
1/2+x,1/2+y,1/2-z
1/2-x,1/2+y,1/2+z
1/2+x,1/2-y,1/2+z
loop_
_atom_site_type_symbol
_atom_site_label
_atom_site_fract_x
_atom_site_fract_y
_atom_site_fract_z
Si Si1 0.904254 0.817411 0.607298
Si Si2 0.838209 0.576716 0.698240
Si Si3 0.590433 0.080435 0.000000
Si Si4 0.594912 0.210399 0.258375
Si Si5 0.405579 0.321288 0.397475
Si Si6 0.846553 0.923171 0.751604
O O1 0.883481 0.813289 0.500000
O O2 0.882936 0.750905 0.665387
O O3 0.864578 0.879310 0.661062
O O4 0.000000 0.825096 0.614129
O O5 0.866262 0.500000 0.713962
O O6 0.862680 0.595729 0.593560
O O7 0.875716 0.634968 0.759186
O O8 0.745270 0.577762 0.719040
O O9 0.500000 0.108493 0.000000
O O10 0.583134 0.000000 0.000000
O O11 0.500000 0.209335 0.261250
O O12 0.625213 0.256774 0.341702
O O13 0.372668 0.327290 0.500000
O O14 0.500000 0.313325 0.403666
O O15 0.390261 0.385648 0.334824
O O16 0.871339 0.000000 0.739790
#
# Coordination Sequence:
#
# PCOD9522723 Si02
#       6
#    16  16   8  16  16  16
#     4   9  19  35  55  80 107 139 181 224 267 316
#     4  10  21  34  50  77 110 140 172 214 265 317
#     4   9  18  32  50  74 103 137 176 212 255 312
#     4   9  18  34  55  77 103 135 174 220 265 314
#     4   9  19  35  54  76 101 134 177 219 261 312
#     4  10  21  35  51  75 110 141 173 219 267 317
#
# _framework density 17.925775999999999
#
# number of rings (size 3 to 8) (size 9 to 14) (size 15 to 20)
#    0.000    2.636    0.000    2.182    2.545    6.182 
#    0.000    4.545    0.000    1.636    0.000    2.545 
#    0.000    0.000    0.000    0.000    0.000    0.000 
#
# Total GULP energy -245195.401624 kJ/mol
# GULP energy per Si atom -5572.622764 kJ/mol
# Density = 1.788498 g / cm^3
# Si number density = 17.925776 Si / 1000 Ang^3
#
#
#
# Elastic Constant Matrix: (Units=GPa)
#
#
# Indices 1 2 3 4 5 6 
#
# 1 20.5137 18.1689 23.6136 0.0000 0.0000 0.0000
# 2 18.1689 126.0972 38.0598 0.0000 0.0000 0.0000
# 3 23.6136 38.0598 100.6721 0.0000 0.0000 0.0000
# 4 0.0000 0.0000 0.0000 10.7612 0.0000 0.0000
# 5 0.0000 0.0000 0.0000 0.0000 18.2098 0.0000
# 6 0.0000 0.0000 0.0000 0.0000 0.0000 24.8442
#
#
#
# Elastic Compliance Matrix: (Units=1/GPa)
#
#
# Indices 1 2 3 4 5 6 
#
# 1 0.070371 -0.005822 -0.014305 0.000000 0.000000 0.000000
# 2 -0.005822 0.009434 -0.002201 0.000000 0.000000 0.000000
# 3 -0.014305 -0.002201 0.014121 0.000000 0.000000 0.000000
# 4 0.000000 0.000000 0.000000 0.092927 0.000000 0.000000
# 5 0.000000 0.000000 0.000000 0.000000 0.054916 0.000000
# 6 0.000000 0.000000 0.000000 0.000000 0.000000 0.040251
#
#
# Mechanical properties :
#
#
# Convention : Reuss Voigt Hill
#
# Bulk Modulus (GPa) = 20.29645 45.21862 32.75753
# Shear Modulus (GPa) = 14.57310 21.92574 18.24942
#
# Velocity S-wave (km/s) = 2.85435 3.50114 3.19416
# Velocity P-wave (km/s) = 4.71277 6.45168 5.64953
#
# Compressibility (1/GPa) = 0.04926971
#
# Stress axis : x y z
#
# Youngs Moduli (GPa) = 14.21032 106.00501 70.81790
#
# Poissons Ratio (x) = 0.61714 1.01307
# Poissons Ratio (y) = 0.08273 0.15586
# Poissons Ratio (z) = 0.20328 0.23330
#
# Static dielectric constant tensor:
#      x y z
#    x 1.626610 0.000000 0.000000 
#    y 0.000000 1.613800 0.000000 
#    z 0.000000 0.000000 1.620640 
# 
# From -- ./inp_files/36358.got.cif
#   From: 2010.05.17/outbox.cif.g08.bks.cpg/sg71_19_cif.got.tgz:36358.got - 2010.06.03 16:22:01.
