data_PCOD9522286
_publ_section_title
;
Structure prediction by ZEFSAII (Michael W. Deem and Ramdas Pophale) SiO2 
 PCOD9522286
Probable space group: I M M M
;
_chemical_formula_sum "Si O2"
_cell_formula_units_Z 88
_cell_length_a 29.733526
_cell_length_b 11.846731
_cell_length_c 14.181433
_cell_angle_alpha 90.000000
_cell_angle_beta 90.000000
_cell_angle_gamma 90.000000
_cell_volume 4995.340061
_symmetry_space_group_name_H-M "I M M M"
_symmetry_group_IT_number 71
_symmetry_cell_setting 'orthorhombic'
loop_
_space_group_symop_operation_xyz
x,y,z
-x,-y,z
x,-y,-z
-x,y,-z
-x,-y,-z
x,y,-z
-x,y,z
x,-y,z
1/2+x,1/2+y,1/2+z
1/2-x,1/2-y,1/2+z
1/2+x,1/2-y,1/2-z
1/2-x,1/2+y,1/2-z
1/2-x,1/2-y,1/2-z
1/2+x,1/2+y,1/2-z
1/2-x,1/2+y,1/2+z
1/2+x,1/2-y,1/2+z
loop_
_atom_site_type_symbol
_atom_site_label
_atom_site_fract_x
_atom_site_fract_y
_atom_site_fract_z
Si Si1 0.946514 0.864469 0.500000
Si Si2 0.701898 0.133466 0.184442
Si Si3 0.894602 0.275741 0.656636
Si Si4 0.710491 0.238788 0.391064
Si Si5 0.553701 0.000000 0.886636
Si Si6 0.621041 0.365320 0.656425
Si Si7 0.450065 0.636106 0.500000
O O1 0.920541 0.807304 0.413648
O O2 0.000000 0.836265 0.500000
O O3 0.942675 0.000000 0.500000
O O4 0.656324 0.182286 0.137747
O O5 0.702961 0.157845 0.298735
O O6 0.744074 0.194964 0.136036
O O7 0.704039 0.000000 0.170346
O O8 0.924320 0.389045 0.658702
O O9 0.888245 0.203515 0.750012
O O10 0.713044 0.194073 0.500000
O O11 0.668120 0.323625 0.386427
O O12 0.500000 0.000000 0.876173
O O13 0.563531 0.000000 0.000000
O O14 0.622310 0.500000 0.670556
O O15 0.579862 0.334557 0.588990
O O16 0.453318 0.500000 0.500000
O O17 0.500000 0.683750 0.500000
#
# Coordination Sequence:
#
# PCOD9522286 Si02
#       7
#     8  16  16  16   8  16   8
#     4  11  24  41  60  85 119 158 197 245 308 367
#     4  10  22  38  58  88 121 155 199 242 296 356
#     4  11  22  38  59  86 116 154 195 244 293 352
#     4  10  21  37  61  87 118 156 197 245 295 356
#     4  11  22  38  60  83 113 155 201 244 288 349
#     4  10  20  36  58  85 117 151 191 241 296 347
#     4   9  18  32  53  81 111 145 187 234 285 342
#
# _framework density 17.616419
#
# number of rings (size 3 to 8) (size 9 to 14) (size 15 to 20)
#    0.000    1.727    2.727    1.636    1.273    2.909 
#    0.000    2.727    0.000    0.545    0.000    1.273 
#    0.000    0.000    0.000    0.000    0.000    0.000 
#
# Total GULP energy -245189.329383 kJ/mol
# GULP energy per Si atom -5572.484759 kJ/mol
# Density = 1.757632 g / cm^3
# Si number density = 17.616419 Si / 1000 Ang^3
#
#
#
# Elastic Constant Matrix: (Units=GPa)
#
#
# Indices 1 2 3 4 5 6 
#
# 1 146.1070 28.7548 22.6288 0.0000 0.0000 0.0000
# 2 28.7548 58.9546 -0.0335 0.0000 0.0000 0.0000
# 3 22.6288 -0.0335 52.7691 0.0000 0.0000 0.0000
# 4 0.0000 0.0000 0.0000 7.4226 0.0000 0.0000
# 5 0.0000 0.0000 0.0000 0.0000 26.7515 0.0000
# 6 0.0000 0.0000 0.0000 0.0000 0.0000 23.5413
#
#
#
# Elastic Compliance Matrix: (Units=1/GPa)
#
#
# Indices 1 2 3 4 5 6 
#
# 1 0.008172 -0.003988 -0.003507 0.000000 0.000000 0.000000
# 2 -0.003988 0.018908 0.001722 0.000000 0.000000 0.000000
# 3 -0.003507 0.001722 0.020456 0.000000 0.000000 0.000000
# 4 0.000000 0.000000 0.000000 0.134724 0.000000 0.000000
# 5 0.000000 0.000000 0.000000 0.000000 0.037381 0.000000
# 6 0.000000 0.000000 0.000000 0.000000 0.000000 0.042479
#
#
# Mechanical properties :
#
#
# Convention : Reuss Voigt Hill
#
# Bulk Modulus (GPa) = 27.78520 40.05899 33.92209
# Shear Modulus (GPa) = 17.50317 25.30845 21.40581
#
# Velocity S-wave (km/s) = 3.15552 3.79442 3.48962
# Velocity P-wave (km/s) = 5.39286 6.47964 5.96107
#
# Compressibility (1/GPa) = 0.03599039
#
# Stress axis : x y z
#
# Youngs Moduli (GPa) = 122.36409 52.88679 48.88659
#
# Poissons Ratio (x) = 0.21091 0.17145
# Poissons Ratio (y) = 0.48799 -0.08419
# Poissons Ratio (z) = 0.42914 -0.09108
#
# Static dielectric constant tensor:
#      x y z
#    x 1.591140 0.000000 0.000000 
#    y 0.000000 1.567400 0.000000 
#    z 0.000000 0.000000 1.622330 
# 
# From -- ./inp_files/40195.got.cif
#   From: 2010.05.17/outbox.cif.g08.bks.cpg/sg71_21_cif.got.tgz:40195.got - 2010.06.03 16:22:01.
