data_PCOD9522456
_publ_section_title
;
Structure prediction by ZEFSAII (Michael W. Deem and Ramdas Pophale) SiO2 
 PCOD9522456
Probable space group: I M M M
;
_chemical_formula_sum "Si O2"
_cell_formula_units_Z 92
_cell_length_a 9.222625
_cell_length_b 26.705896
_cell_length_c 20.155293
_cell_angle_alpha 90.000000
_cell_angle_beta 90.000000
_cell_angle_gamma 90.000000
_cell_volume 4964.217709
_symmetry_space_group_name_H-M "I M M M"
_symmetry_group_IT_number 71
_symmetry_cell_setting 'orthorhombic'
loop_
_space_group_symop_operation_xyz
x,y,z
-x,-y,z
x,-y,-z
-x,y,-z
-x,-y,-z
x,y,-z
-x,y,z
x,-y,z
1/2+x,1/2+y,1/2+z
1/2-x,1/2-y,1/2+z
1/2+x,1/2-y,1/2-z
1/2-x,1/2+y,1/2-z
1/2-x,1/2-y,1/2-z
1/2+x,1/2+y,1/2-z
1/2-x,1/2+y,1/2+z
1/2+x,1/2-y,1/2+z
loop_
_atom_site_type_symbol
_atom_site_label
_atom_site_fract_x
_atom_site_fract_y
_atom_site_fract_z
Si Si1 0.334565 0.727327 0.647728
Si Si2 0.500000 0.144005 0.000000
Si Si3 0.173922 0.834756 0.354246
Si Si4 0.827428 0.360667 0.274594
Si Si5 0.273671 0.717121 0.500000
Si Si6 0.257587 0.942827 0.000000
Si Si7 0.839986 0.941381 0.852517
Si Si8 0.328194 0.670084 0.000000
O O1 0.500000 0.735235 0.671239
O O2 0.243989 0.779001 0.648642
O O3 0.248709 0.687332 0.691606
O O4 0.341763 0.707005 0.571974
O O5 0.624660 0.187539 0.000000
O O6 0.375655 0.100203 0.000000
O O7 0.255347 0.865463 0.297595
O O8 0.201860 0.854745 0.429021
O O9 0.000000 0.832498 0.343454
O O10 0.782560 0.407766 0.319459
O O11 0.000000 0.354479 0.271996
O O12 0.253103 0.777057 0.500000
O O13 0.169589 0.937550 0.068048
O O14 0.316626 0.000000 0.000000
O O15 0.000000 0.923899 0.830509
O O16 0.824060 0.000000 0.835745
O O17 0.500000 0.681405 0.000000
#
# Coordination Sequence:
#
# PCOD9522456 Si02
#       8
#    16   4  16  16   8   8  16   8
#     4  11  22  36  53  76 109 148 190 235 280 327
#     4  12  21  30  48  76 110 144 186 240 277 326
#     4  10  20  37  59  82 110 142 182 226 276 333
#     4  12  25  37  53  79 112 147 184 226 277 335
#     4  10  21  31  52  73 107 143 193 228 280 320
#     4  10  22  36  56  81 109 143 189 239 291 334
#     4  10  22  41  62  82 108 144 188 238 289 337
#     4   8  16  33  56  81 103 136 174 224 265 322
#
# _framework density 18.532627999999999
#
# number of rings (size 3 to 8) (size 9 to 14) (size 15 to 20)
#    0.000    1.565    0.435    4.826    6.087    1.391 
#    0.000    3.913    0.000    0.000    0.000    0.609 
#    0.000    4.870    0.000    0.000    0.000    0.000 
#
# Total GULP energy -256225.788107 kJ/mol
# GULP energy per Si atom -5570.125828 kJ/mol
# Density = 1.849045 g / cm^3
# Si number density = 18.532628 Si / 1000 Ang^3
#
#
#
# Elastic Constant Matrix: (Units=GPa)
#
#
# Indices 1 2 3 4 5 6 
#
# 1 132.4111 22.6919 38.8360 0.0000 0.0000 0.0000
# 2 22.6919 27.9532 15.7060 0.0000 0.0000 0.0000
# 3 38.8360 15.7060 125.7177 0.0001 0.0001 0.0000
# 4 0.0000 0.0000 0.0001 27.1426 -0.0001 0.0000
# 5 0.0000 0.0000 0.0001 -0.0001 295.1627 0.0000
# 6 0.0000 0.0000 0.0000 0.0000 0.0000 23.7179
#
#
#
# Elastic Compliance Matrix: (Units=1/GPa)
#
#
# Indices 1 2 3 4 5 6 
#
# 1 0.009245 -0.006346 -0.002063 0.000000 0.000000 0.000000
# 2 -0.006346 0.042830 -0.003391 0.000000 0.000000 0.000000
# 3 -0.002063 -0.003391 0.009015 0.000000 0.000000 0.000000
# 4 0.000000 0.000000 0.000000 0.036842 0.000000 0.000000
# 5 0.000000 0.000000 0.000000 0.000000 0.003388 0.000000
# 6 0.000000 0.000000 0.000000 0.000000 0.000000 0.042162
#
#
# Mechanical properties :
#
#
# Convention : Reuss Voigt Hill
#
# Bulk Modulus (GPa) = 26.67248 48.94997 37.81122
# Shear Modulus (GPa) = 27.84294 83.12786 55.48540
#
# Velocity S-wave (km/s) = 3.88025 6.70464 5.47762
# Velocity P-wave (km/s) = 5.87355 9.29551 7.77512
#
# Compressibility (1/GPa) = 0.03749183
#
# Stress axis : x y z
#
# Youngs Moduli (GPa) = 108.16888 23.34797 110.92326
#
# Poissons Ratio (x) = 0.14816 0.22885
# Poissons Ratio (y) = 0.68639 0.37610
# Poissons Ratio (z) = 0.22316 0.07916
#
# Static dielectric constant tensor:
#      x y z
#    x 1.631940 0.000000 0.000000 
#    y 0.000000 1.607390 0.000000 
#    z 0.000000 0.000000 1.712170 
# 
# From -- ./inp_files/50858.got.cif
#   From: 2010.05.17/outbox.cif.g08.bks.cpg/sg71_26_cif.got.tgz:50858.got - 2010.06.03 16:22:01.
