data_PCOD9522318
_publ_section_title
;
Structure prediction by ZEFSAII (Michael W. Deem and Ramdas Pophale) SiO2 
 PCOD9522318
Probable space group: I M M M
;
_chemical_formula_sum "Si O2"
_cell_formula_units_Z 104
_cell_length_a 9.476771
_cell_length_b 25.365836
_cell_length_c 24.330997
_cell_angle_alpha 90.000000
_cell_angle_beta 90.000000
_cell_angle_gamma 90.000000
_cell_volume 5848.836373
_symmetry_space_group_name_H-M "I M M M"
_symmetry_group_IT_number 71
_symmetry_cell_setting 'orthorhombic'
loop_
_space_group_symop_operation_xyz
x,y,z
-x,-y,z
x,-y,-z
-x,y,-z
-x,-y,-z
x,y,-z
-x,y,z
x,-y,z
1/2+x,1/2+y,1/2+z
1/2-x,1/2-y,1/2+z
1/2+x,1/2-y,1/2-z
1/2-x,1/2+y,1/2-z
1/2-x,1/2-y,1/2-z
1/2+x,1/2+y,1/2-z
1/2-x,1/2+y,1/2+z
1/2+x,1/2-y,1/2+z
loop_
_atom_site_type_symbol
_atom_site_label
_atom_site_fract_x
_atom_site_fract_y
_atom_site_fract_z
Si Si1 0.167490 0.440254 0.065938
Si Si2 0.168727 0.158923 0.615241
Si Si3 0.160052 0.936123 0.000000
Si Si4 0.841180 0.200663 0.266902
Si Si5 0.669324 0.225829 0.064900
Si Si6 0.836122 0.562696 0.392810
Si Si7 0.661834 0.648802 0.351364
O O1 0.210409 0.500000 0.082961
O O2 0.251350 0.392238 0.092963
O O3 0.000000 0.435031 0.077025
O O4 0.185995 0.437237 0.000000
O O5 0.209963 0.171071 0.678512
O O6 0.197106 0.212847 0.580995
O O7 0.000000 0.149707 0.612742
O O8 0.251967 0.921667 0.052349
O O9 0.000000 0.915946 0.000000
O O10 0.151497 0.000000 0.000000
O O11 0.750000 0.250000 0.250000
O O12 0.845120 0.168071 0.211022
O O13 0.000000 0.218546 0.280918
O O14 0.500000 0.216742 0.072057
O O15 0.757333 0.189227 0.107315
O O16 0.702433 0.216760 0.000000
O O17 0.826578 0.500000 0.385849
O O18 0.752310 0.595545 0.348501
O O19 0.000000 0.576780 0.396768
O O20 0.500000 0.640921 0.370578
#
# Coordination Sequence:
#
# PCOD9522318 Si02
#       7
#    16  16   8  16  16  16  16
#     4   9  19  36  57  84 120 158 193 232 282 341
#     4  10  20  36  59  85 113 147 190 236 282 335
#     4   9  17  31  53  79 105 135 173 219 268 317
#     4  10  21  38  59  82 109 145 190 235 279 333
#     4  10  21  36  55  81 114 149 182 224 280 338
#     4  10  21  37  56  77 104 142 184 223 270 329
#     4  11  23  37  56  82 110 144 186 231 282 332
#
# _framework density 17.781313999999998
#
# number of rings (size 3 to 8) (size 9 to 14) (size 15 to 20)
#    0.000    2.077    1.538    2.077    1.077    5.231 
#    0.000    1.538    0.000    4.615    0.000    0.000 
#    0.000    0.000    0.000    0.000    0.000    0.000 
#
# Total GULP energy -289918.521715 kJ/mol
# GULP energy per Si atom -5575.356187 kJ/mol
# Density = 1.774084 g / cm^3
# Si number density = 17.781314 Si / 1000 Ang^3
#
#
#
# Elastic Constant Matrix: (Units=GPa)
#
#
# Indices 1 2 3 4 5 6 
#
# 1 102.5161 58.2375 36.1012 0.0000 0.0000 0.0000
# 2 58.2375 90.7794 32.9452 0.0000 0.0000 0.0000
# 3 36.1012 32.9452 79.6257 0.0000 0.0000 0.0000
# 4 0.0000 0.0000 0.0000 29.9478 0.0000 0.0000
# 5 0.0000 0.0000 0.0000 0.0000 22.5681 0.0000
# 6 0.0000 0.0000 0.0000 0.0000 0.0000 34.1933
#
#
#
# Elastic Compliance Matrix: (Units=1/GPa)
#
#
# Indices 1 2 3 4 5 6 
#
# 1 0.016169 -0.009075 -0.003576 0.000000 0.000000 0.000000
# 2 -0.009075 0.018056 -0.003356 0.000000 0.000000 0.000000
# 3 -0.003576 -0.003356 0.015569 0.000000 0.000000 0.000000
# 4 0.000000 0.000000 0.000000 0.033391 0.000000 0.000000
# 5 0.000000 0.000000 0.000000 0.000000 0.044310 0.000000
# 6 0.000000 0.000000 0.000000 0.000000 0.000000 0.029245
#
#
# Mechanical properties :
#
#
# Convention : Reuss Voigt Hill
#
# Bulk Modulus (GPa) = 56.24584 58.60987 57.42786
# Shear Modulus (GPa) = 25.68292 27.05100 26.36696
#
# Velocity S-wave (km/s) = 3.80462 3.90464 3.85495
# Velocity P-wave (km/s) = 7.14149 7.30488 7.22365
#
# Compressibility (1/GPa) = 0.01777909
#
# Stress axis : x y z
#
# Youngs Moduli (GPa) = 61.84530 55.38419 64.23178
#
# Poissons Ratio (x) = 0.50263 0.22970
# Poissons Ratio (y) = 0.56126 0.21556
# Poissons Ratio (z) = 0.22116 0.18587
#
# Static dielectric constant tensor:
#      x y z
#    x 1.613690 0.000000 0.000000 
#    y 0.000000 1.616830 0.000000 
#    z 0.000000 0.000000 1.619010 
# 
# From -- ./inp_files/58009.got.cif
#   From: 2010.05.17/outbox.cif.g08.bks.cpg/sg71_30_cif.got.tgz:58009.got - 2010.06.03 16:22:01.
