data_PCOD9522581
_publ_section_title
;
Structure prediction by ZEFSAII (Michael W. Deem and Ramdas Pophale) SiO2 
 PCOD9522581
Probable space group: I M M M
;
_chemical_formula_sum "Si O2"
_cell_formula_units_Z 72
_cell_length_a 15.393249
_cell_length_b 27.548367
_cell_length_c 7.629223
_cell_angle_alpha 90.000000
_cell_angle_beta 90.000000
_cell_angle_gamma 90.000000
_cell_volume 3235.239706
_symmetry_space_group_name_H-M "I M M M"
_symmetry_group_IT_number 71
_symmetry_cell_setting 'orthorhombic'
loop_
_space_group_symop_operation_xyz
x,y,z
-x,-y,z
x,-y,-z
-x,y,-z
-x,-y,-z
x,y,-z
-x,y,z
x,-y,z
1/2+x,1/2+y,1/2+z
1/2-x,1/2-y,1/2+z
1/2+x,1/2-y,1/2-z
1/2-x,1/2+y,1/2-z
1/2-x,1/2-y,1/2-z
1/2+x,1/2+y,1/2-z
1/2-x,1/2+y,1/2+z
1/2+x,1/2-y,1/2+z
loop_
_atom_site_type_symbol
_atom_site_label
_atom_site_fract_x
_atom_site_fract_y
_atom_site_fract_z
Si Si1 0.154618 0.228992 0.208674
Si Si2 0.722523 0.909096 0.710171
Si Si3 0.400315 0.000000 0.208348
Si Si4 0.597164 0.621205 0.795324
Si Si5 0.592299 0.169988 0.286157
O O1 0.250000 0.250000 0.250000
O O2 0.128104 0.177453 0.286816
O O3 0.096387 0.274249 0.268413
O O4 0.146269 0.223340 0.000000
O O5 0.729847 0.904142 0.500000
O O6 0.658158 0.953693 0.741512
O O7 0.821318 0.909466 0.779233
O O8 0.672639 0.861435 0.778712
O O9 0.500000 0.000000 0.279575
O O10 0.407568 0.000000 0.000000
O O11 0.500000 0.616497 0.718281
O O12 0.589792 0.608142 0.000000
O O13 0.596221 0.169893 0.500000
O O14 0.500000 0.147659 0.234592
#
# Coordination Sequence:
#
# PCOD9522581 Si02
#       5
#    16  16   8  16  16
#     4  11  20  33  53  80 118 159 199 241 287 337
#     4  10  20  38  62  85 111 150 194 234 283 347
#     4  11  25  43  62  89 120 144 175 233 302 355
#     4  10  21  38  59  86 120 156 197 244 289 338
#     4   9  17  30  51  79 109 143 189 237 276 328
#
# _framework density 22.254921
#
# number of rings (size 3 to 8) (size 9 to 14) (size 15 to 20)
#    0.000    1.889    2.222    2.333    0.000    4.000 
#    0.000    0.556    0.000    7.333    0.000    0.000 
#    0.000    0.000    0.000    0.000    0.000    0.000 
#
# Total GULP energy -200878.562721 kJ/mol
# GULP energy per Si atom -5579.960076 kJ/mol
# Density = 2.220427 g / cm^3
# Si number density = 22.254921 Si / 1000 Ang^3
#
#
#
# Elastic Constant Matrix: (Units=GPa)
#
#
# Indices 1 2 3 4 5 6 
#
# 1 242.1735 59.3844 4.8460 -0.0004 0.0001 -0.0001
# 2 59.3844 76.5252 -8.0248 -0.0028 0.0009 -0.0001
# 3 4.8460 -8.0248 50.1612 -0.0176 0.0070 -0.0005
# 4 -0.0004 -0.0028 -0.0176 21.7710 0.0021 -0.0002
# 5 0.0001 0.0009 0.0070 0.0021 6.0245 -0.0003
# 6 -0.0001 -0.0001 -0.0005 -0.0002 -0.0003 35.0786
#
#
#
# Elastic Compliance Matrix: (Units=1/GPa)
#
#
# Indices 1 2 3 4 5 6 
#
# 1 0.005165 -0.004130 -0.001160 -0.000001 0.000002 0.000000
# 2 -0.004130 0.016593 0.003053 0.000005 -0.000006 0.000000
# 3 -0.001160 0.003053 0.020536 0.000017 -0.000024 0.000000
# 4 -0.000001 0.000005 0.000017 0.045933 -0.000016 0.000000
# 5 0.000002 -0.000006 -0.000024 -0.000016 0.165988 0.000001
# 6 0.000000 0.000000 0.000000 0.000000 0.000001 0.028507
#
#
# Mechanical properties :
#
#
# Convention : Reuss Voigt Hill
#
# Bulk Modulus (GPa) = 26.43969 53.47456 39.95713
# Shear Modulus (GPa) = 16.67768 33.41844 25.04806
#
# Velocity S-wave (km/s) = 2.74047 3.87928 3.35850
# Velocity P-wave (km/s) = 4.68185 6.64420 5.74740
#
# Compressibility (1/GPa) = 0.03782193
#
# Stress axis : x y z
#
# Youngs Moduli (GPa) = 193.60432 60.26781 48.69432
#
# Poissons Ratio (x) = 0.24890 0.05647
# Poissons Ratio (y) = 0.79956 -0.14869
# Poissons Ratio (z) = 0.22452 -0.18403
#
# Static dielectric constant tensor:
#      x y z
#    x 1.910760 -0.000010 0.000000 
#    y -0.000010 1.761610 0.000010 
#    z 0.000000 0.000010 1.817020 
# 
# From -- ./inp_files/6113.got.cif
#   From: 2010.05.17/outbox.cif.g08.bks.cpg/sg71_4_cif.got.tgz:6113.got - 2010.06.03 16:22:01.
