data_PCOD9522629
_publ_section_title
;
Structure prediction by ZEFSAII (Michael W. Deem and Ramdas Pophale) SiO2 
 PCOD9522629
Probable space group: I M M M
;
_chemical_formula_sum "Si O2"
_cell_formula_units_Z 82
_cell_length_a 22.443282
_cell_length_b 8.514816
_cell_length_c 23.070213
_cell_angle_alpha 90.000000
_cell_angle_beta 90.000000
_cell_angle_gamma 90.000000
_cell_volume 4408.727317
_symmetry_space_group_name_H-M "I M M M"
_symmetry_group_IT_number 71
_symmetry_cell_setting 'orthorhombic'
loop_
_space_group_symop_operation_xyz
x,y,z
-x,-y,z
x,-y,-z
-x,y,-z
-x,-y,-z
x,y,-z
-x,y,z
x,-y,z
1/2+x,1/2+y,1/2+z
1/2-x,1/2-y,1/2+z
1/2+x,1/2-y,1/2-z
1/2-x,1/2+y,1/2-z
1/2-x,1/2-y,1/2-z
1/2+x,1/2+y,1/2-z
1/2-x,1/2+y,1/2+z
1/2+x,1/2-y,1/2+z
loop_
_atom_site_type_symbol
_atom_site_label
_atom_site_fract_x
_atom_site_fract_y
_atom_site_fract_z
Si Si1 0.709113 0.809133 0.437539
Si Si2 0.000000 0.826190 0.879641
Si Si3 0.568987 0.811926 0.000000
Si Si4 0.186115 0.187009 0.272709
Si Si5 0.500000 0.500000 0.500000
Si Si6 0.341814 0.310114 0.903531
Si Si7 0.877695 0.312360 0.163922
O O1 0.685586 0.755167 0.500000
O O2 0.778074 0.766058 0.431308
O O3 0.670635 0.754461 0.383405
O O4 0.706766 0.000000 0.436723
O O5 0.058335 0.734711 0.859971
O O6 0.000000 0.865228 0.947986
O O7 0.000000 0.000000 0.851167
O O8 0.605171 0.755013 0.943092
O O9 0.500000 0.757344 0.000000
O O10 0.568957 0.000000 0.000000
O O11 0.250000 0.250000 0.250000
O O12 0.164967 0.241673 0.336481
O O13 0.138132 0.235694 0.224936
O O14 0.192318 0.000000 0.276473
O O15 0.346327 0.500000 0.904533
O O16 0.872290 0.500000 0.169324
#
# Coordination Sequence:
#
# PCOD9522629 Si02
#       7
#    16   8   8  16   2  16  16
#     4   9  17  31  56  88 118 149 194 252 304 363
#     4  10  23  43  61  87 123 167 209 260 313 379
#     4  11  25  43  62  91 127 161 202 264 324 371
#     4  11  22  38  61  93 128 167 208 260 318 379
#     4   8  24  44  66  80 128 160 206 262 322 380
#     4  10  20  39  64  88 120 160 207 250 304 376
#     4  11  22  39  62  90 124 167 213 262 319 382
#
# _framework density 18.599471000000001
#
# number of rings (size 3 to 8) (size 9 to 14) (size 15 to 20)
#    0.293    1.463    2.927    1.756    1.366    2.341 
#    1.756    0.488    2.146    0.000    0.000    0.000 
#    0.000    0.000    0.000    0.000    0.000    0.000 
#
# Total GULP energy -228471.992041 kJ/mol
# GULP energy per Si atom -5572.487611 kJ/mol
# Density = 1.855714 g / cm^3
# Si number density = 18.599471 Si / 1000 Ang^3
#
#
#
# Elastic Constant Matrix: (Units=GPa)
#
#
# Indices 1 2 3 4 5 6 
#
# 1 124.6899 14.8254 65.6510 0.0000 0.0000 0.0000
# 2 14.8254 31.2199 24.8454 0.0000 0.0000 0.0000
# 3 65.6510 24.8454 179.3280 0.0000 0.0000 0.0000
# 4 0.0000 0.0000 0.0000 25.9079 0.0000 0.0000
# 5 0.0000 0.0000 0.0000 0.0000 1.6659 0.0000
# 6 0.0000 0.0000 0.0000 0.0000 0.0000 27.6637
#
#
#
# Elastic Compliance Matrix: (Units=1/GPa)
#
#
# Indices 1 2 3 4 5 6 
#
# 1 0.010053 -0.002074 -0.003393 0.000000 0.000000 0.000000
# 2 -0.002074 0.036428 -0.004288 0.000000 0.000000 0.000000
# 3 -0.003393 -0.004288 0.007413 0.000000 0.000000 0.000000
# 4 0.000000 0.000000 0.000000 0.038598 0.000000 0.000000
# 5 0.000000 0.000000 0.000000 0.000000 0.600286 0.000000
# 6 0.000000 0.000000 0.000000 0.000000 0.000000 0.036148
#
#
# Mechanical properties :
#
#
# Convention : Reuss Voigt Hill
#
# Bulk Modulus (GPa) = 29.08293 60.65350 44.86822
# Shear Modulus (GPa) = 6.57984 26.37522 16.47753
#
# Velocity S-wave (km/s) = 1.88290 3.76980 2.97966
# Velocity P-wave (km/s) = 4.51636 7.18538 6.00113
#
# Compressibility (1/GPa) = 0.03438443
#
# Stress axis : x y z
#
# Youngs Moduli (GPa) = 99.47362 27.45152 134.90524
#
# Poissons Ratio (x) = 0.05692 0.45774
# Poissons Ratio (y) = 0.20627 0.57845
# Poissons Ratio (z) = 0.33752 0.11771
#
# Static dielectric constant tensor:
#      x y z
#    x 1.615610 0.000000 0.000000 
#    y 0.000000 1.648170 0.000000 
#    z 0.000000 0.000000 1.664630 
# 
# From -- ./inp_files/61071.got.cif
#   From: 2010.05.17/outbox.cif.g08.bks.cpg/sg71_31_cif.got.tgz:61071.got - 2010.06.03 16:22:01.
