data_PCOD9522863
_publ_section_title
;
Structure prediction by ZEFSAII (Michael W. Deem and Ramdas Pophale) SiO2 
 PCOD9522863
Probable space group: I M M M
;
_chemical_formula_sum "Si O2"
_cell_formula_units_Z 90
_cell_length_a 7.814684
_cell_length_b 20.854971
_cell_length_c 25.583284
_cell_angle_alpha 90.000000
_cell_angle_beta 90.000000
_cell_angle_gamma 90.000000
_cell_volume 4169.435920
_symmetry_space_group_name_H-M "I M M M"
_symmetry_group_IT_number 71
_symmetry_cell_setting 'orthorhombic'
loop_
_space_group_symop_operation_xyz
x,y,z
-x,-y,z
x,-y,-z
-x,y,-z
-x,-y,-z
x,y,-z
-x,y,z
x,-y,z
1/2+x,1/2+y,1/2+z
1/2-x,1/2-y,1/2+z
1/2+x,1/2-y,1/2-z
1/2-x,1/2+y,1/2-z
1/2-x,1/2-y,1/2-z
1/2+x,1/2+y,1/2-z
1/2-x,1/2+y,1/2+z
1/2+x,1/2-y,1/2+z
loop_
_atom_site_type_symbol
_atom_site_label
_atom_site_fract_x
_atom_site_fract_y
_atom_site_fract_z
Si Si1 0.196232 0.691284 0.214407
Si Si2 0.702984 0.190546 0.500000
Si Si3 0.290409 0.136185 0.389326
Si Si4 0.195012 0.000000 0.587339
Si Si5 0.702712 0.427105 0.283925
Si Si6 0.292303 0.160626 0.000000
Si Si7 0.000000 0.500000 0.000000
Si Si8 0.793038 0.573493 0.596730
O O1 0.250000 0.750000 0.250000
O O2 0.275528 0.681458 0.157141
O O3 0.216758 0.625683 0.246613
O O4 0.000000 0.703418 0.203446
O O5 0.500000 0.176775 0.500000
O O6 0.769041 0.159396 0.553517
O O7 0.731196 0.266421 0.500000
O O8 0.500000 0.134728 0.389788
O O9 0.223472 0.064738 0.380248
O O10 0.347416 0.000000 0.544871
O O11 0.000000 0.000000 0.566656
O O12 0.500000 0.426814 0.274577
O O13 0.767601 0.500000 0.276375
O O14 0.733488 0.410178 0.344866
O O15 0.235329 0.122028 0.948312
O O16 0.500000 0.161163 0.000000
O O17 0.738688 0.500000 0.585399
O O18 0.000000 0.574084 0.596845
#
# Coordination Sequence:
#
# PCOD9522863 Si02
#       8
#    16   8  16   8  16   8   2  16
#     4  11  25  43  67  97 132 175 218 271 337 400
#     4  10  23  41  63  87 122 170 204 251 321 390
#     4  10  23  45  69  95 133 173 217 277 342 405
#     4  12  25  41  75 108 135 185 228 284 350 407
#     4  10  22  40  63  91 126 165 211 268 318 377
#     4  10  21  35  56  88 124 160 201 262 315 370
#     4  12  22  44  68 102 160 176 230 284 338 412
#     4   9  18  35  59  87 120 159 205 253 313 379
#
# _framework density 21.585654000000002
#
# number of rings (size 3 to 8) (size 9 to 14) (size 15 to 20)
#    0.000    1.778    0.889    2.000    4.978    4.978 
#    0.000    0.000    0.000    2.667    0.000    0.000 
#    0.000    0.000    0.000    0.000    0.000    0.000 
#
# Total GULP energy -251168.734595 kJ/mol
# GULP energy per Si atom -5581.527435 kJ/mol
# Density = 2.153652 g / cm^3
# Si number density = 21.585654 Si / 1000 Ang^3
#
#
#
# Elastic Constant Matrix: (Units=GPa)
#
#
# Indices 1 2 3 4 5 6 
#
# 1 57.4094 -1.9929 7.5153 0.0000 0.0000 0.0000
# 2 -1.9929 94.4083 72.1890 0.0000 0.0000 0.0000
# 3 7.5153 72.1890 128.3851 0.0000 0.0000 0.0000
# 4 0.0000 0.0000 0.0000 -20.4223 0.0000 0.0000
# 5 0.0000 0.0000 0.0000 0.0000 6.2085 0.0000
# 6 0.0000 0.0000 0.0000 0.0000 0.0000 30.2209
#
#
#
# Elastic Compliance Matrix: (Units=1/GPa)
#
#
# Indices 1 2 3 4 5 6 
#
# 1 0.017777 0.002054 -0.002196 0.000000 0.000000 0.000000
# 2 0.002054 0.018819 -0.010702 0.000000 0.000000 0.000000
# 3 -0.002196 -0.010702 0.013935 0.000000 0.000000 0.000000
# 4 0.000000 0.000000 0.000000 -0.048966 0.000000 0.000000
# 5 0.000000 0.000000 0.000000 0.000000 0.161069 0.000000
# 6 0.000000 0.000000 0.000000 0.000000 0.000000 0.033090
#
#
# Mechanical properties :
#
#
# Convention : Reuss Voigt Hill
#
# Bulk Modulus (GPa) = 34.66832 48.40285 41.53558
# Shear Modulus (GPa) = 22.02404 16.70084 19.36244
#
# Velocity S-wave (km/s) = 3.19769 2.78457 2.99825
# Velocity P-wave (km/s) = 5.45246 5.72806 5.59196
#
# Compressibility (1/GPa) = 0.02884478
#
# Stress axis : x y z
#
# Youngs Moduli (GPa) = 56.25088 53.13874 71.76180
#
# Poissons Ratio (x) = -0.10916 0.15757
# Poissons Ratio (y) = -0.11555 0.76797
# Poissons Ratio (z) = 0.12351 0.56867
#
# Static dielectric constant tensor:
#      x y z
#    x 1.797130 0.000000 0.000000 
#    y 0.000000 1.790940 0.000000 
#    z 0.000000 0.000000 1.839190 
# 
# From -- ./inp_files/57638.got.cif
#   From: 2010.05.17/outbox.cif.g08.bks.cpg/sg71_29_cif.got.tgz:57638.got - 2010.06.03 16:22:01.
