data_PCOD9522953
_publ_section_title
;
Structure prediction by ZEFSAII (Michael W. Deem and Ramdas Pophale) SiO2 
 PCOD9522953
Probable space group: I M M M
;
_chemical_formula_sum "Si O2"
_cell_formula_units_Z 96
_cell_length_a 15.550579
_cell_length_b 23.715930
_cell_length_c 14.245927
_cell_angle_alpha 90.000000
_cell_angle_beta 90.000000
_cell_angle_gamma 90.000000
_cell_volume 5253.847205
_symmetry_space_group_name_H-M "I M M M"
_symmetry_group_IT_number 71
_symmetry_cell_setting 'orthorhombic'
loop_
_space_group_symop_operation_xyz
x,y,z
-x,-y,z
x,-y,-z
-x,y,-z
-x,-y,-z
x,y,-z
-x,y,z
x,-y,z
1/2+x,1/2+y,1/2+z
1/2-x,1/2-y,1/2+z
1/2+x,1/2-y,1/2-z
1/2-x,1/2+y,1/2-z
1/2-x,1/2-y,1/2-z
1/2+x,1/2+y,1/2-z
1/2-x,1/2+y,1/2+z
1/2+x,1/2-y,1/2+z
loop_
_atom_site_type_symbol
_atom_site_label
_atom_site_fract_x
_atom_site_fract_y
_atom_site_fract_z
Si Si1 0.156480 0.746595 0.610879
Si Si2 0.500000 0.567383 0.888968
Si Si3 0.665219 0.319403 0.606845
Si Si4 0.500000 0.178518 0.199653
Si Si5 0.000000 0.435250 0.220389
Si Si6 0.677863 0.066538 0.609681
Si Si7 0.337314 0.370466 0.199952
Si Si8 0.500000 0.238223 0.605161
O O1 0.141949 0.755225 0.500000
O O2 0.248862 0.717196 0.623112
O O3 0.154550 0.806578 0.662178
O O4 0.083174 0.706473 0.652767
O O5 0.500000 0.500000 0.879136
O O6 0.415927 0.593974 0.841624
O O7 0.500000 0.580871 0.000000
O O8 0.667724 0.341362 0.500000
O O9 0.659768 0.365863 0.687657
O O10 0.583489 0.277977 0.614103
O O11 0.500000 0.111146 0.198117
O O12 0.500000 0.194924 0.309790
O O13 0.085080 0.427197 0.157381
O O14 0.000000 0.500000 0.253806
O O15 0.675063 0.082585 0.500000
O O16 0.748842 0.103084 0.662891
O O17 0.701016 0.000000 0.614588
O O18 0.500000 0.213079 0.500000
#
# Coordination Sequence:
#
# PCOD9522953 Si02
#       8
#    16   8  16   8   8  16  16   8
#     4  11  23  37  58  89 122 151 186 237 291 347
#     4  11  24  40  59  87 120 153 194 241 287 340
#     4  10  22  39  56  83 119 154 192 234 284 339
#     4  12  22  38  58  83 116 154 191 235 288 346
#     4  10  23  39  57  81 113 155 197 239 284 336
#     4  10  21  37  57  84 118 153 192 239 289 342
#     4  12  21  37  61  86 115 157 194 230 287 348
#     4  10  21  36  54  80 115 153 192 230 276 338
#
# _framework density 18.272324000000001
#
# number of rings (size 3 to 8) (size 9 to 14) (size 15 to 20)
#    0.000    1.250    1.667    5.000    2.333    3.000 
#    0.000    0.000    0.000    3.500    0.000    9.333 
#    0.000    0.000    0.000    0.000    0.000    0.000 
#
# Total GULP energy -268395.669302 kJ/mol
# GULP energy per Si atom -5591.576444 kJ/mol
# Density = 1.823074 g / cm^3
# Si number density = 18.272324 Si / 1000 Ang^3
#
#
#
# Elastic Constant Matrix: (Units=GPa)
#
#
# Indices 1 2 3 4 5 6 
#
# 1 143.1397 61.1054 51.9326 0.0000 0.0000 -0.0003
# 2 61.1054 87.2104 58.9184 0.0000 0.0000 -0.0008
# 3 51.9326 58.9184 109.4373 -0.0001 0.0000 -0.0020
# 4 0.0000 0.0000 -0.0001 26.8163 0.0000 -0.0015
# 5 0.0000 0.0000 0.0000 0.0000 35.0783 0.0002
# 6 -0.0003 -0.0008 -0.0020 -0.0015 0.0002 -384.1269
#
#
#
# Elastic Compliance Matrix: (Units=1/GPa)
#
#
# Indices 1 2 3 4 5 6 
#
# 1 0.010132 -0.006052 -0.001550 0.000000 0.000000 0.000000
# 2 -0.006052 0.021636 -0.008776 0.000000 0.000000 0.000000
# 3 -0.001550 -0.008776 0.014598 0.000000 0.000000 0.000000
# 4 0.000000 0.000000 0.000000 0.037291 0.000000 0.000000
# 5 0.000000 0.000000 0.000000 0.000000 0.028508 0.000000
# 6 0.000000 0.000000 0.000000 0.000000 0.000000 -0.002603
#
#
# Mechanical properties :
#
#
# Convention : Reuss Voigt Hill
#
# Bulk Modulus (GPa) = 73.47687 75.96669 74.72178
# Shear Modulus (GPa) = 34.04713 -53.25773 -9.60530
#
# Velocity S-wave (km/s) = 4.32130 -5.40462 -2.29525
# Velocity P-wave (km/s) = 8.07450 1.64876 5.82735
#
# Compressibility (1/GPa) = 0.01360973
#
# Stress axis : x y z
#
# Youngs Moduli (GPa) = 98.69616 46.21833 68.50198
#
# Poissons Ratio (x) = 0.27973 0.10616
# Poissons Ratio (y) = 0.59733 0.60121
# Poissons Ratio (z) = 0.15295 0.40563
#
# Static dielectric constant tensor:
#      x y z
#    x 1.611810 0.000000 0.000000 
#    y 0.000000 1.612540 0.000000 
#    z 0.000000 0.000000 1.629780 
# 
# From -- ./inp_files/34578.got.cif
#   From: 2010.05.17/outbox.cif.g08.bks.cpg/sg71_18_cif.got.tgz:34578.got - 2010.06.03 16:22:01.
