data_PCOD9522248
_publ_section_title
;
Structure prediction by ZEFSAII (Michael W. Deem and Ramdas Pophale) SiO2 
 PCOD9522248
Probable space group: I M M M
;
_chemical_formula_sum "Si O2"
_cell_formula_units_Z 88
_cell_length_a 19.848566
_cell_length_b 14.439808
_cell_length_c 17.279845
_cell_angle_alpha 90.000000
_cell_angle_beta 90.000000
_cell_angle_gamma 90.000000
_cell_volume 4952.567426
_symmetry_space_group_name_H-M "I M M M"
_symmetry_group_IT_number 71
_symmetry_cell_setting 'orthorhombic'
loop_
_space_group_symop_operation_xyz
x,y,z
-x,-y,z
x,-y,-z
-x,y,-z
-x,-y,-z
x,y,-z
-x,y,z
x,-y,z
1/2+x,1/2+y,1/2+z
1/2-x,1/2-y,1/2+z
1/2+x,1/2-y,1/2-z
1/2-x,1/2+y,1/2-z
1/2-x,1/2-y,1/2-z
1/2+x,1/2+y,1/2-z
1/2-x,1/2+y,1/2+z
1/2+x,1/2-y,1/2+z
loop_
_atom_site_type_symbol
_atom_site_label
_atom_site_fract_x
_atom_site_fract_y
_atom_site_fract_z
Si Si1 0.422556 0.304390 0.670259
Si Si2 0.820416 0.897790 0.590200
Si Si3 0.919211 0.000000 0.911068
Si Si4 0.180223 0.391182 0.592544
Si Si5 0.923518 0.753950 0.350871
Si Si6 0.277301 0.756641 0.661755
O O1 0.500000 0.282650 0.644075
O O2 0.404894 0.406758 0.637609
O O3 0.423362 0.292541 0.763136
O O4 0.357361 0.243154 0.649290
O O5 0.806083 0.903113 0.500000
O O6 0.884233 0.831676 0.601523
O O7 0.757905 0.848154 0.630019
O O8 0.833299 0.000000 0.621823
O O9 0.000000 0.000000 0.918906
O O10 0.891295 0.000000 0.000000
O O11 0.170053 0.381758 0.500000
O O12 0.186017 0.500000 0.610721
O O13 0.119112 0.339931 0.637156
O O14 0.245235 0.331569 0.617355
O O15 0.000000 0.740351 0.375649
O O16 0.250000 0.750000 0.750000
#
# Coordination Sequence:
#
# PCOD9522248 Si02
#       6
#    16  16   8  16  16  16
#     4  10  21  36  56  83 115 148 186 233 285 338
#     4  10  22  38  56  81 113 149 188 230 281 339
#     4   9  20  36  54  82 117 151 186 230 288 345
#     4  10  22  38  57  84 116 152 194 237 286 343
#     4  10  20  36  57  84 117 150 190 235 278 336
#     4  11  20  36  58  83 108 147 190 233 282 336
#
# _framework density 17.768561999999999
#
# number of rings (size 3 to 8) (size 9 to 14) (size 15 to 20)
#    0.000    1.909    3.636    2.182    2.545    4.364 
#    0.000    1.818    0.000    0.545    0.000    1.273 
#    0.000    0.000    0.000    0.000    0.000    0.000 
#
# Total GULP energy -245068.659566 kJ/mol
# GULP energy per Si atom -5569.742263 kJ/mol
# Density = 1.772812 g / cm^3
# Si number density = 17.768562 Si / 1000 Ang^3
#
#
#
# Elastic Constant Matrix: (Units=GPa)
#
#
# Indices 1 2 3 4 5 6 
#
# 1 112.0448 7.0494 1.5487 0.0000 0.0000 0.0000
# 2 7.0494 76.5574 17.6673 0.0000 0.0000 0.0000
# 3 1.5487 17.6673 57.4619 0.0000 0.0000 0.0000
# 4 0.0000 0.0000 0.0000 43.2868 0.0000 0.0000
# 5 0.0000 0.0000 0.0000 0.0000 22.8041 0.0000
# 6 0.0000 0.0000 0.0000 0.0000 0.0000 7.6592
#
#
#
# Elastic Compliance Matrix: (Units=1/GPa)
#
#
# Indices 1 2 3 4 5 6 
#
# 1 0.008977 -0.000830 0.000013 0.000000 0.000000 0.000000
# 2 -0.000830 0.014136 -0.004324 0.000000 0.000000 0.000000
# 3 0.000013 -0.004324 0.018732 0.000000 0.000000 0.000000
# 4 0.000000 0.000000 0.000000 0.023102 0.000000 0.000000
# 5 0.000000 0.000000 0.000000 0.000000 0.043852 0.000000
# 6 0.000000 0.000000 0.000000 0.000000 0.000000 0.130562
#
#
# Mechanical properties :
#
#
# Convention : Reuss Voigt Hill
#
# Bulk Modulus (GPa) = 31.68139 33.17721 32.42930
# Shear Modulus (GPa) = 19.21867 29.40324 24.31096
#
# Velocity S-wave (km/s) = 3.29235 4.07232 3.70293
# Velocity P-wave (km/s) = 5.68520 6.38938 6.04755
#
# Compressibility (1/GPa) = 0.03156427
#
# Stress axis : x y z
#
# Youngs Moduli (GPa) = 111.39556 70.73956 53.38470
#
# Poissons Ratio (x) = 0.05869 -0.00070
# Poissons Ratio (y) = 0.09242 0.23084
# Poissons Ratio (z) = -0.00146 0.30588
#
# Static dielectric constant tensor:
#      x y z
#    x 1.628640 0.000000 0.000000 
#    y 0.000000 1.601830 0.000000 
#    z 0.000000 0.000000 1.635880 
# 
# From -- ./inp_files/37749.got.cif
#   From: 2010.05.17/outbox.cif.g08.bks.cpg/sg71_19_cif.got.tgz:37749.got - 2010.06.03 16:22:01.
