data_PCOD9522293
_publ_section_title
;
Structure prediction by ZEFSAII (Michael W. Deem and Ramdas Pophale) SiO2 
 PCOD9522293
Probable space group: I M M M
;
_chemical_formula_sum "Si O2"
_cell_formula_units_Z 80
_cell_length_a 16.834231
_cell_length_b 28.848473
_cell_length_c 8.618125
_cell_angle_alpha 90.000000
_cell_angle_beta 90.000000
_cell_angle_gamma 90.000000
_cell_volume 4185.322242
_symmetry_space_group_name_H-M "I M M M"
_symmetry_group_IT_number 71
_symmetry_cell_setting 'orthorhombic'
loop_
_space_group_symop_operation_xyz
x,y,z
-x,-y,z
x,-y,-z
-x,y,-z
-x,-y,-z
x,y,-z
-x,y,z
x,-y,z
1/2+x,1/2+y,1/2+z
1/2-x,1/2-y,1/2+z
1/2+x,1/2-y,1/2-z
1/2-x,1/2+y,1/2-z
1/2-x,1/2-y,1/2-z
1/2+x,1/2+y,1/2-z
1/2-x,1/2+y,1/2+z
1/2+x,1/2-y,1/2+z
loop_
_atom_site_type_symbol
_atom_site_label
_atom_site_fract_x
_atom_site_fract_y
_atom_site_fract_z
Si Si1 0.500000 0.663080 0.173851
Si Si2 0.857713 0.212880 0.178809
Si Si3 0.185910 0.500000 0.189458
Si Si4 0.694627 0.181904 0.683703
Si Si5 0.500000 0.566108 0.319503
Si Si6 0.369756 0.500000 0.185848
Si Si7 0.591817 0.092584 0.689191
O O1 0.576451 0.693835 0.206951
O O2 0.500000 0.620238 0.289888
O O3 0.500000 0.644393 0.000000
O O4 0.775104 0.187717 0.219672
O O5 0.847524 0.268133 0.197591
O O6 0.879607 0.203943 0.000000
O O7 0.278227 0.500000 0.239239
O O8 0.139076 0.546373 0.238435
O O9 0.186308 0.500000 0.000000
O O10 0.713877 0.175686 0.500000
O O11 0.639613 0.139067 0.733328
O O12 0.500000 0.555062 0.500000
O O13 0.421554 0.543435 0.244316
O O14 0.369691 0.500000 0.000000
O O15 0.590138 0.092146 0.500000
O O16 0.500000 0.092650 0.741336
#
# Coordination Sequence:
#
# PCOD9522293 Si02
#       7
#     8  16   8  16   8   8  16
#     4  12  25  39  60  86 117 153 193 242 296 358
#     4  10  21  37  56  83 118 153 194 241 288 345
#     4   9  18  30  50  83 117 148 190 237 282 335
#     4   9  19  35  58  83 114 155 197 237 286 345
#     4  11  23  40  59  84 116 154 197 243 291 348
#     4  10  20  36  58  86 119 158 197 240 285 342
#     4   9  17  30  52  81 113 150 190 237 286 333
#
# _framework density 19.114418000000001
#
# number of rings (size 3 to 8) (size 9 to 14) (size 15 to 20)
#    0.000    2.200    0.000    3.600    4.200    2.000 
#    0.000    0.000    0.000    0.000    0.000    0.000 
#    0.000    4.800    0.000    0.000    0.000    0.000 
#
# Total GULP energy -223270.491946 kJ/mol
# GULP energy per Si atom -5581.762299 kJ/mol
# Density = 1.907091 g / cm^3
# Si number density = 19.114418 Si / 1000 Ang^3
#
#
#
# Elastic Constant Matrix: (Units=GPa)
#
#
# Indices 1 2 3 4 5 6 
#
# 1 136.0593 82.4464 17.7526 -0.0003 -0.0007 0.0001
# 2 82.4464 104.7260 21.1642 -0.0008 -0.0010 0.0000
# 3 17.7526 21.1642 36.2257 -0.0157 -0.0073 0.0003
# 4 -0.0003 -0.0008 -0.0157 19.6575 -0.0070 0.0013
# 5 -0.0007 -0.0010 -0.0073 -0.0070 20.8474 0.0003
# 6 0.0001 0.0000 0.0003 0.0013 0.0003 15.1885
#
#
#
# Elastic Compliance Matrix: (Units=1/GPa)
#
#
# Indices 1 2 3 4 5 6 
#
# 1 0.014062 -0.010973 -0.000480 -0.000001 0.000000 0.000000
# 2 -0.010973 0.019390 -0.005951 -0.000004 -0.000001 0.000000
# 3 -0.000480 -0.005951 0.031317 0.000025 0.000011 -0.000001
# 4 -0.000001 -0.000004 0.000025 0.050871 0.000017 -0.000004
# 5 0.000000 -0.000001 0.000011 0.000017 0.047968 -0.000001
# 6 0.000000 0.000000 -0.000001 -0.000004 -0.000001 0.065840
#
#
# Mechanical properties :
#
#
# Convention : Reuss Voigt Hill
#
# Bulk Modulus (GPa) = 33.37767 57.74862 45.56314
# Shear Modulus (GPa) = 18.23210 21.51518 19.87364
#
# Velocity S-wave (km/s) = 3.09178 3.35864 3.22797
# Velocity P-wave (km/s) = 5.49958 6.73188 6.14669
#
# Compressibility (1/GPa) = 0.02996015
#
# Stress axis : x y z
#
# Youngs Moduli (GPa) = 71.11545 51.57294 31.93187
#
# Poissons Ratio (x) = 0.56592 0.01533
# Poissons Ratio (y) = 0.78036 0.19002
# Poissons Ratio (z) = 0.03414 0.30690
#
# Static dielectric constant tensor:
#      x y z
#    x 1.645890 0.000000 0.000000 
#    y 0.000000 1.644910 0.000000 
#    z 0.000000 0.000000 1.651800 
# 
# From -- ./inp_files/8476.got.cif
#   From: 2010.05.17/outbox.cif.g08.bks.cpg/sg71_5_cif.got.tgz:8476.got - 2010.06.03 16:22:01.
