data_PCOD9522130
_publ_section_title
;
Structure prediction by ZEFSAII (Michael W. Deem and Ramdas Pophale) SiO2 
 PCOD9522130
Probable space group: I M M M
;
_chemical_formula_sum "Si O2"
_cell_formula_units_Z 72
_cell_length_a 19.617295
_cell_length_b 23.460242
_cell_length_c 7.938507
_cell_angle_alpha 90.000000
_cell_angle_beta 90.000000
_cell_angle_gamma 90.000000
_cell_volume 3653.511197
_symmetry_space_group_name_H-M "I M M M"
_symmetry_group_IT_number 71
_symmetry_cell_setting 'orthorhombic'
loop_
_space_group_symop_operation_xyz
x,y,z
-x,-y,z
x,-y,-z
-x,y,-z
-x,-y,-z
x,y,-z
-x,y,z
x,-y,z
1/2+x,1/2+y,1/2+z
1/2-x,1/2-y,1/2+z
1/2+x,1/2-y,1/2-z
1/2-x,1/2+y,1/2-z
1/2-x,1/2-y,1/2-z
1/2+x,1/2+y,1/2-z
1/2-x,1/2+y,1/2+z
1/2+x,1/2-y,1/2+z
loop_
_atom_site_type_symbol
_atom_site_label
_atom_site_fract_x
_atom_site_fract_y
_atom_site_fract_z
Si Si1 0.922785 0.000000 0.799235
Si Si2 0.174390 0.435670 0.796426
Si Si3 0.577351 0.167390 0.797213
Si Si4 0.324591 0.397230 0.797074
Si Si5 0.826320 0.231231 0.296560
O O1 0.880520 0.055856 0.747218
O O2 0.000000 0.000000 0.730830
O O3 0.926439 0.000000 0.000000
O O4 0.159911 0.500000 0.738325
O O5 0.118751 0.389673 0.743934
O O6 0.249650 0.416703 0.736610
O O7 0.176389 0.436370 0.000000
O O8 0.500000 0.166196 0.733166
O O9 0.620398 0.221663 0.733317
O O10 0.574577 0.172004 0.000000
O O11 0.339391 0.333182 0.735906
O O12 0.321009 0.395059 0.000000
O O13 0.830435 0.230603 0.500000
O O14 0.750000 0.250000 0.250000
#
# Coordination Sequence:
#
# PCOD9522130 Si02
#       5
#     8  16  16  16  16
#     4  11  25  41  57  85 122 153 188 239 293 342
#     4  10  20  36  58  84 112 143 189 237 277 329
#     4  10  22  38  55  82 118 150 184 229 282 337
#     4  10  20  37  61  87 113 149 194 235 281 344
#     4  10  20  35  59  87 114 147 189 235 281 337
#
# _framework density 19.707070999999999
#
# number of rings (size 3 to 8) (size 9 to 14) (size 15 to 20)
#    0.000    1.889    3.333    0.333    0.000    4.889 
#    0.000    4.444    0.000    0.000    0.000    0.000 
#    0.000    0.000    0.000    0.000    0.000    0.000 
#
# Total GULP energy -201064.882352 kJ/mol
# GULP energy per Si atom -5585.135621 kJ/mol
# Density = 1.966222 g / cm^3
# Si number density = 19.707071 Si / 1000 Ang^3
#
#
#
# Elastic Constant Matrix: (Units=GPa)
#
#
# Indices 1 2 3 4 5 6 
#
# 1 206.8280 132.1976 6.0993 0.0000 0.0000 0.0000
# 2 132.1976 242.0641 11.1612 0.0000 0.0000 0.0000
# 3 6.0993 11.1612 13.9645 0.0000 0.0000 0.0000
# 4 0.0000 0.0000 0.0000 23.3017 0.0000 0.0000
# 5 0.0000 0.0000 0.0000 0.0000 17.5492 0.0000
# 6 0.0000 0.0000 0.0000 0.0000 0.0000 32.4603
#
#
#
# Elastic Compliance Matrix: (Units=1/GPa)
#
#
# Indices 1 2 3 4 5 6 
#
# 1 0.007428 -0.004056 -0.000002 0.000000 0.000000 0.000000
# 2 -0.004056 0.006504 -0.003427 0.000000 0.000000 0.000000
# 3 -0.000002 -0.003427 0.074350 0.000000 0.000000 0.000000
# 4 0.000000 0.000000 0.000000 0.042915 0.000000 0.000000
# 5 0.000000 0.000000 0.000000 0.000000 0.056983 0.000000
# 6 0.000000 0.000000 0.000000 0.000000 0.000000 0.030807
#
#
# Mechanical properties :
#
#
# Convention : Reuss Voigt Hill
#
# Bulk Modulus (GPa) = 13.64051 84.64144 49.14097
# Shear Modulus (GPa) = 19.35023 35.55547 27.45285
#
# Velocity S-wave (km/s) = 3.13692 4.25219 3.73640
# Velocity P-wave (km/s) = 4.47850 8.19458 6.60334
#
# Compressibility (1/GPa) = 0.07331106
#
# Stress axis : x y z
#
# Youngs Moduli (GPa) = 134.63135 153.74117 13.44991
#
# Poissons Ratio (x) = 0.62363 0.00003
# Poissons Ratio (y) = 0.54611 0.04609
# Poissons Ratio (z) = 0.00028 0.52687
#
# Static dielectric constant tensor:
#      x y z
#    x 1.663340 0.000000 0.000000 
#    y 0.000000 1.687990 0.000000 
#    z 0.000000 0.000000 1.719250 
# 
# From -- ./inp_files/7897.got.cif
#   From: 2010.05.17/outbox.cif.g08.bks.cpg/sg71_4_cif.got.tgz:7897.got - 2010.06.03 16:22:01.
