data_PCOD9522422
_publ_section_title
;
Structure prediction by ZEFSAII (Michael W. Deem and Ramdas Pophale) SiO2 
 PCOD9522422
Probable space group: I M M M
;
_chemical_formula_sum "Si O2"
_cell_formula_units_Z 112
_cell_length_a 10.964285
_cell_length_b 24.234530
_cell_length_c 23.087704
_cell_angle_alpha 90.000000
_cell_angle_beta 90.000000
_cell_angle_gamma 90.000000
_cell_volume 6134.732963
_symmetry_space_group_name_H-M "I M M M"
_symmetry_group_IT_number 71
_symmetry_cell_setting 'orthorhombic'
loop_
_space_group_symop_operation_xyz
x,y,z
-x,-y,z
x,-y,-z
-x,y,-z
-x,-y,-z
x,y,-z
-x,y,z
x,-y,z
1/2+x,1/2+y,1/2+z
1/2-x,1/2-y,1/2+z
1/2+x,1/2-y,1/2-z
1/2-x,1/2+y,1/2-z
1/2-x,1/2-y,1/2-z
1/2+x,1/2+y,1/2-z
1/2-x,1/2+y,1/2+z
1/2+x,1/2-y,1/2+z
loop_
_atom_site_type_symbol
_atom_site_label
_atom_site_fract_x
_atom_site_fract_y
_atom_site_fract_z
Si Si1 0.641936 0.560395 0.769882
Si Si2 0.144748 0.233586 0.434431
Si Si3 0.133102 0.710952 0.741807
Si Si4 0.728551 0.848904 0.654460
Si Si5 0.145780 0.438953 0.935325
Si Si6 0.141653 0.647906 0.379971
Si Si7 0.641425 0.435433 0.630593
O O1 0.500000 0.556978 0.783960
O O2 0.698616 0.500000 0.784352
O O3 0.690724 0.613165 0.803275
O O4 0.651271 0.566841 0.700629
O O5 0.188932 0.221371 0.500000
O O6 0.205414 0.197968 0.383499
O O7 0.160727 0.298238 0.419897
O O8 0.000000 0.222577 0.432938
O O9 0.250000 0.750000 0.750000
O O10 0.132785 0.677686 0.801732
O O11 0.150259 0.671496 0.686086
O O12 0.000000 0.738871 0.733649
O O13 0.677696 0.891812 0.608601
O O14 0.190823 0.500000 0.918468
O O15 0.000000 0.441855 0.938352
O O16 0.192534 0.427078 0.000000
O O17 0.248251 0.603379 0.390909
O O18 0.000000 0.628581 0.387502
O O19 0.500000 0.419415 0.615822
O O20 0.656608 0.500000 0.613894
#
# Coordination Sequence:
#
# PCOD9522422 Si02
#       7
#    16  16  16  16  16  16  16
#     4   9  18  30  46  74 110 145 177 210 257 319
#     4  10  22  38  55  77 106 143 187 234 280 327
#     4  11  23  36  52  80 113 145 183 227 278 336
#     4  12  19  32  54  78 105 138 180 229 273 322
#     4   9  19  35  51  68  96 137 181 221 264 315
#     4  10  20  37  56  81 113 146 183 226 275 328
#     4   9  18  34  56  84 116 148 177 209 262 332
#
# _framework density 18.256703999999999
#
# number of rings (size 3 to 8) (size 9 to 14) (size 15 to 20)
#    0.000    2.000    2.857    3.000    0.000    1.429 
#    0.000    0.000    0.000    2.571    0.000    9.000 
#    0.000    0.000    0.000    0.000    0.000    0.000 
#
# Total GULP energy -311913.802175 kJ/mol
# GULP energy per Si atom -5569.889325 kJ/mol
# Density = 1.821515 g / cm^3
# Si number density = 18.256704 Si / 1000 Ang^3
#
#
#
# Elastic Constant Matrix: (Units=GPa)
#
#
# Indices 1 2 3 4 5 6 
#
# 1 87.0935 48.7203 -2.9837 0.0000 0.0000 0.0000
# 2 48.7203 73.9031 7.7001 0.0000 0.0000 0.0000
# 3 -2.9837 7.7001 34.3692 0.0000 0.0000 0.0000
# 4 0.0000 0.0000 0.0000 20.4055 0.0000 0.0000
# 5 0.0000 0.0000 0.0000 0.0000 14.5655 0.0000
# 6 0.0000 0.0000 0.0000 0.0000 0.0000 24.1373
#
#
#
# Elastic Compliance Matrix: (Units=1/GPa)
#
#
# Indices 1 2 3 4 5 6 
#
# 1 0.018854 -0.012901 0.004527 0.000000 0.000000 0.000000
# 2 -0.012901 0.022682 -0.006202 0.000000 0.000000 0.000000
# 3 0.004527 -0.006202 0.030878 0.000000 0.000000 0.000000
# 4 0.000000 0.000000 0.000000 0.049006 0.000000 0.000000
# 5 0.000000 0.000000 0.000000 0.000000 0.068655 0.000000
# 6 0.000000 0.000000 0.000000 0.000000 0.000000 0.041430
#
#
# Mechanical properties :
#
#
# Convention : Reuss Voigt Hill
#
# Bulk Modulus (GPa) = 23.11437 33.58215 28.34826
# Shear Modulus (GPa) = 18.17667 21.28362 19.73015
#
# Velocity S-wave (km/s) = 3.15876 3.41808 3.29098
# Velocity P-wave (km/s) = 5.09823 5.83199 5.47741
#
# Compressibility (1/GPa) = 0.04326313
#
# Stress axis : x y z
#
# Youngs Moduli (GPa) = 53.03962 44.08725 32.38528
#
# Poissons Ratio (x) = 0.56877 -0.14661
# Poissons Ratio (y) = 0.68426 0.20084
# Poissons Ratio (z) = -0.24011 0.27342
#
# Static dielectric constant tensor:
#      x y z
#    x 1.638010 0.000000 0.000000 
#    y 0.000000 1.666470 0.000000 
#    z 0.000000 0.000000 1.630960 
# 
# From -- ./inp_files/52202.got.cif
#   From: 2010.05.17/outbox.cif.g08.bks.cpg/sg71_27_cif.got.tgz:52202.got - 2010.06.03 16:22:01.
