data_PCOD9522824
_publ_section_title
;
Structure prediction by ZEFSAII (Michael W. Deem and Ramdas Pophale) SiO2 
 PCOD9522824
Probable space group: I M M M
;
_chemical_formula_sum "Si O2"
_cell_formula_units_Z 120
_cell_length_a 23.225362
_cell_length_b 30.668266
_cell_length_c 8.845100
_cell_angle_alpha 90.000000
_cell_angle_beta 90.000000
_cell_angle_gamma 90.000000
_cell_volume 6300.201801
_symmetry_space_group_name_H-M "I M M M"
_symmetry_group_IT_number 71
_symmetry_cell_setting 'orthorhombic'
loop_
_space_group_symop_operation_xyz
x,y,z
-x,-y,z
x,-y,-z
-x,y,-z
-x,-y,-z
x,y,-z
-x,y,z
x,-y,z
1/2+x,1/2+y,1/2+z
1/2-x,1/2-y,1/2+z
1/2+x,1/2-y,1/2-z
1/2-x,1/2+y,1/2-z
1/2-x,1/2-y,1/2-z
1/2+x,1/2+y,1/2-z
1/2-x,1/2+y,1/2+z
1/2+x,1/2-y,1/2+z
loop_
_atom_site_type_symbol
_atom_site_label
_atom_site_fract_x
_atom_site_fract_y
_atom_site_fract_z
Si Si1 0.931254 0.298680 0.668974
Si Si2 0.266596 0.704633 0.674898
Si Si3 0.397788 0.606437 0.178887
Si Si4 0.887181 0.796794 0.678996
Si Si5 0.169959 0.551037 0.182771
Si Si6 0.769457 0.109175 0.817378
Si Si7 0.000000 0.949099 0.181029
Si Si8 0.933879 0.387433 0.180975
O O1 0.907550 0.305904 0.500000
O O2 0.917070 0.249124 0.711702
O O3 0.913300 0.339031 0.771900
O O4 0.000000 0.300895 0.663071
O O5 0.251931 0.708027 0.500000
O O6 0.250000 0.750000 0.750000
O O7 0.334149 0.700977 0.707508
O O8 0.245299 0.657273 0.730911
O O9 0.418645 0.656940 0.196823
O O10 0.333549 0.603141 0.249024
O O11 0.443429 0.574617 0.254763
O O12 0.394065 0.597747 0.000000
O O13 0.869073 0.795604 0.500000
O O14 0.166067 0.500000 0.219248
O O15 0.225421 0.573218 0.257893
O O16 0.112471 0.576979 0.232407
O O17 0.174661 0.555135 0.000000
O O18 0.773243 0.108961 0.000000
O O19 0.000000 0.000000 0.223460
O O20 0.000000 0.945849 0.000000
O O21 0.000000 0.394304 0.236453
O O22 0.936161 0.389394 0.000000
#
# Coordination Sequence:
#
# PCOD9522824 Si02
#       8
#    16  16  16  16  16  16   8  16
#     4   9  18  32  52  78 111 149 185 222 273 335
#     4  10  21  35  53  79 112 149 190 232 281 340
#     4  10  21  39  64  89 117 153 196 244 291 345
#     4   9  19  34  54  81 113 148 188 231 281 337
#     4  10  22  39  60  86 113 148 196 246 298 352
#     4  10  22  40  60  84 118 155 193 240 296 352
#     4  11  25  43  63  89 121 157 197 243 298 353
#     4   9  19  36  56  81 115 150 190 239 289 342
#
# _framework density 19.047008999999999
#
# number of rings (size 3 to 8) (size 9 to 14) (size 15 to 20)
#    0.000    2.333    0.000    1.400    2.800    4.800 
#    0.000    1.333    0.000    0.000    0.000    2.800 
#    0.000    0.000    0.000    0.000    0.000    0.000 
#
# Total GULP energy -334432.721647 kJ/mol
# GULP energy per Si atom -5573.878694 kJ/mol
# Density = 1.900366 g / cm^3
# Si number density = 19.047009 Si / 1000 Ang^3
#
#
#
# Elastic Constant Matrix: (Units=GPa)
#
#
# Indices 1 2 3 4 5 6 
#
# 1 91.7555 79.6098 31.0680 0.0000 0.0000 0.0000
# 2 79.6098 177.8070 50.4002 0.0000 0.0000 0.0000
# 3 31.0680 50.4002 30.7089 0.0000 0.0000 0.0000
# 4 0.0000 0.0000 0.0000 30.2834 0.0000 0.0000
# 5 0.0000 0.0000 0.0000 0.0000 24.7283 0.0000
# 6 0.0000 0.0000 0.0000 0.0000 0.0000 37.3929
#
#
#
# Elastic Compliance Matrix: (Units=1/GPa)
#
#
# Indices 1 2 3 4 5 6 
#
# 1 0.019339 -0.005821 -0.010012 0.000000 0.000000 0.000000
# 2 -0.005821 0.012268 -0.014246 0.000000 0.000000 0.000000
# 3 -0.010012 -0.014246 0.066074 0.000000 0.000000 0.000000
# 4 0.000000 0.000000 0.000000 0.033021 0.000000 0.000000
# 5 0.000000 0.000000 0.000000 0.000000 0.040439 0.000000
# 6 0.000000 0.000000 0.000000 0.000000 0.000000 0.026743
#
#
# Mechanical properties :
#
#
# Convention : Reuss Voigt Hill
#
# Bulk Modulus (GPa) = 26.64992 69.15861 47.90427
# Shear Modulus (GPa) = 18.48081 27.76048 23.12065
#
# Velocity S-wave (km/s) = 3.11830 3.82183 3.48785
# Velocity P-wave (km/s) = 5.19491 7.47418 6.43625
#
# Compressibility (1/GPa) = 0.03752356
#
# Stress axis : x y z
#
# Youngs Moduli (GPa) = 51.71001 81.51028 15.13446
#
# Poissons Ratio (x) = 0.47444 0.15152
# Poissons Ratio (y) = 0.30098 0.21561
# Poissons Ratio (z) = 0.51771 1.16124
#
# Static dielectric constant tensor:
#      x y z
#    x 1.654300 0.000000 0.000000 
#    y 0.000000 1.689250 0.000000 
#    z 0.000000 0.000000 1.659420 
# 
# From -- ./inp_files/15622.got.cif
#   From: 2010.05.17/outbox.cif.g08.bks.cpg/sg71_8_cif.got.tgz:15622.got - 2010.06.03 16:22:01.
