data_PCOD9522181
_publ_section_title
;
Structure prediction by ZEFSAII (Michael W. Deem and Ramdas Pophale) SiO2 
 PCOD9522181
Probable space group: I M M M
;
_chemical_formula_sum "Si O2"
_cell_formula_units_Z 72
_cell_length_a 14.613741
_cell_length_b 17.273056
_cell_length_c 14.890885
_cell_angle_alpha 90.000000
_cell_angle_beta 90.000000
_cell_angle_gamma 90.000000
_cell_volume 3758.816259
_symmetry_space_group_name_H-M "I M M M"
_symmetry_group_IT_number 71
_symmetry_cell_setting 'orthorhombic'
loop_
_space_group_symop_operation_xyz
x,y,z
-x,-y,z
x,-y,-z
-x,y,-z
-x,-y,-z
x,y,-z
-x,y,z
x,-y,z
1/2+x,1/2+y,1/2+z
1/2-x,1/2-y,1/2+z
1/2+x,1/2-y,1/2-z
1/2-x,1/2+y,1/2-z
1/2-x,1/2-y,1/2-z
1/2+x,1/2+y,1/2-z
1/2-x,1/2+y,1/2+z
1/2+x,1/2-y,1/2+z
loop_
_atom_site_type_symbol
_atom_site_label
_atom_site_fract_x
_atom_site_fract_y
_atom_site_fract_z
Si Si1 0.610920 0.913252 0.500000
Si Si2 0.104725 0.906144 0.600874
Si Si3 0.893302 0.321316 0.819713
Si Si4 0.604045 0.648088 0.392992
Si Si5 0.741276 0.410674 0.740076
O O1 0.500000 0.917146 0.500000
O O2 0.634727 0.868669 0.590521
O O3 0.649203 0.000000 0.500000
O O4 0.131673 0.881292 0.500000
O O5 0.173259 0.884359 0.679525
O O6 0.000000 0.880282 0.617781
O O7 0.102946 0.000000 0.600540
O O8 0.885620 0.231687 0.845709
O O9 0.827203 0.353369 0.743085
O O10 0.000000 0.337360 0.800847
O O11 0.613095 0.657063 0.500000
O O12 0.500000 0.620022 0.375104
O O13 0.680967 0.595169 0.349326
O O14 0.769262 0.500000 0.755643
#
# Coordination Sequence:
#
# PCOD9522181 Si02
#       5
#     8  16  16  16  16
#     4   9  16  28  50  78 106 138 176 219 270 326
#     4   8  15  28  44  66 101 139 172 215 275 335
#     4  10  20  36  55  79 113 149 184 229 283 340
#     4  10  21  39  60  80 109 152 197 238 282 333
#     4  11  22  33  53  84 113 145 188 237 285 338
#
# _framework density 19.154966999999999
#
# number of rings (size 3 to 8) (size 9 to 14) (size 15 to 20)
#    0.000    2.333    1.111    2.667    1.556    3.111 
#    0.000    1.111    0.000    0.667    0.000    1.556 
#    0.000    0.000    0.000    0.000    0.000    0.000 
#
# Total GULP energy -200949.280046 kJ/mol
# GULP energy per Si atom -5581.924446 kJ/mol
# Density = 1.911137 g / cm^3
# Si number density = 19.154967 Si / 1000 Ang^3
#
#
#
# Elastic Constant Matrix: (Units=GPa)
#
#
# Indices 1 2 3 4 5 6 
#
# 1 87.6603 18.6381 40.2145 0.0000 0.0000 0.0000
# 2 18.6381 25.6166 7.4937 0.0000 0.0000 0.0000
# 3 40.2145 7.4937 48.3593 0.0000 0.0000 0.0000
# 4 0.0000 0.0000 0.0000 23.8285 0.0000 0.0000
# 5 0.0000 0.0000 0.0000 0.0000 20.4857 0.0000
# 6 0.0000 0.0000 0.0000 0.0000 0.0000 20.5130
#
#
#
# Elastic Compliance Matrix: (Units=1/GPa)
#
#
# Indices 1 2 3 4 5 6 
#
# 1 0.020866 -0.010586 -0.015711 0.000000 0.000000 0.000000
# 2 -0.010586 0.046261 0.001634 0.000000 0.000000 0.000000
# 3 -0.015711 0.001634 0.033491 0.000000 0.000000 0.000000
# 4 0.000000 0.000000 0.000000 0.041967 0.000000 0.000000
# 5 0.000000 0.000000 0.000000 0.000000 0.048815 0.000000
# 6 0.000000 0.000000 0.000000 0.000000 0.000000 0.048750
#
#
# Mechanical properties :
#
#
# Convention : Reuss Voigt Hill
#
# Bulk Modulus (GPa) = 19.49624 32.70320 26.09972
# Shear Modulus (GPa) = 16.30944 19.31810 17.81377
#
# Velocity S-wave (km/s) = 2.92112 3.17916 3.05287
# Velocity P-wave (km/s) = 4.64516 5.53047 5.10704
#
# Compressibility (1/GPa) = 0.05129193
#
# Stress axis : x y z
#
# Youngs Moduli (GPa) = 47.92487 21.61652 29.85920
#
# Poissons Ratio (x) = 0.22882 0.46913
# Poissons Ratio (y) = 0.50731 -0.04879
# Poissons Ratio (z) = 0.75297 -0.03532
#
# Static dielectric constant tensor:
#      x y z
#    x 1.690280 0.000000 0.000000 
#    y 0.000000 1.651780 0.000000 
#    z 0.000000 0.000000 1.675500 
# 
# From -- ./inp_files/34055.got.cif
#   From: 2010.05.17/outbox.cif.g08.bks.cpg/sg71_18_cif.got.tgz:34055.got - 2010.06.03 16:22:01.
