data_PCOD9522071
_publ_section_title
;
Structure prediction by ZEFSAII (Michael W. Deem and Ramdas Pophale) SiO2 
 PCOD9522071
Probable space group: I M M M
;
_chemical_formula_sum "Si O2"
_cell_formula_units_Z 72
_cell_length_a 13.925280
_cell_length_b 8.019388
_cell_length_c 32.584196
_cell_angle_alpha 90.000000
_cell_angle_beta 90.000000
_cell_angle_gamma 90.000000
_cell_volume 3638.749613
_symmetry_space_group_name_H-M "I M M M"
_symmetry_group_IT_number 71
_symmetry_cell_setting 'orthorhombic'
loop_
_space_group_symop_operation_xyz
x,y,z
-x,-y,z
x,-y,-z
-x,y,-z
-x,-y,-z
x,y,-z
-x,y,z
x,-y,z
1/2+x,1/2+y,1/2+z
1/2-x,1/2-y,1/2+z
1/2+x,1/2-y,1/2-z
1/2-x,1/2+y,1/2-z
1/2-x,1/2-y,1/2-z
1/2+x,1/2+y,1/2-z
1/2-x,1/2+y,1/2+z
1/2+x,1/2-y,1/2+z
loop_
_atom_site_type_symbol
_atom_site_label
_atom_site_fract_x
_atom_site_fract_y
_atom_site_fract_z
Si Si1 0.389046 0.803519 0.129535
Si Si2 0.171707 0.188324 0.718298
Si Si3 0.111913 0.699915 0.000000
Si Si4 0.500000 0.296913 0.365041
Si Si5 0.000000 0.301397 0.228831
Si Si6 0.806324 0.799695 0.087245
O O1 0.500000 0.735986 0.125559
O O2 0.353508 0.784537 0.176581
O O3 0.298461 0.735972 0.102621
O O4 0.396305 0.000000 0.120192
O O5 0.250000 0.250000 0.750000
O O6 0.084527 0.208142 0.748745
O O7 0.192634 0.000000 0.705540
O O8 0.167633 0.758589 0.040474
O O9 0.108661 0.500000 0.000000
O O10 0.000000 0.760498 0.000000
O O11 0.500000 0.500000 0.364356
O O12 0.500000 0.227424 0.319370
O O13 0.599257 0.242117 0.387144
O O14 0.000000 0.500000 0.237608
O O15 0.803269 0.000000 0.092154
#
# Coordination Sequence:
#
# PCOD9522071 Si02
#       6
#    16  16   8   8   8  16
#     4  10  21  39  62  89 124 164 208 255 308 370
#     4  12  24  39  60  86 118 161 210 260 313 365
#     4  11  23  39  62  93 126 156 193 252 317 378
#     4  10  20  35  57  88 123 158 207 259 308 370
#     4  12  24  38  57  85 122 163 206 256 306 360
#     4  10  21  38  63  91 120 160 202 249 308 375
#
# _framework density 19.787018
#
# number of rings (size 3 to 8) (size 9 to 14) (size 15 to 20)
#    0.000    1.222    2.222    4.667    0.000    4.000 
#    0.000    0.556    0.000    3.333    0.000    0.000 
#    0.000    0.000    0.000    0.000    0.000    0.000 
#
# Total GULP energy -200642.962052 kJ/mol
# GULP energy per Si atom -5573.415613 kJ/mol
# Density = 1.974198 g / cm^3
# Si number density = 19.787018 Si / 1000 Ang^3
#
#
#
# Elastic Constant Matrix: (Units=GPa)
#
#
# Indices 1 2 3 4 5 6 
#
# 1 205.7242 1.7949 73.3870 0.0000 0.0000 0.0000
# 2 1.7949 21.0554 -17.3164 0.0000 0.0000 0.0000
# 3 73.3870 -17.3164 133.3586 0.0000 0.0000 0.0000
# 4 0.0000 0.0000 0.0000 29.0300 0.0000 0.0000
# 5 0.0000 0.0000 0.0000 0.0000 49.9480 0.0000
# 6 0.0000 0.0000 0.0000 0.0000 0.0000 22.0911
#
#
#
# Elastic Compliance Matrix: (Units=1/GPa)
#
#
# Indices 1 2 3 4 5 6 
#
# 1 0.006308 -0.003798 -0.003965 0.000000 0.000000 0.000000
# 2 -0.003798 0.055459 0.009291 0.000000 0.000000 0.000000
# 3 -0.003965 0.009291 0.010887 0.000000 0.000000 0.000000
# 4 0.000000 0.000000 0.000000 0.034447 0.000000 0.000000
# 5 0.000000 0.000000 0.000000 0.000000 0.020021 0.000000
# 6 0.000000 0.000000 0.000000 0.000000 0.000000 0.045267
#
#
# Mechanical properties :
#
#
# Convention : Reuss Voigt Hill
#
# Bulk Modulus (GPa) = 13.20812 52.87437 33.04124
# Shear Modulus (GPa) = 25.69779 40.36534 33.03157
#
# Velocity S-wave (km/s) = 3.60769 4.52153 4.09021
# Velocity P-wave (km/s) = 4.90342 7.35110 6.24829
#
# Compressibility (1/GPa) = 0.07571103
#
# Stress axis : x y z
#
# Youngs Moduli (GPa) = 158.52096 18.03134 91.85426
#
# Poissons Ratio (x) = 0.06849 0.36417
# Poissons Ratio (y) = 0.60212 -0.85346
# Poissons Ratio (z) = 0.62848 -0.16754
#
# Static dielectric constant tensor:
#      x y z
#    x 1.711530 0.000000 0.000000 
#    y 0.000000 1.715460 0.000000 
#    z 0.000000 0.000000 0.818230 
# 
# From -- ./inp_files/16407.got.cif
#   From: 2010.05.17/outbox.cif.g08.bks.cpg/sg71_9_cif.got.tgz:16407.got - 2010.06.03 16:22:01.
