data_PCOD9522528
_publ_section_title
;
Structure prediction by ZEFSAII (Michael W. Deem and Ramdas Pophale) SiO2 
 PCOD9522528
Probable space group: I M M M
;
_chemical_formula_sum "Si O2"
_cell_formula_units_Z 64
_cell_length_a 22.546716
_cell_length_b 8.995013
_cell_length_c 16.908685
_cell_angle_alpha 90.000000
_cell_angle_beta 90.000000
_cell_angle_gamma 90.000000
_cell_volume 3429.216647
_symmetry_space_group_name_H-M "I M M M"
_symmetry_group_IT_number 71
_symmetry_cell_setting 'orthorhombic'
loop_
_space_group_symop_operation_xyz
x,y,z
-x,-y,z
x,-y,-z
-x,y,-z
-x,-y,-z
x,y,-z
-x,y,z
x,-y,z
1/2+x,1/2+y,1/2+z
1/2-x,1/2-y,1/2+z
1/2+x,1/2-y,1/2-z
1/2-x,1/2+y,1/2-z
1/2-x,1/2-y,1/2-z
1/2+x,1/2+y,1/2-z
1/2-x,1/2+y,1/2+z
1/2+x,1/2-y,1/2+z
loop_
_atom_site_type_symbol
_atom_site_label
_atom_site_fract_x
_atom_site_fract_y
_atom_site_fract_z
Si Si1 0.140770 0.177765 0.355780
Si Si2 0.386813 0.321554 0.324862
Si Si3 0.262186 0.322318 0.593907
Si Si4 0.000000 0.677907 0.092357
Si Si5 0.070399 0.676764 0.500000
O O1 0.118165 0.214340 0.267941
O O2 0.207458 0.236864 0.367359
O O3 0.100662 0.252368 0.422992
O O4 0.139798 0.000000 0.365176
O O5 0.394063 0.500000 0.332486
O O6 0.324892 0.281539 0.367205
O O7 0.441806 0.242126 0.365631
O O8 0.262960 0.292440 0.500000
O O9 0.253722 0.500000 0.604588
O O10 0.000000 0.500000 0.097377
O O11 0.000000 0.721130 0.000000
O O12 0.081302 0.500000 0.500000
O O13 0.000000 0.703144 0.500000
#
# Coordination Sequence:
#
# PCOD9522528 Si02
#       5
#    16  16  16   8   8
#     4  11  23  39  62  93 125 158 202 255 308 360
#     4  10  23  41  63  91 123 163 205 249 306 368
#     4  10  20  37  62  90 123 163 204 245 299 368
#     4  11  25  43  63  92 125 160 205 255 304 355
#     4  11  25  43  63  87 121 166 209 248 305 369
#
# _framework density 18.663153999999999
#
# number of rings (size 3 to 8) (size 9 to 14) (size 15 to 20)
#    0.000    1.500    1.250    3.000    1.750    6.000 
#    0.000    0.000    0.000    0.000    0.000    0.000 
#    0.000    0.000    0.000    0.000    0.000    0.000 
#
# Total GULP energy -178954.010690 kJ/mol
# GULP energy per Si atom -5592.312834 kJ/mol
# Density = 1.862068 g / cm^3
# Si number density = 18.663154 Si / 1000 Ang^3
#
#
#
# Elastic Constant Matrix: (Units=GPa)
#
#
# Indices 1 2 3 4 5 6 
#
# 1 184.6425 85.8846 123.5752 0.0000 0.0000 0.0000
# 2 85.8846 59.3803 84.5398 0.0000 0.0000 0.0000
# 3 123.5752 84.5398 176.3492 0.0000 0.0000 0.0000
# 4 0.0000 0.0000 0.0000 23.5910 0.0000 0.0000
# 5 0.0000 0.0000 0.0000 0.0000 4.3309 0.0000
# 6 0.0000 0.0000 0.0000 0.0000 0.0000 8.2134
#
#
#
# Elastic Compliance Matrix: (Units=1/GPa)
#
#
# Indices 1 2 3 4 5 6 
#
# 1 0.016558 -0.023401 -0.000385 0.000000 0.000000 0.000000
# 2 -0.023401 0.086114 -0.024884 0.000000 0.000000 0.000000
# 3 -0.000385 -0.024884 0.017869 0.000000 0.000000 0.000000
# 4 0.000000 0.000000 0.000000 0.042389 0.000000 0.000000
# 5 0.000000 0.000000 0.000000 0.000000 0.230897 0.000000
# 6 0.000000 0.000000 0.000000 0.000000 0.000000 0.121753
#
#
# Mechanical properties :
#
#
# Convention : Reuss Voigt Hill
#
# Bulk Modulus (GPa) = 43.10019 112.04124 77.57071
# Shear Modulus (GPa) = 8.05603 15.65188 11.85395
#
# Velocity S-wave (km/s) = 2.07988 2.89909 2.52296
# Velocity P-wave (km/s) = 5.37696 8.44808 7.08102
#
# Compressibility (1/GPa) = 0.02320176
#
# Stress axis : x y z
#
# Youngs Moduli (GPa) = 60.39336 11.61256 55.96182
#
# Poissons Ratio (x) = 0.27174 0.02154
# Poissons Ratio (y) = 1.41326 1.39255
# Poissons Ratio (z) = 0.02324 0.28897
#
# Static dielectric constant tensor:
#      x y z
#    x 1.606360 0.000000 0.000000 
#    y 0.000000 1.622710 0.000000 
#    z 0.000000 0.000000 1.622720 
# 
# From -- ./inp_files/38769.got.cif
#   From: 2010.05.17/outbox.cif.g08.bks.cpg/sg71_20_cif.got.tgz:38769.got - 2010.06.03 16:22:01.
