data_PCOD9522590
_publ_section_title
;
Structure prediction by ZEFSAII (Michael W. Deem and Ramdas Pophale) SiO2 
 PCOD9522590
Probable space group: I M M M
;
_chemical_formula_sum "Si O2"
_cell_formula_units_Z 116
_cell_length_a 27.427796
_cell_length_b 25.556208
_cell_length_c 9.029026
_cell_angle_alpha 90.000000
_cell_angle_beta 90.000000
_cell_angle_gamma 90.000000
_cell_volume 6328.899924
_symmetry_space_group_name_H-M "I M M M"
_symmetry_group_IT_number 71
_symmetry_cell_setting 'orthorhombic'
loop_
_space_group_symop_operation_xyz
x,y,z
-x,-y,z
x,-y,-z
-x,y,-z
-x,-y,-z
x,y,-z
-x,y,z
x,-y,z
1/2+x,1/2+y,1/2+z
1/2-x,1/2-y,1/2+z
1/2+x,1/2-y,1/2-z
1/2-x,1/2+y,1/2-z
1/2-x,1/2-y,1/2-z
1/2+x,1/2+y,1/2-z
1/2-x,1/2+y,1/2+z
1/2+x,1/2-y,1/2+z
loop_
_atom_site_type_symbol
_atom_site_label
_atom_site_fract_x
_atom_site_fract_y
_atom_site_fract_z
Si Si1 0.896470 0.251911 0.177750
Si Si2 0.212254 0.289010 0.823259
Si Si3 0.097624 0.858707 0.663458
Si Si4 0.168055 0.940014 0.823649
Si Si5 0.129547 0.441093 0.324455
Si Si6 0.555938 0.859698 0.322353
Si Si7 0.500000 0.617077 0.000000
Si Si8 0.270201 0.910349 0.322302
O O1 0.842685 0.273116 0.217663
O O2 0.905958 0.197541 0.258924
O O3 0.932873 0.299238 0.216168
O O4 0.898302 0.243940 0.000000
O O5 0.250000 0.250000 0.750000
O O6 0.224311 0.348765 0.785589
O O7 0.215695 0.284347 0.000000
O O8 0.121495 0.851858 0.500000
O O9 0.129961 0.898829 0.756644
O O10 0.043725 0.879951 0.626552
O O11 0.220580 0.931337 0.748480
O O12 0.152412 0.000000 0.795592
O O13 0.172488 0.932521 0.000000
O O14 0.135608 0.432868 0.500000
O O15 0.110274 0.500000 0.300891
O O16 0.093324 0.398143 0.257610
O O17 0.181846 0.436642 0.245605
O O18 0.563453 0.864266 0.500000
O O19 0.500000 0.872535 0.288086
O O20 0.269453 0.916620 0.500000
#
# Coordination Sequence:
#
# PCOD9522590 Si02
#       8
#    16  16  16  16  16  16   4  16
#     4  10  20  38  62  89 124 163 204 253 310 370
#     4  10  21  35  54  84 123 160 197 242 295 360
#     4  10  22  41  63  92 125 162 205 253 311 371
#     4  11  24  42  64  93 127 163 209 261 313 378
#     4  11  24  41  60  86 123 165 209 259 313 370
#     4  10  22  40  63  90 118 158 212 264 313 370
#     4   8  24  44  63  94 132 160 207 268 310 374
#     4  11  22  39  62  91 125 163 210 254 307 374
#
# _framework density 18.328620000000001
#
# number of rings (size 3 to 8) (size 9 to 14) (size 15 to 20)
#    0.414    1.241    1.379    2.897    0.966    8.828 
#    0.000    3.103    0.000    0.828    0.000    0.000 
#    0.000    0.000    0.000    0.000    0.000    0.000 
#
# Total GULP energy -323316.512582 kJ/mol
# GULP energy per Si atom -5574.422631 kJ/mol
# Density = 1.828690 g / cm^3
# Si number density = 18.328620 Si / 1000 Ang^3
#
#
#
# Elastic Constant Matrix: (Units=GPa)
#
#
# Indices 1 2 3 4 5 6 
#
# 1 104.1953 64.0358 49.8559 0.0000 0.0000 0.0000
# 2 64.0358 92.1152 58.9338 0.0000 0.0000 0.0000
# 3 49.8559 58.9338 66.3222 0.0000 0.0000 0.0000
# 4 0.0000 0.0000 0.0000 29.6257 0.0000 0.0000
# 5 0.0000 0.0000 0.0000 0.0000 22.2721 0.0000
# 6 0.0000 0.0000 0.0000 0.0000 0.0000 -8.7482
#
#
#
# Elastic Compliance Matrix: (Units=1/GPa)
#
#
# Indices 1 2 3 4 5 6 
#
# 1 0.017569 -0.008723 -0.005456 0.000000 0.000000 0.000000
# 2 -0.008723 0.029490 -0.019648 0.000000 0.000000 0.000000
# 3 -0.005456 -0.019648 0.036638 0.000000 0.000000 0.000000
# 4 0.000000 0.000000 0.000000 0.033754 0.000000 0.000000
# 5 0.000000 0.000000 0.000000 0.000000 0.044899 0.000000
# 6 0.000000 0.000000 0.000000 0.000000 0.000000 -0.114310
#
#
# Mechanical properties :
#
#
# Convention : Reuss Voigt Hill
#
# Bulk Modulus (GPa) = 62.32731 67.58707 64.95719
# Shear Modulus (GPa) = 41.30828 14.61709 27.96268
#
# Velocity S-wave (km/s) = 4.75253 2.82707 3.91017
# Velocity P-wave (km/s) = 8.01215 6.90012 7.47684
#
# Compressibility (1/GPa) = 0.01604433
#
# Stress axis : x y z
#
# Youngs Moduli (GPa) = 56.91979 33.90977 27.29399
#
# Poissons Ratio (x) = 0.29578 0.14891
# Poissons Ratio (y) = 0.49649 0.53627
# Poissons Ratio (z) = 0.31054 0.66625
#
# Static dielectric constant tensor:
#      x y z
#    x 1.602560 0.000000 0.000000 
#    y 0.000000 1.635570 0.000000 
#    z 0.000000 0.000000 1.622940 
# 
# From -- ./inp_files/13427.got.cif
#   From: 2010.05.17/outbox.cif.g08.bks.cpg/sg71_7_cif.got.tgz:13427.got - 2010.06.03 16:22:01.
