data_PCOD9522854
_publ_section_title
;
Structure prediction by ZEFSAII (Michael W. Deem and Ramdas Pophale) SiO2 
 PCOD9522854
Probable space group: I M M M
;
_chemical_formula_sum "Si O2"
_cell_formula_units_Z 88
_cell_length_a 18.265454
_cell_length_b 23.018249
_cell_length_c 11.724749
_cell_angle_alpha 90.000000
_cell_angle_beta 90.000000
_cell_angle_gamma 90.000000
_cell_volume 4929.539028
_symmetry_space_group_name_H-M "I M M M"
_symmetry_group_IT_number 71
_symmetry_cell_setting 'orthorhombic'
loop_
_space_group_symop_operation_xyz
x,y,z
-x,-y,z
x,-y,-z
-x,y,-z
-x,-y,-z
x,y,-z
-x,y,z
x,-y,z
1/2+x,1/2+y,1/2+z
1/2-x,1/2-y,1/2+z
1/2+x,1/2-y,1/2-z
1/2-x,1/2+y,1/2-z
1/2-x,1/2-y,1/2-z
1/2+x,1/2+y,1/2-z
1/2-x,1/2+y,1/2+z
1/2+x,1/2-y,1/2+z
loop_
_atom_site_type_symbol
_atom_site_label
_atom_site_fract_x
_atom_site_fract_y
_atom_site_fract_z
Si Si1 0.918749 0.353145 0.136365
Si Si2 0.415781 0.258241 0.787164
Si Si3 0.229624 0.274255 0.622740
Si Si4 0.416931 0.430921 0.500000
Si Si5 0.280155 0.068404 0.636744
Si Si6 0.830993 0.870444 0.800089
O O1 0.911272 0.287759 0.182900
O O2 0.851600 0.394092 0.172454
O O3 0.000000 0.374098 0.173076
O O4 0.917853 0.352148 0.000000
O O5 0.500000 0.261647 0.824036
O O6 0.357692 0.231328 0.875021
O O7 0.384745 0.320875 0.750349
O O8 0.254571 0.247242 0.500000
O O9 0.250000 0.250000 0.750000
O O10 0.267188 0.336639 0.630849
O O11 0.418639 0.500000 0.500000
O O12 0.500000 0.407971 0.500000
O O13 0.375634 0.409039 0.387890
O O14 0.271841 0.074630 0.500000
O O15 0.209963 0.094132 0.701374
O O16 0.289739 0.000000 0.661556
#
# Coordination Sequence:
#
# PCOD9522854 Si02
#       6
#    16  16  16   8  16  16
#     4   9  18  32  53  85 121 155 193 243 299 353
#     4  10  21  35  55  85 119 153 190 239 295 358
#     4  10  21  36  57  85 116 153 196 239 294 354
#     4  11  24  40  60  84 113 149 192 242 292 349
#     4  10  21  37  58  84 115 156 203 247 292 349
#     4  11  21  37  58  86 114 150 194 241 296 343
#
# _framework density 17.851568
#
# number of rings (size 3 to 8) (size 9 to 14) (size 15 to 20)
#    0.000    1.909    2.727    1.091    1.273    4.364 
#    0.000    1.818    0.000    1.636    0.000    6.364 
#    0.000    5.818    0.000    0.000    0.000    0.000 
#
# Total GULP energy -245038.129803 kJ/mol
# GULP energy per Si atom -5569.048405 kJ/mol
# Density = 1.781094 g / cm^3
# Si number density = 17.851568 Si / 1000 Ang^3
#
#
#
# Elastic Constant Matrix: (Units=GPa)
#
#
# Indices 1 2 3 4 5 6 
#
# 1 145.7067 54.8228 45.2578 0.0000 0.0000 0.0000
# 2 54.8228 85.1566 25.4761 0.0000 0.0000 0.0000
# 3 45.2578 25.4761 76.1725 0.0000 0.0000 0.0000
# 4 0.0000 0.0000 0.0000 35.9581 0.0000 0.0000
# 5 0.0000 0.0000 0.0000 0.0000 24.5786 0.0000
# 6 0.0000 0.0000 0.0000 0.0000 0.0000 26.0878
#
#
#
# Elastic Compliance Matrix: (Units=1/GPa)
#
#
# Indices 1 2 3 4 5 6 
#
# 1 0.010177 -0.005270 -0.004284 0.000000 0.000000 0.000000
# 2 -0.005270 0.015778 -0.002146 0.000000 0.000000 0.000000
# 3 -0.004284 -0.002146 0.016391 0.000000 0.000000 0.000000
# 4 0.000000 0.000000 0.000000 0.027810 0.000000 0.000000
# 5 0.000000 0.000000 0.000000 0.000000 0.040686 0.000000
# 6 0.000000 0.000000 0.000000 0.000000 0.000000 0.038332
#
#
# Mechanical properties :
#
#
# Convention : Reuss Voigt Hill
#
# Bulk Modulus (GPa) = 52.78111 62.01656 57.39884
# Shear Modulus (GPa) = 27.95048 29.42351 28.68700
#
# Velocity S-wave (km/s) = 3.96121 4.06425 4.01306
# Velocity P-wave (km/s) = 7.11002 7.53921 7.32776
#
# Compressibility (1/GPa) = 0.01894617
#
# Stress axis : x y z
#
# Youngs Moduli (GPa) = 98.26520 63.38040 61.00919
#
# Poissons Ratio (x) = 0.33401 0.26135
# Poissons Ratio (y) = 0.51785 0.13091
# Poissons Ratio (z) = 0.42095 0.13600
#
# Static dielectric constant tensor:
#      x y z
#    x 1.658320 0.000000 0.000000 
#    y 0.000000 1.607550 0.000000 
#    z 0.000000 0.000000 1.628220 
# 
# From -- ./inp_files/23948.got.cif
#   From: 2010.05.17/outbox.cif.g08.bks.cpg/sg71_12_cif.got.tgz:23948.got - 2010.06.03 16:22:01.
