data_PCOD9522430
_publ_section_title
;
Structure prediction by ZEFSAII (Michael W. Deem and Ramdas Pophale) SiO2 
 PCOD9522430
Probable space group: I M M M
;
_chemical_formula_sum "Si O2"
_cell_formula_units_Z 64
_cell_length_a 14.031278
_cell_length_b 34.025153
_cell_length_c 7.497228
_cell_angle_alpha 90.000000
_cell_angle_beta 90.000000
_cell_angle_gamma 90.000000
_cell_volume 3579.299457
_symmetry_space_group_name_H-M "I M M M"
_symmetry_group_IT_number 71
_symmetry_cell_setting 'orthorhombic'
loop_
_space_group_symop_operation_xyz
x,y,z
-x,-y,z
x,-y,-z
-x,y,-z
-x,-y,-z
x,y,-z
-x,y,z
x,-y,z
1/2+x,1/2+y,1/2+z
1/2-x,1/2-y,1/2+z
1/2+x,1/2-y,1/2-z
1/2-x,1/2+y,1/2-z
1/2-x,1/2-y,1/2-z
1/2+x,1/2+y,1/2-z
1/2-x,1/2+y,1/2+z
1/2+x,1/2-y,1/2+z
loop_
_atom_site_type_symbol
_atom_site_label
_atom_site_fract_x
_atom_site_fract_y
_atom_site_fract_z
Si Si1 0.709312 0.123268 0.209848
Si Si2 0.609797 0.956020 0.216756
Si Si3 0.115365 0.232504 0.000000
Si Si4 0.611466 0.330729 0.790412
Si Si5 0.114247 0.677852 0.000000
O O1 0.676902 0.079894 0.269712
O O2 0.819936 0.133339 0.240371
O O3 0.652804 0.154805 0.327999
O O4 0.687453 0.127389 0.000000
O O5 0.500000 0.948430 0.271213
O O6 0.636369 0.000000 0.276897
O O7 0.610159 0.956809 0.000000
O O8 0.142258 0.206562 0.171709
O O9 0.149493 0.277124 0.000000
O O10 0.000000 0.234784 0.000000
O O11 0.500000 0.338617 0.752432
O O12 0.621044 0.322564 0.000000
O O13 0.000000 0.677289 0.000000
#
# Coordination Sequence:
#
# PCOD9522430 Si02
#       5
#    16  16   8  16   8
#     4  11  21  35  56  84 108 143 183 222 271 321
#     4   8  15  30  53  79 109 144 178 213 258 318
#     4   9  20  38  56  76 106 143 182 228 272 316
#     4  10  20  37  58  78 103 140 186 229 272 321
#     4  11  24  38  52  79 116 143 178 229 271 315
#
# _framework density 17.880595
#
# number of rings (size 3 to 8) (size 9 to 14) (size 15 to 20)
#    0.000    2.250    2.500    1.500    0.000    3.500 
#    0.000    3.125    0.000    3.000    0.000    5.250 
#    0.000    0.000    0.000    0.000    0.000    0.000 
#
# Total GULP energy -178521.856603 kJ/mol
# GULP energy per Si atom -5578.808019 kJ/mol
# Density = 1.783990 g / cm^3
# Si number density = 17.880595 Si / 1000 Ang^3
#
#
#
# Elastic Constant Matrix: (Units=GPa)
#
#
# Indices 1 2 3 4 5 6 
#
# 1 85.1911 80.4231 31.9880 -0.0069 0.0030 0.0001
# 2 80.4231 186.6809 53.2614 -0.0002 -0.0020 0.0007
# 3 31.9880 53.2614 97.6136 -0.0126 0.0149 0.0006
# 4 -0.0069 -0.0002 -0.0126 -22.9469 0.0094 -0.0108
# 5 0.0030 -0.0020 0.0149 0.0094 21.4812 0.0011
# 6 0.0001 0.0007 0.0006 -0.0108 0.0011 29.0384
#
#
#
# Elastic Compliance Matrix: (Units=1/GPa)
#
#
# Indices 1 2 3 4 5 6 
#
# 1 0.020181 -0.008062 -0.002214 -0.000005 -0.000002 0.000000
# 2 -0.008062 0.009565 -0.002577 0.000004 0.000004 0.000000
# 3 -0.002214 -0.002577 0.012376 -0.000006 -0.000009 0.000000
# 4 -0.000005 0.000004 -0.000006 -0.043579 0.000019 -0.000016
# 5 -0.000002 0.000004 -0.000009 0.000019 0.046552 -0.000002
# 6 0.000000 0.000000 0.000000 -0.000016 -0.000002 0.034437
#
#
# Mechanical properties :
#
#
# Convention : Reuss Voigt Hill
#
# Bulk Modulus (GPa) = 60.91959 77.87006 69.39482
# Shear Modulus (GPa) = 45.16241 19.10209 32.13225
#
# Velocity S-wave (km/s) = 5.03116 3.27205 4.24376
# Velocity P-wave (km/s) = 8.23980 7.61050 7.93139
#
# Compressibility (1/GPa) = 0.01641508
#
# Stress axis : x y z
#
# Youngs Moduli (GPa) = 49.55234 104.54504 80.79993
#
# Poissons Ratio (x) = 0.84286 0.17891
# Poissons Ratio (y) = 0.39950 0.20823
# Poissons Ratio (z) = 0.10972 0.26943
#
# Static dielectric constant tensor:
#      x y z
#    x 1.619530 0.000000 0.000000 
#    y 0.000000 1.602380 0.000000 
#    z 0.000000 0.000000 1.641580 
# 
# From -- ./inp_files/6339.got.cif
#   From: 2010.05.17/outbox.cif.g08.bks.cpg/sg71_4_cif.got.tgz:6339.got - 2010.06.03 16:22:01.
