data_PCOD9522080
_publ_section_title
;
Structure prediction by ZEFSAII (Michael W. Deem and Ramdas Pophale) SiO2 
 PCOD9522080
Probable space group: I M M M
;
_chemical_formula_sum "Si O2"
_cell_formula_units_Z 48
_cell_length_a 38.580550
_cell_length_b 9.016018
_cell_length_c 7.736412
_cell_angle_alpha 90.000000
_cell_angle_beta 90.000000
_cell_angle_gamma 90.000000
_cell_volume 2691.056243
_symmetry_space_group_name_H-M "I M M M"
_symmetry_group_IT_number 71
_symmetry_cell_setting 'orthorhombic'
loop_
_space_group_symop_operation_xyz
x,y,z
-x,-y,z
x,-y,-z
-x,y,-z
-x,-y,-z
x,y,-z
-x,y,z
x,-y,z
1/2+x,1/2+y,1/2+z
1/2-x,1/2-y,1/2+z
1/2+x,1/2-y,1/2-z
1/2-x,1/2+y,1/2-z
1/2-x,1/2-y,1/2-z
1/2+x,1/2+y,1/2-z
1/2-x,1/2+y,1/2+z
1/2+x,1/2-y,1/2+z
loop_
_atom_site_type_symbol
_atom_site_label
_atom_site_fract_x
_atom_site_fract_y
_atom_site_fract_z
Si Si1 0.213542 0.678276 0.802464
Si Si2 0.839184 0.321027 0.500000
Si Si3 0.540681 0.822939 0.701880
Si Si4 0.914564 0.823499 0.500000
O O1 0.217281 0.500000 0.792867
O O2 0.250000 0.750000 0.750000
O O3 0.183686 0.720264 0.667500
O O4 0.205089 0.718500 0.000000
O O5 0.843712 0.500000 0.500000
O O6 0.876156 0.244039 0.500000
O O7 0.547768 0.790459 0.500000
O O8 0.500000 0.791066 0.734413
O O9 0.564772 0.735567 0.832742
O O10 0.545486 0.000000 0.726954
O O11 0.913346 0.000000 0.500000
#
# Coordination Sequence:
#
# PCOD9522080 Si02
#       4
#    16   8  16   8
#     4  10  20  35  58  84 108 137 179 229 280 334
#     4  10  22  39  55  78 112 153 196 234 277 337
#     4   9  19  38  64  89 113 150 199 242 282 339
#     4  12  25  37  54  85 124 158 190 238 296 345
#
# _framework density 17.836862
#
# number of rings (size 3 to 8) (size 9 to 14) (size 15 to 20)
#    0.000    2.000    1.667    3.000    0.000    6.000 
#    0.000    5.000    0.000    0.000    0.000    0.000 
#    0.000    0.000    0.000    0.000    0.000    0.000 
#
# Total GULP energy -134044.669365 kJ/mol
# GULP energy per Si atom -5585.194557 kJ/mol
# Density = 1.779626 g / cm^3
# Si number density = 17.836862 Si / 1000 Ang^3
#
#
#
# Elastic Constant Matrix: (Units=GPa)
#
#
# Indices 1 2 3 4 5 6 
#
# 1 172.0349 83.9305 125.6579 0.0000 0.0000 0.0000
# 2 83.9305 55.5041 74.5775 0.0000 0.0000 0.0000
# 3 125.6579 74.5775 176.9785 0.0000 0.0000 0.0000
# 4 0.0000 0.0000 0.0000 10.8716 0.0000 0.0000
# 5 0.0000 0.0000 0.0000 0.0000 -33.5236 0.0000
# 6 0.0000 0.0000 0.0000 0.0000 0.0000 29.1893
#
#
#
# Elastic Compliance Matrix: (Units=1/GPa)
#
#
# Indices 1 2 3 4 5 6 
#
# 1 0.023279 -0.029952 -0.003907 0.000000 0.000000 0.000000
# 2 -0.029952 0.080069 -0.012474 0.000000 0.000000 0.000000
# 3 -0.003907 -0.012474 0.013681 0.000000 0.000000 0.000000
# 4 0.000000 0.000000 0.000000 0.091983 0.000000 0.000000
# 5 0.000000 0.000000 0.000000 0.000000 -0.029830 0.000000
# 6 0.000000 0.000000 0.000000 0.000000 0.000000 0.034259
#
#
# Mechanical properties :
#
#
# Convention : Reuss Voigt Hill
#
# Bulk Modulus (GPa) = 41.04576 108.09435 74.57005
# Shear Modulus (GPa) = 15.91194 9.33090 12.62142
#
# Velocity S-wave (km/s) = 2.99001 2.28967 2.66297
# Velocity P-wave (km/s) = 5.91455 8.22942 7.16608
#
# Compressibility (1/GPa) = 0.02436305
#
# Stress axis : x y z
#
# Youngs Moduli (GPa) = 42.95666 12.48918 73.09334
#
# Poissons Ratio (x) = 0.37407 0.28559
# Poissons Ratio (y) = 1.28663 0.91178
# Poissons Ratio (z) = 0.16784 0.15579
#
# Static dielectric constant tensor:
#      x y z
#    x 1.566030 0.000000 0.000000 
#    y 0.000000 1.594300 0.000000 
#    z 0.000000 0.000000 1.616340 
# 
# From -- ./inp_files/15983.got.cif
#   From: 2010.05.17/outbox.cif.g08.bks.cpg/sg71_8_cif.got.tgz:15983.got - 2010.06.03 16:22:01.
