data_PCOD9522417
_publ_section_title
;
Structure prediction by ZEFSAII (Michael W. Deem and Ramdas Pophale) SiO2 
 PCOD9522417
Probable space group: I M M M
;
_chemical_formula_sum "Si O2"
_cell_formula_units_Z 104
_cell_length_a 17.065710
_cell_length_b 29.798547
_cell_length_c 12.078573
_cell_angle_alpha 90.000000
_cell_angle_beta 90.000000
_cell_angle_gamma 90.000000
_cell_volume 6142.357330
_symmetry_space_group_name_H-M "I M M M"
_symmetry_group_IT_number 71
_symmetry_cell_setting 'orthorhombic'
loop_
_space_group_symop_operation_xyz
x,y,z
-x,-y,z
x,-y,-z
-x,y,-z
-x,-y,-z
x,y,-z
-x,y,z
x,-y,z
1/2+x,1/2+y,1/2+z
1/2-x,1/2-y,1/2+z
1/2+x,1/2-y,1/2-z
1/2-x,1/2+y,1/2-z
1/2-x,1/2-y,1/2-z
1/2+x,1/2+y,1/2-z
1/2-x,1/2+y,1/2+z
1/2+x,1/2-y,1/2+z
loop_
_atom_site_type_symbol
_atom_site_label
_atom_site_fract_x
_atom_site_fract_y
_atom_site_fract_z
Si Si1 0.593062 0.209960 0.375499
Si Si2 0.908188 0.190691 0.865857
Si Si3 0.910614 0.948100 0.632239
Si Si4 0.761380 0.051947 0.000000
Si Si5 0.620546 0.119475 0.756215
Si Si6 0.000000 0.445900 0.866003
Si Si7 0.087702 0.587904 0.500000
Si Si8 0.303105 0.608615 0.286606
O O1 0.624430 0.200872 0.500000
O O2 0.500000 0.216048 0.386632
O O3 0.619958 0.258949 0.335037
O O4 0.603412 0.167691 0.296747
O O5 0.849771 0.153612 0.818397
O O6 0.000000 0.183700 0.832782
O O7 0.906541 0.188716 0.000000
O O8 0.906014 0.944123 0.500000
O O9 0.851019 0.916191 0.692270
O O10 0.000000 0.937888 0.665738
O O11 0.894773 0.000000 0.660616
O O12 0.796307 0.076955 0.106000
O O13 0.666062 0.057347 0.000000
O O14 0.781127 0.000000 0.000000
O O15 0.573820 0.080475 0.689040
O O16 0.595378 0.115478 0.885200
O O17 0.713711 0.114814 0.750317
O O18 0.000000 0.500000 0.843499
O O19 0.000000 0.440103 0.000000
O O20 0.000000 0.566916 0.500000
#
# Coordination Sequence:
#
# PCOD9522417 Si02
#       8
#    16  16  16   8  16   8   8  16
#     4   9  17  33  59  83 105 141 191 236 275 335
#     4   9  18  34  58  84 109 144 185 231 288 330
#     4   9  19  36  56  76 102 144 188 224 268 333
#     4  10  22  35  51  80 112 149 183 226 280 324
#     4  11  22  36  57  82 114 152 186 226 282 334
#     4  11  24  41  61  87 117 146 189 249 291 324
#     4  10  20  37  54  77 107 156 192 227 264 331
#     4  11  21  35  55  81 117 143 178 238 280 334
#
# _framework density 16.931609000000002
#
# number of rings (size 3 to 8) (size 9 to 14) (size 15 to 20)
#    0.000    2.077    2.308    2.769    0.000    5.077 
#    0.000    1.538    1.692    1.846    0.000    0.000 
#    0.000    0.000    0.000    0.000    0.000    0.000 
#
# Total GULP energy -289745.145301 kJ/mol
# GULP energy per Si atom -5572.022025 kJ/mol
# Density = 1.689307 g / cm^3
# Si number density = 16.931609 Si / 1000 Ang^3
#
#
#
# Elastic Constant Matrix: (Units=GPa)
#
#
# Indices 1 2 3 4 5 6 
#
# 1 74.5511 81.4449 38.8343 0.0001 0.0002 0.0000
# 2 81.4449 136.1831 56.7571 0.0000 -0.0002 0.0000
# 3 38.8343 56.7571 66.9501 0.0011 0.0061 0.0001
# 4 0.0001 0.0000 0.0011 21.8034 0.0021 0.0001
# 5 0.0002 -0.0002 0.0061 0.0021 -92.9779 0.0000
# 6 0.0000 0.0000 0.0001 0.0001 0.0000 11.7159
#
#
#
# Elastic Compliance Matrix: (Units=1/GPa)
#
#
# Indices 1 2 3 4 5 6 
#
# 1 0.039541 -0.021786 -0.004466 0.000000 0.000000 0.000000
# 2 -0.021786 0.023359 -0.007165 0.000000 -0.000001 0.000000
# 3 -0.004466 -0.007165 0.023602 -0.000001 0.000002 0.000000
# 4 0.000000 0.000000 -0.000001 0.045864 0.000001 0.000000
# 5 0.000000 -0.000001 0.000002 0.000001 -0.010755 0.000000
# 6 0.000000 0.000000 0.000000 0.000000 0.000000 0.085354
#
#
# Mechanical properties :
#
#
# Convention : Reuss Voigt Hill
#
# Bulk Modulus (GPa) = 50.85054 70.19523 60.52288
# Shear Modulus (GPa) = 17.83451 -5.18184 6.32633
#
# Velocity S-wave (km/s) = 3.24902 -1.75131 1.93508
# Velocity P-wave (km/s) = 6.64627 6.12035 6.38872
#
# Compressibility (1/GPa) = 0.01966548
#
# Stress axis : x y z
#
# Youngs Moduli (GPa) = 25.29017 42.81059 42.36993
#
# Poissons Ratio (x) = 0.93268 0.18924
# Poissons Ratio (y) = 0.55098 0.30359
# Poissons Ratio (z) = 0.11296 0.30675
#
# Static dielectric constant tensor:
#      x y z
#    x 1.581710 0.000000 0.000000 
#    y 0.000000 1.565210 0.000000 
#    z 0.000000 0.000000 1.562910 
# 
# From -- ./inp_files/24620.got.cif
#   From: 2010.05.17/outbox.cif.g08.bks.cpg/sg71_13_cif.got.tgz:24620.got - 2010.06.03 16:22:01.
