data_PCOD9522282
_publ_section_title
;
Structure prediction by ZEFSAII (Michael W. Deem and Ramdas Pophale) SiO2 
 PCOD9522282
Probable space group: I M M M
;
_chemical_formula_sum "Si O2"
_cell_formula_units_Z 88
_cell_length_a 10.290091
_cell_length_b 16.796901
_cell_length_c 27.720991
_cell_angle_alpha 90.000000
_cell_angle_beta 90.000000
_cell_angle_gamma 90.000000
_cell_volume 4791.341542
_symmetry_space_group_name_H-M "I M M M"
_symmetry_group_IT_number 71
_symmetry_cell_setting 'orthorhombic'
loop_
_space_group_symop_operation_xyz
x,y,z
-x,-y,z
x,-y,-z
-x,y,-z
-x,-y,-z
x,y,-z
-x,y,z
x,-y,z
1/2+x,1/2+y,1/2+z
1/2-x,1/2-y,1/2+z
1/2+x,1/2-y,1/2-z
1/2-x,1/2+y,1/2-z
1/2-x,1/2-y,1/2-z
1/2+x,1/2+y,1/2-z
1/2-x,1/2+y,1/2+z
1/2+x,1/2-y,1/2+z
loop_
_atom_site_type_symbol
_atom_site_label
_atom_site_fract_x
_atom_site_fract_y
_atom_site_fract_z
Si Si1 0.500000 0.645179 0.056012
Si Si2 0.742293 0.823219 0.711002
Si Si3 0.784581 0.717018 0.055428
Si Si4 0.645819 0.306201 0.644338
Si Si5 0.000000 0.410521 0.058238
Si Si6 0.643558 0.093248 0.798908
Si Si7 0.000000 0.905854 0.333668
O O1 0.632894 0.695405 0.058784
O O2 0.500000 0.597871 0.107311
O O3 0.500000 0.609453 0.000000
O O4 0.750000 0.750000 0.750000
O O5 0.663166 0.780700 0.668847
O O6 0.673730 0.890376 0.742749
O O7 0.875110 0.859130 0.688842
O O8 0.822562 0.790115 0.088977
O O9 0.872294 0.640732 0.070191
O O10 0.816187 0.733613 0.000000
O O11 0.500000 0.334737 0.652242
O O12 0.749093 0.363415 0.669162
O O13 0.000000 0.500000 0.078311
O O14 0.000000 0.417309 0.000000
O O15 0.500000 0.126298 0.809713
O O16 0.645378 0.000000 0.808278
O O17 0.000000 0.000000 0.320073
#
# Coordination Sequence:
#
# PCOD9522282 Si02
#       7
#     8  16  16  16   8  16   8
#     4  10  22  39  58  85 120 163 208 254 309 362
#     4  10  23  37  60  83 117 157 198 246 301 368
#     4  10  20  36  58  84 117 155 201 245 295 359
#     4  11  22  36  62  91 117 154 198 248 301 361
#     4   9  18  34  53  74 110 155 194 235 283 342
#     4  10  23  41  62  86 118 156 196 247 305 367
#     4  12  24  39  59  91 129 166 212 266 317 368
#
# _framework density 18.366464000000001
#
# number of rings (size 3 to 8) (size 9 to 14) (size 15 to 20)
#    0.000    1.727    2.727    1.091   11.455    1.273 
#    0.000    1.818    0.000    0.545    0.000    2.545 
#    0.000    0.000    0.000    0.000    0.000    0.000 
#
# Total GULP energy -245158.222075 kJ/mol
# GULP energy per Si atom -5571.777774 kJ/mol
# Density = 1.832466 g / cm^3
# Si number density = 18.366464 Si / 1000 Ang^3
#
#
#
# Elastic Constant Matrix: (Units=GPa)
#
#
# Indices 1 2 3 4 5 6 
#
# 1 162.6761 41.7830 42.0272 0.0000 0.0000 0.0000
# 2 41.7830 59.7283 35.1248 0.0000 0.0000 0.0000
# 3 42.0272 35.1248 96.7013 0.0000 0.0000 0.0000
# 4 0.0000 0.0000 0.0000 23.5946 0.0000 0.0000
# 5 0.0000 0.0000 0.0000 0.0000 6.6143 0.0000
# 6 0.0000 0.0000 0.0000 0.0000 0.0000 20.2736
#
#
#
# Elastic Compliance Matrix: (Units=1/GPa)
#
#
# Indices 1 2 3 4 5 6 
#
# 1 0.007726 -0.004362 -0.001773 0.000000 0.000000 0.000000
# 2 -0.004362 0.023753 -0.006732 0.000000 0.000000 0.000000
# 3 -0.001773 -0.006732 0.013557 0.000000 0.000000 0.000000
# 4 0.000000 0.000000 0.000000 0.042382 0.000000 0.000000
# 5 0.000000 0.000000 0.000000 0.000000 0.151186 0.000000
# 6 0.000000 0.000000 0.000000 0.000000 0.000000 0.049325
#
#
# Mechanical properties :
#
#
# Convention : Reuss Voigt Hill
#
# Bulk Modulus (GPa) = 51.80998 61.88621 56.84810
# Shear Modulus (GPa) = 15.62025 23.44123 19.53074
#
# Velocity S-wave (km/s) = 2.91946 3.57642 3.26451
# Velocity P-wave (km/s) = 6.29560 7.12901 6.72522
#
# Compressibility (1/GPa) = 0.01930130
#
# Stress axis : x y z
#
# Youngs Moduli (GPa) = 129.43998 42.10065 73.76196
#
# Poissons Ratio (x) = 0.18363 0.13081
# Poissons Ratio (y) = 0.56456 0.49657
# Poissons Ratio (z) = 0.22954 0.28342
#
# Static dielectric constant tensor:
#      x y z
#    x 1.635270 0.000000 0.000000 
#    y 0.000000 1.628560 0.000000 
#    z 0.000000 0.000000 1.684120 
# 
# From -- ./inp_files/68091.got.cif
#   From: 2010.05.17/outbox.cif.g08.bks.cpg/sg71_35_cif.got.tgz:68091.got - 2010.06.03 16:22:01.
