data_PCOD9522030
_publ_section_title
;
Structure prediction by ZEFSAII (Michael W. Deem and Ramdas Pophale) SiO2 
 PCOD9522030
Probable space group: I M M M
;
_chemical_formula_sum "Si O2"
_cell_formula_units_Z 88
_cell_length_a 26.301501
_cell_length_b 20.974740
_cell_length_c 8.505918
_cell_angle_alpha 90.000000
_cell_angle_beta 90.000000
_cell_angle_gamma 90.000000
_cell_volume 4692.435499
_symmetry_space_group_name_H-M "I M M M"
_symmetry_group_IT_number 71
_symmetry_cell_setting 'orthorhombic'
loop_
_space_group_symop_operation_xyz
x,y,z
-x,-y,z
x,-y,-z
-x,y,-z
-x,-y,-z
x,y,-z
-x,y,z
x,-y,z
1/2+x,1/2+y,1/2+z
1/2-x,1/2-y,1/2+z
1/2+x,1/2-y,1/2-z
1/2-x,1/2+y,1/2-z
1/2-x,1/2-y,1/2-z
1/2+x,1/2+y,1/2-z
1/2-x,1/2+y,1/2+z
1/2+x,1/2-y,1/2+z
loop_
_atom_site_type_symbol
_atom_site_label
_atom_site_fract_x
_atom_site_fract_y
_atom_site_fract_z
Si Si1 0.197856 0.815544 0.186540
Si Si2 0.000000 0.221657 0.308626
Si Si3 0.305582 0.168558 0.312751
Si Si4 0.439313 0.500000 0.680105
Si Si5 0.094182 0.133967 0.312710
Si Si6 0.000000 0.368905 0.308066
Si Si7 0.608276 0.073030 0.189954
O O1 0.247554 0.846259 0.265121
O O2 0.189237 0.742293 0.242459
O O3 0.146930 0.851877 0.228939
O O4 0.206454 0.813715 0.000000
O O5 0.949780 0.183183 0.258914
O O6 0.000000 0.221500 0.500000
O O7 0.000000 0.294995 0.257358
O O8 0.310791 0.167350 0.500000
O O9 0.347691 0.121429 0.243208
O O10 0.500000 0.500000 0.674109
O O11 0.420029 0.500000 0.500000
O O12 0.422600 0.436841 0.769713
O O13 0.100024 0.141111 0.500000
O O14 0.052312 0.402897 0.257840
O O15 0.000000 0.369709 0.500000
O O16 0.617033 0.000000 0.242485
O O17 0.607871 0.073083 0.000000
#
# Coordination Sequence:
#
# PCOD9522030 Si02
#       7
#    16   8  16   8  16   8  16
#     4  10  21  38  60  86 114 145 188 239 290 343
#     4   9  18  30  52  84 115 146 183 232 281 331
#     4  10  21  38  60  85 114 150 189 234 288 343
#     4  11  23  39  57  79 115 159 195 232 285 342
#     4  11  21  36  58  85 116 150 191 237 286 342
#     4   9  17  32  55  85 116 148 187 228 277 334
#     4  10  20  35  57  84 116 153 192 235 280 332
#
# _framework density 18.753588000000001
#
# number of rings (size 3 to 8) (size 9 to 14) (size 15 to 20)
#    0.000    1.909    0.909    3.273    0.000    5.455 
#    1.636    0.455    0.000    4.364    0.000    0.000 
#    0.000    0.000    0.000    0.000    0.000    0.000 
#
# Total GULP energy -245666.867754 kJ/mol
# GULP energy per Si atom -5583.337903 kJ/mol
# Density = 1.871090 g / cm^3
# Si number density = 18.753588 Si / 1000 Ang^3
#
#
#
# Elastic Constant Matrix: (Units=GPa)
#
#
# Indices 1 2 3 4 5 6 
#
# 1 149.7078 74.7479 8.1182 0.0000 0.0000 0.0000
# 2 74.7479 115.3341 11.2104 0.0000 0.0000 0.0000
# 3 8.1182 11.2104 13.3507 0.0000 0.0000 0.0000
# 4 0.0000 0.0000 0.0000 22.7728 0.0000 0.0000
# 5 0.0000 0.0000 0.0000 0.0000 20.7735 0.0000
# 6 0.0000 0.0000 0.0000 0.0000 0.0000 7.5531
#
#
#
# Elastic Compliance Matrix: (Units=1/GPa)
#
#
# Indices 1 2 3 4 5 6 
#
# 1 0.009881 -0.006337 -0.000687 0.000000 0.000000 0.000000
# 2 -0.006337 0.013505 -0.007487 0.000000 0.000000 0.000000
# 3 -0.000687 -0.007487 0.081607 0.000000 0.000000 0.000000
# 4 0.000000 0.000000 0.000000 0.043912 0.000000 0.000000
# 5 0.000000 0.000000 0.000000 0.000000 0.048138 0.000000
# 6 0.000000 0.000000 0.000000 0.000000 0.000000 0.132396
#
#
# Mechanical properties :
#
#
# Convention : Reuss Voigt Hill
#
# Bulk Modulus (GPa) = 13.16292 51.83839 32.50066
# Shear Modulus (GPa) = 13.02813 22.50762 17.76788
#
# Velocity S-wave (km/s) = 2.63858 3.46812 3.08139
# Velocity P-wave (km/s) = 4.03942 6.61354 5.47977
#
# Compressibility (1/GPa) = 0.07597099
#
# Stress axis : x y z
#
# Youngs Moduli (GPa) = 101.20447 74.04551 12.25387
#
# Poissons Ratio (x) = 0.46923 0.00842
# Poissons Ratio (y) = 0.64134 0.09174
# Poissons Ratio (z) = 0.06955 0.55436
#
# Static dielectric constant tensor:
#      x y z
#    x 1.625620 0.000000 0.000000 
#    y 0.000000 1.632130 0.000000 
#    z 0.000000 0.000000 1.653190 
# 
# From -- ./inp_files/12640.got.cif
#   From: 2010.05.17/outbox.cif.g08.bks.cpg/sg71_7_cif.got.tgz:12640.got - 2010.06.03 16:22:01.
