data_PCOD9522156
_publ_section_title
;
Structure prediction by ZEFSAII (Michael W. Deem and Ramdas Pophale) SiO2 
 PCOD9522156
Probable space group: I M M M
;
_chemical_formula_sum "Si O2"
_cell_formula_units_Z 64
_cell_length_a 7.415099
_cell_length_b 15.836743
_cell_length_c 26.290189
_cell_angle_alpha 90.000000
_cell_angle_beta 90.000000
_cell_angle_gamma 90.000000
_cell_volume 3087.283636
_symmetry_space_group_name_H-M "I M M M"
_symmetry_group_IT_number 71
_symmetry_cell_setting 'orthorhombic'
loop_
_space_group_symop_operation_xyz
x,y,z
-x,-y,z
x,-y,-z
-x,y,-z
-x,-y,-z
x,y,-z
-x,y,z
x,-y,z
1/2+x,1/2+y,1/2+z
1/2-x,1/2-y,1/2+z
1/2+x,1/2-y,1/2-z
1/2-x,1/2+y,1/2-z
1/2-x,1/2-y,1/2-z
1/2+x,1/2+y,1/2-z
1/2-x,1/2+y,1/2+z
1/2+x,1/2-y,1/2+z
loop_
_atom_site_type_symbol
_atom_site_label
_atom_site_fract_x
_atom_site_fract_y
_atom_site_fract_z
Si Si1 0.500000 0.399917 0.944853
Si Si2 0.719835 0.400194 0.500000
Si Si3 0.280597 0.661499 0.388785
Si Si4 0.786528 0.000000 0.827638
Si Si5 0.283163 0.848223 0.635598
Si Si6 0.784271 0.500000 0.208466
O O1 0.500000 0.500000 0.948789
O O2 0.320876 0.376578 0.914536
O O3 0.500000 0.359439 0.000000
O O4 0.772648 0.500000 0.500000
O O5 0.500000 0.400108 0.500000
O O6 0.776829 0.354383 0.447457
O O7 0.500000 0.661043 0.390100
O O8 0.215432 0.583574 0.354895
O O9 0.232023 0.749580 0.361691
O O10 0.763688 0.000000 0.767382
O O11 0.000000 0.000000 0.837841
O O12 0.500000 0.853899 0.631050
O O13 0.224653 0.914474 0.679324
O O14 0.000000 0.500000 0.205380
#
# Coordination Sequence:
#
# PCOD9522156 Si02
#       6
#     8   8  16   8  16   8
#     4  11  24  40  62  93 125 157 203 250 300 360
#     4   9  14  26  54  84 119 154 191 242 294 357
#     4   9  18  33  55  89 120 155 202 245 296 367
#     4  10  20  35  60  88 117 153 205 256 303 357
#     4  10  22  41  63  87 123 162 204 246 300 362
#     4  10  22  40  59  80 113 159 205 253 303 356
#
# _framework density 20.730198999999999
#
# number of rings (size 3 to 8) (size 9 to 14) (size 15 to 20)
#    0.000    2.250    2.500    0.000    3.500    1.500 
#    2.250    1.250    0.000    0.000    0.000    2.625 
#    0.000    0.000    0.000    0.000    0.000    0.000 
#
# Total GULP energy -178501.543843 kJ/mol
# GULP energy per Si atom -5578.173245 kJ/mol
# Density = 2.068302 g / cm^3
# Si number density = 20.730199 Si / 1000 Ang^3
#
#
#
# Elastic Constant Matrix: (Units=GPa)
#
#
# Indices 1 2 3 4 5 6 
#
# 1 60.5739 17.7135 9.4067 0.0000 0.0000 0.0000
# 2 17.7135 200.5950 95.5502 0.0000 0.0000 0.0000
# 3 9.4067 95.5502 163.8372 0.0000 0.0000 0.0000
# 4 0.0000 0.0000 0.0000 -5.1277 0.0000 0.0000
# 5 0.0000 0.0000 0.0000 0.0000 70.3956 0.0000
# 6 0.0000 0.0000 0.0000 0.0000 0.0000 64.4635
#
#
#
# Elastic Compliance Matrix: (Units=1/GPa)
#
#
# Indices 1 2 3 4 5 6 
#
# 1 0.016949 -0.001431 -0.000139 0.000000 0.000000 0.000000
# 2 -0.001431 0.007023 -0.004014 0.000000 0.000000 0.000000
# 3 -0.000139 -0.004014 0.008453 0.000000 0.000000 0.000000
# 4 0.000000 0.000000 0.000000 -0.195018 0.000000 0.000000
# 5 0.000000 0.000000 0.000000 0.000000 0.014205 0.000000
# 6 0.000000 0.000000 0.000000 0.000000 0.000000 0.015513
#
#
# Mechanical properties :
#
#
# Convention : Reuss Voigt Hill
#
# Bulk Modulus (GPa) = 47.04106 74.48298 60.76202
# Shear Modulus (GPa) = -43.62123 46.10198 1.24038
#
# Velocity S-wave (km/s) = -4.59217 4.72095 0.77437
# Velocity P-wave (km/s) = 2.31864 8.10704 5.49309
#
# Compressibility (1/GPa) = 0.02125802
#
# Stress axis : x y z
#
# Youngs Moduli (GPa) = 59.00182 142.37950 118.30754
#
# Poissons Ratio (x) = 0.20368 0.01642
# Poissons Ratio (y) = 0.08440 0.47488
# Poissons Ratio (z) = 0.00819 0.57151
#
# Static dielectric constant tensor:
#      x y z
#    x 1.808040 0.000000 0.000000 
#    y 0.000000 1.804990 0.000000 
#    z 0.000000 0.000000 1.714560 
# 
# From -- ./inp_files/57197.got.cif
#   From: 2010.05.17/outbox.cif.g08.bks.cpg/sg71_29_cif.got.tgz:57197.got - 2010.06.03 16:22:01.
