data_PCOD9522337
_publ_section_title
;
Structure prediction by ZEFSAII (Michael W. Deem and Ramdas Pophale) SiO2 
 PCOD9522337
Probable space group: I M M M
;
_chemical_formula_sum "Si O2"
_cell_formula_units_Z 88
_cell_length_a 8.898114
_cell_length_b 25.710840
_cell_length_c 21.012689
_cell_angle_alpha 90.000000
_cell_angle_beta 90.000000
_cell_angle_gamma 90.000000
_cell_volume 4807.240656
_symmetry_space_group_name_H-M "I M M M"
_symmetry_group_IT_number 71
_symmetry_cell_setting 'orthorhombic'
loop_
_space_group_symop_operation_xyz
x,y,z
-x,-y,z
x,-y,-z
-x,y,-z
-x,-y,-z
x,y,-z
-x,y,z
x,-y,z
1/2+x,1/2+y,1/2+z
1/2-x,1/2-y,1/2+z
1/2+x,1/2-y,1/2-z
1/2-x,1/2+y,1/2-z
1/2-x,1/2-y,1/2-z
1/2+x,1/2+y,1/2-z
1/2-x,1/2+y,1/2+z
1/2+x,1/2-y,1/2+z
loop_
_atom_site_type_symbol
_atom_site_label
_atom_site_fract_x
_atom_site_fract_y
_atom_site_fract_z
Si Si1 0.675063 0.687199 0.313932
Si Si2 0.818908 0.605015 0.926393
Si Si3 0.677885 0.192183 0.322756
Si Si4 0.319782 0.500000 0.131173
Si Si5 0.319944 0.500000 0.281004
Si Si6 0.830072 0.937918 0.000000
Si Si7 0.823029 0.588727 0.632433
O O1 0.500000 0.672836 0.321051
O O2 0.693991 0.746519 0.337319
O O3 0.723012 0.683544 0.240003
O O4 0.780053 0.647274 0.350209
O O5 0.780797 0.653016 0.879520
O O6 0.745854 0.551863 0.901087
O O7 0.000000 0.599218 0.924340
O O8 0.776110 0.614461 0.000000
O O9 0.500000 0.183766 0.307623
O O10 0.500000 0.500000 0.125516
O O11 0.280887 0.500000 0.206357
O O12 0.500000 0.500000 0.287163
O O13 0.254332 0.550251 0.316748
O O14 0.743317 0.922454 0.936725
O O15 0.000000 0.916490 0.000000
O O16 0.840088 0.000000 0.000000
O O17 0.000000 0.579829 0.633824
#
# Coordination Sequence:
#
# PCOD9522337 Si02
#       7
#    16  16  16   8   8   8  16
#     4  10  20  36  59  87 117 151 192 240 292 344
#     4  10  21  38  59  82 112 148 189 233 280 339
#     4   9  19  37  60  86 114 149 194 242 291 341
#     4  11  24  38  56  85 116 147 186 232 283 340
#     4  11  23  39  59  85 116 149 191 240 287 339
#     4  11  23  41  63  83 114 156 196 237 288 347
#     4  12  24  38  59  87 119 153 192 238 287 346
#
# _framework density 18.305720000000001
#
# number of rings (size 3 to 8) (size 9 to 14) (size 15 to 20)
#    0.000    1.545    0.909    4.364    0.000    7.636 
#    1.636    0.000    0.000    0.000    0.000    0.000 
#    0.000    0.000    0.000    0.000    0.000    0.000 
#
# Total GULP energy -245832.540221 kJ/mol
# GULP energy per Si atom -5587.103187 kJ/mol
# Density = 1.826406 g / cm^3
# Si number density = 18.305720 Si / 1000 Ang^3
#
#
#
# Elastic Constant Matrix: (Units=GPa)
#
#
# Indices 1 2 3 4 5 6 
#
# 1 74.3751 38.4270 45.5059 0.0000 0.0000 0.0000
# 2 38.4270 96.6568 73.6268 0.0000 0.0000 0.0000
# 3 45.5059 73.6268 128.1565 0.0000 0.0000 0.0000
# 4 0.0000 0.0000 0.0000 32.5974 0.0000 0.0000
# 5 0.0000 0.0000 0.0000 0.0000 34.3122 0.0000
# 6 0.0000 0.0000 0.0000 0.0000 0.0000 20.5000
#
#
#
# Elastic Compliance Matrix: (Units=1/GPa)
#
#
# Indices 1 2 3 4 5 6 
#
# 1 0.018037 -0.004076 -0.004063 0.000000 0.000000 0.000000
# 2 -0.004076 0.019318 -0.009651 0.000000 0.000000 0.000000
# 3 -0.004063 -0.009651 0.014790 0.000000 0.000000 0.000000
# 4 0.000000 0.000000 0.000000 0.030677 0.000000 0.000000
# 5 0.000000 0.000000 0.000000 0.000000 0.029144 0.000000
# 6 0.000000 0.000000 0.000000 0.000000 0.000000 0.048781
#
#
# Mechanical properties :
#
#
# Convention : Reuss Voigt Hill
#
# Bulk Modulus (GPa) = 60.36679 68.25644 64.31162
# Shear Modulus (GPa) = 24.77105 26.92382 25.84743
#
# Velocity S-wave (km/s) = 3.68256 3.83924 3.76172
# Velocity P-wave (km/s) = 7.15054 7.55122 7.35361
#
# Compressibility (1/GPa) = 0.01656540
#
# Stress axis : x y z
#
# Youngs Moduli (GPa) = 55.44101 51.76591 67.61257
#
# Poissons Ratio (x) = 0.21100 0.27471
# Poissons Ratio (y) = 0.22598 0.65252
# Poissons Ratio (z) = 0.22526 0.49959
#
# Static dielectric constant tensor:
#      x y z
#    x 1.620120 0.000000 0.000000 
#    y 0.000000 1.618790 0.000000 
#    z 0.000000 0.000000 1.595280 
# 
# From -- ./inp_files/50576.got.cif
#   From: 2010.05.17/outbox.cif.g08.bks.cpg/sg71_26_cif.got.tgz:50576.got - 2010.06.03 16:22:01.
