data_PCOD9522976
_publ_section_title
;
Structure prediction by ZEFSAII (Michael W. Deem and Ramdas Pophale) SiO2 
 PCOD9522976
Probable space group: I M M M
;
_chemical_formula_sum "Si O2"
_cell_formula_units_Z 80
_cell_length_a 9.298290
_cell_length_b 14.688246
_cell_length_c 30.653784
_cell_angle_alpha 90.000000
_cell_angle_beta 90.000000
_cell_angle_gamma 90.000000
_cell_volume 4186.558050
_symmetry_space_group_name_H-M "I M M M"
_symmetry_group_IT_number 71
_symmetry_cell_setting 'orthorhombic'
loop_
_space_group_symop_operation_xyz
x,y,z
-x,-y,z
x,-y,-z
-x,y,-z
-x,-y,-z
x,y,-z
-x,y,z
x,-y,z
1/2+x,1/2+y,1/2+z
1/2-x,1/2-y,1/2+z
1/2+x,1/2-y,1/2-z
1/2-x,1/2+y,1/2-z
1/2-x,1/2-y,1/2-z
1/2+x,1/2+y,1/2-z
1/2-x,1/2+y,1/2+z
1/2+x,1/2-y,1/2+z
loop_
_atom_site_type_symbol
_atom_site_label
_atom_site_fract_x
_atom_site_fract_y
_atom_site_fract_z
Si Si1 0.825229 0.896326 0.111381
Si Si2 0.835685 0.610939 0.206481
Si Si3 0.832961 0.890367 0.380635
Si Si4 0.826711 0.730742 0.050933
Si Si5 0.165897 0.110950 0.791799
O O1 0.784944 0.825931 0.073954
O O2 0.781531 0.863625 0.159808
O O3 0.000000 0.899278 0.112858
O O4 0.775380 0.000000 0.104116
O O5 0.836037 0.500000 0.207182
O O6 0.744476 0.638048 0.164288
O O7 0.763243 0.640837 0.251615
O O8 0.000000 0.641407 0.202504
O O9 0.750649 0.846747 0.421212
O O10 0.000000 0.863771 0.380233
O O11 0.825642 0.000000 0.382984
O O12 0.000000 0.721192 0.054746
O O13 0.789761 0.728888 0.000000
O O14 0.000000 0.139290 0.785624
O O15 0.164999 0.000000 0.792010
#
# Coordination Sequence:
#
# PCOD9522976 Si02
#       5
#    16  16  16  16  16
#     4   8  15  30  53  80 109 141 175 210 251 303
#     4   9  16  27  47  76 107 135 166 209 258 305
#     4  10  21  37  56  76 101 137 178 216 258 313
#     4  10  21  36  55  80 107 134 170 220 270 310
#     4   8  13  24  45  72 103 139 174 204 239 293
#
# _framework density 19.108777
#
# number of rings (size 3 to 8) (size 9 to 14) (size 15 to 20)
#    0.000    3.000    0.000    2.400    0.000    4.800 
#    0.000    6.000    0.000    1.800    0.000    1.400 
#    0.000    0.000    0.000    0.000    0.000    0.000 
#
# Total GULP energy -223205.112725 kJ/mol
# GULP energy per Si atom -5580.127818 kJ/mol
# Density = 1.906528 g / cm^3
# Si number density = 19.108777 Si / 1000 Ang^3
#
#
#
# Elastic Constant Matrix: (Units=GPa)
#
#
# Indices 1 2 3 4 5 6 
#
# 1 92.0067 39.4028 109.7652 0.0000 0.0000 0.0000
# 2 39.4028 69.1284 62.8044 0.0000 0.0000 0.0000
# 3 109.7652 62.8044 247.0320 0.0000 0.0000 0.0000
# 4 0.0000 0.0000 0.0000 37.1898 0.0000 0.0000
# 5 0.0000 0.0000 0.0000 0.0000 20.2782 0.0000
# 6 0.0000 0.0000 0.0000 0.0000 0.0000 9.1979
#
#
#
# Elastic Compliance Matrix: (Units=1/GPa)
#
#
# Indices 1 2 3 4 5 6 
#
# 1 0.024541 -0.005307 -0.009555 0.000000 0.000000 0.000000
# 2 -0.005307 0.019958 -0.002716 0.000000 0.000000 0.000000
# 3 -0.009555 -0.002716 0.008984 0.000000 0.000000 0.000000
# 4 0.000000 0.000000 0.000000 0.026889 0.000000 0.000000
# 5 0.000000 0.000000 0.000000 0.000000 0.049314 0.000000
# 6 0.000000 0.000000 0.000000 0.000000 0.000000 0.108721
#
#
# Mechanical properties :
#
#
# Convention : Reuss Voigt Hill
#
# Bulk Modulus (GPa) = 54.56419 92.45688 73.51054
# Shear Modulus (GPa) = 17.87797 26.41281 22.14539
#
# Velocity S-wave (km/s) = 3.06206 3.72187 3.40797
# Velocity P-wave (km/s) = 6.41234 8.18287 7.35110
#
# Compressibility (1/GPa) = 0.01832704
#
# Stress axis : x y z
#
# Youngs Moduli (GPa) = 40.74787 50.10413 111.30545
#
# Poissons Ratio (x) = 0.26591 1.06355
# Poissons Ratio (y) = 0.21626 0.30230
# Poissons Ratio (z) = 0.38936 0.13608
#
# Static dielectric constant tensor:
#      x y z
#    x 1.638020 0.000000 0.000000 
#    y 0.000000 1.712870 0.000000 
#    z 0.000000 0.000000 1.636560 
# 
# From -- ./inp_files/14546.got.cif
#   From: 2010.05.17/outbox.cif.g08.bks.cpg/sg71_8_cif.got.tgz:14546.got - 2010.06.03 16:22:01.
