data_PCOD9522568
_publ_section_title
;
Structure prediction by ZEFSAII (Michael W. Deem and Ramdas Pophale) SiO2 
 PCOD9522568
Probable space group: I M M M
;
_chemical_formula_sum "Si O2"
_cell_formula_units_Z 104
_cell_length_a 9.340202
_cell_length_b 19.643437
_cell_length_c 30.253305
_cell_angle_alpha 90.000000
_cell_angle_beta 90.000000
_cell_angle_gamma 90.000000
_cell_volume 5550.684884
_symmetry_space_group_name_H-M "I M M M"
_symmetry_group_IT_number 71
_symmetry_cell_setting 'orthorhombic'
loop_
_space_group_symop_operation_xyz
x,y,z
-x,-y,z
x,-y,-z
-x,y,-z
-x,-y,-z
x,y,-z
-x,y,z
x,-y,z
1/2+x,1/2+y,1/2+z
1/2-x,1/2-y,1/2+z
1/2+x,1/2-y,1/2-z
1/2-x,1/2+y,1/2-z
1/2-x,1/2-y,1/2-z
1/2+x,1/2+y,1/2-z
1/2-x,1/2+y,1/2+z
1/2+x,1/2-y,1/2+z
loop_
_atom_site_type_symbol
_atom_site_label
_atom_site_fract_x
_atom_site_fract_y
_atom_site_fract_z
Si Si1 0.156448 0.894945 0.311185
Si Si2 0.670052 0.000000 0.255514
Si Si3 0.333108 0.762950 0.795650
Si Si4 0.332321 0.000000 0.453066
Si Si5 0.171753 0.150585 0.128919
Si Si6 0.669704 0.231225 0.947164
Si Si7 0.659623 0.614909 0.913292
Si Si8 0.331039 0.500000 0.662178
O O1 0.165964 0.813751 0.313471
O O2 0.158509 0.910445 0.362714
O O3 0.000000 0.913003 0.292062
O O4 0.272918 0.934313 0.282667
O O5 0.500000 0.000000 0.252911
O O6 0.739491 0.000000 0.207044
O O7 0.500000 0.784712 0.789871
O O8 0.250000 0.750000 0.750000
O O9 0.249694 0.811633 0.829678
O O10 0.283111 0.930244 0.432478
O O11 0.500000 0.000000 0.455379
O O12 0.258299 0.000000 0.500000
O O13 0.238940 0.180203 0.083586
O O14 0.000000 0.163016 0.130481
O O15 0.196229 0.069746 0.135413
O O16 0.500000 0.214317 0.943859
O O17 0.685881 0.305971 0.924680
O O18 0.705725 0.232562 0.000000
O O19 0.500000 0.600201 0.931212
O O20 0.500000 0.500000 0.673966
#
# Coordination Sequence:
#
# PCOD9522568 Si02
#       8
#    16   8  16   8  16  16  16   8
#     4  10  21  38  58  80 116 161 198 237 289 351
#     4  12  25  37  56  90 125 160 207 257 300 349
#     4  11  22  38  60  89 123 158 201 247 298 358
#     4  11  24  37  50  78 118 153 190 245 300 337
#     4  11  23  41  65  91 121 158 204 254 309 371
#     4  10  21  40  66  94 124 159 204 259 315 373
#     4  10  20  38  61  84 112 158 208 243 289 355
#     4  10  24  45  64  85 118 163 203 242 303 376
#
# _framework density 18.736426999999999
#
# number of rings (size 3 to 8) (size 9 to 14) (size 15 to 20)
#    0.000    1.462    1.538    3.692    0.000   10.769 
#    0.000    0.385    0.000    2.308    0.000    0.000 
#    0.000    0.000    0.000    0.000    0.000    0.000 
#
# Total GULP energy -289928.070009 kJ/mol
# GULP energy per Si atom -5575.539808 kJ/mol
# Density = 1.869378 g / cm^3
# Si number density = 18.736427 Si / 1000 Ang^3
#
#
#
# Elastic Constant Matrix: (Units=GPa)
#
#
# Indices 1 2 3 4 5 6 
#
# 1 125.6975 70.5851 62.7542 0.0000 0.0000 0.0000
# 2 70.5851 109.1208 40.7200 0.0000 0.0000 0.0000
# 3 62.7542 40.7200 98.3652 0.0000 0.0000 0.0000
# 4 0.0000 0.0000 0.0000 22.4626 0.0000 0.0000
# 5 0.0000 0.0000 0.0000 0.0000 31.9110 0.0000
# 6 0.0000 0.0000 0.0000 0.0000 0.0000 24.0142
#
#
#
# Elastic Compliance Matrix: (Units=1/GPa)
#
#
# Indices 1 2 3 4 5 6 
#
# 1 0.015602 -0.007543 -0.006831 0.000000 0.000000 0.000000
# 2 -0.007543 0.014485 -0.001184 0.000000 0.000000 0.000000
# 3 -0.006831 -0.001184 0.015014 0.000000 0.000000 0.000000
# 4 0.000000 0.000000 0.000000 0.044519 0.000000 0.000000
# 5 0.000000 0.000000 0.000000 0.000000 0.031337 0.000000
# 6 0.000000 0.000000 0.000000 0.000000 0.000000 0.041642
#
#
# Mechanical properties :
#
#
# Convention : Reuss Voigt Hill
#
# Bulk Modulus (GPa) = 71.50458 75.70025 73.60241
# Shear Modulus (GPa) = 25.20459 26.28584 25.74522
#
# Velocity S-wave (km/s) = 3.67170 3.74963 3.71087
# Velocity P-wave (km/s) = 7.49810 7.69654 7.59797
#
# Compressibility (1/GPa) = 0.01398512
#
# Stress axis : x y z
#
# Youngs Moduli (GPa) = 64.09597 69.03584 66.60299
#
# Poissons Ratio (x) = 0.52073 0.45496
# Poissons Ratio (y) = 0.48347 0.07888
# Poissons Ratio (z) = 0.43783 0.08176
#
# Static dielectric constant tensor:
#      x y z
#    x 1.733970 0.000000 0.000000 
#    y 0.000000 1.112660 0.000000 
#    z 0.000000 0.000000 2.146980 
# 
# From -- ./inp_files/68327.got.cif
#   From: 2010.05.17/outbox.cif.g08.bks.cpg/sg71_35_cif.got.tgz:68327.got - 2010.06.03 16:22:01.
