data_PCOD9522344
_publ_section_title
;
Structure prediction by ZEFSAII (Michael W. Deem and Ramdas Pophale) SiO2 
 PCOD9522344
Probable space group: I M M M
;
_chemical_formula_sum "Si O2"
_cell_formula_units_Z 100
_cell_length_a 19.328637
_cell_length_b 20.484666
_cell_length_c 13.460402
_cell_angle_alpha 90.000000
_cell_angle_beta 90.000000
_cell_angle_gamma 90.000000
_cell_volume 5329.520629
_symmetry_space_group_name_H-M "I M M M"
_symmetry_group_IT_number 71
_symmetry_cell_setting 'orthorhombic'
loop_
_space_group_symop_operation_xyz
x,y,z
-x,-y,z
x,-y,-z
-x,y,-z
-x,-y,-z
x,y,-z
-x,y,z
x,-y,z
1/2+x,1/2+y,1/2+z
1/2-x,1/2-y,1/2+z
1/2+x,1/2-y,1/2-z
1/2-x,1/2+y,1/2-z
1/2-x,1/2-y,1/2-z
1/2+x,1/2+y,1/2-z
1/2-x,1/2+y,1/2+z
1/2+x,1/2-y,1/2+z
loop_
_atom_site_type_symbol
_atom_site_label
_atom_site_fract_x
_atom_site_fract_y
_atom_site_fract_z
Si Si1 0.800194 0.427575 0.739826
Si Si2 0.894416 0.795755 0.674193
Si Si3 0.081830 0.392665 0.112093
Si Si4 0.387631 0.262044 0.389965
Si Si5 0.000000 0.760639 0.500000
Si Si6 0.725021 0.202554 0.115080
Si Si7 0.330595 0.573704 0.885184
O O1 0.795906 0.500000 0.693004
O O2 0.870602 0.422775 0.803056
O O3 0.791367 0.366362 0.667120
O O4 0.737573 0.421893 0.818392
O O5 0.918923 0.789056 0.787729
O O6 0.940998 0.764374 0.588855
O O7 0.820555 0.758922 0.665646
O O8 0.883745 0.871319 0.648079
O O9 0.098968 0.315444 0.112655
O O10 0.000000 0.401966 0.128888
O O11 0.098051 0.416732 0.000000
O O12 0.411671 0.284839 0.500000
O O13 0.306044 0.279144 0.383557
O O14 0.704995 0.198662 0.000000
O O15 0.358133 0.500000 0.876824
O O16 0.312054 0.585703 0.000000
#
# Coordination Sequence:
#
# PCOD9522344 Si02
#       7
#    16  16  16  16   4  16  16
#     4  11  22  36  57  85 115 161 206 250 308 362
#     4  12  21  40  58  89 126 156 204 243 307 367
#     4  10  21  36  55  84 119 153 194 248 307 370
#     4  10  21  36  63  91 114 154 202 252 310 356
#     4  12  28  36  63 100 121 170 196 246 300 384
#     4  11  21  37  60  87 118 156 201 262 309 350
#     4  10  20  36  59  87 121 153 194 251 302 361
#
# _framework density 18.763413
#
# number of rings (size 3 to 8) (size 9 to 14) (size 15 to 20)
#    0.000    1.280    4.800    1.920    1.120    2.880 
#    0.000    1.600    0.000    0.480    0.000    1.680 
#    0.000    1.280    0.000    0.160    0.000    0.000 
#
# Total GULP energy -278580.882152 kJ/mol
# GULP energy per Si atom -5571.617643 kJ/mol
# Density = 1.872071 g / cm^3
# Si number density = 18.763413 Si / 1000 Ang^3
#
#
#
# Elastic Constant Matrix: (Units=GPa)
#
#
# Indices 1 2 3 4 5 6 
#
# 1 46.5915 -12.1923 3.1130 0.0000 0.0000 0.0000
# 2 -12.1923 57.9874 17.1146 0.0000 0.0000 0.0000
# 3 3.1130 17.1146 135.0731 0.0000 0.0000 0.0000
# 4 0.0000 0.0000 0.0000 19.3124 0.0000 0.0000
# 5 0.0000 0.0000 0.0000 0.0000 11.9495 0.0000
# 6 0.0000 0.0000 0.0000 0.0000 0.0000 -25.0814
#
#
#
# Elastic Compliance Matrix: (Units=1/GPa)
#
#
# Indices 1 2 3 4 5 6 
#
# 1 0.022893 0.005162 -0.001182 0.000000 0.000000 0.000000
# 2 0.005162 0.019079 -0.002536 0.000000 0.000000 0.000000
# 3 -0.001182 -0.002536 0.007752 0.000000 0.000000 0.000000
# 4 0.000000 0.000000 0.000000 0.051780 0.000000 0.000000
# 5 0.000000 0.000000 0.000000 0.000000 0.083685 0.000000
# 6 0.000000 0.000000 0.000000 0.000000 0.000000 -0.039870
#
#
# Mechanical properties :
#
#
# Convention : Reuss Voigt Hill
#
# Bulk Modulus (GPa) = 19.00697 28.41361 23.71029
# Shear Modulus (GPa) = 31.25616 16.67724 23.96670
#
# Velocity S-wave (km/s) = 4.08585 2.98454 3.57782
# Velocity P-wave (km/s) = 5.69304 5.20121 5.45267
#
# Compressibility (1/GPa) = 0.05261229
#
# Stress axis : x y z
#
# Youngs Moduli (GPa) = 43.68151 52.41336 128.99880
#
# Poissons Ratio (x) = -0.27057 0.15244
# Poissons Ratio (y) = -0.22549 0.32719
# Poissons Ratio (z) = 0.05162 0.13294
#
# Static dielectric constant tensor:
#      x y z
#    x 1.620410 0.000000 0.000000 
#    y 0.000000 1.645880 0.000000 
#    z 0.000000 0.000000 1.662280 
# 
# From -- ./inp_files/36666.got.cif
#   From: 2010.05.17/outbox.cif.g08.bks.cpg/sg71_19_cif.got.tgz:36666.got - 2010.06.03 16:22:01.
