data_PCOD9522504
_publ_section_title
;
Structure prediction by ZEFSAII (Michael W. Deem and Ramdas Pophale) SiO2 
 PCOD9522504
Probable space group: I M M M
;
_chemical_formula_sum "Si O2"
_cell_formula_units_Z 80
_cell_length_a 15.529563
_cell_length_b 11.684888
_cell_length_c 23.353099
_cell_angle_alpha 90.000000
_cell_angle_beta 90.000000
_cell_angle_gamma 90.000000
_cell_volume 4237.681470
_symmetry_space_group_name_H-M "I M M M"
_symmetry_group_IT_number 71
_symmetry_cell_setting 'orthorhombic'
loop_
_space_group_symop_operation_xyz
x,y,z
-x,-y,z
x,-y,-z
-x,y,-z
-x,-y,-z
x,y,-z
-x,y,z
x,-y,z
1/2+x,1/2+y,1/2+z
1/2-x,1/2-y,1/2+z
1/2+x,1/2-y,1/2-z
1/2-x,1/2+y,1/2-z
1/2-x,1/2-y,1/2-z
1/2+x,1/2+y,1/2-z
1/2-x,1/2+y,1/2+z
1/2+x,1/2-y,1/2+z
loop_
_atom_site_type_symbol
_atom_site_label
_atom_site_fract_x
_atom_site_fract_y
_atom_site_fract_z
Si Si1 0.097573 0.136473 0.880857
Si Si2 0.598855 0.637039 0.854101
Si Si3 0.753740 0.229513 0.436029
Si Si4 0.642286 0.000000 0.562344
Si Si5 0.149187 0.253036 0.762897
Si Si6 0.596640 0.000000 0.306255
O O1 0.179081 0.183092 0.916357
O O2 0.116856 0.179680 0.816831
O O3 0.000000 0.177223 0.897758
O O4 0.096611 0.000000 0.883376
O O5 0.500000 0.643081 0.875031
O O6 0.621128 0.500000 0.849824
O O7 0.666584 0.704685 0.893994
O O8 0.604202 0.699704 0.792781
O O9 0.783874 0.258239 0.500000
O O10 0.702396 0.110464 0.437359
O O11 0.597538 0.000000 0.624344
O O12 0.596142 0.000000 0.500000
O O13 0.250000 0.250000 0.750000
O O14 0.135181 0.384169 0.781289
O O15 0.500000 0.000000 0.285925
#
# Coordination Sequence:
#
# PCOD9522504 Si02
#       6
#    16  16  16   8  16   8
#     4  11  24  42  65  93 125 163 210 261 315 379
#     4  11  23  41  66  95 128 166 209 258 314 376
#     4  11  23  41  65  92 126 164 209 259 311 371
#     4  10  20  37  61  88 124 166 204 245 305 373
#     4  12  24  38  64  92 128 165 207 254 319 380
#     4  12  24  39  60  93 128 160 207 263 312 372
#
# _framework density 18.878246000000001
#
# number of rings (size 3 to 8) (size 9 to 14) (size 15 to 20)
#    0.000    0.800    5.000    2.400    2.800    3.000 
#    0.000    4.000    0.000    0.000    0.000    1.400 
#    0.000    0.000    0.000    0.000    0.000    0.000 
#
# Total GULP energy -223110.060742 kJ/mol
# GULP energy per Si atom -5577.751519 kJ/mol
# Density = 1.883528 g / cm^3
# Si number density = 18.878246 Si / 1000 Ang^3
#
#
#
# Elastic Constant Matrix: (Units=GPa)
#
#
# Indices 1 2 3 4 5 6 
#
# 1 117.8990 49.9739 37.3730 0.0000 0.0000 0.0000
# 2 49.9739 104.1919 47.4604 0.0000 0.0000 0.0000
# 3 37.3730 47.4604 117.6500 0.0000 0.0000 0.0000
# 4 0.0000 0.0000 0.0000 19.0266 0.0000 0.0000
# 5 0.0000 0.0000 0.0000 0.0000 43.8534 0.0000
# 6 0.0000 0.0000 0.0000 0.0000 0.0000 60.9140
#
#
#
# Elastic Compliance Matrix: (Units=1/GPa)
#
#
# Indices 1 2 3 4 5 6 
#
# 1 0.010904 -0.004474 -0.001659 0.000000 0.000000 0.000000
# 2 -0.004474 0.013594 -0.004063 0.000000 0.000000 0.000000
# 3 -0.001659 -0.004063 0.010666 0.000000 0.000000 0.000000
# 4 0.000000 0.000000 0.000000 0.052558 0.000000 0.000000
# 5 0.000000 0.000000 0.000000 0.000000 0.022803 0.000000
# 6 0.000000 0.000000 0.000000 0.000000 0.000000 0.016417
#
#
# Mechanical properties :
#
#
# Convention : Reuss Voigt Hill
#
# Bulk Modulus (GPa) = 67.69405 67.70617 67.70011
# Shear Modulus (GPa) = 32.83898 38.42103 35.63000
#
# Velocity S-wave (km/s) = 4.17527 4.51621 4.34909
# Velocity P-wave (km/s) = 7.69285 7.94591 7.82040
#
# Compressibility (1/GPa) = 0.01477235
#
# Stress axis : x y z
#
# Youngs Moduli (GPa) = 91.70734 73.56012 93.75901
#
# Poissons Ratio (x) = 0.32914 0.15554
# Poissons Ratio (y) = 0.41034 0.38091
# Poissons Ratio (z) = 0.15213 0.29885
#
# Static dielectric constant tensor:
#      x y z
#    x 1.661150 0.000000 0.000000 
#    y 0.000000 1.578610 0.000000 
#    z 0.000000 0.000000 1.676910 
# 
# From -- ./inp_files/59637.got.cif
#   From: 2010.05.17/outbox.cif.g08.bks.cpg/sg71_30_cif.got.tgz:59637.got - 2010.06.03 16:22:01.
