data_PCOD9522087
_publ_section_title
;
Structure prediction by ZEFSAII (Michael W. Deem and Ramdas Pophale) SiO2 
 PCOD9522087
Probable space group: I M M M
;
_chemical_formula_sum "Si O2"
_cell_formula_units_Z 88
_cell_length_a 20.793069
_cell_length_b 16.001191
_cell_length_c 14.529971
_cell_angle_alpha 90.000000
_cell_angle_beta 90.000000
_cell_angle_gamma 90.000000
_cell_volume 4834.322861
_symmetry_space_group_name_H-M "I M M M"
_symmetry_group_IT_number 71
_symmetry_cell_setting 'orthorhombic'
loop_
_space_group_symop_operation_xyz
x,y,z
-x,-y,z
x,-y,-z
-x,y,-z
-x,-y,-z
x,y,-z
-x,y,z
x,-y,z
1/2+x,1/2+y,1/2+z
1/2-x,1/2-y,1/2+z
1/2+x,1/2-y,1/2-z
1/2-x,1/2+y,1/2-z
1/2-x,1/2-y,1/2-z
1/2+x,1/2+y,1/2-z
1/2-x,1/2+y,1/2+z
1/2+x,1/2-y,1/2+z
loop_
_atom_site_type_symbol
_atom_site_label
_atom_site_fract_x
_atom_site_fract_y
_atom_site_fract_z
Si Si1 0.612673 0.173414 0.262416
Si Si2 0.426789 0.699397 0.893971
Si Si3 0.000000 0.399217 0.109510
Si Si4 0.696454 0.594081 0.144303
Si Si5 0.728744 0.090785 0.168371
Si Si6 0.710857 0.244997 0.401250
O O1 0.582349 0.225828 0.178943
O O2 0.561508 0.135799 0.333996
O O3 0.660144 0.104850 0.217884
O O4 0.660358 0.234211 0.319365
O O5 0.500000 0.668847 0.887171
O O6 0.374835 0.628498 0.870834
O O7 0.415836 0.726914 0.000000
O O8 0.000000 0.500000 0.114027
O O9 0.000000 0.376538 0.000000
O O10 0.704447 0.500000 0.108182
O O11 0.718011 0.590928 0.250692
O O12 0.743926 0.663484 0.102472
O O13 0.745335 0.173136 0.110938
O O14 0.730261 0.000000 0.122121
O O15 0.677558 0.248509 0.500000
#
# Coordination Sequence:
#
# PCOD9522087 Si02
#       6
#    16  16   8  16  16  16
#     4  11  20  39  58  84 117 154 194 239 289 343
#     4  11  22  36  58  84 111 150 196 239 286 345
#     4  11  24  40  61  89 120 155 197 243 291 346
#     4  10  20  37  58  82 116 150 185 240 300 347
#     4  10  20  35  58  85 114 152 194 238 291 345
#     4  11  21  35  58  87 118 152 193 239 291 353
#
# _framework density 18.20317
#
# number of rings (size 3 to 8) (size 9 to 14) (size 15 to 20)
#    0.000    1.364    4.545    2.727    0.000    2.909 
#    0.000    0.909    0.000    2.182    0.000    0.000 
#    0.000    5.818    0.000    0.000    0.000    0.000 
#
# Total GULP energy -245393.325935 kJ/mol
# GULP energy per Si atom -5577.121044 kJ/mol
# Density = 1.816174 g / cm^3
# Si number density = 18.203170 Si / 1000 Ang^3
#
#
#
# Elastic Constant Matrix: (Units=GPa)
#
#
# Indices 1 2 3 4 5 6 
#
# 1 103.9902 32.5822 33.3401 0.0000 0.0000 0.0000
# 2 32.5822 129.9183 42.7707 0.0000 0.0000 0.0000
# 3 33.3401 42.7707 86.6518 0.0000 0.0000 0.0000
# 4 0.0000 0.0000 0.0000 -0.1835 0.0000 0.0000
# 5 0.0000 0.0000 0.0000 0.0000 14.9569 0.0000
# 6 0.0000 0.0000 0.0000 0.0000 0.0000 17.9255
#
#
#
# Elastic Compliance Matrix: (Units=1/GPa)
#
#
# Indices 1 2 3 4 5 6 
#
# 1 0.011265 -0.001670 -0.003510 0.000000 0.000000 0.000000
# 2 -0.001670 0.009438 -0.004016 0.000000 0.000000 0.000000
# 3 -0.003510 -0.004016 0.014873 0.000000 0.000000 0.000000
# 4 0.000000 0.000000 0.000000 -5.450116 0.000000 0.000000
# 5 0.000000 0.000000 0.000000 0.000000 0.066859 0.000000
# 6 0.000000 0.000000 0.000000 0.000000 0.000000 0.055786
#
#
# Mechanical properties :
#
#
# Convention : Reuss Voigt Hill
#
# Bulk Modulus (GPa) = 58.19218 59.77184 58.98201
# Shear Modulus (GPa) = -0.94917 20.66428 9.85756
#
# Velocity S-wave (km/s) = -0.72288 3.37293 2.32960
# Velocity P-wave (km/s) = 5.59829 6.93369 6.30147
#
# Compressibility (1/GPa) = 0.01718444
#
# Stress axis : x y z
#
# Youngs Moduli (GPa) = 88.77233 105.95445 67.23427
#
# Poissons Ratio (x) = 0.17689 0.23600
# Poissons Ratio (y) = 0.14821 0.27003
# Poissons Ratio (z) = 0.31161 0.42553
#
# Static dielectric constant tensor:
#      x y z
#    x 1.615980 0.000000 0.000000 
#    y 0.000000 1.629730 0.000000 
#    z 0.000000 0.000000 1.640860 
# 
# From -- ./inp_files/37724.got.cif
#   From: 2010.05.17/outbox.cif.g08.bks.cpg/sg71_19_cif.got.tgz:37724.got - 2010.06.03 16:22:01.
