data_PCOD9522532
_publ_section_title
;
Structure prediction by ZEFSAII (Michael W. Deem and Ramdas Pophale) SiO2 
 PCOD9522532
Probable space group: I M M M
;
_chemical_formula_sum "Si O2"
_cell_formula_units_Z 72
_cell_length_a 22.999539
_cell_length_b 19.662883
_cell_length_c 8.065348
_cell_angle_alpha 90.000000
_cell_angle_beta 90.000000
_cell_angle_gamma 90.000000
_cell_volume 3647.450755
_symmetry_space_group_name_H-M "I M M M"
_symmetry_group_IT_number 71
_symmetry_cell_setting 'orthorhombic'
loop_
_space_group_symop_operation_xyz
x,y,z
-x,-y,z
x,-y,-z
-x,y,-z
-x,-y,-z
x,y,-z
-x,y,z
x,-y,z
1/2+x,1/2+y,1/2+z
1/2-x,1/2-y,1/2+z
1/2+x,1/2-y,1/2-z
1/2-x,1/2+y,1/2-z
1/2-x,1/2-y,1/2-z
1/2+x,1/2+y,1/2-z
1/2-x,1/2+y,1/2+z
1/2+x,1/2-y,1/2+z
loop_
_atom_site_type_symbol
_atom_site_label
_atom_site_fract_x
_atom_site_fract_y
_atom_site_fract_z
Si Si1 0.569287 0.577567 0.500000
Si Si2 0.362201 0.923513 0.303535
Si Si3 0.124192 0.844445 0.308082
Si Si4 0.434145 0.203979 0.198580
Si Si5 0.767879 0.078838 0.804684
O O1 0.590043 0.500000 0.500000
O O2 0.500000 0.579173 0.500000
O O3 0.591200 0.612213 0.331337
O O4 0.352385 0.924802 0.500000
O O5 0.409230 0.866512 0.264684
O O6 0.300203 0.907144 0.221091
O O7 0.379476 0.000000 0.250191
O O8 0.105636 0.855677 0.500000
O O9 0.109130 0.766459 0.264596
O O10 0.190709 0.868731 0.289783
O O11 0.500000 0.218176 0.258495
O O12 0.436319 0.198828 0.000000
O O13 0.777999 0.000000 0.750926
O O14 0.781168 0.083386 0.000000
#
# Coordination Sequence:
#
# PCOD9522532 Si02
#       5
#     8  16  16  16  16
#     4  11  24  40  60  90 125 165 214 260 309 368
#     4  10  22  39  61  92 124 158 204 258 318 380
#     4  11  23  40  63  92 126 167 210 261 309 371
#     4  10  23  42  62  86 119 164 213 257 313 375
#     4  10  20  37  62  91 125 164 206 254 313 376
#
# _framework density 19.739815
#
# number of rings (size 3 to 8) (size 9 to 14) (size 15 to 20)
#    0.000    1.667    1.111    2.667    1.556    7.111 
#    0.000    3.333    0.000    0.000    0.000    0.000 
#    0.000    0.000    0.000    0.000    0.000    0.000 
#
# Total GULP energy -201030.226653 kJ/mol
# GULP energy per Si atom -5584.172963 kJ/mol
# Density = 1.969489 g / cm^3
# Si number density = 19.739815 Si / 1000 Ang^3
#
#
#
# Elastic Constant Matrix: (Units=GPa)
#
#
# Indices 1 2 3 4 5 6 
#
# 1 57.4878 41.8613 7.2705 0.0000 0.0000 0.0000
# 2 41.8613 112.1762 35.8459 0.0000 0.0000 0.0000
# 3 7.2705 35.8459 67.2077 0.0000 0.0000 0.0000
# 4 0.0000 0.0000 0.0000 25.4081 0.0000 0.0000
# 5 0.0000 0.0000 0.0000 0.0000 28.4482 0.0000
# 6 0.0000 0.0000 0.0000 0.0000 0.0000 56.6723
#
#
#
# Elastic Compliance Matrix: (Units=1/GPa)
#
#
# Indices 1 2 3 4 5 6 
#
# 1 0.024273 -0.009908 0.002658 0.000000 0.000000 0.000000
# 2 -0.009908 0.014790 -0.006817 0.000000 0.000000 0.000000
# 3 0.002658 -0.006817 0.018227 0.000000 0.000000 0.000000
# 4 0.000000 0.000000 0.000000 0.039358 0.000000 0.000000
# 5 0.000000 0.000000 0.000000 0.000000 0.035152 0.000000
# 6 0.000000 0.000000 0.000000 0.000000 0.000000 0.017645
#
#
# Mechanical properties :
#
#
# Convention : Reuss Voigt Hill
#
# Bulk Modulus (GPa) = 34.29458 45.20300 39.74879
# Shear Modulus (GPa) = 26.69560 32.23197 29.46379
#
# Velocity S-wave (km/s) = 3.68145 4.04523 3.86762
# Velocity P-wave (km/s) = 5.95666 6.69086 6.33441
#
# Compressibility (1/GPa) = 0.02915913
#
# Stress axis : x y z
#
# Youngs Moduli (GPa) = 41.19744 67.61278 54.86255
#
# Poissons Ratio (x) = 0.66989 -0.14585
# Poissons Ratio (y) = 0.40817 0.37398
# Poissons Ratio (z) = -0.10952 0.46089
#
# Static dielectric constant tensor:
#      x y z
#    x 1.695650 0.000000 0.000000 
#    y 0.000000 1.685630 0.000000 
#    z 0.000000 0.000000 1.691810 
# 
# From -- ./inp_files/9941.got.cif
#   From: 2010.05.17/outbox.cif.g08.bks.cpg/sg71_5_cif.got.tgz:9941.got - 2010.06.03 16:22:01.
