data_PCOD9522202
_publ_section_title
;
Structure prediction by ZEFSAII (Michael W. Deem and Ramdas Pophale) SiO2 
 PCOD9522202
Probable space group: I M M M
;
_chemical_formula_sum "Si O2"
_cell_formula_units_Z 120
_cell_length_a 21.289606
_cell_length_b 21.159736
_cell_length_c 14.490651
_cell_angle_alpha 90.000000
_cell_angle_beta 90.000000
_cell_angle_gamma 90.000000
_cell_volume 6527.783856
_symmetry_space_group_name_H-M "I M M M"
_symmetry_group_IT_number 71
_symmetry_cell_setting 'orthorhombic'
loop_
_space_group_symop_operation_xyz
x,y,z
-x,-y,z
x,-y,-z
-x,y,-z
-x,-y,-z
x,y,-z
-x,y,z
x,-y,z
1/2+x,1/2+y,1/2+z
1/2-x,1/2-y,1/2+z
1/2+x,1/2-y,1/2-z
1/2-x,1/2+y,1/2-z
1/2-x,1/2-y,1/2-z
1/2+x,1/2+y,1/2-z
1/2-x,1/2+y,1/2+z
1/2+x,1/2-y,1/2+z
loop_
_atom_site_type_symbol
_atom_site_label
_atom_site_fract_x
_atom_site_fract_y
_atom_site_fract_z
Si Si1 0.132048 0.071090 0.706255
Si Si2 0.758236 0.647913 0.227728
Si Si3 0.924856 0.907911 0.902203
Si Si4 0.129095 0.634863 0.106017
Si Si5 0.702457 0.236642 0.893167
Si Si6 0.927512 0.200177 0.646593
Si Si7 0.000000 0.428202 0.111886
Si Si8 0.428611 0.734937 0.362240
O O1 0.200575 0.099637 0.728302
O O2 0.100014 0.067010 0.806426
O O3 0.095331 0.126488 0.649656
O O4 0.133251 0.000000 0.665785
O O5 0.816489 0.616950 0.175342
O O6 0.735614 0.705074 0.160363
O O7 0.780063 0.677791 0.325739
O O8 0.911707 0.833032 0.901096
O O9 0.000000 0.915558 0.900880
O O10 0.900832 0.932710 0.000000
O O11 0.118175 0.710189 0.109999
O O12 0.063361 0.606297 0.139534
O O13 0.141327 0.615970 0.000000
O O14 0.628399 0.256945 0.895035
O O15 0.722728 0.229200 0.000000
O O16 0.928494 0.223814 0.752715
O O17 0.000000 0.204815 0.612697
O O18 0.000000 0.500000 0.143369
O O19 0.000000 0.427434 0.000000
O O20 0.500000 0.751307 0.391095
#
# Coordination Sequence:
#
# PCOD9522202 Si02
#       8
#    16  16  16  16  16  16   8  16
#     4  10  21  36  52  71 103 149 191 222 260 312
#     4  10  22  37  51  78 109 141 184 223 258 326
#     4   9  18  30  47  76 111 138 167 214 265 320
#     4  11  19  30  53  78 105 141 171 214 272 324
#     4  10  20  36  56  79 110 141 172 221 281 327
#     4   9  18  33  55  80 110 137 170 226 273 320
#     4   9  20  34  48  76 111 141 178 220 266 325
#     4   9  15  27  47  77 109 134 161 202 262 323
#
# _framework density 18.382961999999999
#
# number of rings (size 3 to 8) (size 9 to 14) (size 15 to 20)
#    0.000    2.333    2.000    2.000    1.867    3.200 
#    0.000    0.667    0.000    9.600    0.000    3.733 
#    0.000    0.533    0.000    0.000    0.000    0.000 
#
# Total GULP energy -334393.735466 kJ/mol
# GULP energy per Si atom -5573.228924 kJ/mol
# Density = 1.834112 g / cm^3
# Si number density = 18.382962 Si / 1000 Ang^3
#
#
#
# Elastic Constant Matrix: (Units=GPa)
#
#
# Indices 1 2 3 4 5 6 
#
# 1 96.1251 30.0986 19.2787 0.0000 0.0000 0.0000
# 2 30.0986 51.4890 5.4821 0.0000 0.0000 0.0000
# 3 19.2787 5.4821 82.8136 0.0000 0.0000 0.0000
# 4 0.0000 0.0000 0.0000 -3.7857 0.0000 0.0000
# 5 0.0000 0.0000 0.0000 0.0000 15.4241 0.0000
# 6 0.0000 0.0000 0.0000 0.0000 0.0000 -2.8226
#
#
#
# Elastic Compliance Matrix: (Units=1/GPa)
#
#
# Indices 1 2 3 4 5 6 
#
# 1 0.013265 -0.007478 -0.002593 0.000000 0.000000 0.000000
# 2 -0.007478 0.023775 0.000167 0.000000 0.000000 0.000000
# 3 -0.002593 0.000167 0.012668 0.000000 0.000000 0.000000
# 4 0.000000 0.000000 0.000000 -0.264151 0.000000 0.000000
# 5 0.000000 0.000000 0.000000 0.000000 0.064834 0.000000
# 6 0.000000 0.000000 0.000000 0.000000 0.000000 -0.354281
#
#
# Mechanical properties :
#
#
# Convention : Reuss Voigt Hill
#
# Bulk Modulus (GPa) = 33.44493 37.79404 35.61949
# Shear Modulus (GPa) = -10.54595 13.46770 1.46088
#
# Velocity S-wave (km/s) = -2.39776 2.70963 0.89242
# Velocity P-wave (km/s) = 3.25073 5.51302 4.52552
#
# Compressibility (1/GPa) = 0.02989990
#
# Stress axis : x y z
#
# Youngs Moduli (GPa) = 75.38841 42.06063 78.93981
#
# Poissons Ratio (x) = 0.31453 0.20469
# Poissons Ratio (y) = 0.56375 -0.01318
# Poissons Ratio (z) = 0.19548 -0.00702
#
# Static dielectric constant tensor:
#      x y z
#    x 1.668570 0.000000 0.000000 
#    y 0.000000 1.651700 0.000000 
#    z 0.000000 0.000000 1.718540 
# 
# From -- ./inp_files/38445.got.cif
#   From: 2010.05.17/outbox.cif.g08.bks.cpg/sg71_20_cif.got.tgz:38445.got - 2010.06.03 16:22:01.
