data_PCOD9522358
_publ_section_title
;
Structure prediction by ZEFSAII (Michael W. Deem and Ramdas Pophale) SiO2 
 PCOD9522358
Probable space group: I M M M
;
_chemical_formula_sum "Si O2"
_cell_formula_units_Z 72
_cell_length_a 8.988822
_cell_length_b 27.891176
_cell_length_c 14.807306
_cell_angle_alpha 90.000000
_cell_angle_beta 90.000000
_cell_angle_gamma 90.000000
_cell_volume 3712.322162
_symmetry_space_group_name_H-M "I M M M"
_symmetry_group_IT_number 71
_symmetry_cell_setting 'orthorhombic'
loop_
_space_group_symop_operation_xyz
x,y,z
-x,-y,z
x,-y,-z
-x,y,-z
-x,-y,-z
x,y,-z
-x,y,z
x,-y,z
1/2+x,1/2+y,1/2+z
1/2-x,1/2-y,1/2+z
1/2+x,1/2-y,1/2-z
1/2-x,1/2+y,1/2-z
1/2-x,1/2-y,1/2-z
1/2+x,1/2+y,1/2-z
1/2-x,1/2+y,1/2+z
1/2+x,1/2-y,1/2+z
loop_
_atom_site_type_symbol
_atom_site_label
_atom_site_fract_x
_atom_site_fract_y
_atom_site_fract_z
Si Si1 0.676918 0.000000 0.607579
Si Si2 0.330352 0.809022 0.655446
Si Si3 0.821257 0.885526 0.903129
Si Si4 0.330421 0.214217 0.130751
Si Si5 0.179398 0.092151 0.700452
O O1 0.751755 0.953270 0.650945
O O2 0.500000 0.000000 0.624974
O O3 0.699778 0.000000 0.500000
O O4 0.500000 0.814834 0.623338
O O5 0.336429 0.793291 0.760815
O O6 0.245917 0.764798 0.609462
O O7 0.242259 0.859000 0.656075
O O8 0.762854 0.831131 0.902107
O O9 0.774605 0.907984 0.807087
O O10 0.000000 0.885224 0.901508
O O11 0.773922 0.907543 0.000000
O O12 0.500000 0.212716 0.099313
O O13 0.000000 0.091915 0.695868
#
# Coordination Sequence:
#
# PCOD9522358 Si02
#       5
#     8  16  16  16  16
#     4  11  25  45  66  85 106 134 171 221 284 345
#     4   9  16  28  48  74 107 146 184 224 271 320
#     4   9  18  33  53  80 116 155 189 220 262 320
#     4   9  16  26  44  73 108 147 190 229 263 305
#     4  10  20  36  60  86 111 142 182 229 277 325
#
# _framework density 19.394869
#
# number of rings (size 3 to 8) (size 9 to 14) (size 15 to 20)
#    0.000    2.556    0.000    2.333    0.000    7.556 
#    0.000    1.667    0.000   10.000    0.000    0.000 
#    0.000    0.000    0.000    0.000    0.000    0.000 
#
# Total GULP energy -200774.676521 kJ/mol
# GULP energy per Si atom -5577.074348 kJ/mol
# Density = 1.935073 g / cm^3
# Si number density = 19.394869 Si / 1000 Ang^3
#
#
#
# Elastic Constant Matrix: (Units=GPa)
#
#
# Indices 1 2 3 4 5 6 
#
# 1 55.1518 58.4201 26.0660 0.0000 0.0000 0.0000
# 2 58.4201 137.1739 49.8867 0.0000 0.0000 0.0000
# 3 26.0660 49.8867 81.9439 0.0000 0.0000 0.0000
# 4 0.0000 0.0000 0.0000 -30.5185 0.0000 0.0000
# 5 0.0000 0.0000 0.0000 0.0000 10.0963 0.0000
# 6 0.0000 0.0000 0.0000 0.0000 0.0000 31.0339
#
#
#
# Elastic Compliance Matrix: (Units=1/GPa)
#
#
# Indices 1 2 3 4 5 6 
#
# 1 0.033436 -0.013321 -0.002526 0.000000 0.000000 0.000000
# 2 -0.013321 0.014670 -0.004694 0.000000 0.000000 0.000000
# 3 -0.002526 -0.004694 0.015865 0.000000 0.000000 0.000000
# 4 0.000000 0.000000 0.000000 -0.032767 0.000000 0.000000
# 5 0.000000 0.000000 0.000000 0.000000 0.099046 0.000000
# 6 0.000000 0.000000 0.000000 0.000000 0.000000 0.032223
#
#
# Mechanical properties :
#
#
# Convention : Reuss Voigt Hill
#
# Bulk Modulus (GPa) = 43.68910 60.33505 52.01207
# Shear Modulus (GPa) = 23.67590 11.44879 17.56235
#
# Velocity S-wave (km/s) = 3.49769 2.43224 3.01244
# Velocity P-wave (km/s) = 6.23592 6.25012 6.24303
#
# Compressibility (1/GPa) = 0.02288900
#
# Stress axis : x y z
#
# Youngs Moduli (GPa) = 29.90748 68.16462 63.03380
#
# Poissons Ratio (x) = 0.90805 0.15923
# Poissons Ratio (y) = 0.39841 0.29586
# Poissons Ratio (z) = 0.07555 0.31995
#
# Static dielectric constant tensor:
#      x y z
#    x 1.653400 0.000000 0.000000 
#    y 0.000000 1.624830 0.000000 
#    z 0.000000 0.000000 1.788840 
# 
# From -- ./inp_files/6055.got.cif
#   From: 2010.05.17/outbox.cif.g08.bks.cpg/sg71_4_cif.got.tgz:6055.got - 2010.06.03 16:22:01.
