data_PCOD9522781
_publ_section_title
;
Structure prediction by ZEFSAII (Michael W. Deem and Ramdas Pophale) SiO2 
 PCOD9522781
Probable space group: I M M M
;
_chemical_formula_sum "Si O2"
_cell_formula_units_Z 96
_cell_length_a 24.520405
_cell_length_b 17.566618
_cell_length_c 13.438463
_cell_angle_alpha 90.000000
_cell_angle_beta 90.000000
_cell_angle_gamma 90.000000
_cell_volume 5788.491452
_symmetry_space_group_name_H-M "I M M M"
_symmetry_group_IT_number 71
_symmetry_cell_setting 'orthorhombic'
loop_
_space_group_symop_operation_xyz
x,y,z
-x,-y,z
x,-y,-z
-x,y,-z
-x,-y,-z
x,y,-z
-x,y,z
x,-y,z
1/2+x,1/2+y,1/2+z
1/2-x,1/2-y,1/2+z
1/2+x,1/2-y,1/2-z
1/2-x,1/2+y,1/2-z
1/2-x,1/2-y,1/2-z
1/2+x,1/2+y,1/2-z
1/2-x,1/2+y,1/2+z
1/2+x,1/2-y,1/2+z
loop_
_atom_site_type_symbol
_atom_site_label
_atom_site_fract_x
_atom_site_fract_y
_atom_site_fract_z
Si Si1 0.336804 0.177853 0.114704
Si Si2 0.063045 0.409686 0.703667
Si Si3 0.274732 0.589150 0.617786
Si Si4 0.936225 0.699864 0.115077
Si Si5 0.361003 0.688447 0.261378
Si Si6 0.435806 0.409069 0.884873
O O1 0.393234 0.133570 0.135950
O O2 0.286076 0.121695 0.132564
O O3 0.334023 0.248560 0.189561
O O4 0.335029 0.202812 0.000000
O O5 0.072034 0.500000 0.703133
O O6 0.069999 0.373532 0.813671
O O7 0.000000 0.395289 0.673545
O O8 0.287318 0.596938 0.500000
O O9 0.277117 0.500000 0.643260
O O10 0.316937 0.637647 0.682067
O O11 0.898246 0.765292 0.160402
O O12 0.000000 0.722575 0.121292
O O13 0.923362 0.684369 0.000000
O O14 0.399406 0.636884 0.191898
O O15 0.500000 0.392416 0.869823
O O16 0.428577 0.500000 0.873186
O O17 0.422618 0.389927 0.000000
#
# Coordination Sequence:
#
# PCOD9522781 Si02
#       6
#    16  16  16  16  16  16
#     4  10  21  35  51  73 102 132 161 200 250 297
#     4   9  18  32  51  75 100 129 167 205 242 290
#     4  10  21  36  53  72  95 127 166 205 247 295
#     4   9  18  31  47  70 100 130 159 198 247 291
#     4  11  19  32  52  75  97 127 167 207 241 288
#     4   9  18  32  50  74 104 135 165 200 245 294
#
# _framework density 16.584631999999999
#
# number of rings (size 3 to 8) (size 9 to 14) (size 15 to 20)
#    0.000    2.333    0.000    3.500    0.000    2.333 
#    0.000    2.500    0.000    1.000    0.000    7.000 
#    0.000    0.000    0.000    0.000    0.000    0.000 
#
# Total GULP energy -267772.088123 kJ/mol
# GULP energy per Si atom -5578.585169 kJ/mol
# Density = 1.654688 g / cm^3
# Si number density = 16.584632 Si / 1000 Ang^3
#
#
#
# Elastic Constant Matrix: (Units=GPa)
#
#
# Indices 1 2 3 4 5 6 
#
# 1 65.6453 50.3905 35.3387 0.0000 0.0000 0.0000
# 2 50.3905 94.0525 37.7870 0.0000 0.0000 0.0000
# 3 35.3387 37.7870 59.7939 0.0000 0.0000 0.0000
# 4 0.0000 0.0000 0.0000 16.8561 0.0000 0.0000
# 5 0.0000 0.0000 0.0000 0.0000 23.4286 0.0000
# 6 0.0000 0.0000 0.0000 0.0000 0.0000 30.9339
#
#
#
# Elastic Compliance Matrix: (Units=1/GPa)
#
#
# Indices 1 2 3 4 5 6 
#
# 1 0.029814 -0.011921 -0.010087 0.000000 0.000000 0.000000
# 2 -0.011921 0.019017 -0.004973 0.000000 0.000000 0.000000
# 3 -0.010087 -0.004973 0.025828 0.000000 0.000000 0.000000
# 4 0.000000 0.000000 0.000000 0.059326 0.000000 0.000000
# 5 0.000000 0.000000 0.000000 0.000000 0.042683 0.000000
# 6 0.000000 0.000000 0.000000 0.000000 0.000000 0.032327
#
#
# Mechanical properties :
#
#
# Convention : Reuss Voigt Hill
#
# Bulk Modulus (GPa) = 48.31292 51.83602 50.07447
# Shear Modulus (GPa) = 18.52846 20.64209 19.58527
#
# Velocity S-wave (km/s) = 3.34609 3.53179 3.44019
# Velocity P-wave (km/s) = 6.64250 6.92493 6.78519
#
# Compressibility (1/GPa) = 0.02069840
#
# Stress axis : x y z
#
# Youngs Moduli (GPa) = 33.54100 52.58434 38.71768
#
# Poissons Ratio (x) = 0.62686 0.39054
# Poissons Ratio (y) = 0.39984 0.19252
# Poissons Ratio (z) = 0.33833 0.26148
#
# Static dielectric constant tensor:
#      x y z
#    x 1.539910 0.000000 0.000000 
#    y 0.000000 1.536530 0.000000 
#    z 0.000000 0.000000 1.540040 
# 
# From -- ./inp_files/24204.got.cif
#   From: 2010.05.17/outbox.cif.g08.bks.cpg/sg71_13_cif.got.tgz:24204.got - 2010.06.03 16:22:01.
