data_PCOD9522278
_publ_section_title
;
Structure prediction by ZEFSAII (Michael W. Deem and Ramdas Pophale) SiO2 
 PCOD9522278
Probable space group: I M M M
;
_chemical_formula_sum "Si O2"
_cell_formula_units_Z 104
_cell_length_a 12.507799
_cell_length_b 28.088785
_cell_length_c 14.055100
_cell_angle_alpha 90.000000
_cell_angle_beta 90.000000
_cell_angle_gamma 90.000000
_cell_volume 4937.962498
_symmetry_space_group_name_H-M "I M M M"
_symmetry_group_IT_number 71
_symmetry_cell_setting 'orthorhombic'
loop_
_space_group_symop_operation_xyz
x,y,z
-x,-y,z
x,-y,-z
-x,y,-z
-x,-y,-z
x,y,-z
-x,y,z
x,-y,z
1/2+x,1/2+y,1/2+z
1/2-x,1/2-y,1/2+z
1/2+x,1/2-y,1/2-z
1/2-x,1/2+y,1/2-z
1/2-x,1/2-y,1/2-z
1/2+x,1/2+y,1/2-z
1/2-x,1/2+y,1/2+z
1/2+x,1/2-y,1/2+z
loop_
_atom_site_type_symbol
_atom_site_label
_atom_site_fract_x
_atom_site_fract_y
_atom_site_fract_z
Si Si1 0.123769 0.554481 0.767294
Si Si2 0.120410 0.696608 0.609890
Si Si3 0.500000 0.445131 0.884355
Si Si4 0.379903 0.704768 0.797885
Si Si5 0.342907 0.654223 0.609179
Si Si6 0.194938 0.948056 0.887002
Si Si7 0.786316 0.886539 0.386416
O O1 0.128362 0.500000 0.804709
O O2 0.195808 0.554308 0.672459
O O3 0.183458 0.589364 0.839594
O O4 0.000000 0.566445 0.750875
O O5 0.121880 0.714055 0.500000
O O6 0.146647 0.740965 0.677844
O O7 0.213743 0.658294 0.616105
O O8 0.000000 0.679583 0.629982
O O9 0.500000 0.500000 0.851774
O O10 0.391643 0.417353 0.857301
O O11 0.500000 0.445953 0.000000
O O12 0.500000 0.697472 0.837565
O O13 0.382632 0.691215 0.686985
O O14 0.303716 0.666576 0.847523
O O15 0.372783 0.664474 0.500000
O O16 0.370932 0.599855 0.634029
O O17 0.145194 0.000000 0.866644
O O18 0.215891 0.945870 0.000000
O O19 0.779829 0.886456 0.500000
#
# Coordination Sequence:
#
# PCOD9522278 Si02
#       7
#    16  16   8  16  16  16  16
#     4  10  21  36  54  79 112 151 191 233 289 354
#     4   9  19  35  58  87 116 145 183 235 290 344
#     4   9  18  32  52  78 103 135 187 243 285 323
#     4  11  21  36  57  84 115 149 190 238 289 339
#     4  10  20  36  58  84 114 149 189 233 284 345
#     4   9  18  34  57  83 112 147 188 236 284 330
#     4  11  21  35  55  79 109 147 191 239 288 341
#
# _framework density 21.061319000000001
#
# number of rings (size 3 to 8) (size 9 to 14) (size 15 to 20)
#    0.000    2.077    2.308    1.385    0.000    3.077 
#    0.000    3.846    0.000    0.000    0.000    4.308 
#    0.000    0.000    0.000    0.000    0.000    0.000 
#
# Total GULP energy -290361.522291 kJ/mol
# GULP energy per Si atom -5583.875429 kJ/mol
# Density = 2.101338 g / cm^3
# Si number density = 21.061319 Si / 1000 Ang^3
#
#
#
# Elastic Constant Matrix: (Units=GPa)
#
#
# Indices 1 2 3 4 5 6 
#
# 1 78.3706 14.8925 2.8635 0.0000 0.0000 0.0000
# 2 14.8925 96.8791 26.4603 0.0002 -0.0001 0.0000
# 3 2.8635 26.4603 89.4907 0.0007 0.0000 0.0000
# 4 0.0000 0.0002 0.0007 27.2557 0.0000 0.0000
# 5 0.0000 -0.0001 0.0000 0.0000 20.1605 0.0000
# 6 0.0000 0.0000 0.0000 0.0000 0.0000 13.6804
#
#
#
# Elastic Compliance Matrix: (Units=1/GPa)
#
#
# Indices 1 2 3 4 5 6 
#
# 1 0.013147 -0.002074 0.000192 0.000000 0.000000 0.000000
# 2 -0.002074 0.011556 -0.003350 0.000000 0.000000 0.000000
# 3 0.000192 -0.003350 0.012159 0.000000 0.000000 0.000000
# 4 0.000000 0.000000 0.000000 0.036690 0.000000 0.000000
# 5 0.000000 0.000000 0.000000 0.000000 0.049602 0.000000
# 6 0.000000 0.000000 0.000000 0.000000 0.000000 0.073097
#
#
# Mechanical properties :
#
#
# Convention : Reuss Voigt Hill
#
# Bulk Modulus (GPa) = 37.88091 39.24147 38.56119
# Shear Modulus (GPa) = 23.20044 26.92092 25.06068
#
# Velocity S-wave (km/s) = 3.32259 3.57909 3.45322
# Velocity P-wave (km/s) = 5.72228 5.97933 5.85221
#
# Compressibility (1/GPa) = 0.02639852
#
# Stress axis : x y z
#
# Youngs Moduli (GPa) = 76.06367 86.53513 82.24461
#
# Poissons Ratio (x) = 0.17943 -0.01583
# Poissons Ratio (y) = 0.15772 0.27556
# Poissons Ratio (z) = -0.01464 0.28994
#
# Static dielectric constant tensor:
#      x y z
#    x 1.768920 0.000000 0.000000 
#    y 0.000000 1.770240 0.000000 
#    z 0.000000 0.000000 1.749360 
# 
# From -- ./inp_files/33304.got.cif
#   From: 2010.05.17/outbox.cif.g08.bks.cpg/sg71_17_cif.got.tgz:33304.got - 2010.06.03 16:22:01.
