data_PCOD9522159
_publ_section_title
;
Structure prediction by ZEFSAII (Michael W. Deem and Ramdas Pophale) SiO2 
 PCOD9522159
Probable space group: I M M M
;
_chemical_formula_sum "Si O2"
_cell_formula_units_Z 52
_cell_length_a 17.330356
_cell_length_b 7.628926
_cell_length_c 22.567511
_cell_angle_alpha 90.000000
_cell_angle_beta 90.000000
_cell_angle_gamma 90.000000
_cell_volume 2983.695843
_symmetry_space_group_name_H-M "I M M M"
_symmetry_group_IT_number 71
_symmetry_cell_setting 'orthorhombic'
loop_
_space_group_symop_operation_xyz
x,y,z
-x,-y,z
x,-y,-z
-x,y,-z
-x,-y,-z
x,y,-z
-x,y,z
x,-y,z
1/2+x,1/2+y,1/2+z
1/2-x,1/2-y,1/2+z
1/2+x,1/2-y,1/2-z
1/2-x,1/2+y,1/2-z
1/2-x,1/2-y,1/2-z
1/2+x,1/2+y,1/2-z
1/2-x,1/2+y,1/2+z
1/2+x,1/2-y,1/2+z
loop_
_atom_site_type_symbol
_atom_site_label
_atom_site_fract_x
_atom_site_fract_y
_atom_site_fract_z
Si Si1 0.000000 0.500000 0.252323
Si Si2 0.087379 0.500000 0.631768
Si Si3 0.141624 0.211583 0.067456
Si Si4 0.317309 0.700963 0.930321
Si Si5 0.000000 0.788391 0.847194
O O1 0.072287 0.500000 0.297747
O O2 0.000000 0.328494 0.211418
O O3 0.133631 0.331962 0.609205
O O4 0.000000 0.500000 0.606337
O O5 0.226135 0.282343 0.082882
O O6 0.074970 0.257386 0.113396
O O7 0.147043 0.000000 0.066972
O O8 0.122602 0.267301 0.000000
O O9 0.341392 0.500000 0.922763
O O10 0.325807 0.748777 0.000000
O O11 0.000000 0.000000 0.836812
#
# Coordination Sequence:
#
# PCOD9522159 Si02
#       5
#     4   8  16  16   8
#     4  10  26  42  58  78 110 160 214 240 264 324
#     4  10  23  42  60  76 116 153 199 243 288 324
#     4   9  17  33  60  91 124 151 178 227 297 356
#     4  10  20  35  60  93 119 143 181 236 300 358
#     4  10  21  38  60  83 120 155 196 236 276 330
#
# _framework density 17.428048
#
# number of rings (size 3 to 8) (size 9 to 14) (size 15 to 20)
#    0.462    1.846    1.538    0.923    2.154    4.923 
#    0.000    3.846    0.000    0.000    0.000    0.000 
#    0.000    0.000    0.000    0.000    0.000    0.000 
#
# Total GULP energy -145012.617560 kJ/mol
# GULP energy per Si atom -5577.408368 kJ/mol
# Density = 1.738838 g / cm^3
# Si number density = 17.428048 Si / 1000 Ang^3
#
#
#
# Elastic Constant Matrix: (Units=GPa)
#
#
# Indices 1 2 3 4 5 6 
#
# 1 103.5674 58.1854 84.3082 0.0000 0.0000 0.0000
# 2 58.1854 88.3961 73.8632 0.0000 0.0000 0.0000
# 3 84.3082 73.8632 120.4141 0.0000 0.0000 0.0000
# 4 0.0000 0.0000 0.0000 25.8407 0.0000 0.0000
# 5 0.0000 0.0000 0.0000 0.0000 11.3291 0.0000
# 6 0.0000 0.0000 0.0000 0.0000 0.0000 -0.6280
#
#
#
# Elastic Compliance Matrix: (Units=1/GPa)
#
#
# Indices 1 2 3 4 5 6 
#
# 1 0.022953 -0.003447 -0.013956 0.000000 0.000000 0.000000
# 2 -0.003447 0.023726 -0.012141 0.000000 0.000000 0.000000
# 3 -0.013956 -0.012141 0.025523 0.000000 0.000000 0.000000
# 4 0.000000 0.000000 0.000000 0.038699 0.000000 0.000000
# 5 0.000000 0.000000 0.000000 0.000000 0.088268 0.000000
# 6 0.000000 0.000000 0.000000 0.000000 0.000000 -1.592444
#
#
# Mechanical properties :
#
#
# Convention : Reuss Voigt Hill
#
# Bulk Modulus (GPa) = 76.24738 82.78792 79.51765
# Shear Modulus (GPa) = -3.75992 13.70977 4.97492
#
# Velocity S-wave (km/s) = -1.47040 2.80777 1.69137
# Velocity P-wave (km/s) = 6.40016 7.62347 7.03844
#
# Compressibility (1/GPa) = 0.01311520
#
# Stress axis : x y z
#
# Youngs Moduli (GPa) = 43.56736 42.14785 39.17966
#
# Poissons Ratio (x) = 0.14527 0.54681
# Poissons Ratio (y) = 0.15016 0.47567
# Poissons Ratio (z) = 0.60804 0.51170
#
# Static dielectric constant tensor:
#      x y z
#    x 1.577520 0.000000 0.000000 
#    y 0.000000 1.606760 0.000000 
#    z 0.000000 0.000000 1.570090 
# 
# From -- ./inp_files/53652.got.cif
#   From: 2010.05.17/outbox.cif.g08.bks.cpg/sg71_27_cif.got.tgz:53652.got - 2010.06.03 16:22:01.
