data_PCOD9522839
_publ_section_title
;
Structure prediction by ZEFSAII (Michael W. Deem and Ramdas Pophale) SiO2 
 PCOD9522839
Probable space group: I M M M
;
_chemical_formula_sum "Si O2"
_cell_formula_units_Z 88
_cell_length_a 24.462316
_cell_length_b 8.041753
_cell_length_c 24.762671
_cell_angle_alpha 90.000000
_cell_angle_beta 90.000000
_cell_angle_gamma 90.000000
_cell_volume 4871.310239
_symmetry_space_group_name_H-M "I M M M"
_symmetry_group_IT_number 71
_symmetry_cell_setting 'orthorhombic'
loop_
_space_group_symop_operation_xyz
x,y,z
-x,-y,z
x,-y,-z
-x,y,-z
-x,-y,-z
x,y,-z
-x,y,z
x,-y,z
1/2+x,1/2+y,1/2+z
1/2-x,1/2-y,1/2+z
1/2+x,1/2-y,1/2-z
1/2-x,1/2+y,1/2-z
1/2-x,1/2-y,1/2-z
1/2+x,1/2+y,1/2-z
1/2-x,1/2+y,1/2+z
1/2+x,1/2-y,1/2+z
loop_
_atom_site_type_symbol
_atom_site_label
_atom_site_fract_x
_atom_site_fract_y
_atom_site_fract_z
Si Si1 0.437454 0.500000 0.435701
Si Si2 0.938391 0.802971 0.649490
Si Si3 0.351738 0.199505 0.060317
Si Si4 0.378634 0.806158 0.379469
Si Si5 0.562400 0.800753 0.270104
Si Si6 0.726843 0.701300 0.563072
O O1 0.500000 0.500000 0.417264
O O2 0.435232 0.500000 0.500000
O O3 0.409232 0.668293 0.415134
O O4 0.895304 0.743044 0.605597
O O5 0.921982 0.762940 0.711001
O O6 0.000000 0.732825 0.641462
O O7 0.941649 0.000000 0.644342
O O8 0.289578 0.254175 0.072466
O O9 0.349065 0.000000 0.057466
O O10 0.366661 0.261082 0.000000
O O11 0.395913 0.761253 0.318222
O O12 0.315604 0.784358 0.396219
O O13 0.394695 0.000000 0.388565
O O14 0.500000 0.741610 0.282229
O O15 0.560282 0.000000 0.266824
O O16 0.713489 0.739416 0.500000
O O17 0.723054 0.500000 0.568573
#
# Coordination Sequence:
#
# PCOD9522839 Si02
#       6
#     8  16  16  16  16  16
#     4  11  24  38  54  80 116 154 188 238 296 338
#     4  10  21  35  54  82 113 145 182 229 285 342
#     4   9  19  36  58  82 110 147 187 228 277 337
#     4  11  22  36  58  85 112 149 198 239 287 341
#     4   9  19  36  56  78 106 143 189 237 279 332
#     4   9  18  35  57  80 109 146 189 236 284 337
#
# _framework density 18.064955000000001
#
# number of rings (size 3 to 8) (size 9 to 14) (size 15 to 20)
#    0.000    2.273    0.909    2.727    1.273    5.091 
#    0.000    5.455    0.000    0.000    0.000    0.000 
#    0.000    0.000    0.000    0.000    0.000    0.000 
#
# Total GULP energy -245359.715628 kJ/mol
# GULP energy per Si atom -5576.357173 kJ/mol
# Density = 1.802384 g / cm^3
# Si number density = 18.064955 Si / 1000 Ang^3
#
#
#
# Elastic Constant Matrix: (Units=GPa)
#
#
# Indices 1 2 3 4 5 6 
#
# 1 116.7259 30.8077 98.8768 0.0000 0.0000 0.0000
# 2 30.8077 49.8693 31.5988 0.0000 0.0000 0.0000
# 3 98.8768 31.5988 126.4923 0.0000 0.0000 0.0000
# 4 0.0000 0.0000 0.0000 27.9155 0.0000 0.0000
# 5 0.0000 0.0000 0.0000 0.0000 35.3609 0.0000
# 6 0.0000 0.0000 0.0000 0.0000 0.0000 24.0068
#
#
#
# Elastic Compliance Matrix: (Units=1/GPa)
#
#
# Indices 1 2 3 4 5 6 
#
# 1 0.025942 -0.003775 -0.019336 0.000000 0.000000 0.000000
# 2 -0.003775 0.024373 -0.003138 0.000000 0.000000 0.000000
# 3 -0.019336 -0.003138 0.023804 0.000000 0.000000 0.000000
# 4 0.000000 0.000000 0.000000 0.035822 0.000000 0.000000
# 5 0.000000 0.000000 0.000000 0.000000 0.028280 0.000000
# 6 0.000000 0.000000 0.000000 0.000000 0.000000 0.041655
#
#
# Mechanical properties :
#
#
# Convention : Reuss Voigt Hill
#
# Bulk Modulus (GPa) = 46.24866 68.40600 57.32733
# Shear Modulus (GPa) = 20.86990 26.24360 23.55675
#
# Velocity S-wave (km/s) = 3.40261 3.81561 3.61502
# Velocity P-wave (km/s) = 6.41046 7.57369 7.01622
#
# Compressibility (1/GPa) = 0.02162225
#
# Stress axis : x y z
#
# Youngs Moduli (GPa) = 38.54714 41.02984 42.01005
#
# Poissons Ratio (x) = 0.15487 0.81229
# Poissons Ratio (y) = 0.14550 0.13182
# Poissons Ratio (z) = 0.74533 0.12875
#
# Static dielectric constant tensor:
#      x y z
#    x 1.648960 0.000000 0.000000 
#    y 0.000000 1.636830 0.000000 
#    z 0.000000 0.000000 1.607330 
# 
# From -- ./inp_files/55558.got.cif
#   From: 2010.05.17/outbox.cif.g08.bks.cpg/sg71_28_cif.got.tgz:55558.got - 2010.06.03 16:22:01.
