data_PCOD9522726
_publ_section_title
;
Structure prediction by ZEFSAII (Michael W. Deem and Ramdas Pophale) SiO2 
 PCOD9522726
Probable space group: I M M M
;
_chemical_formula_sum "Si O2"
_cell_formula_units_Z 112
_cell_length_a 14.962143
_cell_length_b 33.558763
_cell_length_c 11.066560
_cell_angle_alpha 90.000000
_cell_angle_beta 90.000000
_cell_angle_gamma 90.000000
_cell_volume 5556.641629
_symmetry_space_group_name_H-M "I M M M"
_symmetry_group_IT_number 71
_symmetry_cell_setting 'orthorhombic'
loop_
_space_group_symop_operation_xyz
x,y,z
-x,-y,z
x,-y,-z
-x,y,-z
-x,-y,-z
x,y,-z
-x,y,z
x,-y,z
1/2+x,1/2+y,1/2+z
1/2-x,1/2-y,1/2+z
1/2+x,1/2-y,1/2-z
1/2-x,1/2+y,1/2-z
1/2-x,1/2-y,1/2-z
1/2+x,1/2+y,1/2-z
1/2-x,1/2+y,1/2+z
1/2+x,1/2-y,1/2+z
loop_
_atom_site_type_symbol
_atom_site_label
_atom_site_fract_x
_atom_site_fract_y
_atom_site_fract_z
Si Si1 0.737690 0.899803 0.730702
Si Si2 0.103558 0.666429 0.863111
Si Si3 0.837158 0.283060 0.366004
Si Si4 0.668144 0.662932 0.370288
Si Si5 0.602331 0.304412 0.868575
Si Si6 0.101376 0.547646 0.361974
Si Si7 0.601161 0.454305 0.855145
O O1 0.680314 0.867278 0.654835
O O2 0.771722 0.875860 0.848275
O O3 0.668009 0.933076 0.769368
O O4 0.823618 0.922285 0.677831
O O5 0.117589 0.697054 0.751580
O O6 0.000000 0.651782 0.854997
O O7 0.113999 0.683158 0.000000
O O8 0.877229 0.293140 0.500000
O O9 0.737576 0.300458 0.370311
O O10 0.839712 0.235475 0.357612
O O11 0.621372 0.661779 0.500000
O O12 0.614029 0.667925 0.246861
O O13 0.500000 0.290495 0.869822
O O14 0.621137 0.323535 0.000000
O O15 0.123801 0.558747 0.500000
O O16 0.103489 0.500000 0.354952
O O17 0.000000 0.560966 0.338874
O O18 0.500000 0.444179 0.812524
O O19 0.621614 0.500000 0.813631
O O20 0.598010 0.455682 0.000000
#
# Coordination Sequence:
#
# PCOD9522726 Si02
#       7
#    16  16  16  16  16  16  16
#     4  11  20  34  55  78 109 150 185 220 270 333
#     4  10  21  34  50  80 119 152 183 220 267 329
#     4   9  19  37  59  80 104 139 184 228 271 323
#     4  10  22  36  52  79 111 143 179 220 269 325
#     4  10  21  37  57  79 103 136 181 231 280 328
#     4   9  18  33  55  84 114 143 179 222 265 316
#     4   9  19  36  57  80 103 132 181 240 285 322
#
# _framework density 20.156061000000001
#
# number of rings (size 3 to 8) (size 9 to 14) (size 15 to 20)
#    0.000    2.286    0.000    3.429    0.000    5.714 
#    0.000    1.429    0.000    1.286    0.000   11.000 
#    0.000    0.000    0.000    0.000    0.000    0.000 
#
# Total GULP energy -312082.607207 kJ/mol
# GULP energy per Si atom -5572.903700 kJ/mol
# Density = 2.011018 g / cm^3
# Si number density = 20.156061 Si / 1000 Ang^3
#
#
#
# Elastic Constant Matrix: (Units=GPa)
#
#
# Indices 1 2 3 4 5 6 
#
# 1 32.7283 8.9883 36.2091 0.0003 0.0000 0.0005
# 2 8.9883 31.4114 37.9485 0.0003 -0.0002 0.0007
# 3 36.2091 37.9485 151.9808 0.0011 -0.0007 0.0029
# 4 0.0003 0.0003 0.0011 9.4620 -0.0002 0.0008
# 5 0.0000 -0.0002 -0.0007 -0.0002 20.3274 -0.0002
# 6 0.0005 0.0007 0.0029 0.0008 -0.0002 -30.9908
#
#
#
# Elastic Compliance Matrix: (Units=1/GPa)
#
#
# Indices 1 2 3 4 5 6 
#
# 1 0.041491 0.000100 -0.009910 0.000000 0.000000 0.000000
# 2 0.000100 0.045588 -0.011407 0.000000 0.000000 0.000000
# 3 -0.009910 -0.011407 0.011789 -0.000001 0.000000 0.000001
# 4 0.000000 0.000000 -0.000001 0.105685 0.000001 0.000003
# 5 0.000000 0.000000 0.000000 0.000001 0.049195 0.000000
# 6 0.000000 0.000000 0.000001 0.000003 0.000000 -0.032268
#
#
# Mechanical properties :
#
#
# Convention : Reuss Voigt Hill
#
# Bulk Modulus (GPa) = 17.71978 42.49026 30.10502
# Shear Modulus (GPa) = 17.68501 8.62471 13.15486
#
# Velocity S-wave (km/s) = 2.96531 2.07081 2.55747
# Velocity P-wave (km/s) = 4.53150 5.18113 4.86716
#
# Compressibility (1/GPa) = 0.05643409
#
# Stress axis : x y z
#
# Youngs Moduli (GPa) = 24.10146 21.93582 84.82456
#
# Poissons Ratio (x) = -0.00219 0.84063
# Poissons Ratio (y) = -0.00241 0.96757
# Poissons Ratio (z) = 0.23885 0.25022
#
# Static dielectric constant tensor:
#      x y z
#    x 1.740350 0.000000 0.000000 
#    y 0.000000 1.716730 0.000000 
#    z 0.000000 0.000000 1.750070 
# 
# From -- ./inp_files/22670.got.cif
#   From: 2010.05.17/outbox.cif.g08.bks.cpg/sg71_12_cif.got.tgz:22670.got - 2010.06.03 16:22:01.
