data_PCOD9522405
_publ_section_title
;
Structure prediction by ZEFSAII (Michael W. Deem and Ramdas Pophale) SiO2 
 PCOD9522405
Probable space group: I M M M
;
_chemical_formula_sum "Si O2"
_cell_formula_units_Z 100
_cell_length_a 27.097507
_cell_length_b 21.606323
_cell_length_c 9.554171
_cell_angle_alpha 90.000000
_cell_angle_beta 90.000000
_cell_angle_gamma 90.000000
_cell_volume 5593.752044
_symmetry_space_group_name_H-M "I M M M"
_symmetry_group_IT_number 71
_symmetry_cell_setting 'orthorhombic'
loop_
_space_group_symop_operation_xyz
x,y,z
-x,-y,z
x,-y,-z
-x,y,-z
-x,-y,-z
x,y,-z
-x,y,z
x,-y,z
1/2+x,1/2+y,1/2+z
1/2-x,1/2-y,1/2+z
1/2+x,1/2-y,1/2-z
1/2-x,1/2+y,1/2-z
1/2-x,1/2-y,1/2-z
1/2+x,1/2+y,1/2-z
1/2-x,1/2+y,1/2+z
1/2+x,1/2-y,1/2+z
loop_
_atom_site_type_symbol
_atom_site_label
_atom_site_fract_x
_atom_site_fract_y
_atom_site_fract_z
Si Si1 0.384503 0.889276 0.275627
Si Si2 0.079778 0.846572 0.667172
Si Si3 0.789126 0.331755 0.334520
Si Si4 0.443279 0.925586 0.000000
Si Si5 0.500000 0.425720 0.332858
Si Si6 0.608479 0.000000 0.500000
Si Si7 0.055712 0.729910 0.845941
Si Si8 0.191706 0.186530 0.336069
O O1 0.327757 0.877663 0.236387
O O2 0.415030 0.901733 0.135250
O O3 0.406375 0.825807 0.336206
O O4 0.391373 0.945756 0.379258
O O5 0.071485 0.852832 0.500000
O O6 0.062741 0.779800 0.724732
O O7 0.138923 0.845090 0.692259
O O8 0.047561 0.895750 0.754748
O O9 0.785724 0.343037 0.500000
O O10 0.809686 0.261254 0.316517
O O11 0.736026 0.335748 0.261622
O O12 0.500000 0.904735 0.000000
O O13 0.442685 0.000000 0.000000
O O14 0.500000 0.500000 0.318083
O O15 0.500000 0.411204 0.500000
O O16 0.000000 0.704776 0.837685
O O17 0.061055 0.760358 0.000000
O O18 0.203724 0.176296 0.500000
#
# Coordination Sequence:
#
# PCOD9522405 Si02
#       8
#    16  16  16   8   8   4  16  16
#     4  12  23  43  60  87 120 170 220 271 318 386
#     4  11  22  39  64  97 133 166 211 264 321 386
#     4  10  20  36  62  89 123 163 208 261 325 383
#     4  11  24  42  62  83 116 162 212 270 323 379
#     4  11  25  45  69  95 133 181 214 253 310 394
#     4  12  28  42  63  86 120 178 230 271 322 382
#     4  11  23  37  57  90 126 164 208 267 327 374
#     4   9  20  36  57  96 131 159 198 259 326 388
#
# _framework density 17.877088000000001
#
# number of rings (size 3 to 8) (size 9 to 14) (size 15 to 20)
#    0.000    1.280    4.800    1.200    2.240    1.920 
#    0.000    1.600    1.760    0.000    0.000    0.000 
#    0.000    0.000    0.000    0.000    0.000    0.000 
#
# Total GULP energy -278578.651995 kJ/mol
# GULP energy per Si atom -5571.573040 kJ/mol
# Density = 1.783640 g / cm^3
# Si number density = 17.877088 Si / 1000 Ang^3
#
#
#
# Elastic Constant Matrix: (Units=GPa)
#
#
# Indices 1 2 3 4 5 6 
#
# 1 111.7056 34.4511 67.8033 0.0000 0.0000 0.0000
# 2 34.4511 82.2736 50.4020 0.0000 0.0000 0.0000
# 3 67.8033 50.4020 135.8738 0.0000 0.0000 0.0000
# 4 0.0000 0.0000 0.0000 37.3966 0.0000 0.0000
# 5 0.0000 0.0000 0.0000 0.0000 38.9251 0.0000
# 6 0.0000 0.0000 0.0000 0.0000 0.0000 -0.5007
#
#
#
# Elastic Compliance Matrix: (Units=1/GPa)
#
#
# Indices 1 2 3 4 5 6 
#
# 1 0.013070 -0.001912 -0.005813 0.000000 0.000000 0.000000
# 2 -0.001912 0.016009 -0.004984 0.000000 0.000000 0.000000
# 3 -0.005813 -0.004984 0.012109 0.000000 0.000000 0.000000
# 4 0.000000 0.000000 0.000000 0.026740 0.000000 0.000000
# 5 0.000000 0.000000 0.000000 0.000000 0.025690 0.000000
# 6 0.000000 0.000000 0.000000 0.000000 0.000000 -1.997256
#
#
# Mechanical properties :
#
#
# Convention : Reuss Voigt Hill
#
# Bulk Modulus (GPa) = 63.41200 70.57397 66.99299
# Shear Modulus (GPa) = -2.66957 26.97731 12.15387
#
# Velocity S-wave (km/s) = -1.22333 3.88886 2.61024
# Velocity P-wave (km/s) = 5.79247 7.72834 6.82935
#
# Compressibility (1/GPa) = 0.01576989
#
# Stress axis : x y z
#
# Youngs Moduli (GPa) = 76.51037 62.46652 82.57988
#
# Poissons Ratio (x) = 0.11942 0.48004
# Poissons Ratio (y) = 0.14627 0.41160
# Poissons Ratio (z) = 0.44476 0.31135
#
# Static dielectric constant tensor:
#      x y z
#    x 1.617080 0.000000 0.000000 
#    y 0.000000 1.583730 0.000000 
#    z 0.000000 0.000000 1.632570 
# 
# From -- ./inp_files/15066.got.cif
#   From: 2010.05.17/outbox.cif.g08.bks.cpg/sg71_8_cif.got.tgz:15066.got - 2010.06.03 16:22:01.
