data_PCOD9522970
_publ_section_title
;
Structure prediction by ZEFSAII (Michael W. Deem and Ramdas Pophale) SiO2 
 PCOD9522970
Probable space group: I M M M
;
_chemical_formula_sum "Si O2"
_cell_formula_units_Z 96
_cell_length_a 21.181353
_cell_length_b 16.367622
_cell_length_c 14.799381
_cell_angle_alpha 90.000000
_cell_angle_beta 90.000000
_cell_angle_gamma 90.000000
_cell_volume 5130.773414
_symmetry_space_group_name_H-M "I M M M"
_symmetry_group_IT_number 71
_symmetry_cell_setting 'orthorhombic'
loop_
_space_group_symop_operation_xyz
x,y,z
-x,-y,z
x,-y,-z
-x,y,-z
-x,-y,-z
x,y,-z
-x,y,z
x,-y,z
1/2+x,1/2+y,1/2+z
1/2-x,1/2-y,1/2+z
1/2+x,1/2-y,1/2-z
1/2-x,1/2+y,1/2-z
1/2-x,1/2-y,1/2-z
1/2+x,1/2+y,1/2-z
1/2-x,1/2+y,1/2+z
1/2+x,1/2-y,1/2+z
loop_
_atom_site_type_symbol
_atom_site_label
_atom_site_fract_x
_atom_site_fract_y
_atom_site_fract_z
Si Si1 0.427618 0.598670 0.288491
Si Si2 0.279399 0.860286 0.599928
Si Si3 0.634289 0.401511 0.899729
Si Si4 0.570000 0.099510 0.894774
Si Si5 0.193442 0.593591 0.295797
Si Si6 0.188489 0.171129 0.896220
O O1 0.500000 0.620956 0.307545
O O2 0.421867 0.500000 0.296994
O O3 0.409137 0.619836 0.184968
O O4 0.376654 0.640190 0.353430
O O5 0.293181 0.895054 0.500000
O O6 0.203218 0.861253 0.608972
O O7 0.305815 0.904438 0.687732
O O8 0.305682 0.768701 0.603201
O O9 0.644374 0.500000 0.896235
O O10 0.608776 0.382151 0.000000
O O11 0.500000 0.127832 0.867185
O O12 0.628405 0.128902 0.835409
O O13 0.569041 0.000000 0.889758
O O14 0.579895 0.120588 0.000000
O O15 0.198845 0.500000 0.326612
O O16 0.253917 0.639264 0.335271
O O17 0.195298 0.142377 0.000000
#
# Coordination Sequence:
#
# PCOD9522970 Si02
#       6
#    16  16  16  16  16  16
#     4  10  21  36  55  81 111 146 188 233 279 324
#     4  10  21  36  55  78 108 143 177 221 274 326
#     4   9  17  32  56  84 112 142 178 223 277 334
#     4   8  15  29  49  75 106 135 163 202 259 321
#     4  11  20  32  56  84 107 135 176 225 274 323
#     4  11  23  37  54  78 108 144 186 227 273 326
#
# _framework density 18.710629999999998
#
# number of rings (size 3 to 8) (size 9 to 14) (size 15 to 20)
#    0.000    2.167    1.667    2.500    0.000    3.667 
#    0.000    3.333    0.000    1.500    0.000    2.333 
#    0.000    0.000    0.000    0.000    0.000    0.000 
#
# Total GULP energy -267797.758421 kJ/mol
# GULP energy per Si atom -5579.119967 kJ/mol
# Density = 1.866804 g / cm^3
# Si number density = 18.710630 Si / 1000 Ang^3
#
#
#
# Elastic Constant Matrix: (Units=GPa)
#
#
# Indices 1 2 3 4 5 6 
#
# 1 130.8563 20.9363 63.1944 0.0000 0.0000 0.0000
# 2 20.9363 24.6006 16.1216 0.0000 0.0000 0.0000
# 3 63.1944 16.1216 110.3976 0.0000 0.0000 0.0000
# 4 0.0000 0.0000 0.0000 20.8613 0.0000 0.0000
# 5 0.0000 0.0000 0.0000 0.0000 27.7715 0.0000
# 6 0.0000 0.0000 0.0000 0.0000 0.0000 -42.0432
#
#
#
# Elastic Compliance Matrix: (Units=1/GPa)
#
#
# Indices 1 2 3 4 5 6 
#
# 1 0.011297 -0.005945 -0.005598 0.000000 0.000000 0.000000
# 2 -0.005945 0.048080 -0.003618 0.000000 0.000000 0.000000
# 3 -0.005598 -0.003618 0.012791 0.000000 0.000000 0.000000
# 4 0.000000 0.000000 0.000000 0.047936 0.000000 0.000000
# 5 0.000000 0.000000 0.000000 0.000000 0.036008 0.000000
# 6 0.000000 0.000000 0.000000 0.000000 0.000000 -0.023785
#
#
# Mechanical properties :
#
#
# Convention : Reuss Voigt Hill
#
# Bulk Modulus (GPa) = 23.89788 51.81770 37.85779
# Shear Modulus (GPa) = 28.31281 12.35806 20.33544
#
# Velocity S-wave (km/s) = 3.89420 2.57278 3.30030
# Velocity P-wave (km/s) = 5.74629 6.04814 5.89914
#
# Compressibility (1/GPa) = 0.04184471
#
# Stress axis : x y z
#
# Youngs Moduli (GPa) = 88.52051 20.79861 78.17896
#
# Poissons Ratio (x) = 0.12365 0.43768
# Poissons Ratio (y) = 0.52628 0.28285
# Poissons Ratio (z) = 0.49557 0.07525
#
# Static dielectric constant tensor:
#      x y z
#    x 1.624900 0.000000 0.000000 
#    y 0.000000 1.653280 0.000000 
#    z 0.000000 0.000000 1.658740 
# 
# From -- ./inp_files/34500.got.cif
#   From: 2010.05.17/outbox.cif.g08.bks.cpg/sg71_18_cif.got.tgz:34500.got - 2010.06.03 16:22:01.
