data_PCOD9522268
_publ_section_title
;
Structure prediction by ZEFSAII (Michael W. Deem and Ramdas Pophale) SiO2 
 PCOD9522268
Probable space group: I M M M
;
_chemical_formula_sum "Si O2"
_cell_formula_units_Z 116
_cell_length_a 18.072178
_cell_length_b 25.057175
_cell_length_c 14.593001
_cell_angle_alpha 90.000000
_cell_angle_beta 90.000000
_cell_angle_gamma 90.000000
_cell_volume 6608.261400
_symmetry_space_group_name_H-M "I M M M"
_symmetry_group_IT_number 71
_symmetry_cell_setting 'orthorhombic'
loop_
_space_group_symop_operation_xyz
x,y,z
-x,-y,z
x,-y,-z
-x,y,-z
-x,-y,-z
x,y,-z
-x,y,z
x,-y,z
1/2+x,1/2+y,1/2+z
1/2-x,1/2-y,1/2+z
1/2+x,1/2-y,1/2-z
1/2-x,1/2+y,1/2-z
1/2-x,1/2-y,1/2-z
1/2+x,1/2+y,1/2-z
1/2-x,1/2+y,1/2+z
1/2+x,1/2-y,1/2+z
loop_
_atom_site_type_symbol
_atom_site_label
_atom_site_fract_x
_atom_site_fract_y
_atom_site_fract_z
Si Si1 0.300179 0.938022 0.230457
Si Si2 0.154584 0.059271 0.109997
Si Si3 0.337355 0.258989 0.753393
Si Si4 0.191203 0.937965 0.607331
Si Si5 0.086578 0.840213 0.390912
Si Si6 0.500000 0.837547 0.000000
Si Si7 0.918369 0.348257 0.690098
Si Si8 0.584683 0.329747 0.390546
O O1 0.234581 0.933484 0.155760
O O2 0.259411 0.924441 0.326243
O O3 0.366388 0.898919 0.206174
O O4 0.323637 0.000000 0.233423
O O5 0.104519 0.109446 0.136576
O O6 0.126967 0.000000 0.136698
O O7 0.161041 0.059951 0.000000
O O8 0.250000 0.250000 0.750000
O O9 0.365749 0.297599 0.834811
O O10 0.378677 0.203176 0.768083
O O11 0.362895 0.289154 0.661801
O O12 0.210744 0.932993 0.500000
O O13 0.123484 0.897976 0.625118
O O14 0.171836 0.000000 0.625182
O O15 0.090198 0.829242 0.500000
O O16 0.000000 0.838058 0.364502
O O17 0.563366 0.838957 0.917504
O O18 0.000000 0.356010 0.732808
O O19 0.592814 0.325801 0.500000
O O20 0.500000 0.318164 0.366258
#
# Coordination Sequence:
#
# PCOD9522268 Si02
#       8
#    16  16  16  16  16   4  16  16
#     4  10  20  36  58  82 113 148 186 230 278 333
#     4   9  18  31  51  80 112 148 187 229 280 334
#     4  12  24  38  57  79 108 146 186 228 278 333
#     4   9  18  34  55  81 116 154 192 232 272 320
#     4  10  21  34  55  84 111 143 184 231 284 338
#     4   8  24  40  61  92 110 150 175 224 292 352
#     4  10  22  39  59  84 114 142 179 223 284 342
#     4  10  21  37  55  78 109 146 188 231 273 324
#
# _framework density 17.553785000000001
#
# number of rings (size 3 to 8) (size 9 to 14) (size 15 to 20)
#    0.414    1.655    0.000    3.724    1.931    1.379 
#    0.000    3.793    0.000    5.379    0.000    1.931 
#    0.000    0.000    0.000    0.000    0.000    0.000 
#
# Total GULP energy -322986.955538 kJ/mol
# GULP energy per Si atom -5568.740613 kJ/mol
# Density = 1.751383 g / cm^3
# Si number density = 17.553785 Si / 1000 Ang^3
#
#
#
# Elastic Constant Matrix: (Units=GPa)
#
#
# Indices 1 2 3 4 5 6 
#
# 1 119.0763 57.4420 34.3638 0.0000 0.0000 0.0000
# 2 57.4420 80.4217 26.6173 0.0000 0.0000 0.0000
# 3 34.3638 26.6173 57.7944 0.0000 0.0000 0.0000
# 4 0.0000 0.0000 0.0000 21.4122 0.0000 0.0000
# 5 0.0000 0.0000 0.0000 0.0000 31.5080 0.0000
# 6 0.0000 0.0000 0.0000 0.0000 0.0000 -15.7313
#
#
#
# Elastic Compliance Matrix: (Units=1/GPa)
#
#
# Indices 1 2 3 4 5 6 
#
# 1 0.013654 -0.008336 -0.004279 0.000000 0.000000 0.000000
# 2 -0.008336 0.019760 -0.004144 0.000000 0.000000 0.000000
# 3 -0.004279 -0.004144 0.021756 0.000000 0.000000 0.000000
# 4 0.000000 0.000000 0.000000 0.046702 0.000000 0.000000
# 5 0.000000 0.000000 0.000000 0.000000 0.031738 0.000000
# 6 0.000000 0.000000 0.000000 0.000000 0.000000 -0.063567
#
#
# Mechanical properties :
#
#
# Convention : Reuss Voigt Hill
#
# Bulk Modulus (GPa) = 46.18731 54.90428 50.54580
# Shear Modulus (GPa) = 45.13457 16.69573 30.91515
#
# Velocity S-wave (km/s) = 5.07622 3.08737 4.20118
# Velocity P-wave (km/s) = 7.79271 6.63738 7.23813
#
# Compressibility (1/GPa) = 0.02165097
#
# Stress axis : x y z
#
# Youngs Moduli (GPa) = 73.23640 50.60636 45.96498
#
# Poissons Ratio (x) = 0.42188 0.19670
# Poissons Ratio (y) = 0.61053 0.19048
# Poissons Ratio (z) = 0.31341 0.20971
#
# Static dielectric constant tensor:
#      x y z
#    x 1.562300 0.000000 0.000000 
#    y 0.000000 1.605280 0.000000 
#    z 0.000000 0.000000 1.629940 
# 
# From -- ./inp_files/36994.got.cif
#   From: 2010.05.17/outbox.cif.g08.bks.cpg/sg71_19_cif.got.tgz:36994.got - 2010.06.03 16:22:01.
