data_PCOD9522853
_publ_section_title
;
Structure prediction by ZEFSAII (Michael W. Deem and Ramdas Pophale) SiO2 
 PCOD9522853
Probable space group: I M M M
;
_chemical_formula_sum "Si O2"
_cell_formula_units_Z 92
_cell_length_a 7.929189
_cell_length_b 28.890267
_cell_length_c 21.392550
_cell_angle_alpha 90.000000
_cell_angle_beta 90.000000
_cell_angle_gamma 90.000000
_cell_volume 4900.528069
_symmetry_space_group_name_H-M "I M M M"
_symmetry_group_IT_number 71
_symmetry_cell_setting 'orthorhombic'
loop_
_space_group_symop_operation_xyz
x,y,z
-x,-y,z
x,-y,-z
-x,y,-z
-x,-y,-z
x,y,-z
-x,y,z
x,-y,z
1/2+x,1/2+y,1/2+z
1/2-x,1/2-y,1/2+z
1/2+x,1/2-y,1/2-z
1/2-x,1/2+y,1/2-z
1/2-x,1/2-y,1/2-z
1/2+x,1/2+y,1/2-z
1/2-x,1/2+y,1/2+z
1/2+x,1/2-y,1/2+z
loop_
_atom_site_type_symbol
_atom_site_label
_atom_site_fract_x
_atom_site_fract_y
_atom_site_fract_z
Si Si1 0.310349 0.644713 0.427653
Si Si2 0.696689 0.321079 0.199065
Si Si3 0.705117 0.054179 0.500000
Si Si4 0.297813 0.277857 0.329249
Si Si5 0.300974 0.916506 0.637354
Si Si6 0.500000 0.924156 0.072290
Si Si7 0.189223 0.000000 0.275510
Si Si8 0.000000 0.500000 0.679213
O O1 0.314930 0.657822 0.500000
O O2 0.500000 0.628793 0.409456
O O3 0.267190 0.689029 0.386934
O O4 0.167950 0.606426 0.421068
O O5 0.500000 0.332481 0.206225
O O6 0.764102 0.305571 0.267520
O O7 0.718175 0.272539 0.163074
O O8 0.777749 0.365220 0.165729
O O9 0.500000 0.055193 0.500000
O O10 0.758617 0.077914 0.565287
O O11 0.755857 0.000000 0.500000
O O12 0.500000 0.271214 0.321758
O O13 0.500000 0.927770 0.638257
O O14 0.213150 0.954757 0.680909
O O15 0.500000 0.957929 0.130729
O O16 0.500000 0.942689 0.000000
O O17 0.335525 0.000000 0.223468
O O18 0.000000 0.000000 0.248919
#
# Coordination Sequence:
#
# PCOD9522853 Si02
#       8
#    16  16   8  16  16   8   8   4
#     4   9  19  37  62  90 119 157 204 247 298 364
#     4  10  21  35  55  85 118 152 196 249 307 361
#     4   9  18  36  64  86 112 160 210 250 300 362
#     4   9  19  36  56  82 114 155 196 245 305 365
#     4  11  21  40  63  87 120 161 206 255 306 368
#     4  10  23  42  66  92 123 163 206 250 305 369
#     4  12  26  42  62  94 126 157 209 256 307 367
#     4  12  27  44  62  99 126 166 198 256 312 365
#
# _framework density 18.773486999999999
#
# number of rings (size 3 to 8) (size 9 to 14) (size 15 to 20)
#    0.000    2.000    1.739    1.174    3.652    1.391 
#    1.565    2.174    0.000    2.609    0.000    0.000 
#    0.000    0.000    0.000    0.000    0.000    0.000 
#
# Total GULP energy -256583.815593 kJ/mol
# GULP energy per Si atom -5577.909035 kJ/mol
# Density = 1.873076 g / cm^3
# Si number density = 18.773487 Si / 1000 Ang^3
#
#
#
# Elastic Constant Matrix: (Units=GPa)
#
#
# Indices 1 2 3 4 5 6 
#
# 1 71.1789 31.1272 46.5901 0.0000 0.0000 -0.0001
# 2 31.1272 120.5367 82.9900 0.0000 0.0000 -0.0001
# 3 46.5901 82.9900 97.2957 0.0000 0.0000 -0.0002
# 4 0.0000 0.0000 0.0000 33.3663 0.0000 0.0000
# 5 0.0000 0.0000 0.0000 0.0000 15.9972 0.0000
# 6 -0.0001 -0.0001 -0.0002 0.0000 0.0000 -830.1686
#
#
#
# Elastic Compliance Matrix: (Units=1/GPa)
#
#
# Indices 1 2 3 4 5 6 
#
# 1 0.021107 0.003654 -0.013224 0.000000 0.000000 0.000000
# 2 0.003654 0.020734 -0.019435 0.000000 0.000000 0.000000
# 3 -0.013224 -0.019435 0.033187 0.000000 0.000000 0.000000
# 4 0.000000 0.000000 0.000000 0.029970 0.000000 0.000000
# 5 0.000000 0.000000 0.000000 0.000000 0.062511 0.000000
# 6 0.000000 0.000000 0.000000 0.000000 0.000000 -0.001205
#
#
# Mechanical properties :
#
#
# Convention : Reuss Voigt Hill
#
# Bulk Modulus (GPa) = 58.75890 67.82511 63.29200
# Shear Modulus (GPa) = 21.74043 -147.60742 -62.93349
#
# Velocity S-wave (km/s) = 3.40669 -8.87672 -5.79615
# Velocity P-wave (km/s) = 6.84404 8.29789 3.31769
#
# Compressibility (1/GPa) = 0.01701870
#
# Stress axis : x y z
#
# Youngs Moduli (GPa) = 47.37817 48.23107 30.13198
#
# Poissons Ratio (x) = -0.17624 0.39846
# Poissons Ratio (y) = -0.17312 0.58561
# Poissons Ratio (z) = 0.62652 0.93736
#
# Static dielectric constant tensor:
#      x y z
#    x 1.647130 0.000000 0.000000 
#    y 0.000000 1.704990 0.000000 
#    z 0.000000 0.000000 1.651480 
# 
# From -- ./inp_files/50860.got.cif
#   From: 2010.05.17/outbox.cif.g08.bks.cpg/sg71_26_cif.got.tgz:50860.got - 2010.06.03 16:22:01.
