data_PCOD9522074
_publ_section_title
;
Structure prediction by ZEFSAII (Michael W. Deem and Ramdas Pophale) SiO2 
 PCOD9522074
Probable space group: I M M M
;
_chemical_formula_sum "Si O2"
_cell_formula_units_Z 116
_cell_length_a 9.405130
_cell_length_b 23.128790
_cell_length_c 28.280774
_cell_angle_alpha 90.000000
_cell_angle_beta 90.000000
_cell_angle_gamma 90.000000
_cell_volume 6151.896313
_symmetry_space_group_name_H-M "I M M M"
_symmetry_group_IT_number 71
_symmetry_cell_setting 'orthorhombic'
loop_
_space_group_symop_operation_xyz
x,y,z
-x,-y,z
x,-y,-z
-x,y,-z
-x,-y,-z
x,y,-z
-x,y,z
x,-y,z
1/2+x,1/2+y,1/2+z
1/2-x,1/2-y,1/2+z
1/2+x,1/2-y,1/2-z
1/2-x,1/2+y,1/2-z
1/2-x,1/2-y,1/2-z
1/2+x,1/2+y,1/2-z
1/2-x,1/2+y,1/2+z
1/2+x,1/2-y,1/2+z
loop_
_atom_site_type_symbol
_atom_site_label
_atom_site_fract_x
_atom_site_fract_y
_atom_site_fract_z
Si Si1 0.222586 0.936069 0.789525
Si Si2 0.833144 0.239494 0.701948
Si Si3 0.667430 0.286324 0.556470
Si Si4 0.331643 0.934205 0.390707
Si Si5 0.334658 0.667327 0.056752
Si Si6 0.500000 0.000000 0.764336
Si Si7 0.839980 0.889721 0.309639
Si Si8 0.670278 0.849767 0.134340
O O1 0.154772 0.901174 0.746412
O O2 0.248888 0.900074 0.836962
O O3 0.157984 0.000000 0.797653
O O4 0.377276 0.950696 0.769050
O O5 0.750000 0.250000 0.750000
O O6 0.795635 0.176562 0.681611
O O7 0.812311 0.291989 0.666074
O O8 0.000000 0.236417 0.713024
O O9 0.676474 0.295308 0.500000
O O10 0.500000 0.284452 0.569476
O O11 0.745225 0.225309 0.567014
O O12 0.753109 0.334857 0.585262
O O13 0.500000 0.921581 0.391653
O O14 0.241992 0.887563 0.420005
O O15 0.270126 0.929539 0.337548
O O16 0.311495 0.000000 0.407739
O O17 0.500000 0.673736 0.071960
O O18 0.334385 0.660135 0.000000
O O19 0.000000 0.899857 0.327999
O O20 0.500000 0.861293 0.129669
#
# Coordination Sequence:
#
# PCOD9522074 Si02
#       8
#    16  16  16  16  16   4  16  16
#     4  10  20  35  58  79 112 151 195 235 282 333
#     4  10  21  34  52  80 111 145 184 228 280 334
#     4  10  22  39  61  89 118 148 185 230 284 346
#     4  11  25  39  57  82 112 154 199 241 286 336
#     4  10  21  40  64  87 113 145 185 234 289 346
#     4   8  20  36  54  84 105 150 199 238 274 334
#     4  11  23  37  54  80 116 152 196 242 283 337
#     4  11  20  35  59  85 115 150 190 237 287 338
#
# _framework density 18.855975000000001
#
# number of rings (size 3 to 8) (size 9 to 14) (size 15 to 20)
#    0.414    1.241    2.069    2.483    0.966    6.621 
#    0.000    1.379    0.000    0.414    0.000    2.414 
#    0.000    0.000    0.000    0.000    0.000    0.000 
#
# Total GULP energy -323092.178631 kJ/mol
# GULP energy per Si atom -5570.554804 kJ/mol
# Density = 1.881306 g / cm^3
# Si number density = 18.855975 Si / 1000 Ang^3
#
#
#
# Elastic Constant Matrix: (Units=GPa)
#
#
# Indices 1 2 3 4 5 6 
#
# 1 85.7776 24.5372 30.9241 0.0000 0.0000 0.0000
# 2 24.5372 83.8359 27.2163 0.0000 0.0000 0.0000
# 3 30.9241 27.2163 69.4907 0.0000 0.0000 0.0000
# 4 0.0000 0.0000 0.0000 20.2718 0.0000 0.0000
# 5 0.0000 0.0000 0.0000 0.0000 19.5787 0.0000
# 6 0.0000 0.0000 0.0000 0.0000 0.0000 16.7185
#
#
#
# Elastic Compliance Matrix: (Units=1/GPa)
#
#
# Indices 1 2 3 4 5 6 
#
# 1 0.014305 -0.002429 -0.005414 0.000000 0.000000 0.000000
# 2 -0.002429 0.014078 -0.004433 0.000000 0.000000 0.000000
# 3 -0.005414 -0.004433 0.018536 0.000000 0.000000 0.000000
# 4 0.000000 0.000000 0.000000 0.049330 0.000000 0.000000
# 5 0.000000 0.000000 0.000000 0.000000 0.051076 0.000000
# 6 0.000000 0.000000 0.000000 0.000000 0.000000 0.059814
#
#
# Mechanical properties :
#
#
# Convention : Reuss Voigt Hill
#
# Bulk Modulus (GPa) = 44.70996 44.93994 44.82495
# Shear Modulus (GPa) = 20.90767 21.74224 21.32495
#
# Velocity S-wave (km/s) = 3.33349 3.39937 3.36659
# Velocity P-wave (km/s) = 6.21120 6.26838 6.23986
#
# Compressibility (1/GPa) = 0.02236638
#
# Stress axis : x y z
#
# Youngs Moduli (GPa) = 69.90615 71.03262 53.94901
#
# Poissons Ratio (x) = 0.17254 0.29211
# Poissons Ratio (y) = 0.16980 0.23914
# Poissons Ratio (z) = 0.37851 0.31487
#
# Static dielectric constant tensor:
#      x y z
#    x 1.659960 0.000000 0.000000 
#    y 0.000000 1.679640 0.000000 
#    z 0.000000 0.000000 1.676240 
# 
# From -- ./inp_files/63632.got.cif
#   From: 2010.05.17/outbox.cif.g08.bks.cpg/sg71_32_cif.got.tgz:63632.got - 2010.06.03 16:22:01.
