data_PCOD9522198
_publ_section_title
;
Structure prediction by ZEFSAII (Michael W. Deem and Ramdas Pophale) SiO2 
 PCOD9522198
Probable space group: I M M M
;
_chemical_formula_sum "Si O2"
_cell_formula_units_Z 104
_cell_length_a 20.678307
_cell_length_b 9.053175
_cell_length_c 26.359293
_cell_angle_alpha 90.000000
_cell_angle_beta 90.000000
_cell_angle_gamma 90.000000
_cell_volume 4934.573837
_symmetry_space_group_name_H-M "I M M M"
_symmetry_group_IT_number 71
_symmetry_cell_setting 'orthorhombic'
loop_
_space_group_symop_operation_xyz
x,y,z
-x,-y,z
x,-y,-z
-x,y,-z
-x,-y,-z
x,y,-z
-x,y,z
x,-y,z
1/2+x,1/2+y,1/2+z
1/2-x,1/2-y,1/2+z
1/2+x,1/2-y,1/2-z
1/2-x,1/2+y,1/2-z
1/2-x,1/2-y,1/2-z
1/2+x,1/2+y,1/2-z
1/2-x,1/2+y,1/2+z
1/2+x,1/2-y,1/2+z
loop_
_atom_site_type_symbol
_atom_site_label
_atom_site_fract_x
_atom_site_fract_y
_atom_site_fract_z
Si Si1 0.069597 0.822724 0.086253
Si Si2 0.714524 0.321495 0.557025
Si Si3 0.248131 0.827461 0.660173
Si Si4 0.398021 0.827441 0.689248
Si Si5 0.125830 0.322985 0.299657
Si Si6 0.422843 0.667240 0.100520
Si Si7 0.579407 0.168491 0.000000
O O1 0.138032 0.777329 0.061642
O O2 0.072350 0.767978 0.144342
O O3 0.000000 0.772395 0.064500
O O4 0.069861 0.000000 0.084233
O O5 0.736837 0.285546 0.500000
O O6 0.718603 0.500000 0.563491
O O7 0.750398 0.242916 0.603699
O O8 0.320783 0.817328 0.681015
O O9 0.198109 0.740507 0.695287
O O10 0.231344 0.000000 0.658490
O O11 0.408778 0.779236 0.747121
O O12 0.416765 0.000000 0.683538
O O13 0.127415 0.500000 0.300750
O O14 0.092000 0.257749 0.349112
O O15 0.500000 0.659746 0.095123
O O16 0.398328 0.500000 0.103697
O O17 0.398360 0.749308 0.050484
O O18 0.500000 0.167178 0.000000
O O19 0.601438 0.000000 0.000000
#
# Coordination Sequence:
#
# PCOD9522198 Si02
#       7
#    16  16  16  16  16  16   8
#     4   9  18  32  52  80 111 144 183 224 267 318
#     4   9  18  34  55  78 108 145 182 223 271 321
#     4  10  20  36  56  78 105 137 177 223 273 325
#     4   9  20  36  54  76 105 142 178 219 270 322
#     4  11  22  36  55  80 107 137 178 222 267 321
#     4  10  21  37  56  79 108 140 174 214 261 312
#     4   9  17  33  57  79 101 133 169 205 250 303
#
# _framework density 21.075780999999999
#
# number of rings (size 3 to 8) (size 9 to 14) (size 15 to 20)
#    0.000    2.385    0.000    2.077    0.000    5.231 
#    1.385    4.615    0.000    0.000    0.000    4.308 
#    0.000    0.000    0.000    0.000    0.000    0.000 
#
# Total GULP energy -290391.564789 kJ/mol
# GULP energy per Si atom -5584.453169 kJ/mol
# Density = 2.102781 g / cm^3
# Si number density = 21.075781 Si / 1000 Ang^3
#
#
#
# Elastic Constant Matrix: (Units=GPa)
#
#
# Indices 1 2 3 4 5 6 
#
# 1 37.3427 3.0862 -8.9407 0.0000 0.0000 0.0000
# 2 3.0862 58.0016 26.7614 0.0000 0.0000 0.0000
# 3 -8.9407 26.7614 120.9091 0.0000 0.0000 0.0000
# 4 0.0000 0.0000 0.0000 26.2723 0.0000 0.0000
# 5 0.0000 0.0000 0.0000 0.0000 3.6938 0.0000
# 6 0.0000 0.0000 0.0000 0.0000 0.0000 19.2559
#
#
#
# Elastic Compliance Matrix: (Units=1/GPa)
#
#
# Indices 1 2 3 4 5 6 
#
# 1 0.027633 -0.002688 0.002638 0.000000 0.000000 0.000000
# 2 -0.002688 0.019463 -0.004507 0.000000 0.000000 0.000000
# 3 0.002638 -0.004507 0.009463 0.000000 0.000000 0.000000
# 4 0.000000 0.000000 0.000000 0.038063 0.000000 0.000000
# 5 0.000000 0.000000 0.000000 0.000000 0.270721 0.000000
# 6 0.000000 0.000000 0.000000 0.000000 0.000000 0.051932
#
#
# Mechanical properties :
#
#
# Convention : Reuss Voigt Hill
#
# Bulk Modulus (GPa) = 21.07604 28.67413 24.87508
# Shear Modulus (GPa) = 11.30702 22.86751 17.08726
#
# Velocity S-wave (km/s) = 2.31875 3.29753 2.85046
# Velocity P-wave (km/s) = 4.14616 5.30406 4.76044
#
# Compressibility (1/GPa) = 0.04744724
#
# Stress axis : x y z
#
# Youngs Moduli (GPa) = 36.18891 51.37897 105.67214
#
# Poissons Ratio (x) = 0.13808 -0.27878
# Poissons Ratio (y) = 0.09726 0.47622
# Poissons Ratio (z) = -0.09547 0.23155
#
# Static dielectric constant tensor:
#      x y z
#    x 1.839030 0.000000 0.000000 
#    y 0.000000 1.706860 0.000000 
#    z 0.000000 0.000000 1.738840 
# 
# From -- ./inp_files/66822.got.cif
#   From: 2010.05.17/outbox.cif.g08.bks.cpg/sg71_34_cif.got.tgz:66822.got - 2010.06.03 16:22:01.
