data_PCOD9522224
_publ_section_title
;
Structure prediction by ZEFSAII (Michael W. Deem and Ramdas Pophale) SiO2 
 PCOD9522224
Probable space group: I M M M
;
_chemical_formula_sum "Si O2"
_cell_formula_units_Z 116
_cell_length_a 23.230746
_cell_length_b 7.824854
_cell_length_c 32.348988
_cell_angle_alpha 90.000000
_cell_angle_beta 90.000000
_cell_angle_gamma 90.000000
_cell_volume 5880.308324
_symmetry_space_group_name_H-M "I M M M"
_symmetry_group_IT_number 71
_symmetry_cell_setting 'orthorhombic'
loop_
_space_group_symop_operation_xyz
x,y,z
-x,-y,z
x,-y,-z
-x,y,-z
-x,-y,-z
x,y,-z
-x,y,z
x,-y,z
1/2+x,1/2+y,1/2+z
1/2-x,1/2-y,1/2+z
1/2+x,1/2-y,1/2-z
1/2-x,1/2+y,1/2-z
1/2-x,1/2-y,1/2-z
1/2+x,1/2+y,1/2-z
1/2-x,1/2+y,1/2+z
1/2+x,1/2-y,1/2+z
loop_
_atom_site_type_symbol
_atom_site_label
_atom_site_fract_x
_atom_site_fract_y
_atom_site_fract_z
Si Si1 0.196247 0.300552 0.066708
Si Si2 0.321716 0.797705 0.951746
Si Si3 0.161448 0.703568 0.842965
Si Si4 0.563425 0.791240 0.280933
Si Si5 0.726790 0.798636 0.205056
Si Si6 0.436346 0.701753 0.097439
Si Si7 0.677792 0.500000 0.500000
Si Si8 0.900966 0.707893 0.689242
O O1 0.183390 0.500000 0.055889
O O2 0.266385 0.288669 0.069673
O O3 0.162843 0.255749 0.108909
O O4 0.180117 0.153108 0.035001
O O5 0.381469 0.773438 0.927404
O O6 0.309120 0.000000 0.952893
O O7 0.325664 0.740362 0.000000
O O8 0.156261 0.500000 0.840320
O O9 0.112907 0.773386 0.811813
O O10 0.223784 0.751894 0.826369
O O11 0.500000 0.741170 0.295282
O O12 0.571587 0.739924 0.233082
O O13 0.566156 0.000000 0.280571
O O14 0.750000 0.750000 0.250000
O O15 0.664815 0.727855 0.192672
O O16 0.718668 0.000000 0.205736
O O17 0.500000 0.770235 0.085639
O O18 0.436305 0.500000 0.089442
O O19 0.428071 0.730215 0.146544
O O20 0.903105 0.500000 0.687517
#
# Coordination Sequence:
#
# PCOD9522224 Si02
#       8
#    16  16  16  16  16  16   4  16
#     4  11  22  38  63  93 126 159 192 248 302 365
#     4  11  22  40  63  87 114 145 192 248 305 368
#     4  10  21  36  55  86 121 152 198 243 298 356
#     4   9  17  33  57  82 112 152 199 247 289 342
#     4  11  21  33  53  80 114 151 191 241 297 356
#     4  11  25  40  54  78 113 154 201 250 301 355
#     4  12  22  40  64  94 130 156 202 230 310 378
#     4  10  20  36  57  79 107 151 202 245 291 352
#
# _framework density 19.726856000000002
#
# number of rings (size 3 to 8) (size 9 to 14) (size 15 to 20)
#    0.000    1.517    2.759    2.690    0.966    6.069 
#    0.000    1.379    0.000    0.414    0.000    0.966 
#    0.000    3.310    0.000    0.000    0.000    0.000 
#
# Total GULP energy -323186.096735 kJ/mol
# GULP energy per Si atom -5572.174082 kJ/mol
# Density = 1.968196 g / cm^3
# Si number density = 19.726856 Si / 1000 Ang^3
#
#
#
# Elastic Constant Matrix: (Units=GPa)
#
#
# Indices 1 2 3 4 5 6 
#
# 1 76.8903 -8.4266 32.9389 0.0000 0.0000 0.0000
# 2 -8.4266 62.7464 6.7192 0.0000 0.0000 0.0000
# 3 32.9389 6.7192 122.4132 0.0000 0.0000 0.0000
# 4 0.0000 0.0000 0.0000 23.4711 0.0000 0.0000
# 5 0.0000 0.0000 0.0000 0.0000 36.4002 0.0000
# 6 0.0000 0.0000 0.0000 0.0000 0.0000 14.0212
#
#
#
# Elastic Compliance Matrix: (Units=1/GPa)
#
#
# Indices 1 2 3 4 5 6 
#
# 1 0.015072 0.002473 -0.004191 0.000000 0.000000 0.000000
# 2 0.002473 0.016437 -0.001568 0.000000 0.000000 0.000000
# 3 -0.004191 -0.001568 0.009383 0.000000 0.000000 0.000000
# 4 0.000000 0.000000 0.000000 0.042606 0.000000 0.000000
# 5 0.000000 0.000000 0.000000 0.000000 0.027472 0.000000
# 6 0.000000 0.000000 0.000000 0.000000 0.000000 0.071320
#
#
# Mechanical properties :
#
#
# Convention : Reuss Voigt Hill
#
# Bulk Modulus (GPa) = 29.13748 36.05700 32.59724
# Shear Modulus (GPa) = 24.96223 30.16639 27.56431
#
# Velocity S-wave (km/s) = 3.56110 3.91475 3.74210
# Velocity P-wave (km/s) = 5.63126 6.22507 5.93559
#
# Compressibility (1/GPa) = 0.03432006
#
# Stress axis : x y z
#
# Youngs Moduli (GPa) = 66.34785 60.83782 106.57687
#
# Poissons Ratio (x) = -0.15045 0.44670
# Poissons Ratio (y) = -0.16407 0.16707
# Poissons Ratio (z) = 0.27809 0.09537
#
# Static dielectric constant tensor:
#      x y z
#    x 1.718380 0.000000 0.000000 
#    y 0.000000 1.708550 0.000000 
#    z 0.000000 0.000000 1.698820 
# 
# From -- ./inp_files/71032.got.cif
#   From: 2010.05.17/outbox.cif.g08.bks.cpg/sg71_36_cif.got.tgz:71032.got - 2010.06.03 16:22:01.
