data_PCOD9522062
_publ_section_title
;
Structure prediction by ZEFSAII (Michael W. Deem and Ramdas Pophale) SiO2 
 PCOD9522062
Probable space group: I M M M
;
_chemical_formula_sum "Si O2"
_cell_formula_units_Z 82
_cell_length_a 7.601679
_cell_length_b 24.553693
_cell_length_c 20.894850
_cell_angle_alpha 90.000000
_cell_angle_beta 90.000000
_cell_angle_gamma 90.000000
_cell_volume 3900.008968
_symmetry_space_group_name_H-M "I M M M"
_symmetry_group_IT_number 71
_symmetry_cell_setting 'orthorhombic'
loop_
_space_group_symop_operation_xyz
x,y,z
-x,-y,z
x,-y,-z
-x,y,-z
-x,-y,-z
x,y,-z
-x,y,z
x,-y,z
1/2+x,1/2+y,1/2+z
1/2-x,1/2-y,1/2+z
1/2+x,1/2-y,1/2-z
1/2-x,1/2+y,1/2-z
1/2-x,1/2-y,1/2-z
1/2+x,1/2+y,1/2-z
1/2-x,1/2+y,1/2+z
1/2+x,1/2-y,1/2+z
loop_
_atom_site_type_symbol
_atom_site_label
_atom_site_fract_x
_atom_site_fract_y
_atom_site_fract_z
Si Si1 0.710944 0.763397 0.676268
Si Si2 0.193376 0.410477 0.500000
Si Si3 0.711404 0.118161 0.367545
Si Si4 0.789203 0.061085 0.764467
Si Si5 0.785444 0.851908 0.129238
Si Si6 0.000000 0.000000 0.000000
Si Si7 0.715429 0.063454 0.500000
O O1 0.500000 0.765730 0.669906
O O2 0.750000 0.750000 0.750000
O O3 0.779444 0.821635 0.651786
O O4 0.773665 0.709962 0.639258
O O5 0.216825 0.374793 0.563196
O O6 0.347575 0.453531 0.500000
O O7 0.000000 0.435267 0.500000
O O8 0.500000 0.121830 0.372500
O O9 0.750764 0.078610 0.308038
O O10 0.774123 0.093968 0.435162
O O11 0.726568 0.107923 0.813174
O O12 0.000000 0.059201 0.771967
O O13 0.721945 0.000000 0.778312
O O14 0.000000 0.852540 0.128910
O O15 0.500000 0.063805 0.500000
O O16 0.768844 0.000000 0.500000
#
# Coordination Sequence:
#
# PCOD9522062 Si02
#       7
#    16   8  16  16  16   2   8
#     4  10  20  35  60  89 120 161 204 259 325 384
#     4  12  27  44  70 101 128 179 229 266 330 404
#     4  10  20  35  57  87 115 153 209 260 310 382
#     4  10  21  35  57  84 117 161 206 249 320 390
#     4  10  21  40  62  86 126 172 209 267 335 386
#     4  12  26  52  72  90 148 176 214 282 338 386
#     4   9  18  33  53  78 116 158 193 246 316 371
#
# _framework density 21.025592
#
# number of rings (size 3 to 8) (size 9 to 14) (size 15 to 20)
#    0.000    1.854    2.927    0.732    1.366    3.512 
#    0.000    3.415    0.000    1.756    0.000    0.000 
#    0.000    0.000    0.000    0.000    0.000    0.000 
#
# Total GULP energy -228803.755224 kJ/mol
# GULP energy per Si atom -5580.579396 kJ/mol
# Density = 2.097774 g / cm^3
# Si number density = 21.025592 Si / 1000 Ang^3
#
#
#
# Elastic Constant Matrix: (Units=GPa)
#
#
# Indices 1 2 3 4 5 6 
#
# 1 67.0691 19.6487 -2.7116 0.0000 0.0000 0.0000
# 2 19.6487 168.5839 58.0824 0.0000 0.0000 0.0000
# 3 -2.7116 58.0824 132.5747 0.0002 0.0000 0.0000
# 4 0.0000 0.0000 0.0002 44.5208 0.0000 0.0000
# 5 0.0000 0.0000 0.0000 0.0000 26.8901 0.0000
# 6 0.0000 0.0000 0.0000 0.0000 0.0000 33.9965
#
#
#
# Elastic Compliance Matrix: (Units=1/GPa)
#
#
# Indices 1 2 3 4 5 6 
#
# 1 0.015630 -0.002275 0.001316 0.000000 0.000000 0.000000
# 2 -0.002275 0.007318 -0.003252 0.000000 0.000000 0.000000
# 3 0.001316 -0.003252 0.008995 0.000000 0.000000 0.000000
# 4 0.000000 0.000000 0.000000 0.022461 0.000000 0.000000
# 5 0.000000 0.000000 0.000000 0.000000 0.037188 0.000000
# 6 0.000000 0.000000 0.000000 0.000000 0.000000 0.029415
#
#
# Mechanical properties :
#
#
# Convention : Reuss Voigt Hill
#
# Bulk Modulus (GPa) = 42.51752 57.58519 50.05136
# Shear Modulus (GPa) = 36.42485 40.62869 38.52677
#
# Velocity S-wave (km/s) = 4.16673 4.40061 4.28527
# Velocity P-wave (km/s) = 6.58897 7.29850 6.95279
#
# Compressibility (1/GPa) = 0.02351972
#
# Stress axis : x y z
#
# Youngs Moduli (GPa) = 63.98040 136.65860 111.17578
#
# Poissons Ratio (x) = 0.31093 -0.14636
# Poissons Ratio (y) = 0.14557 0.36159
# Poissons Ratio (z) = -0.08423 0.44447
#
# Static dielectric constant tensor:
#      x y z
#    x 1.789740 0.000000 0.000000 
#    y 0.000000 1.755210 0.000000 
#    z 0.000000 0.000000 1.721180 
# 
# From -- ./inp_files/50447.got.cif
#   From: 2010.05.17/outbox.cif.g08.bks.cpg/sg71_26_cif.got.tgz:50447.got - 2010.06.03 16:22:01.
