data_PCOD9522789
_publ_section_title
;
Structure prediction by ZEFSAII (Michael W. Deem and Ramdas Pophale) SiO2 
 PCOD9522789
Probable space group: I M M M
;
_chemical_formula_sum "Si O2"
_cell_formula_units_Z 120
_cell_length_a 9.129215
_cell_length_b 26.996469
_cell_length_c 28.341886
_cell_angle_alpha 90.000000
_cell_angle_beta 90.000000
_cell_angle_gamma 90.000000
_cell_volume 6985.044004
_symmetry_space_group_name_H-M "I M M M"
_symmetry_group_IT_number 71
_symmetry_cell_setting 'orthorhombic'
loop_
_space_group_symop_operation_xyz
x,y,z
-x,-y,z
x,-y,-z
-x,y,-z
-x,-y,-z
x,y,-z
-x,y,z
x,-y,z
1/2+x,1/2+y,1/2+z
1/2-x,1/2-y,1/2+z
1/2+x,1/2-y,1/2-z
1/2-x,1/2+y,1/2-z
1/2-x,1/2-y,1/2-z
1/2+x,1/2+y,1/2-z
1/2-x,1/2+y,1/2+z
1/2+x,1/2-y,1/2+z
loop_
_atom_site_type_symbol
_atom_site_label
_atom_site_fract_x
_atom_site_fract_y
_atom_site_fract_z
Si Si1 0.173664 0.909687 0.391327
Si Si2 0.675559 0.798679 0.054476
Si Si3 0.325017 0.744712 0.300756
Si Si4 0.174972 0.798241 0.613912
Si Si5 0.669094 0.059634 0.700643
Si Si6 0.671841 0.000000 0.556274
Si Si7 0.175774 0.557577 0.690389
Si Si8 0.174245 0.853457 0.861464
O O1 0.210928 0.853117 0.404025
O O2 0.224281 0.916914 0.337342
O O3 0.255166 0.951256 0.421552
O O4 0.000000 0.916836 0.395771
O O5 0.500000 0.805938 0.057607
O O6 0.706907 0.744018 0.075397
O O7 0.755675 0.836487 0.089239
O O8 0.719142 0.802822 0.000000
O O9 0.500000 0.750486 0.296719
O O10 0.250000 0.750000 0.250000
O O11 0.260070 0.783744 0.338440
O O12 0.293708 0.690857 0.324044
O O13 0.000000 0.797006 0.623722
O O14 0.500000 0.074902 0.692243
O O15 0.707761 0.070300 0.754835
O O16 0.674220 0.000000 0.695177
O O17 0.500000 0.000000 0.568240
O O18 0.688883 0.000000 0.500000
O O19 0.215862 0.500000 0.682621
O O20 0.256817 0.595940 0.657165
O O21 0.000000 0.561418 0.684738
O O22 0.000000 0.857348 0.865688
#
# Coordination Sequence:
#
# PCOD9522789 Si02
#       8
#    16  16  16  16  16   8  16  16
#     4  11  22  35  55  81 108 138 176 230 284 331
#     4   9  18  36  61  82 103 138 181 222 268 326
#     4  10  21  35  51  75 109 149 187 223 268 322
#     4   9  20  36  53  79 110 138 176 225 275 328
#     4   9  18  33  52  74 104 144 184 221 261 314
#     4  11  25  43  59  75 101 141 187 233 282 339
#     4   9  19  35  55  81 111 148 189 222 258 312
#     4  10  21  35  53  81 114 145 178 222 273 321
#
# _framework density 17.179561
#
# number of rings (size 3 to 8) (size 9 to 14) (size 15 to 20)
#    0.000    2.333    0.667    2.200    1.867    4.800 
#    0.000    2.667    0.000    0.400    0.000    2.800 
#    0.000    0.000    0.000    0.000    0.000    0.000 
#
# Total GULP energy -334877.887202 kJ/mol
# GULP energy per Si atom -5581.298120 kJ/mol
# Density = 1.714046 g / cm^3
# Si number density = 17.179561 Si / 1000 Ang^3
#
#
#
# Elastic Constant Matrix: (Units=GPa)
#
#
# Indices 1 2 3 4 5 6 
#
# 1 57.6714 57.3288 60.4353 0.0000 0.0000 0.0000
# 2 57.3288 105.7868 61.7964 0.0000 0.0000 0.0000
# 3 60.4353 61.7964 119.6258 0.0000 0.0000 0.0000
# 4 0.0000 0.0000 0.0000 11.8740 0.0000 0.0000
# 5 0.0000 0.0000 0.0000 0.0000 14.4057 0.0000
# 6 0.0000 0.0000 0.0000 0.0000 0.0000 22.5515
#
#
#
# Elastic Compliance Matrix: (Units=1/GPa)
#
#
# Indices 1 2 3 4 5 6 
#
# 1 0.055834 -0.019736 -0.018012 0.000000 0.000000 0.000000
# 2 -0.019736 0.020515 -0.000627 0.000000 0.000000 0.000000
# 3 -0.018012 -0.000627 0.017783 0.000000 0.000000 0.000000
# 4 0.000000 0.000000 0.000000 0.084217 0.000000 0.000000
# 5 0.000000 0.000000 0.000000 0.000000 0.069417 0.000000
# 6 0.000000 0.000000 0.000000 0.000000 0.000000 0.044343
#
#
# Mechanical properties :
#
#
# Convention : Reuss Voigt Hill
#
# Bulk Modulus (GPa) = 57.53226 71.35608 64.44417
# Shear Modulus (GPa) = 13.34572 16.66780 15.00676
#
# Velocity S-wave (km/s) = 2.79020 3.11820 2.95875
# Velocity P-wave (km/s) = 6.62886 7.38849 7.01896
#
# Compressibility (1/GPa) = 0.01738155
#
# Stress axis : x y z
#
# Youngs Moduli (GPa) = 17.91039 48.74599 56.23348
#
# Poissons Ratio (x) = 0.96204 1.01289
# Poissons Ratio (y) = 0.35348 0.03525
# Poissons Ratio (z) = 0.32260 0.03056
#
# Static dielectric constant tensor:
#      x y z
#    x 1.569860 0.000000 0.000000 
#    y 0.000000 1.579970 0.000000 
#    z 0.000000 0.000000 1.557670 
# 
# From -- ./inp_files/63810.got.cif
#   From: 2010.05.17/outbox.cif.g08.bks.cpg/sg71_32_cif.got.tgz:63810.got - 2010.06.03 16:22:01.
