data_PCOD9522437
_publ_section_title
;
Structure prediction by ZEFSAII (Michael W. Deem and Ramdas Pophale) SiO2 
 PCOD9522437
Probable space group: I M M M
;
_chemical_formula_sum "Si O2"
_cell_formula_units_Z 104
_cell_length_a 12.051082
_cell_length_b 26.483023
_cell_length_c 17.996273
_cell_angle_alpha 90.000000
_cell_angle_beta 90.000000
_cell_angle_gamma 90.000000
_cell_volume 5743.494003
_symmetry_space_group_name_H-M "I M M M"
_symmetry_group_IT_number 71
_symmetry_cell_setting 'orthorhombic'
loop_
_space_group_symop_operation_xyz
x,y,z
-x,-y,z
x,-y,-z
-x,y,-z
-x,-y,-z
x,y,-z
-x,y,z
x,-y,z
1/2+x,1/2+y,1/2+z
1/2-x,1/2-y,1/2+z
1/2+x,1/2-y,1/2-z
1/2-x,1/2+y,1/2-z
1/2-x,1/2-y,1/2-z
1/2+x,1/2+y,1/2-z
1/2-x,1/2+y,1/2+z
1/2+x,1/2-y,1/2+z
loop_
_atom_site_type_symbol
_atom_site_label
_atom_site_fract_x
_atom_site_fract_y
_atom_site_fract_z
Si Si1 0.255928 0.157161 0.684420
Si Si2 0.134812 0.944423 0.913265
Si Si3 0.500000 0.056823 0.638108
Si Si4 0.500000 0.183956 0.085635
Si Si5 0.500000 0.142480 0.751234
Si Si6 0.367711 0.341747 0.663119
Si Si7 0.229612 0.744546 0.585726
Si Si8 0.742136 0.940597 0.414830
O O1 0.382612 0.162375 0.716923
O O2 0.174603 0.162709 0.753598
O O3 0.237314 0.203441 0.629429
O O4 0.227334 0.103944 0.642947
O O5 0.173636 0.895754 0.868651
O O6 0.000000 0.944454 0.910376
O O7 0.171793 0.000000 0.886680
O O8 0.165138 0.939344 0.000000
O O9 0.500000 0.087655 0.714114
O O10 0.608859 0.064759 0.589302
O O11 0.500000 0.000000 0.662478
O O12 0.500000 0.148565 0.159450
O O13 0.608963 0.218682 0.092311
O O14 0.500000 0.162480 0.000000
O O15 0.500000 0.340552 0.658396
O O16 0.315809 0.296248 0.616889
O O17 0.252833 0.754258 0.500000
O O18 0.779986 0.931938 0.500000
O O19 0.768495 0.000000 0.395830
#
# Coordination Sequence:
#
# PCOD9522437 Si02
#       8
#    16  16   8   8   8  16  16  16
#     4  11  23  36  57  83 113 147 185 232 281 331
#     4   8  15  31  54  79 109 143 179 220 270 328
#     4   8  15  28  52  85 112 141 178 227 285 332
#     4  10  22  40  61  78 105 154 192 216 261 334
#     4  10  20  37  58  81 109 147 184 229 275 325
#     4  11  23  36  57  85 114 147 182 232 286 326
#     4  11  24  40  59  82 111 145 185 228 275 337
#     4   9  17  32  54  80 112 147 185 229 278 333
#
# _framework density 18.107444999999998
#
# number of rings (size 3 to 8) (size 9 to 14) (size 15 to 20)
#    0.000    2.154    1.538    2.077    2.154    2.462 
#    0.000    0.769    0.000    0.231    0.000    1.077 
#    0.000    0.000    0.000    0.000    0.000    0.000 
#
# Total GULP energy -289608.883846 kJ/mol
# GULP energy per Si atom -5569.401612 kJ/mol
# Density = 1.806623 g / cm^3
# Si number density = 18.107445 Si / 1000 Ang^3
#
#
#
# Elastic Constant Matrix: (Units=GPa)
#
#
# Indices 1 2 3 4 5 6 
#
# 1 51.1166 17.3733 24.3353 0.0000 0.0000 0.0000
# 2 17.3733 90.9577 69.8875 0.0000 0.0000 0.0000
# 3 24.3353 69.8875 139.7856 0.0001 0.0000 0.0000
# 4 0.0000 0.0000 0.0001 -21.2466 0.0000 0.0000
# 5 0.0000 0.0000 0.0000 0.0000 1.3725 0.0000
# 6 0.0000 0.0000 0.0000 0.0000 0.0000 11.2929
#
#
#
# Elastic Compliance Matrix: (Units=1/GPa)
#
#
# Indices 1 2 3 4 5 6 
#
# 1 0.021554 -0.002003 -0.002751 0.000000 0.000000 0.000000
# 2 -0.002003 0.018038 -0.008670 0.000000 0.000000 0.000000
# 3 -0.002751 -0.008670 0.011967 0.000000 0.000000 0.000000
# 4 0.000000 0.000000 0.000000 -0.047066 0.000000 0.000000
# 5 0.000000 0.000000 0.000000 0.000000 0.728621 0.000000
# 6 0.000000 0.000000 0.000000 0.000000 0.000000 0.088551
#
#
# Mechanical properties :
#
#
# Convention : Reuss Voigt Hill
#
# Bulk Modulus (GPa) = 40.46689 56.11690 48.29190
# Shear Modulus (GPa) = 5.83602 9.63469 7.73535
#
# Velocity S-wave (km/s) = 1.79722 2.30920 2.06910
# Velocity P-wave (km/s) = 5.16753 6.17804 5.69524
#
# Compressibility (1/GPa) = 0.02471156
#
# Stress axis : x y z
#
# Youngs Moduli (GPa) = 46.39615 55.43829 83.56212
#
# Poissons Ratio (x) = 0.11106 0.22985
# Poissons Ratio (y) = 0.09295 0.72445
# Poissons Ratio (z) = 0.12762 0.48063
#
# Static dielectric constant tensor:
#      x y z
#    x 1.572680 0.000000 0.000000 
#    y 0.000000 1.627590 0.000000 
#    z 0.000000 0.000000 1.519980 
# 
# From -- ./inp_files/43841.got.cif
#   From: 2010.05.17/outbox.cif.g08.bks.cpg/sg71_22_cif.got.tgz:43841.got - 2010.06.03 16:22:01.
