data_PCOD9522682
_publ_section_title
;
Structure prediction by ZEFSAII (Michael W. Deem and Ramdas Pophale) SiO2 
 PCOD9522682
Probable space group: I M M M
;
_chemical_formula_sum "Si O2"
_cell_formula_units_Z 104
_cell_length_a 14.066983
_cell_length_b 13.745561
_cell_length_c 27.590482
_cell_angle_alpha 90.000000
_cell_angle_beta 90.000000
_cell_angle_gamma 90.000000
_cell_volume 5334.856225
_symmetry_space_group_name_H-M "I M M M"
_symmetry_group_IT_number 71
_symmetry_cell_setting 'orthorhombic'
loop_
_space_group_symop_operation_xyz
x,y,z
-x,-y,z
x,-y,-z
-x,y,-z
-x,-y,-z
x,y,-z
-x,y,z
x,-y,z
1/2+x,1/2+y,1/2+z
1/2-x,1/2-y,1/2+z
1/2+x,1/2-y,1/2-z
1/2-x,1/2+y,1/2-z
1/2-x,1/2-y,1/2-z
1/2+x,1/2+y,1/2-z
1/2-x,1/2+y,1/2+z
1/2+x,1/2-y,1/2+z
loop_
_atom_site_type_symbol
_atom_site_label
_atom_site_fract_x
_atom_site_fract_y
_atom_site_fract_z
Si Si1 0.794613 0.108313 0.941762
Si Si2 0.500000 0.381236 0.444754
Si Si3 0.608626 0.689732 0.847273
Si Si4 0.796607 0.616042 0.801607
Si Si5 0.111549 0.388578 0.701585
Si Si6 0.392814 0.117732 0.401047
Si Si7 0.297340 0.306938 0.945084
O O1 0.717839 0.191694 0.936544
O O2 0.897850 0.141286 0.921534
O O3 0.770658 0.000000 0.924088
O O4 0.809051 0.100958 0.000000
O O5 0.500000 0.500000 0.447683
O O6 0.500000 0.342004 0.500000
O O7 0.500000 0.664952 0.835534
O O8 0.688372 0.641948 0.813563
O O9 0.620528 0.806116 0.839080
O O10 0.634644 0.659030 0.902066
O O11 0.807409 0.500000 0.801247
O O12 0.831738 0.647244 0.748914
O O13 0.860194 0.651456 0.847158
O O14 0.139548 0.500000 0.688718
O O15 0.000000 0.392093 0.714952
O O16 0.500000 0.150709 0.413083
O O17 0.308189 0.149535 0.436590
O O18 0.394139 0.000000 0.400790
O O19 0.328570 0.325281 0.000000
#
# Coordination Sequence:
#
# PCOD9522682 Si02
#       7
#    16   8  16  16  16  16  16
#     4   8  14  25  41  61  85 114 153 200 244 287
#     4   7  10  18  34  56  79 103 135 181 234 282
#     4  10  21  35  50  72 102 134 172 214 248 283
#     4   9  17  32  55  80 104 129 158 195 247 309
#     4   9  17  31  55  84 108 129 154 190 244 309
#     4   9  18  32  50  74 103 129 156 200 256 311
#     4  10  21  33  47  68  94 133 180 217 251 289
#
# _framework density 19.494433999999998
#
# number of rings (size 3 to 8) (size 9 to 14) (size 15 to 20)
#    0.000    3.000    0.000    1.846    1.077    3.692 
#    0.000    0.769    0.000    0.000    0.000    8.615 
#    0.000    0.000    0.000    0.000    0.000    0.000 
#
# Total GULP energy -289576.399811 kJ/mol
# GULP energy per Si atom -5568.776919 kJ/mol
# Density = 1.945006 g / cm^3
# Si number density = 19.494434 Si / 1000 Ang^3
#
#
#
# Elastic Constant Matrix: (Units=GPa)
#
#
# Indices 1 2 3 4 5 6 
#
# 1 41.6174 -4.4299 40.1351 0.0000 0.0000 0.0000
# 2 -4.4299 8.1894 4.2896 0.0000 0.0000 0.0000
# 3 40.1351 4.2896 86.0605 0.0000 0.0000 0.0000
# 4 0.0000 0.0000 0.0000 16.1583 0.0000 0.0000
# 5 0.0000 0.0000 0.0000 0.0000 9.8982 0.0000
# 6 0.0000 0.0000 0.0000 0.0000 0.0000 22.5644
#
#
#
# Elastic Compliance Matrix: (Units=1/GPa)
#
#
# Indices 1 2 3 4 5 6 
#
# 1 0.056448 0.045512 -0.028593 0.000000 0.000000 0.000000
# 2 0.045512 0.162077 -0.029303 0.000000 0.000000 0.000000
# 3 -0.028593 -0.029303 0.026415 0.000000 0.000000 0.000000
# 4 0.000000 0.000000 0.000000 0.061888 0.000000 0.000000
# 5 0.000000 0.000000 0.000000 0.000000 0.101028 0.000000
# 6 0.000000 0.000000 0.000000 0.000000 0.000000 0.044318
#
#
# Mechanical properties :
#
#
# Convention : Reuss Voigt Hill
#
# Bulk Modulus (GPa) = 4.54195 23.98411 14.26303
# Shear Modulus (GPa) = 9.08539 16.11567 12.60053
#
# Velocity S-wave (km/s) = 2.16116 2.87832 2.54513
# Velocity P-wave (km/s) = 2.92616 4.83488 3.99616
#
# Compressibility (1/GPa) = 0.22016954
#
# Stress axis : x y z
#
# Youngs Moduli (GPa) = 17.71554 6.16990 37.85716
#
# Poissons Ratio (x) = -0.28080 1.08246
# Poissons Ratio (y) = -0.80626 1.10934
# Poissons Ratio (z) = 0.50655 0.18080
#
# Static dielectric constant tensor:
#      x y z
#    x 1.691020 0.000000 0.000000 
#    y 0.000000 1.729770 0.000000 
#    z 0.000000 0.000000 1.676930 
# 
# From -- ./inp_files/64657.got.cif
#   From: 2010.05.17/outbox.cif.g08.bks.cpg/sg71_33_cif.got.tgz:64657.got - 2010.06.03 16:22:01.
