data_PCOD9522330
_publ_section_title
;
Structure prediction by ZEFSAII (Michael W. Deem and Ramdas Pophale) SiO2 
 PCOD9522330
Probable space group: I M M M
;
_chemical_formula_sum "Si O2"
_cell_formula_units_Z 104
_cell_length_a 27.640808
_cell_length_b 23.746938
_cell_length_c 8.551825
_cell_angle_alpha 90.000000
_cell_angle_beta 90.000000
_cell_angle_gamma 90.000000
_cell_volume 5613.285837
_symmetry_space_group_name_H-M "I M M M"
_symmetry_group_IT_number 71
_symmetry_cell_setting 'orthorhombic'
loop_
_space_group_symop_operation_xyz
x,y,z
-x,-y,z
x,-y,-z
-x,y,-z
-x,-y,-z
x,y,-z
-x,y,z
x,-y,z
1/2+x,1/2+y,1/2+z
1/2-x,1/2-y,1/2+z
1/2+x,1/2-y,1/2-z
1/2-x,1/2+y,1/2-z
1/2-x,1/2-y,1/2-z
1/2+x,1/2+y,1/2-z
1/2-x,1/2+y,1/2+z
1/2+x,1/2-y,1/2+z
loop_
_atom_site_type_symbol
_atom_site_label
_atom_site_fract_x
_atom_site_fract_y
_atom_site_fract_z
Si Si1 0.679274 0.790380 0.312471
Si Si2 0.418876 0.156418 0.813288
Si Si3 0.717486 0.671665 0.315106
Si Si4 0.324570 0.561883 0.181431
Si Si5 0.500000 0.234380 0.682123
Si Si6 0.428514 0.435888 0.318911
Si Si7 0.500000 0.934207 0.190299
Si Si8 0.000000 0.148155 0.324021
O O1 0.684477 0.795302 0.500000
O O2 0.633074 0.827088 0.259420
O O3 0.679986 0.722817 0.277190
O O4 0.728234 0.810094 0.228147
O O5 0.453608 0.207822 0.765739
O O6 0.451547 0.101568 0.762869
O O7 0.413271 0.152644 0.000000
O O8 0.713856 0.661273 0.500000
O O9 0.707365 0.615138 0.221210
O O10 0.301884 0.500000 0.207292
O O11 0.371586 0.566155 0.289459
O O12 0.339721 0.563981 0.000000
O O13 0.500000 0.218808 0.500000
O O14 0.500000 0.300626 0.704878
O O15 0.439754 0.424077 0.500000
O O16 0.443800 0.500000 0.284463
O O17 0.454554 0.391602 0.209498
O O18 0.500000 0.000000 0.240504
O O19 0.500000 0.933956 0.000000
O O20 0.000000 0.170102 0.500000
#
# Coordination Sequence:
#
# PCOD9522330 Si02
#       8
#    16  16  16  16   8  16   8   8
#     4  10  21  37  58  84 115 150 188 233 288 345
#     4  10  20  36  59  86 116 148 186 230 280 337
#     4  10  21  37  58  83 111 147 192 239 289 342
#     4  10  21  37  57  81 110 146 187 233 284 336
#     4  11  23  38  55  78 112 148 184 227 278 332
#     4  10  21  37  55  75 103 141 184 229 277 331
#     4   8  16  34  60  88 117 150 188 229 273 331
#     4  12  24  36  52  76 105 139 182 232 279 328
#
# _framework density 18.527473000000001
#
# number of rings (size 3 to 8) (size 9 to 14) (size 15 to 20)
#    0.000    1.923    0.000    4.385    2.154    4.615 
#    0.000    0.769    0.000   11.077    0.000    0.000 
#    0.000    0.000    0.000    0.000    0.000    0.000 
#
# Total GULP energy -289967.053024 kJ/mol
# GULP energy per Si atom -5576.289481 kJ/mol
# Density = 1.848530 g / cm^3
# Si number density = 18.527473 Si / 1000 Ang^3
#
#
#
# Elastic Constant Matrix: (Units=GPa)
#
#
# Indices 1 2 3 4 5 6 
#
# 1 60.3036 27.4456 1.3575 0.0000 0.0000 0.0000
# 2 27.4456 100.5777 15.4720 0.0000 0.0000 0.0000
# 3 1.3575 15.4720 42.2266 0.0000 0.0000 0.0000
# 4 0.0000 0.0000 0.0000 25.3558 0.0000 0.0000
# 5 0.0000 0.0000 0.0000 0.0000 41.4085 0.0000
# 6 0.0000 0.0000 0.0000 0.0000 0.0000 81.8975
#
#
#
# Elastic Compliance Matrix: (Units=1/GPa)
#
#
# Indices 1 2 3 4 5 6 
#
# 1 0.019008 -0.005397 0.001366 0.000000 0.000000 0.000000
# 2 -0.005397 0.012069 -0.004249 0.000000 0.000000 0.000000
# 3 0.001366 -0.004249 0.025194 0.000000 0.000000 0.000000
# 4 0.000000 0.000000 0.000000 0.039439 0.000000 0.000000
# 5 0.000000 0.000000 0.000000 0.000000 0.024150 0.000000
# 6 0.000000 0.000000 0.000000 0.000000 0.000000 0.012210
#
#
# Mechanical properties :
#
#
# Convention : Reuss Voigt Hill
#
# Bulk Modulus (GPa) = 25.18058 32.40647 28.79352
# Shear Modulus (GPa) = 30.88960 40.32124 35.60542
#
# Velocity S-wave (km/s) = 4.08761 4.67014 4.38855
# Velocity P-wave (km/s) = 5.99153 6.82710 6.42292
#
# Compressibility (1/GPa) = 0.03971315
#
# Stress axis : x y z
#
# Youngs Moduli (GPa) = 52.60835 82.85755 39.69122
#
# Poissons Ratio (x) = 0.44720 -0.05424
# Poissons Ratio (y) = 0.28394 0.16863
# Poissons Ratio (z) = -0.07189 0.35203
#
# Static dielectric constant tensor:
#      x y z
#    x 1.630710 0.000000 0.000000 
#    y 0.000000 1.647660 0.000000 
#    z 0.000000 0.000000 1.613890 
# 
# From -- ./inp_files/15089.got.cif
#   From: 2010.05.17/outbox.cif.g08.bks.cpg/sg71_8_cif.got.tgz:15089.got - 2010.06.03 16:22:01.
