data_PCOD9522586
_publ_section_title
;
Structure prediction by ZEFSAII (Michael W. Deem and Ramdas Pophale) SiO2 
 PCOD9522586
Probable space group: I M M M
;
_chemical_formula_sum "Si O2"
_cell_formula_units_Z 116
_cell_length_a 7.603554
_cell_length_b 23.556955
_cell_length_c 29.102131
_cell_angle_alpha 90.000000
_cell_angle_beta 90.000000
_cell_angle_gamma 90.000000
_cell_volume 5212.674158
_symmetry_space_group_name_H-M "I M M M"
_symmetry_group_IT_number 71
_symmetry_cell_setting 'orthorhombic'
loop_
_space_group_symop_operation_xyz
x,y,z
-x,-y,z
x,-y,-z
-x,y,-z
-x,-y,-z
x,y,-z
-x,y,z
x,-y,z
1/2+x,1/2+y,1/2+z
1/2-x,1/2-y,1/2+z
1/2+x,1/2-y,1/2-z
1/2-x,1/2+y,1/2-z
1/2-x,1/2-y,1/2-z
1/2+x,1/2+y,1/2-z
1/2-x,1/2+y,1/2+z
1/2+x,1/2-y,1/2+z
loop_
_atom_site_type_symbol
_atom_site_label
_atom_site_fract_x
_atom_site_fract_y
_atom_site_fract_z
Si Si1 0.711777 0.720746 0.550080
Si Si2 0.000000 0.000000 0.057273
Si Si3 0.796459 0.763994 0.648623
Si Si4 0.206106 0.593710 0.577394
Si Si5 0.209302 0.064724 0.550088
Si Si6 0.286500 0.858588 0.822999
Si Si7 0.284202 0.063744 0.259811
Si Si8 0.802364 0.611110 0.146744
O O1 0.763859 0.743229 0.500000
O O2 0.500000 0.722023 0.553415
O O3 0.786082 0.753344 0.593879
O O4 0.772529 0.655512 0.554513
O O5 0.844640 0.950725 0.058060
O O6 0.723653 0.706089 0.670885
O O7 0.703157 0.822659 0.659385
O O8 0.000000 0.770526 0.661860
O O9 0.253311 0.605423 0.631150
O O10 0.000000 0.576632 0.574298
O O11 0.276558 0.084966 0.500000
O O12 0.238133 0.101779 0.595201
O O13 0.000000 0.060867 0.546354
O O14 0.275539 0.000000 0.557459
O O15 0.500000 0.855119 0.822080
O O16 0.224989 0.890727 0.777775
O O17 0.500000 0.066448 0.260112
O O18 0.217103 0.077874 0.310844
O O19 0.235801 0.000000 0.246267
O O20 0.000000 0.589668 0.144989
#
# Coordination Sequence:
#
# PCOD9522586 Si02
#       8
#    16   4  16  16  16  16  16  16
#     4  10  20  38  62  87 116 148 190 249 308 364
#     4  12  22  36  57  88 124 158 206 260 301 362
#     4  10  21  37  58  82 112 153 198 245 295 353
#     4  10  21  37  59  86 119 162 202 251 310 361
#     4   9  19  37  60  82 110 151 192 234 289 351
#     4   8  17  35  59  84 110 147 200 245 294 358
#     4   9  18  33  56  86 117 151 189 235 294 357
#     4  11  22  35  55  85 120 154 192 238 290 348
#
# _framework density 22.253453
#
# number of rings (size 3 to 8) (size 9 to 14) (size 15 to 20)
#    0.000    2.345    0.690    3.103    0.966    3.310 
#    0.000    1.379    3.034    0.828    0.000    0.000 
#    0.000    0.000    0.000    0.000    0.000    0.000 
#
# Total GULP energy -323309.650554 kJ/mol
# GULP energy per Si atom -5574.304320 kJ/mol
# Density = 2.220280 g / cm^3
# Si number density = 22.253453 Si / 1000 Ang^3
#
#
#
# Elastic Constant Matrix: (Units=GPa)
#
#
# Indices 1 2 3 4 5 6 
#
# 1 74.0978 -3.3216 -0.7416 0.0000 0.0000 0.0000
# 2 -3.3216 67.5305 35.4603 0.0000 0.0000 0.0000
# 3 -0.7416 35.4603 118.6299 0.0000 0.0000 0.0000
# 4 0.0000 0.0000 0.0000 8.1153 0.0000 0.0000
# 5 0.0000 0.0000 0.0000 0.0000 22.2338 0.0000
# 6 0.0000 0.0000 0.0000 0.0000 0.0000 59.2244
#
#
#
# Elastic Compliance Matrix: (Units=1/GPa)
#
#
# Indices 1 2 3 4 5 6 
#
# 1 0.013527 0.000737 -0.000136 0.000000 0.000000 0.000000
# 2 0.000737 0.017605 -0.005258 0.000000 0.000000 0.000000
# 3 -0.000136 -0.005258 0.010000 0.000000 0.000000 0.000000
# 4 0.000000 0.000000 0.000000 0.123224 0.000000 0.000000
# 5 0.000000 0.000000 0.000000 0.000000 0.044977 0.000000
# 6 0.000000 0.000000 0.000000 0.000000 0.000000 0.016885
#
#
# Mechanical properties :
#
#
# Convention : Reuss Voigt Hill
#
# Bulk Modulus (GPa) = 31.42760 35.89471 33.66116
# Shear Modulus (GPa) = 20.31371 33.17209 26.74290
#
# Velocity S-wave (km/s) = 3.02459 3.86508 3.47038
# Velocity P-wave (km/s) = 5.13330 6.00695 5.58723
#
# Compressibility (1/GPa) = 0.03181916
#
# Stress axis : x y z
#
# Youngs Moduli (GPa) = 73.92434 56.80119 99.99609
#
# Poissons Ratio (x) = -0.04184 0.01356
# Poissons Ratio (y) = -0.05445 0.52577
# Poissons Ratio (z) = 0.01002 0.29865
#
# Static dielectric constant tensor:
#      x y z
#    x 1.821830 0.000000 0.000000 
#    y 0.000000 1.775180 0.000000 
#    z 0.000000 0.000000 1.860020 
# 
# From -- ./inp_files/63643.got.cif
#   From: 2010.05.17/outbox.cif.g08.bks.cpg/sg71_32_cif.got.tgz:63643.got - 2010.06.03 16:22:01.
