data_PCOD9522665
_publ_section_title
;
Structure prediction by ZEFSAII (Michael W. Deem and Ramdas Pophale) SiO2 
 PCOD9522665
Probable space group: I M M M
;
_chemical_formula_sum "Si O2"
_cell_formula_units_Z 88
_cell_length_a 11.975488
_cell_length_b 26.336249
_cell_length_c 14.773278
_cell_angle_alpha 90.000000
_cell_angle_beta 90.000000
_cell_angle_gamma 90.000000
_cell_volume 4659.335785
_symmetry_space_group_name_H-M "I M M M"
_symmetry_group_IT_number 71
_symmetry_cell_setting 'orthorhombic'
loop_
_space_group_symop_operation_xyz
x,y,z
-x,-y,z
x,-y,-z
-x,y,-z
-x,-y,-z
x,y,-z
-x,y,z
x,-y,z
1/2+x,1/2+y,1/2+z
1/2-x,1/2-y,1/2+z
1/2+x,1/2-y,1/2-z
1/2-x,1/2+y,1/2-z
1/2-x,1/2-y,1/2-z
1/2+x,1/2+y,1/2-z
1/2-x,1/2+y,1/2+z
1/2+x,1/2-y,1/2+z
loop_
_atom_site_type_symbol
_atom_site_label
_atom_site_fract_x
_atom_site_fract_y
_atom_site_fract_z
Si Si1 0.876394 0.438862 0.601349
Si Si2 0.632876 0.000000 0.607269
Si Si3 0.000000 0.060061 0.667194
Si Si4 0.800822 0.246616 0.389858
Si Si5 0.500000 0.673026 0.896479
Si Si6 0.246341 0.915638 0.274908
Si Si7 0.367771 0.810649 0.275489
O O1 0.856619 0.419988 0.500000
O O2 0.880416 0.500000 0.597939
O O3 0.785107 0.424928 0.673073
O O4 0.000000 0.421423 0.631520
O O5 0.689116 0.952420 0.656039
O O6 0.500000 0.000000 0.622529
O O7 0.654160 0.000000 0.500000
O O8 0.883571 0.069986 0.718244
O O9 0.000000 0.111863 0.606661
O O10 0.000000 0.000000 0.635355
O O11 0.797024 0.253014 0.500000
O O12 0.889374 0.201783 0.362737
O O13 0.682409 0.230907 0.345478
O O14 0.843829 0.293464 0.328495
O O15 0.500000 0.687370 0.000000
O O16 0.294883 0.860405 0.295904
O O17 0.500000 0.818082 0.287600
#
# Coordination Sequence:
#
# PCOD9522665 Si02
#       7
#    16   8   8  16   8  16  16
#     4   9  17  32  57  84 111 149 199 253 309 369
#     4  11  24  41  62  90 127 167 205 256 321 384
#     4  12  24  41  61  92 126 175 223 268 312 383
#     4  10  22  42  66  94 128 164 207 263 330 393
#     4  10  20  41  68  89 123 169 210 266 323 380
#     4  12  23  40  61  89 129 168 213 266 321 374
#     4  11  23  38  65  97 126 167 215 269 326 387
#
# _framework density 18.886811999999999
#
# number of rings (size 3 to 8) (size 9 to 14) (size 15 to 20)
#    0.000    1.364    4.545    2.182    0.000    2.727 
#    0.000    0.455    0.000    1.636    0.000    0.000 
#    0.000    0.000    0.000    0.000    0.000    0.000 
#
# Total GULP energy -244977.696120 kJ/mol
# GULP energy per Si atom -5567.674912 kJ/mol
# Density = 1.884382 g / cm^3
# Si number density = 18.886812 Si / 1000 Ang^3
#
#
#
# Elastic Constant Matrix: (Units=GPa)
#
#
# Indices 1 2 3 4 5 6 
#
# 1 139.5090 36.5576 53.8456 0.0000 0.0000 0.0000
# 2 36.5576 88.4544 16.6852 0.0001 0.0000 0.0000
# 3 53.8456 16.6852 80.3256 0.0002 0.0000 0.0000
# 4 0.0000 0.0001 0.0002 36.5195 0.0000 0.0000
# 5 0.0000 0.0000 0.0000 0.0000 17.4642 0.0000
# 6 0.0000 0.0000 0.0000 0.0000 0.0000 48.4496
#
#
#
# Elastic Compliance Matrix: (Units=1/GPa)
#
#
# Indices 1 2 3 4 5 6 
#
# 1 0.010434 -0.003115 -0.006347 0.000000 0.000000 0.000000
# 2 -0.003115 0.012696 -0.000549 0.000000 0.000000 0.000000
# 3 -0.006347 -0.000549 0.016818 0.000000 0.000000 0.000000
# 4 0.000000 0.000000 0.000000 0.027383 0.000000 0.000000
# 5 0.000000 0.000000 0.000000 0.000000 0.057260 0.000000
# 6 0.000000 0.000000 0.000000 0.000000 0.000000 0.020640
#
#
# Mechanical properties :
#
#
# Convention : Reuss Voigt Hill
#
# Bulk Modulus (GPa) = 50.18663 58.05177 54.11920
# Shear Modulus (GPa) = 29.08730 33.90003 31.49367
#
# Velocity S-wave (km/s) = 3.92865 4.24123 4.08793
# Velocity P-wave (km/s) = 6.87088 7.40185 7.14130
#
# Compressibility (1/GPa) = 0.01992563
#
# Stress axis : x y z
#
# Youngs Moduli (GPa) = 95.83909 78.76325 59.45899
#
# Poissons Ratio (x) = 0.24535 0.37741
# Poissons Ratio (y) = 0.29854 0.03265
# Poissons Ratio (z) = 0.60833 0.04325
#
# Static dielectric constant tensor:
#      x y z
#    x 1.624190 0.000000 0.000000 
#    y 0.000000 1.707890 0.000000 
#    z 0.000000 0.000000 1.641680 
# 
# From -- ./inp_files/33026.got.cif
#   From: 2010.05.17/outbox.cif.g08.bks.cpg/sg71_17_cif.got.tgz:33026.got - 2010.06.03 16:22:01.
