data_PCOD9522844
_publ_section_title
;
Structure prediction by ZEFSAII (Michael W. Deem and Ramdas Pophale) SiO2 
 PCOD9522844
Probable space group: I M M M
;
_chemical_formula_sum "Si O2"
_cell_formula_units_Z 66
_cell_length_a 15.620274
_cell_length_b 25.299616
_cell_length_c 7.533139
_cell_angle_alpha 90.000000
_cell_angle_beta 90.000000
_cell_angle_gamma 90.000000
_cell_volume 2976.998105
_symmetry_space_group_name_H-M "I M M M"
_symmetry_group_IT_number 71
_symmetry_cell_setting 'orthorhombic'
loop_
_space_group_symop_operation_xyz
x,y,z
-x,-y,z
x,-y,-z
-x,y,-z
-x,-y,-z
x,y,-z
-x,y,z
x,-y,z
1/2+x,1/2+y,1/2+z
1/2-x,1/2-y,1/2+z
1/2+x,1/2-y,1/2-z
1/2-x,1/2+y,1/2-z
1/2-x,1/2-y,1/2-z
1/2+x,1/2+y,1/2-z
1/2-x,1/2+y,1/2+z
1/2+x,1/2-y,1/2+z
loop_
_atom_site_type_symbol
_atom_site_label
_atom_site_fract_x
_atom_site_fract_y
_atom_site_fract_z
Si Si1 0.500000 0.234303 0.716948
Si Si2 0.000000 0.439460 0.288654
Si Si3 0.186141 0.112846 0.285440
Si Si4 0.500000 0.500000 0.000000
Si Si5 0.500000 0.644214 0.203279
Si Si6 0.850484 0.000000 0.798262
Si Si7 0.362833 0.849753 0.288637
O O1 0.500000 0.237978 0.500000
O O2 0.500000 0.292704 0.793080
O O3 0.418462 0.199711 0.775817
O O4 0.917942 0.403271 0.238822
O O5 0.000000 0.500000 0.218841
O O6 0.000000 0.442867 0.500000
O O7 0.182870 0.118081 0.500000
O O8 0.266413 0.146405 0.218644
O O9 0.090621 0.126110 0.217763
O O10 0.203358 0.052578 0.235328
O O11 0.425824 0.500000 0.155122
O O12 0.500000 0.622300 0.000000
O O13 0.882363 0.000000 0.000000
O O14 0.356811 0.843114 0.500000
#
# Coordination Sequence:
#
# PCOD9522844 Si02
#       7
#     8   8  16   2   8   8  16
#     4   9  19  38  58  84 120 155 213 269 307 370
#     4  10  21  35  54  84 122 153 188 256 314 360
#     4  10  21  40  62  88 127 167 209 260 312 375
#     4  12  22  44  60  82 128 174 206 264 312 362
#     4  10  22  37  60  86 117 162 210 251 316 379
#     4  12  25  39  65  95 126 170 216 260 320 377
#     4   9  20  38  61  85 115 163 206 247 313 379
#
# _framework density 22.169982999999998
#
# number of rings (size 3 to 8) (size 9 to 14) (size 15 to 20)
#    0.000    2.061    1.212    2.000    3.394    5.818 
#    0.000    0.000    0.000    0.000    0.000    0.000 
#    0.000    0.000    0.000    0.000    0.000    0.000 
#
# Total GULP energy -184030.543111 kJ/mol
# GULP energy per Si atom -5576.683125 kJ/mol
# Density = 2.211952 g / cm^3
# Si number density = 22.169983 Si / 1000 Ang^3
#
#
#
# Elastic Constant Matrix: (Units=GPa)
#
#
# Indices 1 2 3 4 5 6 
#
# 1 156.4334 29.4689 3.1998 0.0000 0.0000 0.0000
# 2 29.4689 72.7551 -32.7196 0.0000 0.0003 0.0000
# 3 3.1998 -32.7196 83.6408 -0.0005 -0.0012 0.0000
# 4 0.0000 0.0000 -0.0005 20.9077 -0.0003 0.0000
# 5 0.0000 0.0003 -0.0012 -0.0003 -40.4286 -0.0001
# 6 0.0000 0.0000 0.0000 0.0000 -0.0001 10.2804
#
#
#
# Elastic Compliance Matrix: (Units=1/GPa)
#
#
# Indices 1 2 3 4 5 6 
#
# 1 0.007114 -0.003645 -0.001698 0.000000 0.000000 0.000000
# 2 -0.003645 0.018547 0.007395 0.000000 0.000000 0.000000
# 3 -0.001698 0.007395 0.014914 0.000000 0.000000 0.000000
# 4 0.000000 0.000000 0.000000 0.047829 0.000000 0.000000
# 5 0.000000 0.000000 0.000000 0.000000 -0.024735 0.000000
# 6 0.000000 0.000000 0.000000 0.000000 0.000000 0.097272
#
#
# Mechanical properties :
#
#
# Convention : Reuss Voigt Hill
#
# Bulk Modulus (GPa) = 22.38261 34.74749 28.56505
# Shear Modulus (GPa) = 29.11545 19.01058 24.06302
#
# Velocity S-wave (km/s) = 3.62786 2.93147 3.29810
# Velocity P-wave (km/s) = 5.25987 5.21203 5.23601
#
# Compressibility (1/GPa) = 0.04467755
#
# Stress axis : x y z
#
# Youngs Moduli (GPa) = 140.57001 53.91775 67.05270
#
# Poissons Ratio (x) = 0.19654 0.11386
# Poissons Ratio (y) = 0.51239 -0.49584
# Poissons Ratio (z) = 0.23870 -0.39871
#
# Static dielectric constant tensor:
#      x y z
#    x 1.813020 0.000000 0.000000 
#    y 0.000000 1.808110 0.000000 
#    z 0.000000 0.000000 1.807620 
# 
# From -- ./inp_files/5959.got.cif
#   From: 2010.05.17/outbox.cif.g08.bks.cpg/sg71_3_cif.got.tgz:5959.got - 2010.06.03 16:22:01.
