data_PCOD9522127
_publ_section_title
;
Structure prediction by ZEFSAII (Michael W. Deem and Ramdas Pophale) SiO2 
 PCOD9522127
Probable space group: I M M M
;
_chemical_formula_sum "Si O2"
_cell_formula_units_Z 96
_cell_length_a 22.363102
_cell_length_b 20.869732
_cell_length_c 12.230229
_cell_angle_alpha 90.000000
_cell_angle_beta 90.000000
_cell_angle_gamma 90.000000
_cell_volume 5707.993970
_symmetry_space_group_name_H-M "I M M M"
_symmetry_group_IT_number 71
_symmetry_cell_setting 'orthorhombic'
loop_
_space_group_symop_operation_xyz
x,y,z
-x,-y,z
x,-y,-z
-x,y,-z
-x,-y,-z
x,y,-z
-x,y,z
x,-y,z
1/2+x,1/2+y,1/2+z
1/2-x,1/2-y,1/2+z
1/2+x,1/2-y,1/2-z
1/2-x,1/2+y,1/2-z
1/2-x,1/2-y,1/2-z
1/2+x,1/2+y,1/2-z
1/2-x,1/2+y,1/2+z
1/2+x,1/2-y,1/2+z
loop_
_atom_site_type_symbol
_atom_site_label
_atom_site_fract_x
_atom_site_fract_y
_atom_site_fract_z
Si Si1 0.816474 0.786642 0.626192
Si Si2 0.612334 0.114939 0.731673
Si Si3 0.684982 0.421882 0.500000
Si Si4 0.759529 0.649915 0.687509
Si Si5 0.928687 0.170752 0.000000
Si Si6 0.567779 0.924063 0.500000
Si Si7 0.429884 0.000000 0.880042
Si Si8 0.430731 0.259893 0.266058
O O1 0.816969 0.805950 0.500000
O O2 0.783985 0.716672 0.634436
O O3 0.779593 0.831259 0.707836
O O4 0.882758 0.785054 0.678372
O O5 0.680788 0.117810 0.767428
O O6 0.602771 0.095123 0.607482
O O7 0.580904 0.183915 0.738635
O O8 0.584511 0.062732 0.811206
O O9 0.682292 0.500000 0.500000
O O10 0.721842 0.393284 0.396303
O O11 0.619152 0.387688 0.500000
O O12 0.918173 0.212237 0.888601
O O13 0.000000 0.153070 0.000000
O O14 0.500000 0.896082 0.500000
O O15 0.561714 0.000000 0.500000
O O16 0.500000 0.000000 0.893889
O O17 0.400218 0.000000 0.000000
O O18 0.500000 0.274136 0.241332
#
# Coordination Sequence:
#
# PCOD9522127 Si02
#       8
#    16  16   8  16   8   8   8  16
#     4  10  20  37  60  83 117 153 189 242 291 344
#     4  11  23  35  55  81 113 158 197 243 290 343
#     4  12  24  40  67  91 122 158 197 245 301 372
#     4  10  23  37  57  87 118 151 196 236 294 354
#     4  10  21  41  63  92 122 145 190 257 323 362
#     4  11  21  35  54  74 105 148 198 243 278 326
#     4  11  24  39  53  73 115 164 203 242 285 337
#     4  10  20  35  59  86 115 148 192 247 298 354
#
# _framework density 16.818518999999998
#
# number of rings (size 3 to 8) (size 9 to 14) (size 15 to 20)
#    0.000    1.500    3.333    2.000    3.500    1.833 
#    0.000    0.000    0.000    0.000    0.000    0.000 
#    0.000    2.667    0.000    0.000    0.000    0.000 
#
# Total GULP energy -267671.040553 kJ/mol
# GULP energy per Si atom -5576.480012 kJ/mol
# Density = 1.678024 g / cm^3
# Si number density = 16.818519 Si / 1000 Ang^3
#
#
#
# Elastic Constant Matrix: (Units=GPa)
#
#
# Indices 1 2 3 4 5 6 
#
# 1 122.2370 59.3545 70.1458 0.0000 0.0000 0.0000
# 2 59.3545 88.6265 54.3910 0.0000 0.0000 0.0000
# 3 70.1458 54.3910 163.3243 0.0000 0.0000 0.0000
# 4 0.0000 0.0000 0.0000 15.8643 0.0000 0.0000
# 5 0.0000 0.0000 0.0000 0.0000 15.7725 0.0000
# 6 0.0000 0.0000 0.0000 0.0000 0.0000 -22.5503
#
#
#
# Elastic Compliance Matrix: (Units=1/GPa)
#
#
# Indices 1 2 3 4 5 6 
#
# 1 0.013562 -0.006923 -0.003519 0.000000 0.000000 0.000000
# 2 -0.006923 0.017716 -0.002926 0.000000 0.000000 0.000000
# 3 -0.003519 -0.002926 0.008609 0.000000 0.000000 0.000000
# 4 0.000000 0.000000 0.000000 0.063035 0.000000 0.000000
# 5 0.000000 0.000000 0.000000 0.000000 0.063401 0.000000
# 6 0.000000 0.000000 0.000000 0.000000 0.000000 -0.044345
#
#
# Mechanical properties :
#
#
# Convention : Reuss Voigt Hill
#
# Bulk Modulus (GPa) = 76.04938 82.44116 79.24527
# Shear Modulus (GPa) = 32.65905 14.50374 23.58139
#
# Velocity S-wave (km/s) = 4.41142 2.93979 3.74854
# Velocity P-wave (km/s) = 8.44176 7.78766 8.12130
#
# Compressibility (1/GPa) = 0.01314935
#
# Stress axis : x y z
#
# Youngs Moduli (GPa) = 73.73656 56.44739 116.15995
#
# Poissons Ratio (x) = 0.39077 0.40879
# Poissons Ratio (y) = 0.51046 0.33994
# Poissons Ratio (z) = 0.25949 0.16519
#
# Static dielectric constant tensor:
#      x y z
#    x 1.369600 0.000000 0.000000 
#    y 0.000000 1.537200 0.000000 
#    z 0.000000 0.000000 1.559550 
# 
# From -- ./inp_files/26053.got.cif
#   From: 2010.05.17/outbox.cif.g08.bks.cpg/sg71_14_cif.got.tgz:26053.got - 2010.06.03 16:22:01.
