data_PCOD9522155
_publ_section_title
;
Structure prediction by ZEFSAII (Michael W. Deem and Ramdas Pophale) SiO2 
 PCOD9522155
Probable space group: I M M M
;
_chemical_formula_sum "Si O2"
_cell_formula_units_Z 64
_cell_length_a 17.446927
_cell_length_b 14.697515
_cell_length_c 10.898201
_cell_angle_alpha 90.000000
_cell_angle_beta 90.000000
_cell_angle_gamma 90.000000
_cell_volume 2794.587226
_symmetry_space_group_name_H-M "I M M M"
_symmetry_group_IT_number 71
_symmetry_cell_setting 'orthorhombic'
loop_
_space_group_symop_operation_xyz
x,y,z
-x,-y,z
x,-y,-z
-x,y,-z
-x,-y,-z
x,y,-z
-x,y,z
x,-y,z
1/2+x,1/2+y,1/2+z
1/2-x,1/2-y,1/2+z
1/2+x,1/2-y,1/2-z
1/2-x,1/2+y,1/2-z
1/2-x,1/2-y,1/2-z
1/2+x,1/2+y,1/2-z
1/2-x,1/2+y,1/2+z
1/2+x,1/2-y,1/2+z
loop_
_atom_site_type_symbol
_atom_site_label
_atom_site_fract_x
_atom_site_fract_y
_atom_site_fract_z
Si Si1 0.410590 0.628467 0.500000
Si Si2 0.500000 0.394946 0.144150
Si Si3 0.087443 0.653521 0.000000
Si Si4 0.825217 0.391431 0.250301
Si Si5 0.155773 0.102435 0.260895
Si Si6 0.410795 0.111492 0.000000
O O1 0.500000 0.599922 0.500000
O O2 0.411449 0.737395 0.500000
O O3 0.365329 0.596814 0.381380
O O4 0.500000 0.500000 0.195164
O O5 0.579684 0.350991 0.185125
O O6 0.500000 0.400514 0.000000
O O7 0.127504 0.623390 0.873977
O O8 0.000000 0.621004 0.000000
O O9 0.815688 0.500000 0.268066
O O10 0.739163 0.354769 0.228203
O O11 0.866929 0.359439 0.375191
O O12 0.159376 0.000000 0.316412
O O13 0.500000 0.141472 0.000000
O O14 0.412146 0.000000 0.000000
#
# Coordination Sequence:
#
# PCOD9522155 Si02
#       6
#     8   8   8  16  16   8
#     4  11  22  38  58  82 121 158 200 234 282 345
#     4   9  18  31  53  85 117 146 179 230 293 348
#     4  11  25  40  58  83 121 162 199 241 289 347
#     4  10  21  37  60  88 114 147 195 248 296 346
#     4  10  20  35  60  88 115 148 191 241 293 349
#     4   9  17  32  56  81 107 141 186 242 295 337
#
# _framework density 22.901415
#
# number of rings (size 3 to 8) (size 9 to 14) (size 15 to 20)
#    0.000    2.000    1.250    2.250    1.750    5.500 
#    0.000    0.000    2.750    0.000    0.000    0.000 
#    0.000    0.000    0.000    0.000    0.000    0.000 
#
# Total GULP energy -178754.454665 kJ/mol
# GULP energy per Si atom -5586.076708 kJ/mol
# Density = 2.284929 g / cm^3
# Si number density = 22.901415 Si / 1000 Ang^3
#
#
#
# Elastic Constant Matrix: (Units=GPa)
#
#
# Indices 1 2 3 4 5 6 
#
# 1 265.9164 3.7838 100.8062 0.0000 0.0000 0.0000
# 2 3.7838 55.7097 -17.3699 0.0000 0.0000 0.0000
# 3 100.8062 -17.3699 151.1479 0.0000 0.0000 0.0000
# 4 0.0000 0.0000 0.0000 -197.0610 0.0000 0.0000
# 5 0.0000 0.0000 0.0000 0.0000 26.5596 0.0000
# 6 0.0000 0.0000 0.0000 0.0000 0.0000 -3.9511
#
#
#
# Elastic Compliance Matrix: (Units=1/GPa)
#
#
# Indices 1 2 3 4 5 6 
#
# 1 0.005147 -0.001473 -0.003602 0.000000 0.000000 0.000000
# 2 -0.001473 0.019039 0.003170 0.000000 0.000000 0.000000
# 3 -0.003602 0.003170 0.009383 0.000000 0.000000 0.000000
# 4 0.000000 0.000000 0.000000 -0.005075 0.000000 0.000000
# 5 0.000000 0.000000 0.000000 0.000000 0.037651 0.000000
# 6 0.000000 0.000000 0.000000 0.000000 0.000000 -0.253096
#
#
# Mechanical properties :
#
#
# Convention : Reuss Voigt Hill
#
# Bulk Modulus (GPa) = 33.60305 71.91269 52.75787
# Shear Modulus (GPa) = -28.86468 -9.18690 -19.02579
#
# Velocity S-wave (km/s) = -3.55405 -2.00505 -2.88543
# Velocity P-wave (km/s) = 1.46181 5.10968 3.46208
#
# Compressibility (1/GPa) = 0.02975920
#
# Stress axis : x y z
#
# Youngs Moduli (GPa) = 194.28766 52.52477 106.57986
#
# Poissons Ratio (x) = 0.07735 0.38390
# Poissons Ratio (y) = 0.28612 -0.33787
# Poissons Ratio (z) = 0.69982 -0.16651
#
# Static dielectric constant tensor:
#      x y z
#    x 1.922020 0.000000 0.000000 
#    y 0.000000 1.869850 0.000000 
#    z 0.000000 0.000000 1.703180 
# 
# From -- ./inp_files/21314.got.cif
#   From: 2010.05.17/outbox.cif.g08.bks.cpg/sg71_11_cif.got.tgz:21314.got - 2010.06.03 16:22:01.
