data_PCOD9522329
_publ_section_title
;
Structure prediction by ZEFSAII (Michael W. Deem and Ramdas Pophale) SiO2 
 PCOD9522329
Probable space group: I M M M
;
_chemical_formula_sum "Si O2"
_cell_formula_units_Z 56
_cell_length_a 28.108696
_cell_length_b 12.967337
_cell_length_c 8.948448
_cell_angle_alpha 90.000000
_cell_angle_beta 90.000000
_cell_angle_gamma 90.000000
_cell_volume 3261.663960
_symmetry_space_group_name_H-M "I M M M"
_symmetry_group_IT_number 71
_symmetry_cell_setting 'orthorhombic'
loop_
_space_group_symop_operation_xyz
x,y,z
-x,-y,z
x,-y,-z
-x,y,-z
-x,-y,-z
x,y,-z
-x,y,z
x,-y,z
1/2+x,1/2+y,1/2+z
1/2-x,1/2-y,1/2+z
1/2+x,1/2-y,1/2-z
1/2-x,1/2+y,1/2-z
1/2-x,1/2-y,1/2-z
1/2+x,1/2+y,1/2-z
1/2-x,1/2+y,1/2+z
1/2+x,1/2-y,1/2+z
loop_
_atom_site_type_symbol
_atom_site_label
_atom_site_fract_x
_atom_site_fract_y
_atom_site_fract_z
Si Si1 0.164137 0.000000 0.177512
Si Si2 0.733230 0.000000 0.677775
Si Si3 0.402322 0.696839 0.321476
Si Si4 0.000000 0.122145 0.320961
Si Si5 0.847230 0.615643 0.675045
O O1 0.212971 0.000000 0.267738
O O2 0.132576 0.899462 0.210612
O O3 0.175011 0.000000 0.000000
O O4 0.703902 0.902968 0.746262
O O5 0.729691 0.000000 0.500000
O O6 0.407650 0.704796 0.500000
O O7 0.452886 0.672960 0.247107
O O8 0.378265 0.798941 0.255400
O O9 0.000000 0.132164 0.500000
O O10 0.000000 0.000000 0.283659
O O11 0.841078 0.639552 0.500000
O O12 0.869284 0.500000 0.685921
#
# Coordination Sequence:
#
# PCOD9522329 Si02
#       5
#     8   8  16   8  16
#     4  10  22  37  55  86 120 155 192 238 295 342
#     4  10  20  36  59  86 115 154 199 238 283 344
#     4  11  22  38  62  87 117 153 195 242 288 344
#     4  11  23  39  60  87 120 155 191 235 290 347
#     4   9  20  39  60  83 117 155 191 240 292 342
#
# _framework density 17.169149999999998
#
# number of rings (size 3 to 8) (size 9 to 14) (size 15 to 20)
#    0.857    1.000    1.429    3.000    0.000    4.000 
#    0.000    0.714    0.000    4.286    0.000    0.000 
#    0.000    0.000    0.000    0.000    0.000    0.000 
#
# Total GULP energy -156158.794997 kJ/mol
# GULP energy per Si atom -5577.099821 kJ/mol
# Density = 1.713007 g / cm^3
# Si number density = 17.169150 Si / 1000 Ang^3
#
#
#
# Elastic Constant Matrix: (Units=GPa)
#
#
# Indices 1 2 3 4 5 6 
#
# 1 161.4175 69.4739 93.6308 0.0000 0.0000 0.0000
# 2 69.4739 93.6775 69.9331 0.0000 0.0000 0.0000
# 3 93.6308 69.9331 112.2491 0.0000 0.0000 0.0000
# 4 0.0000 0.0000 0.0000 24.0428 0.0000 0.0000
# 5 0.0000 0.0000 0.0000 0.0000 29.0701 0.0000
# 6 0.0000 0.0000 0.0000 0.0000 0.0000 1.5597
#
#
#
# Elastic Compliance Matrix: (Units=1/GPa)
#
#
# Indices 1 2 3 4 5 6 
#
# 1 0.012370 -0.002750 -0.008605 0.000000 0.000000 0.000000
# 2 -0.002750 0.020568 -0.010520 0.000000 0.000000 0.000000
# 3 -0.008605 -0.010520 0.022641 0.000000 0.000000 0.000000
# 4 0.000000 0.000000 0.000000 0.041593 0.000000 0.000000
# 5 0.000000 0.000000 0.000000 0.000000 0.034400 0.000000
# 6 0.000000 0.000000 0.000000 0.000000 0.000000 0.641152
#
#
# Mechanical properties :
#
#
# Convention : Reuss Voigt Hill
#
# Bulk Modulus (GPa) = 84.54346 92.60220 88.57283
# Shear Modulus (GPa) = 6.09446 19.88826 12.99136
#
# Velocity S-wave (km/s) = 1.88610 3.40718 2.75375
# Velocity P-wave (km/s) = 7.35470 8.33851 7.86201
#
# Compressibility (1/GPa) = 0.01182824
#
# Stress axis : x y z
#
# Youngs Moduli (GPa) = 80.84013 48.61840 44.16814
#
# Poissons Ratio (x) = 0.13371 0.38006
# Poissons Ratio (y) = 0.22233 0.46467
# Poissons Ratio (z) = 0.69562 0.51148
#
# Static dielectric constant tensor:
#      x y z
#    x 1.545040 0.000000 0.000000 
#    y 0.000000 1.573450 0.000000 
#    z 0.000000 0.000000 1.568620 
# 
# From -- ./inp_files/14023.got.cif
#   From: 2010.05.17/outbox.cif.g08.bks.cpg/sg71_8_cif.got.tgz:14023.got - 2010.06.03 16:22:01.
