data_PCOD9522427
_publ_section_title
;
Structure prediction by ZEFSAII (Michael W. Deem and Ramdas Pophale) SiO2 
 PCOD9522427
Probable space group: I M M M
;
_chemical_formula_sum "Si O2"
_cell_formula_units_Z 88
_cell_length_a 18.697208
_cell_length_b 22.452101
_cell_length_c 11.746922
_cell_angle_alpha 90.000000
_cell_angle_beta 90.000000
_cell_angle_gamma 90.000000
_cell_volume 4931.259210
_symmetry_space_group_name_H-M "I M M M"
_symmetry_group_IT_number 71
_symmetry_cell_setting 'orthorhombic'
loop_
_space_group_symop_operation_xyz
x,y,z
-x,-y,z
x,-y,-z
-x,y,-z
-x,-y,-z
x,y,-z
-x,y,z
x,-y,z
1/2+x,1/2+y,1/2+z
1/2-x,1/2-y,1/2+z
1/2+x,1/2-y,1/2-z
1/2-x,1/2+y,1/2-z
1/2-x,1/2-y,1/2-z
1/2+x,1/2+y,1/2-z
1/2-x,1/2+y,1/2+z
1/2+x,1/2-y,1/2+z
loop_
_atom_site_type_symbol
_atom_site_label
_atom_site_fract_x
_atom_site_fract_y
_atom_site_fract_z
Si Si1 0.084134 0.680127 0.000000
Si Si2 0.187057 0.433061 0.000000
Si Si3 0.170163 0.617137 0.364086
Si Si4 0.790208 0.069224 0.719427
Si Si5 0.918278 0.500000 0.638419
Si Si6 0.415304 0.223711 0.749679
Si Si7 0.583950 0.350849 0.864700
O O1 0.098480 0.717073 0.115009
O O2 0.130202 0.619912 0.000000
O O3 0.000000 0.664927 0.000000
O O4 0.237869 0.427666 0.109985
O O5 0.155369 0.500000 0.000000
O O6 0.169159 0.620181 0.500000
O O7 0.249253 0.605677 0.316948
O O8 0.123945 0.559145 0.326601
O O9 0.132817 0.674895 0.312252
O O10 0.864596 0.098779 0.684567
O O11 0.797997 0.000000 0.751363
O O12 0.919701 0.500000 0.500000
O O13 0.000000 0.500000 0.678843
O O14 0.500000 0.210893 0.769469
O O15 0.401148 0.288755 0.800521
O O16 0.500000 0.364860 0.849577
O O17 0.596924 0.343631 0.000000
#
# Coordination Sequence:
#
# PCOD9522427 Si02
#       7
#     8   8  16  16   8  16  16
#     4  10  20  37  58  85 122 162 198 231 277 351
#     4  10  20  37  57  82 116 156 194 237 291 341
#     4  11  21  35  56  85 119 158 198 234 284 340
#     4  11  22  39  61  85 118 153 189 244 296 349
#     4   9  18  32  52  79 114 155 196 233 269 324
#     4  10  21  38  59  85 120 156 194 242 290 346
#     4  10  22  41  64  89 113 144 191 247 305 358
#
# _framework density 17.84534
#
# number of rings (size 3 to 8) (size 9 to 14) (size 15 to 20)
#    0.000    1.727    3.636    1.091    0.000    3.091 
#    1.636    0.909    0.000    0.000    0.000    1.273 
#    0.000    0.000    0.000    0.000    0.000    0.000 
#
# Total GULP energy -245709.457858 kJ/mol
# GULP energy per Si atom -5584.305860 kJ/mol
# Density = 1.780472 g / cm^3
# Si number density = 17.845340 Si / 1000 Ang^3
#
#
#
# Elastic Constant Matrix: (Units=GPa)
#
#
# Indices 1 2 3 4 5 6 
#
# 1 70.3474 48.9858 41.5426 0.0000 0.0000 0.0000
# 2 48.9858 70.7030 35.3153 0.0000 0.0000 0.0000
# 3 41.5426 35.3153 86.5544 0.0000 0.0000 0.0000
# 4 0.0000 0.0000 0.0000 17.0378 0.0000 0.0000
# 5 0.0000 0.0000 0.0000 0.0000 25.7933 0.0000
# 6 0.0000 0.0000 0.0000 0.0000 0.0000 33.3474
#
#
#
# Elastic Compliance Matrix: (Units=1/GPa)
#
#
# Indices 1 2 3 4 5 6 
#
# 1 0.031078 -0.017686 -0.007700 0.000000 0.000000 0.000000
# 2 -0.017686 0.027829 -0.002866 0.000000 0.000000 0.000000
# 3 -0.007700 -0.002866 0.016418 0.000000 0.000000 0.000000
# 4 0.000000 0.000000 0.000000 0.058693 0.000000 0.000000
# 5 0.000000 0.000000 0.000000 0.000000 0.038770 0.000000
# 6 0.000000 0.000000 0.000000 0.000000 0.000000 0.029987
#
#
# Mechanical properties :
#
#
# Convention : Reuss Voigt Hill
#
# Bulk Modulus (GPa) = 53.13145 53.25468 53.19306
# Shear Modulus (GPa) = 18.82870 22.01976 20.42423
#
# Velocity S-wave (km/s) = 3.25176 3.51653 3.38674
# Velocity P-wave (km/s) = 6.62846 6.81140 6.72055
#
# Compressibility (1/GPa) = 0.01882125
#
# Stress axis : x y z
#
# Youngs Moduli (GPa) = 32.17750 35.93427 60.90705
#
# Poissons Ratio (x) = 0.63552 0.46898
# Poissons Ratio (y) = 0.56908 0.17456
# Poissons Ratio (z) = 0.24777 0.10299
#
# Static dielectric constant tensor:
#      x y z
#    x 1.598910 0.000000 0.000000 
#    y 0.000000 1.578040 0.000000 
#    z 0.000000 0.000000 1.612400 
# 
# From -- ./inp_files/24006.got.cif
#   From: 2010.05.17/outbox.cif.g08.bks.cpg/sg71_13_cif.got.tgz:24006.got - 2010.06.03 16:22:01.
