data_PCOD9522022
_publ_section_title
;
Structure prediction by ZEFSAII (Michael W. Deem and Ramdas Pophale) SiO2 
 PCOD9522022
Probable space group: I M M M
;
_chemical_formula_sum "Si O2"
_cell_formula_units_Z 104
_cell_length_a 22.402310
_cell_length_b 7.599193
_cell_length_c 27.597660
_cell_angle_alpha 90.000000
_cell_angle_beta 90.000000
_cell_angle_gamma 90.000000
_cell_volume 4698.211214
_symmetry_space_group_name_H-M "I M M M"
_symmetry_group_IT_number 71
_symmetry_cell_setting 'orthorhombic'
loop_
_space_group_symop_operation_xyz
x,y,z
-x,-y,z
x,-y,-z
-x,y,-z
-x,-y,-z
x,y,-z
-x,y,z
x,-y,z
1/2+x,1/2+y,1/2+z
1/2-x,1/2-y,1/2+z
1/2+x,1/2-y,1/2-z
1/2-x,1/2+y,1/2-z
1/2-x,1/2-y,1/2-z
1/2+x,1/2+y,1/2-z
1/2-x,1/2+y,1/2+z
1/2+x,1/2-y,1/2+z
loop_
_atom_site_type_symbol
_atom_site_label
_atom_site_fract_x
_atom_site_fract_y
_atom_site_fract_z
Si Si1 0.892803 0.702655 0.375330
Si Si2 0.810698 0.212418 0.779368
Si Si3 0.067652 0.287842 0.054482
Si Si4 0.000000 0.212378 0.556034
Si Si5 0.208230 0.715547 0.554241
Si Si6 0.818486 0.792680 0.112119
Si Si7 0.067284 0.795963 0.730209
O O1 0.881069 0.500000 0.361998
O O2 0.834753 0.775672 0.402352
O O3 0.917145 0.790766 0.326904
O O4 0.943079 0.714364 0.416198
O O5 0.750000 0.250000 0.750000
O O6 0.806510 0.279961 0.834477
O O7 0.873322 0.278852 0.756213
O O8 0.815235 0.000000 0.780195
O O9 0.067363 0.500000 0.053838
O O10 0.114385 0.230347 0.094408
O O11 0.000000 0.228765 0.063918
O O12 0.084625 0.228088 0.000000
O O13 0.000000 0.261390 0.500000
O O14 0.000000 0.000000 0.559744
O O15 0.192494 0.775691 0.500000
O O16 0.204332 0.500000 0.553023
O O17 0.274121 0.772647 0.570296
O O18 0.806020 0.000000 0.115631
O O19 0.000000 0.719819 0.737570
O O20 0.063405 0.000000 0.745145
#
# Coordination Sequence:
#
# PCOD9522022 Si02
#       7
#    16  16  16   8  16  16  16
#     4  11  21  35  57  82 108 143 191 239 280 326
#     4  10  22  39  59  85 115 151 193 240 294 347
#     4   9  19  36  56  80 114 152 186 225 280 343
#     4  11  23  37  53  77 113 151 185 225 276 333
#     4   9  18  32  51  78 112 145 177 224 283 332
#     4  10  20  35  57  84 112 144 187 235 282 335
#     4  10  21  38  58  79 111 152 190 234 295 355
#
# _framework density 22.136084
#
# number of rings (size 3 to 8) (size 9 to 14) (size 15 to 20)
#    0.000    2.077    0.769    3.000    0.000    5.538 
#    0.000    3.846    0.000    3.692    0.000    0.000 
#    0.000    0.000    0.000    0.000    0.000    0.000 
#
# Total GULP energy -290306.849575 kJ/mol
# GULP energy per Si atom -5582.824030 kJ/mol
# Density = 2.208570 g / cm^3
# Si number density = 22.136084 Si / 1000 Ang^3
#
#
#
# Elastic Constant Matrix: (Units=GPa)
#
#
# Indices 1 2 3 4 5 6 
#
# 1 129.8601 -3.6919 41.6707 0.0000 0.0000 0.0000
# 2 -3.6919 47.1627 -1.9676 0.0000 0.0000 0.0000
# 3 41.6707 -1.9676 66.3759 0.0000 0.0000 0.0000
# 4 0.0000 0.0000 0.0000 2.7316 0.0000 0.0000
# 5 0.0000 0.0000 0.0000 0.0000 45.8088 0.0000
# 6 0.0000 0.0000 0.0000 0.0000 0.0000 27.8416
#
#
#
# Elastic Compliance Matrix: (Units=1/GPa)
#
#
# Indices 1 2 3 4 5 6 
#
# 1 0.009655 0.000504 -0.006047 0.000000 0.000000 0.000000
# 2 0.000504 0.021256 0.000314 0.000000 0.000000 0.000000
# 3 -0.006047 0.000314 0.018871 0.000000 0.000000 0.000000
# 4 0.000000 0.000000 0.000000 0.366087 0.000000 0.000000
# 5 0.000000 0.000000 0.000000 0.000000 0.021830 0.000000
# 6 0.000000 0.000000 0.000000 0.000000 0.000000 0.035917
#
#
# Mechanical properties :
#
#
# Convention : Reuss Voigt Hill
#
# Bulk Modulus (GPa) = 25.42988 35.04677 30.23833
# Shear Modulus (GPa) = 10.05666 29.10224 19.57945
#
# Velocity S-wave (km/s) = 2.13377 3.62981 2.97729
# Velocity P-wave (km/s) = 4.19327 5.78223 5.05063
#
# Compressibility (1/GPa) = 0.03932382
#
# Stress axis : x y z
#
# Youngs Moduli (GPa) = 103.57121 47.04618 52.99119
#
# Poissons Ratio (x) = -0.02369 0.32042
# Poissons Ratio (y) = -0.05215 -0.01664
# Poissons Ratio (z) = 0.62625 -0.01477
#
# Static dielectric constant tensor:
#      x y z
#    x 1.875910 0.000000 0.000000 
#    y 0.000000 1.869890 0.000000 
#    z 0.000000 0.000000 1.791540 
# 
# From -- ./inp_files/66463.got.cif
#   From: 2010.05.17/outbox.cif.g08.bks.cpg/sg71_34_cif.got.tgz:66463.got - 2010.06.03 16:22:01.
