data_PCOD9522899
_publ_section_title
;
Structure prediction by ZEFSAII (Michael W. Deem and Ramdas Pophale) SiO2 
 PCOD9522899
Probable space group: I M M M
;
_chemical_formula_sum "Si O2"
_cell_formula_units_Z 96
_cell_length_a 7.646345
_cell_length_b 29.647963
_cell_length_c 19.499725
_cell_angle_alpha 90.000000
_cell_angle_beta 90.000000
_cell_angle_gamma 90.000000
_cell_volume 4420.559454
_symmetry_space_group_name_H-M "I M M M"
_symmetry_group_IT_number 71
_symmetry_cell_setting 'orthorhombic'
loop_
_space_group_symop_operation_xyz
x,y,z
-x,-y,z
x,-y,-z
-x,y,-z
-x,-y,-z
x,y,-z
-x,y,z
x,-y,z
1/2+x,1/2+y,1/2+z
1/2-x,1/2-y,1/2+z
1/2+x,1/2-y,1/2-z
1/2-x,1/2+y,1/2-z
1/2-x,1/2-y,1/2-z
1/2+x,1/2+y,1/2-z
1/2-x,1/2+y,1/2+z
1/2+x,1/2-y,1/2+z
loop_
_atom_site_type_symbol
_atom_site_label
_atom_site_fract_x
_atom_site_fract_y
_atom_site_fract_z
Si Si1 0.800121 0.644456 0.426325
Si Si2 0.208201 0.780144 0.577212
Si Si3 0.692457 0.703894 0.312847
Si Si4 0.211883 0.050047 0.725640
Si Si5 0.284840 0.350803 0.182837
Si Si6 0.289472 0.549300 0.387854
O O1 0.736689 0.661183 0.500000
O O2 0.688415 0.661171 0.363293
O O3 0.795661 0.590932 0.424983
O O4 0.000000 0.660156 0.417269
O O5 0.278163 0.771840 0.500000
O O6 0.237923 0.741826 0.635167
O O7 0.268446 0.826811 0.612265
O O8 0.000000 0.783100 0.570748
O O9 0.500000 0.719461 0.291752
O O10 0.776555 0.682772 0.244491
O O11 0.272819 0.097358 0.692807
O O12 0.251084 0.052509 0.806783
O O13 0.000000 0.049660 0.719503
O O14 0.272451 0.000000 0.701353
O O15 0.500000 0.351226 0.186879
O O16 0.500000 0.552602 0.395357
O O17 0.235481 0.500000 0.412095
#
# Coordination Sequence:
#
# PCOD9522899 Si02
#       6
#    16  16  16  16  16  16
#     4  11  23  35  47  67 100 139 173 210 262 316
#     4  10  21  36  53  75 107 141 168 203 259 320
#     4  11  21  35  55  76  98 130 177 224 256 293
#     4   8  13  25  49  78 103 127 161 207 253 294
#     4   9  17  31  53  79 104 133 171 211 254 304
#     4   9  17  31  51  72  95 128 172 218 260 302
#
# _framework density 21.716709999999999
#
# number of rings (size 3 to 8) (size 9 to 14) (size 15 to 20)
#    0.000    2.333    1.667    3.000    0.000    4.333 
#    0.000    2.500    0.000    0.500    0.000    3.500 
#    0.000    0.000    0.000    1.500    0.000    1.667 
#
# Total GULP energy -267647.402242 kJ/mol
# GULP energy per Si atom -5575.987547 kJ/mol
# Density = 2.166728 g / cm^3
# Si number density = 21.716710 Si / 1000 Ang^3
#
#
#
# Elastic Constant Matrix: (Units=GPa)
#
#
# Indices 1 2 3 4 5 6 
#
# 1 33.2588 8.4899 6.8421 0.0000 0.0000 0.0000
# 2 8.4899 160.5783 75.7157 0.0000 0.0000 0.0000
# 3 6.8421 75.7157 85.6401 0.0000 0.0000 0.0000
# 4 0.0000 0.0000 0.0000 -33.1853 0.0000 0.0000
# 5 0.0000 0.0000 0.0000 0.0000 5.9007 0.0000
# 6 0.0000 0.0000 0.0000 0.0000 0.0000 13.9224
#
#
#
# Elastic Compliance Matrix: (Units=1/GPa)
#
#
# Indices 1 2 3 4 5 6 
#
# 1 0.030629 -0.000798 -0.001741 0.000000 0.000000 0.000000
# 2 -0.000798 0.010700 -0.009397 0.000000 0.000000 0.000000
# 3 -0.001741 -0.009397 0.020124 0.000000 0.000000 0.000000
# 4 0.000000 0.000000 0.000000 -0.030134 0.000000 0.000000
# 5 0.000000 0.000000 0.000000 0.000000 0.169470 0.000000
# 6 0.000000 0.000000 0.000000 0.000000 0.000000 0.071826
#
#
# Mechanical properties :
#
#
# Convention : Reuss Voigt Hill
#
# Bulk Modulus (GPa) = 26.60932 51.28583 38.94757
# Shear Modulus (GPa) = 16.18042 9.88954 13.03498
#
# Velocity S-wave (km/s) = 2.73255 2.13630 2.45261
# Velocity P-wave (km/s) = 4.71543 5.45455 5.09840
#
# Compressibility (1/GPa) = 0.03758082
#
# Stress axis : x y z
#
# Youngs Moduli (GPa) = 32.64851 93.45478 49.69303
#
# Poissons Ratio (x) = 0.07461 0.08653
# Poissons Ratio (y) = 0.02606 0.46694
# Poissons Ratio (z) = 0.05685 0.87815
#
# Static dielectric constant tensor:
#      x y z
#    x 1.861570 0.000000 0.000000 
#    y 0.000000 1.852450 0.000000 
#    z 0.000000 0.000000 1.776530 
# 
# From -- ./inp_files/50795.got.cif
#   From: 2010.05.17/outbox.cif.g08.bks.cpg/sg71_26_cif.got.tgz:50795.got - 2010.06.03 16:22:01.
