data_PCOD9522383
_publ_section_title
;
Structure prediction by ZEFSAII (Michael W. Deem and Ramdas Pophale) SiO2 
 PCOD9522383
Probable space group: I M M M
;
_chemical_formula_sum "Si O2"
_cell_formula_units_Z 100
_cell_length_a 22.497503
_cell_length_b 27.002103
_cell_length_c 9.193081
_cell_angle_alpha 90.000000
_cell_angle_beta 90.000000
_cell_angle_gamma 90.000000
_cell_volume 5584.611865
_symmetry_space_group_name_H-M "I M M M"
_symmetry_group_IT_number 71
_symmetry_cell_setting 'orthorhombic'
loop_
_space_group_symop_operation_xyz
x,y,z
-x,-y,z
x,-y,-z
-x,y,-z
-x,-y,-z
x,y,-z
-x,y,z
x,-y,z
1/2+x,1/2+y,1/2+z
1/2-x,1/2-y,1/2+z
1/2+x,1/2-y,1/2-z
1/2-x,1/2+y,1/2-z
1/2-x,1/2-y,1/2-z
1/2+x,1/2+y,1/2-z
1/2-x,1/2+y,1/2+z
1/2+x,1/2-y,1/2+z
loop_
_atom_site_type_symbol
_atom_site_label
_atom_site_fract_x
_atom_site_fract_y
_atom_site_fract_z
Si Si1 0.348170 0.500000 0.500000
Si Si2 0.306305 0.313116 0.827336
Si Si3 0.115661 0.379652 0.672889
Si Si4 0.567608 0.559498 0.000000
Si Si5 0.500000 0.942925 0.823224
Si Si6 0.661468 0.418861 0.243139
Si Si7 0.833299 0.712172 0.828970
Si Si8 0.793914 0.557967 0.840317
O O1 0.346833 0.543814 0.374973
O O2 0.327985 0.360346 0.735742
O O3 0.234658 0.308206 0.816827
O O4 0.333439 0.263001 0.761707
O O5 0.320145 0.319434 0.000000
O O6 0.113155 0.371029 0.500000
O O7 0.123540 0.328466 0.758586
O O8 0.173077 0.412285 0.715120
O O9 0.058578 0.412139 0.718422
O O10 0.605144 0.575956 0.861211
O O11 0.566407 0.500000 0.000000
O O12 0.500000 0.577766 0.000000
O O13 0.500000 0.000000 0.770902
O O14 0.500000 0.945162 0.000000
O O15 0.723324 0.435538 0.168283
O O16 0.845055 0.720074 0.000000
O O17 0.807805 0.500000 0.827321
O O18 0.814063 0.576102 0.000000
#
# Coordination Sequence:
#
# PCOD9522383 Si02
#       8
#     4  16  16   8   8  16  16  16
#     4  12  28  34  59  98 132 153 206 244 318 374
#     4  10  20  36  61  85 124 161 201 254 307 371
#     4  11  22  36  60  85 119 162 211 257 311 378
#     4  11  22  42  68  87 114 166 210 235 292 376
#     4   9  20  40  59  85 123 169 221 269 308 365
#     4  12  22  39  59  91 125 159 197 255 301 370
#     4  10  21  36  56  90 121 160 203 251 319 376
#     4  11  21  34  55  83 121 154 194 250 316 367
#
# _framework density 17.906347
#
# number of rings (size 3 to 8) (size 9 to 14) (size 15 to 20)
#    0.000    1.280    4.800    1.440    2.240    1.600 
#    0.000    2.400    1.760    2.880    0.000    0.000 
#    0.000    0.000    0.000    0.000    0.000    0.000 
#
# Total GULP energy -278495.519418 kJ/mol
# GULP energy per Si atom -5569.910388 kJ/mol
# Density = 1.786559 g / cm^3
# Si number density = 17.906347 Si / 1000 Ang^3
#
#
#
# Elastic Constant Matrix: (Units=GPa)
#
#
# Indices 1 2 3 4 5 6 
#
# 1 73.8341 38.2902 32.3337 0.0000 0.0000 0.0000
# 2 38.2902 151.1283 57.8174 0.0000 0.0000 0.0000
# 3 32.3337 57.8174 91.1925 0.0000 0.0000 0.0000
# 4 0.0000 0.0000 0.0000 -12.4633 0.0000 0.0000
# 5 0.0000 0.0000 0.0000 0.0000 -20.7884 0.0000
# 6 0.0000 0.0000 0.0000 0.0000 0.0000 26.1151
#
#
#
# Elastic Compliance Matrix: (Units=1/GPa)
#
#
# Indices 1 2 3 4 5 6 
#
# 1 0.016777 -0.002607 -0.004295 0.000000 0.000000 0.000000
# 2 -0.002607 0.009141 -0.004871 0.000000 0.000000 0.000000
# 3 -0.004295 -0.004871 0.015577 0.000000 0.000000 0.000000
# 4 0.000000 0.000000 0.000000 -0.080235 0.000000 0.000000
# 5 0.000000 0.000000 0.000000 0.000000 -0.048104 0.000000
# 6 0.000000 0.000000 0.000000 0.000000 0.000000 0.038292
#
#
# Mechanical properties :
#
#
# Convention : Reuss Voigt Hill
#
# Bulk Modulus (GPa) = 55.71805 63.67086 59.69445
# Shear Modulus (GPa) = -262.86315 11.08691 -125.88812
#
# Velocity S-wave (km/s) = -12.12920 2.49099 -8.39382
# Velocity P-wave (km/s) = 12.84417 6.62633 7.78025
#
# Compressibility (1/GPa) = 0.01794751
#
# Stress axis : x y z
#
# Youngs Moduli (GPa) = 59.60484 109.39682 64.19651
#
# Poissons Ratio (x) = 0.28524 0.27576
# Poissons Ratio (y) = 0.15541 0.31271
# Poissons Ratio (z) = 0.25603 0.53288
#
# Static dielectric constant tensor:
#      x y z
#    x 1.598520 0.000000 0.000000 
#    y 0.000000 1.628400 0.000000 
#    z 0.000000 0.000000 1.597050 
# 
# From -- ./inp_files/11221.got.cif
#   From: 2010.05.17/outbox.cif.g08.bks.cpg/sg71_6_cif.got.tgz:11221.got - 2010.06.03 16:22:01.
