data_PCOD9522877
_publ_section_title
;
Structure prediction by ZEFSAII (Michael W. Deem and Ramdas Pophale) SiO2 
 PCOD9522877
Probable space group: I M M M
;
_chemical_formula_sum "Si O2"
_cell_formula_units_Z 104
_cell_length_a 31.241576
_cell_length_b 7.921901
_cell_length_c 23.380250
_cell_angle_alpha 90.000000
_cell_angle_beta 90.000000
_cell_angle_gamma 90.000000
_cell_volume 5786.440548
_symmetry_space_group_name_H-M "I M M M"
_symmetry_group_IT_number 71
_symmetry_cell_setting 'orthorhombic'
loop_
_space_group_symop_operation_xyz
x,y,z
-x,-y,z
x,-y,-z
-x,y,-z
-x,-y,-z
x,y,-z
-x,y,z
x,-y,z
1/2+x,1/2+y,1/2+z
1/2-x,1/2-y,1/2+z
1/2+x,1/2-y,1/2-z
1/2-x,1/2+y,1/2-z
1/2-x,1/2-y,1/2-z
1/2+x,1/2+y,1/2-z
1/2-x,1/2+y,1/2+z
1/2+x,1/2-y,1/2+z
loop_
_atom_site_type_symbol
_atom_site_label
_atom_site_fract_x
_atom_site_fract_y
_atom_site_fract_z
Si Si1 0.378008 0.707455 0.433698
Si Si2 0.808371 0.703546 0.434440
Si Si3 0.451597 0.799173 0.220977
Si Si4 0.784351 0.195624 0.069566
Si Si5 0.450448 0.706756 0.000000
Si Si6 0.548314 0.298840 0.650757
Si Si7 0.601698 0.700746 0.888842
O O1 0.384922 0.754515 0.500000
O O2 0.376765 0.500000 0.432515
O O3 0.330671 0.768278 0.414655
O O4 0.415993 0.766736 0.392790
O O5 0.815945 0.763172 0.500000
O O6 0.805044 0.500000 0.436835
O O7 0.761873 0.769300 0.413981
O O8 0.849160 0.747713 0.396894
O O9 0.500000 0.736383 0.207690
O O10 0.439468 0.730037 0.283252
O O11 0.419773 0.755232 0.170103
O O12 0.453336 0.000000 0.225948
O O13 0.784650 0.000000 0.088606
O O14 0.783898 0.194600 0.000000
O O15 0.425619 0.765985 0.943273
O O16 0.449989 0.500000 0.000000
O O17 0.500000 0.758970 0.000000
O O18 0.500000 0.230070 0.642599
O O19 0.546092 0.500000 0.641495
O O20 0.599719 0.500000 0.891416
#
# Coordination Sequence:
#
# PCOD9522877 Si02
#       7
#    16  16  16  16   8  16  16
#     4   8  13  23  43  73 104 128 154 188 228 275
#     4   9  16  27  44  66  94 124 156 192 230 275
#     4  10  21  36  51  66  87 121 163 199 231 273
#     4   7  11  21  39  64  93 126 157 186 223 269
#     4   9  18  30  43  63  91 119 143 175 228 285
#     4   9  17  29  47  72  99 126 156 192 233 275
#     4  11  20  31  48  69  94 121 152 193 239 285
#
# _framework density 17.973051999999999
#
# number of rings (size 3 to 8) (size 9 to 14) (size 15 to 20)
#    0.000    3.000    0.769    3.231    0.000    1.846 
#    0.000    1.538    0.000    4.154    0.000    4.308 
#    0.000    0.000    0.000    0.000    0.000    0.000 
#
# Total GULP energy -289661.603822 kJ/mol
# GULP energy per Si atom -5570.415458 kJ/mol
# Density = 1.793214 g / cm^3
# Si number density = 17.973052 Si / 1000 Ang^3
#
#
#
# Elastic Constant Matrix: (Units=GPa)
#
#
# Indices 1 2 3 4 5 6 
#
# 1 170.6446 3.4982 92.0823 0.0000 0.0000 0.0000
# 2 3.4982 16.6261 -1.9037 0.0000 0.0000 0.0000
# 3 92.0823 -1.9037 84.2428 0.0000 0.0000 0.0000
# 4 0.0000 0.0000 0.0000 3.0183 0.0000 0.0000
# 5 0.0000 0.0000 0.0000 0.0000 16.6714 0.0000
# 6 0.0000 0.0000 0.0000 0.0000 0.0000 6.3693
#
#
#
# Elastic Compliance Matrix: (Units=1/GPa)
#
#
# Indices 1 2 3 4 5 6 
#
# 1 0.014681 -0.004939 -0.016159 0.000000 0.000000 0.000000
# 2 -0.004939 0.061964 0.006799 0.000000 0.000000 0.000000
# 3 -0.016159 0.006799 0.029686 0.000000 0.000000 0.000000
# 4 0.000000 0.000000 0.000000 0.331311 0.000000 0.000000
# 5 0.000000 0.000000 0.000000 0.000000 0.059983 0.000000
# 6 0.000000 0.000000 0.000000 0.000000 0.000000 0.157004
#
#
# Mechanical properties :
#
#
# Convention : Reuss Voigt Hill
#
# Bulk Modulus (GPa) = 12.86442 50.98523 31.92483
# Shear Modulus (GPa) = 7.05081 17.06758 12.05920
#
# Velocity S-wave (km/s) = 1.98280 3.08493 2.59310
# Velocity P-wave (km/s) = 3.52352 6.41235 5.17366
#
# Compressibility (1/GPa) = 0.07773377
#
# Stress axis : x y z
#
# Youngs Moduli (GPa) = 68.11634 16.13838 33.68558
#
# Poissons Ratio (x) = 0.07971 0.54431
# Poissons Ratio (y) = 0.33643 -0.22902
# Poissons Ratio (z) = 1.10066 -0.10972
#
# Static dielectric constant tensor:
#      x y z
#    x 1.630800 0.000000 0.000000 
#    y 0.000000 1.651360 0.000000 
#    z 0.000000 0.000000 1.592300 
# 
# From -- ./inp_files/56681.got.cif
#   From: 2010.05.17/outbox.cif.g08.bks.cpg/sg71_29_cif.got.tgz:56681.got - 2010.06.03 16:22:01.
