data_PCOD9522133
_publ_section_title
;
Structure prediction by ZEFSAII (Michael W. Deem and Ramdas Pophale) SiO2 
 PCOD9522133
Probable space group: I M M M
;
_chemical_formula_sum "Si O2"
_cell_formula_units_Z 104
_cell_length_a 18.329883
_cell_length_b 32.913159
_cell_length_c 8.872481
_cell_angle_alpha 90.000000
_cell_angle_beta 90.000000
_cell_angle_gamma 90.000000
_cell_volume 5352.717690
_symmetry_space_group_name_H-M "I M M M"
_symmetry_group_IT_number 71
_symmetry_cell_setting 'orthorhombic'
loop_
_space_group_symop_operation_xyz
x,y,z
-x,-y,z
x,-y,-z
-x,y,-z
-x,-y,-z
x,y,-z
-x,y,z
x,-y,z
1/2+x,1/2+y,1/2+z
1/2-x,1/2-y,1/2+z
1/2+x,1/2-y,1/2-z
1/2-x,1/2+y,1/2-z
1/2-x,1/2-y,1/2-z
1/2+x,1/2+y,1/2-z
1/2-x,1/2+y,1/2+z
1/2+x,1/2-y,1/2+z
loop_
_atom_site_type_symbol
_atom_site_label
_atom_site_fract_x
_atom_site_fract_y
_atom_site_fract_z
Si Si1 0.653144 0.785939 0.322702
Si Si2 0.414207 0.000000 0.179767
Si Si3 0.418291 0.142424 0.820889
Si Si4 0.161160 0.952874 0.318165
Si Si5 0.675025 0.926397 0.319657
Si Si6 0.417157 0.622363 0.681733
Si Si7 0.691407 0.694402 0.320026
O O1 0.644470 0.793949 0.500000
O O2 0.594855 0.811502 0.229604
O O3 0.650793 0.737539 0.298675
O O4 0.732810 0.801124 0.268086
O O5 0.376311 0.960962 0.251134
O O6 0.500000 0.000000 0.210816
O O7 0.403797 0.000000 0.000000
O O8 0.500000 0.128917 0.776718
O O9 0.356360 0.115573 0.742514
O O10 0.411769 0.138318 0.000000
O O11 0.155955 0.951684 0.500000
O O12 0.242070 0.936979 0.275847
O O13 0.104950 0.921223 0.247703
O O14 0.152470 0.000000 0.271656
O O15 0.671231 0.926936 0.500000
O O16 0.414340 0.620556 0.500000
O O17 0.500000 0.633070 0.725526
O O18 0.358680 0.656725 0.728671
O O19 0.706924 0.690516 0.500000
#
# Coordination Sequence:
#
# PCOD9522133 Si02
#       7
#    16   8  16  16  16  16  16
#     4  10  20  35  59  88 115 150 197 242 284 340
#     4  11  23  37  55  83 118 153 188 231 289 350
#     4  11  24  39  54  79 118 158 194 238 292 345
#     4  10  22  41  61  84 114 146 186 235 289 347
#     4  11  22  39  61  84 111 148 196 245 286 339
#     4  10  22  39  59  86 117 149 189 236 286 344
#     4   9  19  37  60  85 117 154 189 234 291 344
#
# _framework density 19.429383000000001
#
# number of rings (size 3 to 8) (size 9 to 14) (size 15 to 20)
#    0.000    1.769    0.769    3.000    0.000   10.154 
#    0.000    3.077    0.000    0.000    0.000    0.000 
#    0.000    0.000    0.000    0.000    0.000    0.000 
#
# Total GULP energy -290538.054364 kJ/mol
# GULP energy per Si atom -5587.270276 kJ/mol
# Density = 1.938516 g / cm^3
# Si number density = 19.429383 Si / 1000 Ang^3
#
#
#
# Elastic Constant Matrix: (Units=GPa)
#
#
# Indices 1 2 3 4 5 6 
#
# 1 51.7414 30.6022 14.2718 0.0003 -0.0013 -0.0015
# 2 30.6022 92.8789 9.2129 0.0003 -0.0020 -0.0027
# 3 14.2718 9.2129 12.4445 -0.0010 -0.0008 -0.0021
# 4 0.0003 0.0003 -0.0010 30.0391 -0.0008 -0.0006
# 5 -0.0013 -0.0020 -0.0008 -0.0008 27.5629 0.0008
# 6 -0.0015 -0.0027 -0.0021 -0.0006 0.0008 -3.4940
#
#
#
# Elastic Compliance Matrix: (Units=1/GPa)
#
#
# Indices 1 2 3 4 5 6 
#
# 1 0.032564 -0.007582 -0.031732 -0.000001 0.000000 0.000012
# 2 -0.007582 0.013385 -0.001214 0.000000 0.000001 -0.000006
# 3 -0.031732 -0.001214 0.117648 0.000004 0.000002 -0.000058
# 4 -0.000001 0.000000 0.000004 0.033290 0.000001 -0.000006
# 5 0.000000 0.000001 0.000002 0.000001 0.036281 0.000008
# 6 0.000012 -0.000006 -0.000058 -0.000006 0.000008 -0.286203
#
#
# Mechanical properties :
#
#
# Convention : Reuss Voigt Hill
#
# Bulk Modulus (GPa) = 12.11539 29.47096 20.79317
# Shear Modulus (GPa) = 90.03497 17.68679 53.86088
#
# Velocity S-wave (km/s) = 6.81470 3.02041 5.27082
# Velocity P-wave (km/s) = 8.25648 5.23116 6.91138
#
# Compressibility (1/GPa) = 0.08253965
#
# Stress axis : x y z
#
# Youngs Moduli (GPa) = 30.70897 74.70928 8.49996
#
# Poissons Ratio (x) = 0.56642 0.26972
# Poissons Ratio (y) = 0.23283 0.01032
# Poissons Ratio (z) = 0.97447 0.09073
#
# Static dielectric constant tensor:
#      x y z
#    x 1.666510 0.000000 0.000000 
#    y 0.000000 1.666070 0.000000 
#    z 0.000000 0.000000 1.649740 
# 
# From -- ./inp_files/11559.got.cif
#   From: 2010.05.17/outbox.cif.g08.bks.cpg/sg71_6_cif.got.tgz:11559.got - 2010.06.03 16:22:01.
