data_PCOD9522334
_publ_section_title
;
Structure prediction by ZEFSAII (Michael W. Deem and Ramdas Pophale) SiO2 
 PCOD9522334
Probable space group: I M M M
;
_chemical_formula_sum "Si O2"
_cell_formula_units_Z 116
_cell_length_a 18.404093
_cell_length_b 14.355605
_cell_length_c 22.530919
_cell_angle_alpha 90.000000
_cell_angle_beta 90.000000
_cell_angle_gamma 90.000000
_cell_volume 5952.711372
_symmetry_space_group_name_H-M "I M M M"
_symmetry_group_IT_number 71
_symmetry_cell_setting 'orthorhombic'
loop_
_space_group_symop_operation_xyz
x,y,z
-x,-y,z
x,-y,-z
-x,y,-z
-x,-y,-z
x,y,-z
-x,y,z
x,-y,z
1/2+x,1/2+y,1/2+z
1/2-x,1/2-y,1/2+z
1/2+x,1/2-y,1/2-z
1/2-x,1/2+y,1/2-z
1/2-x,1/2-y,1/2-z
1/2+x,1/2+y,1/2-z
1/2-x,1/2+y,1/2+z
1/2+x,1/2-y,1/2+z
loop_
_atom_site_type_symbol
_atom_site_label
_atom_site_fract_x
_atom_site_fract_y
_atom_site_fract_z
Si Si1 0.280895 0.608426 0.623632
Si Si2 0.419752 0.205546 0.762613
Si Si3 0.374810 0.897787 0.566909
Si Si4 0.500000 0.139177 0.000000
Si Si5 0.795622 0.392541 0.814149
Si Si6 0.423794 0.696162 0.430461
Si Si7 0.886735 0.612682 0.610836
Si Si8 0.155426 0.108561 0.254085
O O1 0.288239 0.500000 0.607452
O O2 0.348447 0.661962 0.595661
O O3 0.199448 0.636366 0.605323
O O4 0.296726 0.616472 0.693900
O O5 0.500000 0.179659 0.740412
O O6 0.355871 0.162749 0.722479
O O7 0.412188 0.166146 0.829549
O O8 0.408183 0.316617 0.757302
O O9 0.345536 0.893186 0.500000
O O10 0.314420 0.890270 0.617017
O O11 0.423784 0.807767 0.574734
O O12 0.409878 0.000000 0.573959
O O13 0.563873 0.134562 0.946736
O O14 0.799263 0.500000 0.793415
O O15 0.713792 0.361303 0.803538
O O16 0.423319 0.672628 0.500000
O O17 0.500000 0.659247 0.404084
O O18 0.891534 0.500000 0.620510
O O19 0.133823 0.000000 0.260196
#
# Coordination Sequence:
#
# PCOD9522334 Si02
#       8
#    16  16  16   4  16  16  16  16
#     4  10  22  39  61  87 119 160 207 254 307 371
#     4  12  24  37  61  92 124 161 202 255 313 373
#     4   9  19  35  56  83 115 152 196 242 296 358
#     4  12  25  44  68  96 139 172 199 256 316 392
#     4  10  20  36  59  86 118 153 195 250 307 365
#     4  10  22  38  55  81 119 160 201 247 298 359
#     4  11  23  40  63  94 128 163 201 250 315 379
#     4  10  22  40  60  85 119 162 206 253 306 363
#
# _framework density 19.486917999999999
#
# number of rings (size 3 to 8) (size 9 to 14) (size 15 to 20)
#    0.000    1.655    2.069    2.276    2.897    4.138 
#    0.000    4.828    0.000    0.000    0.000    0.483 
#    0.000    0.000    0.000    0.000    0.000    0.000 
#
# Total GULP energy -322960.672681 kJ/mol
# GULP energy per Si atom -5568.287460 kJ/mol
# Density = 1.944257 g / cm^3
# Si number density = 19.486918 Si / 1000 Ang^3
#
#
#
# Elastic Constant Matrix: (Units=GPa)
#
#
# Indices 1 2 3 4 5 6 
#
# 1 103.4344 34.9708 25.9487 0.0000 0.0000 0.0000
# 2 34.9708 53.9903 19.9810 0.0000 0.0000 0.0000
# 3 25.9487 19.9810 72.0513 0.0000 0.0000 0.0000
# 4 0.0000 0.0000 0.0000 20.4009 0.0000 0.0000
# 5 0.0000 0.0000 0.0000 0.0000 10.5316 0.0000
# 6 0.0000 0.0000 0.0000 0.0000 0.0000 8.7951
#
#
#
# Elastic Compliance Matrix: (Units=1/GPa)
#
#
# Indices 1 2 3 4 5 6 
#
# 1 0.012793 -0.007334 -0.002574 0.000000 0.000000 0.000000
# 2 -0.007334 0.024845 -0.004249 0.000000 0.000000 0.000000
# 3 -0.002574 -0.004249 0.015984 0.000000 0.000000 0.000000
# 4 0.000000 0.000000 0.000000 0.049018 0.000000 0.000000
# 5 0.000000 0.000000 0.000000 0.000000 0.094952 0.000000
# 6 0.000000 0.000000 0.000000 0.000000 0.000000 0.113700
#
#
# Mechanical properties :
#
#
# Convention : Reuss Voigt Hill
#
# Bulk Modulus (GPa) = 39.51061 43.47522 41.49291
# Shear Modulus (GPa) = 14.36615 17.85054 16.10835
#
# Velocity S-wave (km/s) = 2.71813 3.02988 2.87823
# Velocity P-wave (km/s) = 5.49276 5.88206 5.69074
#
# Compressibility (1/GPa) = 0.02530966
#
# Stress axis : x y z
#
# Youngs Moduli (GPa) = 78.16650 40.25017 62.56251
#
# Poissons Ratio (x) = 0.29520 0.16101
# Poissons Ratio (y) = 0.57328 0.26580
# Poissons Ratio (z) = 0.20116 0.17100
#
# Static dielectric constant tensor:
#      x y z
#    x 1.723880 0.000000 0.000000 
#    y 0.000000 1.723180 0.000000 
#    z 0.000000 0.000000 1.707140 
# 
# From -- ./inp_files/60789.got.cif
#   From: 2010.05.17/outbox.cif.g08.bks.cpg/sg71_31_cif.got.tgz:60789.got - 2010.06.03 16:22:01.
