data_PCOD9522885
_publ_section_title
;
Structure prediction by ZEFSAII (Michael W. Deem and Ramdas Pophale) SiO2 
 PCOD9522885
Probable space group: I M M M
;
_chemical_formula_sum "Si O2"
_cell_formula_units_Z 72
_cell_length_a 8.849223
_cell_length_b 15.875550
_cell_length_c 29.245547
_cell_angle_alpha 90.000000
_cell_angle_beta 90.000000
_cell_angle_gamma 90.000000
_cell_volume 4108.598169
_symmetry_space_group_name_H-M "I M M M"
_symmetry_group_IT_number 71
_symmetry_cell_setting 'orthorhombic'
loop_
_space_group_symop_operation_xyz
x,y,z
-x,-y,z
x,-y,-z
-x,y,-z
-x,-y,-z
x,y,-z
-x,y,z
x,-y,z
1/2+x,1/2+y,1/2+z
1/2-x,1/2-y,1/2+z
1/2+x,1/2-y,1/2-z
1/2-x,1/2+y,1/2-z
1/2-x,1/2-y,1/2-z
1/2+x,1/2+y,1/2-z
1/2-x,1/2+y,1/2+z
1/2+x,1/2-y,1/2+z
loop_
_atom_site_type_symbol
_atom_site_label
_atom_site_fract_x
_atom_site_fract_y
_atom_site_fract_z
Si Si1 0.670952 0.000000 0.944564
Si Si2 0.683541 0.905674 0.196905
Si Si3 0.319623 0.677410 0.553325
Si Si4 0.318502 0.902834 0.696802
Si Si5 0.818875 0.245280 0.637723
O O1 0.754872 0.085906 0.932397
O O2 0.500000 0.000000 0.926117
O O3 0.663790 0.000000 0.000000
O O4 0.500000 0.906795 0.195561
O O5 0.725659 0.890935 0.249926
O O6 0.733923 0.828387 0.165805
O O7 0.734435 0.000000 0.183210
O O8 0.279116 0.690791 0.500000
O O9 0.500000 0.676623 0.556814
O O10 0.248785 0.745215 0.587240
O O11 0.500000 0.891811 0.694033
O O12 0.238127 0.836296 0.664481
O O13 0.284654 0.000000 0.684924
O O14 0.000000 0.246144 0.635729
#
# Coordination Sequence:
#
# PCOD9522885 Si02
#       5
#     8  16  16  16  16
#     4   9  17  31  51  73  99 133 171 211 257 305
#     4   8  16  31  50  75 107 141 175 209 253 309
#     4  10  21  36  52  72 103 141 179 217 257 309
#     4   9  18  35  56  74 100 140 179 215 260 315
#     4  11  21  31  52  81 107 137 174 221 267 309
#
# _framework density 17.524224
#
# number of rings (size 3 to 8) (size 9 to 14) (size 15 to 20)
#    0.000    2.556    0.000    3.667    1.556    3.111 
#    0.000    1.111    0.000    3.333    0.000    4.667 
#    0.000    0.000    0.000    0.000    0.000    0.000 
#
# Total GULP energy -200898.382245 kJ/mol
# GULP energy per Si atom -5580.510618 kJ/mol
# Density = 1.748434 g / cm^3
# Si number density = 17.524224 Si / 1000 Ang^3
#
#
#
# Elastic Constant Matrix: (Units=GPa)
#
#
# Indices 1 2 3 4 5 6 
#
# 1 44.6370 40.4744 42.6354 0.0000 0.0000 0.0000
# 2 40.4744 89.5297 73.4321 0.0000 0.0000 0.0000
# 3 42.6354 73.4321 99.7138 0.0000 0.0000 0.0000
# 4 0.0000 0.0000 0.0000 28.4447 0.0000 0.0000
# 5 0.0000 0.0000 0.0000 0.0000 19.2389 0.0000
# 6 0.0000 0.0000 0.0000 0.0000 0.0000 28.1823
#
#
#
# Elastic Compliance Matrix: (Units=1/GPa)
#
#
# Indices 1 2 3 4 5 6 
#
# 1 0.041523 -0.010631 -0.009925 0.000000 0.000000 0.000000
# 2 -0.010631 0.030929 -0.018231 0.000000 0.000000 0.000000
# 3 -0.009925 -0.018231 0.027699 0.000000 0.000000 0.000000
# 4 0.000000 0.000000 0.000000 0.035156 0.000000 0.000000
# 5 0.000000 0.000000 0.000000 0.000000 0.051978 0.000000
# 6 0.000000 0.000000 0.000000 0.000000 0.000000 0.035483
#
#
# Mechanical properties :
#
#
# Convention : Reuss Voigt Hill
#
# Bulk Modulus (GPa) = 44.29653 60.77381 52.53517
# Shear Modulus (GPa) = 16.24079 20.32909 18.28494
#
# Velocity S-wave (km/s) = 3.04758 3.40965 3.23369
# Velocity P-wave (km/s) = 6.14132 7.08916 6.63219
#
# Compressibility (1/GPa) = 0.02257513
#
# Stress axis : x y z
#
# Youngs Moduli (GPa) = 24.08327 32.33258 36.10290
#
# Poissons Ratio (x) = 0.34372 0.35834
# Poissons Ratio (y) = 0.25602 0.65820
# Poissons Ratio (z) = 0.23904 0.58946
#
# Static dielectric constant tensor:
#      x y z
#    x 1.584010 0.000000 0.000000 
#    y 0.000000 1.578290 0.000000 
#    z 0.000000 0.000000 1.609040 
# 
# From -- ./inp_files/6097.got.cif
#   From: 2010.05.17/outbox.cif.g08.bks.cpg/sg71_4_cif.got.tgz:6097.got - 2010.06.03 16:22:01.
