data_PCOD9522541
_publ_section_title
;
Structure prediction by ZEFSAII (Michael W. Deem and Ramdas Pophale) SiO2 
 PCOD9522541
Probable space group: I M M M
;
_chemical_formula_sum "Si O2"
_cell_formula_units_Z 80
_cell_length_a 22.038169
_cell_length_b 22.309416
_cell_length_c 8.696603
_cell_angle_alpha 90.000000
_cell_angle_beta 90.000000
_cell_angle_gamma 90.000000
_cell_volume 4275.760352
_symmetry_space_group_name_H-M "I M M M"
_symmetry_group_IT_number 71
_symmetry_cell_setting 'orthorhombic'
loop_
_space_group_symop_operation_xyz
x,y,z
-x,-y,z
x,-y,-z
-x,y,-z
-x,-y,-z
x,y,-z
-x,y,z
x,-y,z
1/2+x,1/2+y,1/2+z
1/2-x,1/2-y,1/2+z
1/2+x,1/2-y,1/2-z
1/2-x,1/2+y,1/2-z
1/2-x,1/2-y,1/2-z
1/2+x,1/2+y,1/2-z
1/2-x,1/2+y,1/2+z
1/2+x,1/2-y,1/2+z
loop_
_atom_site_type_symbol
_atom_site_label
_atom_site_fract_x
_atom_site_fract_y
_atom_site_fract_z
Si Si1 0.737880 0.929512 0.315570
Si Si2 0.000000 0.568054 0.312811
Si Si3 0.428720 0.732755 0.185878
Si Si4 0.427693 0.500000 0.176627
Si Si5 0.864391 0.115038 0.816959
Si Si6 0.879090 0.638059 0.686118
O O1 0.740116 0.928401 0.500000
O O2 0.797548 0.897506 0.249372
O O3 0.679213 0.893609 0.257463
O O4 0.736366 0.000000 0.267192
O O5 0.060774 0.601868 0.266040
O O6 0.000000 0.500000 0.258864
O O7 0.000000 0.567999 0.500000
O O8 0.500000 0.736397 0.231937
O O9 0.395678 0.674972 0.253689
O O10 0.392384 0.793054 0.229108
O O11 0.428259 0.728889 0.000000
O O12 0.500000 0.500000 0.173775
O O13 0.403866 0.558709 0.260907
O O14 0.404855 0.500000 0.000000
O O15 0.861736 0.117193 0.000000
O O16 0.874090 0.635436 0.500000
#
# Coordination Sequence:
#
# PCOD9522541 Si02
#       6
#    16   8  16   8  16  16
#     4  11  24  42  63  88 124 167 210 259 320 379
#     4   9  16  30  57  93 125 156 201 258 311 363
#     4  10  21  40  64  91 127 168 209 254 313 379
#     4  11  23  41  65  93 125 162 203 252 315 377
#     4  12  25  40  63  92 123 163 211 261 312 367
#     4  10  20  37  63  93 124 163 210 258 310 371
#
# _framework density 18.710122999999999
#
# number of rings (size 3 to 8) (size 9 to 14) (size 15 to 20)
#    0.000    1.400    2.000    3.900    0.000    7.200 
#    0.000    0.500    0.000    1.800    0.000    0.000 
#    0.000    0.000    0.000    0.000    0.000    0.000 
#
# Total GULP energy -223565.411116 kJ/mol
# GULP energy per Si atom -5589.135278 kJ/mol
# Density = 1.866754 g / cm^3
# Si number density = 18.710123 Si / 1000 Ang^3
#
#
#
# Elastic Constant Matrix: (Units=GPa)
#
#
# Indices 1 2 3 4 5 6 
#
# 1 151.7726 83.6360 45.3080 0.0000 0.0000 0.0000
# 2 83.6360 181.1551 52.0337 0.0000 0.0000 0.0000
# 3 45.3080 52.0337 54.0150 0.0000 0.0000 0.0000
# 4 0.0000 0.0000 0.0000 14.7627 0.0000 0.0000
# 5 0.0000 0.0000 0.0000 0.0000 30.3333 0.0000
# 6 0.0000 0.0000 0.0000 0.0000 0.0000 -13.1882
#
#
#
# Elastic Compliance Matrix: (Units=1/GPa)
#
#
# Indices 1 2 3 4 5 6 
#
# 1 0.009846 -0.003005 -0.005364 0.000000 0.000000 0.000000
# 2 -0.003005 0.008549 -0.005715 0.000000 0.000000 0.000000
# 3 -0.005364 -0.005715 0.028518 0.000000 0.000000 0.000000
# 4 0.000000 0.000000 0.000000 0.067738 0.000000 0.000000
# 5 0.000000 0.000000 0.000000 0.000000 0.032967 0.000000
# 6 0.000000 0.000000 0.000000 0.000000 0.000000 -0.075825
#
#
# Mechanical properties :
#
#
# Convention : Reuss Voigt Hill
#
# Bulk Modulus (GPa) = 53.34701 83.21089 68.27895
# Shear Modulus (GPa) = 47.07690 20.11257 33.59474
#
# Velocity S-wave (km/s) = 5.02154 3.28221 4.24198
# Velocity P-wave (km/s) = 7.88640 7.67686 7.78234
#
# Compressibility (1/GPa) = 0.01874519
#
# Stress axis : x y z
#
# Youngs Moduli (GPa) = 101.56334 116.97336 35.06555
#
# Poissons Ratio (x) = 0.35150 0.18810
# Poissons Ratio (y) = 0.30520 0.20039
# Poissons Ratio (z) = 0.54480 0.66848
#
# Static dielectric constant tensor:
#      x y z
#    x 1.624700 0.000000 0.000000 
#    y 0.000000 1.615780 0.000000 
#    z 0.000000 0.000000 1.633780 
# 
# From -- ./inp_files/10280.got.cif
#   From: 2010.05.17/outbox.cif.g08.bks.cpg/sg71_6_cif.got.tgz:10280.got - 2010.06.03 16:22:01.
