data_PCOD9522463
_publ_section_title
;
Structure prediction by ZEFSAII (Michael W. Deem and Ramdas Pophale) SiO2 
 PCOD9522463
Probable space group: I M M M
;
_chemical_formula_sum "Si O2"
_cell_formula_units_Z 88
_cell_length_a 26.104368
_cell_length_b 10.016955
_cell_length_c 18.057290
_cell_angle_alpha 90.000000
_cell_angle_beta 90.000000
_cell_angle_gamma 90.000000
_cell_volume 4721.733581
_symmetry_space_group_name_H-M "I M M M"
_symmetry_group_IT_number 71
_symmetry_cell_setting 'orthorhombic'
loop_
_space_group_symop_operation_xyz
x,y,z
-x,-y,z
x,-y,-z
-x,y,-z
-x,-y,-z
x,y,-z
-x,y,z
x,-y,z
1/2+x,1/2+y,1/2+z
1/2-x,1/2-y,1/2+z
1/2+x,1/2-y,1/2-z
1/2-x,1/2+y,1/2-z
1/2-x,1/2-y,1/2-z
1/2+x,1/2+y,1/2-z
1/2-x,1/2+y,1/2+z
1/2+x,1/2-y,1/2+z
loop_
_atom_site_type_symbol
_atom_site_label
_atom_site_fract_x
_atom_site_fract_y
_atom_site_fract_z
Si Si1 0.593210 0.213702 0.794025
Si Si2 0.938526 0.500000 0.585593
Si Si3 0.662719 0.000000 0.410725
Si Si4 0.626934 0.500000 0.587642
Si Si5 0.939124 0.000000 0.237315
Si Si6 0.712354 0.154614 0.794591
Si Si7 0.212229 0.225212 0.913104
Si Si8 0.058012 0.500000 0.175906
O O1 0.577225 0.366652 0.782133
O O2 0.654331 0.201376 0.787493
O O3 0.578970 0.131715 0.868660
O O4 0.566636 0.128005 0.728665
O O5 0.921024 0.500000 0.500000
O O6 0.000000 0.500000 0.586245
O O7 0.693216 0.869076 0.385419
O O8 0.661142 0.000000 0.500000
O O9 0.604704 0.000000 0.381560
O O10 0.609426 0.500000 0.500000
O O11 0.586396 0.500000 0.654788
O O12 0.664466 0.373922 0.598426
O O13 0.000000 0.000000 0.228893
O O14 0.750000 0.250000 0.750000
O O15 0.736586 0.170537 0.876024
O O16 0.715523 0.000000 0.773451
O O17 0.220873 0.235670 0.000000
O O18 0.000000 0.500000 0.146195
#
# Coordination Sequence:
#
# PCOD9522463 Si02
#       8
#    16   8   8   8   8  16  16   8
#     4  11  24  40  60  93 122 158 201 256 310 366
#     4  10  21  43  71  93 116 153 202 256 320 390
#     4  10  21  37  56  85 122 159 202 249 295 349
#     4  10  20  37  59  89 125 169 218 252 289 351
#     4  12  24  40  63  90 128 168 205 257 314 364
#     4  12  24  38  61  91 122 160 200 252 297 364
#     4  10  22  38  59  85 120 163 199 241 300 361
#     4  11  20  37  61  83 118 160 206 253 299 356
#
# _framework density 18.637222999999999
#
# number of rings (size 3 to 8) (size 9 to 14) (size 15 to 20)
#    0.000    1.182    2.727    5.455    2.545    1.091 
#    0.000    0.455    0.000    7.091    0.000    0.000 
#    0.000    0.000    0.000    0.000    0.000    0.000 
#
# Total GULP energy -245708.171728 kJ/mol
# GULP energy per Si atom -5584.276630 kJ/mol
# Density = 1.859480 g / cm^3
# Si number density = 18.637223 Si / 1000 Ang^3
#
#
#
# Elastic Constant Matrix: (Units=GPa)
#
#
# Indices 1 2 3 4 5 6 
#
# 1 110.5874 44.9802 30.9691 0.0000 0.0000 0.0000
# 2 44.9802 176.1902 47.2034 0.0000 0.0000 0.0000
# 3 30.9691 47.2034 85.3184 0.0000 0.0000 0.0000
# 4 0.0000 0.0000 0.0000 19.3990 0.0000 0.0000
# 5 0.0000 0.0000 0.0000 0.0000 34.2287 0.0000
# 6 0.0000 0.0000 0.0000 0.0000 0.0000 26.3192
#
#
#
# Elastic Compliance Matrix: (Units=1/GPa)
#
#
# Indices 1 2 3 4 5 6 
#
# 1 0.010618 -0.001970 -0.002764 0.000000 0.000000 0.000000
# 2 -0.001970 0.007029 -0.003174 0.000000 0.000000 0.000000
# 3 -0.002764 -0.003174 0.014480 0.000000 0.000000 0.000000
# 4 0.000000 0.000000 0.000000 0.051549 0.000000 0.000000
# 5 0.000000 0.000000 0.000000 0.000000 0.029215 0.000000
# 6 0.000000 0.000000 0.000000 0.000000 0.000000 0.037995
#
#
# Mechanical properties :
#
#
# Convention : Reuss Voigt Hill
#
# Bulk Modulus (GPa) = 61.30844 68.71126 65.00985
# Shear Modulus (GPa) = 29.04626 32.58562 30.81594
#
# Velocity S-wave (km/s) = 3.95208 4.18594 4.07069
# Velocity P-wave (km/s) = 7.33432 7.76599 7.55324
#
# Compressibility (1/GPa) = 0.01631097
#
# Stress axis : x y z
#
# Youngs Moduli (GPa) = 94.17935 142.26925 69.06061
#
# Poissons Ratio (x) = 0.28029 0.19089
# Poissons Ratio (y) = 0.18555 0.21918
# Poissons Ratio (z) = 0.26033 0.45152
#
# Static dielectric constant tensor:
#      x y z
#    x 1.596400 0.000000 0.000000 
#    y 0.000000 1.660190 0.000000 
#    z 0.000000 0.000000 1.705560 
# 
# From -- ./inp_files/55641.got.cif
#   From: 2010.05.17/outbox.cif.g08.bks.cpg/sg71_28_cif.got.tgz:55641.got - 2010.06.03 16:22:01.
