data_PCOD9522736
_publ_section_title
;
Structure prediction by ZEFSAII (Michael W. Deem and Ramdas Pophale) SiO2 
 PCOD9522736
Probable space group: I M M M
;
_chemical_formula_sum "Si O2"
_cell_formula_units_Z 104
_cell_length_a 20.716956
_cell_length_b 25.520453
_cell_length_c 8.529990
_cell_angle_alpha 90.000000
_cell_angle_beta 90.000000
_cell_angle_gamma 90.000000
_cell_volume 4509.857762
_symmetry_space_group_name_H-M "I M M M"
_symmetry_group_IT_number 71
_symmetry_cell_setting 'orthorhombic'
loop_
_space_group_symop_operation_xyz
x,y,z
-x,-y,z
x,-y,-z
-x,y,-z
-x,-y,-z
x,y,-z
-x,y,z
x,-y,z
1/2+x,1/2+y,1/2+z
1/2-x,1/2-y,1/2+z
1/2+x,1/2-y,1/2-z
1/2-x,1/2+y,1/2-z
1/2-x,1/2-y,1/2-z
1/2+x,1/2+y,1/2-z
1/2-x,1/2+y,1/2+z
1/2+x,1/2-y,1/2+z
loop_
_atom_site_type_symbol
_atom_site_label
_atom_site_fract_x
_atom_site_fract_y
_atom_site_fract_z
Si Si1 0.925170 0.780873 0.814915
Si Si2 0.213104 0.198983 0.687016
Si Si3 0.076485 0.668461 0.677776
Si Si4 0.613333 0.055684 0.815910
Si Si5 0.924308 0.059115 0.000000
Si Si6 0.739209 0.086517 0.319719
Si Si7 0.112545 0.060787 0.669770
O O1 0.861804 0.806392 0.737652
O O2 0.910210 0.719287 0.780910
O O3 0.000000 0.791302 0.759240
O O4 0.924563 0.790882 0.000000
O O5 0.213970 0.200777 0.500000
O O6 0.250000 0.250000 0.750000
O O7 0.251215 0.146427 0.734417
O O8 0.104770 0.674152 0.500000
O O9 0.093247 0.612072 0.749695
O O10 0.000000 0.667875 0.660020
O O11 0.689971 0.057227 0.791251
O O12 0.588562 0.000000 0.751854
O O13 0.595979 0.057217 0.000000
O O14 0.908709 0.085284 0.165824
O O15 0.000000 0.053213 0.000000
O O16 0.893886 0.000000 0.000000
O O17 0.714935 0.085175 0.500000
O O18 0.810211 0.062102 0.324626
O O19 0.092572 0.083565 0.500000
O O20 0.089827 0.000000 0.670933
#
# Coordination Sequence:
#
# PCOD9522736 Si02
#       7
#    16  16  16  16   8  16  16
#     4  10  21  38  60  86 117 153 196 245 296 353
#     4  11  23  39  60  86 116 150 192 242 296 354
#     4   9  18  34  56  81 112 152 194 234 281 340
#     4  10  21  34  52  82 115 149 190 236 286 340
#     4   9  18  32  52  80 108 138 179 221 267 325
#     4  10  22  38  55  77 107 144 184 229 283 339
#     4   9  18  34  55  78 107 143 182 226 277 333
#
# _framework density 23.060593999999998
#
# number of rings (size 3 to 8) (size 9 to 14) (size 15 to 20)
#    0.000    2.231    0.000    2.308    1.077    6.769 
#    0.000    3.846    0.000    2.769    0.000    3.231 
#    0.000    0.000    0.000    0.000    0.000    0.000 
#
# Total GULP energy -290119.348618 kJ/mol
# GULP energy per Si atom -5579.218243 kJ/mol
# Density = 2.300811 g / cm^3
# Si number density = 23.060594 Si / 1000 Ang^3
#
#
#
# Elastic Constant Matrix: (Units=GPa)
#
#
# Indices 1 2 3 4 5 6 
#
# 1 34.1951 9.6910 12.5463 0.0000 0.0000 0.0000
# 2 9.6910 93.3737 9.3131 0.0000 0.0000 0.0000
# 3 12.5463 9.3131 88.5378 0.0000 0.0000 0.0000
# 4 0.0000 0.0000 0.0000 -103.1147 0.0000 0.0000
# 5 0.0000 0.0000 0.0000 0.0000 68.9460 0.0000
# 6 0.0000 0.0000 0.0000 0.0000 0.0000 18.2244
#
#
#
# Elastic Compliance Matrix: (Units=1/GPa)
#
#
# Indices 1 2 3 4 5 6 
#
# 1 0.031587 -0.002862 -0.004175 0.000000 0.000000 0.000000
# 2 -0.002862 0.011083 -0.000760 0.000000 0.000000 0.000000
# 3 -0.004175 -0.000760 0.011966 0.000000 0.000000 0.000000
# 4 0.000000 0.000000 0.000000 -0.009698 0.000000 0.000000
# 5 0.000000 0.000000 0.000000 0.000000 0.014504 0.000000
# 6 0.000000 0.000000 0.000000 0.000000 0.000000 0.054871
#
#
# Mechanical properties :
#
#
# Convention : Reuss Voigt Hill
#
# Bulk Modulus (GPa) = 25.61386 31.02304 28.31845
# Shear Modulus (GPa) = 34.98435 9.11490 22.04963
#
# Velocity S-wave (km/s) = 3.89917 1.99027 3.09554
# Velocity P-wave (km/s) = 5.60381 4.33170 5.00831
#
# Compressibility (1/GPa) = 0.03904137
#
# Stress axis : x y z
#
# Youngs Moduli (GPa) = 31.65877 90.23231 83.56874
#
# Poissons Ratio (x) = 0.25823 0.34890
# Poissons Ratio (y) = 0.09060 0.06353
# Poissons Ratio (z) = 0.13218 0.06859
#
# Static dielectric constant tensor:
#      x y z
#    x 1.858760 0.000000 0.000000 
#    y 0.000000 2.021340 0.000000 
#    z 0.000000 0.000000 1.901380 
# 
# From -- ./inp_files/11081.got.cif
#   From: 2010.05.17/outbox.cif.g08.bks.cpg/sg71_6_cif.got.tgz:11081.got - 2010.06.03 16:22:01.
