data_PCOD9522004
_publ_section_title
;
Structure prediction by ZEFSAII (Michael W. Deem and Ramdas Pophale) SiO2 
 PCOD9522004
Probable space group: I M M M
;
_chemical_formula_sum "Si O2"
_cell_formula_units_Z 96
_cell_length_a 15.168573
_cell_length_b 29.654254
_cell_length_c 12.085555
_cell_angle_alpha 90.000000
_cell_angle_beta 90.000000
_cell_angle_gamma 90.000000
_cell_volume 5436.236326
_symmetry_space_group_name_H-M "I M M M"
_symmetry_group_IT_number 71
_symmetry_cell_setting 'orthorhombic'
loop_
_space_group_symop_operation_xyz
x,y,z
-x,-y,z
x,-y,-z
-x,y,-z
-x,-y,-z
x,y,-z
-x,y,z
x,-y,z
1/2+x,1/2+y,1/2+z
1/2-x,1/2-y,1/2+z
1/2+x,1/2-y,1/2-z
1/2-x,1/2+y,1/2-z
1/2-x,1/2-y,1/2-z
1/2+x,1/2+y,1/2-z
1/2-x,1/2+y,1/2+z
1/2+x,1/2-y,1/2+z
loop_
_atom_site_type_symbol
_atom_site_label
_atom_site_fract_x
_atom_site_fract_y
_atom_site_fract_z
Si Si1 0.096642 0.553915 0.759140
Si Si2 0.602094 0.386942 0.216836
Si Si3 0.602475 0.810311 0.134983
Si Si4 0.267342 0.891610 0.131447
Si Si5 0.606567 0.711376 0.124882
Si Si6 0.140149 0.946824 0.500000
Si Si7 0.851934 0.552684 0.000000
O O1 0.097537 0.500000 0.766611
O O2 0.170250 0.568724 0.674196
O O3 0.000000 0.568828 0.721956
O O4 0.114816 0.572035 0.883518
O O5 0.500000 0.388372 0.253149
O O6 0.674039 0.398083 0.308961
O O7 0.625669 0.335458 0.183699
O O8 0.610255 0.419536 0.109398
O O9 0.500000 0.819414 0.168849
O O10 0.675090 0.847372 0.166160
O O11 0.630518 0.760137 0.173791
O O12 0.600655 0.808778 0.000000
O O13 0.257441 0.890530 0.000000
O O14 0.500000 0.713222 0.117800
O O15 0.642085 0.708447 0.000000
O O16 0.246388 0.945914 0.500000
O O17 0.113423 0.000000 0.500000
O O18 0.879670 0.500000 0.000000
#
# Coordination Sequence:
#
# PCOD9522004 Si02
#       7
#    16  16  16  16  16   8   8
#     4  10  20  35  57  83 110 140 173 215 268 326
#     4  11  22  36  56  80 105 138 182 230 279 325
#     4   8  15  30  52  77 106 138 173 218 269 318
#     4  11  23  36  51  75 109 148 191 226 257 309
#     4   8  14  28  52  80 105 129 167 221 276 330
#     4  11  21  37  61  86 111 135 170 227 288 338
#     4   9  17  33  57  84 111 137 166 211 277 337
#
# _framework density 17.659275999999998
#
# number of rings (size 3 to 8) (size 9 to 14) (size 15 to 20)
#    0.000    2.333    2.500    2.000    0.000    4.000 
#    0.000    0.833    0.000    0.000    0.000    2.333 
#    0.000    0.000    0.000    0.000    0.000    0.000 
#
# Total GULP energy -267290.696610 kJ/mol
# GULP energy per Si atom -5568.556179 kJ/mol
# Density = 1.761908 g / cm^3
# Si number density = 17.659276 Si / 1000 Ang^3
#
#
#
# Elastic Constant Matrix: (Units=GPa)
#
#
# Indices 1 2 3 4 5 6 
#
# 1 118.8075 34.6132 52.1666 0.0000 0.0000 0.0000
# 2 34.6132 70.9726 25.8307 0.0000 0.0000 0.0000
# 3 52.1666 25.8307 65.9813 0.0002 0.0001 0.0000
# 4 0.0000 0.0000 0.0002 12.7755 0.0000 0.0000
# 5 0.0000 0.0000 0.0001 0.0000 -6.3293 0.0000
# 6 0.0000 0.0000 0.0000 0.0000 0.0000 20.9462
#
#
#
# Elastic Compliance Matrix: (Units=1/GPa)
#
#
# Indices 1 2 3 4 5 6 
#
# 1 0.013467 -0.003140 -0.009418 0.000000 0.000000 0.000000
# 2 -0.003140 0.017163 -0.004236 0.000000 0.000000 0.000000
# 3 -0.009418 -0.004236 0.024261 0.000000 0.000000 0.000000
# 4 0.000000 0.000000 0.000000 0.078275 0.000000 0.000000
# 5 0.000000 0.000000 0.000000 0.000000 -0.157994 0.000000
# 6 0.000000 0.000000 0.000000 0.000000 0.000000 0.047741
#
#
# Mechanical properties :
#
#
# Convention : Reuss Voigt Hill
#
# Bulk Modulus (GPa) = 46.94525 53.44251 50.19388
# Shear Modulus (GPa) = 78.61257 15.02187 46.81722
#
# Velocity S-wave (km/s) = 6.67929 2.91976 5.15451
# Velocity P-wave (km/s) = 9.28038 6.45720 7.99440
#
# Compressibility (1/GPa) = 0.02130141
#
# Stress axis : x y z
#
# Youngs Moduli (GPa) = 74.25425 58.26391 41.21904
#
# Poissons Ratio (x) = 0.18296 0.38821
# Poissons Ratio (y) = 0.23317 0.17462
# Poissons Ratio (z) = 0.69934 0.24683
#
# Static dielectric constant tensor:
#      x y z
#    x 1.602800 0.000000 0.000000 
#    y 0.000000 1.653040 0.000000 
#    z 0.000000 0.000000 1.594170 
# 
# From -- ./inp_files/22619.got.cif
#   From: 2010.05.17/outbox.cif.g08.bks.cpg/sg71_12_cif.got.tgz:22619.got - 2010.06.03 16:22:01.
