data_PCOD9522905
_publ_section_title
;
Structure prediction by ZEFSAII (Michael W. Deem and Ramdas Pophale) SiO2 
 PCOD9522905
Probable space group: I M M M
;
_chemical_formula_sum "Si O2"
_cell_formula_units_Z 104
_cell_length_a 28.001024
_cell_length_b 8.628816
_cell_length_c 22.004847
_cell_angle_alpha 90.000000
_cell_angle_beta 90.000000
_cell_angle_gamma 90.000000
_cell_volume 5316.716157
_symmetry_space_group_name_H-M "I M M M"
_symmetry_group_IT_number 71
_symmetry_cell_setting 'orthorhombic'
loop_
_space_group_symop_operation_xyz
x,y,z
-x,-y,z
x,-y,-z
-x,y,-z
-x,-y,-z
x,y,-z
-x,y,z
x,-y,z
1/2+x,1/2+y,1/2+z
1/2-x,1/2-y,1/2+z
1/2+x,1/2-y,1/2-z
1/2-x,1/2+y,1/2-z
1/2-x,1/2-y,1/2-z
1/2+x,1/2+y,1/2-z
1/2-x,1/2+y,1/2+z
1/2+x,1/2-y,1/2+z
loop_
_atom_site_type_symbol
_atom_site_label
_atom_site_fract_x
_atom_site_fract_y
_atom_site_fract_z
Si Si1 0.133156 0.311342 0.098204
Si Si2 0.630654 0.179477 0.736829
Si Si3 0.282694 0.315322 0.804416
Si Si4 0.058084 0.320140 0.433011
Si Si5 0.557072 0.326492 0.809208
Si Si6 0.555547 0.810587 0.500000
Si Si7 0.240885 0.688751 0.933469
O O1 0.131673 0.500000 0.098331
O O2 0.132836 0.259795 0.168168
O O3 0.087759 0.261531 0.058068
O O4 0.184812 0.268249 0.071472
O O5 0.664746 0.266802 0.783809
O O6 0.578040 0.203681 0.762656
O O7 0.644911 0.000000 0.735787
O O8 0.277745 0.500000 0.804771
O O9 0.250000 0.250000 0.750000
O O10 0.267133 0.258454 0.871625
O O11 0.074475 0.270646 0.500000
O O12 0.071562 0.500000 0.423371
O O13 0.073754 0.216181 0.377125
O O14 0.000000 0.316632 0.433900
O O15 0.500000 0.321374 0.809302
O O16 0.572209 0.500000 0.792486
O O17 0.500000 0.759677 0.500000
O O18 0.554558 0.000000 0.500000
O O19 0.242863 0.500000 0.932959
O O20 0.259224 0.740016 0.000000
#
# Coordination Sequence:
#
# PCOD9522905 Si02
#       7
#    16  16  16  16  16   8  16
#     4   9  16  28  48  75 106 141 184 227 278 341
#     4  11  22  36  55  81 112 149 190 235 288 342
#     4  11  21  35  57  85 113 145 187 236 293 353
#     4   8  14  27  49  75 100 129 169 217 269 322
#     4  10  21  36  53  76 108 147 189 232 279 333
#     4   9  16  26  44  76 117 149 179 235 296 339
#     4   9  16  30  54  81 109 143 185 235 286 341
#
# _framework density 19.560946999999999
#
# number of rings (size 3 to 8) (size 9 to 14) (size 15 to 20)
#    0.000    2.385    2.308    1.846    0.000    1.846 
#    0.000    3.846    0.000    4.615    0.000    1.615 
#    0.000    3.692    0.000    0.000    0.000    0.000 
#
# Total GULP energy -289807.542845 kJ/mol
# GULP energy per Si atom -5573.221978 kJ/mol
# Density = 1.951642 g / cm^3
# Si number density = 19.560947 Si / 1000 Ang^3
#
#
#
# Elastic Constant Matrix: (Units=GPa)
#
#
# Indices 1 2 3 4 5 6 
#
# 1 64.6353 12.1691 54.3496 0.0000 0.0000 0.0000
# 2 12.1691 15.2374 20.2408 0.0000 0.0000 0.0000
# 3 54.3496 20.2408 168.0071 0.0000 0.0000 0.0000
# 4 0.0000 0.0000 0.0000 18.7276 0.0000 0.0000
# 5 0.0000 0.0000 0.0000 0.0000 30.1413 0.0000
# 6 0.0000 0.0000 0.0000 0.0000 0.0000 21.2954
#
#
#
# Elastic Compliance Matrix: (Units=1/GPa)
#
#
# Indices 1 2 3 4 5 6 
#
# 1 0.022429 -0.009851 -0.006069 0.000000 0.000000 0.000000
# 2 -0.009851 0.082459 -0.006748 0.000000 0.000000 0.000000
# 3 -0.006069 -0.006748 0.008728 0.000000 0.000000 0.000000
# 4 0.000000 0.000000 0.000000 0.053397 0.000000 0.000000
# 5 0.000000 0.000000 0.000000 0.000000 0.033177 0.000000
# 6 0.000000 0.000000 0.000000 0.000000 0.000000 0.046959
#
#
# Mechanical properties :
#
#
# Convention : Reuss Voigt Hill
#
# Bulk Modulus (GPa) = 14.64532 46.82210 30.73371
# Shear Modulus (GPa) = 15.86071 24.77420 20.31746
#
# Velocity S-wave (km/s) = 2.85061 3.56267 3.22634
# Velocity P-wave (km/s) = 4.28228 6.39625 5.44288
#
# Compressibility (1/GPa) = 0.06828122
#
# Stress axis : x y z
#
# Youngs Moduli (GPa) = 44.58454 12.12731 114.56938
#
# Poissons Ratio (x) = 0.11947 0.69532
# Poissons Ratio (y) = 0.43920 0.77306
# Poissons Ratio (z) = 0.27058 0.08183
#
# Static dielectric constant tensor:
#      x y z
#    x 1.728820 0.000000 0.000000 
#    y 0.000000 1.695710 0.000000 
#    z 0.000000 0.000000 1.707340 
# 
# From -- ./inp_files/56723.got.cif
#   From: 2010.05.17/outbox.cif.g08.bks.cpg/sg71_29_cif.got.tgz:56723.got - 2010.06.03 16:22:01.
