data_PCOD9522570
_publ_section_title
;
Structure prediction by ZEFSAII (Michael W. Deem and Ramdas Pophale) SiO2 
 PCOD9522570
Probable space group: I M M M
;
_chemical_formula_sum "Si O2"
_cell_formula_units_Z 100
_cell_length_a 19.398557
_cell_length_b 17.231681
_cell_length_c 14.931619
_cell_angle_alpha 90.000000
_cell_angle_beta 90.000000
_cell_angle_gamma 90.000000
_cell_volume 4991.188492
_symmetry_space_group_name_H-M "I M M M"
_symmetry_group_IT_number 71
_symmetry_cell_setting 'orthorhombic'
loop_
_space_group_symop_operation_xyz
x,y,z
-x,-y,z
x,-y,-z
-x,y,-z
-x,-y,-z
x,y,-z
-x,y,z
x,-y,z
1/2+x,1/2+y,1/2+z
1/2-x,1/2-y,1/2+z
1/2+x,1/2-y,1/2-z
1/2-x,1/2+y,1/2-z
1/2-x,1/2-y,1/2-z
1/2+x,1/2+y,1/2-z
1/2-x,1/2+y,1/2+z
1/2+x,1/2-y,1/2+z
loop_
_atom_site_type_symbol
_atom_site_label
_atom_site_fract_x
_atom_site_fract_y
_atom_site_fract_z
Si Si1 0.341229 0.272467 0.603794
Si Si2 0.123073 0.414276 0.658160
Si Si3 0.717471 0.586736 0.709443
Si Si4 0.367395 0.000000 0.500000
Si Si5 0.210457 0.158657 0.395506
Si Si6 0.074462 0.249907 0.396285
Si Si7 0.579694 0.120432 0.642081
O O1 0.353084 0.293478 0.500000
O O2 0.329607 0.347329 0.664978
O O3 0.270216 0.223054 0.608314
O O4 0.398371 0.210338 0.634775
O O5 0.108428 0.500000 0.621174
O O6 0.205555 0.405211 0.668638
O O7 0.092712 0.340573 0.608080
O O8 0.091520 0.407567 0.757384
O O9 0.692520 0.500000 0.690352
O O10 0.724317 0.597914 0.816674
O O11 0.374026 0.931752 0.577155
O O12 0.206992 0.131156 0.500000
O O13 0.139502 0.200328 0.365750
O O14 0.068878 0.228593 0.500000
O O15 0.000000 0.236286 0.351982
O O16 0.500000 0.108890 0.615651
#
# Coordination Sequence:
#
# PCOD9522570 Si02
#       7
#    16  16  16   4  16  16  16
#     4  11  22  38  61  85 114 161 204 241 289 349
#     4  11  22  35  53  82 118 157 192 230 284 345
#     4  11  23  39  59  86 120 155 201 254 294 337
#     4  12  25  40  56  92 136 156 181 234 291 362
#     4  10  20  38  61  85 112 148 194 247 299 356
#     4  10  21  37  58  83 112 148 191 239 292 350
#     4  12  23  37  59  88 126 159 188 232 290 359
#
# _framework density 20.035309000000002
#
# number of rings (size 3 to 8) (size 9 to 14) (size 15 to 20)
#    0.000    1.120    4.800    2.640    0.000    1.920 
#    0.000    2.400    0.000    1.920    0.000    3.360 
#    0.000    0.000    0.000    0.000    0.000    0.000 
#
# Total GULP energy -278751.269844 kJ/mol
# GULP energy per Si atom -5575.025397 kJ/mol
# Density = 1.998971 g / cm^3
# Si number density = 20.035309 Si / 1000 Ang^3
#
#
#
# Elastic Constant Matrix: (Units=GPa)
#
#
# Indices 1 2 3 4 5 6 
#
# 1 48.7995 6.5210 -8.2268 0.0000 0.0000 0.0000
# 2 6.5210 83.1768 23.3486 0.0000 0.0000 0.0000
# 3 -8.2268 23.3486 47.3780 0.0000 0.0000 0.0000
# 4 0.0000 0.0000 0.0000 -0.8010 0.0000 0.0000
# 5 0.0000 0.0000 0.0000 0.0000 10.8845 0.0000
# 6 0.0000 0.0000 0.0000 0.0000 0.0000 5.7886
#
#
#
# Elastic Compliance Matrix: (Units=1/GPa)
#
#
# Indices 1 2 3 4 5 6 
#
# 1 0.021829 -0.003221 0.005378 0.000000 0.000000 0.000000
# 2 -0.003221 0.014428 -0.007670 0.000000 0.000000 0.000000
# 3 0.005378 -0.007670 0.025820 0.000000 0.000000 0.000000
# 4 0.000000 0.000000 0.000000 -1.248456 0.000000 0.000000
# 5 0.000000 0.000000 0.000000 0.000000 0.091874 0.000000
# 6 0.000000 0.000000 0.000000 0.000000 0.000000 0.172753
#
#
# Mechanical properties :
#
#
# Convention : Reuss Voigt Hill
#
# Bulk Modulus (GPa) = 19.58798 24.73777 22.16287
# Shear Modulus (GPa) = -5.59466 13.68851 4.04692
#
# Velocity S-wave (km/s) = -1.67286 2.61668 1.42277
# Velocity P-wave (km/s) = 2.46306 4.63716 3.71281
#
# Compressibility (1/GPa) = 0.05105173
#
# Stress axis : x y z
#
# Youngs Moduli (GPa) = 45.81053 69.30933 38.72909
#
# Poissons Ratio (x) = 0.22324 -0.20828
# Poissons Ratio (y) = 0.14755 0.29704
# Poissons Ratio (z) = -0.24636 0.53158
#
# Static dielectric constant tensor:
#      x y z
#    x 1.771920 0.000000 0.000000 
#    y 0.000000 1.705220 0.000000 
#    z 0.000000 0.000000 1.746030 
# 
# From -- ./inp_files/38090.got.cif
#   From: 2010.05.17/outbox.cif.g08.bks.cpg/sg71_20_cif.got.tgz:38090.got - 2010.06.03 16:22:01.
