data_PCOD9522995
_publ_section_title
;
Structure prediction by ZEFSAII (Michael W. Deem and Ramdas Pophale) SiO2 
 PCOD9522995
Probable space group: I M M M
;
_chemical_formula_sum "Si O2"
_cell_formula_units_Z 72
_cell_length_a 32.426354
_cell_length_b 8.776649
_cell_length_c 13.431728
_cell_angle_alpha 90.000000
_cell_angle_beta 90.000000
_cell_angle_gamma 90.000000
_cell_volume 3822.598969
_symmetry_space_group_name_H-M "I M M M"
_symmetry_group_IT_number 71
_symmetry_cell_setting 'orthorhombic'
loop_
_space_group_symop_operation_xyz
x,y,z
-x,-y,z
x,-y,-z
-x,y,-z
-x,-y,-z
x,y,-z
-x,y,z
x,-y,z
1/2+x,1/2+y,1/2+z
1/2-x,1/2-y,1/2+z
1/2+x,1/2-y,1/2-z
1/2-x,1/2+y,1/2-z
1/2-x,1/2-y,1/2-z
1/2+x,1/2+y,1/2-z
1/2-x,1/2+y,1/2+z
1/2+x,1/2-y,1/2+z
loop_
_atom_site_type_symbol
_atom_site_label
_atom_site_fract_x
_atom_site_fract_y
_atom_site_fract_z
Si Si1 0.095286 0.681957 0.802004
Si Si2 0.048229 0.183716 0.386520
Si Si3 0.728720 0.180595 0.886104
Si Si4 0.815748 0.179449 0.202467
Si Si5 0.952690 0.314189 0.000000
O O1 0.092447 0.500000 0.796439
O O2 0.076319 0.749091 0.700437
O O3 0.142493 0.730876 0.816135
O O4 0.069853 0.735383 0.898954
O O5 0.059498 0.230549 0.500000
O O6 0.000000 0.225853 0.370625
O O7 0.050618 0.000000 0.382963
O O8 0.776947 0.217871 0.868289
O O9 0.701309 0.277630 0.811451
O O10 0.724059 0.000000 0.862361
O O11 0.717444 0.204891 0.000000
O O12 0.823881 0.000000 0.194420
O O13 0.952035 0.500000 0.000000
O O14 0.000000 0.264676 0.000000
#
# Coordination Sequence:
#
# PCOD9522995 Si02
#       5
#    16  16  16  16   8
#     4  11  22  36  57  84 114 150 190 233 277 333
#     4   9  19  37  59  82 110 144 182 229 285 338
#     4   9  19  37  59  80 107 144 183 228 278 331
#     4  10  21  36  55  82 112 143 181 227 278 331
#     4   9  20  38  57  81 115 153 191 235 285 331
#
# _framework density 18.835352
#
# number of rings (size 3 to 8) (size 9 to 14) (size 15 to 20)
#    0.000    2.333    0.000    2.667    1.556    4.000 
#    0.000    2.778    0.000    4.000    0.000    0.000 
#    0.000    0.000    0.000    0.000    0.000    0.000 
#
# Total GULP energy -200954.291862 kJ/mol
# GULP energy per Si atom -5582.063663 kJ/mol
# Density = 1.879248 g / cm^3
# Si number density = 18.835352 Si / 1000 Ang^3
#
#
#
# Elastic Constant Matrix: (Units=GPa)
#
#
# Indices 1 2 3 4 5 6 
#
# 1 87.4078 14.4845 30.6413 0.0000 0.0000 0.0000
# 2 14.4845 17.2429 15.0840 0.0000 0.0000 0.0000
# 3 30.6413 15.0840 79.1801 0.0000 0.0000 0.0000
# 4 0.0000 0.0000 0.0000 21.8223 0.0000 0.0000
# 5 0.0000 0.0000 0.0000 0.0000 -3.6898 0.0000
# 6 0.0000 0.0000 0.0000 0.0000 0.0000 -5.4659
#
#
#
# Elastic Compliance Matrix: (Units=1/GPa)
#
#
# Indices 1 2 3 4 5 6 
#
# 1 0.014215 -0.008555 -0.003871 0.000000 0.000000 0.000000
# 2 -0.008555 0.074741 -0.010928 0.000000 0.000000 0.000000
# 3 -0.003871 -0.010928 0.016209 0.000000 0.000000 0.000000
# 4 0.000000 0.000000 0.000000 0.045825 0.000000 0.000000
# 5 0.000000 0.000000 0.000000 0.000000 -0.271017 0.000000
# 6 0.000000 0.000000 0.000000 0.000000 0.000000 -0.182953
#
#
# Mechanical properties :
#
#
# Convention : Reuss Voigt Hill
#
# Bulk Modulus (GPa) = 17.10638 33.80561 25.45600
# Shear Modulus (GPa) = -21.11605 10.77472 -5.17066
#
# Velocity S-wave (km/s) = -3.35189 2.39435 -1.65866
# Velocity P-wave (km/s) = 2.42456 5.06269 3.14263
#
# Compressibility (1/GPa) = 0.05845771
#
# Stress axis : x y z
#
# Youngs Moduli (GPa) = 70.34634 13.37962 61.69277
#
# Poissons Ratio (x) = 0.11446 0.23884
# Poissons Ratio (y) = 0.60179 0.67416
# Poissons Ratio (z) = 0.27234 0.14621
#
# Static dielectric constant tensor:
#      x y z
#    x 1.633520 0.000000 0.000000 
#    y 0.000000 1.638970 0.000000 
#    z 0.000000 0.000000 1.638340 
# 
# From -- ./inp_files/39960.got.cif
#   From: 2010.05.17/outbox.cif.g08.bks.cpg/sg71_20_cif.got.tgz:39960.got - 2010.06.03 16:22:01.
