data_PCOD9522251
_publ_section_title
;
Structure prediction by ZEFSAII (Michael W. Deem and Ramdas Pophale) SiO2 
 PCOD9522251
Probable space group: I M M M
;
_chemical_formula_sum "Si O2"
_cell_formula_units_Z 90
_cell_length_a 7.690484
_cell_length_b 23.327191
_cell_length_c 24.579909
_cell_angle_alpha 90.000000
_cell_angle_beta 90.000000
_cell_angle_gamma 90.000000
_cell_volume 4409.571500
_symmetry_space_group_name_H-M "I M M M"
_symmetry_group_IT_number 71
_symmetry_cell_setting 'orthorhombic'
loop_
_space_group_symop_operation_xyz
x,y,z
-x,-y,z
x,-y,-z
-x,y,-z
-x,-y,-z
x,y,-z
-x,y,z
x,-y,z
1/2+x,1/2+y,1/2+z
1/2-x,1/2-y,1/2+z
1/2+x,1/2-y,1/2-z
1/2-x,1/2+y,1/2-z
1/2-x,1/2-y,1/2-z
1/2+x,1/2+y,1/2-z
1/2-x,1/2+y,1/2+z
1/2+x,1/2-y,1/2+z
loop_
_atom_site_type_symbol
_atom_site_label
_atom_site_fract_x
_atom_site_fract_y
_atom_site_fract_z
Si Si1 0.213349 0.274852 0.437399
Si Si2 0.707504 0.682592 0.254614
Si Si3 0.210232 0.564371 0.062350
Si Si4 0.192949 0.000000 0.907905
Si Si5 0.796846 0.619594 0.365656
Si Si6 0.703323 0.330272 0.863868
Si Si7 0.000000 0.500000 0.500000
O O1 0.268281 0.268111 0.500000
O O2 0.268604 0.334816 0.410672
O O3 0.275591 0.223144 0.398552
O O4 0.000000 0.273912 0.437443
O O5 0.500000 0.675752 0.259046
O O6 0.750000 0.750000 0.250000
O O7 0.781010 0.650899 0.307405
O O8 0.774742 0.659761 0.196477
O O9 0.264348 0.500000 0.077523
O O10 0.280171 0.613103 0.100842
O O11 0.000000 0.566156 0.063656
O O12 0.264088 0.574808 0.000000
O O13 0.210695 0.942173 0.871993
O O14 0.345912 0.000000 0.952426
O O15 0.000000 0.000000 0.932489
O O16 0.000000 0.610788 0.376875
O O17 0.500000 0.316286 0.855839
#
# Coordination Sequence:
#
# PCOD9522251 Si02
#       7
#    16  16  16   8  16  16   2
#     4   9  18  32  57  88 123 161 199 251 318 390
#     4  11  22  39  62  90 121 164 213 268 326 390
#     4   9  19  36  56  80 115 155 193 239 299 368
#     4  12  27  47  73 106 139 181 231 288 340 412
#     4  11  22  42  67  93 132 175 222 270 336 404
#     4  10  20  36  57  86 118 154 203 255 313 374
#     4  12  26  52  76 106 140 188 234 272 356 426
#
# _framework density 20.410146000000001
#
# number of rings (size 3 to 8) (size 9 to 14) (size 15 to 20)
#    0.000    1.778    2.667    2.267    1.244    2.844 
#    1.600    0.889    0.000    1.067    0.000    0.000 
#    0.000    0.000    0.000    0.000    0.000    0.000 
#
# Total GULP energy -251012.557404 kJ/mol
# GULP energy per Si atom -5578.056831 kJ/mol
# Density = 2.036369 g / cm^3
# Si number density = 20.410146 Si / 1000 Ang^3
#
#
#
# Elastic Constant Matrix: (Units=GPa)
#
#
# Indices 1 2 3 4 5 6 
#
# 1 64.4812 3.5488 9.0547 0.0000 0.0000 0.0000
# 2 3.5488 91.1443 57.0823 0.0000 0.0000 0.0000
# 3 9.0547 57.0823 115.9702 0.0000 0.0000 0.0000
# 4 0.0000 0.0000 0.0000 13.4153 0.0000 0.0000
# 5 0.0000 0.0000 0.0000 0.0000 24.4988 0.0000
# 6 0.0000 0.0000 0.0000 0.0000 0.0000 -11.2978
#
#
#
# Elastic Compliance Matrix: (Units=1/GPa)
#
#
# Indices 1 2 3 4 5 6 
#
# 1 0.015684 0.000226 -0.001336 0.000000 0.000000 0.000000
# 2 0.000226 0.015864 -0.007826 0.000000 0.000000 0.000000
# 3 -0.001336 -0.007826 0.012579 0.000000 0.000000 0.000000
# 4 0.000000 0.000000 0.000000 0.074542 0.000000 0.000000
# 5 0.000000 0.000000 0.000000 0.000000 0.040818 0.000000
# 6 0.000000 0.000000 0.000000 0.000000 0.000000 -0.088513
#
#
# Mechanical properties :
#
#
# Convention : Reuss Voigt Hill
#
# Bulk Modulus (GPa) = 38.08801 45.66305 41.87553
# Shear Modulus (GPa) = 51.23045 18.78392 35.00718
#
# Velocity S-wave (km/s) = 5.01547 3.03697 4.14597
# Velocity P-wave (km/s) = 7.22785 5.89227 6.59396
#
# Compressibility (1/GPa) = 0.02625498
#
# Stress axis : x y z
#
# Youngs Moduli (GPa) = 63.76119 63.03461 79.49497
#
# Poissons Ratio (x) = -0.01424 0.10618
# Poissons Ratio (y) = -0.01440 0.62215
# Poissons Ratio (z) = 0.08517 0.49333
#
# Static dielectric constant tensor:
#      x y z
#    x 1.779430 0.000000 0.000000 
#    y 0.000000 1.710400 0.000000 
#    z 0.000000 0.000000 1.724880 
# 
# From -- ./inp_files/50614.got.cif
#   From: 2010.05.17/outbox.cif.g08.bks.cpg/sg71_26_cif.got.tgz:50614.got - 2010.06.03 16:22:01.
