data_PCOD9522929
_publ_section_title
;
Structure prediction by ZEFSAII (Michael W. Deem and Ramdas Pophale) SiO2 
 PCOD9522929
Probable space group: I M M M
;
_chemical_formula_sum "Si O2"
_cell_formula_units_Z 96
_cell_length_a 32.756669
_cell_length_b 11.618124
_cell_length_c 14.686102
_cell_angle_alpha 90.000000
_cell_angle_beta 90.000000
_cell_angle_gamma 90.000000
_cell_volume 5589.105145
_symmetry_space_group_name_H-M "I M M M"
_symmetry_group_IT_number 71
_symmetry_cell_setting 'orthorhombic'
loop_
_space_group_symop_operation_xyz
x,y,z
-x,-y,z
x,-y,-z
-x,y,-z
-x,-y,-z
x,y,-z
-x,y,z
x,-y,z
1/2+x,1/2+y,1/2+z
1/2-x,1/2-y,1/2+z
1/2+x,1/2-y,1/2-z
1/2-x,1/2+y,1/2-z
1/2-x,1/2-y,1/2-z
1/2+x,1/2+y,1/2-z
1/2-x,1/2+y,1/2+z
1/2+x,1/2-y,1/2+z
loop_
_atom_site_type_symbol
_atom_site_label
_atom_site_fract_x
_atom_site_fract_y
_atom_site_fract_z
Si Si1 0.419911 0.237999 0.179135
Si Si2 0.253611 0.635422 0.500000
Si Si3 0.152645 0.874485 0.395884
Si Si4 0.685246 0.138949 0.500000
Si Si5 0.139383 0.631440 0.809816
Si Si6 0.000000 0.861885 0.391139
Si Si7 0.452850 0.000000 0.108591
Si Si8 0.712971 0.212197 0.186427
O O1 0.384992 0.290193 0.115622
O O2 0.396250 0.217802 0.275212
O O3 0.460224 0.314022 0.161788
O O4 0.431620 0.112551 0.145531
O O5 0.269337 0.500000 0.500000
O O6 0.283165 0.751186 0.500000
O O7 0.227755 0.651174 0.593510
O O8 0.165280 0.877513 0.500000
O O9 0.190564 0.830180 0.340037
O O10 0.138836 0.000000 0.365945
O O11 0.657813 0.152844 0.409618
O O12 0.699749 0.000000 0.500000
O O13 0.124280 0.500000 0.807037
O O14 0.178126 0.643307 0.741330
O O15 0.000000 0.824753 0.500000
O O16 0.000000 0.000000 0.391488
O O17 0.500000 0.000000 0.137616
O O18 0.451663 0.000000 0.000000
O O19 0.750000 0.250000 0.250000
#
# Coordination Sequence:
#
# PCOD9522929 Si02
#       8
#    16   8  16   8  16   8   8  16
#     4  11  21  35  54  85 117 147 188 234 289 337
#     4  12  24  40  60  92 121 154 201 266 317 362
#     4  10  21  36  54  76 107 149 195 232 277 338
#     4  10  22  42  66  83 113 160 208 251 308 368
#     4  10  21  39  59  85 113 153 198 248 295 358
#     4  11  22  37  59  86 121 161 198 235 281 352
#     4  11  20  32  54  83 117 153 183 218 282 355
#     4  11  22  38  56  82 118 155 199 246 306 356
#
# _framework density 17.176273999999999
#
# number of rings (size 3 to 8) (size 9 to 14) (size 15 to 20)
#    0.000    1.333    4.167    2.500    0.000    3.333 
#    0.000    0.833    0.000    0.500    0.000    2.917 
#    0.000    0.000    0.000    0.000    0.000    0.000 
#
# Total GULP energy -267333.985155 kJ/mol
# GULP energy per Si atom -5569.458024 kJ/mol
# Density = 1.713718 g / cm^3
# Si number density = 17.176274 Si / 1000 Ang^3
#
#
#
# Elastic Constant Matrix: (Units=GPa)
#
#
# Indices 1 2 3 4 5 6 
#
# 1 106.9460 39.7351 49.1304 0.0000 0.0000 0.0000
# 2 39.7351 102.1065 34.2118 0.0000 0.0000 0.0000
# 3 49.1304 34.2118 108.8282 0.0000 0.0000 0.0000
# 4 0.0000 0.0000 0.0000 15.0994 0.0000 0.0000
# 5 0.0000 0.0000 0.0000 0.0000 21.2086 0.0000
# 6 0.0000 0.0000 0.0000 0.0000 0.0000 27.2453
#
#
#
# Elastic Compliance Matrix: (Units=1/GPa)
#
#
# Indices 1 2 3 4 5 6 
#
# 1 0.012770 -0.003396 -0.004698 0.000000 0.000000 0.000000
# 2 -0.003396 0.011850 -0.002192 0.000000 0.000000 0.000000
# 3 -0.004698 -0.002192 0.011999 0.000000 0.000000 0.000000
# 4 0.000000 0.000000 0.000000 0.066228 0.000000 0.000000
# 5 0.000000 0.000000 0.000000 0.000000 0.047151 0.000000
# 6 0.000000 0.000000 0.000000 0.000000 0.000000 0.036704
#
#
# Mechanical properties :
#
#
# Convention : Reuss Voigt Hill
#
# Bulk Modulus (GPa) = 62.31423 62.67059 62.49241
# Shear Modulus (GPa) = 23.51608 25.69756 24.60682
#
# Velocity S-wave (km/s) = 3.70415 3.87215 3.78908
# Velocity P-wave (km/s) = 7.39272 7.52046 7.45687
#
# Compressibility (1/GPa) = 0.01604770
#
# Stress axis : x y z
#
# Youngs Moduli (GPa) = 78.30742 84.39096 83.34254
#
# Poissons Ratio (x) = 0.28656 0.39151
# Poissons Ratio (y) = 0.26590 0.18270
# Poissons Ratio (z) = 0.36786 0.18500
#
# Static dielectric constant tensor:
#      x y z
#    x 1.587260 0.000000 0.000000 
#    y 0.000000 1.623540 0.000000 
#    z 0.000000 0.000000 1.579210 
# 
# From -- ./inp_files/40912.got.cif
#   From: 2010.05.17/outbox.cif.g08.bks.cpg/sg71_21_cif.got.tgz:40912.got - 2010.06.03 16:22:01.
