data_PCOD9522403
_publ_section_title
;
Structure prediction by ZEFSAII (Michael W. Deem and Ramdas Pophale) SiO2 
 PCOD9522403
Probable space group: I M M M
;
_chemical_formula_sum "Si O2"
_cell_formula_units_Z 36
_cell_length_a 7.376709
_cell_length_b 20.817437
_cell_length_c 12.525928
_cell_angle_alpha 90.000000
_cell_angle_beta 90.000000
_cell_angle_gamma 90.000000
_cell_volume 1923.533798
_symmetry_space_group_name_H-M "I M M M"
_symmetry_group_IT_number 71
_symmetry_cell_setting 'orthorhombic'
loop_
_space_group_symop_operation_xyz
x,y,z
-x,-y,z
x,-y,-z
-x,y,-z
-x,-y,-z
x,y,-z
-x,y,z
x,-y,z
1/2+x,1/2+y,1/2+z
1/2-x,1/2-y,1/2+z
1/2+x,1/2-y,1/2-z
1/2-x,1/2+y,1/2-z
1/2-x,1/2-y,1/2-z
1/2+x,1/2+y,1/2-z
1/2-x,1/2+y,1/2+z
1/2+x,1/2-y,1/2+z
loop_
_atom_site_type_symbol
_atom_site_label
_atom_site_fract_x
_atom_site_fract_y
_atom_site_fract_z
Si Si1 0.705426 0.105925 0.500000
Si Si2 0.500000 0.231359 0.500000
Si Si3 0.215627 0.574753 0.765479
Si Si4 0.500000 0.355955 0.378677
O O1 0.500000 0.077382 0.500000
O O2 0.669205 0.182616 0.500000
O O3 0.783523 0.085264 0.387057
O O4 0.500000 0.279335 0.399507
O O5 0.240873 0.500000 0.737444
O O6 0.326761 0.619208 0.685649
O O7 0.000000 0.589184 0.763256
O O8 0.500000 0.382641 0.500000
#
# Coordination Sequence:
#
# PCOD9522403 Si02
#       4
#     8   4  16   8
#     4   8  17  37  58  86 111 142 187 238 287 330
#     4   8  20  40  56  80 120 156 184 232 278 332
#     4  10  20  36  62  87 113 147 187 242 292 330
#     4  10  23  39  54  84 118 159 189 226 274 340
#
# _framework density 18.715553
#
# number of rings (size 3 to 8) (size 9 to 14) (size 15 to 20)
#    1.333    1.333    0.000    1.333    0.000    8.000 
#    0.000    4.444    4.889    0.000    0.000    0.000 
#    0.000    0.000    0.000    0.000    0.000    0.000 
#
# Total GULP energy -100207.982830 kJ/mol
# GULP energy per Si atom -5567.110157 kJ/mol
# Density = 1.867296 g / cm^3
# Si number density = 18.715553 Si / 1000 Ang^3
#
#
#
# Elastic Constant Matrix: (Units=GPa)
#
#
# Indices 1 2 3 4 5 6 
#
# 1 66.3501 21.3829 11.7936 0.0000 0.0000 0.0000
# 2 21.3829 95.3613 6.9054 0.0000 0.0000 0.0000
# 3 11.7936 6.9054 78.9134 -0.0001 0.0000 0.0000
# 4 0.0000 0.0000 -0.0001 51.0648 0.0000 0.0000
# 5 0.0000 0.0000 0.0000 0.0000 48.7717 0.0000
# 6 0.0000 0.0000 0.0000 0.0000 0.0000 -78.9931
#
#
#
# Elastic Compliance Matrix: (Units=1/GPa)
#
#
# Indices 1 2 3 4 5 6 
#
# 1 0.016607 -0.003567 -0.002170 0.000000 0.000000 0.000000
# 2 -0.003567 0.011319 -0.000457 0.000000 0.000000 0.000000
# 3 -0.002170 -0.000457 0.013036 0.000000 0.000000 0.000000
# 4 0.000000 0.000000 0.000000 0.019583 0.000000 0.000000
# 5 0.000000 0.000000 0.000000 0.000000 0.020504 0.000000
# 6 0.000000 0.000000 0.000000 0.000000 0.000000 -0.012659
#
#
# Mechanical properties :
#
#
# Convention : Reuss Voigt Hill
#
# Bulk Modulus (GPa) = 34.99598 35.64317 35.31958
# Shear Modulus (GPa) = 55.36957 17.53821 36.45389
#
# Velocity S-wave (km/s) = 5.44509 3.06452 4.41816
# Velocity P-wave (km/s) = 7.63358 5.62207 6.70370
#
# Compressibility (1/GPa) = 0.02857471
#
# Stress axis : x y z
#
# Youngs Moduli (GPa) = 60.21677 88.34463 76.70812
#
# Poissons Ratio (x) = 0.31509 0.16644
# Poissons Ratio (y) = 0.21477 0.03509
# Poissons Ratio (z) = 0.13066 0.04042
#
# Static dielectric constant tensor:
#      x y z
#    x 1.684800 0.000000 0.000000 
#    y 0.000000 1.634990 0.000000 
#    z 0.000000 0.000000 1.643090 
# 
# From -- ./inp_files/1888.got.cif
#   From: 2010.05.17/outbox.cif.g08.bks.cpg/sg71_1_cif.got.tgz:1888.got - 2010.06.03 16:22:01.
