data_PCOD9522706
_publ_section_title
;
Structure prediction by ZEFSAII (Michael W. Deem and Ramdas Pophale) SiO2 
 PCOD9522706
Probable space group: I M M M
;
_chemical_formula_sum "Si O2"
_cell_formula_units_Z 88
_cell_length_a 8.257144
_cell_length_b 31.278985
_cell_length_c 15.328079
_cell_angle_alpha 90.000000
_cell_angle_beta 90.000000
_cell_angle_gamma 90.000000
_cell_volume 3958.860881
_symmetry_space_group_name_H-M "I M M M"
_symmetry_group_IT_number 71
_symmetry_cell_setting 'orthorhombic'
loop_
_space_group_symop_operation_xyz
x,y,z
-x,-y,z
x,-y,-z
-x,y,-z
-x,-y,-z
x,y,-z
-x,y,z
x,-y,z
1/2+x,1/2+y,1/2+z
1/2-x,1/2-y,1/2+z
1/2+x,1/2-y,1/2-z
1/2-x,1/2+y,1/2-z
1/2-x,1/2-y,1/2-z
1/2+x,1/2+y,1/2-z
1/2-x,1/2+y,1/2+z
1/2+x,1/2-y,1/2+z
loop_
_atom_site_type_symbol
_atom_site_label
_atom_site_fract_x
_atom_site_fract_y
_atom_site_fract_z
Si Si1 0.805468 0.271593 0.161377
Si Si2 0.500000 0.451135 0.393520
Si Si3 0.681723 0.316355 0.399869
Si Si4 0.324039 0.097826 0.893077
Si Si5 0.305109 0.862915 0.398049
Si Si6 0.694316 0.546247 0.103786
O O1 0.750000 0.250000 0.250000
O O2 0.760020 0.232429 0.098397
O O3 0.741636 0.319068 0.144838
O O4 0.000000 0.275198 0.157837
O O5 0.500000 0.500000 0.364319
O O6 0.500000 0.450536 0.500000
O O7 0.335572 0.427713 0.365341
O O8 0.663153 0.329300 0.500000
O O9 0.500000 0.318163 0.360234
O O10 0.797863 0.352881 0.363247
O O11 0.500000 0.082418 0.862399
O O12 0.328839 0.095288 0.000000
O O13 0.253818 0.861323 0.500000
O O14 0.500000 0.861997 0.396734
O O15 0.254028 0.908599 0.359337
O O16 0.500000 0.546475 0.109081
O O17 0.751878 0.500000 0.138941
O O18 0.737719 0.546615 0.000000
#
# Coordination Sequence:
#
# PCOD9522706 Si02
#       6
#    16   8  16  16  16  16
#     4  10  21  34  48  69  99 132 166 205 252 303
#     4   9  16  26  40  62  96 130 156 194 250 304
#     4   9  16  30  51  69  90 125 166 205 248 300
#     4   9  16  26  42  66  93 122 161 202 240 292
#     4   9  17  30  48  71  99 132 172 212 250 297
#     4   8  14  25  42  67  99 131 161 197 245 297
#
# _framework density 22.228617
#
# number of rings (size 3 to 8) (size 9 to 14) (size 15 to 20)
#    0.000    3.000    0.909    1.091    0.000    4.364 
#    0.000    3.636    0.000    5.455    0.000    1.273 
#    0.000    2.909    0.000    0.182    0.000    0.182 
#
# Total GULP energy -245053.032377 kJ/mol
# GULP energy per Si atom -5569.387099 kJ/mol
# Density = 2.217802 g / cm^3
# Si number density = 22.228617 Si / 1000 Ang^3
#
#
#
# Elastic Constant Matrix: (Units=GPa)
#
#
# Indices 1 2 3 4 5 6 
#
# 1 81.2537 71.9117 6.9673 0.0000 0.0000 0.0000
# 2 71.9117 237.5737 21.2168 0.0000 0.0000 0.0000
# 3 6.9673 21.2168 20.8670 0.0000 0.0000 0.0000
# 4 0.0000 0.0000 0.0000 2.1219 0.0000 0.0000
# 5 0.0000 0.0000 0.0000 0.0000 9.4923 0.0000
# 6 0.0000 0.0000 0.0000 0.0000 0.0000 18.4457
#
#
#
# Elastic Compliance Matrix: (Units=1/GPa)
#
#
# Indices 1 2 3 4 5 6 
#
# 1 0.016815 -0.005047 -0.000483 0.000000 0.000000 0.000000
# 2 -0.005047 0.006144 -0.004562 0.000000 0.000000 0.000000
# 3 -0.000483 -0.004562 0.052723 0.000000 0.000000 0.000000
# 4 0.000000 0.000000 0.000000 0.471280 0.000000 0.000000
# 5 0.000000 0.000000 0.000000 0.000000 0.105349 0.000000
# 6 0.000000 0.000000 0.000000 0.000000 0.000000 0.054213
#
#
# Mechanical properties :
#
#
# Convention : Reuss Voigt Hill
#
# Bulk Modulus (GPa) = 18.01874 59.98734 39.00304
# Shear Modulus (GPa) = 6.70955 21.98523 14.34739
#
# Velocity S-wave (km/s) = 1.73925 3.14833 2.54332
# Velocity P-wave (km/s) = 3.48669 6.34516 5.11948
#
# Compressibility (1/GPa) = 0.05549779
#
# Stress axis : x y z
#
# Youngs Moduli (GPa) = 59.47096 162.75464 18.96723
#
# Poissons Ratio (x) = 0.82136 0.00916
# Poissons Ratio (y) = 0.30013 0.08653
# Poissons Ratio (z) = 0.02873 0.74252
#
# Static dielectric constant tensor:
#      x y z
#    x 1.816870 0.000000 0.000000 
#    y 0.000000 1.860470 0.000000 
#    z 0.000000 0.000000 1.850070 
# 
# From -- ./inp_files/42466.got.cif
#   From: 2010.05.17/outbox.cif.g08.bks.cpg/sg71_22_cif.got.tgz:42466.got - 2010.06.03 16:22:01.
