data_PCOD9522171
_publ_section_title
;
Structure prediction by ZEFSAII (Michael W. Deem and Ramdas Pophale) SiO2 
 PCOD9522171
Probable space group: I M M M
;
_chemical_formula_sum "Si O2"
_cell_formula_units_Z 116
_cell_length_a 7.690939
_cell_length_b 29.571632
_cell_length_c 24.594931
_cell_angle_alpha 90.000000
_cell_angle_beta 90.000000
_cell_angle_gamma 90.000000
_cell_volume 5593.714138
_symmetry_space_group_name_H-M "I M M M"
_symmetry_group_IT_number 71
_symmetry_cell_setting 'orthorhombic'
loop_
_space_group_symop_operation_xyz
x,y,z
-x,-y,z
x,-y,-z
-x,y,-z
-x,-y,-z
x,y,-z
-x,y,z
x,-y,z
1/2+x,1/2+y,1/2+z
1/2-x,1/2-y,1/2+z
1/2+x,1/2-y,1/2-z
1/2-x,1/2+y,1/2-z
1/2-x,1/2-y,1/2-z
1/2+x,1/2+y,1/2-z
1/2-x,1/2+y,1/2+z
1/2+x,1/2-y,1/2+z
loop_
_atom_site_type_symbol
_atom_site_label
_atom_site_fract_x
_atom_site_fract_y
_atom_site_fract_z
Si Si1 0.792240 0.697189 0.250112
Si Si2 0.786727 0.428003 0.106381
Si Si3 0.794840 0.858918 0.939775
Si Si4 0.292133 0.245114 0.938784
Si Si5 0.000000 0.000000 0.572148
Si Si6 0.201732 0.119496 0.825633
Si Si7 0.794343 0.330366 0.133302
Si Si8 0.206283 0.450379 0.231745
O O1 0.750000 0.750000 0.250000
O O2 0.723096 0.669754 0.301397
O O3 0.722014 0.674744 0.194392
O O4 0.000000 0.692353 0.251386
O O5 0.656498 0.460693 0.074328
O O6 0.740389 0.374916 0.100362
O O7 0.743076 0.437456 0.170359
O O8 0.000000 0.434959 0.098206
O O9 0.780413 0.805009 0.929966
O O10 0.718039 0.882455 0.886020
O O11 0.000000 0.869616 0.942512
O O12 0.719778 0.868168 0.000000
O O13 0.500000 0.241301 0.936244
O O14 0.236097 0.283566 0.897339
O O15 0.240990 0.258894 0.000000
O O16 0.262005 0.085701 0.778723
O O17 0.000000 0.110046 0.832242
O O18 0.000000 0.336806 0.140497
O O19 0.280575 0.500000 0.244678
O O20 0.000000 0.453924 0.228441
#
# Coordination Sequence:
#
# PCOD9522171 Si02
#       8
#    16  16  16  16   4  16  16  16
#     4  11  22  35  49  72 108 147 177 213 266 325
#     4  10  21  36  53  81 113 147 188 231 275 344
#     4   9  19  37  56  75 104 143 184 228 276 326
#     4  10  21  35  54  81 109 138 182 234 274 319
#     4  12  22  32  60  82 109 154 187 228 296 320
#     4  11  22  33  53  81 106 137 184 226 269 334
#     4  10  21  36  53  74 109 147 181 220 271 329
#     4  10  20  36  54  74 109 145 176 224 279 326
#
# _framework density 20.737562
#
# number of rings (size 3 to 8) (size 9 to 14) (size 15 to 20)
#    0.000    1.793    2.069    2.276    1.931    6.621 
#    0.000    0.000    0.000    0.414    0.000    3.862 
#    0.000    2.207    0.000    0.000    0.000    0.000 
#
# Total GULP energy -323029.686917 kJ/mol
# GULP energy per Si atom -5569.477361 kJ/mol
# Density = 2.069036 g / cm^3
# Si number density = 20.737562 Si / 1000 Ang^3
#
#
#
# Elastic Constant Matrix: (Units=GPa)
#
#
# Indices 1 2 3 4 5 6 
#
# 1 49.6687 -2.7541 -10.8395 0.0000 0.0000 0.0000
# 2 -2.7541 38.5146 -8.7916 0.0000 0.0000 0.0000
# 3 -10.8395 -8.7916 52.9357 0.0000 0.0000 0.0000
# 4 0.0000 0.0000 0.0000 -20.3142 0.0000 0.0000
# 5 0.0000 0.0000 0.0000 0.0000 6.4713 0.0000
# 6 0.0000 0.0000 0.0000 0.0000 0.0000 28.8825
#
#
#
# Elastic Compliance Matrix: (Units=1/GPa)
#
#
# Indices 1 2 3 4 5 6 
#
# 1 0.021327 0.002621 0.004802 0.000000 0.000000 0.000000
# 2 0.002621 0.027309 0.005072 0.000000 0.000000 0.000000
# 3 0.004802 0.005072 0.020717 0.000000 0.000000 0.000000
# 4 0.000000 0.000000 0.000000 -0.049227 0.000000 0.000000
# 5 0.000000 0.000000 0.000000 0.000000 0.154529 0.000000
# 6 0.000000 0.000000 0.000000 0.000000 0.000000 0.034623
#
#
# Mechanical properties :
#
#
# Convention : Reuss Voigt Hill
#
# Bulk Modulus (GPa) = 10.59941 10.70540 10.65240
# Shear Modulus (GPa) = 23.17660 13.90818 18.54239
#
# Velocity S-wave (km/s) = 3.34670 2.59255 2.99347
# Velocity P-wave (km/s) = 4.47841 3.75969 4.13470
#
# Compressibility (1/GPa) = 0.09434484
#
# Stress axis : x y z
#
# Youngs Moduli (GPa) = 46.88932 36.61734 48.27041
#
# Poissons Ratio (x) = -0.09598 -0.23181
# Poissons Ratio (y) = -0.12291 -0.24484
# Poissons Ratio (z) = -0.22518 -0.18574
#
# Static dielectric constant tensor:
#      x y z
#    x 1.783820 0.000000 0.000000 
#    y 0.000000 1.751890 0.000000 
#    z 0.000000 0.000000 1.809490 
# 
# From -- ./inp_files/58282.got.cif
#   From: 2010.05.17/outbox.cif.g08.bks.cpg/sg71_30_cif.got.tgz:58282.got - 2010.06.03 16:22:01.
