data_PCOD9522061
_publ_section_title
;
Structure prediction by ZEFSAII (Michael W. Deem and Ramdas Pophale) SiO2 
 PCOD9522061
Probable space group: I M M M
;
_chemical_formula_sum "Si O2"
_cell_formula_units_Z 64
_cell_length_a 30.920643
_cell_length_b 8.581510
_cell_length_c 10.924974
_cell_angle_alpha 90.000000
_cell_angle_beta 90.000000
_cell_angle_gamma 90.000000
_cell_volume 2898.896044
_symmetry_space_group_name_H-M "I M M M"
_symmetry_group_IT_number 71
_symmetry_cell_setting 'orthorhombic'
loop_
_space_group_symop_operation_xyz
x,y,z
-x,-y,z
x,-y,-z
-x,y,-z
-x,-y,-z
x,y,-z
-x,y,z
x,-y,z
1/2+x,1/2+y,1/2+z
1/2-x,1/2-y,1/2+z
1/2+x,1/2-y,1/2-z
1/2-x,1/2+y,1/2-z
1/2-x,1/2-y,1/2-z
1/2+x,1/2+y,1/2-z
1/2-x,1/2+y,1/2+z
1/2+x,1/2-y,1/2+z
loop_
_atom_site_type_symbol
_atom_site_label
_atom_site_fract_x
_atom_site_fract_y
_atom_site_fract_z
Si Si1 0.931838 0.326594 0.500000
Si Si2 0.226390 0.314269 0.131221
Si Si3 0.652696 0.675899 0.000000
Si Si4 0.858146 0.812881 0.228140
Si Si5 0.546797 0.819335 0.277383
O O1 0.909631 0.500000 0.500000
O O2 0.899679 0.181261 0.500000
O O3 0.955329 0.320073 0.371063
O O4 0.227559 0.500000 0.136137
O O5 0.250000 0.250000 0.250000
O O6 0.177200 0.255589 0.137667
O O7 0.246159 0.264447 0.000000
O O8 0.658299 0.744900 0.136116
O O9 0.670216 0.500000 0.000000
O O10 0.907188 0.762169 0.197688
O O11 0.856279 0.000000 0.231000
O O12 0.500000 0.756931 0.322201
O O13 0.550075 0.000000 0.316853
#
# Coordination Sequence:
#
# PCOD9522061 Si02
#       5
#     8  16   8  16  16
#     4   8  13  22  38  64 102 150 204 256 302 353
#     4  11  26  47  71  99 130 164 207 260 317 382
#     4   8  16  29  47  77 116 158 200 248 301 357
#     4  10  20  35  57  86 124 166 210 260 315 376
#     4   9  16  27  46  75 114 161 212 262 312 369
#
# _framework density 22.077370999999999
#
# number of rings (size 3 to 8) (size 9 to 14) (size 15 to 20)
#    0.000    2.500    0.000    1.875    1.750    5.000 
#    0.000    0.000    0.000    8.250    0.000    5.250 
#    0.000    0.000    0.000    0.000    0.000    0.000 
#
# Total GULP energy -178189.347564 kJ/mol
# GULP energy per Si atom -5568.417111 kJ/mol
# Density = 2.202712 g / cm^3
# Si number density = 22.077371 Si / 1000 Ang^3
#
#
#
# Elastic Constant Matrix: (Units=GPa)
#
#
# Indices 1 2 3 4 5 6 
#
# 1 130.9988 37.5715 49.3031 0.0000 0.0000 0.0000
# 2 37.5715 56.3811 32.9840 0.0000 0.0000 0.0000
# 3 49.3031 32.9840 103.1010 0.0000 0.0000 0.0000
# 4 0.0000 0.0000 0.0000 12.0642 0.0000 0.0000
# 5 0.0000 0.0000 0.0000 0.0000 -15.3935 0.0000
# 6 0.0000 0.0000 0.0000 0.0000 0.0000 23.5601
#
#
#
# Elastic Compliance Matrix: (Units=1/GPa)
#
#
# Indices 1 2 3 4 5 6 
#
# 1 0.010304 -0.004901 -0.003359 0.000000 0.000000 0.000000
# 2 -0.004901 0.024151 -0.005383 0.000000 0.000000 0.000000
# 3 -0.003359 -0.005383 0.013028 0.000000 0.000000 0.000000
# 4 0.000000 0.000000 0.000000 0.082890 0.000000 0.000000
# 5 0.000000 0.000000 0.000000 0.000000 -0.064963 0.000000
# 6 0.000000 0.000000 0.000000 0.000000 0.000000 0.042445
#
#
# Mechanical properties :
#
#
# Convention : Reuss Voigt Hill
#
# Bulk Modulus (GPa) = 49.51335 58.91090 54.21213
# Shear Modulus (GPa) = 35.24270 15.42097 25.33183
#
# Velocity S-wave (km/s) = 3.99974 2.64578 3.39102
# Velocity P-wave (km/s) = 6.61864 6.00627 6.31988
#
# Compressibility (1/GPa) = 0.02019657
#
# Stress axis : x y z
#
# Youngs Moduli (GPa) = 97.05358 41.40540 76.75919
#
# Poissons Ratio (x) = 0.20292 0.25786
# Poissons Ratio (y) = 0.47565 0.41319
# Poissons Ratio (z) = 0.32603 0.22288
#
# Static dielectric constant tensor:
#      x y z
#    x 1.859660 0.000000 0.000000 
#    y 0.000000 1.780670 0.000000 
#    z 0.000000 0.000000 1.863370 
# 
# From -- ./inp_files/29475.got.cif
#   From: 2010.05.17/outbox.cif.g08.bks.cpg/sg71_15_cif.got.tgz:29475.got - 2010.06.03 16:22:01.
