data_PCOD9522558
_publ_section_title
;
Structure prediction by ZEFSAII (Michael W. Deem and Ramdas Pophale) SiO2 
 PCOD9522558
Probable space group: I M M M
;
_chemical_formula_sum "Si O2"
_cell_formula_units_Z 90
_cell_length_a 11.961603
_cell_length_b 23.966019
_cell_length_c 16.985045
_cell_angle_alpha 90.000000
_cell_angle_beta 90.000000
_cell_angle_gamma 90.000000
_cell_volume 4869.136901
_symmetry_space_group_name_H-M "I M M M"
_symmetry_group_IT_number 71
_symmetry_cell_setting 'orthorhombic'
loop_
_space_group_symop_operation_xyz
x,y,z
-x,-y,z
x,-y,-z
-x,y,-z
-x,-y,-z
x,y,-z
-x,y,z
x,-y,z
1/2+x,1/2+y,1/2+z
1/2-x,1/2-y,1/2+z
1/2+x,1/2-y,1/2-z
1/2-x,1/2+y,1/2-z
1/2-x,1/2-y,1/2-z
1/2+x,1/2+y,1/2-z
1/2-x,1/2+y,1/2+z
1/2+x,1/2-y,1/2+z
loop_
_atom_site_type_symbol
_atom_site_label
_atom_site_fract_x
_atom_site_fract_y
_atom_site_fract_z
Si Si1 0.743609 0.644158 0.623211
Si Si2 0.785091 0.136300 0.310687
Si Si3 0.500000 0.393660 0.613796
Si Si4 0.000000 0.066550 0.705237
Si Si5 0.500000 0.500000 0.500000
Si Si6 0.133870 0.437872 0.090474
Si Si7 0.633224 0.260188 0.909363
Si Si8 0.634407 0.066275 0.000000
O O1 0.741234 0.638044 0.717794
O O2 0.613730 0.640033 0.598084
O O3 0.803175 0.701745 0.600925
O O4 0.809609 0.595614 0.576072
O O5 0.888468 0.094622 0.328559
O O6 0.681032 0.110369 0.355852
O O7 0.819765 0.195600 0.346851
O O8 0.500000 0.412521 0.704568
O O9 0.500000 0.450750 0.566499
O O10 0.000000 0.000000 0.699317
O O11 0.169267 0.500000 0.117663
O O12 0.000000 0.437065 0.090845
O O13 0.170908 0.431061 0.000000
O O14 0.500000 0.252652 0.897282
O O15 0.649147 0.279621 0.000000
O O16 0.500000 0.074493 0.000000
O O17 0.658088 0.000000 0.000000
#
# Coordination Sequence:
#
# PCOD9522558 Si02
#       8
#    16  16   8   8   2  16  16   8
#     4  11  24  42  64  92 128 169 210 265 318 381
#     4  11  22  39  63  94 123 165 217 258 320 384
#     4  10  24  36  62  95 126 168 207 247 317 388
#     4  10  20  38  57  92 134 156 198 264 309 366
#     4  12  20  36  64  88 126 176 206 228 322 390
#     4   9  19  37  59  86 122 160 201 254 318 383
#     4  11  23  43  67  87 123 171 218 267 323 378
#     4  11  25  44  67  99 133 169 220 268 315 388
#
# _framework density 18.483768999999999
#
# number of rings (size 3 to 8) (size 9 to 14) (size 15 to 20)
#    0.000    1.511    2.222    3.200    2.489    2.844 
#    1.600    1.778    0.000    2.133    0.000    0.000 
#    0.000    0.000    0.000    0.000    0.000    0.000 
#
# Total GULP energy -250950.711827 kJ/mol
# GULP energy per Si atom -5576.682485 kJ/mol
# Density = 1.844170 g / cm^3
# Si number density = 18.483769 Si / 1000 Ang^3
#
#
#
# Elastic Constant Matrix: (Units=GPa)
#
#
# Indices 1 2 3 4 5 6 
#
# 1 91.7886 63.4629 53.5195 0.0000 0.0000 0.0000
# 2 63.4629 128.6642 55.7936 0.0000 0.0000 0.0000
# 3 53.5195 55.7936 97.3292 0.0001 0.0000 0.0000
# 4 0.0000 0.0000 0.0001 30.1527 0.0000 0.0000
# 5 0.0000 0.0000 0.0000 0.0000 50.4423 0.0000
# 6 0.0000 0.0000 0.0000 0.0000 0.0000 28.8818
#
#
#
# Elastic Compliance Matrix: (Units=1/GPa)
#
#
# Indices 1 2 3 4 5 6 
#
# 1 0.019515 -0.006617 -0.006938 0.000000 0.000000 0.000000
# 2 -0.006617 0.012587 -0.003577 0.000000 0.000000 0.000000
# 3 -0.006938 -0.003577 0.016140 0.000000 0.000000 0.000000
# 4 0.000000 0.000000 0.000000 0.033165 0.000000 0.000000
# 5 0.000000 0.000000 0.000000 0.000000 0.019825 0.000000
# 6 0.000000 0.000000 0.000000 0.000000 0.000000 0.034624
#
#
# Mechanical properties :
#
#
# Convention : Reuss Voigt Hill
#
# Bulk Modulus (GPa) = 71.53891 73.70378 72.62134
# Shear Modulus (GPa) = 28.60782 31.56243 30.08512
#
# Velocity S-wave (km/s) = 3.93838 4.13676 4.03879
# Velocity P-wave (km/s) = 7.71160 7.92329 7.81816
#
# Compressibility (1/GPa) = 0.01397841
#
# Stress axis : x y z
#
# Youngs Moduli (GPa) = 51.24298 79.44628 61.95919
#
# Poissons Ratio (x) = 0.52571 0.42985
# Poissons Ratio (y) = 0.33909 0.22162
# Poissons Ratio (z) = 0.35550 0.28417
#
# Static dielectric constant tensor:
#      x y z
#    x 1.653940 0.000000 0.000000 
#    y 0.000000 1.605090 0.000000 
#    z 0.000000 0.000000 1.662900 
# 
# From -- ./inp_files/43422.got.cif
#   From: 2010.05.17/outbox.cif.g08.bks.cpg/sg71_22_cif.got.tgz:43422.got - 2010.06.03 16:22:01.
