data_PCOD9522138
_publ_section_title
;
Structure prediction by ZEFSAII (Michael W. Deem and Ramdas Pophale) SiO2 
 PCOD9522138
Probable space group: I M M M
;
_chemical_formula_sum "Si O2"
_cell_formula_units_Z 68
_cell_length_a 17.649461
_cell_length_b 7.605824
_cell_length_c 24.044593
_cell_angle_alpha 90.000000
_cell_angle_beta 90.000000
_cell_angle_gamma 90.000000
_cell_volume 3227.714764
_symmetry_space_group_name_H-M "I M M M"
_symmetry_group_IT_number 71
_symmetry_cell_setting 'orthorhombic'
loop_
_space_group_symop_operation_xyz
x,y,z
-x,-y,z
x,-y,-z
-x,y,-z
-x,-y,-z
x,y,-z
-x,y,z
x,-y,z
1/2+x,1/2+y,1/2+z
1/2-x,1/2-y,1/2+z
1/2+x,1/2-y,1/2-z
1/2-x,1/2+y,1/2-z
1/2-x,1/2-y,1/2-z
1/2+x,1/2+y,1/2-z
1/2-x,1/2+y,1/2+z
1/2+x,1/2-y,1/2+z
loop_
_atom_site_type_symbol
_atom_site_label
_atom_site_fract_x
_atom_site_fract_y
_atom_site_fract_z
Si Si1 0.802995 0.704959 0.112915
Si Si2 0.126461 0.809075 0.000000
Si Si3 0.151394 0.784731 0.327581
Si Si4 0.912555 0.212547 0.789560
Si Si5 0.000000 0.000000 0.500000
Si Si6 0.000000 0.804665 0.615099
Si Si7 0.000000 0.500000 0.000000
O O1 0.789324 0.500000 0.100754
O O2 0.822549 0.793711 0.055033
O O3 0.729575 0.776572 0.145323
O O4 0.873994 0.721094 0.154423
O O5 0.066126 0.653309 0.000000
O O6 0.089290 0.000000 0.000000
O O7 0.135586 0.730371 0.264244
O O8 0.078534 0.726020 0.363608
O O9 0.155160 0.000000 0.327997
O O10 0.000000 0.268230 0.783947
O O11 0.911738 0.000000 0.791068
O O12 0.000000 0.150565 0.549987
O O13 0.000000 0.000000 0.643692
#
# Coordination Sequence:
#
# PCOD9522138 Si02
#       7
#    16   8  16  16   2   8   2
#     4  11  23  39  59  93 130 171 221 277 335 407
#     4  12  27  48  72 100 137 180 217 275 339 397
#     4   9  17  33  57  83 128 165 217 281 339 395
#     4  10  20  35  59  88 120 166 223 281 340 404
#     4   8  16  20  46  84 116 144 208 258 340 384
#     4   8  14  28  47  85 117 161 212 278 326 388
#     4  12  26  52  74 102 132 162 234 276 320 398
#
# _framework density 21.067534999999999
#
# number of rings (size 3 to 8) (size 9 to 14) (size 15 to 20)
#    0.353    1.647    2.353    1.588    1.647    1.412 
#    0.000    1.176    0.000    0.000    0.000    0.824 
#    0.000    0.000    0.000    0.000    0.000    0.000 
#
# Total GULP energy -189301.747985 kJ/mol
# GULP energy per Si atom -5567.698470 kJ/mol
# Density = 2.101958 g / cm^3
# Si number density = 21.067535 Si / 1000 Ang^3
#
#
#
# Elastic Constant Matrix: (Units=GPa)
#
#
# Indices 1 2 3 4 5 6 
#
# 1 116.9688 18.6985 50.7598 0.0000 0.0000 0.0000
# 2 18.6985 83.7180 14.9297 0.0000 0.0000 0.0000
# 3 50.7598 14.9297 168.0196 0.0000 0.0000 0.0000
# 4 0.0000 0.0000 0.0000 9.4148 0.0000 0.0000
# 5 0.0000 0.0000 0.0000 0.0000 -10.7050 0.0000
# 6 0.0000 0.0000 0.0000 0.0000 0.0000 -6.5037
#
#
#
# Elastic Compliance Matrix: (Units=1/GPa)
#
#
# Indices 1 2 3 4 5 6 
#
# 1 0.010082 -0.001736 -0.002891 0.000000 0.000000 0.000000
# 2 -0.001736 0.012436 -0.000581 0.000000 0.000000 0.000000
# 3 -0.002891 -0.000581 0.006877 0.000000 0.000000 0.000000
# 4 0.000000 0.000000 0.000000 0.106215 0.000000 0.000000
# 5 0.000000 0.000000 0.000000 0.000000 -0.093414 0.000000
# 6 0.000000 0.000000 0.000000 0.000000 0.000000 -0.153760
#
#
# Mechanical properties :
#
#
# Convention : Reuss Voigt Hill
#
# Bulk Modulus (GPa) = 52.69161 59.72028 56.20594
# Shear Modulus (GPa) = -52.73060 17.39579 -17.66740
#
# Velocity S-wave (km/s) = -5.00836 2.87664 -2.89901
# Velocity P-wave (km/s) = 2.89478 6.28029 3.94096
#
# Compressibility (1/GPa) = 0.01897835
#
# Stress axis : x y z
#
# Youngs Moduli (GPa) = 99.19064 80.41067 145.41652
#
# Poissons Ratio (x) = 0.13960 0.42046
# Poissons Ratio (y) = 0.17220 0.08442
# Poissons Ratio (z) = 0.28680 0.04668
#
# Static dielectric constant tensor:
#      x y z
#    x 1.756990 0.000000 0.000000 
#    y 0.000000 1.795390 0.000000 
#    z 0.000000 0.000000 1.714620 
# 
# From -- ./inp_files/60416.got.cif
#   From: 2010.05.17/outbox.cif.g08.bks.cpg/sg71_31_cif.got.tgz:60416.got - 2010.06.03 16:22:01.
