data_PCOD9522489
_publ_section_title
;
Structure prediction by ZEFSAII (Michael W. Deem and Ramdas Pophale) SiO2 
 PCOD9522489
Probable space group: I M M M
;
_chemical_formula_sum "Si O2"
_cell_formula_units_Z 88
_cell_length_a 30.732849
_cell_length_b 16.298632
_cell_length_c 9.693664
_cell_angle_alpha 90.000000
_cell_angle_beta 90.000000
_cell_angle_gamma 90.000000
_cell_volume 4855.589219
_symmetry_space_group_name_H-M "I M M M"
_symmetry_group_IT_number 71
_symmetry_cell_setting 'orthorhombic'
loop_
_space_group_symop_operation_xyz
x,y,z
-x,-y,z
x,-y,-z
-x,y,-z
-x,-y,-z
x,y,-z
-x,y,z
x,-y,z
1/2+x,1/2+y,1/2+z
1/2-x,1/2-y,1/2+z
1/2+x,1/2-y,1/2-z
1/2-x,1/2+y,1/2-z
1/2-x,1/2-y,1/2-z
1/2+x,1/2+y,1/2-z
1/2-x,1/2+y,1/2+z
1/2+x,1/2-y,1/2+z
loop_
_atom_site_type_symbol
_atom_site_label
_atom_site_fract_x
_atom_site_fract_y
_atom_site_fract_z
Si Si1 0.500000 0.900946 0.839385
Si Si2 0.762902 0.500000 0.335579
Si Si3 0.223364 0.820093 0.833505
Si Si4 0.878384 0.177887 0.842504
Si Si5 0.918644 0.641657 0.843565
Si Si6 0.048186 0.901389 0.659213
Si Si7 0.850156 0.500000 0.162209
O O1 0.457639 0.867584 0.762444
O O2 0.500000 0.000000 0.827850
O O3 0.500000 0.878953 0.000000
O O4 0.769902 0.500000 0.500000
O O5 0.739088 0.413443 0.303146
O O6 0.807927 0.500000 0.254680
O O7 0.250000 0.750000 0.750000
O O8 0.171978 0.817218 0.799095
O O9 0.227919 0.806246 0.000000
O O10 0.898167 0.268788 0.842898
O O11 0.911007 0.127231 0.747430
O O12 0.878974 0.145601 0.000000
O O13 0.880414 0.578146 0.810448
O O14 0.934112 0.622768 0.000000
O O15 0.052500 0.874302 0.500000
O O16 0.000000 0.873238 0.709754
O O17 0.047406 0.000000 0.659682
O O18 0.838336 0.500000 0.000000
#
# Coordination Sequence:
#
# PCOD9522489 Si02
#       7
#     8   8  16  16  16  16   8
#     4  11  23  37  55  83 116 153 196 241 287 342
#     4  10  22  38  61  89 119 155 191 241 304 355
#     4  10  22  41  62  88 122 157 197 247 302 356
#     4  10  22  37  59  88 116 149 195 242 286 343
#     4  10  21  37  57  82 114 153 193 236 285 337
#     4   9  20  39  59  81 114 152 188 231 286 345
#     4  10  20  37  61  84 111 151 195 234 280 340
#
# _framework density 18.123445
#
# number of rings (size 3 to 8) (size 9 to 14) (size 15 to 20)
#    0.000    2.091    0.909    1.909    2.545    5.455 
#    0.000    0.909    0.000    0.000    0.000    0.000 
#    0.000    0.000    0.000    0.000    0.000    0.000 
#
# Total GULP energy -245518.255908 kJ/mol
# GULP energy per Si atom -5579.960362 kJ/mol
# Density = 1.808219 g / cm^3
# Si number density = 18.123445 Si / 1000 Ang^3
#
#
#
# Elastic Constant Matrix: (Units=GPa)
#
#
# Indices 1 2 3 4 5 6 
#
# 1 180.2079 59.6012 101.2866 0.0000 0.0000 0.0000
# 2 59.6012 77.5011 47.4204 0.0000 0.0000 0.0000
# 3 101.2866 47.4204 82.1491 0.0000 0.0000 0.0000
# 4 0.0000 0.0000 0.0000 30.3608 0.0000 0.0000
# 5 0.0000 0.0000 0.0000 0.0000 39.7529 0.0000
# 6 0.0000 0.0000 0.0000 0.0000 0.0000 -521.5274
#
#
#
# Elastic Compliance Matrix: (Units=1/GPa)
#
#
# Indices 1 2 3 4 5 6 
#
# 1 0.018083 -0.000409 -0.022060 0.000000 0.000000 0.000000
# 2 -0.000409 0.019958 -0.011017 0.000000 0.000000 0.000000
# 3 -0.022060 -0.011017 0.045731 0.000000 0.000000 0.000000
# 4 0.000000 0.000000 0.000000 0.032937 0.000000 0.000000
# 5 0.000000 0.000000 0.000000 0.000000 0.025155 0.000000
# 6 0.000000 0.000000 0.000000 0.000000 0.000000 -0.001917
#
#
# Mechanical properties :
#
#
# Convention : Reuss Voigt Hill
#
# Bulk Modulus (GPa) = 59.51721 84.05271 71.78496
# Shear Modulus (GPa) = 23.52734 -81.51273 -28.99270
#
# Velocity S-wave (km/s) = 3.60692 -6.71372 -4.00401
# Velocity P-wave (km/s) = 7.08927 3.69055 4.28004
#
# Compressibility (1/GPa) = 0.01680186
#
# Stress axis : x y z
#
# Youngs Moduli (GPa) = 55.30000 50.10459 21.86701
#
# Poissons Ratio (x) = 0.02049 0.48238
# Poissons Ratio (y) = 0.02262 0.24090
# Poissons Ratio (z) = 1.21990 0.55198
#
# Static dielectric constant tensor:
#      x y z
#    x 1.590210 0.000000 0.000000 
#    y 0.000000 1.625920 0.000000 
#    z 0.000000 0.000000 1.620700 
# 
# From -- ./inp_files/16720.got.cif
#   From: 2010.05.17/outbox.cif.g08.bks.cpg/sg71_9_cif.got.tgz:16720.got - 2010.06.03 16:22:01.
