data_PCOD9522527
_publ_section_title
;
Structure prediction by ZEFSAII (Michael W. Deem and Ramdas Pophale) SiO2 
 PCOD9522527
Probable space group: I M M M
;
_chemical_formula_sum "Si O2"
_cell_formula_units_Z 84
_cell_length_a 11.451943
_cell_length_b 13.085618
_cell_length_c 32.845651
_cell_angle_alpha 90.000000
_cell_angle_beta 90.000000
_cell_angle_gamma 90.000000
_cell_volume 4922.109713
_symmetry_space_group_name_H-M "I M M M"
_symmetry_group_IT_number 71
_symmetry_cell_setting 'orthorhombic'
loop_
_space_group_symop_operation_xyz
x,y,z
-x,-y,z
x,-y,-z
-x,y,-z
-x,-y,-z
x,y,-z
-x,y,z
x,-y,z
1/2+x,1/2+y,1/2+z
1/2-x,1/2-y,1/2+z
1/2+x,1/2-y,1/2-z
1/2-x,1/2+y,1/2-z
1/2-x,1/2-y,1/2-z
1/2+x,1/2+y,1/2-z
1/2-x,1/2+y,1/2+z
1/2+x,1/2-y,1/2+z
loop_
_atom_site_type_symbol
_atom_site_label
_atom_site_fract_x
_atom_site_fract_y
_atom_site_fract_z
Si Si1 0.214672 0.384272 0.500000
Si Si2 0.131874 0.377961 0.797743
Si Si3 0.139109 0.614692 0.291786
Si Si4 0.000000 0.875852 0.410877
Si Si5 0.787635 0.231342 0.637993
Si Si6 0.000000 0.225930 0.500000
Si Si7 0.361198 0.382369 0.417394
O O1 0.164087 0.500000 0.500000
O O2 0.297237 0.375234 0.460795
O O3 0.113313 0.300026 0.500000
O O4 0.124275 0.500000 0.796796
O O5 0.180358 0.350009 0.752939
O O6 0.212196 0.345525 0.834812
O O7 0.000000 0.335846 0.802772
O O8 0.184961 0.500000 0.300189
O O9 0.161037 0.690242 0.328709
O O10 0.000000 0.606895 0.286898
O O11 0.112947 0.825910 0.388250
O O12 0.000000 0.840177 0.458297
O O13 0.000000 0.000000 0.407870
O O14 0.701980 0.299226 0.610392
O O15 0.500000 0.365106 0.420587
O O16 0.344322 0.500000 0.402674
#
# Coordination Sequence:
#
# PCOD9522527 Si02
#       7
#     8  16  16   8  16   4  16
#     4  10  20  37  62  90 117 144 182 229 280 356
#     4   9  19  35  55  78 108 148 194 237 279 331
#     4   9  18  33  53  81 113 147 185 229 284 342
#     4  12  27  41  59  82 115 153 200 249 291 345
#     4  12  20  36  56  84 111 151 194 233 286 331
#     4  12  22  46  60  88 110 158 194 228 308 348
#     4  10  21  36  57  87 119 148 180 226 286 352
#
# _framework density 17.065853000000001
#
# number of rings (size 3 to 8) (size 9 to 14) (size 15 to 20)
#    0.000    1.714    2.857    4.000    0.000    1.143 
#    0.000    0.000    0.000    0.000    0.000    1.333 
#    0.000    0.000    0.000    0.000    0.000    0.000 
#
# Total GULP energy -234100.115518 kJ/mol
# GULP energy per Si atom -5573.812274 kJ/mol
# Density = 1.702701 g / cm^3
# Si number density = 17.065853 Si / 1000 Ang^3
#
#
#
# Elastic Constant Matrix: (Units=GPa)
#
#
# Indices 1 2 3 4 5 6 
#
# 1 94.1730 65.9055 53.8597 0.0000 0.0000 0.0000
# 2 65.9055 110.7530 67.4793 0.0000 0.0000 0.0000
# 3 53.8597 67.4793 135.2416 0.0000 0.0000 0.0000
# 4 0.0000 0.0000 0.0000 37.2239 0.0000 0.0000
# 5 0.0000 0.0000 0.0000 0.0000 37.1455 0.0000
# 6 0.0000 0.0000 0.0000 0.0000 0.0000 29.8847
#
#
#
# Elastic Compliance Matrix: (Units=1/GPa)
#
#
# Indices 1 2 3 4 5 6 
#
# 1 0.018882 -0.009561 -0.002749 0.000000 0.000000 0.000000
# 2 -0.009561 0.017814 -0.005081 0.000000 0.000000 0.000000
# 3 -0.002749 -0.005081 0.011024 0.000000 0.000000 0.000000
# 4 0.000000 0.000000 0.000000 0.026864 0.000000 0.000000
# 5 0.000000 0.000000 0.000000 0.000000 0.026921 0.000000
# 6 0.000000 0.000000 0.000000 0.000000 0.000000 0.033462
#
#
# Mechanical properties :
#
#
# Convention : Reuss Voigt Hill
#
# Bulk Modulus (GPa) = 77.28998 79.40628 78.34813
# Shear Modulus (GPa) = 28.72512 31.04569 29.88541
#
# Velocity S-wave (km/s) = 4.10712 4.26980 4.18925
# Velocity P-wave (km/s) = 8.23886 8.42251 8.33119
#
# Compressibility (1/GPa) = 0.01293829
#
# Stress axis : x y z
#
# Youngs Moduli (GPa) = 52.95939 56.13476 90.71021
#
# Poissons Ratio (x) = 0.53672 0.24939
# Poissons Ratio (y) = 0.50636 0.46088
# Poissons Ratio (z) = 0.14560 0.28521
#
# Static dielectric constant tensor:
#      x y z
#    x 1.565290 0.000000 0.000000 
#    y 0.000000 1.580550 0.000000 
#    z 0.000000 0.000000 1.580030 
# 
# From -- ./inp_files/69112.got.cif
#   From: 2010.05.17/outbox.cif.g08.bks.cpg/sg71_35_cif.got.tgz:69112.got - 2010.06.03 16:22:01.
