data_PCOD9522634
_publ_section_title
;
Structure prediction by ZEFSAII (Michael W. Deem and Ramdas Pophale) SiO2 
 PCOD9522634
Probable space group: I M M M
;
_chemical_formula_sum "Si O2"
_cell_formula_units_Z 88
_cell_length_a 9.329001
_cell_length_b 22.704254
_cell_length_c 22.289613
_cell_angle_alpha 90.000000
_cell_angle_beta 90.000000
_cell_angle_gamma 90.000000
_cell_volume 4721.118535
_symmetry_space_group_name_H-M "I M M M"
_symmetry_group_IT_number 71
_symmetry_cell_setting 'orthorhombic'
loop_
_space_group_symop_operation_xyz
x,y,z
-x,-y,z
x,-y,-z
-x,y,-z
-x,-y,-z
x,y,-z
-x,y,z
x,-y,z
1/2+x,1/2+y,1/2+z
1/2-x,1/2-y,1/2+z
1/2+x,1/2-y,1/2-z
1/2-x,1/2+y,1/2-z
1/2-x,1/2-y,1/2-z
1/2+x,1/2+y,1/2-z
1/2-x,1/2+y,1/2+z
1/2+x,1/2-y,1/2+z
loop_
_atom_site_type_symbol
_atom_site_label
_atom_site_fract_x
_atom_site_fract_y
_atom_site_fract_z
Si Si1 0.660065 0.430296 0.500000
Si Si2 0.171317 0.244511 0.428865
Si Si3 0.343847 0.570123 0.932000
Si Si4 0.331870 0.144706 0.647131
Si Si5 0.670813 0.878437 0.889510
Si Si6 0.325826 0.931432 0.239683
O O1 0.650257 0.500000 0.500000
O O2 0.500000 0.404491 0.500000
O O3 0.745324 0.410792 0.558322
O O4 0.215616 0.242513 0.500000
O O5 0.248720 0.198094 0.385096
O O6 0.196899 0.309187 0.400890
O O7 0.000000 0.234230 0.428316
O O8 0.500000 0.588696 0.905961
O O9 0.344957 0.500000 0.933592
O O10 0.205883 0.591601 0.897560
O O11 0.339764 0.592764 0.000000
O O12 0.500000 0.158099 0.651145
O O13 0.280736 0.116705 0.710361
O O14 0.500000 0.887751 0.896107
O O15 0.713234 0.905351 0.825289
O O16 0.500000 0.933368 0.242901
O O17 0.277151 0.000000 0.248243
#
# Coordination Sequence:
#
# PCOD9522634 Si02
#       6
#     8  16  16  16  16  16
#     4  11  23  37  57  91 129 153 176 231 302 351
#     4  10  21  38  58  83 114 147 193 249 289 330
#     4   9  18  33  52  74 102 140 189 243 293 339
#     4  11  22  34  52  81 115 153 191 229 285 347
#     4  10  20  39  65  87 108 150 203 240 279 340
#     4   9  19  36  58  85 116 147 188 244 290 334
#
# _framework density 18.63965
#
# number of rings (size 3 to 8) (size 9 to 14) (size 15 to 20)
#    0.000    2.091    0.909    3.000    0.000    6.909 
#    0.000    2.727    0.000    4.364    0.000    0.000 
#    0.000    0.000    0.000    0.000    0.000    0.000 
#
# Total GULP energy -245151.965890 kJ/mol
# GULP energy per Si atom -5571.635588 kJ/mol
# Density = 1.859723 g / cm^3
# Si number density = 18.639650 Si / 1000 Ang^3
#
#
#
# Elastic Constant Matrix: (Units=GPa)
#
#
# Indices 1 2 3 4 5 6 
#
# 1 28.5099 40.4530 46.8218 0.0000 0.0000 0.0000
# 2 40.4530 108.5548 63.9275 0.0000 0.0000 0.0000
# 3 46.8218 63.9275 143.2922 -0.0001 0.0000 0.0000
# 4 0.0000 0.0000 -0.0001 -81.2617 0.0000 0.0003
# 5 0.0000 0.0000 0.0000 0.0000 16.9684 0.0000
# 6 0.0000 0.0000 0.0000 0.0003 0.0000 120.1065
#
#
#
# Elastic Compliance Matrix: (Units=1/GPa)
#
#
# Indices 1 2 3 4 5 6 
#
# 1 0.118651 -0.029004 -0.025831 0.000000 0.000000 0.000000
# 2 -0.029004 0.019585 0.000740 0.000000 0.000000 0.000000
# 3 -0.025831 0.000740 0.015089 0.000000 0.000000 0.000000
# 4 0.000000 0.000000 0.000000 -0.012306 0.000000 0.000000
# 5 0.000000 0.000000 0.000000 0.000000 0.058933 0.000000
# 6 0.000000 0.000000 0.000000 0.000000 0.000000 0.008326
#
#
# Mechanical properties :
#
#
# Convention : Reuss Voigt Hill
#
# Bulk Modulus (GPa) = 22.15548 64.75128 43.45338
# Shear Modulus (GPa) = 15.08242 19.77294 17.42768
#
# Velocity S-wave (km/s) = 2.84766 3.26053 3.06106
# Velocity P-wave (km/s) = 4.76699 6.99918 5.98802
#
# Compressibility (1/GPa) = 0.04513556
#
# Stress axis : x y z
#
# Youngs Moduli (GPa) = 8.42808 51.06078 66.27362
#
# Poissons Ratio (x) = 1.48096 1.71188
# Poissons Ratio (y) = 0.24445 -0.04904
# Poissons Ratio (z) = 0.21770 -0.03778
#
# Static dielectric constant tensor:
#      x y z
#    x 1.647390 0.000000 0.000000 
#    y 0.000000 1.676530 0.000000 
#    z 0.000000 0.000000 1.655140 
# 
# From -- ./inp_files/50533.got.cif
#   From: 2010.05.17/outbox.cif.g08.bks.cpg/sg71_26_cif.got.tgz:50533.got - 2010.06.03 16:22:01.
