data_PCOD9522475
_publ_section_title
;
Structure prediction by ZEFSAII (Michael W. Deem and Ramdas Pophale) SiO2 
 PCOD9522475
Probable space group: I M M M
;
_chemical_formula_sum "Si O2"
_cell_formula_units_Z 112
_cell_length_a 27.407376
_cell_length_b 13.284874
_cell_length_c 13.459297
_cell_angle_alpha 90.000000
_cell_angle_beta 90.000000
_cell_angle_gamma 90.000000
_cell_volume 4900.577641
_symmetry_space_group_name_H-M "I M M M"
_symmetry_group_IT_number 71
_symmetry_cell_setting 'orthorhombic'
loop_
_space_group_symop_operation_xyz
x,y,z
-x,-y,z
x,-y,-z
-x,y,-z
-x,-y,-z
x,y,-z
-x,y,z
x,-y,z
1/2+x,1/2+y,1/2+z
1/2-x,1/2-y,1/2+z
1/2+x,1/2-y,1/2-z
1/2-x,1/2+y,1/2-z
1/2-x,1/2-y,1/2-z
1/2+x,1/2+y,1/2-z
1/2-x,1/2+y,1/2+z
1/2+x,1/2-y,1/2+z
loop_
_atom_site_type_symbol
_atom_site_label
_atom_site_fract_x
_atom_site_fract_y
_atom_site_fract_z
Si Si1 0.096216 0.121335 0.608748
Si Si2 0.053285 0.619263 0.680576
Si Si3 0.696529 0.194336 0.316980
Si Si4 0.298817 0.618485 0.198139
Si Si5 0.841685 0.378592 0.608850
Si Si6 0.442609 0.384374 0.677567
Si Si7 0.591413 0.178194 0.607579
O O1 0.081327 0.158382 0.500000
O O2 0.153229 0.140812 0.632852
O O3 0.066321 0.147756 0.707674
O O4 0.091601 0.000000 0.604854
O O5 0.051994 0.500000 0.660148
O O6 0.102329 0.656865 0.626912
O O7 0.062918 0.633699 0.798272
O O8 0.000000 0.660221 0.652785
O O9 0.696923 0.314226 0.297954
O O10 0.748140 0.152374 0.352114
O O11 0.688921 0.154730 0.203827
O O12 0.648982 0.160148 0.375876
O O13 0.297805 0.500000 0.218251
O O14 0.824508 0.346327 0.500000
O O15 0.842249 0.500000 0.610228
O O16 0.500000 0.382566 0.656177
O O17 0.425256 0.500000 0.664645
O O18 0.416741 0.298521 0.614581
O O19 0.575517 0.141096 0.500000
#
# Coordination Sequence:
#
# PCOD9522475 Si02
#       7
#    16  16  16  16  16  16  16
#     4   9  18  34  58  86 116 152 190 230 282 344
#     4   9  19  36  56  80 111 148 192 242 295 346
#     4  10  21  37  59  85 114 154 193 239 293 343
#     4  10  20  37  60  84 117 155 193 237 287 344
#     4   9  18  34  57  85 116 149 187 234 289 352
#     4  10  21  38  59  85 120 156 192 238 289 344
#     4  11  23  39  58  82 113 150 197 246 291 340
#
# _framework density 22.854448999999999
#
# number of rings (size 3 to 8) (size 9 to 14) (size 15 to 20)
#    0.000    2.286    1.429    0.857    0.000    4.000 
#    0.000    6.429    0.000    2.571    0.000    0.000 
#    0.000    0.000    0.000    0.000    0.000    0.000 
#
# Total GULP energy -312879.922564 kJ/mol
# GULP energy per Si atom -5587.141474 kJ/mol
# Density = 2.280243 g / cm^3
# Si number density = 22.854449 Si / 1000 Ang^3
#
#
#
# Elastic Constant Matrix: (Units=GPa)
#
#
# Indices 1 2 3 4 5 6 
#
# 1 79.5954 0.9419 -4.1807 0.0000 0.0000 0.0000
# 2 0.9419 68.4121 -1.8128 0.0000 0.0000 0.0000
# 3 -4.1807 -1.8128 81.2374 0.0000 0.0000 0.0000
# 4 0.0000 0.0000 0.0000 17.1445 0.0000 0.0000
# 5 0.0000 0.0000 0.0000 0.0000 -5.7866 0.0000
# 6 0.0000 0.0000 0.0000 0.0000 0.0000 32.6165
#
#
#
# Elastic Compliance Matrix: (Units=1/GPa)
#
#
# Indices 1 2 3 4 5 6 
#
# 1 0.012599 -0.000156 0.000645 0.000000 0.000000 0.000000
# 2 -0.000156 0.014628 0.000318 0.000000 0.000000 0.000000
# 3 0.000645 0.000318 0.012350 0.000000 0.000000 0.000000
# 4 0.000000 0.000000 0.000000 0.058328 0.000000 0.000000
# 5 0.000000 0.000000 0.000000 0.000000 -0.172814 0.000000
# 6 0.000000 0.000000 0.000000 0.000000 0.000000 0.030659
#
#
# Mechanical properties :
#
#
# Convention : Reuss Voigt Hill
#
# Bulk Modulus (GPa) = 24.27723 24.34907 24.31315
# Shear Modulus (GPa) = -155.59832 24.41467 -65.59182
#
# Velocity S-wave (km/s) = -8.26015 3.27198 -5.36303
# Velocity P-wave (km/s) = 8.96258 4.99516 5.26195
#
# Compressibility (1/GPa) = 0.04119086
#
# Stress axis : x y z
#
# Youngs Moduli (GPa) = 79.36974 68.36259 80.97235
#
# Poissons Ratio (x) = 0.01069 -0.05222
# Poissons Ratio (y) = 0.01241 -0.02578
# Poissons Ratio (z) = -0.05119 -0.02177
#
# Static dielectric constant tensor:
#      x y z
#    x 1.834030 0.000000 0.000000 
#    y 0.000000 1.937530 0.000000 
#    z 0.000000 0.000000 1.822160 
# 
# From -- ./inp_files/30025.got.cif
#   From: 2010.05.17/outbox.cif.g08.bks.cpg/sg71_16_cif.got.tgz:30025.got - 2010.06.03 16:22:01.
