data_PCOD9522683
_publ_section_title
;
Structure prediction by ZEFSAII (Michael W. Deem and Ramdas Pophale) SiO2 
 PCOD9522683
Probable space group: I M M M
;
_chemical_formula_sum "Si O2"
_cell_formula_units_Z 112
_cell_length_a 23.892199
_cell_length_b 24.052296
_cell_length_c 10.737744
_cell_angle_alpha 90.000000
_cell_angle_beta 90.000000
_cell_angle_gamma 90.000000
_cell_volume 6170.576046
_symmetry_space_group_name_H-M "I M M M"
_symmetry_group_IT_number 71
_symmetry_cell_setting 'orthorhombic'
loop_
_space_group_symop_operation_xyz
x,y,z
-x,-y,z
x,-y,-z
-x,y,-z
-x,-y,-z
x,y,-z
-x,y,z
x,-y,z
1/2+x,1/2+y,1/2+z
1/2-x,1/2-y,1/2+z
1/2+x,1/2-y,1/2-z
1/2-x,1/2+y,1/2-z
1/2-x,1/2-y,1/2-z
1/2+x,1/2+y,1/2-z
1/2-x,1/2+y,1/2+z
1/2+x,1/2-y,1/2+z
loop_
_atom_site_type_symbol
_atom_site_label
_atom_site_fract_x
_atom_site_fract_y
_atom_site_fract_z
Si Si1 0.765163 0.937102 0.359742
Si Si2 0.436811 0.261829 0.850239
Si Si3 0.437888 0.866697 0.848928
Si Si4 0.849442 0.850723 0.749018
Si Si5 0.437085 0.437434 0.649554
Si Si6 0.318796 0.902163 0.854895
Si Si7 0.249608 0.291649 0.635271
O O1 0.741268 0.931829 0.500000
O O2 0.810272 0.887850 0.341219
O O3 0.720499 0.930580 0.247728
O O4 0.789023 0.000000 0.350327
O O5 0.500000 0.280086 0.811084
O O6 0.430294 0.197646 0.808689
O O7 0.386480 0.301032 0.807137
O O8 0.436420 0.261793 0.000000
O O9 0.500000 0.885317 0.808665
O O10 0.383783 0.902854 0.816134
O O11 0.438043 0.865746 0.000000
O O12 0.892899 0.893640 0.805649
O O13 0.807093 0.825868 0.850704
O O14 0.437842 0.437696 0.500000
O O15 0.500000 0.424377 0.692957
O O16 0.423232 0.500000 0.690957
O O17 0.299249 0.837421 0.855730
O O18 0.312002 0.921393 0.000000
O O19 0.245697 0.263879 0.500000
O O20 0.250000 0.250000 0.750000
#
# Coordination Sequence:
#
# PCOD9522683 Si02
#       7
#    16  16  16  16  16  16  16
#     4  10  22  37  51  71 100 133 168 209 258 303
#     4   9  17  28  44  70 102 133 163 195 235 285
#     4   8  14  27  49  76 103 127 153 191 238 287
#     4  11  19  31  50  70  94 129 172 210 242 287
#     4   9  18  32  49  69  93 122 160 209 259 298
#     4   9  18  33  53  76  98 125 164 205 245 293
#     4  10  21  33  47  70 100 132 167 206 247 293
#
# _framework density 18.150656999999999
#
# number of rings (size 3 to 8) (size 9 to 14) (size 15 to 20)
#    0.000    2.571    0.000    3.857    0.000    4.857 
#    0.000    0.000    0.000    0.857    0.000   13.000 
#    0.000    0.000    0.000    0.000    0.000    0.000 
#
# Total GULP energy -311934.184620 kJ/mol
# GULP energy per Si atom -5570.253297 kJ/mol
# Density = 1.810935 g / cm^3
# Si number density = 18.150657 Si / 1000 Ang^3
#
#
#
# Elastic Constant Matrix: (Units=GPa)
#
#
# Indices 1 2 3 4 5 6 
#
# 1 80.3970 2.3420 16.3083 0.0000 0.0000 0.0000
# 2 2.3420 22.3095 17.0765 0.0000 0.0000 0.0000
# 3 16.3083 17.0765 74.7051 0.0000 0.0000 0.0000
# 4 0.0000 0.0000 0.0000 20.5943 0.0000 0.0000
# 5 0.0000 0.0000 0.0000 0.0000 16.0064 0.0000
# 6 0.0000 0.0000 0.0000 0.0000 0.0000 13.4201
#
#
#
# Elastic Compliance Matrix: (Units=1/GPa)
#
#
# Indices 1 2 3 4 5 6 
#
# 1 0.013032 0.000981 -0.003069 0.000000 0.000000 0.000000
# 2 0.000981 0.054404 -0.012650 0.000000 0.000000 0.000000
# 3 -0.003069 -0.012650 0.016948 0.000000 0.000000 0.000000
# 4 0.000000 0.000000 0.000000 0.048557 0.000000 0.000000
# 5 0.000000 0.000000 0.000000 0.000000 0.062475 0.000000
# 6 0.000000 0.000000 0.000000 0.000000 0.000000 0.074515
#
#
# Mechanical properties :
#
#
# Convention : Reuss Voigt Hill
#
# Bulk Modulus (GPa) = 18.21250 27.65170 22.93210
# Shear Modulus (GPa) = 15.73764 19.44982 17.59373
#
# Velocity S-wave (km/s) = 2.94778 3.27705 3.11676
# Velocity P-wave (km/s) = 4.65206 5.43933 5.06103
#
# Compressibility (1/GPa) = 0.05490734
#
# Stress axis : x y z
#
# Youngs Moduli (GPa) = 76.73251 18.38109 59.00526
#
# Poissons Ratio (x) = -0.01804 0.18110
# Poissons Ratio (y) = -0.07529 0.74643
# Poissons Ratio (z) = 0.23551 0.23252
#
# Static dielectric constant tensor:
#      x y z
#    x 1.656080 0.000000 0.000000 
#    y 0.000000 1.629420 0.000000 
#    z 0.000000 0.000000 1.609690 
# 
# From -- ./inp_files/27812.got.cif
#   From: 2010.05.17/outbox.cif.g08.bks.cpg/sg71_14_cif.got.tgz:27812.got - 2010.06.03 16:22:01.
