data_PCOD9522653
_publ_section_title
;
Structure prediction by ZEFSAII (Michael W. Deem and Ramdas Pophale) SiO2 
 PCOD9522653
Probable space group: I M M M
;
_chemical_formula_sum "Si O2"
_cell_formula_units_Z 68
_cell_length_a 9.787830
_cell_length_b 21.141821
_cell_length_c 18.001545
_cell_angle_alpha 90.000000
_cell_angle_beta 90.000000
_cell_angle_gamma 90.000000
_cell_volume 3725.105608
_symmetry_space_group_name_H-M "I M M M"
_symmetry_group_IT_number 71
_symmetry_cell_setting 'orthorhombic'
loop_
_space_group_symop_operation_xyz
x,y,z
-x,-y,z
x,-y,-z
-x,y,-z
-x,-y,-z
x,y,-z
-x,y,z
x,-y,z
1/2+x,1/2+y,1/2+z
1/2-x,1/2-y,1/2+z
1/2+x,1/2-y,1/2-z
1/2-x,1/2+y,1/2-z
1/2-x,1/2-y,1/2-z
1/2+x,1/2+y,1/2-z
1/2-x,1/2+y,1/2+z
1/2+x,1/2-y,1/2+z
loop_
_atom_site_type_symbol
_atom_site_label
_atom_site_fract_x
_atom_site_fract_y
_atom_site_fract_z
Si Si1 0.000000 0.368083 0.746429
Si Si2 0.778791 0.000000 0.589228
Si Si3 0.500000 0.739422 0.119326
Si Si4 0.265906 0.832694 0.130988
Si Si5 0.000000 0.095036 0.413891
Si Si6 0.500000 0.000000 0.326939
Si Si7 0.334547 0.424480 0.500000
Si Si8 0.500000 0.265148 0.700614
O O1 0.135095 0.359819 0.695376
O O2 0.000000 0.436883 0.779317
O O3 0.000000 0.311292 0.807240
O O4 0.865665 0.060732 0.616430
O O5 0.632350 0.000000 0.622995
O O6 0.766423 0.000000 0.500000
O O7 0.365784 0.778901 0.096851
O O8 0.500000 0.669144 0.090430
O O9 0.500000 0.730651 0.209416
O O10 0.133253 0.798622 0.166101
O O11 0.222406 0.886176 0.071793
O O12 0.000000 0.076770 0.500000
O O13 0.299666 0.500000 0.500000
O O14 0.500000 0.420002 0.500000
#
# Coordination Sequence:
#
# PCOD9522653 Si02
#       8
#     8   8   8  16   8   4   8   8
#     4  10  24  39  57  94 123 165 194 260 309 367
#     4   9  21  41  57  83 124 166 195 245 300 354
#     4  10  21  35  64  91 120 158 198 251 310 353
#     4  10  22  41  62  88 124 156 207 249 315 364
#     4   9  20  38  60  85 120 160 203 236 292 361
#     4  12  25  36  64  89 128 148 224 234 300 377
#     4  11  24  43  65  91 125 164 205 260 311 370
#     4  10  20  40  64  84 126 155 199 258 306 357
#
# _framework density 18.254517
#
# number of rings (size 3 to 8) (size 9 to 14) (size 15 to 20)
#    0.000    2.235    1.176    3.706    9.882    1.412 
#    0.000    2.353    2.588    0.000    0.000    0.000 
#    0.000    0.000    0.000    0.000    0.000    0.000 
#
# Total GULP energy -189513.937161 kJ/mol
# GULP energy per Si atom -5573.939328 kJ/mol
# Density = 1.821297 g / cm^3
# Si number density = 18.254517 Si / 1000 Ang^3
#
#
#
# Elastic Constant Matrix: (Units=GPa)
#
#
# Indices 1 2 3 4 5 6 
#
# 1 182.5277 94.8114 53.2544 0.0000 0.0000 0.0000
# 2 94.8114 192.3588 66.3649 0.0000 0.0000 0.0000
# 3 53.2544 66.3649 64.3191 0.0000 0.0000 0.0000
# 4 0.0000 0.0000 0.0000 30.3686 0.0000 0.0000
# 5 0.0000 0.0000 0.0000 0.0000 17.0063 0.0000
# 6 0.0000 0.0000 0.0000 0.0000 0.0000 45.3518
#
#
#
# Elastic Compliance Matrix: (Units=1/GPa)
#
#
# Indices 1 2 3 4 5 6 
#
# 1 0.007961 -0.002562 -0.003948 0.000000 0.000000 0.000000
# 2 -0.002562 0.008896 -0.007058 0.000000 0.000000 0.000000
# 3 -0.003948 -0.007058 0.026100 0.000000 0.000000 0.000000
# 4 0.000000 0.000000 0.000000 0.032929 0.000000 0.000000
# 5 0.000000 0.000000 0.000000 0.000000 0.058802 0.000000
# 6 0.000000 0.000000 0.000000 0.000000 0.000000 0.022050
#
#
# Mechanical properties :
#
#
# Convention : Reuss Voigt Hill
#
# Bulk Modulus (GPa) = 63.21061 96.45187 79.83124
# Shear Modulus (GPa) = 26.43427 33.53033 29.98230
#
# Velocity S-wave (km/s) = 3.80951 4.29047 4.05712
# Velocity P-wave (km/s) = 7.35203 8.80319 8.11013
#
# Compressibility (1/GPa) = 0.01582013
#
# Stress axis : x y z
#
# Youngs Moduli (GPa) = 125.60736 112.40418 38.31484
#
# Poissons Ratio (x) = 0.28796 0.15128
# Poissons Ratio (y) = 0.32178 0.27044
# Poissons Ratio (z) = 0.49596 0.79339
#
# Static dielectric constant tensor:
#      x y z
#    x 1.618710 0.000000 0.000000 
#    y 0.000000 1.636280 0.000000 
#    z 0.000000 0.000000 1.633290 
# 
# From -- ./inp_files/41978.got.cif
#   From: 2010.05.17/outbox.cif.g08.bks.cpg/sg71_21_cif.got.tgz:41978.got - 2010.06.03 16:22:01.
