data_PCOD9522716
_publ_section_title
;
Structure prediction by ZEFSAII (Michael W. Deem and Ramdas Pophale) SiO2 
 PCOD9522716
Probable space group: I M M M
;
_chemical_formula_sum "Si O2"
_cell_formula_units_Z 72
_cell_length_a 18.337328
_cell_length_b 26.568155
_cell_length_c 7.605207
_cell_angle_alpha 90.000000
_cell_angle_beta 90.000000
_cell_angle_gamma 90.000000
_cell_volume 3705.172985
_symmetry_space_group_name_H-M "I M M M"
_symmetry_group_IT_number 71
_symmetry_cell_setting 'orthorhombic'
loop_
_space_group_symop_operation_xyz
x,y,z
-x,-y,z
x,-y,-z
-x,y,-z
-x,-y,-z
x,y,-z
-x,y,z
x,-y,z
1/2+x,1/2+y,1/2+z
1/2-x,1/2-y,1/2+z
1/2+x,1/2-y,1/2-z
1/2-x,1/2+y,1/2-z
1/2-x,1/2-y,1/2-z
1/2+x,1/2+y,1/2-z
1/2-x,1/2+y,1/2+z
1/2+x,1/2-y,1/2+z
loop_
_atom_site_type_symbol
_atom_site_label
_atom_site_fract_x
_atom_site_fract_y
_atom_site_fract_z
Si Si1 0.087341 0.638282 0.708865
Si Si2 0.911612 0.442472 0.000000
Si Si3 0.334203 0.240733 0.789193
Si Si4 0.584803 0.446133 0.288854
Si Si5 0.082399 0.838078 0.290158
O O1 0.100035 0.629748 0.500000
O O2 0.108041 0.590501 0.828329
O O3 0.131576 0.687758 0.769711
O O4 0.000000 0.647469 0.730107
O O5 0.884293 0.500000 0.000000
O O6 0.000000 0.445156 0.000000
O O7 0.250000 0.250000 0.750000
O O8 0.376751 0.289503 0.719116
O O9 0.343135 0.239833 0.000000
O O10 0.583346 0.447211 0.500000
O O11 0.500000 0.444950 0.227056
O O12 0.616061 0.500000 0.228307
O O13 0.618393 0.392633 0.239518
O O14 0.077768 0.832359 0.500000
O O15 0.000000 0.839618 0.218507
#
# Coordination Sequence:
#
# PCOD9522716 Si02
#       5
#    16   8  16  16  16
#     4   9  18  34  55  79 111 146 177 217 270 326
#     4   9  18  32  54  86 114 138 176 224 274 329
#     4  10  21  34  50  73 101 136 173 214 262 310
#     4   8  14  25  41  64  94 123 153 194 241 284
#     4   9  17  30  48  70  96 126 163 205 249 300
#
# _framework density 19.432290999999999
#
# number of rings (size 3 to 8) (size 9 to 14) (size 15 to 20)
#    0.000    3.000    0.000    1.333    1.556    4.444 
#    0.000    4.444    0.000    1.333    0.000    0.000 
#    0.000    0.000    0.000    0.000    0.000    0.000 
#
# Total GULP energy -200492.870696 kJ/mol
# GULP energy per Si atom -5569.246408 kJ/mol
# Density = 1.938806 g / cm^3
# Si number density = 19.432291 Si / 1000 Ang^3
#
#
#
# Elastic Constant Matrix: (Units=GPa)
#
#
# Indices 1 2 3 4 5 6 
#
# 1 41.5994 61.6860 13.9359 0.0000 0.0000 0.0000
# 2 61.6860 240.1297 50.7760 0.0000 0.0000 0.0000
# 3 13.9359 50.7760 65.3116 0.0000 0.0000 0.0000
# 4 0.0000 0.0000 0.0000 31.2446 0.0000 0.0000
# 5 0.0000 0.0000 0.0000 0.0000 15.3933 0.0000
# 6 0.0000 0.0000 0.0000 0.0000 0.0000 -2.6906
#
#
#
# Elastic Compliance Matrix: (Units=1/GPa)
#
#
# Indices 1 2 3 4 5 6 
#
# 1 0.038852 -0.009846 -0.000635 0.000000 0.000000 0.000000
# 2 -0.009846 0.007479 -0.003714 0.000000 0.000000 0.000000
# 3 -0.000635 -0.003714 0.018334 0.000000 0.000000 0.000000
# 4 0.000000 0.000000 0.000000 0.032006 0.000000 0.000000
# 5 0.000000 0.000000 0.000000 0.000000 0.064963 0.000000
# 6 0.000000 0.000000 0.000000 0.000000 0.000000 -0.371667
#
#
# Mechanical properties :
#
#
# Convention : Reuss Voigt Hill
#
# Bulk Modulus (GPa) = 27.56719 66.64850 47.10784
# Shear Modulus (GPa) = -29.48956 23.49899 -2.99529
#
# Velocity S-wave (km/s) = -3.89981 3.48124 -1.24288
# Velocity P-wave (km/s) = 2.46189 7.10851 4.71540
#
# Compressibility (1/GPa) = 0.03627501
#
# Stress axis : x y z
#
# Youngs Moduli (GPa) = 25.73853 133.70716 54.54398
#
# Poissons Ratio (x) = 1.31652 0.03465
# Poissons Ratio (y) = 0.25343 0.20255
# Poissons Ratio (z) = 0.01635 0.49653
#
# Static dielectric constant tensor:
#      x y z
#    x 1.645510 0.000000 0.000000 
#    y 0.000000 1.729250 0.000000 
#    z 0.000000 0.000000 1.711890 
# 
# From -- ./inp_files/6068.got.cif
#   From: 2010.05.17/outbox.cif.g08.bks.cpg/sg71_4_cif.got.tgz:6068.got - 2010.06.03 16:22:01.
