data_PCOD9522550
_publ_section_title
;
Structure prediction by ZEFSAII (Michael W. Deem and Ramdas Pophale) SiO2 
 PCOD9522550
Probable space group: I M M M
;
_chemical_formula_sum "Si O2"
_cell_formula_units_Z 54
_cell_length_a 20.595505
_cell_length_b 10.456063
_cell_length_c 11.430947
_cell_angle_alpha 90.000000
_cell_angle_beta 90.000000
_cell_angle_gamma 90.000000
_cell_volume 2461.630406
_symmetry_space_group_name_H-M "I M M M"
_symmetry_group_IT_number 71
_symmetry_cell_setting 'orthorhombic'
loop_
_space_group_symop_operation_xyz
x,y,z
-x,-y,z
x,-y,-z
-x,y,-z
-x,-y,-z
x,y,-z
-x,y,z
x,-y,z
1/2+x,1/2+y,1/2+z
1/2-x,1/2-y,1/2+z
1/2+x,1/2-y,1/2-z
1/2-x,1/2+y,1/2-z
1/2-x,1/2-y,1/2-z
1/2+x,1/2+y,1/2-z
1/2-x,1/2+y,1/2+z
1/2+x,1/2-y,1/2+z
loop_
_atom_site_type_symbol
_atom_site_label
_atom_site_fract_x
_atom_site_fract_y
_atom_site_fract_z
Si Si1 0.000000 0.000000 0.257499
Si Si2 0.132888 0.642960 0.000000
Si Si3 0.858501 0.000000 0.232638
Si Si4 0.222485 0.500000 0.367989
Si Si5 0.639021 0.220351 0.760486
Si Si6 0.000000 0.720526 0.361499
Si Si7 0.000000 0.500000 0.000000
O O1 0.067298 0.000000 0.186545
O O2 0.000000 0.873016 0.336422
O O3 0.145853 0.715620 0.120176
O O4 0.057012 0.608791 0.000000
O O5 0.165404 0.500000 0.000000
O O6 0.852571 0.133613 0.301863
O O7 0.799506 0.000000 0.143665
O O8 0.200594 0.500000 0.500000
O O9 0.192192 0.624781 0.308949
O O10 0.566848 0.173909 0.800465
O O11 0.000000 0.693132 0.500000
#
# Coordination Sequence:
#
# PCOD9522550 Si02
#       7
#     4   8   8   8  16   8   2
#     4   8  19  42  67  90 128 171 224 265 328 402
#     4  10  20  37  65  89 137 171 224 272 325 384
#     4  10  24  44  68  97 133 174 220 286 331 401
#     4  12  25  43  65  96 138 177 224 276 337 406
#     4  11  23  42  67  99 133 178 225 271 340 399
#     4  10  20  37  65  97 136 170 213 272 327 395
#     4   8  16  32  52  98 118 172 208 272 312 374
#
# _framework density 21.936681
#
# number of rings (size 3 to 8) (size 9 to 14) (size 15 to 20)
#    0.444    1.185    1.481    2.889    2.074    0.593 
#    0.000    4.074   16.296    0.000    0.000    0.000 
#    0.000    0.000    0.000    0.000    0.000    0.000 
#
# Total GULP energy -150430.405795 kJ/mol
# GULP energy per Si atom -5571.496511 kJ/mol
# Density = 2.188675 g / cm^3
# Si number density = 21.936681 Si / 1000 Ang^3
#
#
#
# Elastic Constant Matrix: (Units=GPa)
#
#
# Indices 1 2 3 4 5 6 
#
# 1 110.0861 49.1868 45.1944 0.0000 0.0000 0.0000
# 2 49.1868 120.6175 15.6971 0.0000 0.0000 0.0000
# 3 45.1944 15.6971 126.1218 0.0000 0.0000 0.0000
# 4 0.0000 0.0000 0.0000 6.0925 0.0000 0.0000
# 5 0.0000 0.0000 0.0000 0.0000 12.2823 0.0000
# 6 0.0000 0.0000 0.0000 0.0000 0.0000 31.6480
#
#
#
# Elastic Compliance Matrix: (Units=1/GPa)
#
#
# Indices 1 2 3 4 5 6 
#
# 1 0.012837 -0.004713 -0.004014 0.000000 0.000000 0.000000
# 2 -0.004713 0.010157 0.000425 0.000000 0.000000 0.000000
# 3 -0.004014 0.000425 0.009314 0.000000 0.000000 0.000000
# 4 0.000000 0.000000 0.000000 0.164137 0.000000 0.000000
# 5 0.000000 0.000000 0.000000 0.000000 0.081418 0.000000
# 6 0.000000 0.000000 0.000000 0.000000 0.000000 0.031598
#
#
# Mechanical properties :
#
#
# Convention : Reuss Voigt Hill
#
# Bulk Modulus (GPa) = 63.67234 64.10911 63.89072
# Shear Modulus (GPa) = 15.09210 26.45436 20.77323
#
# Velocity S-wave (km/s) = 2.62579 3.47643 3.08061
# Velocity P-wave (km/s) = 6.18721 6.73811 6.46853
#
# Compressibility (1/GPa) = 0.01570541
#
# Stress axis : x y z
#
# Youngs Moduli (GPa) = 77.89944 98.45279 107.36291
#
# Poissons Ratio (x) = 0.46396 0.43090
# Poissons Ratio (y) = 0.36710 -0.04558
# Poissons Ratio (z) = 0.31265 -0.04180
#
# Static dielectric constant tensor:
#      x y z
#    x 1.813830 0.000000 0.000000 
#    y 0.000000 1.870790 0.000000 
#    z 0.000000 0.000000 1.751180 
# 
# From -- ./inp_files/25114.got.cif
#   From: 2010.05.17/outbox.cif.g08.bks.cpg/sg71_13_cif.got.tgz:25114.got - 2010.06.03 16:22:01.
