data_PCOD9522983
_publ_section_title
;
Structure prediction by ZEFSAII (Michael W. Deem and Ramdas Pophale) SiO2 
 PCOD9522983
Probable space group: I M M M
;
_chemical_formula_sum "Si O2"
_cell_formula_units_Z 88
_cell_length_a 23.402299
_cell_length_b 9.077471
_cell_length_c 24.574147
_cell_angle_alpha 90.000000
_cell_angle_beta 90.000000
_cell_angle_gamma 90.000000
_cell_volume 5220.376738
_symmetry_space_group_name_H-M "I M M M"
_symmetry_group_IT_number 71
_symmetry_cell_setting 'orthorhombic'
loop_
_space_group_symop_operation_xyz
x,y,z
-x,-y,z
x,-y,-z
-x,y,-z
-x,-y,-z
x,y,-z
-x,y,z
x,-y,z
1/2+x,1/2+y,1/2+z
1/2-x,1/2-y,1/2+z
1/2+x,1/2-y,1/2-z
1/2-x,1/2+y,1/2-z
1/2-x,1/2-y,1/2-z
1/2+x,1/2+y,1/2-z
1/2-x,1/2+y,1/2+z
1/2+x,1/2-y,1/2+z
loop_
_atom_site_type_symbol
_atom_site_label
_atom_site_fract_x
_atom_site_fract_y
_atom_site_fract_z
Si Si1 0.277104 0.824357 0.063826
Si Si2 0.566520 0.322833 0.357285
Si Si3 0.893232 0.323668 0.625199
Si Si4 0.568171 0.325572 0.768247
Si Si5 0.657329 0.824084 0.436311
Si Si6 0.000000 0.174642 0.434983
O O1 0.332260 0.784026 0.099075
O O2 0.219381 0.740029 0.079043
O O3 0.267515 0.000000 0.069291
O O4 0.289104 0.794317 0.000000
O O5 0.500000 0.283409 0.366647
O O6 0.570957 0.500000 0.362556
O O7 0.580765 0.286470 0.294380
O O8 0.608676 0.245017 0.398806
O O9 0.899745 0.500000 0.622474
O O10 0.899054 0.267435 0.686817
O O11 0.944128 0.247947 0.591360
O O12 0.500000 0.303950 0.776383
O O13 0.579300 0.500000 0.775537
O O14 0.647839 0.785532 0.500000
O O15 0.657455 0.000000 0.431573
O O16 0.000000 0.195311 0.500000
O O17 0.000000 0.000000 0.423135
#
# Coordination Sequence:
#
# PCOD9522983 Si02
#       6
#    16  16  16  16  16   8
#     4   9  19  36  55  74 102 141 180 219 264 317
#     4   9  19  36  58  82 107 140 178 214 257 313
#     4  11  21  33  53  80 106 137 180 226 272 317
#     4   9  18  34  54  76 106 142 178 217 264 316
#     4  10  21  36  55  81 110 138 171 216 268 319
#     4  11  23  35  49  73 107 145 182 223 270 317
#
# _framework density 16.857021
#
# number of rings (size 3 to 8) (size 9 to 14) (size 15 to 20)
#    0.000    2.273    0.909    3.000    0.000    5.455 
#    0.000    6.364    0.000    0.000    0.000    0.000 
#    0.000    0.000    0.000    0.000    0.000    0.000 
#
# Total GULP energy -245574.983030 kJ/mol
# GULP energy per Si atom -5581.249614 kJ/mol
# Density = 1.681865 g / cm^3
# Si number density = 16.857021 Si / 1000 Ang^3
#
#
#
# Elastic Constant Matrix: (Units=GPa)
#
#
# Indices 1 2 3 4 5 6 
#
# 1 146.1957 72.3652 107.7869 0.0000 0.0000 0.0000
# 2 72.3652 57.6184 67.1612 0.0000 0.0000 0.0000
# 3 107.7869 67.1612 117.8326 0.0000 0.0000 0.0000
# 4 0.0000 0.0000 0.0000 31.9487 0.0000 0.0000
# 5 0.0000 0.0000 0.0000 0.0000 23.1956 0.0000
# 6 0.0000 0.0000 0.0000 0.0000 0.0000 21.9919
#
#
#
# Elastic Compliance Matrix: (Units=1/GPa)
#
#
# Indices 1 2 3 4 5 6 
#
# 1 0.024142 -0.013645 -0.014307 0.000000 0.000000 0.000000
# 2 -0.013645 0.059422 -0.021387 0.000000 0.000000 0.000000
# 3 -0.014307 -0.021387 0.033764 0.000000 0.000000 0.000000
# 4 0.000000 0.000000 0.000000 0.031300 0.000000 0.000000
# 5 0.000000 0.000000 0.000000 0.000000 0.043112 0.000000
# 6 0.000000 0.000000 0.000000 0.000000 0.000000 0.045471
#
#
# Mechanical properties :
#
#
# Convention : Reuss Voigt Hill
#
# Bulk Modulus (GPa) = 53.61853 90.69703 72.15778
# Shear Modulus (GPa) = 14.61529 20.38282 17.49905
#
# Velocity S-wave (km/s) = 2.94771 3.48107 3.22543
# Velocity P-wave (km/s) = 6.59258 8.37124 7.53458
#
# Compressibility (1/GPa) = 0.01865027
#
# Stress axis : x y z
#
# Youngs Moduli (GPa) = 41.42076 16.82864 29.61729
#
# Poissons Ratio (x) = 0.22963 0.42373
# Poissons Ratio (y) = 0.56519 0.63344
# Poissons Ratio (z) = 0.59261 0.35992
#
# Static dielectric constant tensor:
#      x y z
#    x 1.536900 0.000000 0.000000 
#    y 0.000000 1.558760 0.000000 
#    z 0.000000 0.000000 1.563810 
# 
# From -- ./inp_files/12506.got.cif
#   From: 2010.05.17/outbox.cif.g08.bks.cpg/sg71_7_cif.got.tgz:12506.got - 2010.06.03 16:22:01.
