data_PCOD9522955
_publ_section_title
;
Structure prediction by ZEFSAII (Michael W. Deem and Ramdas Pophale) SiO2 
 PCOD9522955
Probable space group: I M M M
;
_chemical_formula_sum "Si O2"
_cell_formula_units_Z 90
_cell_length_a 7.519807
_cell_length_b 20.058257
_cell_length_c 30.492546
_cell_angle_alpha 90.000000
_cell_angle_beta 90.000000
_cell_angle_gamma 90.000000
_cell_volume 4599.319434
_symmetry_space_group_name_H-M "I M M M"
_symmetry_group_IT_number 71
_symmetry_cell_setting 'orthorhombic'
loop_
_space_group_symop_operation_xyz
x,y,z
-x,-y,z
x,-y,-z
-x,y,-z
-x,-y,-z
x,y,-z
-x,y,z
x,-y,z
1/2+x,1/2+y,1/2+z
1/2-x,1/2-y,1/2+z
1/2+x,1/2-y,1/2-z
1/2-x,1/2+y,1/2-z
1/2-x,1/2-y,1/2-z
1/2+x,1/2+y,1/2-z
1/2-x,1/2+y,1/2+z
1/2+x,1/2-y,1/2+z
loop_
_atom_site_type_symbol
_atom_site_label
_atom_site_fract_x
_atom_site_fract_y
_atom_site_fract_z
Si Si1 0.212493 0.075355 0.792848
Si Si2 0.216304 0.320968 0.117325
Si Si3 0.214573 0.424119 0.549972
Si Si4 0.709227 0.669917 0.368697
Si Si5 0.713069 0.924302 0.307152
Si Si6 0.000000 0.862177 0.547803
Si Si7 0.000000 0.000000 0.500000
O O1 0.285552 0.126060 0.828907
O O2 0.242865 0.095845 0.742600
O O3 0.000000 0.071526 0.799191
O O4 0.283549 0.000000 0.798339
O O5 0.274439 0.245329 0.127584
O O6 0.268735 0.370990 0.156629
O O7 0.324464 0.343348 0.074699
O O8 0.000000 0.323434 0.111653
O O9 0.273010 0.409161 0.500000
O O10 0.273169 0.500000 0.560868
O O11 0.270876 0.371385 0.586369
O O12 0.000000 0.424631 0.549675
O O13 0.500000 0.677165 0.359851
O O14 0.500000 0.927535 0.310059
O O15 0.781812 0.000000 0.314179
O O16 0.000000 0.827815 0.500000
O O17 0.000000 0.940592 0.537291
#
# Coordination Sequence:
#
# PCOD9522955 Si02
#       7
#    16  16  16  16  16   8   2
#     4   9  18  33  53  81 114 154 198 245 296 346
#     4  10  23  41  61  90 124 160 199 245 301 365
#     4   9  19  35  54  77 105 142 192 243 293 349
#     4  10  21  36  54  80 117 154 195 240 296 362
#     4   9  19  35  56  83 113 150 197 246 293 352
#     4  10  24  44  66  94 123 152 200 251 303 366
#     4   8  24  48  66 104 120 150 210 256 298 376
#
# _framework density 19.568114000000001
#
# number of rings (size 3 to 8) (size 9 to 14) (size 15 to 20)
#    0.267    2.311    0.000    1.067    3.733    3.911 
#    0.000    4.889    0.000    0.000    0.000    0.000 
#    0.000    0.000    0.000    0.000    0.000    0.000 
#
# Total GULP energy -250715.716827 kJ/mol
# GULP energy per Si atom -5571.460374 kJ/mol
# Density = 1.952358 g / cm^3
# Si number density = 19.568114 Si / 1000 Ang^3
#
#
#
# Elastic Constant Matrix: (Units=GPa)
#
#
# Indices 1 2 3 4 5 6 
#
# 1 60.6097 22.7841 20.0811 0.0000 0.0000 0.0000
# 2 22.7841 148.4453 116.9531 0.0000 0.0000 0.0000
# 3 20.0811 116.9531 161.6821 0.0000 0.0000 0.0000
# 4 0.0000 0.0000 0.0000 125.3755 0.0000 0.0000
# 5 0.0000 0.0000 0.0000 0.0000 -51.8920 0.0000
# 6 0.0000 0.0000 0.0000 0.0000 0.0000 10.6034
#
#
#
# Elastic Compliance Matrix: (Units=1/GPa)
#
#
# Indices 1 2 3 4 5 6 
#
# 1 0.017529 -0.002267 -0.000537 0.000000 0.000000 0.000000
# 2 -0.002267 0.015956 -0.011260 0.000000 0.000000 0.000000
# 3 -0.000537 -0.011260 0.014397 0.000000 0.000000 0.000000
# 4 0.000000 0.000000 0.000000 0.007976 0.000000 0.000000
# 5 0.000000 0.000000 0.000000 0.000000 -0.019271 0.000000
# 6 0.000000 0.000000 0.000000 0.000000 0.000000 0.094309
#
#
# Mechanical properties :
#
#
# Convention : Reuss Voigt Hill
#
# Bulk Modulus (GPa) = 50.62573 76.70818 63.66696
# Shear Modulus (GPa) = 30.19157 30.87863 30.53510
#
# Velocity S-wave (km/s) = 3.93223 3.97672 3.95454
# Velocity P-wave (km/s) = 6.82234 7.76991 7.31149
#
# Compressibility (1/GPa) = 0.01975280
#
# Stress axis : x y z
#
# Youngs Moduli (GPa) = 57.04742 62.67340 69.46067
#
# Poissons Ratio (x) = 0.14210 0.03730
# Poissons Ratio (y) = 0.12935 0.78213
# Poissons Ratio (z) = 0.03064 0.70570
#
# Static dielectric constant tensor:
#      x y z
#    x 1.691320 0.000000 0.000000 
#    y 0.000000 1.686700 0.000000 
#    z 0.000000 0.000000 1.669780 
# 
# From -- ./inp_files/68190.got.cif
#   From: 2010.05.17/outbox.cif.g08.bks.cpg/sg71_35_cif.got.tgz:68190.got - 2010.06.03 16:22:01.
