data_PCOD9522518
_publ_section_title
;
Structure prediction by ZEFSAII (Michael W. Deem and Ramdas Pophale) SiO2 
 PCOD9522518
Probable space group: I M M M
;
_chemical_formula_sum "Si O2"
_cell_formula_units_Z 80
_cell_length_a 22.899334
_cell_length_b 13.380594
_cell_length_c 13.077261
_cell_angle_alpha 90.000000
_cell_angle_beta 90.000000
_cell_angle_gamma 90.000000
_cell_volume 4006.960272
_symmetry_space_group_name_H-M "I M M M"
_symmetry_group_IT_number 71
_symmetry_cell_setting 'orthorhombic'
loop_
_space_group_symop_operation_xyz
x,y,z
-x,-y,z
x,-y,-z
-x,y,-z
-x,-y,-z
x,y,-z
-x,y,z
x,-y,z
1/2+x,1/2+y,1/2+z
1/2-x,1/2-y,1/2+z
1/2+x,1/2-y,1/2-z
1/2-x,1/2+y,1/2-z
1/2-x,1/2-y,1/2-z
1/2+x,1/2+y,1/2-z
1/2-x,1/2+y,1/2+z
1/2+x,1/2-y,1/2+z
loop_
_atom_site_type_symbol
_atom_site_label
_atom_site_fract_x
_atom_site_fract_y
_atom_site_fract_z
Si Si1 0.569146 0.381467 0.704313
Si Si2 0.436276 0.000000 0.768768
Si Si3 0.316825 0.000000 0.121154
Si Si4 0.899613 0.673371 0.884587
Si Si5 0.849195 0.885961 0.389188
Si Si6 0.726648 0.147832 0.291516
O O1 0.500000 0.380636 0.726918
O O2 0.583441 0.500000 0.677564
O O3 0.582260 0.290201 0.626865
O O4 0.609225 0.347076 0.799943
O O5 0.385396 0.000000 0.852615
O O6 0.428972 0.901944 0.696608
O O7 0.500000 0.000000 0.815509
O O8 0.289838 0.089760 0.187830
O O9 0.305136 0.000000 0.000000
O O10 0.830707 0.659564 0.860267
O O11 0.912483 0.641304 0.000000
O O12 0.854203 0.835449 0.500000
O O13 0.781935 0.891321 0.354910
O O14 0.869578 0.000000 0.398865
O O15 0.750000 0.250000 0.250000
#
# Coordination Sequence:
#
# PCOD9522518 Si02
#       6
#    16   8   8  16  16  16
#     4  10  22  40  59  86 124 158 201 257 305 365
#     4  10  23  43  64  89 125 161 207 261 303 359
#     4  10  24  42  65  94 127 164 204 254 311 372
#     4  11  23  39  63  91 120 161 206 252 311 368
#     4  10  20  37  62  87 118 160 199 244 303 360
#     4  11  21  40  61  89 125 156 201 252 305 364
#
# _framework density 19.965260000000001
#
# number of rings (size 3 to 8) (size 9 to 14) (size 15 to 20)
#    0.000    1.600    3.000    1.500    0.000    4.600 
#    0.000    3.000    0.000    2.400    0.000    0.000 
#    0.000    0.000    0.000    0.000    0.000    0.000 
#
# Total GULP energy -222808.401095 kJ/mol
# GULP energy per Si atom -5570.210027 kJ/mol
# Density = 1.991982 g / cm^3
# Si number density = 19.965260 Si / 1000 Ang^3
#
#
#
# Elastic Constant Matrix: (Units=GPa)
#
#
# Indices 1 2 3 4 5 6 
#
# 1 90.9487 12.5484 20.9068 0.0000 0.0000 0.0000
# 2 12.5484 92.3507 17.3529 0.0000 0.0000 0.0000
# 3 20.9068 17.3529 85.7148 0.0000 0.0000 0.0000
# 4 0.0000 0.0000 0.0000 19.3140 0.0000 0.0000
# 5 0.0000 0.0000 0.0000 0.0000 -1.6493 0.0000
# 6 0.0000 0.0000 0.0000 0.0000 0.0000 31.3431
#
#
#
# Elastic Compliance Matrix: (Units=1/GPa)
#
#
# Indices 1 2 3 4 5 6 
#
# 1 0.011755 -0.001100 -0.002644 0.000000 0.000000 0.000000
# 2 -0.001100 0.011359 -0.002031 0.000000 0.000000 0.000000
# 3 -0.002644 -0.002031 0.012723 0.000000 0.000000 0.000000
# 4 0.000000 0.000000 0.000000 0.051776 0.000000 0.000000
# 5 0.000000 0.000000 0.000000 0.000000 -0.606331 0.000000
# 6 0.000000 0.000000 0.000000 0.000000 0.000000 0.031905
#
#
# Mechanical properties :
#
#
# Convention : Reuss Voigt Hill
#
# Bulk Modulus (GPa) = 41.17750 41.18114 41.17932
# Shear Modulus (GPa) = -10.70285 24.34864 6.82290
#
# Velocity S-wave (km/s) = -2.31784 3.49599 1.85062
# Velocity P-wave (km/s) = 3.67508 6.08006 5.02361
#
# Compressibility (1/GPa) = 0.02428510
#
# Stress axis : x y z
#
# Youngs Moduli (GPa) = 85.07089 88.03212 78.59881
#
# Poissons Ratio (x) = 0.09687 0.20785
# Poissons Ratio (y) = 0.09361 0.15966
# Poissons Ratio (z) = 0.22496 0.17882
#
# Static dielectric constant tensor:
#      x y z
#    x 1.616920 0.000000 0.000000 
#    y 0.000000 1.737810 0.000000 
#    z 0.000000 0.000000 1.767350 
# 
# From -- ./inp_files/27123.got.cif
#   From: 2010.05.17/outbox.cif.g08.bks.cpg/sg71_14_cif.got.tgz:27123.got - 2010.06.03 16:22:01.
