data_PCOD9522846
_publ_section_title
;
Structure prediction by ZEFSAII (Michael W. Deem and Ramdas Pophale) SiO2 
 PCOD9522846
Probable space group: I M M M
;
_chemical_formula_sum "Si O2"
_cell_formula_units_Z 96
_cell_length_a 20.905027
_cell_length_b 25.278699
_cell_length_c 8.027132
_cell_angle_alpha 90.000000
_cell_angle_beta 90.000000
_cell_angle_gamma 90.000000
_cell_volume 4241.953038
_symmetry_space_group_name_H-M "I M M M"
_symmetry_group_IT_number 71
_symmetry_cell_setting 'orthorhombic'
loop_
_space_group_symop_operation_xyz
x,y,z
-x,-y,z
x,-y,-z
-x,y,-z
-x,-y,-z
x,y,-z
-x,y,z
x,-y,z
1/2+x,1/2+y,1/2+z
1/2-x,1/2-y,1/2+z
1/2+x,1/2-y,1/2-z
1/2-x,1/2+y,1/2-z
1/2-x,1/2-y,1/2-z
1/2+x,1/2+y,1/2-z
1/2-x,1/2+y,1/2+z
1/2+x,1/2-y,1/2+z
loop_
_atom_site_type_symbol
_atom_site_label
_atom_site_fract_x
_atom_site_fract_y
_atom_site_fract_z
Si Si1 0.398613 0.440183 0.691663
Si Si2 0.823959 0.752711 0.303326
Si Si3 0.379972 0.939897 0.703480
Si Si4 0.260541 0.436685 0.812867
Si Si5 0.931857 0.828418 0.695927
Si Si6 0.930362 0.329960 0.798287
O O1 0.419058 0.439127 0.500000
O O2 0.409652 0.500000 0.756834
O O3 0.322683 0.428899 0.703677
O O4 0.428609 0.391490 0.786723
O O5 0.820108 0.759294 0.500000
O O6 0.750000 0.750000 0.250000
O O7 0.868189 0.800771 0.232855
O O8 0.869012 0.702371 0.263758
O O9 0.378523 0.942183 0.500000
O O10 0.308523 0.921687 0.754983
O O11 0.424998 0.891718 0.750553
O O12 0.393927 0.000000 0.760500
O O13 0.254824 0.500000 0.830410
O O14 0.270684 0.414187 0.000000
O O15 0.933262 0.815544 0.500000
O O16 0.000000 0.811159 0.771881
O O17 0.000000 0.309809 0.740655
O O18 0.928879 0.327538 0.000000
#
# Coordination Sequence:
#
# PCOD9522846 Si02
#       6
#    16  16  16  16  16  16
#     4  10  21  35  54  86 126 160 192 238 298 357
#     4  11  25  45  68  92 119 153 201 259 313 368
#     4   8  15  29  52  84 121 161 204 247 291 343
#     4   8  14  27  48  73 106 153 203 245 284 333
#     4  10  23  43  65  87 115 157 204 246 291 353
#     4  10  21  37  60  92 129 166 205 251 303 359
#
# _framework density 22.631084999999999
#
# number of rings (size 3 to 8) (size 9 to 14) (size 15 to 20)
#    0.000    2.500    0.000    2.500    2.333    4.333 
#    0.000    3.333    0.000    0.500    0.000    1.167 
#    0.000    0.000    0.000    0.000    0.000    0.000 
#
# Total GULP energy -267646.127023 kJ/mol
# GULP energy per Si atom -5575.960980 kJ/mol
# Density = 2.257958 g / cm^3
# Si number density = 22.631085 Si / 1000 Ang^3
#
#
#
# Elastic Constant Matrix: (Units=GPa)
#
#
# Indices 1 2 3 4 5 6 
#
# 1 199.1577 71.5058 21.4080 0.0000 0.0000 0.0000
# 2 71.5058 128.4110 0.1604 0.0000 0.0000 0.0000
# 3 21.4080 0.1604 24.8686 0.0000 0.0000 0.0000
# 4 0.0000 0.0000 0.0000 19.2621 0.0000 0.0000
# 5 0.0000 0.0000 0.0000 0.0000 4.6152 0.0000
# 6 0.0000 0.0000 0.0000 0.0000 0.0000 78.8983
#
#
#
# Elastic Compliance Matrix: (Units=1/GPa)
#
#
# Indices 1 2 3 4 5 6 
#
# 1 0.007089 -0.003940 -0.006077 0.000000 0.000000 0.000000
# 2 -0.003940 0.009977 0.003327 0.000000 0.000000 0.000000
# 3 -0.006077 0.003327 0.045421 0.000000 0.000000 0.000000
# 4 0.000000 0.000000 0.000000 0.051916 0.000000 0.000000
# 5 0.000000 0.000000 0.000000 0.000000 0.216673 0.000000
# 6 0.000000 0.000000 0.000000 0.000000 0.000000 0.012675
#
#
# Mechanical properties :
#
#
# Convention : Reuss Voigt Hill
#
# Bulk Modulus (GPa) = 20.36321 59.84286 40.10304
# Shear Modulus (GPa) = 13.38689 37.84599 25.61644
#
# Velocity S-wave (km/s) = 2.43477 4.09381 3.36804
# Velocity P-wave (km/s) = 4.11358 6.98899 5.73444
#
# Compressibility (1/GPa) = 0.04910816
#
# Stress axis : x y z
#
# Youngs Moduli (GPa) = 141.06394 100.22767 22.01610
#
# Poissons Ratio (x) = 0.39489 0.13379
# Poissons Ratio (y) = 0.55578 -0.07325
# Poissons Ratio (z) = 0.85726 -0.33349
#
# Static dielectric constant tensor:
#      x y z
#    x 1.936060 0.000000 0.000000 
#    y 0.000000 1.860370 0.000000 
#    z 0.000000 0.000000 1.818090 
# 
# From -- ./inp_files/10861.got.cif
#   From: 2010.05.17/outbox.cif.g08.bks.cpg/sg71_6_cif.got.tgz:10861.got - 2010.06.03 16:22:01.
