data_PCOD9522169
_publ_section_title
;
Structure prediction by ZEFSAII (Michael W. Deem and Ramdas Pophale) SiO2 
 PCOD9522169
Probable space group: I M M M
;
_chemical_formula_sum "Si O2"
_cell_formula_units_Z 76
_cell_length_a 27.847102
_cell_length_b 18.702530
_cell_length_c 9.565619
_cell_angle_alpha 90.000000
_cell_angle_beta 90.000000
_cell_angle_gamma 90.000000
_cell_volume 4981.882090
_symmetry_space_group_name_H-M "I M M M"
_symmetry_group_IT_number 71
_symmetry_cell_setting 'orthorhombic'
loop_
_space_group_symop_operation_xyz
x,y,z
-x,-y,z
x,-y,-z
-x,y,-z
-x,-y,-z
x,y,-z
-x,y,z
x,-y,z
1/2+x,1/2+y,1/2+z
1/2-x,1/2-y,1/2+z
1/2+x,1/2-y,1/2-z
1/2-x,1/2+y,1/2-z
1/2-x,1/2-y,1/2-z
1/2+x,1/2+y,1/2-z
1/2-x,1/2+y,1/2+z
1/2+x,1/2-y,1/2+z
loop_
_atom_site_type_symbol
_atom_site_label
_atom_site_fract_x
_atom_site_fract_y
_atom_site_fract_z
Si Si1 0.247050 0.000000 0.831603
Si Si2 0.942267 0.915815 0.000000
Si Si3 0.229054 0.640490 0.835370
Si Si4 0.908786 0.861101 0.293984
Si Si5 0.821763 0.240925 0.661005
Si Si6 0.845647 0.000000 0.348875
Si Si7 0.500000 0.351217 0.000000
O O1 0.269796 0.070032 0.759564
O O2 0.191881 0.000000 0.777278
O O3 0.250170 0.000000 0.000000
O O4 0.921834 0.877136 0.864905
O O5 0.000000 0.913394 0.000000
O O6 0.928512 0.000000 0.000000
O O7 0.192005 0.697208 0.769247
O O8 0.281254 0.679026 0.824036
O O9 0.220331 0.626650 0.000000
O O10 0.873312 0.794324 0.313351
O O11 0.879089 0.930681 0.343420
O O12 0.957432 0.853279 0.380148
O O13 0.818530 0.266544 0.500000
O O14 0.819198 0.000000 0.500000
#
# Coordination Sequence:
#
# PCOD9522169 Si02
#       7
#     8   8  16  16  16   8   4
#     4  12  24  36  54  80 110 147 187 226 277 335
#     4  11  24  36  46  71 103 138 180 237 271 310
#     4  10  21  36  56  78 106 140 178 226 280 332
#     4  12  23  36  54  73 106 142 194 233 281 322
#     4  10  20  36  53  77 105 138 180 231 275 331
#     4  12  22  34  51  74 102 145 191 241 267 318
#     4  12  24  39  54  78  98 161 194 238 290 315
#
# _framework density 15.255278000000001
#
# number of rings (size 3 to 8) (size 9 to 14) (size 15 to 20)
#    0.000    0.947    6.316    1.579    2.947    1.684 
#    0.000    0.000    0.000    0.000    0.000    0.000 
#    0.000    1.684    0.000    2.947    0.000    0.000 
#
# Total GULP energy -211640.733853 kJ/mol
# GULP energy per Si atom -5569.492996 kJ/mol
# Density = 1.522056 g / cm^3
# Si number density = 15.255278 Si / 1000 Ang^3
#
#
#
# Elastic Constant Matrix: (Units=GPa)
#
#
# Indices 1 2 3 4 5 6 
#
# 1 86.6361 47.7686 42.0862 0.0000 0.0000 0.0000
# 2 47.7686 83.2653 58.8759 0.0000 0.0000 0.0000
# 3 42.0862 58.8759 175.9975 0.0000 0.0000 0.0000
# 4 0.0000 0.0000 0.0000 25.3822 0.0000 0.0000
# 5 0.0000 0.0000 0.0000 0.0000 22.3711 0.0000
# 6 0.0000 0.0000 0.0000 0.0000 0.0000 6.7879
#
#
#
# Elastic Compliance Matrix: (Units=1/GPa)
#
#
# Indices 1 2 3 4 5 6 
#
# 1 0.017031 -0.009026 -0.001053 0.000000 0.000000 0.000000
# 2 -0.009026 0.020514 -0.004704 0.000000 0.000000 0.000000
# 3 -0.001053 -0.004704 0.007507 0.000000 0.000000 0.000000
# 4 0.000000 0.000000 0.000000 0.039398 0.000000 0.000000
# 5 0.000000 0.000000 0.000000 0.000000 0.044701 0.000000
# 6 0.000000 0.000000 0.000000 0.000000 0.000000 0.147321
#
#
# Mechanical properties :
#
#
# Convention : Reuss Voigt Hill
#
# Bulk Modulus (GPa) = 64.57439 71.48450 68.02944
# Shear Modulus (GPa) = 16.06687 24.05278 20.05983
#
# Velocity S-wave (km/s) = 3.24883 3.97506 3.63015
# Velocity P-wave (km/s) = 7.51627 8.24795 7.89059
#
# Compressibility (1/GPa) = 0.01548602
#
# Stress axis : x y z
#
# Youngs Moduli (GPa) = 58.71775 48.74720 133.20126
#
# Poissons Ratio (x) = 0.43997 0.14029
# Poissons Ratio (y) = 0.52996 0.62661
# Poissons Ratio (z) = 0.06184 0.22932
#
# Static dielectric constant tensor:
#      x y z
#    x 1.485650 0.000000 0.000000 
#    y 0.000000 1.504350 0.000000 
#    z 0.000000 0.000000 1.533530 
# 
# From -- ./inp_files/14651.got.cif
#   From: 2010.05.17/outbox.cif.g08.bks.cpg/sg71_8_cif.got.tgz:14651.got - 2010.06.03 16:22:01.
