data_PCOD9522801
_publ_section_title
;
Structure prediction by ZEFSAII (Michael W. Deem and Ramdas Pophale) SiO2 
 PCOD9522801
Probable space group: I M M M
;
_chemical_formula_sum "Si O2"
_cell_formula_units_Z 72
_cell_length_a 19.386077
_cell_length_b 21.258147
_cell_length_c 7.431997
_cell_angle_alpha 90.000000
_cell_angle_beta 90.000000
_cell_angle_gamma 90.000000
_cell_volume 3062.815702
_symmetry_space_group_name_H-M "I M M M"
_symmetry_group_IT_number 71
_symmetry_cell_setting 'orthorhombic'
loop_
_space_group_symop_operation_xyz
x,y,z
-x,-y,z
x,-y,-z
-x,y,-z
-x,-y,-z
x,y,-z
-x,y,z
x,-y,z
1/2+x,1/2+y,1/2+z
1/2-x,1/2-y,1/2+z
1/2+x,1/2-y,1/2-z
1/2-x,1/2+y,1/2-z
1/2-x,1/2-y,1/2-z
1/2+x,1/2+y,1/2-z
1/2-x,1/2+y,1/2+z
1/2+x,1/2-y,1/2+z
loop_
_atom_site_type_symbol
_atom_site_label
_atom_site_fract_x
_atom_site_fract_y
_atom_site_fract_z
Si Si1 0.500000 0.575971 0.203952
Si Si2 0.417077 0.067421 0.283381
Si Si3 0.579408 0.203639 0.719981
Si Si4 0.844793 0.070484 0.208087
Si Si5 0.189810 0.200700 0.215421
O O1 0.500000 0.500000 0.203820
O O2 0.574163 0.591066 0.287967
O O3 0.500000 0.599104 0.000000
O O4 0.408855 0.066710 0.500000
O O5 0.500000 0.067925 0.250458
O O6 0.391347 0.135430 0.219807
O O7 0.389897 0.000000 0.215204
O O8 0.581005 0.203077 0.500000
O O9 0.500000 0.208118 0.773388
O O10 0.622408 0.262852 0.783245
O O11 0.804091 0.129816 0.288153
O O12 0.838564 0.000000 0.288308
O O13 0.824835 0.064372 0.000000
O O14 0.250000 0.250000 0.250000
O O15 0.183574 0.194360 0.000000
#
# Coordination Sequence:
#
# PCOD9522801 Si02
#       5
#     8  16  16  16  16
#     4   9  17  29  49  81 113 135 162 215 280 323
#     4   7   9  15  30  54  84 113 140 178 229 280
#     4   8  14  25  43  66  89 118 159 202 246 297
#     4   9  18  33  53  75 101 139 184 221 259 320
#     4  10  21  35  52  72 101 137 172 216 265 315
#
# _framework density 23.507781000000001
#
# number of rings (size 3 to 8) (size 9 to 14) (size 15 to 20)
#    0.000    3.444    0.000    2.333    1.556    2.222 
#    0.000    1.111    0.000    1.333    0.000    0.000 
#    0.000    0.000    0.000   11.111    0.000    4.444 
#
# Total GULP energy -200596.983680 kJ/mol
# GULP energy per Si atom -5572.138436 kJ/mol
# Density = 2.345428 g / cm^3
# Si number density = 23.507781 Si / 1000 Ang^3
#
#
#
# Elastic Constant Matrix: (Units=GPa)
#
#
# Indices 1 2 3 4 5 6 
#
# 1 38.9172 59.0866 -6.7593 0.0000 0.0000 0.0000
# 2 59.0866 242.0728 13.7117 0.0000 0.0000 0.0000
# 3 -6.7593 13.7117 75.8511 0.0000 0.0000 0.0000
# 4 0.0000 0.0000 0.0000 -5.4416 0.0000 0.0000
# 5 0.0000 0.0000 0.0000 0.0000 1.7843 0.0000
# 6 0.0000 0.0000 0.0000 0.0000 0.0000 26.8116
#
#
#
# Elastic Compliance Matrix: (Units=1/GPa)
#
#
# Indices 1 2 3 4 5 6 
#
# 1 0.043225 -0.010880 0.005819 0.000000 0.000000 0.000000
# 2 -0.010880 0.006912 -0.002219 0.000000 0.000000 0.000000
# 3 0.005819 -0.002219 0.014103 0.000000 0.000000 0.000000
# 4 0.000000 0.000000 0.000000 -0.183770 0.000000 0.000000
# 5 0.000000 0.000000 0.000000 0.000000 0.560445 0.000000
# 6 0.000000 0.000000 0.000000 0.000000 0.000000 0.037297
#
#
# Mechanical properties :
#
#
# Convention : Reuss Voigt Hill
#
# Bulk Modulus (GPa) = 20.12886 54.32435 37.22661
# Shear Modulus (GPa) = 9.81673 24.01768 16.91720
#
# Velocity S-wave (km/s) = 2.04573 3.19986 2.68553
# Velocity P-wave (km/s) = 3.76314 6.06724 5.04840
#
# Compressibility (1/GPa) = 0.04967990
#
# Stress axis : x y z
#
# Youngs Moduli (GPa) = 23.13451 144.66697 70.90489
#
# Poissons Ratio (x) = 1.57402 -0.41258
# Poissons Ratio (y) = 0.25171 0.15735
# Poissons Ratio (z) = -0.13461 0.32104
#
# Static dielectric constant tensor:
#      x y z
#    x 1.842490 0.000000 0.000000 
#    y 0.000000 1.983780 0.000000 
#    z 0.000000 0.000000 1.888940 
# 
# From -- ./inp_files/9949.got.cif
#   From: 2010.05.17/outbox.cif.g08.bks.cpg/sg71_5_cif.got.tgz:9949.got - 2010.06.03 16:22:01.
