data_PCOD9522592
_publ_section_title
;
Structure prediction by ZEFSAII (Michael W. Deem and Ramdas Pophale) SiO2 
 PCOD9522592
Probable space group: I M M M
;
_chemical_formula_sum "Si O2"
_cell_formula_units_Z 90
_cell_length_a 21.598970
_cell_length_b 19.651368
_cell_length_c 11.485395
_cell_angle_alpha 90.000000
_cell_angle_beta 90.000000
_cell_angle_gamma 90.000000
_cell_volume 4874.967959
_symmetry_space_group_name_H-M "I M M M"
_symmetry_group_IT_number 71
_symmetry_cell_setting 'orthorhombic'
loop_
_space_group_symop_operation_xyz
x,y,z
-x,-y,z
x,-y,-z
-x,y,-z
-x,-y,-z
x,y,-z
-x,y,z
x,-y,z
1/2+x,1/2+y,1/2+z
1/2-x,1/2-y,1/2+z
1/2+x,1/2-y,1/2-z
1/2-x,1/2+y,1/2-z
1/2-x,1/2-y,1/2-z
1/2+x,1/2+y,1/2-z
1/2-x,1/2+y,1/2+z
1/2+x,1/2-y,1/2+z
loop_
_atom_site_type_symbol
_atom_site_label
_atom_site_fract_x
_atom_site_fract_y
_atom_site_fract_z
Si Si1 0.570081 0.201245 0.241098
Si Si2 0.000000 0.500000 0.500000
Si Si3 0.000000 0.076903 0.359963
Si Si4 0.134250 0.575925 0.861276
Si Si5 0.909583 0.628108 0.500000
Si Si6 0.268240 0.081918 0.000000
Si Si7 0.379198 0.333212 0.139936
Si Si8 0.771522 0.079245 0.254961
O O1 0.500000 0.221205 0.272809
O O2 0.594099 0.140286 0.322277
O O3 0.612931 0.267004 0.221381
O O4 0.570754 0.168446 0.113572
O O5 0.946088 0.558369 0.500000
O O6 0.061793 0.118894 0.332043
O O7 0.000000 0.071712 0.500000
O O8 0.000000 0.000000 0.312239
O O9 0.109679 0.500000 0.826118
O O10 0.201675 0.583042 0.803596
O O11 0.140338 0.575853 0.000000
O O12 0.835764 0.615943 0.500000
O O13 0.232496 0.098838 0.881134
O O14 0.277675 0.000000 0.000000
O O15 0.317410 0.373666 0.172716
O O16 0.380538 0.317614 0.000000
O O17 0.791021 0.000000 0.264376
#
# Coordination Sequence:
#
# PCOD9522592 Si02
#       8
#    16   2   8  16   8   8  16  16
#     4  12  24  39  60  87 126 163 199 251 310 363
#     4  12  24  28  68  96 118 152 214 250 296 366
#     4   9  18  33  59  89 117 153 199 249 301 358
#     4  10  23  42  63  89 122 160 205 254 299 360
#     4  12  22  36  58  94 121 157 198 250 302 366
#     4  10  20  38  62  91 124 152 199 261 307 354
#     4  11  22  38  60  89 125 160 198 252 312 366
#     4  10  21  39  65  91 121 159 203 255 306 364
#
# _framework density 18.461659000000001
#
# number of rings (size 3 to 8) (size 9 to 14) (size 15 to 20)
#    0.000    1.333    4.889    1.067    1.244    3.200 
#    1.600    0.889    0.000    0.533    0.000    2.489 
#    0.000    0.000    0.000    0.000    0.000    0.000 
#
# Total GULP energy -250863.323125 kJ/mol
# GULP energy per Si atom -5574.740514 kJ/mol
# Density = 1.841964 g / cm^3
# Si number density = 18.461659 Si / 1000 Ang^3
#
#
#
# Elastic Constant Matrix: (Units=GPa)
#
#
# Indices 1 2 3 4 5 6 
#
# 1 49.0174 23.8584 8.0907 0.0000 0.0000 0.0000
# 2 23.8584 93.4660 22.2094 0.0000 0.0000 0.0000
# 3 8.0907 22.2094 71.5042 0.0000 0.0000 0.0000
# 4 0.0000 0.0000 0.0000 36.0026 0.0000 0.0000
# 5 0.0000 0.0000 0.0000 0.0000 -472.8126 0.0000
# 6 0.0000 0.0000 0.0000 0.0000 0.0000 31.4178
#
#
#
# Elastic Compliance Matrix: (Units=1/GPa)
#
#
# Indices 1 2 3 4 5 6 
#
# 1 0.023343 -0.005756 -0.000853 0.000000 0.000000 0.000000
# 2 -0.005756 0.012971 -0.003378 0.000000 0.000000 0.000000
# 3 -0.000853 -0.003378 0.015131 0.000000 0.000000 0.000000
# 4 0.000000 0.000000 0.000000 0.027776 0.000000 0.000000
# 5 0.000000 0.000000 0.000000 0.000000 -0.002115 0.000000
# 6 0.000000 0.000000 0.000000 0.000000 0.000000 0.031829
#
#
# Mechanical properties :
#
#
# Convention : Reuss Voigt Hill
#
# Bulk Modulus (GPa) = 31.77499 35.81162 33.79331
# Shear Modulus (GPa) = 35.86822 -70.42316 -17.27747
#
# Velocity S-wave (km/s) = 4.41256 -6.18291 -3.06250
# Velocity P-wave (km/s) = 6.57340 5.61527 2.41643
#
# Compressibility (1/GPa) = 0.03147129
#
# Stress axis : x y z
#
# Youngs Moduli (GPa) = 42.83875 77.09558 66.09022
#
# Poissons Ratio (x) = 0.44375 0.05641
# Poissons Ratio (y) = 0.24657 0.22322
# Poissons Ratio (z) = 0.03656 0.26039
#
# Static dielectric constant tensor:
#      x y z
#    x 1.622600 0.000000 0.000000 
#    y 0.000000 1.659010 0.000000 
#    z 0.000000 0.000000 1.621980 
# 
# From -- ./inp_files/25719.got.cif
#   From: 2010.05.17/outbox.cif.g08.bks.cpg/sg71_13_cif.got.tgz:25719.got - 2010.06.03 16:22:01.
