data_PCOD9522810
_publ_section_title
;
Structure prediction by ZEFSAII (Michael W. Deem and Ramdas Pophale) SiO2 
 PCOD9522810
Probable space group: I M M M
;
_chemical_formula_sum "Si O2"
_cell_formula_units_Z 96
_cell_length_a 20.629186
_cell_length_b 28.278250
_cell_length_c 8.103612
_cell_angle_alpha 90.000000
_cell_angle_beta 90.000000
_cell_angle_gamma 90.000000
_cell_volume 4727.301046
_symmetry_space_group_name_H-M "I M M M"
_symmetry_group_IT_number 71
_symmetry_cell_setting 'orthorhombic'
loop_
_space_group_symop_operation_xyz
x,y,z
-x,-y,z
x,-y,-z
-x,y,-z
-x,-y,-z
x,y,-z
-x,y,z
x,-y,z
1/2+x,1/2+y,1/2+z
1/2-x,1/2-y,1/2+z
1/2+x,1/2-y,1/2-z
1/2-x,1/2+y,1/2-z
1/2-x,1/2-y,1/2-z
1/2+x,1/2+y,1/2-z
1/2-x,1/2+y,1/2+z
1/2+x,1/2-y,1/2+z
loop_
_atom_site_type_symbol
_atom_site_label
_atom_site_fract_x
_atom_site_fract_y
_atom_site_fract_z
Si Si1 0.797184 0.103613 0.700413
Si Si2 0.928186 0.054989 0.298974
Si Si3 0.298089 0.291163 0.194354
Si Si4 0.426168 0.757831 0.696206
Si Si5 0.668872 0.052879 0.198642
Si Si6 0.425114 0.136045 0.800499
O O1 0.797275 0.103790 0.500000
O O2 0.867819 0.086079 0.756793
O O3 0.783539 0.156683 0.763454
O O4 0.741381 0.068287 0.757153
O O5 0.928301 0.056047 0.500000
O O6 0.000000 0.070482 0.244268
O O7 0.919360 0.000000 0.251728
O O8 0.250000 0.250000 0.250000
O O9 0.371785 0.276261 0.231901
O O10 0.290289 0.294664 0.000000
O O11 0.426880 0.751997 0.500000
O O12 0.500000 0.750680 0.759176
O O13 0.407149 0.812080 0.735490
O O14 0.620822 0.094002 0.259916
O O15 0.654467 0.000000 0.260298
O O16 0.662762 0.051991 0.000000
O O17 0.500000 0.127318 0.754129
O O18 0.421721 0.137947 0.000000
#
# Coordination Sequence:
#
# PCOD9522810 Si02
#       6
#    16  16  16  16  16  16
#     4  10  21  35  53  77 102 133 174 217 259 307
#     4   8  14  27  49  75 100 125 156 198 246 293
#     4  11  23  37  55  79 107 141 182 227 273 321
#     4  10  21  37  57  81 110 143 179 221 270 325
#     4  10  21  35  52  77 108 140 173 213 264 319
#     4   9  18  34  56  79 104 138 179 220 262 311
#
# _framework density 20.307570999999999
#
# number of rings (size 3 to 8) (size 9 to 14) (size 15 to 20)
#    0.000    2.333    0.000    3.000    0.000    7.667 
#    0.000    3.333    0.000    0.500    0.000    5.833 
#    0.000    0.000    0.000    0.000    0.000    0.000 
#
# Total GULP energy -268007.559591 kJ/mol
# GULP energy per Si atom -5583.490825 kJ/mol
# Density = 2.026135 g / cm^3
# Si number density = 20.307571 Si / 1000 Ang^3
#
#
#
# Elastic Constant Matrix: (Units=GPa)
#
#
# Indices 1 2 3 4 5 6 
#
# 1 27.3462 -13.2540 -5.6010 0.0000 0.0000 0.0000
# 2 -13.2540 27.8016 -1.9014 0.0000 0.0000 0.0000
# 3 -5.6010 -1.9014 10.6520 0.0000 0.0000 0.0000
# 4 0.0000 0.0000 0.0000 17.7623 0.0000 0.0000
# 5 0.0000 0.0000 0.0000 0.0000 26.7500 0.0000
# 6 0.0000 0.0000 0.0000 0.0000 0.0000 39.7434
#
#
#
# Elastic Compliance Matrix: (Units=1/GPa)
#
#
# Indices 1 2 3 4 5 6 
#
# 1 0.058813 0.030526 0.036374 0.000000 0.000000 0.000000
# 2 0.030526 0.052257 0.025379 0.000000 0.000000 0.000000
# 3 0.036374 0.025379 0.117535 0.000000 0.000000 0.000000
# 4 0.000000 0.000000 0.000000 0.056299 0.000000 0.000000
# 5 0.000000 0.000000 0.000000 0.000000 0.037383 0.000000
# 6 0.000000 0.000000 0.000000 0.000000 0.000000 0.025161
#
#
# Mechanical properties :
#
#
# Convention : Reuss Voigt Hill
#
# Bulk Modulus (GPa) = 2.42036 2.69858 2.55947
# Shear Modulus (GPa) = 16.63269 22.62155 19.62712
#
# Velocity S-wave (km/s) = 2.86499 3.34120 3.11222
# Velocity P-wave (km/s) = 3.48406 4.02698 3.76532
#
# Compressibility (1/GPa) = 0.41316228
#
# Stress axis : x y z
#
# Youngs Moduli (GPa) = 17.00299 19.13602 8.50813
#
# Poissons Ratio (x) = -0.58414 -0.30947
# Poissons Ratio (y) = -0.51903 -0.21593
# Poissons Ratio (z) = -0.61846 -0.48565
#
# Static dielectric constant tensor:
#      x y z
#    x 1.758750 0.000000 0.000000 
#    y 0.000000 1.891080 0.000000 
#    z 0.000000 0.000000 1.723900 
# 
# From -- ./inp_files/10949.got.cif
#   From: 2010.05.17/outbox.cif.g08.bks.cpg/sg71_6_cif.got.tgz:10949.got - 2010.06.03 16:22:01.
