data_PCOD9522477
_publ_section_title
;
Structure prediction by ZEFSAII (Michael W. Deem and Ramdas Pophale) SiO2 
 PCOD9522477
Probable space group: I M M M
;
_chemical_formula_sum "Si O2"
_cell_formula_units_Z 88
_cell_length_a 14.047805
_cell_length_b 17.294285
_cell_length_c 19.099081
_cell_angle_alpha 90.000000
_cell_angle_beta 90.000000
_cell_angle_gamma 90.000000
_cell_volume 4640.059529
_symmetry_space_group_name_H-M "I M M M"
_symmetry_group_IT_number 71
_symmetry_cell_setting 'orthorhombic'
loop_
_space_group_symop_operation_xyz
x,y,z
-x,-y,z
x,-y,-z
-x,y,-z
-x,-y,-z
x,y,-z
-x,y,z
x,-y,z
1/2+x,1/2+y,1/2+z
1/2-x,1/2-y,1/2+z
1/2+x,1/2-y,1/2-z
1/2-x,1/2+y,1/2-z
1/2-x,1/2-y,1/2-z
1/2+x,1/2+y,1/2-z
1/2-x,1/2+y,1/2+z
1/2+x,1/2-y,1/2+z
loop_
_atom_site_type_symbol
_atom_site_label
_atom_site_fract_x
_atom_site_fract_y
_atom_site_fract_z
Si Si1 0.113939 0.741966 0.797411
Si Si2 0.745627 0.213823 0.423792
Si Si3 0.884932 0.500000 0.418045
Si Si4 0.885730 0.665966 0.354741
Si Si5 0.388650 0.415660 0.728998
Si Si6 0.604809 0.411470 0.897705
O O1 0.168545 0.706544 0.862789
O O2 0.131830 0.696136 0.724816
O O3 0.147992 0.831961 0.794407
O O4 0.000000 0.742060 0.806656
O O5 0.703284 0.229778 0.500000
O O6 0.822069 0.279501 0.403333
O O7 0.808882 0.137202 0.425407
O O8 0.850981 0.500000 0.500000
O O9 0.860025 0.577829 0.375111
O O10 0.000000 0.500000 0.422115
O O11 0.000000 0.675484 0.366626
O O12 0.500000 0.417562 0.707878
O O13 0.346991 0.500000 0.708388
O O14 0.388038 0.411396 0.813268
O O15 0.500000 0.379202 0.915384
O O16 0.607770 0.500000 0.920017
#
# Coordination Sequence:
#
# PCOD9522477 Si02
#       6
#    16  16   8  16  16  16
#     4  10  21  39  59  80 110 149 198 245 281 335
#     4  12  24  36  54  83 116 150 190 235 289 348
#     4   9  18  34  56  84 120 152 178 221 288 352
#     4  10  20  37  60  85 112 146 188 236 286 344
#     4   8  14  29  56  85 109 136 174 226 284 337
#     4   9  18  34  57  86 117 144 173 219 288 359
#
# _framework density 18.965274000000001
#
# number of rings (size 3 to 8) (size 9 to 14) (size 15 to 20)
#    0.000    2.273    1.818    2.727    0.000    2.909 
#    3.273    0.909    0.000    0.000    0.000    3.818 
#    0.000    0.000    0.000    0.000    0.000    0.000 
#
# Total GULP energy -245331.722583 kJ/mol
# GULP energy per Si atom -5575.720968 kJ/mol
# Density = 1.892211 g / cm^3
# Si number density = 18.965274 Si / 1000 Ang^3
#
#
#
# Elastic Constant Matrix: (Units=GPa)
#
#
# Indices 1 2 3 4 5 6 
#
# 1 58.0243 35.0159 24.4447 0.0000 0.0000 0.0000
# 2 35.0159 115.9426 50.1507 0.0000 0.0000 0.0000
# 3 24.4447 50.1507 93.2035 0.0000 0.0000 0.0000
# 4 0.0000 0.0000 0.0000 -56.5515 0.0000 0.0000
# 5 0.0000 0.0000 0.0000 0.0000 -5.8428 0.0000
# 6 0.0000 0.0000 0.0000 0.0000 0.0000 11.6558
#
#
#
# Elastic Compliance Matrix: (Units=1/GPa)
#
#
# Indices 1 2 3 4 5 6 
#
# 1 0.021626 -0.005315 -0.002812 0.000000 0.000000 0.000000
# 2 -0.005315 0.012548 -0.005358 0.000000 0.000000 0.000000
# 3 -0.002812 -0.005358 0.014350 0.000000 0.000000 0.000000
# 4 0.000000 0.000000 0.000000 -0.017683 0.000000 0.000000
# 5 0.000000 0.000000 0.000000 0.000000 -0.171150 0.000000
# 6 0.000000 0.000000 0.000000 0.000000 0.000000 0.085794
#
#
# Mechanical properties :
#
#
# Convention : Reuss Voigt Hill
#
# Bulk Modulus (GPa) = 46.39506 54.04369 50.21938
# Shear Modulus (GPa) = -245.55356 0.35626 -122.59865
#
# Velocity S-wave (km/s) = -11.39107 0.43388 -8.04886
# Velocity P-wave (km/s) = 12.18574 5.36740 7.73574
#
# Compressibility (1/GPa) = 0.02155402
#
# Stress axis : x y z
#
# Youngs Moduli (GPa) = 46.24004 79.69680 69.68871
#
# Poissons Ratio (x) = 0.42359 0.19597
# Poissons Ratio (y) = 0.24577 0.37336
# Poissons Ratio (z) = 0.13003 0.42698
#
# Static dielectric constant tensor:
#      x y z
#    x 1.650000 0.000000 0.000000 
#    y 0.000000 1.699460 0.000000 
#    z 0.000000 0.000000 1.678480 
# 
# From -- ./inp_files/44685.got.cif
#   From: 2010.05.17/outbox.cif.g08.bks.cpg/sg71_23_cif.got.tgz:44685.got - 2010.06.03 16:22:01.
