data_PCOD9522673
_publ_section_title
;
Structure prediction by ZEFSAII (Michael W. Deem and Ramdas Pophale) SiO2 
 PCOD9522673
Probable space group: I M M M
;
_chemical_formula_sum "Si O2"
_cell_formula_units_Z 96
_cell_length_a 29.222193
_cell_length_b 12.122752
_cell_length_c 15.180375
_cell_angle_alpha 90.000000
_cell_angle_beta 90.000000
_cell_angle_gamma 90.000000
_cell_volume 5377.699436
_symmetry_space_group_name_H-M "I M M M"
_symmetry_group_IT_number 71
_symmetry_cell_setting 'orthorhombic'
loop_
_space_group_symop_operation_xyz
x,y,z
-x,-y,z
x,-y,-z
-x,y,-z
-x,-y,-z
x,y,-z
-x,y,z
x,-y,z
1/2+x,1/2+y,1/2+z
1/2-x,1/2-y,1/2+z
1/2+x,1/2-y,1/2-z
1/2-x,1/2+y,1/2-z
1/2-x,1/2-y,1/2-z
1/2+x,1/2+y,1/2-z
1/2-x,1/2+y,1/2+z
1/2+x,1/2-y,1/2+z
loop_
_atom_site_type_symbol
_atom_site_label
_atom_site_fract_x
_atom_site_fract_y
_atom_site_fract_z
Si Si1 0.444604 0.500000 0.898742
Si Si2 0.945463 0.823347 0.749741
Si Si3 0.697343 0.370438 0.599126
Si Si4 0.667143 0.000000 0.397827
Si Si5 0.054806 0.000000 0.099633
Si Si6 0.218550 0.754416 0.663510
Si Si7 0.722402 0.500000 0.101137
Si Si8 0.141789 0.705820 0.219968
O O1 0.500000 0.500000 0.903336
O O2 0.432881 0.604718 0.837069
O O3 0.427434 0.500000 0.000000
O O4 0.910837 0.722926 0.756773
O O5 0.000000 0.801306 0.747257
O O6 0.935485 0.896087 0.837430
O O7 0.678431 0.360521 0.500000
O O8 0.702996 0.500000 0.620408
O O9 0.746792 0.308844 0.598917
O O10 0.663960 0.311167 0.668649
O O11 0.722322 0.000000 0.394353
O O12 0.649902 0.893802 0.346211
O O13 0.653648 0.000000 0.500000
O O14 0.000000 0.000000 0.090574
O O15 0.074213 0.000000 0.000000
O O16 0.250000 0.750000 0.750000
O O17 0.208404 0.881962 0.640981
O O18 0.172155 0.694209 0.691701
O O19 0.707762 0.500000 0.000000
#
# Coordination Sequence:
#
# PCOD9522673 Si02
#       8
#     8  16  16   8   8  16   8  16
#     4   8  15  32  59  84 110 148 186 227 285 348
#     4   9  19  35  52  80 116 148 187 233 281 331
#     4  10  21  34  52  79 111 141 174 220 272 331
#     4  11  22  38  57  77 104 150 200 229 266 335
#     4   8  15  28  48  73 107 149 180 211 270 337
#     4  10  21  32  54  75 105 135 179 221 272 324
#     4  11  20  36  55  77 111 148 181 221 270 330
#     4  11  23  34  56  79 106 143 187 228 278 329
#
# _framework density 17.851500000000001
#
# number of rings (size 3 to 8) (size 9 to 14) (size 15 to 20)
#    0.000    2.167    3.333    2.000    8.167    1.333 
#    0.000    2.917    0.000    0.500    0.000    0.000 
#    0.000    2.667    0.000    0.000    0.000    0.000 
#
# Total GULP energy -267348.272507 kJ/mol
# GULP energy per Si atom -5569.755677 kJ/mol
# Density = 1.781087 g / cm^3
# Si number density = 17.851500 Si / 1000 Ang^3
#
#
#
# Elastic Constant Matrix: (Units=GPa)
#
#
# Indices 1 2 3 4 5 6 
#
# 1 78.7656 20.6230 18.8762 0.0000 0.0000 0.0000
# 2 20.6230 82.3962 31.0630 0.0000 0.0000 0.0000
# 3 18.8762 31.0630 108.5945 0.0000 0.0000 0.0000
# 4 0.0000 0.0000 0.0000 15.2236 0.0000 0.0000
# 5 0.0000 0.0000 0.0000 0.0000 12.8243 0.0000
# 6 0.0000 0.0000 0.0000 0.0000 0.0000 67.7037
#
#
#
# Elastic Compliance Matrix: (Units=1/GPa)
#
#
# Indices 1 2 3 4 5 6 
#
# 1 0.013825 -0.002863 -0.001584 0.000000 0.000000 0.000000
# 2 -0.002863 0.014196 -0.003563 0.000000 0.000000 0.000000
# 3 -0.001584 -0.003563 0.010503 0.000000 0.000000 0.000000
# 4 0.000000 0.000000 0.000000 0.065688 0.000000 0.000000
# 5 0.000000 0.000000 0.000000 0.000000 0.077977 0.000000
# 6 0.000000 0.000000 0.000000 0.000000 0.000000 0.014770
#
#
# Mechanical properties :
#
#
# Convention : Reuss Voigt Hill
#
# Bulk Modulus (GPa) = 44.43669 45.65340 45.04505
# Shear Modulus (GPa) = 22.67764 32.42992 27.55378
#
# Velocity S-wave (km/s) = 3.56806 4.26684 3.93300
# Velocity P-wave (km/s) = 6.47466 7.06428 6.77589
#
# Compressibility (1/GPa) = 0.02250393
#
# Stress axis : x y z
#
# Youngs Moduli (GPa) = 72.33185 70.44048 95.20949
#
# Poissons Ratio (x) = 0.20168 0.15083
# Poissons Ratio (y) = 0.20709 0.33925
# Poissons Ratio (z) = 0.11458 0.25099
#
# Static dielectric constant tensor:
#      x y z
#    x 1.629270 0.000000 0.000000 
#    y 0.000000 1.618510 0.000000 
#    z 0.000000 0.000000 1.646340 
# 
# From -- ./inp_files/40928.got.cif
#   From: 2010.05.17/outbox.cif.g08.bks.cpg/sg71_21_cif.got.tgz:40928.got - 2010.06.03 16:22:01.
