data_PCOD9522595
_publ_section_title
;
Structure prediction by ZEFSAII (Michael W. Deem and Ramdas Pophale) SiO2 
 PCOD9522595
Probable space group: I M M M
;
_chemical_formula_sum "Si O2"
_cell_formula_units_Z 120
_cell_length_a 18.370362
_cell_length_b 21.674084
_cell_length_c 15.229767
_cell_angle_alpha 90.000000
_cell_angle_beta 90.000000
_cell_angle_gamma 90.000000
_cell_volume 6063.895742
_symmetry_space_group_name_H-M "I M M M"
_symmetry_group_IT_number 71
_symmetry_cell_setting 'orthorhombic'
loop_
_space_group_symop_operation_xyz
x,y,z
-x,-y,z
x,-y,-z
-x,y,-z
-x,-y,-z
x,y,-z
-x,y,z
x,-y,z
1/2+x,1/2+y,1/2+z
1/2-x,1/2-y,1/2+z
1/2+x,1/2-y,1/2-z
1/2-x,1/2+y,1/2-z
1/2-x,1/2-y,1/2-z
1/2+x,1/2+y,1/2-z
1/2-x,1/2+y,1/2+z
1/2+x,1/2-y,1/2+z
loop_
_atom_site_type_symbol
_atom_site_label
_atom_site_fract_x
_atom_site_fract_y
_atom_site_fract_z
Si Si1 0.813154 0.636967 0.856288
Si Si2 0.914217 0.425898 0.000000
Si Si3 0.701752 0.928077 0.826735
Si Si4 0.350891 0.330005 0.100096
Si Si5 0.916192 0.935129 0.716166
Si Si6 0.636096 0.597242 0.600972
Si Si7 0.667919 0.195332 0.894926
Si Si8 0.169728 0.233831 0.104920
O O1 0.792883 0.594411 0.773854
O O2 0.736364 0.657871 0.899108
O O3 0.848775 0.704960 0.840489
O O4 0.869126 0.600698 0.917668
O O5 0.911361 0.500000 0.000000
O O6 0.000000 0.407770 0.000000
O O7 0.779510 0.920155 0.876348
O O8 0.649611 0.873596 0.864338
O O9 0.680100 0.000000 0.833459
O O10 0.380756 0.377439 0.169908
O O11 0.371038 0.259751 0.126557
O O12 0.376169 0.340584 0.000000
O O13 0.909017 0.931924 0.820870
O O14 0.000000 0.935436 0.691341
O O15 0.881146 0.000000 0.687057
O O16 0.621452 0.580272 0.500000
O O17 0.624373 0.671107 0.610625
O O18 0.750609 0.210179 0.864953
O O19 0.670321 0.193377 0.000000
O O20 0.170977 0.249746 0.000000
#
# Coordination Sequence:
#
# PCOD9522595 Si02
#       8
#    16   8  16  16  16  16  16  16
#     4  11  19  34  58  85 114 147 195 244 290 352
#     4  11  24  40  56  80 121 163 188 226 297 372
#     4  11  21  30  51  88 120 151 195 245 291 345
#     4  10  20  38  63  88 110 148 201 254 303 352
#     4  11  25  41  56  82 120 161 204 247 299 359
#     4  10  21  36  57  83 118 159 202 248 295 348
#     4   8  17  32  53  82 113 147 187 238 298 353
#     4   8  15  30  53  80 106 142 193 238 291 343
#
# _framework density 19.789259000000001
#
# number of rings (size 3 to 8) (size 9 to 14) (size 15 to 20)
#    0.000    2.067    2.667    2.800    1.867    4.800 
#    0.000    2.000    0.000    0.000    0.000    0.000 
#    0.000    1.600    0.000   14.133    0.000    0.000 
#
# Total GULP energy -334083.501630 kJ/mol
# GULP energy per Si atom -5568.058360 kJ/mol
# Density = 1.974422 g / cm^3
# Si number density = 19.789259 Si / 1000 Ang^3
#
#
#
# Elastic Constant Matrix: (Units=GPa)
#
#
# Indices 1 2 3 4 5 6 
#
# 1 25.9775 21.5023 13.2165 0.0000 0.0000 0.0000
# 2 21.5023 197.4202 55.5493 0.0000 0.0000 0.0000
# 3 13.2165 55.5493 67.6151 0.0000 0.0000 0.0000
# 4 0.0000 0.0000 0.0000 -5.7475 0.0000 0.0000
# 5 0.0000 0.0000 0.0000 0.0000 3.5473 0.0000
# 6 0.0000 0.0000 0.0000 0.0000 0.0000 -4.5071
#
#
#
# Elastic Compliance Matrix: (Units=1/GPa)
#
#
# Indices 1 2 3 4 5 6 
#
# 1 0.044155 -0.003096 -0.006087 0.000000 0.000000 0.000000
# 2 -0.003096 0.006805 -0.004986 0.000000 0.000000 0.000000
# 3 -0.006087 -0.004986 0.020075 0.000000 0.000000 0.000000
# 4 0.000000 0.000000 0.000000 -0.173988 0.000000 0.000000
# 5 0.000000 0.000000 0.000000 0.000000 0.281902 0.000000
# 6 0.000000 0.000000 0.000000 0.000000 0.000000 -0.221871
#
#
# Mechanical properties :
#
#
# Convention : Reuss Voigt Hill
#
# Bulk Modulus (GPa) = 23.42065 52.39434 37.90750
# Shear Modulus (GPa) = -14263.64247 12.04151 -7125.80048
#
# Velocity S-wave (km/s) = -84.99069 2.46943 -60.07212
# Velocity P-wave (km/s) = 98.07835 5.88765 69.22679
#
# Compressibility (1/GPa) = 0.04269737
#
# Stress axis : x y z
#
# Youngs Moduli (GPa) = 22.64765 146.94037 49.81205
#
# Poissons Ratio (x) = 0.45500 0.30320
# Poissons Ratio (y) = 0.07013 0.24835
# Poissons Ratio (z) = 0.13785 0.73261
#
# Static dielectric constant tensor:
#      x y z
#    x 1.682810 0.000000 0.000000 
#    y 0.000000 1.785330 0.000000 
#    z 0.000000 0.000000 1.719130 
# 
# From -- ./inp_files/38450.got.cif
#   From: 2010.05.17/outbox.cif.g08.bks.cpg/sg71_20_cif.got.tgz:38450.got - 2010.06.03 16:22:01.
