data_PCOD9522209
_publ_section_title
;
Structure prediction by ZEFSAII (Michael W. Deem and Ramdas Pophale) SiO2 
 PCOD9522209
Probable space group: I M M M
;
_chemical_formula_sum "Si O2"
_cell_formula_units_Z 82
_cell_length_a 8.268340
_cell_length_b 20.536757
_cell_length_c 25.987058
_cell_angle_alpha 90.000000
_cell_angle_beta 90.000000
_cell_angle_gamma 90.000000
_cell_volume 4412.729509
_symmetry_space_group_name_H-M "I M M M"
_symmetry_group_IT_number 71
_symmetry_cell_setting 'orthorhombic'
loop_
_space_group_symop_operation_xyz
x,y,z
-x,-y,z
x,-y,-z
-x,y,-z
-x,-y,-z
x,y,-z
-x,y,z
x,-y,z
1/2+x,1/2+y,1/2+z
1/2-x,1/2-y,1/2+z
1/2+x,1/2-y,1/2-z
1/2-x,1/2+y,1/2-z
1/2-x,1/2-y,1/2-z
1/2+x,1/2+y,1/2-z
1/2-x,1/2+y,1/2+z
1/2+x,1/2-y,1/2+z
loop_
_atom_site_type_symbol
_atom_site_label
_atom_site_fract_x
_atom_site_fract_y
_atom_site_fract_z
Si Si1 0.823828 0.636125 0.500000
Si Si2 0.194785 0.798194 0.897322
Si Si3 0.695710 0.925049 0.295381
Si Si4 0.302082 0.074000 0.500000
Si Si5 0.806303 0.185043 0.780760
Si Si6 0.197692 0.351303 0.101308
Si Si7 0.500000 0.000000 0.000000
O O1 0.743283 0.659372 0.553223
O O2 0.000000 0.669163 0.500000
O O3 0.861506 0.558943 0.500000
O O4 0.251599 0.818409 0.840101
O O5 0.249623 0.723329 0.902484
O O6 0.000000 0.798179 0.896231
O O7 0.500000 0.926096 0.296097
O O8 0.750801 0.879135 0.249133
O O9 0.750617 0.888776 0.347470
O O10 0.751181 0.000000 0.292627
O O11 0.500000 0.074314 0.500000
O O12 0.249326 0.110367 0.551092
O O13 0.248654 0.000000 0.500000
O O14 0.750000 0.250000 0.750000
O O15 0.000000 0.188161 0.781557
O O16 0.000000 0.351044 0.102389
#
# Coordination Sequence:
#
# PCOD9522209 Si02
#       7
#     8  16  16   8  16  16   2
#     4  10  22  42  64  86 117 149 191 238 312 365
#     4  10  20  37  62  88 112 148 197 252 294 352
#     4  10  20  36  56  82 118 161 200 241 296 364
#     4   9  15  22  39  72 106 142 180 221 270 326
#     4  11  22  38  60  86 120 155 203 254 305 359
#     4   9  16  29  50  77 113 148 188 237 284 330
#     4   8  24  48  62  84 128 156 180 264 312 382
#
# _framework density 18.582602999999999
#
# number of rings (size 3 to 8) (size 9 to 14) (size 15 to 20)
#    0.293    1.854    1.951    2.049    0.000    5.854 
#    1.756    0.976    0.000    0.000    0.000    0.000 
#    0.000    4.683    0.000    0.000    0.000    0.000 
#
# Total GULP energy -228323.354895 kJ/mol
# GULP energy per Si atom -5568.862315 kJ/mol
# Density = 1.854031 g / cm^3
# Si number density = 18.582603 Si / 1000 Ang^3
#
#
#
# Elastic Constant Matrix: (Units=GPa)
#
#
# Indices 1 2 3 4 5 6 
#
# 1 16.0644 19.8948 20.2392 0.0000 0.0000 0.0000
# 2 19.8948 196.7615 121.4222 0.0000 0.0000 0.0000
# 3 20.2392 121.4222 207.2402 0.0000 0.0000 0.0000
# 4 0.0000 0.0000 0.0000 9.2937 0.0000 0.0000
# 5 0.0000 0.0000 0.0000 0.0000 22.7234 0.0000
# 6 0.0000 0.0000 0.0000 0.0000 0.0000 28.4322
#
#
#
# Elastic Compliance Matrix: (Units=1/GPa)
#
#
# Indices 1 2 3 4 5 6 
#
# 1 0.073672 -0.004713 -0.004433 0.000000 0.000000 0.000000
# 2 -0.004713 0.008262 -0.004380 0.000000 0.000000 0.000000
# 3 -0.004433 -0.004380 0.007825 0.000000 0.000000 0.000000
# 4 0.000000 0.000000 0.000000 0.107599 0.000000 0.000000
# 5 0.000000 0.000000 0.000000 0.000000 0.044008 0.000000
# 6 0.000000 0.000000 0.000000 0.000000 0.000000 0.035171
#
#
# Mechanical properties :
#
#
# Convention : Reuss Voigt Hill
#
# Bulk Modulus (GPa) = 15.94772 82.57537 49.26155
# Shear Modulus (GPa) = 15.40866 29.32386 22.36626
#
# Velocity S-wave (km/s) = 2.88270 3.97675 3.47308
# Velocity P-wave (km/s) = 4.43629 8.10058 6.53070
#
# Compressibility (1/GPa) = 0.06270489
#
# Stress axis : x y z
#
# Youngs Moduli (GPa) = 13.57365 121.03557 127.79903
#
# Poissons Ratio (x) = 0.57047 0.56658
# Poissons Ratio (y) = 0.06398 0.55982
# Poissons Ratio (z) = 0.06018 0.53019
#
# Static dielectric constant tensor:
#      x y z
#    x 1.673510 0.000000 0.000000 
#    y 0.000000 1.613680 0.000000 
#    z 0.000000 0.000000 1.654810 
# 
# From -- ./inp_files/57492.got.cif
#   From: 2010.05.17/outbox.cif.g08.bks.cpg/sg71_29_cif.got.tgz:57492.got - 2010.06.03 16:22:01.
