data_PCOD9522068
_publ_section_title
;
Structure prediction by ZEFSAII (Michael W. Deem and Ramdas Pophale) SiO2 
 PCOD9522068
Probable space group: I M M M
;
_chemical_formula_sum "Si O2"
_cell_formula_units_Z 116
_cell_length_a 8.739986
_cell_length_b 26.649635
_cell_length_c 26.052282
_cell_angle_alpha 90.000000
_cell_angle_beta 90.000000
_cell_angle_gamma 90.000000
_cell_volume 6068.030746
_symmetry_space_group_name_H-M "I M M M"
_symmetry_group_IT_number 71
_symmetry_cell_setting 'orthorhombic'
loop_
_space_group_symop_operation_xyz
x,y,z
-x,-y,z
x,-y,-z
-x,y,-z
-x,-y,-z
x,y,-z
-x,y,z
x,-y,z
1/2+x,1/2+y,1/2+z
1/2-x,1/2-y,1/2+z
1/2+x,1/2-y,1/2-z
1/2-x,1/2+y,1/2-z
1/2-x,1/2-y,1/2-z
1/2+x,1/2+y,1/2-z
1/2-x,1/2+y,1/2+z
1/2+x,1/2-y,1/2+z
loop_
_atom_site_type_symbol
_atom_site_label
_atom_site_fract_x
_atom_site_fract_y
_atom_site_fract_z
Si Si1 0.670448 0.603955 0.058720
Si Si2 0.181201 0.672471 0.144685
Si Si3 0.319277 0.781776 0.847412
Si Si4 0.681653 0.664057 0.555872
Si Si5 0.178230 0.945598 0.088122
Si Si6 0.319929 0.345873 0.744616
Si Si7 0.821275 0.443187 0.698121
Si Si8 0.500000 0.500000 0.073561
O O1 0.500000 0.628115 0.059573
O O2 0.766672 0.632487 0.101700
O O3 0.631293 0.545348 0.070376
O O4 0.729075 0.607667 0.000000
O O5 0.260074 0.726565 0.138809
O O6 0.233206 0.656374 0.201493
O O7 0.000000 0.678524 0.142492
O O8 0.500000 0.781680 0.838843
O O9 0.273928 0.815453 0.896118
O O10 0.240291 0.805204 0.796700
O O11 0.726602 0.684521 0.500000
O O12 0.500000 0.674287 0.563503
O O13 0.700792 0.604026 0.555726
O O14 0.285752 0.943143 0.137649
O O15 0.000000 0.943903 0.105885
O O16 0.200080 0.000000 0.062917
O O17 0.500000 0.338286 0.752464
O O18 0.284365 0.400750 0.722034
O O19 0.790531 0.500000 0.716861
O O20 0.000000 0.431533 0.707145
#
# Coordination Sequence:
#
# PCOD9522068 Si02
#       8
#    16  16  16  16  16  16  16   4
#     4   9  18  39  70 101 132 170 209 248 300 367
#     4  12  26  43  64  96 131 164 209 260 310 370
#     4  12  25  43  65  87 119 166 214 264 325 384
#     4  10  21  37  58  87 122 161 209 264 318 375
#     4   9  17  31  54  82 115 157 203 251 307 370
#     4  12  24  42  65  90 123 164 212 262 319 387
#     4  10  20  35  57  87 122 160 203 254 311 369
#     4   8  17  40  78 106 136 180 214 250 307 382
#
# _framework density 19.116581
#
# number of rings (size 3 to 8) (size 9 to 14) (size 15 to 20)
#    0.414    1.103    1.379    4.966    0.000    2.207 
#    1.241    1.724    0.000    0.828    0.000    2.897 
#    0.000    0.000    0.000    0.000    0.000    0.000 
#
# Total GULP energy -323028.696822 kJ/mol
# GULP energy per Si atom -5569.460290 kJ/mol
# Density = 1.907307 g / cm^3
# Si number density = 19.116581 Si / 1000 Ang^3
#
#
#
# Elastic Constant Matrix: (Units=GPa)
#
#
# Indices 1 2 3 4 5 6 
#
# 1 25.0663 2.4117 0.5660 0.0000 0.0000 0.0000
# 2 2.4117 81.8733 30.2506 0.0000 0.0000 0.0000
# 3 0.5660 30.2506 76.3518 0.0000 0.0000 0.0000
# 4 0.0000 0.0000 0.0000 5.5521 0.0000 0.0000
# 5 0.0000 0.0000 0.0000 0.0000 -14.3769 0.0000
# 6 0.0000 0.0000 0.0000 0.0000 0.0000 27.2528
#
#
#
# Elastic Compliance Matrix: (Units=1/GPa)
#
#
# Indices 1 2 3 4 5 6 
#
# 1 0.040010 -0.001252 0.000200 0.000000 0.000000 0.000000
# 2 -0.001252 0.014348 -0.005675 0.000000 0.000000 0.000000
# 3 0.000200 -0.005675 0.015344 0.000000 0.000000 0.000000
# 4 0.000000 0.000000 0.000000 0.180111 0.000000 0.000000
# 5 0.000000 0.000000 0.000000 0.000000 -0.069556 0.000000
# 6 0.000000 0.000000 0.000000 0.000000 0.000000 0.036693
#
#
# Mechanical properties :
#
#
# Convention : Reuss Voigt Hill
#
# Bulk Modulus (GPa) = 17.77895 27.74977 22.76436
# Shear Modulus (GPa) = 20.06774 13.68981 16.87878
#
# Velocity S-wave (km/s) = 3.24351 2.67895 2.97465
# Velocity P-wave (km/s) = 4.83194 4.91087 4.87156
#
# Compressibility (1/GPa) = 0.05624629
#
# Stress axis : x y z
#
# Youngs Moduli (GPa) = 24.99362 69.69709 65.17061
#
# Poissons Ratio (x) = 0.08728 -0.01301
# Poissons Ratio (y) = 0.03130 0.36986
# Poissons Ratio (z) = -0.00499 0.39555
#
# Static dielectric constant tensor:
#      x y z
#    x 1.651100 0.000000 0.000000 
#    y 0.000000 1.698270 0.000000 
#    z 0.000000 0.000000 1.683750 
# 
# From -- ./inp_files/58106.got.cif
#   From: 2010.05.17/outbox.cif.g08.bks.cpg/sg71_30_cif.got.tgz:58106.got - 2010.06.03 16:22:01.
