data_PCOD9522485
_publ_section_title
;
Structure prediction by ZEFSAII (Michael W. Deem and Ramdas Pophale) SiO2 
 PCOD9522485
Probable space group: I M M M
;
_chemical_formula_sum "Si O2"
_cell_formula_units_Z 116
_cell_length_a 9.793450
_cell_length_b 26.755158
_cell_length_c 23.042309
_cell_angle_alpha 90.000000
_cell_angle_beta 90.000000
_cell_angle_gamma 90.000000
_cell_volume 6037.667977
_symmetry_space_group_name_H-M "I M M M"
_symmetry_group_IT_number 71
_symmetry_cell_setting 'orthorhombic'
loop_
_space_group_symop_operation_xyz
x,y,z
-x,-y,z
x,-y,-z
-x,y,-z
-x,-y,-z
x,y,-z
-x,y,z
x,-y,z
1/2+x,1/2+y,1/2+z
1/2-x,1/2-y,1/2+z
1/2+x,1/2-y,1/2-z
1/2-x,1/2+y,1/2-z
1/2-x,1/2-y,1/2-z
1/2+x,1/2+y,1/2-z
1/2-x,1/2+y,1/2+z
1/2+x,1/2-y,1/2+z
loop_
_atom_site_type_symbol
_atom_site_label
_atom_site_fract_x
_atom_site_fract_y
_atom_site_fract_z
Si Si1 0.842246 0.723755 0.068922
Si Si2 0.343592 0.797277 0.763629
Si Si3 0.257881 0.923475 0.064591
Si Si4 0.657102 0.867134 0.348932
Si Si5 0.835301 0.681723 0.395903
Si Si6 0.155623 0.939963 0.709657
Si Si7 0.355537 0.941249 0.808852
Si Si8 0.000000 0.000000 0.072538
O O1 0.808440 0.671650 0.100239
O O2 0.735075 0.766375 0.086471
O O3 0.000000 0.736638 0.086771
O O4 0.840685 0.718293 0.000000
O O5 0.500000 0.779592 0.766571
O O6 0.250000 0.750000 0.750000
O O7 0.331519 0.834937 0.710161
O O8 0.315137 0.822021 0.826248
O O9 0.256630 0.863278 0.071650
O O10 0.341567 0.936777 0.122313
O O11 0.119651 0.955967 0.070205
O O12 0.313250 0.934527 0.000000
O O13 0.500000 0.883207 0.355890
O O14 0.756124 0.913628 0.339862
O O15 0.000000 0.679692 0.407675
O O16 0.225677 0.925834 0.771230
O O17 0.000000 0.922861 0.708765
O O18 0.157231 0.000000 0.704198
O O19 0.500000 0.917575 0.790020
O O20 0.363925 0.000000 0.796354
#
# Coordination Sequence:
#
# PCOD9522485 Si02
#       8
#    16  16  16  16  16  16  16   4
#     4  10  22  40  62  90 123 161 203 246 299 370
#     4  10  20  37  60  89 121 156 197 243 301 366
#     4  12  25  42  62  82 114 159 211 264 315 366
#     4  10  20  37  61  88 122 161 200 246 303 360
#     4  11  24  40  62  92 124 158 204 259 314 375
#     4  10  22  38  60  91 123 156 200 250 301 365
#     4  10  21  37  58  83 114 152 195 248 308 364
#     4  12  29  48  62  86 120 164 222 282 327 374
#
# _framework density 19.212717000000001
#
# number of rings (size 3 to 8) (size 9 to 14) (size 15 to 20)
#    0.000    1.517    2.069    2.690    1.931    4.966 
#    0.000    0.690    0.000    0.414    0.000    2.897 
#    0.000    0.000    0.000    0.000    0.000    0.000 
#
# Total GULP energy -323070.718480 kJ/mol
# GULP energy per Si atom -5570.184801 kJ/mol
# Density = 1.916899 g / cm^3
# Si number density = 19.212717 Si / 1000 Ang^3
#
#
#
# Elastic Constant Matrix: (Units=GPa)
#
#
# Indices 1 2 3 4 5 6 
#
# 1 104.5411 61.5482 25.1733 0.0000 0.0000 0.0000
# 2 61.5482 68.3666 23.7555 0.0000 0.0000 0.0000
# 3 25.1733 23.7555 56.8626 0.0000 0.0000 0.0000
# 4 0.0000 0.0000 0.0000 -3.3085 0.0000 0.0000
# 5 0.0000 0.0000 0.0000 0.0000 -10.6282 0.0000
# 6 0.0000 0.0000 0.0000 0.0000 0.0000 34.0362
#
#
#
# Elastic Compliance Matrix: (Units=1/GPa)
#
#
# Indices 1 2 3 4 5 6 
#
# 1 0.020477 -0.017880 -0.001595 0.000000 0.000000 0.000000
# 2 -0.017880 0.032724 -0.005755 0.000000 0.000000 0.000000
# 3 -0.001595 -0.005755 0.020697 0.000000 0.000000 0.000000
# 4 0.000000 0.000000 0.000000 -0.302249 0.000000 0.000000
# 5 0.000000 0.000000 0.000000 0.000000 -0.094089 0.000000
# 6 0.000000 0.000000 0.000000 0.000000 0.000000 0.029380
#
#
# Mechanical properties :
#
#
# Convention : Reuss Voigt Hill
#
# Bulk Modulus (GPa) = 42.67000 50.08047 46.37524
# Shear Modulus (GPa) = -21.29591 11.97278 -4.66157
#
# Velocity S-wave (km/s) = -3.33292 2.49904 -1.55935
# Velocity P-wave (km/s) = 2.72880 5.86940 4.57691
#
# Compressibility (1/GPa) = 0.02343567
#
# Stress axis : x y z
#
# Youngs Moduli (GPa) = 48.83612 30.55883 48.31632
#
# Poissons Ratio (x) = 0.54640 0.07708
# Poissons Ratio (y) = 0.87320 0.27808
# Poissons Ratio (z) = 0.07791 0.17588
#
# Static dielectric constant tensor:
#      x y z
#    x 1.690280 0.000000 0.000000 
#    y 0.000000 1.705220 0.000000 
#    z 0.000000 0.000000 1.676000 
# 
# From -- ./inp_files/58109.got.cif
#   From: 2010.05.17/outbox.cif.g08.bks.cpg/sg71_30_cif.got.tgz:58109.got - 2010.06.03 16:22:01.
