data_PCOD9522688
_publ_section_title
;
Structure prediction by ZEFSAII (Michael W. Deem and Ramdas Pophale) SiO2 
 PCOD9522688
Probable space group: I M M M
;
_chemical_formula_sum "Si O2"
_cell_formula_units_Z 108
_cell_length_a 34.093701
_cell_length_b 12.646688
_cell_length_c 14.894400
_cell_angle_alpha 90.000000
_cell_angle_beta 90.000000
_cell_angle_gamma 90.000000
_cell_volume 6422.054184
_symmetry_space_group_name_H-M "I M M M"
_symmetry_group_IT_number 71
_symmetry_cell_setting 'orthorhombic'
loop_
_space_group_symop_operation_xyz
x,y,z
-x,-y,z
x,-y,-z
-x,y,-z
-x,-y,-z
x,y,-z
-x,y,z
x,-y,z
1/2+x,1/2+y,1/2+z
1/2-x,1/2-y,1/2+z
1/2+x,1/2-y,1/2-z
1/2-x,1/2+y,1/2-z
1/2-x,1/2-y,1/2-z
1/2+x,1/2+y,1/2-z
1/2-x,1/2+y,1/2+z
1/2+x,1/2-y,1/2+z
loop_
_atom_site_type_symbol
_atom_site_label
_atom_site_fract_x
_atom_site_fract_y
_atom_site_fract_z
Si Si1 0.901996 0.378049 0.603349
Si Si2 0.794999 0.124997 0.603258
Si Si3 0.454943 0.628651 0.500000
Si Si4 0.701342 0.126046 0.398451
Si Si5 0.416797 0.374576 0.686257
Si Si6 0.073524 0.000000 0.500000
Si Si7 0.154271 0.263097 0.260978
Si Si8 0.045400 0.821848 0.366297
O O1 0.888027 0.367238 0.500000
O O2 0.913744 0.500000 0.616681
O O3 0.868857 0.345013 0.674832
O O4 0.937181 0.294266 0.616229
O O5 0.806739 0.148862 0.500000
O O6 0.748236 0.142140 0.610655
O O7 0.818005 0.194641 0.674243
O O8 0.802663 0.000000 0.617393
O O9 0.455841 0.500000 0.500000
O O10 0.500000 0.664849 0.500000
O O11 0.432461 0.661319 0.410236
O O12 0.690231 0.160822 0.500000
O O13 0.678423 0.182626 0.318806
O O14 0.694651 0.000000 0.393393
O O15 0.409633 0.500000 0.683474
O O16 0.378240 0.312991 0.717192
O O17 0.449012 0.350004 0.762217
O O18 0.070252 0.093012 0.577553
O O19 0.000000 0.832009 0.392795
#
# Coordination Sequence:
#
# PCOD9522688 Si02
#       8
#    16  16   8  16  16   4  16  16
#     4  10  22  37  50  72 106 143 180 213 257 317
#     4   9  18  34  54  79 108 137 172 213 264 326
#     4   9  18  34  52  68  95 138 176 213 258 318
#     4   9  19  35  55  76 100 134 178 224 265 311
#     4  10  21  33  49  76 107 134 169 213 270 324
#     4  12  21  32  54  80 110 130 170 222 266 308
#     4  11  20  32  54  77 105 136 175 215 268 308
#     4  11  21  34  54  78 103 137 174 221 268 315
#
# _framework density 16.817049000000001
#
# number of rings (size 3 to 8) (size 9 to 14) (size 15 to 20)
#    0.000    2.000    1.481    3.778    1.037    0.889 
#    0.000    0.741    0.000    0.000    0.000    6.222 
#    0.000    6.222    0.000    0.000    0.000    0.000 
#
# Total GULP energy -300758.233394 kJ/mol
# GULP energy per Si atom -5569.596915 kJ/mol
# Density = 1.677877 g / cm^3
# Si number density = 16.817049 Si / 1000 Ang^3
#
#
#
# Elastic Constant Matrix: (Units=GPa)
#
#
# Indices 1 2 3 4 5 6 
#
# 1 40.6152 26.6586 36.2520 0.0000 0.0000 0.0000
# 2 26.6586 90.2206 44.4378 0.0000 0.0000 0.0000
# 3 36.2520 44.4378 141.9431 0.0000 0.0000 0.0000
# 4 0.0000 0.0000 0.0000 28.2824 0.0000 0.0000
# 5 0.0000 0.0000 0.0000 0.0000 -8.5419 0.0000
# 6 0.0000 0.0000 0.0000 0.0000 0.0000 5.9057
#
#
#
# Elastic Compliance Matrix: (Units=1/GPa)
#
#
# Indices 1 2 3 4 5 6 
#
# 1 0.035354 -0.007093 -0.006809 0.000000 0.000000 0.000000
# 2 -0.007093 0.014528 -0.002737 0.000000 0.000000 0.000000
# 3 -0.006809 -0.002737 0.009641 0.000000 0.000000 0.000000
# 4 0.000000 0.000000 0.000000 0.035358 0.000000 0.000000
# 5 0.000000 0.000000 0.000000 0.000000 -0.117069 0.000000
# 6 0.000000 0.000000 0.000000 0.000000 0.000000 0.169327
#
#
# Mechanical properties :
#
#
# Convention : Reuss Voigt Hill
#
# Bulk Modulus (GPa) = 38.10105 54.16395 46.13250
# Shear Modulus (GPa) = 26.43219 16.15795 21.29507
#
# Velocity S-wave (km/s) = 3.96883 3.10305 3.56234
# Velocity P-wave (km/s) = 6.61117 6.71686 6.66423
#
# Compressibility (1/GPa) = 0.02624600
#
# Stress axis : x y z
#
# Youngs Moduli (GPa) = 28.28512 68.83414 103.72590
#
# Poissons Ratio (x) = 0.48823 0.70625
# Poissons Ratio (y) = 0.20062 0.28386
# Poissons Ratio (z) = 0.19259 0.18837
#
# Static dielectric constant tensor:
#      x y z
#    x 1.570360 0.000000 0.000000 
#    y 0.000000 1.542390 0.000000 
#    z 0.000000 0.000000 1.576880 
# 
# From -- ./inp_files/40977.got.cif
#   From: 2010.05.17/outbox.cif.g08.bks.cpg/sg71_21_cif.got.tgz:40977.got - 2010.06.03 16:22:01.
