data_PCOD9522454
_publ_section_title
;
Structure prediction by ZEFSAII (Michael W. Deem and Ramdas Pophale) SiO2 
 PCOD9522454
Probable space group: I M M M
;
_chemical_formula_sum "Si O2"
_cell_formula_units_Z 96
_cell_length_a 8.900451
_cell_length_b 25.966905
_cell_length_c 23.874296
_cell_angle_alpha 90.000000
_cell_angle_beta 90.000000
_cell_angle_gamma 90.000000
_cell_volume 5517.759622
_symmetry_space_group_name_H-M "I M M M"
_symmetry_group_IT_number 71
_symmetry_cell_setting 'orthorhombic'
loop_
_space_group_symop_operation_xyz
x,y,z
-x,-y,z
x,-y,-z
-x,y,-z
-x,-y,-z
x,y,-z
-x,y,z
x,-y,z
1/2+x,1/2+y,1/2+z
1/2-x,1/2-y,1/2+z
1/2+x,1/2-y,1/2-z
1/2-x,1/2+y,1/2-z
1/2-x,1/2-y,1/2-z
1/2+x,1/2+y,1/2-z
1/2-x,1/2+y,1/2+z
1/2+x,1/2-y,1/2+z
loop_
_atom_site_type_symbol
_atom_site_label
_atom_site_fract_x
_atom_site_fract_y
_atom_site_fract_z
Si Si1 0.676874 0.000000 0.433074
Si Si2 0.820803 0.308274 0.065743
Si Si3 0.818949 0.404586 0.368800
Si Si4 0.820152 0.000000 0.065191
Si Si5 0.820889 0.096817 0.370340
Si Si6 0.819811 0.438845 0.244377
Si Si7 0.320125 0.197453 0.934787
O O1 0.753035 0.949714 0.407068
O O2 0.500000 0.000000 0.418400
O O3 0.690613 0.000000 0.500000
O O4 0.740931 0.350191 0.104219
O O5 0.763183 0.250723 0.077843
O O6 0.000000 0.311459 0.072658
O O7 0.786199 0.318778 0.000000
O O8 0.744961 0.449845 0.404523
O O9 0.780312 0.413283 0.303794
O O10 0.776307 0.349426 0.394501
O O11 0.000000 0.409407 0.373478
O O12 0.000000 0.000000 0.069094
O O13 0.776768 0.000000 0.000000
O O14 0.763701 0.087020 0.307428
O O15 0.000000 0.095622 0.372599
O O16 0.784921 0.500000 0.246377
O O17 0.000000 0.434285 0.236386
O O18 0.500000 0.205417 0.929949
O O19 0.289127 0.183785 0.000000
#
# Coordination Sequence:
#
# PCOD9522454 Si02
#       7
#     8  16  16   8  16  16  16
#     4  11  23  38  57  82 113 146 180 223 280 341
#     4  10  21  38  60  84 113 150 187 226 279 339
#     4  10  20  37  60  84 110 148 194 235 281 335
#     4  11  23  34  49  80 119 152 184 231 286 337
#     4  12  24  37  57  84 113 146 188 233 279 331
#     4  10  20  37  59  81 111 151 192 233 279 334
#     4   9  18  34  58  87 116 145 182 232 284 334
#
# _framework density 17.398364999999998
#
# number of rings (size 3 to 8) (size 9 to 14) (size 15 to 20)
#    0.000    1.667    1.667    3.500    0.000    6.333 
#    0.000    2.500    0.000    0.000    0.000    0.000 
#    0.000    0.000    0.000    0.000    0.000    0.000 
#
# Total GULP energy -268196.784317 kJ/mol
# GULP energy per Si atom -5587.433007 kJ/mol
# Density = 1.735877 g / cm^3
# Si number density = 17.398365 Si / 1000 Ang^3
#
#
#
# Elastic Constant Matrix: (Units=GPa)
#
#
# Indices 1 2 3 4 5 6 
#
# 1 75.3307 74.0271 82.0344 0.0000 0.0000 0.0000
# 2 74.0271 152.4417 109.6342 0.0000 0.0000 0.0000
# 3 82.0344 109.6342 150.4939 0.0000 0.0000 0.0000
# 4 0.0000 0.0000 0.0000 -26.7312 0.0000 0.0000
# 5 0.0000 0.0000 0.0000 0.0000 16.7015 0.0000
# 6 0.0000 0.0000 0.0000 0.0000 0.0000 16.6200
#
#
#
# Elastic Compliance Matrix: (Units=1/GPa)
#
#
# Indices 1 2 3 4 5 6 
#
# 1 0.035959 -0.007068 -0.014452 0.000000 0.000000 0.000000
# 2 -0.007068 0.015168 -0.007197 0.000000 0.000000 0.000000
# 3 -0.014452 -0.007197 0.019766 0.000000 0.000000 0.000000
# 4 0.000000 0.000000 0.000000 -0.037409 0.000000 0.000000
# 5 0.000000 0.000000 0.000000 0.000000 0.059875 0.000000
# 6 0.000000 0.000000 0.000000 0.000000 0.000000 0.060169
#
#
# Mechanical properties :
#
#
# Convention : Reuss Voigt Hill
#
# Bulk Modulus (GPa) = 74.30502 101.07309 87.68905
# Shear Modulus (GPa) = 23.20741 8.82274 16.01507
#
# Velocity S-wave (km/s) = 3.65620 2.25433 3.03725
# Velocity P-wave (km/s) = 7.78617 8.06198 7.92528
#
# Compressibility (1/GPa) = 0.01345804
#
# Stress axis : x y z
#
# Youngs Moduli (GPa) = 27.80954 65.92621 50.59246
#
# Poissons Ratio (x) = 0.46598 0.73116
# Poissons Ratio (y) = 0.19656 0.36413
# Poissons Ratio (z) = 0.40190 0.47449
#
# Static dielectric constant tensor:
#      x y z
#    x 1.578510 0.000000 0.000000 
#    y 0.000000 1.558880 0.000000 
#    z 0.000000 0.000000 1.577720 
# 
# From -- ./inp_files/57770.got.cif
#   From: 2010.05.17/outbox.cif.g08.bks.cpg/sg71_29_cif.got.tgz:57770.got - 2010.06.03 16:22:01.
