data_PCOD9522348
_publ_section_title
;
Structure prediction by ZEFSAII (Michael W. Deem and Ramdas Pophale) SiO2 
 PCOD9522348
Probable space group: I M M M
;
_chemical_formula_sum "Si O2"
_cell_formula_units_Z 66
_cell_length_a 18.006346
_cell_length_b 7.602430
_cell_length_c 22.616643
_cell_angle_alpha 90.000000
_cell_angle_beta 90.000000
_cell_angle_gamma 90.000000
_cell_volume 3096.037155
_symmetry_space_group_name_H-M "I M M M"
_symmetry_group_IT_number 71
_symmetry_cell_setting 'orthorhombic'
loop_
_space_group_symop_operation_xyz
x,y,z
-x,-y,z
x,-y,-z
-x,y,-z
-x,-y,-z
x,y,-z
-x,y,z
x,-y,z
1/2+x,1/2+y,1/2+z
1/2-x,1/2-y,1/2+z
1/2+x,1/2-y,1/2-z
1/2-x,1/2+y,1/2-z
1/2-x,1/2-y,1/2-z
1/2+x,1/2+y,1/2-z
1/2-x,1/2+y,1/2+z
1/2+x,1/2-y,1/2+z
loop_
_atom_site_type_symbol
_atom_site_label
_atom_site_fract_x
_atom_site_fract_y
_atom_site_fract_z
Si Si1 0.500000 0.000000 0.000000
Si Si2 0.205688 0.294428 0.616583
Si Si3 0.000000 0.214903 0.067789
Si Si4 0.084082 0.213186 0.714458
Si Si5 0.123862 0.809058 0.500000
Si Si6 0.631735 0.285139 0.654156
O O1 0.564766 0.153387 0.000000
O O2 0.215465 0.500000 0.602538
O O3 0.144212 0.276687 0.667642
O O4 0.174680 0.205782 0.558029
O O5 0.285099 0.226538 0.639153
O O6 0.072519 0.269538 0.104692
O O7 0.000000 0.000000 0.067137
O O8 0.000000 0.273981 0.000000
O O9 0.105560 0.270391 0.780687
O O10 0.000000 0.270047 0.699977
O O11 0.084917 0.000000 0.713465
O O12 0.087289 0.000000 0.500000
O O13 0.631598 0.500000 0.655253
#
# Coordination Sequence:
#
# PCOD9522348 Si02
#       6
#     2  16   8  16   8  16
#     4  12  26  52  72  98 136 162 234 276 318 394
#     4  11  23  39  60  92 130 171 220 274 332 399
#     4   9  16  28  53  90 120 159 213 274 336 393
#     4  10  20  36  59  88 121 165 223 280 338 397
#     4  12  27  47  71 101 136 180 217 271 338 394
#     4   9  18  34  57  87 127 165 217 281 335 398
#
# _framework density 21.317574
#
# number of rings (size 3 to 8) (size 9 to 14) (size 15 to 20)
#    0.000    1.818    2.424    1.636    3.394    0.485 
#    0.000    1.212    0.000    0.000    0.000    0.848 
#    0.000    0.000    0.000    0.000    0.000    0.000 
#
# Total GULP energy -184277.557741 kJ/mol
# GULP energy per Si atom -5584.168416 kJ/mol
# Density = 2.126905 g / cm^3
# Si number density = 21.317574 Si / 1000 Ang^3
#
#
#
# Elastic Constant Matrix: (Units=GPa)
#
#
# Indices 1 2 3 4 5 6 
#
# 1 201.7830 13.0781 80.6553 0.0000 0.0000 0.0000
# 2 13.0781 85.8702 -0.7391 0.0000 0.0000 0.0000
# 3 80.6553 -0.7391 159.5433 0.0000 0.0000 0.0000
# 4 0.0000 0.0000 0.0000 38.1447 0.0000 0.0000
# 5 0.0000 0.0000 0.0000 0.0000 -39.2410 0.0000
# 6 0.0000 0.0000 0.0000 0.0000 0.0000 -3.3925
#
#
#
# Elastic Compliance Matrix: (Units=1/GPa)
#
#
# Indices 1 2 3 4 5 6 
#
# 1 0.006293 -0.000986 -0.003186 0.000000 0.000000 0.000000
# 2 -0.000986 0.011800 0.000553 0.000000 0.000000 0.000000
# 3 -0.003186 0.000553 0.007881 0.000000 0.000000 0.000000
# 4 0.000000 0.000000 0.000000 0.026216 0.000000 0.000000
# 5 0.000000 0.000000 0.000000 0.000000 -0.025484 0.000000
# 6 0.000000 0.000000 0.000000 0.000000 0.000000 -0.294771
#
#
# Mechanical properties :
#
#
# Convention : Reuss Voigt Hill
#
# Bulk Modulus (GPa) = 53.37023 70.35390 61.86206
# Shear Modulus (GPa) = -19.64014 22.71573 1.53780
#
# Velocity S-wave (km/s) = -3.03861 3.26787 0.85026
# Velocity P-wave (km/s) = 3.57482 6.87845 5.48144
#
# Compressibility (1/GPa) = 0.01873704
#
# Stress axis : x y z
#
# Youngs Moduli (GPa) = 158.90130 84.74291 126.88555
#
# Poissons Ratio (x) = 0.08355 0.40426
# Poissons Ratio (y) = 0.15666 -0.07018
# Poissons Ratio (z) = 0.50626 -0.04687
#
# Static dielectric constant tensor:
#      x y z
#    x 1.726280 0.000000 0.000000 
#    y 0.000000 1.813130 0.000000 
#    z 0.000000 0.000000 1.717760 
# 
# From -- ./inp_files/7654.got.cif
#   From: 2010.05.17/outbox.cif.g08.bks.cpg/sg71_4_cif.got.tgz:7654.got - 2010.06.03 16:22:01.
