data_PCOD9522038
_publ_section_title
;
Structure prediction by ZEFSAII (Michael W. Deem and Ramdas Pophale) SiO2 
 PCOD9522038
Probable space group: I M M M
;
_chemical_formula_sum "Si O2"
_cell_formula_units_Z 64
_cell_length_a 8.213700
_cell_length_b 22.803950
_cell_length_c 17.268836
_cell_angle_alpha 90.000000
_cell_angle_beta 90.000000
_cell_angle_gamma 90.000000
_cell_volume 3234.535944
_symmetry_space_group_name_H-M "I M M M"
_symmetry_group_IT_number 71
_symmetry_cell_setting 'orthorhombic'
loop_
_space_group_symop_operation_xyz
x,y,z
-x,-y,z
x,-y,-z
-x,y,-z
-x,-y,-z
x,y,-z
-x,y,z
x,-y,z
1/2+x,1/2+y,1/2+z
1/2-x,1/2-y,1/2+z
1/2+x,1/2-y,1/2-z
1/2-x,1/2+y,1/2-z
1/2-x,1/2-y,1/2-z
1/2+x,1/2+y,1/2-z
1/2-x,1/2+y,1/2+z
1/2+x,1/2-y,1/2+z
loop_
_atom_site_type_symbol
_atom_site_label
_atom_site_fract_x
_atom_site_fract_y
_atom_site_fract_z
Si Si1 0.819688 0.138277 0.407154
Si Si2 0.000000 0.431877 0.094713
Si Si3 0.193922 0.374747 0.590721
Si Si4 0.809053 0.245086 0.162287
Si Si5 0.194549 0.000000 0.090576
O O1 0.821891 0.132244 0.500000
O O2 0.665167 0.100566 0.378467
O O3 0.786435 0.205848 0.386328
O O4 0.000000 0.120940 0.377968
O O5 0.000000 0.500000 0.116754
O O6 0.000000 0.429291 0.000000
O O7 0.243468 0.373012 0.500000
O O8 0.275268 0.320182 0.632649
O O9 0.241785 0.438567 0.623324
O O10 0.000000 0.368213 0.594835
O O11 0.750000 0.250000 0.250000
O O12 0.000000 0.258026 0.156286
O O13 0.000000 0.000000 0.092551
O O14 0.249204 0.000000 0.000000
#
# Coordination Sequence:
#
# PCOD9522038 Si02
#       5
#    16   8  16  16   8
#     4  10  20  36  59  87 118 150 190 237 285 339
#     4   9  18  34  58  88 118 149 188 234 284 338
#     4  10  20  35  57  85 115 149 189 233 284 339
#     4  12  24  38  57  81 114 151 192 239 288 344
#     4   9  17  31  53  83 115 147 186 231 278 333
#
# _framework density 19.786456000000001
#
# number of rings (size 3 to 8) (size 9 to 14) (size 15 to 20)
#    0.000    1.750    1.250    4.125    0.000    6.500 
#    0.000    2.500    2.750    0.000    0.000    0.000 
#    0.000    0.000    0.000    0.000    0.000    0.000 
#
# Total GULP energy -178695.096847 kJ/mol
# GULP energy per Si atom -5584.221776 kJ/mol
# Density = 1.974142 g / cm^3
# Si number density = 19.786456 Si / 1000 Ang^3
#
#
#
# Elastic Constant Matrix: (Units=GPa)
#
#
# Indices 1 2 3 4 5 6 
#
# 1 137.0045 62.6676 17.8388 0.0000 0.0000 0.0000
# 2 62.6676 135.2482 14.8677 0.0000 0.0000 0.0000
# 3 17.8388 14.8677 15.8557 0.0000 0.0000 0.0000
# 4 0.0000 0.0000 0.0000 -11.7265 0.0000 0.0000
# 5 0.0000 0.0000 0.0000 0.0000 18.2638 0.0000
# 6 0.0000 0.0000 0.0000 0.0000 0.0000 26.6521
#
#
#
# Elastic Compliance Matrix: (Units=1/GPa)
#
#
# Indices 1 2 3 4 5 6 
#
# 1 0.010047 -0.003805 -0.007735 0.000000 0.000000 0.000000
# 2 -0.003805 0.009684 -0.004800 0.000000 0.000000 0.000000
# 3 -0.007735 -0.004800 0.076273 0.000000 0.000000 0.000000
# 4 0.000000 0.000000 0.000000 -0.085277 0.000000 0.000000
# 5 0.000000 0.000000 0.000000 0.000000 0.054753 0.000000
# 6 0.000000 0.000000 0.000000 0.000000 0.000000 0.037520
#
#
# Mechanical properties :
#
#
# Convention : Reuss Voigt Hill
#
# Bulk Modulus (GPa) = 15.79210 53.20630 34.49920
# Shear Modulus (GPa) = 31.89002 19.48685 25.68843
#
# Velocity S-wave (km/s) = 4.01897 3.14165 3.60708
# Velocity P-wave (km/s) = 5.43458 6.33313 5.90099
#
# Compressibility (1/GPa) = 0.06332281
#
# Stress axis : x y z
#
# Youngs Moduli (GPa) = 99.53630 103.25821 13.11081
#
# Poissons Ratio (x) = 0.39287 0.10142
# Poissons Ratio (y) = 0.37871 0.06294
# Poissons Ratio (z) = 0.76996 0.49567
#
# Static dielectric constant tensor:
#      x y z
#    x 1.698590 0.000000 0.000000 
#    y 0.000000 1.666070 0.000000 
#    z 0.000000 0.000000 1.660570 
# 
# From -- ./inp_files/41889.got.cif
#   From: 2010.05.17/outbox.cif.g08.bks.cpg/sg71_21_cif.got.tgz:41889.got - 2010.06.03 16:22:01.
