data_PCOD9522347
_publ_section_title
;
Structure prediction by ZEFSAII (Michael W. Deem and Ramdas Pophale) SiO2 
 PCOD9522347
Probable space group: I M M M
;
_chemical_formula_sum "Si O2"
_cell_formula_units_Z 82
_cell_length_a 18.154132
_cell_length_b 20.993467
_cell_length_c 11.565727
_cell_angle_alpha 90.000000
_cell_angle_beta 90.000000
_cell_angle_gamma 90.000000
_cell_volume 4407.908721
_symmetry_space_group_name_H-M "I M M M"
_symmetry_group_IT_number 71
_symmetry_cell_setting 'orthorhombic'
loop_
_space_group_symop_operation_xyz
x,y,z
-x,-y,z
x,-y,-z
-x,y,-z
-x,-y,-z
x,y,-z
-x,y,z
x,-y,z
1/2+x,1/2+y,1/2+z
1/2-x,1/2-y,1/2+z
1/2+x,1/2-y,1/2-z
1/2-x,1/2+y,1/2-z
1/2-x,1/2-y,1/2-z
1/2+x,1/2+y,1/2-z
1/2-x,1/2+y,1/2+z
1/2+x,1/2-y,1/2+z
loop_
_atom_site_type_symbol
_atom_site_label
_atom_site_fract_x
_atom_site_fract_y
_atom_site_fract_z
Si Si1 0.390386 0.119286 0.500000
Si Si2 0.327354 0.070776 0.861893
Si Si3 0.221671 0.923443 0.500000
Si Si4 0.500000 0.000000 0.500000
Si Si5 0.088792 0.190164 0.133597
Si Si6 0.415686 0.183746 0.256429
Si Si7 0.665155 0.426824 0.749518
O O1 0.302528 0.107642 0.500000
O O2 0.435647 0.054703 0.500000
O O3 0.413434 0.156750 0.386208
O O4 0.372618 0.131393 0.817720
O O5 0.246285 0.074351 0.807618
O O6 0.358298 0.000000 0.827924
O O7 0.322946 0.072215 0.000000
O O8 0.177589 0.908049 0.383255
O O9 0.233276 0.000000 0.500000
O O10 0.115313 0.245193 0.222641
O O11 0.115079 0.122494 0.181063
O O12 0.000000 0.194018 0.132586
O O13 0.113926 0.199396 0.000000
O O14 0.500000 0.187381 0.214834
O O15 0.638414 0.500000 0.744157
#
# Coordination Sequence:
#
# PCOD9522347 Si02
#       7
#     8  16   8   2  16  16  16
#     4  12  20  34  54  91 117 151 194 238 281 340
#     4  10  22  38  57  84 119 157 195 238 283 338
#     4  10  20  36  59  88 120 145 184 243 295 334
#     4  12  24  24  64  96 118 152 208 232 284 346
#     4  10  22  41  62  86 115 149 189 243 298 346
#     4  11  22  37  57  82 120 155 192 240 289 339
#     4  10  21  39  63  87 115 148 190 241 294 349
#
# _framework density 18.602927000000001
#
# number of rings (size 3 to 8) (size 9 to 14) (size 15 to 20)
#    0.000    1.561    4.390    0.585    1.366    3.122 
#    1.756    2.439    0.000    1.756    0.000    0.000 
#    0.000    0.000    0.000    0.000    0.000    0.000 
#
# Total GULP energy -228453.768609 kJ/mol
# GULP energy per Si atom -5572.043137 kJ/mol
# Density = 1.856059 g / cm^3
# Si number density = 18.602927 Si / 1000 Ang^3
#
#
#
# Elastic Constant Matrix: (Units=GPa)
#
#
# Indices 1 2 3 4 5 6 
#
# 1 16.0612 23.0319 12.4272 0.0000 0.0000 0.0000
# 2 23.0319 121.9252 39.5810 0.0000 0.0000 0.0000
# 3 12.4272 39.5810 87.0837 0.0000 0.0000 0.0000
# 4 0.0000 0.0000 0.0000 46.2823 0.0000 0.0000
# 5 0.0000 0.0000 0.0000 0.0000 26.4977 0.0000
# 6 0.0000 0.0000 0.0000 0.0000 0.0000 30.5622
#
#
#
# Elastic Compliance Matrix: (Units=1/GPa)
#
#
# Indices 1 2 3 4 5 6 
#
# 1 0.087871 -0.014697 -0.005860 0.000000 0.000000 0.000000
# 2 -0.014697 0.012079 -0.003393 0.000000 0.000000 0.000000
# 3 -0.005860 -0.003393 0.013862 0.000000 0.000000 0.000000
# 4 0.000000 0.000000 0.000000 0.021607 0.000000 0.000000
# 5 0.000000 0.000000 0.000000 0.000000 0.037739 0.000000
# 6 0.000000 0.000000 0.000000 0.000000 0.000000 0.032720
#
#
# Mechanical properties :
#
#
# Convention : Reuss Voigt Hill
#
# Bulk Modulus (GPa) = 15.17149 41.68336 28.42742
# Shear Modulus (GPa) = 18.13254 30.67046 24.40150
#
# Velocity S-wave (km/s) = 3.12543 4.06481 3.62567
# Velocity P-wave (km/s) = 4.60408 6.66977 5.73076
#
# Compressibility (1/GPa) = 0.06591312
#
# Stress axis : x y z
#
# Youngs Moduli (GPa) = 11.38035 82.78502 72.14185
#
# Poissons Ratio (x) = 1.21667 0.42272
# Poissons Ratio (y) = 0.16725 0.24478
# Poissons Ratio (z) = 0.06668 0.28089
#
# Static dielectric constant tensor:
#      x y z
#    x 1.618850 0.000000 0.000000 
#    y 0.000000 1.671850 0.000000 
#    z 0.000000 0.000000 1.632860 
# 
# From -- ./inp_files/23883.got.cif
#   From: 2010.05.17/outbox.cif.g08.bks.cpg/sg71_12_cif.got.tgz:23883.got - 2010.06.03 16:22:01.
