data_PCOD9522360
_publ_section_title
;
Structure prediction by ZEFSAII (Michael W. Deem and Ramdas Pophale) SiO2 
 PCOD9522360
Probable space group: I M M M
;
_chemical_formula_sum "Si O2"
_cell_formula_units_Z 104
_cell_length_a 7.747369
_cell_length_b 28.716282
_cell_length_c 22.574368
_cell_angle_alpha 90.000000
_cell_angle_beta 90.000000
_cell_angle_gamma 90.000000
_cell_volume 5022.246810
_symmetry_space_group_name_H-M "I M M M"
_symmetry_group_IT_number 71
_symmetry_cell_setting 'orthorhombic'
loop_
_space_group_symop_operation_xyz
x,y,z
-x,-y,z
x,-y,-z
-x,y,-z
-x,-y,-z
x,y,-z
-x,y,z
x,-y,z
1/2+x,1/2+y,1/2+z
1/2-x,1/2-y,1/2+z
1/2+x,1/2-y,1/2-z
1/2-x,1/2+y,1/2-z
1/2-x,1/2-y,1/2-z
1/2+x,1/2+y,1/2-z
1/2-x,1/2+y,1/2+z
1/2+x,1/2-y,1/2+z
loop_
_atom_site_type_symbol
_atom_site_label
_atom_site_fract_x
_atom_site_fract_y
_atom_site_fract_z
Si Si1 0.708645 0.771061 0.870646
Si Si2 0.704387 0.637111 0.703588
Si Si3 0.288419 0.903500 0.000000
Si Si4 0.801345 0.500000 0.928032
Si Si5 0.294272 0.051779 0.877400
Si Si6 0.793081 0.172305 0.671611
Si Si7 0.710551 0.795269 0.000000
Si Si8 0.708934 0.898193 0.567786
O O1 0.500000 0.769472 0.871633
O O2 0.757246 0.818642 0.838096
O O3 0.773198 0.724801 0.837862
O O4 0.768722 0.772230 0.938832
O O5 0.500000 0.632582 0.708547
O O6 0.766367 0.589975 0.673022
O O7 0.776551 0.648464 0.768783
O O8 0.227804 0.928567 0.940216
O O9 0.500000 0.903992 0.000000
O O10 0.237683 0.849445 0.000000
O O11 0.725327 0.449600 0.912326
O O12 0.000000 0.500000 0.906700
O O13 0.805702 0.500000 0.000000
O O14 0.500000 0.048152 0.884645
O O15 0.226497 0.000000 0.864581
O O16 0.758537 0.141240 0.613980
O O17 0.000000 0.175861 0.678180
O O18 0.500000 0.794253 0.000000
O O19 0.766748 0.889144 0.500000
O O20 0.500000 0.901062 0.566126
#
# Coordination Sequence:
#
# PCOD9522360 Si02
#       8
#    16  16   8   8  16  16   8  16
#     4  10  20  37  60  82 106 142 189 231 270 329
#     4  11  23  39  55  78 114 152 187 228 281 330
#     4   9  15  30  57  88 114 136 179 237 283 323
#     4   7  12  28  53  77 103 137 171 208 261 320
#     4  10  20  36  60  86 111 146 192 237 280 333
#     4  10  23  38  55  81 112 149 187 225 277 333
#     4   9  16  29  56  86 107 134 178 232 282 323
#     4   9  18  34  57  83 110 139 177 228 280 328
#
# _framework density 20.707861999999999
#
# number of rings (size 3 to 8) (size 9 to 14) (size 15 to 20)
#    0.000    2.385    1.538    2.077    1.077    3.385 
#    1.385    1.923    0.000    2.308    0.000    0.000 
#    0.000    0.000    0.000    0.000    0.000    0.000 
#
# Total GULP energy -290234.694537 kJ/mol
# GULP energy per Si atom -5581.436433 kJ/mol
# Density = 2.066073 g / cm^3
# Si number density = 20.707862 Si / 1000 Ang^3
#
#
#
# Elastic Constant Matrix: (Units=GPa)
#
#
# Indices 1 2 3 4 5 6 
#
# 1 28.3681 0.1482 -0.4483 0.0000 0.0000 0.0000
# 2 0.1482 136.5655 64.2528 0.0000 0.0000 0.0000
# 3 -0.4483 64.2528 129.9342 0.0000 0.0000 0.0000
# 4 0.0000 0.0000 0.0000 -1.1166 0.0000 0.0000
# 5 0.0000 0.0000 0.0000 0.0000 16.4601 0.0000
# 6 0.0000 0.0000 0.0000 0.0000 0.0000 14.5607
#
#
#
# Elastic Compliance Matrix: (Units=1/GPa)
#
#
# Indices 1 2 3 4 5 6 
#
# 1 0.035254 -0.000124 0.000183 0.000000 0.000000 0.000000
# 2 -0.000124 0.009543 -0.004720 0.000000 0.000000 0.000000
# 3 0.000183 -0.004720 0.010031 0.000000 0.000000 0.000000
# 4 0.000000 0.000000 0.000000 -0.895600 0.000000 -0.000001
# 5 0.000000 0.000000 0.000000 0.000000 0.060753 0.000000
# 6 0.000000 0.000000 0.000000 -0.000001 0.000000 0.068678
#
#
# Mechanical properties :
#
#
# Convention : Reuss Voigt Hill
#
# Bulk Modulus (GPa) = 21.97485 46.97480 34.47482
# Shear Modulus (GPa) = -7.27960 21.37521 7.04781
#
# Velocity S-wave (km/s) = -1.87697 3.21631 1.84684
# Velocity P-wave (km/s) = 2.43670 6.04373 4.60783
#
# Compressibility (1/GPa) = 0.04550657
#
# Stress axis : x y z
#
# Youngs Moduli (GPa) = 28.36526 104.78756 99.69441
#
# Poissons Ratio (x) = 0.01304 -0.01826
# Poissons Ratio (y) = 0.00353 0.47051
# Poissons Ratio (z) = -0.00520 0.49455
#
# Static dielectric constant tensor:
#      x y z
#    x 1.768720 0.000000 0.000000 
#    y 0.000000 1.770180 0.000000 
#    z 0.000000 0.000000 1.741110 
# 
# From -- ./inp_files/11202.got.cif
#   From: 2010.05.17/outbox.cif.g08.bks.cpg/sg71_6_cif.got.tgz:11202.got - 2010.06.03 16:22:01.
