data_PCOD9522350
_publ_section_title
;
Structure prediction by ZEFSAII (Michael W. Deem and Ramdas Pophale) SiO2 
 PCOD9522350
Probable space group: I M M M
;
_chemical_formula_sum "Si O2"
_cell_formula_units_Z 72
_cell_length_a 19.568444
_cell_length_b 10.134555
_cell_length_c 19.111053
_cell_angle_alpha 90.000000
_cell_angle_beta 90.000000
_cell_angle_gamma 90.000000
_cell_volume 3790.055718
_symmetry_space_group_name_H-M "I M M M"
_symmetry_group_IT_number 71
_symmetry_cell_setting 'orthorhombic'
loop_
_space_group_symop_operation_xyz
x,y,z
-x,-y,z
x,-y,-z
-x,y,-z
-x,-y,-z
x,y,-z
-x,y,z
x,-y,z
1/2+x,1/2+y,1/2+z
1/2-x,1/2-y,1/2+z
1/2+x,1/2-y,1/2-z
1/2-x,1/2+y,1/2-z
1/2-x,1/2-y,1/2-z
1/2+x,1/2+y,1/2-z
1/2-x,1/2+y,1/2+z
1/2+x,1/2-y,1/2+z
loop_
_atom_site_type_symbol
_atom_site_label
_atom_site_fract_x
_atom_site_fract_y
_atom_site_fract_z
Si Si1 0.622723 0.152081 0.081595
Si Si2 0.417996 0.246253 0.672922
Si Si3 0.191245 0.343932 0.721037
Si Si4 0.582532 0.000000 0.422435
Si Si5 0.583163 0.500000 0.418237
Si Si6 0.000000 0.849607 0.415684
O O1 0.683136 0.165539 0.137381
O O2 0.565850 0.260478 0.100626
O O3 0.596464 0.000000 0.088822
O O4 0.641518 0.169126 0.000000
O O5 0.500000 0.249914 0.684763
O O6 0.377674 0.212778 0.743230
O O7 0.399751 0.127744 0.620971
O O8 0.397361 0.375313 0.629278
O O9 0.199706 0.500000 0.738273
O O10 0.250000 0.250000 0.750000
O O11 0.500000 0.000000 0.427645
O O12 0.611395 0.000000 0.500000
O O13 0.500000 0.500000 0.422418
O O14 0.606673 0.500000 0.500000
O O15 0.000000 0.860624 0.500000
O O16 0.000000 0.000000 0.387088
#
# Coordination Sequence:
#
# PCOD9522350 Si02
#       6
#    16  16  16   8   8   8
#     4   9  19  38  62  86 115 158 207 246 291 355
#     4  10  20  36  59  90 119 153 200 247 298 353
#     4  11  25  42  62  85 123 161 197 249 307 363
#     4   9  16  30  55  84 117 151 189 242 294 342
#     4   9  18  34  57  88 125 159 197 246 296 350
#     4   9  17  31  55  93 127 149 186 247 306 347
#
# _framework density 18.997081999999999
#
# number of rings (size 3 to 8) (size 9 to 14) (size 15 to 20)
#    0.000    2.333    1.111    1.000    3.111    4.889 
#    0.000    2.222    0.000    0.000    0.000    0.000 
#    0.000    0.000    0.000    0.000    0.000    0.000 
#
# Total GULP energy -200597.756939 kJ/mol
# GULP energy per Si atom -5572.159915 kJ/mol
# Density = 1.895384 g / cm^3
# Si number density = 18.997082 Si / 1000 Ang^3
#
#
#
# Elastic Constant Matrix: (Units=GPa)
#
#
# Indices 1 2 3 4 5 6 
#
# 1 51.9286 44.6539 40.6315 0.0000 0.0000 0.0000
# 2 44.6539 171.6692 62.1149 0.0000 0.0000 0.0000
# 3 40.6315 62.1149 117.1687 0.0000 0.0000 0.0000
# 4 0.0000 0.0000 0.0000 33.3308 0.0000 0.0000
# 5 0.0000 0.0000 0.0000 0.0000 18.6834 0.0000
# 6 0.0000 0.0000 0.0000 0.0000 0.0000 68.3867
#
#
#
# Elastic Compliance Matrix: (Units=1/GPa)
#
#
# Indices 1 2 3 4 5 6 
#
# 1 0.029422 -0.004902 -0.007604 0.000000 0.000000 0.000000
# 2 -0.004902 0.008024 -0.002554 0.000000 0.000000 0.000000
# 3 -0.007604 -0.002554 0.012526 0.000000 0.000000 0.000000
# 4 0.000000 0.000000 0.000000 0.030002 0.000000 0.000000
# 5 0.000000 0.000000 0.000000 0.000000 0.053524 0.000000
# 6 0.000000 0.000000 0.000000 0.000000 0.000000 0.014623
#
#
# Mechanical properties :
#
#
# Convention : Reuss Voigt Hill
#
# Bulk Modulus (GPa) = 50.37320 70.61857 60.49588
# Shear Modulus (GPa) = 27.04766 36.97126 32.00946
#
# Velocity S-wave (km/s) = 3.77739 4.41631 4.10929
# Velocity P-wave (km/s) = 6.75269 7.95356 7.37760
#
# Compressibility (1/GPa) = 0.01985183
#
# Stress axis : x y z
#
# Youngs Moduli (GPa) = 33.98780 124.62084 79.83521
#
# Poissons Ratio (x) = 0.61086 0.60710
# Poissons Ratio (y) = 0.16660 0.20391
# Poissons Ratio (z) = 0.25846 0.31830
#
# Static dielectric constant tensor:
#      x y z
#    x 1.649250 0.000000 0.000000 
#    y 0.000000 1.188550 0.000000 
#    z 0.000000 0.000000 1.673400 
# 
# From -- ./inp_files/54705.got.cif
#   From: 2010.05.17/outbox.cif.g08.bks.cpg/sg71_28_cif.got.tgz:54705.got - 2010.06.03 16:22:01.
