data_PCOD9522297
_publ_section_title
;
Structure prediction by ZEFSAII (Michael W. Deem and Ramdas Pophale) SiO2 
 PCOD9522297
Probable space group: I M M M
;
_chemical_formula_sum "Si O2"
_cell_formula_units_Z 68
_cell_length_a 24.492645
_cell_length_b 7.547136
_cell_length_c 17.551194
_cell_angle_alpha 90.000000
_cell_angle_beta 90.000000
_cell_angle_gamma 90.000000
_cell_volume 3244.326325
_symmetry_space_group_name_H-M "I M M M"
_symmetry_group_IT_number 71
_symmetry_cell_setting 'orthorhombic'
loop_
_space_group_symop_operation_xyz
x,y,z
-x,-y,z
x,-y,-z
-x,y,-z
-x,-y,-z
x,y,-z
-x,y,z
x,-y,z
1/2+x,1/2+y,1/2+z
1/2-x,1/2-y,1/2+z
1/2+x,1/2-y,1/2-z
1/2-x,1/2+y,1/2-z
1/2-x,1/2-y,1/2-z
1/2+x,1/2+y,1/2-z
1/2-x,1/2+y,1/2+z
1/2+x,1/2-y,1/2+z
loop_
_atom_site_type_symbol
_atom_site_label
_atom_site_fract_x
_atom_site_fract_y
_atom_site_fract_z
Si Si1 0.104447 0.500000 0.413095
Si Si2 0.000000 0.500000 0.691317
Si Si3 0.121994 0.785597 0.160507
Si Si4 0.500000 0.714097 0.679818
Si Si5 0.665325 0.703900 0.172101
Si Si6 0.731035 0.284892 0.585566
O O1 0.089012 0.500000 0.500000
O O2 0.139234 0.671600 0.391335
O O3 0.052536 0.500000 0.360169
O O4 0.000000 0.676397 0.742223
O O5 0.059075 0.735277 0.144347
O O6 0.143565 0.733716 0.245150
O O7 0.168920 0.728274 0.102461
O O8 0.122418 0.000000 0.159928
O O9 0.500000 0.500000 0.689760
O O10 0.648739 0.500000 0.164700
O O11 0.729547 0.718014 0.152885
O O12 0.747631 0.229523 0.500000
O O13 0.733149 0.500000 0.587868
#
# Coordination Sequence:
#
# PCOD9522297 Si02
#       6
#     8   4  16   8  16  16
#     4  12  25  40  60  90 124 155 192 241 293 353
#     4  12  23  40  64  86 117 154 198 238 299 340
#     4   9  19  36  60  87 116 155 199 246 292 346
#     4  10  20  39  62  87 116 149 201 253 283 341
#     4  11  22  39  62  86 118 159 199 239 289 351
#     4  10  20  36  58  88 124 156 193 245 300 352
#
# _framework density 20.959668000000001
#
# number of rings (size 3 to 8) (size 9 to 14) (size 15 to 20)
#    0.000    1.647    3.529    1.588    0.000    1.882 
#    4.235    0.588    0.000    5.647    0.000    0.824 
#    0.000    0.000    0.000    0.000    0.000    0.000 
#
# Total GULP energy -189744.174749 kJ/mol
# GULP energy per Si atom -5580.711022 kJ/mol
# Density = 2.091196 g / cm^3
# Si number density = 20.959668 Si / 1000 Ang^3
#
#
#
# Elastic Constant Matrix: (Units=GPa)
#
#
# Indices 1 2 3 4 5 6 
#
# 1 144.2127 -1.0094 2.6568 0.0000 0.0000 0.0000
# 2 -1.0094 70.6523 1.8007 0.0000 0.0000 0.0000
# 3 2.6568 1.8007 22.9579 0.0000 0.0000 0.0000
# 4 0.0000 0.0000 0.0000 -8.3290 0.0000 0.0000
# 5 0.0000 0.0000 0.0000 0.0000 57.6321 0.0000
# 6 0.0000 0.0000 0.0000 0.0000 0.0000 14.8779
#
#
#
# Elastic Compliance Matrix: (Units=1/GPa)
#
#
# Indices 1 2 3 4 5 6 
#
# 1 0.006950 0.000120 -0.000814 0.000000 0.000000 0.000000
# 2 0.000120 0.014184 -0.001126 0.000000 0.000000 0.000000
# 3 -0.000814 -0.001126 0.043741 0.000000 0.000000 0.000000
# 4 0.000000 0.000000 0.000000 -0.120062 0.000000 0.000000
# 5 0.000000 0.000000 0.000000 0.000000 0.017351 0.000000
# 6 0.000000 0.000000 0.000000 0.000000 0.000000 0.067214
#
#
# Mechanical properties :
#
#
# Convention : Reuss Voigt Hill
#
# Bulk Modulus (GPa) = 16.33065 27.19101 21.76083
# Shear Modulus (GPa) = 93.58106 28.46118 61.02112
#
# Velocity S-wave (km/s) = 6.68918 3.68897 5.40155
# Velocity P-wave (km/s) = 8.21392 5.58085 7.02191
#
# Compressibility (1/GPa) = 0.06123456
#
# Stress axis : x y z
#
# Youngs Moduli (GPa) = 143.88416 70.50076 22.86209
#
# Poissons Ratio (x) = -0.00846 0.01860
# Poissons Ratio (y) = -0.01727 0.02575
# Poissons Ratio (z) = 0.11708 0.07942
#
# Static dielectric constant tensor:
#      x y z
#    x 1.825650 0.000000 0.000000 
#    y 0.000000 1.803280 0.000000 
#    z 0.000000 0.000000 1.710150 
# 
# From -- ./inp_files/12212.got.cif
#   From: 2010.05.17/outbox.cif.g08.bks.cpg/sg71_7_cif.got.tgz:12212.got - 2010.06.03 16:22:01.
