data_PCOD9522227
_publ_section_title
;
Structure prediction by ZEFSAII (Michael W. Deem and Ramdas Pophale) SiO2 
 PCOD9522227
Probable space group: I M M M
;
_chemical_formula_sum "Si O2"
_cell_formula_units_Z 112
_cell_length_a 38.213492
_cell_length_b 13.503055
_cell_length_c 13.503058
_cell_angle_alpha 90.000000
_cell_angle_beta 90.000000
_cell_angle_gamma 90.000000
_cell_volume 6967.562862
_symmetry_space_group_name_H-M "I M M M"
_symmetry_group_IT_number 71
_symmetry_cell_setting 'orthorhombic'
loop_
_space_group_symop_operation_xyz
x,y,z
-x,-y,z
x,-y,-z
-x,y,-z
-x,-y,-z
x,y,-z
-x,y,z
x,-y,z
1/2+x,1/2+y,1/2+z
1/2-x,1/2-y,1/2+z
1/2+x,1/2-y,1/2-z
1/2-x,1/2+y,1/2-z
1/2-x,1/2-y,1/2-z
1/2+x,1/2+y,1/2-z
1/2-x,1/2+y,1/2+z
1/2+x,1/2-y,1/2+z
loop_
_atom_site_type_symbol
_atom_site_label
_atom_site_fract_x
_atom_site_fract_y
_atom_site_fract_z
Si Si1 0.540821 0.117099 0.617100
Si Si2 0.408685 0.249745 0.250255
Si Si3 0.717118 0.616580 0.718527
Si Si4 0.857928 0.383516 0.382967
Si Si5 0.357928 0.617033 0.383515
Si Si6 0.217118 0.718527 0.383420
Si Si7 0.459270 0.382600 0.117400
O O1 0.546359 0.134875 0.500000
O O2 0.500000 0.138731 0.638731
O O3 0.566373 0.182309 0.682309
O O4 0.546359 0.000000 0.634876
O O5 0.384325 0.180310 0.182519
O O6 0.384325 0.317481 0.319690
O O7 0.432849 0.318559 0.181442
O O8 0.720562 0.500000 0.739253
O O9 0.681338 0.632189 0.657431
O O10 0.750000 0.655223 0.655224
O O11 0.715591 0.682242 0.817758
O O12 0.866008 0.372221 0.500000
O O13 0.859642 0.500000 0.358699
O O14 0.818662 0.342569 0.367811
O O15 0.359642 0.641301 0.500000
O O16 0.366008 0.500000 0.372221
O O17 0.220562 0.739252 0.500000
O O18 0.500000 0.359712 0.140287
O O19 0.454132 0.500000 0.134858
O O20 0.454131 0.365142 0.000000
#
# Coordination Sequence:
#
# PCOD9522227 Si02
#       7
#    16  16  16  16  16  16  16
#     4   9  19  35  53  74 100 132 173 216 256 304
#     4  12  19  32  53  80 102 136 170 214 261 312
#     4  10  20  36  57  80 105 141 181 218 256 302
#     4  10  21  35  51  76 108 138 171 213 261 311
#     4  10  21  35  51  76 108 138 171 213 261 311
#     4  10  20  36  57  80 105 141 181 218 256 302
#     4   9  19  35  53  74 102 136 173 212 256 312
#
# _framework density 16.074487000000001
#
# number of rings (size 3 to 8) (size 9 to 14) (size 15 to 20)
#    0.000    2.000    1.429    3.857    0.000    1.714 
#    0.000    0.000    0.000    0.000    0.000   12.000 
#    0.000    0.000    0.000    0.000    0.000    0.000 
#
# Total GULP energy -312552.264565 kJ/mol
# GULP energy per Si atom -5581.290439 kJ/mol
# Density = 1.603790 g / cm^3
# Si number density = 16.074487 Si / 1000 Ang^3
#
#
#
# Elastic Constant Matrix: (Units=GPa)
#
#
# Indices 1 2 3 4 5 6 
#
# 1 148.3849 103.0151 103.0137 0.0000 0.0000 0.0000
# 2 103.0151 124.9627 104.5101 0.0000 0.0000 0.0000
# 3 103.0137 104.5101 124.9595 0.0000 0.0000 0.0000
# 4 0.0000 0.0000 0.0000 27.7043 0.0000 0.0000
# 5 0.0000 0.0000 0.0000 0.0000 30.4019 0.0000
# 6 0.0000 0.0000 0.0000 0.0000 0.0000 30.4016
#
#
#
# Elastic Compliance Matrix: (Units=1/GPa)
#
#
# Indices 1 2 3 4 5 6 
#
# 1 0.017891 -0.008032 -0.008032 0.000000 0.000000 0.000000
# 2 -0.008032 0.030233 -0.018664 0.000000 0.000000 0.000000
# 3 -0.008032 -0.018664 0.030234 0.000000 0.000000 0.000000
# 4 0.000000 0.000000 0.000000 0.036096 0.000000 0.000000
# 5 0.000000 0.000000 0.000000 0.000000 0.032893 0.000000
# 6 0.000000 0.000000 0.000000 0.000000 0.000000 0.032893
#
#
# Mechanical properties :
#
#
# Convention : Reuss Voigt Hill
#
# Bulk Modulus (GPa) = 112.32919 113.26500 112.79709
# Shear Modulus (GPa) = 19.78935 23.55275 21.67105
#
# Velocity S-wave (km/s) = 3.51251 3.83198 3.67572
# Velocity P-wave (km/s) = 9.29959 9.49707 9.39885
#
# Compressibility (1/GPa) = 0.00890241
#
# Stress axis : x y z
#
# Youngs Moduli (GPa) = 55.89427 33.07655 33.07578
#
# Poissons Ratio (x) = 0.26566 0.26565
# Poissons Ratio (y) = 0.44892 0.61734
# Poissons Ratio (z) = 0.44892 0.61735
#
# Static dielectric constant tensor:
#      x y z
#    x 1.515360 0.000000 0.000000 
#    y 0.000000 1.511470 0.000000 
#    z 0.000000 0.000000 1.511470 
# 
# From -- ./inp_files/40946.got.cif
#   From: 2010.05.17/outbox.cif.g08.bks.cpg/sg71_21_cif.got.tgz:40946.got - 2010.06.03 16:22:01.
