data_PCOD9522857
_publ_section_title
;
Structure prediction by ZEFSAII (Michael W. Deem and Ramdas Pophale) SiO2 
 PCOD9522857
Probable space group: I M M M
;
_chemical_formula_sum "Si O2"
_cell_formula_units_Z 88
_cell_length_a 24.893932
_cell_length_b 20.034019
_cell_length_c 8.777258
_cell_angle_alpha 90.000000
_cell_angle_beta 90.000000
_cell_angle_gamma 90.000000
_cell_volume 4377.442443
_symmetry_space_group_name_H-M "I M M M"
_symmetry_group_IT_number 71
_symmetry_cell_setting 'orthorhombic'
loop_
_space_group_symop_operation_xyz
x,y,z
-x,-y,z
x,-y,-z
-x,y,-z
-x,-y,-z
x,y,-z
-x,y,z
x,-y,z
1/2+x,1/2+y,1/2+z
1/2-x,1/2-y,1/2+z
1/2+x,1/2-y,1/2-z
1/2-x,1/2+y,1/2-z
1/2-x,1/2-y,1/2-z
1/2+x,1/2+y,1/2-z
1/2-x,1/2+y,1/2+z
1/2+x,1/2-y,1/2+z
loop_
_atom_site_type_symbol
_atom_site_label
_atom_site_fract_x
_atom_site_fract_y
_atom_site_fract_z
Si Si1 0.062812 0.000000 0.313308
Si Si2 0.828794 0.573503 0.319760
Si Si3 0.367057 0.626776 0.818613
Si Si4 0.752388 0.824323 0.682551
Si Si5 0.560527 0.895283 0.679758
Si Si6 0.438987 0.735317 0.678311
O O1 0.096568 0.934903 0.261842
O O2 0.061794 0.000000 0.500000
O O3 0.000000 0.000000 0.264961
O O4 0.822381 0.582623 0.500000
O O5 0.807313 0.500000 0.277053
O O6 0.798303 0.632061 0.232784
O O7 0.891327 0.575415 0.276003
O O8 0.306118 0.636596 0.762795
O O9 0.397725 0.694801 0.778807
O O10 0.363839 0.618316 0.000000
O O11 0.753997 0.819084 0.500000
O O12 0.750000 0.750000 0.750000
O O13 0.567470 0.910906 0.500000
O O14 0.500000 0.915374 0.723403
O O15 0.564037 0.814892 0.695434
O O16 0.429300 0.720418 0.500000
O O17 0.500000 0.714816 0.716077
#
# Coordination Sequence:
#
# PCOD9522857 Si02
#       6
#     8  16  16  16  16  16
#     4   9  18  34  55  81 115 149 186 237 292 349
#     4  11  25  42  60  86 122 160 201 248 301 361
#     4  10  21  35  56  83 110 148 195 242 293 353
#     4  11  24  41  64  90 119 156 204 257 309 370
#     4   9  19  37  61  88 117 153 197 243 298 362
#     4   9  18  33  54  82 116 150 186 234 290 348
#
# _framework density 20.103062999999999
#
# number of rings (size 3 to 8) (size 9 to 14) (size 15 to 20)
#    0.000    2.091    0.000    3.818    1.273    8.364 
#    0.000    4.091    0.000    1.636    0.000    0.000 
#    0.000    0.000    0.000    0.000    0.000    0.000 
#
# Total GULP energy -245708.572157 kJ/mol
# GULP energy per Si atom -5584.285731 kJ/mol
# Density = 2.005731 g / cm^3
# Si number density = 20.103063 Si / 1000 Ang^3
#
#
#
# Elastic Constant Matrix: (Units=GPa)
#
#
# Indices 1 2 3 4 5 6 
#
# 1 111.4178 51.9463 22.1621 0.0000 0.0000 0.0000
# 2 51.9463 94.8052 28.4226 0.0000 0.0000 0.0000
# 3 22.1621 28.4226 15.8357 0.0000 0.0000 0.0000
# 4 0.0000 0.0000 0.0000 17.3592 0.0000 0.0000
# 5 0.0000 0.0000 0.0000 0.0000 26.3386 0.0000
# 6 0.0000 0.0000 0.0000 0.0000 0.0000 28.5815
#
#
#
# Elastic Compliance Matrix: (Units=1/GPa)
#
#
# Indices 1 2 3 4 5 6 
#
# 1 0.012984 -0.003608 -0.011695 0.000000 0.000000 0.000000
# 2 -0.003608 0.023838 -0.037737 0.000000 0.000000 0.000000
# 3 -0.011695 -0.037737 0.147247 0.000000 0.000000 0.000000
# 4 0.000000 0.000000 0.000000 0.057606 0.000000 0.000000
# 5 0.000000 0.000000 0.000000 0.000000 0.037967 0.000000
# 6 0.000000 0.000000 0.000000 0.000000 0.000000 0.034988
#
#
# Mechanical properties :
#
#
# Convention : Reuss Voigt Hill
#
# Bulk Modulus (GPa) = 12.82219 47.45787 30.14003
# Shear Modulus (GPa) = 11.19305 22.42438 16.80871
#
# Velocity S-wave (km/s) = 2.36219 3.34349 2.89472
# Velocity P-wave (km/s) = 3.71913 6.20997 5.11838
#
# Compressibility (1/GPa) = 0.07798981
#
# Stress axis : x y z
#
# Youngs Moduli (GPa) = 77.02033 41.94931 6.79130
#
# Poissons Ratio (x) = 0.15135 0.07942
# Poissons Ratio (y) = 0.27788 0.25628
# Poissons Ratio (z) = 0.90075 1.58303
#
# Static dielectric constant tensor:
#      x y z
#    x 1.720100 0.000000 0.000000 
#    y 0.000000 1.708840 0.000000 
#    z 0.000000 0.000000 1.678160 
# 
# From -- ./inp_files/12535.got.cif
#   From: 2010.05.17/outbox.cif.g08.bks.cpg/sg71_7_cif.got.tgz:12535.got - 2010.06.03 16:22:01.
