data_PCOD9522773
_publ_section_title
;
Structure prediction by ZEFSAII (Michael W. Deem and Ramdas Pophale) SiO2 
 PCOD9522773
Probable space group: I M M M
;
_chemical_formula_sum "Si O2"
_cell_formula_units_Z 104
_cell_length_a 20.981157
_cell_length_b 8.709047
_cell_length_c 32.743185
_cell_angle_alpha 90.000000
_cell_angle_beta 90.000000
_cell_angle_gamma 90.000000
_cell_volume 5983.027373
_symmetry_space_group_name_H-M "I M M M"
_symmetry_group_IT_number 71
_symmetry_cell_setting 'orthorhombic'
loop_
_space_group_symop_operation_xyz
x,y,z
-x,-y,z
x,-y,-z
-x,y,-z
-x,-y,-z
x,y,-z
-x,y,z
x,-y,z
1/2+x,1/2+y,1/2+z
1/2-x,1/2-y,1/2+z
1/2+x,1/2-y,1/2-z
1/2-x,1/2+y,1/2-z
1/2-x,1/2-y,1/2-z
1/2+x,1/2+y,1/2-z
1/2-x,1/2+y,1/2+z
1/2+x,1/2-y,1/2+z
loop_
_atom_site_type_symbol
_atom_site_label
_atom_site_fract_x
_atom_site_fract_y
_atom_site_fract_z
Si Si1 0.000000 0.313180 0.045815
Si Si2 0.427637 0.683699 0.821237
Si Si3 0.131797 0.317145 0.914268
Si Si4 0.176932 0.181216 0.169323
Si Si5 0.808701 0.684101 0.631848
Si Si6 0.735512 0.317210 0.045737
Si Si7 0.927487 0.683970 0.230178
O O1 0.064274 0.269597 0.068226
O O2 0.000000 0.500000 0.044313
O O3 0.000000 0.254558 0.000000
O O4 0.500000 0.722136 0.834321
O O5 0.421612 0.500000 0.820053
O O6 0.374346 0.753025 0.850462
O O7 0.419616 0.749057 0.775554
O O8 0.130516 0.500000 0.903680
O O9 0.146979 0.219211 0.874580
O O10 0.188712 0.297373 0.946672
O O11 0.250203 0.234991 0.161886
O O12 0.130626 0.259256 0.202165
O O13 0.178083 0.000000 0.177598
O O14 0.808279 0.500000 0.631693
O O15 0.796171 0.741544 0.585616
O O16 0.722672 0.500000 0.047335
O O17 0.718303 0.262074 0.000000
O O18 0.925825 0.500000 0.231722
O O19 0.000000 0.728303 0.215931
#
# Coordination Sequence:
#
# PCOD9522773 Si02
#       7
#     8  16  16  16  16  16  16
#     4   9  16  26  43  67  93 125 171 223 269 313
#     4  10  21  38  60  84 108 135 168 208 260 318
#     4   9  17  29  46  69  98 133 175 222 267 312
#     4  10  21  35  50  73 105 141 180 220 263 308
#     4  10  21  36  55  80 109 141 177 215 259 312
#     4   9  17  31  52  76 103 137 176 218 264 312
#     4  10  21  36  55  78 105 140 182 222 262 310
#
# _framework density 17.382504999999998
#
# number of rings (size 3 to 8) (size 9 to 14) (size 15 to 20)
#    0.000    2.385    0.000    2.308    1.077    6.462 
#    0.000    0.000    0.000    2.308    0.000    3.231 
#    0.000    0.000    0.000    0.000    0.000    0.000 
#
# Total GULP energy -289906.999025 kJ/mol
# GULP energy per Si atom -5575.134597 kJ/mol
# Density = 1.734294 g / cm^3
# Si number density = 17.382505 Si / 1000 Ang^3
#
#
#
# Elastic Constant Matrix: (Units=GPa)
#
#
# Indices 1 2 3 4 5 6 
#
# 1 144.4274 45.3787 81.1677 0.0000 0.0000 0.0000
# 2 45.3787 39.9732 34.1298 0.0000 0.0000 0.0000
# 3 81.1677 34.1298 86.6094 0.0000 0.0000 0.0000
# 4 0.0000 0.0000 0.0000 20.4311 0.0000 0.0000
# 5 0.0000 0.0000 0.0000 0.0000 12.8110 0.0000
# 6 0.0000 0.0000 0.0000 0.0000 0.0000 22.4479
#
#
#
# Elastic Compliance Matrix: (Units=1/GPa)
#
#
# Indices 1 2 3 4 5 6 
#
# 1 0.016235 -0.008198 -0.011984 0.000000 0.000000 0.000000
# 2 -0.008198 0.041841 -0.008806 0.000000 0.000000 0.000000
# 3 -0.011984 -0.008806 0.026247 0.000000 0.000000 0.000000
# 4 0.000000 0.000000 0.000000 0.048945 0.000000 0.000000
# 5 0.000000 0.000000 0.000000 0.000000 0.078058 0.000000
# 6 0.000000 0.000000 0.000000 0.000000 0.000000 0.044548
#
#
# Mechanical properties :
#
#
# Convention : Reuss Voigt Hill
#
# Bulk Modulus (GPa) = 37.95306 65.81804 51.88555
# Shear Modulus (GPa) = 15.49755 18.49360 16.99557
#
# Velocity S-wave (km/s) = 2.98914 3.26532 3.13028
# Velocity P-wave (km/s) = 5.81332 7.22240 6.55583
#
# Compressibility (1/GPa) = 0.02634834
#
# Stress axis : x y z
#
# Youngs Moduli (GPa) = 61.59654 23.89974 38.09910
#
# Poissons Ratio (x) = 0.19592 0.45659
# Poissons Ratio (y) = 0.50495 0.33549
# Poissons Ratio (z) = 0.73819 0.21045
#
# Static dielectric constant tensor:
#      x y z
#    x 1.572010 0.000000 0.000000 
#    y 0.000000 1.591200 0.000000 
#    z 0.000000 0.000000 1.566700 
# 
# From -- ./inp_files/51131.got.cif
#   From: 2010.05.17/outbox.cif.g08.bks.cpg/sg71_26_cif.got.tgz:51131.got - 2010.06.03 16:22:01.
