data_PCOD9522637
_publ_section_title
;
Structure prediction by ZEFSAII (Michael W. Deem and Ramdas Pophale) SiO2 
 PCOD9522637
Probable space group: I M M M
;
_chemical_formula_sum "Si O2"
_cell_formula_units_Z 76
_cell_length_a 21.716130
_cell_length_b 12.713596
_cell_length_c 14.167975
_cell_angle_alpha 90.000000
_cell_angle_beta 90.000000
_cell_angle_gamma 90.000000
_cell_volume 3911.637684
_symmetry_space_group_name_H-M "I M M M"
_symmetry_group_IT_number 71
_symmetry_cell_setting 'orthorhombic'
loop_
_space_group_symop_operation_xyz
x,y,z
-x,-y,z
x,-y,-z
-x,y,-z
-x,-y,-z
x,y,-z
-x,y,z
x,-y,z
1/2+x,1/2+y,1/2+z
1/2-x,1/2-y,1/2+z
1/2+x,1/2-y,1/2-z
1/2-x,1/2+y,1/2-z
1/2-x,1/2-y,1/2-z
1/2+x,1/2+y,1/2-z
1/2-x,1/2+y,1/2+z
1/2+x,1/2-y,1/2+z
loop_
_atom_site_type_symbol
_atom_site_label
_atom_site_fract_x
_atom_site_fract_y
_atom_site_fract_z
Si Si1 0.765721 0.619698 0.609595
Si Si2 0.862485 0.217387 0.887859
Si Si3 0.069643 0.000000 0.885571
Si Si4 0.109248 0.330681 0.288737
Si Si5 0.574004 0.383873 0.111721
Si Si6 0.500000 0.000000 0.182083
O O1 0.783931 0.637257 0.500000
O O2 0.741253 0.500000 0.614749
O O3 0.709714 0.697390 0.632201
O O4 0.825157 0.629307 0.674160
O O5 0.888325 0.310059 0.823316
O O6 0.896944 0.108654 0.861543
O O7 0.869988 0.234214 0.000000
O O8 0.000000 0.000000 0.848352
O O9 0.067398 0.000000 0.000000
O O10 0.100519 0.216138 0.335543
O O11 0.054361 0.408128 0.316645
O O12 0.500000 0.380779 0.120850
O O13 0.594992 0.500000 0.144674
O O14 0.587982 0.376086 0.000000
#
# Coordination Sequence:
#
# PCOD9522637 Si02
#       6
#    16  16   8  16  16   4
#     4  10  20  39  65  92 123 162 209 267 321 371
#     4  10  22  40  64  90 118 158 212 267 318 368
#     4   9  18  33  56  89 116 136 183 251 312 365
#     4  12  23  41  60  90 130 174 213 256 310 380
#     4   9  19  36  58  87 122 159 202 254 314 373
#     4  12  28  42  56  96 136 170 232 250 290 408
#
# _framework density 19.429202
#
# number of rings (size 3 to 8) (size 9 to 14) (size 15 to 20)
#    0.000    1.789    3.158    1.895    2.947    0.000 
#    0.000    3.158    0.000    0.000    0.000    0.000 
#    0.000    0.000    0.000    0.000    0.000    0.000 
#
# Total GULP energy -211652.173798 kJ/mol
# GULP energy per Si atom -5569.794047 kJ/mol
# Density = 1.938498 g / cm^3
# Si number density = 19.429202 Si / 1000 Ang^3
#
#
#
# Elastic Constant Matrix: (Units=GPa)
#
#
# Indices 1 2 3 4 5 6 
#
# 1 72.2185 11.8220 11.1611 0.0000 0.0000 0.0000
# 2 11.8220 85.3051 19.7182 0.0000 0.0000 0.0000
# 3 11.1611 19.7182 43.4608 0.0000 0.0000 0.0000
# 4 0.0000 0.0000 0.0000 16.7035 0.0000 0.0000
# 5 0.0000 0.0000 0.0000 0.0000 0.2412 0.0000
# 6 0.0000 0.0000 0.0000 0.0000 0.0000 52.0141
#
#
#
# Elastic Compliance Matrix: (Units=1/GPa)
#
#
# Indices 1 2 3 4 5 6 
#
# 1 0.014545 -0.001287 -0.003151 0.000000 0.000000 0.000000
# 2 -0.001287 0.013210 -0.005663 0.000000 0.000000 0.000000
# 3 -0.003151 -0.005663 0.026388 0.000000 0.000000 0.000000
# 4 0.000000 0.000000 0.000000 0.059868 0.000000 0.000000
# 5 0.000000 0.000000 0.000000 0.000000 4.146508 0.000000
# 6 0.000000 0.000000 0.000000 0.000000 0.000000 0.019226
#
#
# Mechanical properties :
#
#
# Convention : Reuss Voigt Hill
#
# Bulk Modulus (GPa) = 29.46389 31.82078 30.64233
# Shear Modulus (GPa) = 1.15975 24.34396 12.75186
#
# Velocity S-wave (km/s) = 0.77344 3.54355 2.56466
# Velocity P-wave (km/s) = 3.99941 5.75810 4.95737
#
# Compressibility (1/GPa) = 0.03393985
#
# Stress axis : x y z
#
# Youngs Moduli (GPa) = 68.75411 75.70035 37.89646
#
# Poissons Ratio (x) = 0.09745 0.11942
# Poissons Ratio (y) = 0.08851 0.21460
# Poissons Ratio (z) = 0.21665 0.42868
#
# Static dielectric constant tensor:
#      x y z
#    x 1.656170 0.000000 0.000000 
#    y 0.000000 1.702650 0.000000 
#    z 0.000000 0.000000 1.718170 
# 
# From -- ./inp_files/38976.got.cif
#   From: 2010.05.17/outbox.cif.g08.bks.cpg/sg71_20_cif.got.tgz:38976.got - 2010.06.03 16:22:01.
