data_PCOD9522230
_publ_section_title
;
Structure prediction by ZEFSAII (Michael W. Deem and Ramdas Pophale) SiO2 
 PCOD9522230
Probable space group: I M M M
;
_chemical_formula_sum "Si O2"
_cell_formula_units_Z 88
_cell_length_a 24.905692
_cell_length_b 24.265431
_cell_length_c 7.938873
_cell_angle_alpha 90.000000
_cell_angle_beta 90.000000
_cell_angle_gamma 90.000000
_cell_volume 4797.836865
_symmetry_space_group_name_H-M "I M M M"
_symmetry_group_IT_number 71
_symmetry_cell_setting 'orthorhombic'
loop_
_space_group_symop_operation_xyz
x,y,z
-x,-y,z
x,-y,-z
-x,y,-z
-x,-y,-z
x,y,-z
-x,y,z
x,-y,z
1/2+x,1/2+y,1/2+z
1/2-x,1/2-y,1/2+z
1/2+x,1/2-y,1/2-z
1/2-x,1/2+y,1/2-z
1/2-x,1/2-y,1/2-z
1/2+x,1/2+y,1/2-z
1/2-x,1/2+y,1/2+z
1/2+x,1/2-y,1/2+z
loop_
_atom_site_type_symbol
_atom_site_label
_atom_site_fract_x
_atom_site_fract_y
_atom_site_fract_z
Si Si1 0.267491 0.937283 0.796069
Si Si2 0.875562 0.619450 0.694870
Si Si3 0.437992 0.221933 0.698217
Si Si4 0.439357 0.345656 0.200126
Si Si5 0.438752 0.065633 0.500000
Si Si6 0.853814 0.937293 0.203463
O O1 0.314075 0.894075 0.754956
O O2 0.207076 0.924438 0.737674
O O3 0.281472 0.000000 0.740507
O O4 0.265047 0.938908 0.000000
O O5 0.882686 0.601535 0.500000
O O6 0.896077 0.682068 0.710661
O O7 0.910821 0.586907 0.830548
O O8 0.436098 0.208905 0.500000
O O9 0.500000 0.213351 0.757054
O O10 0.425619 0.286349 0.721837
O O11 0.500000 0.360415 0.257187
O O12 0.397032 0.392904 0.240710
O O13 0.440640 0.337908 0.000000
O O14 0.500000 0.085217 0.500000
O O15 0.437516 0.000000 0.500000
O O16 0.866484 0.000000 0.258150
O O17 0.853262 0.937292 0.000000
#
# Coordination Sequence:
#
# PCOD9522230 Si02
#       6
#    16  16  16  16   8  16
#     4   8  16  33  56  80 107 143 187 233 279 333
#     4  11  21  36  59  83 112 151 195 237 290 338
#     4  10  20  36  57  80 108 144 190 239 283 337
#     4  10  21  36  54  80 113 146 183 228 281 342
#     4  11  24  38  52  80 118 150 190 242 288 338
#     4   9  18  35  58  82 110 144 184 230 280 337
#
# _framework density 18.341598999999999
#
# number of rings (size 3 to 8) (size 9 to 14) (size 15 to 20)
#    0.000    2.273    0.909    3.273    0.000    5.091 
#    1.636    3.636    0.000    0.000    0.000    0.000 
#    0.000    0.000    0.000    0.000    0.000    0.000 
#
# Total GULP energy -245412.086768 kJ/mol
# GULP energy per Si atom -5577.547427 kJ/mol
# Density = 1.829985 g / cm^3
# Si number density = 18.341599 Si / 1000 Ang^3
#
#
#
# Elastic Constant Matrix: (Units=GPa)
#
#
# Indices 1 2 3 4 5 6 
#
# 1 131.8623 92.5321 26.9675 0.0000 0.0000 0.0000
# 2 92.5321 114.0440 22.0936 0.0000 0.0000 0.0000
# 3 26.9675 22.0936 59.6154 0.0000 0.0000 0.0000
# 4 0.0000 0.0000 0.0000 24.2908 0.0000 0.0000
# 5 0.0000 0.0000 0.0000 0.0000 16.6489 0.0000
# 6 0.0000 0.0000 0.0000 0.0000 0.0000 34.1405
#
#
#
# Elastic Compliance Matrix: (Units=1/GPa)
#
#
# Indices 1 2 3 4 5 6 
#
# 1 0.018081 -0.014098 -0.002954 0.000000 0.000000 0.000000
# 2 -0.014098 0.020439 -0.001198 0.000000 0.000000 0.000000
# 3 -0.002954 -0.001198 0.018554 0.000000 0.000000 0.000000
# 4 0.000000 0.000000 0.000000 0.041168 0.000000 0.000000
# 5 0.000000 0.000000 0.000000 0.000000 0.060064 0.000000
# 6 0.000000 0.000000 0.000000 0.000000 0.000000 0.029291
#
#
# Mechanical properties :
#
#
# Convention : Reuss Voigt Hill
#
# Bulk Modulus (GPa) = 48.60273 65.41202 57.00738
# Shear Modulus (GPa) = 21.64923 25.94459 23.79691
#
# Velocity S-wave (km/s) = 3.43933 3.76509 3.60589
# Velocity P-wave (km/s) = 6.50601 7.39201 6.96312
#
# Compressibility (1/GPa) = 0.02057498
#
# Stress axis : x y z
#
# Youngs Moduli (GPa) = 55.30701 48.92543 53.89559
#
# Poissons Ratio (x) = 0.68975 0.15922
# Poissons Ratio (y) = 0.77972 0.06454
# Poissons Ratio (z) = 0.16339 0.05859
#
# Static dielectric constant tensor:
#      x y z
#    x 1.634340 0.000000 0.000000 
#    y 0.000000 1.622370 0.000000 
#    z 0.000000 0.000000 1.652750 
# 
# From -- ./inp_files/12533.got.cif
#   From: 2010.05.17/outbox.cif.g08.bks.cpg/sg71_7_cif.got.tgz:12533.got - 2010.06.03 16:22:01.
