data_PCOD9522958
_publ_section_title
;
Structure prediction by ZEFSAII (Michael W. Deem and Ramdas Pophale) SiO2 
 PCOD9522958
Probable space group: I M M M
;
_chemical_formula_sum "Si O2"
_cell_formula_units_Z 72
_cell_length_a 13.570955
_cell_length_b 32.552739
_cell_length_c 8.524121
_cell_angle_alpha 90.000000
_cell_angle_beta 90.000000
_cell_angle_gamma 90.000000
_cell_volume 3765.715903
_symmetry_space_group_name_H-M "I M M M"
_symmetry_group_IT_number 71
_symmetry_cell_setting 'orthorhombic'
loop_
_space_group_symop_operation_xyz
x,y,z
-x,-y,z
x,-y,-z
-x,y,-z
-x,-y,-z
x,y,-z
-x,y,z
x,-y,z
1/2+x,1/2+y,1/2+z
1/2-x,1/2-y,1/2+z
1/2+x,1/2-y,1/2-z
1/2-x,1/2+y,1/2-z
1/2-x,1/2-y,1/2-z
1/2+x,1/2+y,1/2-z
1/2-x,1/2+y,1/2+z
1/2+x,1/2-y,1/2+z
loop_
_atom_site_type_symbol
_atom_site_label
_atom_site_fract_x
_atom_site_fract_y
_atom_site_fract_z
Si Si1 0.107757 0.733876 0.188727
Si Si2 0.800650 0.814639 0.687593
Si Si3 0.500000 0.452708 0.188001
Si Si4 0.389203 0.952050 0.190882
Si Si5 0.308153 0.594130 0.687700
O O1 0.125217 0.778848 0.259944
O O2 0.194488 0.703500 0.239206
O O3 0.000000 0.718278 0.231678
O O4 0.113900 0.737601 0.000000
O O5 0.802437 0.818459 0.500000
O O6 0.818149 0.858672 0.761993
O O7 0.500000 0.500000 0.240593
O O8 0.401327 0.430741 0.247854
O O9 0.500000 0.451440 0.000000
O O10 0.500000 0.939436 0.242409
O O11 0.296513 0.924926 0.244603
O O12 0.374944 0.000000 0.234699
O O13 0.389682 0.950709 0.000000
O O14 0.308982 0.591304 0.500000
#
# Coordination Sequence:
#
# PCOD9522958 Si02
#       5
#    16  16   8  16  16
#     4   9  19  37  59  79 106 146 190 235 282 336
#     4  10  21  36  54  81 113 145 184 232 286 337
#     4  11  25  43  61  83 115 155 197 245 297 343
#     4   8  15  30  53  81 111 142 179 226 278 330
#     4  11  22  36  58  86 116 151 191 235 281 343
#
# _framework density 19.119869999999999
#
# number of rings (size 3 to 8) (size 9 to 14) (size 15 to 20)
#    0.000    2.333    0.000    3.000    1.556    4.000 
#    0.000    0.000    0.000    2.000    0.000    7.778 
#    0.000    0.000    0.000    0.000    0.000    0.000 
#
# Total GULP energy -200920.014673 kJ/mol
# GULP energy per Si atom -5581.111519 kJ/mol
# Density = 1.907635 g / cm^3
# Si number density = 19.119870 Si / 1000 Ang^3
#
#
#
# Elastic Constant Matrix: (Units=GPa)
#
#
# Indices 1 2 3 4 5 6 
#
# 1 117.9440 54.6491 21.2925 0.0004 0.0008 0.0002
# 2 54.6491 124.1746 22.5720 0.0003 0.0000 0.0000
# 3 21.2925 22.5720 21.0665 0.0062 0.0039 0.0003
# 4 0.0004 0.0003 0.0062 5.7344 -0.0004 -0.0006
# 5 0.0008 0.0000 0.0039 -0.0004 14.1237 0.0000
# 6 0.0002 0.0000 0.0003 -0.0006 0.0000 2.3153
#
#
#
# Elastic Compliance Matrix: (Units=1/GPa)
#
#
# Indices 1 2 3 4 5 6 
#
# 1 0.011589 -0.003690 -0.007760 0.000008 0.000002 0.000000
# 2 -0.003690 0.011176 -0.008245 0.000009 0.000003 0.000002
# 3 -0.007760 -0.008245 0.064146 -0.000069 -0.000017 -0.000008
# 4 0.000008 0.000009 -0.000069 0.174385 0.000005 0.000047
# 5 0.000002 0.000003 -0.000017 0.000005 0.070803 0.000001
# 6 0.000000 0.000002 -0.000008 0.000047 0.000001 0.431911
#
#
# Mechanical properties :
#
#
# Convention : Reuss Voigt Hill
#
# Bulk Modulus (GPa) = 21.04311 51.13471 36.08891
# Shear Modulus (GPa) = 6.10321 15.41279 10.75800
#
# Velocity S-wave (km/s) = 1.78858 2.84229 2.37462
# Velocity P-wave (km/s) = 3.91090 6.12975 5.14145
#
# Compressibility (1/GPa) = 0.04752150
#
# Stress axis : x y z
#
# Youngs Moduli (GPa) = 86.28732 89.47893 15.58934
#
# Poissons Ratio (x) = 0.33016 0.12097
# Poissons Ratio (y) = 0.31838 0.12854
# Poissons Ratio (z) = 0.66959 0.73776
#
# Static dielectric constant tensor:
#      x y z
#    x 1.681060 0.000000 0.000000 
#    y 0.000000 1.623970 0.000000 
#    z 0.000000 0.000000 1.643310 
# 
# From -- ./inp_files/6459.got.cif
#   From: 2010.05.17/outbox.cif.g08.bks.cpg/sg71_4_cif.got.tgz:6459.got - 2010.06.03 16:22:01.
