data_PCOD9522269
_publ_section_title
;
Structure prediction by ZEFSAII (Michael W. Deem and Ramdas Pophale) SiO2 
 PCOD9522269
Probable space group: I M M M
;
_chemical_formula_sum "Si O2"
_cell_formula_units_Z 72
_cell_length_a 7.595116
_cell_length_b 18.412082
_cell_length_c 22.661513
_cell_angle_alpha 90.000000
_cell_angle_beta 90.000000
_cell_angle_gamma 90.000000
_cell_volume 3169.029003
_symmetry_space_group_name_H-M "I M M M"
_symmetry_group_IT_number 71
_symmetry_cell_setting 'orthorhombic'
loop_
_space_group_symop_operation_xyz
x,y,z
-x,-y,z
x,-y,-z
-x,y,-z
-x,-y,-z
x,y,-z
-x,y,z
x,-y,z
1/2+x,1/2+y,1/2+z
1/2-x,1/2-y,1/2+z
1/2+x,1/2-y,1/2-z
1/2-x,1/2+y,1/2-z
1/2-x,1/2-y,1/2-z
1/2+x,1/2+y,1/2-z
1/2-x,1/2+y,1/2+z
1/2+x,1/2-y,1/2+z
loop_
_atom_site_type_symbol
_atom_site_label
_atom_site_fract_x
_atom_site_fract_y
_atom_site_fract_z
Si Si1 0.290763 0.917014 0.000000
Si Si2 0.291034 0.645388 0.372042
Si Si3 0.714902 0.804369 0.335228
Si Si4 0.785728 0.418907 0.932955
Si Si5 0.705601 0.078723 0.245126
O O1 0.241841 0.875266 0.939844
O O2 0.500000 0.922236 0.000000
O O3 0.218862 0.000000 0.000000
O O4 0.500000 0.645392 0.364139
O O5 0.221126 0.724049 0.350967
O O6 0.217617 0.588454 0.324907
O O7 0.500000 0.799504 0.333433
O O8 0.768683 0.857477 0.388196
O O9 0.775976 0.848460 0.277094
O O10 0.729925 0.500000 0.915497
O O11 0.000000 0.419046 0.932960
O O12 0.729036 0.405467 0.000000
O O13 0.500000 0.076066 0.262183
O O14 0.782557 0.000000 0.262135
#
# Coordination Sequence:
#
# PCOD9522269 Si02
#       5
#     8  16  16  16  16
#     4  11  25  45  65  83 108 147 192 234 279 335
#     4  11  23  37  58  87 117 147 183 235 291 338
#     4   9  18  31  50  79 115 149 184 227 278 333
#     4   8  13  22  40  68 103 142 182 225 270 318
#     4  10  20  36  58  82 113 154 195 233 275 330
#
# _framework density 22.719892999999999
#
# number of rings (size 3 to 8) (size 9 to 14) (size 15 to 20)
#    0.000    2.333    0.000    3.667    1.556    6.667 
#    0.000    1.111    0.000    0.000    0.000    0.000 
#    0.000    1.778    0.000    0.000    0.000    0.000 
#
# Total GULP energy -201016.398874 kJ/mol
# GULP energy per Si atom -5583.788858 kJ/mol
# Density = 2.266818 g / cm^3
# Si number density = 22.719893 Si / 1000 Ang^3
#
#
#
# Elastic Constant Matrix: (Units=GPa)
#
#
# Indices 1 2 3 4 5 6 
#
# 1 54.2077 5.6935 -10.6563 0.0000 0.0000 0.0000
# 2 5.6935 151.5470 78.0040 0.0000 0.0000 0.0000
# 3 -10.6563 78.0040 125.8214 0.0000 0.0000 0.0000
# 4 0.0000 0.0000 0.0000 10.6693 0.0000 0.0000
# 5 0.0000 0.0000 0.0000 0.0000 7.2533 0.0000
# 6 0.0000 0.0000 0.0000 0.0000 0.0000 8.9937
#
#
#
# Elastic Compliance Matrix: (Units=1/GPa)
#
#
# Indices 1 2 3 4 5 6 
#
# 1 0.019290 -0.002299 0.003059 0.000000 0.000000 0.000000
# 2 -0.002299 0.009965 -0.006373 0.000000 0.000000 0.000000
# 3 0.003059 -0.006373 0.012158 0.000000 0.000000 0.000000
# 4 0.000000 0.000000 0.000000 0.093727 0.000000 0.000000
# 5 0.000000 0.000000 0.000000 0.000000 0.137869 0.000000
# 6 0.000000 0.000000 0.000000 0.000000 0.000000 0.111189
#
#
# Mechanical properties :
#
#
# Convention : Reuss Voigt Hill
#
# Bulk Modulus (GPa) = 33.12610 53.07319 43.09964
# Shear Modulus (GPa) = 12.33087 22.61891 17.47489
#
# Velocity S-wave (km/s) = 2.33219 3.15867 2.77636
# Velocity P-wave (km/s) = 4.67590 6.05916 5.41190
#
# Compressibility (1/GPa) = 0.03018768
#
# Stress axis : x y z
#
# Youngs Moduli (GPa) = 51.83908 100.34965 82.25239
#
# Poissons Ratio (x) = 0.23075 -0.25164
# Poissons Ratio (y) = 0.11920 0.52417
# Poissons Ratio (z) = -0.15859 0.63950
#
# Static dielectric constant tensor:
#      x y z
#    x 1.877280 0.000000 0.000000 
#    y 0.000000 1.864590 0.000000 
#    z 0.000000 0.000000 1.850670 
# 
# From -- ./inp_files/50202.got.cif
#   From: 2010.05.17/outbox.cif.g08.bks.cpg/sg71_26_cif.got.tgz:50202.got - 2010.06.03 16:22:01.
