data_PCOD9522832
_publ_section_title
;
Structure prediction by ZEFSAII (Michael W. Deem and Ramdas Pophale) SiO2 
 PCOD9522832
Probable space group: I M M M
;
_chemical_formula_sum "Si O2"
_cell_formula_units_Z 90
_cell_length_a 25.464441
_cell_length_b 21.715801
_cell_length_c 7.847393
_cell_angle_alpha 90.000000
_cell_angle_beta 90.000000
_cell_angle_gamma 90.000000
_cell_volume 4339.457136
_symmetry_space_group_name_H-M "I M M M"
_symmetry_group_IT_number 71
_symmetry_cell_setting 'orthorhombic'
loop_
_space_group_symop_operation_xyz
x,y,z
-x,-y,z
x,-y,-z
-x,y,-z
-x,-y,-z
x,y,-z
-x,y,z
x,-y,z
1/2+x,1/2+y,1/2+z
1/2-x,1/2-y,1/2+z
1/2+x,1/2-y,1/2-z
1/2-x,1/2+y,1/2-z
1/2-x,1/2-y,1/2-z
1/2+x,1/2+y,1/2-z
1/2-x,1/2+y,1/2+z
1/2+x,1/2-y,1/2+z
loop_
_atom_site_type_symbol
_atom_site_label
_atom_site_fract_x
_atom_site_fract_y
_atom_site_fract_z
Si Si1 0.500000 0.500000 0.500000
Si Si2 0.056325 0.340421 0.794239
Si Si3 0.294931 0.300231 0.204656
Si Si4 0.916617 0.204673 0.202710
Si Si5 0.500000 0.395888 0.194409
Si Si6 0.237819 0.067471 0.303750
Si Si7 0.645959 0.932419 0.802736
O O1 0.500000 0.445884 0.346621
O O2 0.060134 0.269840 0.738250
O O3 0.104634 0.379766 0.730298
O O4 0.000000 0.366558 0.740606
O O5 0.058593 0.340554 0.000000
O O6 0.250000 0.250000 0.250000
O O7 0.354376 0.288767 0.263724
O O8 0.281874 0.368778 0.274033
O O9 0.294881 0.302328 0.000000
O O10 0.948447 0.148181 0.284370
O O11 0.924953 0.199107 0.000000
O O12 0.500000 0.420569 0.000000
O O13 0.219572 0.065868 0.500000
O O14 0.300792 0.073019 0.302244
O O15 0.224716 0.000000 0.227079
O O16 0.622534 0.000000 0.767200
O O17 0.662238 0.930635 0.000000
#
# Coordination Sequence:
#
# PCOD9522832 Si02
#       7
#     2  16  16  16   8  16  16
#     4  12  26  52  76 106 148 176 232 296 344 424
#     4  10  21  37  59  83 113 157 206 255 309 368
#     4  11  23  38  59  93 128 167 216 271 337 407
#     4  11  22  43  67  94 133 170 216 283 338 400
#     4  12  25  47  77 106 138 184 229 279 356 423
#     4   9  19  38  59  79 110 153 201 249 301 369
#     4  10  21  35  53  81 119 156 198 255 314 375
#
# _framework density 20.739920999999999
#
# number of rings (size 3 to 8) (size 9 to 14) (size 15 to 20)
#    0.000    1.600    1.778    2.800    0.000    8.889 
#    1.600    1.778    0.000    0.000    0.000    0.000 
#    0.000    0.000    0.000    0.000    0.000    0.000 
#
# Total GULP energy -250819.653198 kJ/mol
# GULP energy per Si atom -5573.770071 kJ/mol
# Density = 2.069272 g / cm^3
# Si number density = 20.739921 Si / 1000 Ang^3
#
#
#
# Elastic Constant Matrix: (Units=GPa)
#
#
# Indices 1 2 3 4 5 6 
#
# 1 83.5271 32.1211 2.1023 0.0000 0.0000 0.0000
# 2 32.1211 101.5986 19.3493 0.0000 0.0000 0.0000
# 3 2.1023 19.3493 74.7598 0.0000 0.0000 0.0000
# 4 0.0000 0.0000 0.0000 23.8669 0.0000 0.0000
# 5 0.0000 0.0000 0.0000 0.0000 20.8108 0.0000
# 6 0.0000 0.0000 0.0000 0.0000 0.0000 -1.9457
#
#
#
# Elastic Compliance Matrix: (Units=1/GPa)
#
#
# Indices 1 2 3 4 5 6 
#
# 1 0.013671 -0.004469 0.000772 0.000000 0.000000 0.000000
# 2 -0.004469 0.011814 -0.002932 0.000000 0.000000 0.000000
# 3 0.000772 -0.002932 0.014113 0.000000 0.000000 0.000000
# 4 0.000000 0.000000 0.000000 0.041899 0.000000 0.000000
# 5 0.000000 0.000000 0.000000 0.000000 0.048052 0.000000
# 6 0.000000 0.000000 0.000000 0.000000 0.000000 -0.513951
#
#
# Mechanical properties :
#
#
# Convention : Reuss Voigt Hill
#
# Bulk Modulus (GPa) = 37.96415 40.78119 39.37267
# Shear Modulus (GPa) = -13.79832 22.30059 4.25114
#
# Velocity S-wave (km/s) = -2.58214 3.28266 1.43324
# Velocity P-wave (km/s) = 3.07484 5.83726 4.66520
#
# Compressibility (1/GPa) = 0.02634064
#
# Stress axis : x y z
#
# Youngs Moduli (GPa) = 73.14500 84.64463 70.85502
#
# Poissons Ratio (x) = 0.37831 -0.05472
# Poissons Ratio (y) = 0.32692 0.20775
# Poissons Ratio (z) = -0.05649 0.24818
#
# Static dielectric constant tensor:
#      x y z
#    x 1.728340 0.000000 0.000000 
#    y 0.000000 1.771470 0.000000 
#    z 0.000000 0.000000 1.770640 
# 
# From -- ./inp_files/12586.got.cif
#   From: 2010.05.17/outbox.cif.g08.bks.cpg/sg71_7_cif.got.tgz:12586.got - 2010.06.03 16:22:01.
