data_PCOD9522065
_publ_section_title
;
Structure prediction by ZEFSAII (Michael W. Deem and Ramdas Pophale) SiO2 
 PCOD9522065
Probable space group: I M M M
;
_chemical_formula_sum "Si O2"
_cell_formula_units_Z 88
_cell_length_a 8.937796
_cell_length_b 22.842821
_cell_length_c 23.150008
_cell_angle_alpha 90.000000
_cell_angle_beta 90.000000
_cell_angle_gamma 90.000000
_cell_volume 4726.409210
_symmetry_space_group_name_H-M "I M M M"
_symmetry_group_IT_number 71
_symmetry_cell_setting 'orthorhombic'
loop_
_space_group_symop_operation_xyz
x,y,z
-x,-y,z
x,-y,-z
-x,y,-z
-x,-y,-z
x,y,-z
-x,y,z
x,-y,z
1/2+x,1/2+y,1/2+z
1/2-x,1/2-y,1/2+z
1/2+x,1/2-y,1/2-z
1/2-x,1/2+y,1/2-z
1/2-x,1/2-y,1/2-z
1/2+x,1/2+y,1/2-z
1/2-x,1/2+y,1/2+z
1/2+x,1/2-y,1/2+z
loop_
_atom_site_type_symbol
_atom_site_label
_atom_site_fract_x
_atom_site_fract_y
_atom_site_fract_z
Si Si1 0.179540 0.123068 0.656190
Si Si2 0.669810 0.000000 0.348649
Si Si3 0.820438 0.291663 0.936081
Si Si4 0.831895 0.500000 0.709037
Si Si5 0.321081 0.379315 0.288293
Si Si6 0.680016 0.069283 0.000000
Si Si7 0.319876 0.340978 0.410397
O O1 0.244641 0.059922 0.637209
O O2 0.240161 0.172306 0.613684
O O3 0.229620 0.134584 0.722991
O O4 0.000000 0.120869 0.655258
O O5 0.661018 0.000000 0.278783
O O6 0.500000 0.000000 0.371329
O O7 0.781649 0.222917 0.934432
O O8 0.000000 0.295760 0.928066
O O9 0.783549 0.314823 0.000000
O O10 0.743650 0.442021 0.693759
O O11 0.000000 0.500000 0.685566
O O12 0.500000 0.382754 0.285598
O O13 0.280738 0.338932 0.342260
O O14 0.742406 0.106300 0.945200
O O15 0.500000 0.071354 0.000000
O O16 0.723929 0.000000 0.000000
O O17 0.500000 0.348877 0.415858
#
# Coordination Sequence:
#
# PCOD9522065 Si02
#       7
#    16   8  16   8  16   8  16
#     4  10  20  35  57  87 120 149 181 231 289 341
#     4   9  17  33  56  82 112 150 187 223 270 330
#     4  10  21  39  60  81 108 148 196 238 277 333
#     4   9  17  29  49  77 113 149 183 222 277 336
#     4   9  19  34  54  82 113 147 188 232 279 336
#     4  11  25  41  57  85 123 154 189 246 295 327
#     4  10  21  40  62  82 109 153 201 236 274 338
#
# _framework density 18.618784999999999
#
# number of rings (size 3 to 8) (size 9 to 14) (size 15 to 20)
#    0.000    2.273    0.909    1.364    1.273    6.182 
#    0.000    0.455    0.000    2.727    0.000    0.000 
#    0.000    0.000    0.000    0.000    0.000    0.000 
#
# Total GULP energy -245303.227487 kJ/mol
# GULP energy per Si atom -5575.073352 kJ/mol
# Density = 1.857641 g / cm^3
# Si number density = 18.618785 Si / 1000 Ang^3
#
#
#
# Elastic Constant Matrix: (Units=GPa)
#
#
# Indices 1 2 3 4 5 6 
#
# 1 30.5403 35.3773 43.3963 0.0000 0.0000 0.0000
# 2 35.3773 102.1130 66.1737 0.0000 0.0000 0.0000
# 3 43.3963 66.1737 123.7814 0.0000 0.0000 0.0000
# 4 0.0000 0.0000 0.0000 35.7510 0.0000 0.0000
# 5 0.0000 0.0000 0.0000 0.0000 23.4388 0.0000
# 6 0.0000 0.0000 0.0000 0.0000 0.0000 28.4030
#
#
#
# Elastic Compliance Matrix: (Units=1/GPa)
#
#
# Indices 1 2 3 4 5 6 
#
# 1 0.076313 -0.013925 -0.019310 0.000000 0.000000 0.000000
# 2 -0.013925 0.017525 -0.004487 0.000000 0.000000 0.000000
# 3 -0.019310 -0.004487 0.017247 0.000000 0.000000 0.000000
# 4 0.000000 0.000000 0.000000 0.027971 0.000000 0.000000
# 5 0.000000 0.000000 0.000000 0.000000 0.042664 0.000000
# 6 0.000000 0.000000 0.000000 0.000000 0.000000 0.035208
#
#
# Mechanical properties :
#
#
# Convention : Reuss Voigt Hill
#
# Bulk Modulus (GPa) = 28.05736 60.70325 44.38031
# Shear Modulus (GPa) = 16.43366 24.95107 20.69236
#
# Velocity S-wave (km/s) = 2.97415 3.66471 3.33734
# Velocity P-wave (km/s) = 5.18615 7.11202 6.22403
#
# Compressibility (1/GPa) = 0.03564127
#
# Stress axis : x y z
#
# Youngs Moduli (GPa) = 13.10393 57.06042 57.97968
#
# Poissons Ratio (x) = 0.79457 1.11959
# Poissons Ratio (y) = 0.18247 0.26016
# Poissons Ratio (z) = 0.25304 0.25603
#
# Static dielectric constant tensor:
#      x y z
#    x 1.634230 0.000000 0.000000 
#    y 0.000000 1.612960 0.000000 
#    z 0.000000 0.000000 1.664430 
# 
# From -- ./inp_files/10563.got.cif
#   From: 2010.05.17/outbox.cif.g08.bks.cpg/sg71_6_cif.got.tgz:10563.got - 2010.06.03 16:22:01.
