data_PCOD9522083
_publ_section_title
;
Structure prediction by ZEFSAII (Michael W. Deem and Ramdas Pophale) SiO2 
 PCOD9522083
Probable space group: I M M M
;
_chemical_formula_sum "Si O2"
_cell_formula_units_Z 66
_cell_length_a 7.466431
_cell_length_b 24.233404
_cell_length_c 16.683516
_cell_angle_alpha 90.000000
_cell_angle_beta 90.000000
_cell_angle_gamma 90.000000
_cell_volume 3018.665983
_symmetry_space_group_name_H-M "I M M M"
_symmetry_group_IT_number 71
_symmetry_cell_setting 'orthorhombic'
loop_
_space_group_symop_operation_xyz
x,y,z
-x,-y,z
x,-y,-z
-x,y,-z
-x,-y,-z
x,y,-z
-x,y,z
x,-y,z
1/2+x,1/2+y,1/2+z
1/2-x,1/2-y,1/2+z
1/2+x,1/2-y,1/2-z
1/2-x,1/2+y,1/2-z
1/2-x,1/2-y,1/2-z
1/2+x,1/2+y,1/2-z
1/2-x,1/2+y,1/2+z
1/2+x,1/2-y,1/2+z
loop_
_atom_site_type_symbol
_atom_site_label
_atom_site_fract_x
_atom_site_fract_y
_atom_site_fract_z
Si Si1 0.000000 0.000000 0.000000
Si Si2 0.202392 0.403558 0.500000
Si Si3 0.292001 0.610297 0.820199
Si Si4 0.783530 0.278930 0.908520
Si Si5 0.779998 0.000000 0.407040
Si Si6 0.217025 0.834203 0.841102
O O1 0.845022 0.048044 0.000000
O O2 0.232016 0.366311 0.578629
O O3 0.000000 0.424483 0.500000
O O4 0.500000 0.597616 0.803492
O O5 0.281689 0.661613 0.880629
O O6 0.218537 0.554992 0.860639
O O7 0.214524 0.633504 0.736935
O O8 0.722001 0.229103 0.851322
O O9 0.000000 0.280159 0.906549
O O10 0.729342 0.267300 0.000000
O O11 0.724170 0.000000 0.500000
O O12 0.000000 0.000000 0.408225
O O13 0.000000 0.832636 0.836414
#
# Coordination Sequence:
#
# PCOD9522083 Si02
#       6
#     2   8  16  16   8  16
#     4  12  26  48  68  90 144 168 224 282 312 370
#     4  12  25  43  71 100 127 184 229 264 333 399
#     4  10  21  35  59  90 120 166 219 264 332 394
#     4  10  20  35  58  84 127 170 208 263 343 396
#     4   9  18  35  55  82 122 157 204 265 312 381
#     4  10  20  40  62  89 130 170 209 273 340 386
#
# _framework density 21.863962999999998
#
# number of rings (size 3 to 8) (size 9 to 14) (size 15 to 20)
#    0.000    1.818    2.424    1.636    0.000    4.364 
#    2.182    0.606    0.000    2.182    0.000    0.000 
#    0.000    0.000    0.000    0.000    0.000    0.000 
#
# Total GULP energy -184198.522961 kJ/mol
# GULP energy per Si atom -5581.773423 kJ/mol
# Density = 2.181420 g / cm^3
# Si number density = 21.863963 Si / 1000 Ang^3
#
#
#
# Elastic Constant Matrix: (Units=GPa)
#
#
# Indices 1 2 3 4 5 6 
#
# 1 76.9077 17.6799 -4.3883 0.0000 0.0000 0.0000
# 2 17.6799 215.4023 86.7380 0.0000 0.0000 0.0000
# 3 -4.3883 86.7380 151.5897 -0.0001 0.0000 0.0000
# 4 0.0000 0.0000 -0.0001 69.5937 0.0000 0.0000
# 5 0.0000 0.0000 0.0000 0.0000 4.4368 0.0000
# 6 0.0000 0.0000 0.0000 0.0000 0.0000 80.6585
#
#
#
# Elastic Compliance Matrix: (Units=1/GPa)
#
#
# Indices 1 2 3 4 5 6 
#
# 1 0.013455 -0.001639 0.001327 0.000000 0.000000 0.000000
# 2 -0.001639 0.006232 -0.003613 0.000000 0.000000 0.000000
# 3 0.001327 -0.003613 0.008703 0.000000 0.000000 0.000000
# 4 0.000000 0.000000 0.000000 0.014369 0.000000 0.000000
# 5 0.000000 0.000000 0.000000 0.000000 0.225388 0.000000
# 6 0.000000 0.000000 0.000000 0.000000 0.000000 0.012398
#
#
# Mechanical properties :
#
#
# Convention : Reuss Voigt Hill
#
# Bulk Modulus (GPa) = 48.68572 71.55099 60.11835
# Shear Modulus (GPa) = 16.93528 53.86246 35.39887
#
# Velocity S-wave (km/s) = 2.78614 4.96878 4.02811
# Velocity P-wave (km/s) = 5.71542 8.10647 7.01359
#
# Compressibility (1/GPa) = 0.02053990
#
# Stress axis : x y z
#
# Youngs Moduli (GPa) = 74.32141 160.46218 114.90713
#
# Poissons Ratio (x) = 0.26297 -0.15251
# Poissons Ratio (y) = 0.12180 0.41520
# Poissons Ratio (z) = -0.09864 0.57980
#
# Static dielectric constant tensor:
#      x y z
#    x 1.814920 0.000000 0.000000 
#    y 0.000000 1.750660 0.000000 
#    z 0.000000 0.000000 1.779640 
# 
# From -- ./inp_files/31223.got.cif
#   From: 2010.05.17/outbox.cif.g08.bks.cpg/sg71_16_cif.got.tgz:31223.got - 2010.06.03 16:22:01.
