data_PCOD9522452
_publ_section_title
;
Structure prediction by ZEFSAII (Michael W. Deem and Ramdas Pophale) SiO2 
 PCOD9522452
Probable space group: I M M M
;
_chemical_formula_sum "Si O2"
_cell_formula_units_Z 92
_cell_length_a 8.640127
_cell_length_b 15.553230
_cell_length_c 30.135797
_cell_angle_alpha 90.000000
_cell_angle_beta 90.000000
_cell_angle_gamma 90.000000
_cell_volume 4049.705130
_symmetry_space_group_name_H-M "I M M M"
_symmetry_group_IT_number 71
_symmetry_cell_setting 'orthorhombic'
loop_
_space_group_symop_operation_xyz
x,y,z
-x,-y,z
x,-y,-z
-x,y,-z
-x,-y,-z
x,y,-z
-x,y,z
x,-y,z
1/2+x,1/2+y,1/2+z
1/2-x,1/2-y,1/2+z
1/2+x,1/2-y,1/2-z
1/2-x,1/2+y,1/2-z
1/2-x,1/2-y,1/2-z
1/2+x,1/2+y,1/2-z
1/2-x,1/2+y,1/2+z
1/2+x,1/2-y,1/2+z
loop_
_atom_site_type_symbol
_atom_site_label
_atom_site_fract_x
_atom_site_fract_y
_atom_site_fract_z
Si Si1 0.171835 0.871380 0.053501
Si Si2 0.681995 0.604981 0.732478
Si Si3 0.817292 0.903435 0.669108
Si Si4 0.336087 0.823597 0.411080
Si Si5 0.500000 0.870107 0.919258
Si Si6 0.244016 0.404410 0.000000
Si Si7 0.000000 0.605248 0.680212
Si Si8 0.000000 0.761370 0.500000
O O1 0.175293 0.772717 0.070213
O O2 0.330928 0.911124 0.071468
O O3 0.000000 0.904419 0.066382
O O4 0.178437 0.873780 0.000000
O O5 0.500000 0.631358 0.721813
O O6 0.676650 0.500000 0.732922
O O7 0.726727 0.632788 0.782689
O O8 0.833766 0.627756 0.703034
O O9 0.786209 0.848247 0.625628
O O10 0.000000 0.912721 0.672949
O O11 0.749449 0.000000 0.663174
O O12 0.500000 0.831330 0.387097
O O13 0.337021 0.887511 0.453092
O O14 0.500000 0.850318 0.867665
O O15 0.500000 0.795536 0.956237
O O16 0.360755 0.326219 0.000000
O O17 0.309002 0.500000 0.000000
O O18 0.000000 0.500000 0.674931
#
# Coordination Sequence:
#
# PCOD9522452 Si02
#       8
#    16  16  16  16   8   8   8   4
#     4  10  20  37  59  81 108 156 210 235 265 336
#     4   8  16  35  57  81 118 152 181 230 289 351
#     4   9  19  32  49  76 109 150 194 233 288 350
#     4  11  21  33  50  78 112 150 198 248 293 333
#     4  12  20  39  67  86 115 154 194 228 287 352
#     4  12  24  36  53  80 118 154 202 257 286 320
#     4  10  22  36  64 101 118 135 182 239 295 351
#     4  12  23  42  59  80 110 166 208 220 279 356
#
# _framework density 22.717703
#
# number of rings (size 3 to 8) (size 9 to 14) (size 15 to 20)
#    0.000    1.913    3.478    1.957    3.652    2.435 
#    0.000    0.217    0.000    1.043    0.000    1.217 
#    0.000    0.000    0.000    0.000    0.000    0.000 
#
# Total GULP energy -256275.926754 kJ/mol
# GULP energy per Si atom -5571.215799 kJ/mol
# Density = 2.266600 g / cm^3
# Si number density = 22.717703 Si / 1000 Ang^3
#
#
#
# Elastic Constant Matrix: (Units=GPa)
#
#
# Indices 1 2 3 4 5 6 
#
# 1 165.1620 18.1853 70.2064 0.0000 0.0000 0.0000
# 2 18.1853 81.7205 34.1396 0.0000 0.0000 0.0000
# 3 70.2064 34.1396 148.9436 0.0000 0.0000 0.0000
# 4 0.0000 0.0000 0.0000 -31.7498 0.0000 0.0000
# 5 0.0000 0.0000 0.0000 0.0000 44.4508 0.0000
# 6 0.0000 0.0000 0.0000 0.0000 0.0000 74.7182
#
#
#
# Elastic Compliance Matrix: (Units=1/GPa)
#
#
# Indices 1 2 3 4 5 6 
#
# 1 0.007575 -0.000215 -0.003521 0.000000 0.000000 0.000000
# 2 -0.000215 0.013539 -0.003002 0.000000 0.000000 0.000000
# 3 -0.003521 -0.003002 0.009062 0.000000 0.000000 0.000000
# 4 0.000000 0.000000 0.000000 -0.031496 0.000000 0.000000
# 5 0.000000 0.000000 0.000000 0.000000 0.022497 0.000000
# 6 0.000000 0.000000 0.000000 0.000000 0.000000 0.013384
#
#
# Mechanical properties :
#
#
# Convention : Reuss Voigt Hill
#
# Bulk Modulus (GPa) = 59.88169 71.20985 65.54577
# Shear Modulus (GPa) = 93.27866 35.70349 64.49107
#
# Velocity S-wave (km/s) = 6.41475 3.96866 5.33382
# Velocity P-wave (km/s) = 9.01563 7.23975 8.17605
#
# Compressibility (1/GPa) = 0.01669960
#
# Stress axis : x y z
#
# Youngs Moduli (GPa) = 132.01004 73.86213 110.35149
#
# Poissons Ratio (x) = 0.01585 0.38860
# Poissons Ratio (y) = 0.02833 0.33129
# Poissons Ratio (z) = 0.46487 0.22174
#
# Static dielectric constant tensor:
#      x y z
#    x 1.926520 0.000000 0.000000 
#    y 0.000000 1.855490 0.000000 
#    z 0.000000 0.000000 1.797520 
# 
# From -- ./inp_files/63274.got.cif
#   From: 2010.05.17/outbox.cif.g08.bks.cpg/sg71_32_cif.got.tgz:63274.got - 2010.06.03 16:22:01.
