data_PCOD9522497
_publ_section_title
;
Structure prediction by ZEFSAII (Michael W. Deem and Ramdas Pophale) SiO2 
 PCOD9522497
Probable space group: I M M M
;
_chemical_formula_sum "Si O2"
_cell_formula_units_Z 120
_cell_length_a 18.784204
_cell_length_b 11.652270
_cell_length_c 27.516997
_cell_angle_alpha 90.000000
_cell_angle_beta 90.000000
_cell_angle_gamma 90.000000
_cell_volume 6022.882240
_symmetry_space_group_name_H-M "I M M M"
_symmetry_group_IT_number 71
_symmetry_cell_setting 'orthorhombic'
loop_
_space_group_symop_operation_xyz
x,y,z
-x,-y,z
x,-y,-z
-x,y,-z
-x,-y,-z
x,y,-z
-x,y,z
x,-y,z
1/2+x,1/2+y,1/2+z
1/2-x,1/2-y,1/2+z
1/2+x,1/2-y,1/2-z
1/2-x,1/2+y,1/2-z
1/2-x,1/2-y,1/2-z
1/2+x,1/2+y,1/2-z
1/2-x,1/2+y,1/2+z
1/2+x,1/2-y,1/2+z
loop_
_atom_site_type_symbol
_atom_site_label
_atom_site_fract_x
_atom_site_fract_y
_atom_site_fract_z
Si Si1 0.917996 0.828099 0.057041
Si Si2 0.913543 0.500000 0.445049
Si Si3 0.584022 0.244218 0.895582
Si Si4 0.791271 0.869022 0.441896
Si Si5 0.683486 0.802570 0.188547
Si Si6 0.579591 0.864396 0.626801
Si Si7 0.769699 0.124713 0.902674
Si Si8 0.306344 0.869043 0.295284
O O1 0.915639 0.696296 0.074769
O O2 0.854815 0.879479 0.089405
O O3 0.000000 0.866810 0.065211
O O4 0.902312 0.843251 0.000000
O O5 0.887081 0.500000 0.500000
O O6 0.896257 0.379398 0.419540
O O7 0.000000 0.500000 0.446340
O O8 0.500000 0.261006 0.898637
O O9 0.629295 0.342488 0.922291
O O10 0.613740 0.231915 0.841174
O O11 0.789061 0.867637 0.500000
O O12 0.751301 0.751660 0.424052
O O13 0.768856 0.000000 0.426417
O O14 0.735131 0.870921 0.151150
O O15 0.667349 0.860180 0.239853
O O16 0.731157 0.692611 0.200826
O O17 0.500000 0.840119 0.645855
O O18 0.637472 0.821465 0.665579
O O19 0.586878 0.000000 0.621451
O O20 0.744951 0.000000 0.924205
O O21 0.296166 0.000000 0.307934
#
# Coordination Sequence:
#
# PCOD9522497 Si02
#       8
#    16   8  16  16  16  16  16  16
#     4  10  21  37  57  85 122 160 201 250 304 362
#     4   9  18  34  58  88 122 160 197 241 302 362
#     4  10  22  38  58  87 123 160 203 256 308 364
#     4  10  23  40  59  87 123 165 210 255 305 363
#     4  10  22  37  59  90 118 154 199 253 311 370
#     4   9  18  34  57  86 118 155 198 242 296 361
#     4  11  23  40  63  91 124 161 207 258 307 367
#     4  10  20  37  61  86 116 157 200 248 306 369
#
# _framework density 19.924016000000002
#
# number of rings (size 3 to 8) (size 9 to 14) (size 15 to 20)
#    0.000    2.067    1.333    1.200    4.667    5.867 
#    0.000    2.667    0.000    0.000    0.000    0.000 
#    0.000    0.000    0.000    0.000    0.000    0.000 
#
# Total GULP energy -334162.784456 kJ/mol
# GULP energy per Si atom -5569.379741 kJ/mol
# Density = 1.987867 g / cm^3
# Si number density = 19.924016 Si / 1000 Ang^3
#
#
#
# Elastic Constant Matrix: (Units=GPa)
#
#
# Indices 1 2 3 4 5 6 
#
# 1 68.8626 28.5661 7.1890 0.0000 0.0000 0.0000
# 2 28.5661 109.7623 30.0474 0.0000 0.0000 0.0000
# 3 7.1890 30.0474 80.1611 0.0000 0.0000 0.0000
# 4 0.0000 0.0000 0.0000 12.6832 0.0000 0.0000
# 5 0.0000 0.0000 0.0000 0.0000 26.7749 0.0000
# 6 0.0000 0.0000 0.0000 0.0000 0.0000 13.5991
#
#
#
# Elastic Compliance Matrix: (Units=1/GPa)
#
#
# Indices 1 2 3 4 5 6 
#
# 1 0.016281 -0.004276 0.000143 0.000000 0.000000 0.000000
# 2 -0.004276 0.011276 -0.003843 0.000000 0.000000 0.000000
# 3 0.000143 -0.003843 0.013903 0.000000 0.000000 0.000000
# 4 0.000000 0.000000 0.000000 0.078844 0.000000 0.000000
# 5 0.000000 0.000000 0.000000 0.000000 0.037348 0.000000
# 6 0.000000 0.000000 0.000000 0.000000 0.000000 0.073534
#
#
# Mechanical properties :
#
#
# Convention : Reuss Voigt Hill
#
# Bulk Modulus (GPa) = 39.20652 43.37677 41.29165
# Shear Modulus (GPa) = 19.55872 23.47702 21.51787
#
# Velocity S-wave (km/s) = 3.13655 3.43640 3.28990
# Velocity P-wave (km/s) = 5.73045 6.12891 5.93302
#
# Compressibility (1/GPa) = 0.02550596
#
# Stress axis : x y z
#
# Youngs Moduli (GPa) = 61.42265 88.68781 71.92915
#
# Poissons Ratio (x) = 0.37925 -0.01027
# Poissons Ratio (y) = 0.26266 0.27642
# Poissons Ratio (z) = -0.00877 0.34083
#
# Static dielectric constant tensor:
#      x y z
#    x 1.750530 0.000000 0.000000 
#    y 0.000000 1.750640 0.000000 
#    z 0.000000 0.000000 1.711050 
# 
# From -- ./inp_files/66618.got.cif
#   From: 2010.05.17/outbox.cif.g08.bks.cpg/sg71_34_cif.got.tgz:66618.got - 2010.06.03 16:22:01.
