data_PCOD9522677
_publ_section_title
;
Structure prediction by ZEFSAII (Michael W. Deem and Ramdas Pophale) SiO2 
 PCOD9522677
Probable space group: I M M M
;
_chemical_formula_sum "Si O2"
_cell_formula_units_Z 112
_cell_length_a 13.931382
_cell_length_b 14.647768
_cell_length_c 32.209780
_cell_angle_alpha 90.000000
_cell_angle_beta 90.000000
_cell_angle_gamma 90.000000
_cell_volume 6572.845319
_symmetry_space_group_name_H-M "I M M M"
_symmetry_group_IT_number 71
_symmetry_cell_setting 'orthorhombic'
loop_
_space_group_symop_operation_xyz
x,y,z
-x,-y,z
x,-y,-z
-x,y,-z
-x,-y,-z
x,y,-z
-x,y,z
x,-y,z
1/2+x,1/2+y,1/2+z
1/2-x,1/2-y,1/2+z
1/2+x,1/2-y,1/2-z
1/2-x,1/2+y,1/2-z
1/2-x,1/2-y,1/2-z
1/2+x,1/2+y,1/2-z
1/2-x,1/2+y,1/2+z
1/2+x,1/2-y,1/2+z
loop_
_atom_site_type_symbol
_atom_site_label
_atom_site_fract_x
_atom_site_fract_y
_atom_site_fract_z
Si Si1 0.383332 0.895187 0.255355
Si Si2 0.884384 0.608929 0.661090
Si Si3 0.886521 0.725349 0.164247
Si Si4 0.793886 0.776500 0.618138
Si Si5 0.116381 0.102048 0.783880
Si Si6 0.614181 0.395694 0.049399
Si Si7 0.613472 0.609115 0.192054
O O1 0.500000 0.893949 0.253535
O O2 0.353898 0.866065 0.208734
O O3 0.359506 0.837255 0.296028
O O4 0.352853 0.000000 0.261377
O O5 0.867888 0.500000 0.655885
O O6 0.831417 0.674662 0.628562
O O7 0.000000 0.623303 0.658014
O O8 0.819629 0.711501 0.124808
O O9 0.864656 0.826977 0.180432
O O10 0.000000 0.714497 0.156788
O O11 0.831191 0.820080 0.575801
O O12 0.838494 0.837098 0.655250
O O13 0.149994 0.132931 0.738306
O O14 0.000000 0.098219 0.780115
O O15 0.150796 0.000000 0.792327
O O16 0.500000 0.387370 0.057475
O O17 0.641687 0.500000 0.061394
O O18 0.628580 0.386594 0.000000
O O19 0.500000 0.629740 0.190609
O O20 0.624410 0.500000 0.187622
#
# Coordination Sequence:
#
# PCOD9522677 Si02
#       7
#    16  16  16  16  16  16  16
#     4   8  15  29  44  57  86 134 174 202 237 278
#     4   9  18  31  46  68  99 131 163 199 237 282
#     4  10  21  33  43  61  92 130 173 213 240 264
#     4  12  21  29  49  74  94 123 162 200 238 282
#     4   8  15  29  45  60  88 130 167 203 247 283
#     4   9  19  37  60  84 106 122 137 169 229 304
#     4   9  17  28  44  70  99 122 152 200 252 295
#
# _framework density 17.039805000000001
#
# number of rings (size 3 to 8) (size 9 to 14) (size 15 to 20)
#    0.000    2.714    0.000    4.714    0.000    7.429 
#    0.000    2.857    0.000    0.857    0.000    3.000 
#    0.000    0.000    0.000    4.857    0.000    0.143 
#
# Total GULP energy -312586.776945 kJ/mol
# GULP energy per Si atom -5581.906731 kJ/mol
# Density = 1.700102 g / cm^3
# Si number density = 17.039805 Si / 1000 Ang^3
#
#
#
# Elastic Constant Matrix: (Units=GPa)
#
#
# Indices 1 2 3 4 5 6 
#
# 1 70.6249 32.4908 25.5674 0.0000 0.0000 0.0000
# 2 32.4908 60.3902 38.4783 0.0000 0.0000 0.0000
# 3 25.5674 38.4783 47.1681 0.0000 0.0000 0.0000
# 4 0.0000 0.0000 0.0000 10.8848 0.0000 0.0000
# 5 0.0000 0.0000 0.0000 0.0000 24.6467 0.0000
# 6 0.0000 0.0000 0.0000 0.0000 0.0000 2.5726
#
#
#
# Elastic Compliance Matrix: (Units=1/GPa)
#
#
# Indices 1 2 3 4 5 6 
#
# 1 0.019194 -0.007700 -0.004123 0.000000 0.000000 0.000000
# 2 -0.007700 0.037570 -0.026475 0.000000 0.000000 0.000000
# 3 -0.004123 -0.026475 0.045033 0.000000 0.000000 0.000000
# 4 0.000000 0.000000 0.000000 0.091872 0.000000 0.000000
# 5 0.000000 0.000000 0.000000 0.000000 0.040573 0.000000
# 6 0.000000 0.000000 0.000000 0.000000 0.000000 0.388705
#
#
# Mechanical properties :
#
#
# Convention : Reuss Voigt Hill
#
# Bulk Modulus (GPa) = 39.67925 41.25070 40.46498
# Shear Modulus (GPa) = 7.06270 13.06392 10.06331
#
# Velocity S-wave (km/s) = 2.03809 2.77189 2.43281
# Velocity P-wave (km/s) = 5.37356 5.87413 5.62942
#
# Compressibility (1/GPa) = 0.02520209
#
# Stress axis : x y z
#
# Youngs Moduli (GPa) = 52.09917 26.61665 22.20586
#
# Poissons Ratio (x) = 0.20494 0.09155
# Poissons Ratio (y) = 0.40115 0.58790
# Poissons Ratio (z) = 0.21480 0.70468
#
# Static dielectric constant tensor:
#      x y z
#    x 1.654780 0.000000 0.000000 
#    y 0.000000 1.608580 0.000000 
#    z 0.000000 0.000000 1.535570 
# 
# From -- ./inp_files/41084.got.cif
#   From: 2010.05.17/outbox.cif.g08.bks.cpg/sg71_21_cif.got.tgz:41084.got - 2010.06.03 16:22:01.
