data_PCOD9522241
_publ_section_title
;
Structure prediction by ZEFSAII (Michael W. Deem and Ramdas Pophale) SiO2 
 PCOD9522241
Probable space group: I M M M
;
_chemical_formula_sum "Si O2"
_cell_formula_units_Z 58
_cell_length_a 7.397185
_cell_length_b 10.979790
_cell_length_c 33.450912
_cell_angle_alpha 90.000000
_cell_angle_beta 90.000000
_cell_angle_gamma 90.000000
_cell_volume 2716.867615
_symmetry_space_group_name_H-M "I M M M"
_symmetry_group_IT_number 71
_symmetry_cell_setting 'orthorhombic'
loop_
_space_group_symop_operation_xyz
x,y,z
-x,-y,z
x,-y,-z
-x,y,-z
-x,-y,-z
x,y,-z
-x,y,z
x,-y,z
1/2+x,1/2+y,1/2+z
1/2-x,1/2-y,1/2+z
1/2+x,1/2-y,1/2-z
1/2-x,1/2+y,1/2-z
1/2-x,1/2-y,1/2-z
1/2+x,1/2+y,1/2-z
1/2-x,1/2+y,1/2+z
1/2+x,1/2-y,1/2+z
loop_
_atom_site_type_symbol
_atom_site_label
_atom_site_fract_x
_atom_site_fract_y
_atom_site_fract_z
Si Si1 0.289722 0.742846 0.333316
Si Si2 0.286950 0.000000 0.695947
Si Si3 0.000000 0.500000 0.000000
Si Si4 0.281248 0.500000 0.709980
Si Si5 0.217313 0.361332 0.582154
Si Si6 0.719022 0.274634 0.000000
O O1 0.500000 0.747109 0.321057
O O2 0.210432 0.873267 0.321098
O O3 0.213228 0.623066 0.311385
O O4 0.280243 0.718388 0.380446
O O5 0.266964 0.000000 0.743595
O O6 0.500000 0.000000 0.685275
O O7 0.840919 0.606164 0.000000
O O8 0.500000 0.500000 0.706347
O O9 0.284234 0.500000 0.586106
O O10 0.262695 0.302996 0.539679
O O11 0.000000 0.365240 0.584335
O O12 0.500000 0.298064 0.000000
#
# Coordination Sequence:
#
# PCOD9522241 Si02
#       6
#    16   8   2   8  16   8
#     4  10  21  37  57  87 124 159 203 267 317 374
#     4  10  22  37  55  82 118 160 206 255 319 385
#     4  12  26  44  66  98 124 188 222 234 348 390
#     4  10  20  36  57  82 117 160 205 264 318 368
#     4  10  21  40  66  93 125 164 207 265 330 379
#     4  10  24  45  67  99 137 166 219 276 310 385
#
# _framework density 21.348115
#
# number of rings (size 3 to 8) (size 9 to 14) (size 15 to 20)
#    0.000    1.931    1.379    1.448    1.931    4.966 
#    2.483    2.069    0.000    0.000    0.000    0.000 
#    0.000    0.000    0.000    0.000    0.000    0.000 
#
# Total GULP energy -161764.111838 kJ/mol
# GULP energy per Si atom -5578.072822 kJ/mol
# Density = 2.129953 g / cm^3
# Si number density = 21.348115 Si / 1000 Ang^3
#
#
#
# Elastic Constant Matrix: (Units=GPa)
#
#
# Indices 1 2 3 4 5 6 
#
# 1 77.9829 27.6112 -9.8092 0.0000 0.0000 0.0000
# 2 27.6112 222.2261 108.4779 0.0000 0.0000 0.0000
# 3 -9.8092 108.4779 146.0565 0.0000 0.0000 0.0000
# 4 0.0000 0.0000 0.0000 -14.6404 0.0000 0.0000
# 5 0.0000 0.0000 0.0000 0.0000 17.2314 0.0000
# 6 0.0000 0.0000 0.0000 0.0000 0.0000 -80.2743
#
#
#
# Elastic Compliance Matrix: (Units=1/GPa)
#
#
# Indices 1 2 3 4 5 6 
#
# 1 0.014550 -0.003584 0.003639 0.000000 0.000000 0.000000
# 2 -0.003584 0.007942 -0.006140 0.000000 0.000000 0.000000
# 3 0.003639 -0.006140 0.011651 0.000000 0.000000 0.000000
# 4 0.000000 0.000000 0.000000 -0.068304 0.000000 0.000000
# 5 0.000000 0.000000 0.000000 0.000000 0.058034 0.000000
# 6 0.000000 0.000000 0.000000 0.000000 0.000000 -0.012457
#
#
# Mechanical properties :
#
#
# Convention : Reuss Voigt Hill
#
# Bulk Modulus (GPa) = 45.50763 77.64728 61.57746
# Shear Modulus (GPa) = 161.76328 5.79571 83.77949
#
# Velocity S-wave (km/s) = 8.71427 1.64947 6.27134
# Velocity P-wave (km/s) = 11.07315 6.33077 9.01923
#
# Compressibility (1/GPa) = 0.02197434
#
# Stress axis : x y z
#
# Youngs Moduli (GPa) = 68.72759 125.90932 85.82975
#
# Poissons Ratio (x) = 0.45130 -0.31236
# Poissons Ratio (y) = 0.24634 0.52695
# Poissons Ratio (z) = -0.25012 0.77302
#
# Static dielectric constant tensor:
#      x y z
#    x 1.832610 0.000000 0.000000 
#    y 0.000000 1.770140 0.000000 
#    z 0.000000 0.000000 1.707440 
# 
# From -- ./inp_files/14048.got.cif
#   From: 2010.05.17/outbox.cif.g08.bks.cpg/sg71_8_cif.got.tgz:14048.got - 2010.06.03 16:22:01.
