data_PCOD9522631
_publ_section_title
;
Structure prediction by ZEFSAII (Michael W. Deem and Ramdas Pophale) SiO2 
 PCOD9522631
Probable space group: I M M M
;
_chemical_formula_sum "Si O2"
_cell_formula_units_Z 66
_cell_length_a 16.508090
_cell_length_b 24.224641
_cell_length_c 7.949694
_cell_angle_alpha 90.000000
_cell_angle_beta 90.000000
_cell_angle_gamma 90.000000
_cell_volume 3179.102933
_symmetry_space_group_name_H-M "I M M M"
_symmetry_group_IT_number 71
_symmetry_cell_setting 'orthorhombic'
loop_
_space_group_symop_operation_xyz
x,y,z
-x,-y,z
x,-y,-z
-x,y,-z
-x,-y,-z
x,y,-z
-x,y,z
x,-y,z
1/2+x,1/2+y,1/2+z
1/2-x,1/2-y,1/2+z
1/2+x,1/2-y,1/2-z
1/2-x,1/2+y,1/2-z
1/2-x,1/2-y,1/2-z
1/2+x,1/2+y,1/2-z
1/2-x,1/2+y,1/2+z
1/2+x,1/2-y,1/2+z
loop_
_atom_site_type_symbol
_atom_site_label
_atom_site_fract_x
_atom_site_fract_y
_atom_site_fract_z
Si Si1 0.590852 0.000000 0.302104
Si Si2 0.334927 0.659409 0.801967
Si Si3 0.000000 0.000000 0.000000
Si Si4 0.332616 0.114622 0.804969
Si Si5 0.906787 0.728203 0.293719
Si Si6 0.500000 0.590254 0.195998
O O1 0.639020 0.944294 0.260543
O O2 0.500000 0.000000 0.224719
O O3 0.581466 0.000000 0.500000
O O4 0.262356 0.626648 0.716052
O O5 0.350041 0.721447 0.736576
O O6 0.419726 0.627545 0.787896
O O7 0.314432 0.662477 0.000000
O O8 0.000000 0.047325 0.151562
O O9 0.377544 0.168547 0.731591
O O10 0.353898 0.113992 0.000000
O O11 0.903967 0.728935 0.500000
O O12 0.000000 0.738010 0.246420
O O13 0.500000 0.568833 0.000000
#
# Coordination Sequence:
#
# PCOD9522631 Si02
#       6
#     8  16   2  16  16   8
#     4  11  25  46  67  86 121 165 210 255 308 377
#     4  10  20  39  64  89 127 168 214 258 320 389
#     4  12  26  40  68  90 132 160 228 278 304 390
#     4  11  23  37  62  96 127 161 208 261 321 380
#     4   9  17  34  61  92 125 164 206 258 320 386
#     4  10  23  43  67  94 127 184 223 270 336 386
#
# _framework density 20.760573999999998
#
# number of rings (size 3 to 8) (size 9 to 14) (size 15 to 20)
#    0.000    1.818    1.212    2.727    1.697    2.909 
#    0.000    2.424    0.000    2.909    0.000    0.000 
#    0.000    0.000    0.000    0.000    0.000    0.000 
#
# Total GULP energy -184005.642675 kJ/mol
# GULP energy per Si atom -5575.928566 kJ/mol
# Density = 2.071332 g / cm^3
# Si number density = 20.760574 Si / 1000 Ang^3
#
#
#
# Elastic Constant Matrix: (Units=GPa)
#
#
# Indices 1 2 3 4 5 6 
#
# 1 111.1400 73.6010 2.4064 0.0000 0.0000 0.0000
# 2 73.6010 200.7492 49.0626 0.0000 0.0000 0.0000
# 3 2.4064 49.0626 59.8136 0.0000 0.0000 0.0000
# 4 0.0000 0.0000 0.0000 -6.5303 0.0000 0.0000
# 5 0.0000 0.0000 0.0000 0.0000 9.4473 0.0000
# 6 0.0000 0.0000 0.0000 0.0000 0.0000 44.1442
#
#
#
# Elastic Compliance Matrix: (Units=1/GPa)
#
#
# Indices 1 2 3 4 5 6 
#
# 1 0.012646 -0.005643 0.004120 0.000000 0.000000 0.000000
# 2 -0.005643 0.008749 -0.006949 0.000000 0.000000 0.000000
# 3 0.004120 -0.006949 0.022253 0.000000 0.000000 0.000000
# 4 0.000000 0.000000 0.000000 -0.153133 0.000000 0.000000
# 5 0.000000 0.000000 0.000000 0.000000 0.105850 0.000000
# 6 0.000000 0.000000 0.000000 0.000000 0.000000 0.022653
#
#
# Mechanical properties :
#
#
# Convention : Reuss Voigt Hill
#
# Bulk Modulus (GPa) = 37.44926 69.09364 53.27145
# Shear Modulus (GPa) = 111.45181 25.85443 68.65312
#
# Velocity S-wave (km/s) = 7.33491 3.53280 5.75680
# Velocity P-wave (km/s) = 9.47694 7.07067 8.36082
#
# Compressibility (1/GPa) = 0.02670280
#
# Stress axis : x y z
#
# Youngs Moduli (GPa) = 79.07877 114.30290 44.93789
#
# Poissons Ratio (x) = 0.64504 -0.18515
# Poissons Ratio (y) = 0.44626 0.31228
# Poissons Ratio (z) = -0.32582 0.79431
#
# Static dielectric constant tensor:
#      x y z
#    x 1.723180 0.000000 0.000000 
#    y 0.000000 1.761750 0.000000 
#    z 0.000000 0.000000 1.746610 
# 
# From -- ./inp_files/5647.got.cif
#   From: 2010.05.17/outbox.cif.g08.bks.cpg/sg71_3_cif.got.tgz:5647.got - 2010.06.03 16:22:01.
