data_PCOD9522675
_publ_section_title
;
Structure prediction by ZEFSAII (Michael W. Deem and Ramdas Pophale) SiO2 
 PCOD9522675
Probable space group: I M M M
;
_chemical_formula_sum "Si O2"
_cell_formula_units_Z 66
_cell_length_a 9.064159
_cell_length_b 24.071555
_cell_length_c 15.396448
_cell_angle_alpha 90.000000
_cell_angle_beta 90.000000
_cell_angle_gamma 90.000000
_cell_volume 3359.326384
_symmetry_space_group_name_H-M "I M M M"
_symmetry_group_IT_number 71
_symmetry_cell_setting 'orthorhombic'
loop_
_space_group_symop_operation_xyz
x,y,z
-x,-y,z
x,-y,-z
-x,y,-z
-x,-y,-z
x,y,-z
-x,y,z
x,-y,z
1/2+x,1/2+y,1/2+z
1/2-x,1/2-y,1/2+z
1/2+x,1/2-y,1/2-z
1/2-x,1/2+y,1/2-z
1/2-x,1/2-y,1/2-z
1/2+x,1/2+y,1/2-z
1/2-x,1/2+y,1/2+z
1/2+x,1/2-y,1/2+z
loop_
_atom_site_type_symbol
_atom_site_label
_atom_site_fract_x
_atom_site_fract_y
_atom_site_fract_z
Si Si1 0.331919 0.876446 0.833876
Si Si2 0.757119 0.000000 0.153465
Si Si3 0.832562 0.000000 0.354556
Si Si4 0.000000 0.000000 0.000000
Si Si5 0.172473 0.308057 0.000000
Si Si6 0.171592 0.175008 0.000000
Si Si7 0.178808 0.122616 0.649253
O O1 0.500000 0.856773 0.824899
O O2 0.331170 0.942663 0.850205
O O3 0.240867 0.866846 0.745539
O O4 0.251221 0.848248 0.914784
O O5 0.831396 0.000000 0.249267
O O6 0.873132 0.000000 0.076262
O O7 0.769245 0.939846 0.378781
O O8 0.000000 0.000000 0.387036
O O9 0.254740 0.333292 0.083208
O O10 0.178351 0.241510 0.000000
O O11 0.000000 0.324336 0.000000
O O12 0.000000 0.156470 0.000000
O O13 0.000000 0.123253 0.649635
#
# Coordination Sequence:
#
# PCOD9522675 Si02
#       7
#    16   8   8   2   8   8  16
#     4  11  23  40  62  92 128 163 200 255 309 365
#     4  10  21  32  57  90 127 162 199 239 298 364
#     4   8  16  34  56  90 124 150 194 241 287 357
#     4  12  20  28  54  88 120 174 198 248 280 354
#     4  11  25  45  62  87 120 158 207 267 315 361
#     4  11  26  43  62  84 118 163 216 256 301 369
#     4  10  21  39  67  93 123 160 204 248 307 371
#
# _framework density 19.646795000000001
#
# number of rings (size 3 to 8) (size 9 to 14) (size 15 to 20)
#    0.000    1.697    0.606    3.273    5.091    3.394 
#    0.000    6.061    0.000    0.000    0.000    0.000 
#    0.000    0.000    0.000    0.000    0.000    0.000 
#
# Total GULP energy -184037.816213 kJ/mol
# GULP energy per Si atom -5576.903522 kJ/mol
# Density = 1.960208 g / cm^3
# Si number density = 19.646795 Si / 1000 Ang^3
#
#
#
# Elastic Constant Matrix: (Units=GPa)
#
#
# Indices 1 2 3 4 5 6 
#
# 1 143.1360 44.9897 62.1937 0.0000 0.0000 0.0000
# 2 44.9897 76.0432 52.9610 0.0000 0.0000 0.0000
# 3 62.1937 52.9610 121.4031 0.0000 0.0001 0.0000
# 4 0.0000 0.0000 0.0000 32.0175 0.0000 0.0000
# 5 0.0000 0.0000 0.0001 0.0000 31.7087 0.0000
# 6 0.0000 0.0000 0.0000 0.0000 0.0000 -1.2265
#
#
#
# Elastic Compliance Matrix: (Units=1/GPa)
#
#
# Indices 1 2 3 4 5 6 
#
# 1 0.009501 -0.003205 -0.003469 0.000000 0.000000 0.000000
# 2 -0.003205 0.019971 -0.007070 0.000000 0.000000 0.000000
# 3 -0.003469 -0.007070 0.013099 0.000000 0.000000 0.000000
# 4 0.000000 0.000000 0.000000 0.031233 0.000000 0.000001
# 5 0.000000 0.000000 0.000000 0.000000 0.031537 -0.000001
# 6 0.000000 0.000000 0.000000 0.000001 -0.000001 -0.815340
#
#
# Mechanical properties :
#
#
# Convention : Reuss Voigt Hill
#
# Bulk Modulus (GPa) = 66.30568 73.43014 69.86791
# Shear Modulus (GPa) = -7.38025 24.52913 8.57444
#
# Velocity S-wave (km/s) = -1.94026 3.53725 2.09136
# Velocity P-wave (km/s) = 5.36681 7.35793 6.43979
#
# Compressibility (1/GPa) = 0.01508167
#
# Stress axis : x y z
#
# Youngs Moduli (GPa) = 105.25054 50.07342 76.34447
#
# Poissons Ratio (x) = 0.16049 0.26485
# Poissons Ratio (y) = 0.33733 0.53976
# Poissons Ratio (z) = 0.36513 0.35402
#
# Static dielectric constant tensor:
#      x y z
#    x 1.677610 0.000000 0.000000 
#    y 0.000000 1.705630 0.000000 
#    z 0.000000 0.000000 1.657240 
# 
# From -- ./inp_files/31262.got.cif
#   From: 2010.05.17/outbox.cif.g08.bks.cpg/sg71_16_cif.got.tgz:31262.got - 2010.06.03 16:22:01.
