data_PCOD9522160
_publ_section_title
;
Structure prediction by ZEFSAII (Michael W. Deem and Ramdas Pophale) SiO2 
 PCOD9522160
Probable space group: I M M M
;
_chemical_formula_sum "Si O2"
_cell_formula_units_Z 64
_cell_length_a 24.192816
_cell_length_b 8.882518
_cell_length_c 15.102827
_cell_angle_alpha 90.000000
_cell_angle_beta 90.000000
_cell_angle_gamma 90.000000
_cell_volume 3245.493669
_symmetry_space_group_name_H-M "I M M M"
_symmetry_group_IT_number 71
_symmetry_cell_setting 'orthorhombic'
loop_
_space_group_symop_operation_xyz
x,y,z
-x,-y,z
x,-y,-z
-x,y,-z
-x,-y,-z
x,y,-z
-x,y,z
x,-y,z
1/2+x,1/2+y,1/2+z
1/2-x,1/2-y,1/2+z
1/2+x,1/2-y,1/2-z
1/2-x,1/2+y,1/2-z
1/2-x,1/2-y,1/2-z
1/2+x,1/2+y,1/2-z
1/2-x,1/2+y,1/2+z
1/2+x,1/2-y,1/2+z
loop_
_atom_site_type_symbol
_atom_site_label
_atom_site_fract_x
_atom_site_fract_y
_atom_site_fract_z
Si Si1 0.126712 0.671427 0.902522
Si Si2 0.500000 0.819129 0.211035
Si Si3 0.099993 0.180012 0.395602
Si Si4 0.190060 0.177891 0.256808
Si Si5 0.000000 0.251227 0.097915
O O1 0.145999 0.500000 0.891974
O O2 0.151156 0.767438 0.823434
O O3 0.059883 0.669808 0.903126
O O4 0.143915 0.727231 0.000000
O O5 0.446687 0.776553 0.153430
O O6 0.500000 0.708826 0.297700
O O7 0.500000 0.000000 0.233568
O O8 0.100810 0.209778 0.500000
O O9 0.157847 0.214351 0.347527
O O10 0.088810 0.000000 0.383482
O O11 0.250000 0.250000 0.250000
O O12 0.196042 0.000000 0.251811
O O13 0.000000 0.170376 0.000000
#
# Coordination Sequence:
#
# PCOD9522160 Si02
#       5
#    16   8  16  16   8
#     4  10  20  37  62  90 122 160 197 235 292 363
#     4  12  22  35  63  97 126 153 195 248 295 350
#     4  10  23  43  63  84 118 163 203 241 295 362
#     4  11  24  41  62  87 117 155 205 255 303 353
#     4  10  20  35  60  94 129 163 195 233 294 368
#
# _framework density 19.719650999999999
#
# number of rings (size 3 to 8) (size 9 to 14) (size 15 to 20)
#    0.000    1.500    2.500    2.625    0.000    7.250 
#    0.000    3.125    0.000    3.750    0.000    0.000 
#    0.000    0.000    0.000    0.000    0.000    0.000 
#
# Total GULP energy -178321.353949 kJ/mol
# GULP energy per Si atom -5572.542311 kJ/mol
# Density = 1.967477 g / cm^3
# Si number density = 19.719651 Si / 1000 Ang^3
#
#
#
# Elastic Constant Matrix: (Units=GPa)
#
#
# Indices 1 2 3 4 5 6 
#
# 1 120.6915 47.4318 56.8142 0.0000 0.0000 0.0000
# 2 47.4318 44.2155 43.9619 0.0000 0.0000 0.0000
# 3 56.8142 43.9619 162.2545 0.0000 0.0000 0.0000
# 4 0.0000 0.0000 0.0000 17.7624 0.0000 0.0000
# 5 0.0000 0.0000 0.0000 0.0000 10.4830 0.0000
# 6 0.0000 0.0000 0.0000 0.0000 0.0000 18.9142
#
#
#
# Elastic Compliance Matrix: (Units=1/GPa)
#
#
# Indices 1 2 3 4 5 6 
#
# 1 0.014488 -0.014369 -0.001180 0.000000 0.000000 0.000000
# 2 -0.014369 0.045206 -0.007217 0.000000 0.000000 0.000000
# 3 -0.001180 -0.007217 0.008532 0.000000 0.000000 0.000000
# 4 0.000000 0.000000 0.000000 0.056299 0.000000 0.000000
# 5 0.000000 0.000000 0.000000 0.000000 0.095392 0.000000
# 6 0.000000 0.000000 0.000000 0.000000 0.000000 0.052870
#
#
# Mechanical properties :
#
#
# Convention : Reuss Voigt Hill
#
# Bulk Modulus (GPa) = 44.06372 69.28638 56.67505
# Shear Modulus (GPa) = 15.34294 21.36217 18.35256
#
# Velocity S-wave (km/s) = 2.79239 3.29491 3.05400
# Velocity P-wave (km/s) = 5.72627 7.04892 6.42174
#
# Compressibility (1/GPa) = 0.02269441
#
# Stress axis : x y z
#
# Youngs Moduli (GPa) = 69.02320 22.12101 117.20956
#
# Poissons Ratio (x) = 0.31785 0.13830
# Poissons Ratio (y) = 0.99177 0.84591
# Poissons Ratio (z) = 0.08144 0.15965
#
# Static dielectric constant tensor:
#      x y z
#    x 1.669300 0.000000 0.000000 
#    y 0.000000 1.679550 0.000000 
#    z 0.000000 0.000000 1.717020 
# 
# From -- ./inp_files/5573.got.cif
#   From: 2010.05.17/outbox.cif.g08.bks.cpg/sg71_3_cif.got.tgz:5573.got - 2010.06.03 16:22:01.
