data_PCOD9522020
_publ_section_title
;
Structure prediction by ZEFSAII (Michael W. Deem and Ramdas Pophale) SiO2 
 PCOD9522020
Probable space group: I M M M
;
_chemical_formula_sum "Si O2"
_cell_formula_units_Z 64
_cell_length_a 7.881730
_cell_length_b 23.413569
_cell_length_c 17.814943
_cell_angle_alpha 90.000000
_cell_angle_beta 90.000000
_cell_angle_gamma 90.000000
_cell_volume 3287.559412
_symmetry_space_group_name_H-M "I M M M"
_symmetry_group_IT_number 71
_symmetry_cell_setting 'orthorhombic'
loop_
_space_group_symop_operation_xyz
x,y,z
-x,-y,z
x,-y,-z
-x,y,-z
-x,-y,-z
x,y,-z
-x,y,z
x,-y,z
1/2+x,1/2+y,1/2+z
1/2-x,1/2-y,1/2+z
1/2+x,1/2-y,1/2-z
1/2-x,1/2+y,1/2-z
1/2-x,1/2-y,1/2-z
1/2+x,1/2+y,1/2-z
1/2-x,1/2+y,1/2+z
1/2+x,1/2-y,1/2+z
loop_
_atom_site_type_symbol
_atom_site_label
_atom_site_fract_x
_atom_site_fract_y
_atom_site_fract_z
Si Si1 0.301329 0.000000 0.591441
Si Si2 0.296771 0.240629 0.663896
Si Si3 0.707657 0.124162 0.587453
Si Si4 0.313080 0.857206 0.909633
Si Si5 0.500000 0.565630 0.408135
O O1 0.230041 0.938254 0.614314
O O2 0.500000 0.000000 0.613104
O O3 0.296615 0.000000 0.500000
O O4 0.500000 0.242516 0.654952
O O5 0.250000 0.250000 0.750000
O O6 0.237046 0.178959 0.634444
O O7 0.221375 0.293128 0.617329
O O8 0.754800 0.131736 0.500000
O O9 0.500000 0.122377 0.589379
O O10 0.500000 0.875446 0.884014
O O11 0.165675 0.899540 0.883226
O O12 0.310018 0.857732 0.000000
O O13 0.500000 0.500000 0.383916
O O14 0.500000 0.565570 0.500000
#
# Coordination Sequence:
#
# PCOD9522020 Si02
#       5
#     8  16  16  16   8
#     4   7  10  20  40  70 101 123 156 208 262 321
#     4  11  21  33  50  73 108 147 187 231 276 328
#     4   8  14  25  46  73  99 131 169 214 271 328
#     4  10  20  35  57  84 112 143 185 231 277 334
#     4   9  18  34  58  86 114 143 176 224 282 332
#
# _framework density 19.467328999999999
#
# number of rings (size 3 to 8) (size 9 to 14) (size 15 to 20)
#    0.000    2.750    1.250    3.000    0.000    1.500 
#    0.000    2.500    2.750    0.000    0.000    2.625 
#    0.000   14.000    0.000    0.000    0.000    0.000 
#
# Total GULP energy -178437.029025 kJ/mol
# GULP energy per Si atom -5576.157157 kJ/mol
# Density = 1.942302 g / cm^3
# Si number density = 19.467329 Si / 1000 Ang^3
#
#
#
# Elastic Constant Matrix: (Units=GPa)
#
#
# Indices 1 2 3 4 5 6 
#
# 1 101.0048 62.7273 12.4551 0.0000 0.0000 0.0000
# 2 62.7273 220.1217 46.8582 0.0000 0.0000 0.0000
# 3 12.4551 46.8582 25.7246 0.0000 0.0000 0.0000
# 4 0.0000 0.0000 0.0000 -3.0612 0.0000 0.0000
# 5 0.0000 0.0000 0.0000 0.0000 15.6952 0.0000
# 6 0.0000 0.0000 0.0000 0.0000 0.0000 -0.9237
#
#
#
# Elastic Compliance Matrix: (Units=1/GPa)
#
#
# Indices 1 2 3 4 5 6 
#
# 1 0.012037 -0.003576 0.000686 0.000000 0.000000 0.000000
# 2 -0.003576 0.008483 -0.013720 0.000000 0.000000 0.000000
# 3 0.000686 -0.013720 0.063532 0.000000 0.000000 0.000000
# 4 0.000000 0.000000 0.000000 -0.326667 0.000000 0.000000
# 5 0.000000 0.000000 0.000000 0.000000 0.063714 0.000000
# 6 0.000000 0.000000 0.000000 0.000000 0.000000 -1.082548
#
#
# Mechanical properties :
#
#
# Convention : Reuss Voigt Hill
#
# Bulk Modulus (GPa) = 19.67265 65.65917 42.66591
# Shear Modulus (GPa) = -4.12784 17.32942 6.60079
#
# Velocity S-wave (km/s) = -1.45774 2.98682 1.84338
# Velocity P-wave (km/s) = 2.70075 6.75988 5.14733
#
# Compressibility (1/GPa) = 0.05083199
#
# Stress axis : x y z
#
# Youngs Moduli (GPa) = 83.07844 117.88769 15.74004
#
# Poissons Ratio (x) = 0.42159 -0.01080
# Poissons Ratio (y) = 0.29710 0.21595
# Poissons Ratio (z) = -0.05701 1.61741
#
# Static dielectric constant tensor:
#      x y z
#    x 1.727460 0.000000 0.000000 
#    y 0.000000 1.683630 0.000000 
#    z 0.000000 0.000000 1.625180 
# 
# From -- ./inp_files/50172.got.cif
#   From: 2010.05.17/outbox.cif.g08.bks.cpg/sg71_26_cif.got.tgz:50172.got - 2010.06.03 16:22:01.
