data_PCOD9522992
_publ_section_title
;
Structure prediction by ZEFSAII (Michael W. Deem and Ramdas Pophale) SiO2 
 PCOD9522992
Probable space group: I M M M
;
_chemical_formula_sum "Si O2"
_cell_formula_units_Z 96
_cell_length_a 23.955887
_cell_length_b 8.851528
_cell_length_c 25.582440
_cell_angle_alpha 90.000000
_cell_angle_beta 90.000000
_cell_angle_gamma 90.000000
_cell_volume 5424.659305
_symmetry_space_group_name_H-M "I M M M"
_symmetry_group_IT_number 71
_symmetry_cell_setting 'orthorhombic'
loop_
_space_group_symop_operation_xyz
x,y,z
-x,-y,z
x,-y,-z
-x,y,-z
-x,-y,-z
x,y,-z
-x,y,z
x,-y,z
1/2+x,1/2+y,1/2+z
1/2-x,1/2-y,1/2+z
1/2+x,1/2-y,1/2-z
1/2-x,1/2+y,1/2-z
1/2-x,1/2-y,1/2-z
1/2+x,1/2+y,1/2-z
1/2-x,1/2+y,1/2+z
1/2+x,1/2-y,1/2+z
loop_
_atom_site_type_symbol
_atom_site_label
_atom_site_fract_x
_atom_site_fract_y
_atom_site_fract_z
Si Si1 0.363084 0.820656 0.651833
Si Si2 0.064694 0.181423 0.060955
Si Si3 0.564482 0.819227 0.061554
Si Si4 0.434469 0.820430 0.756001
Si Si5 0.249794 0.680149 0.691747
Si Si6 0.863536 0.178826 0.348452
O O1 0.393942 0.763952 0.600065
O O2 0.403742 0.791332 0.701224
O O3 0.305454 0.735327 0.662762
O O4 0.352891 0.000000 0.649559
O O5 0.000000 0.221475 0.072424
O O6 0.069785 0.000000 0.066987
O O7 0.075250 0.216914 0.000000
O O8 0.500000 0.780150 0.074621
O O9 0.607089 0.733163 0.098476
O O10 0.570272 0.000000 0.069308
O O11 0.572786 0.788613 0.000000
O O12 0.500000 0.785965 0.752704
O O13 0.404372 0.728018 0.801348
O O14 0.428571 0.000000 0.767575
O O15 0.248483 0.500000 0.695905
O O16 0.250000 0.750000 0.750000
O O17 0.195021 0.739109 0.662167
O O18 0.855276 0.000000 0.348210
#
# Coordination Sequence:
#
# PCOD9522992 Si02
#       6
#    16  16  16  16  16  16
#     4  11  22  37  59  87 117 152 194 242 293 345
#     4   9  19  37  60  86 119 159 199 240 289 345
#     4   9  19  38  63  88 117 156 197 238 290 348
#     4  10  21  36  55  81 116 154 189 233 289 347
#     4  12  24  41  62  84 113 154 197 240 289 348
#     4  12  24  37  57  86 118 154 194 239 290 344
#
# _framework density 17.696964000000001
#
# number of rings (size 3 to 8) (size 9 to 14) (size 15 to 20)
#    0.000    1.500    1.667    5.500    0.000    5.000 
#    0.000    2.500    0.000    5.000    0.000    0.000 
#    0.000    0.000    0.000    0.000    0.000    0.000 
#
# Total GULP energy -268313.629076 kJ/mol
# GULP energy per Si atom -5589.867272 kJ/mol
# Density = 1.765668 g / cm^3
# Si number density = 17.696964 Si / 1000 Ang^3
#
#
#
# Elastic Constant Matrix: (Units=GPa)
#
#
# Indices 1 2 3 4 5 6 
#
# 1 153.8202 90.8679 77.6503 0.0000 0.0000 0.0000
# 2 90.8679 111.7961 69.2716 0.0000 0.0000 0.0000
# 3 77.6503 69.2716 94.0121 0.0000 0.0000 0.0000
# 4 0.0000 0.0000 0.0000 32.6369 0.0000 0.0000
# 5 0.0000 0.0000 0.0000 0.0000 7.0255 0.0000
# 6 0.0000 0.0000 0.0000 0.0000 0.0000 30.0065
#
#
#
# Elastic Compliance Matrix: (Units=1/GPa)
#
#
# Indices 1 2 3 4 5 6 
#
# 1 0.014076 -0.007797 -0.005881 0.000000 0.000000 0.000000
# 2 -0.007797 0.020778 -0.008871 0.000000 0.000000 0.000000
# 3 -0.005881 -0.008871 0.022031 0.000000 0.000000 0.000000
# 4 0.000000 0.000000 0.000000 0.030640 0.000000 0.000000
# 5 0.000000 0.000000 0.000000 0.000000 0.142339 0.000000
# 6 0.000000 0.000000 0.000000 0.000000 0.000000 0.033326
#
#
# Mechanical properties :
#
#
# Convention : Reuss Voigt Hill
#
# Bulk Modulus (GPa) = 84.83133 92.80088 88.81611
# Shear Modulus (GPa) = 16.01454 22.05636 19.03545
#
# Velocity S-wave (km/s) = 3.01147 3.53418 3.28324
# Velocity P-wave (km/s) = 7.75445 8.31905 8.04171
#
# Compressibility (1/GPa) = 0.01178810
#
# Stress axis : x y z
#
# Youngs Moduli (GPa) = 71.04387 48.12693 45.39127
#
# Poissons Ratio (x) = 0.37523 0.26695
# Poissons Ratio (y) = 0.55391 0.40264
# Poissons Ratio (z) = 0.41782 0.42691
#
# Static dielectric constant tensor:
#      x y z
#    x 1.580870 0.000000 0.000000 
#    y 0.000000 1.592070 0.000000 
#    z 0.000000 0.000000 1.579600 
# 
# From -- ./inp_files/12860.got.cif
#   From: 2010.05.17/outbox.cif.g08.bks.cpg/sg71_7_cif.got.tgz:12860.got - 2010.06.03 16:22:01.
