data_PCOD9522539
_publ_section_title
;
Structure prediction by ZEFSAII (Michael W. Deem and Ramdas Pophale) SiO2 
 PCOD9522539
Probable space group: I M M M
;
_chemical_formula_sum "Si O2"
_cell_formula_units_Z 108
_cell_length_a 15.113933
_cell_length_b 16.340938
_cell_length_c 22.929562
_cell_angle_alpha 90.000000
_cell_angle_beta 90.000000
_cell_angle_gamma 90.000000
_cell_volume 5663.047884
_symmetry_space_group_name_H-M "I M M M"
_symmetry_group_IT_number 71
_symmetry_cell_setting 'orthorhombic'
loop_
_space_group_symop_operation_xyz
x,y,z
-x,-y,z
x,-y,-z
-x,y,-z
-x,-y,-z
x,y,-z
-x,y,z
x,-y,z
1/2+x,1/2+y,1/2+z
1/2-x,1/2-y,1/2+z
1/2+x,1/2-y,1/2-z
1/2-x,1/2+y,1/2-z
1/2-x,1/2-y,1/2-z
1/2+x,1/2+y,1/2-z
1/2-x,1/2+y,1/2+z
1/2+x,1/2-y,1/2+z
loop_
_atom_site_type_symbol
_atom_site_label
_atom_site_fract_x
_atom_site_fract_y
_atom_site_fract_z
Si Si1 0.605519 0.594856 0.668035
Si Si2 0.737127 0.345951 0.767348
Si Si3 0.736734 0.500000 0.000000
Si Si4 0.894660 0.226693 0.931786
Si Si5 0.740474 0.351580 0.094800
Si Si6 0.396316 0.788448 0.097521
Si Si7 0.392210 0.088960 0.000000
Si Si8 0.100662 0.408169 0.296672
O O1 0.500000 0.601664 0.678290
O O2 0.625986 0.500000 0.655087
O O3 0.659257 0.622290 0.725164
O O4 0.627298 0.653715 0.613391
O O5 0.750000 0.250000 0.750000
O O6 0.724940 0.362701 0.835769
O O7 0.825397 0.395345 0.750925
O O8 0.737355 0.571733 0.948168
O O9 0.832782 0.303086 0.915053
O O10 0.000000 0.244465 0.925754
O O11 0.879070 0.205707 0.000000
O O12 0.661607 0.288490 0.081184
O O13 0.500000 0.770877 0.088654
O O14 0.366511 0.860932 0.055801
O O15 0.386912 0.831075 0.160263
O O16 0.500000 0.084294 0.000000
O O17 0.354056 0.000000 0.000000
O O18 0.109873 0.500000 0.323781
O O19 0.000000 0.403885 0.274765
#
# Coordination Sequence:
#
# PCOD9522539 Si02
#       8
#    16  16   4  16  16  16   8  16
#     4  10  22  40  65 101 138 168 209 266 329 400
#     4  12  23  39  66  94 126 171 221 272 330 385
#     4  12  30  48  68  86 130 180 228 280 328 384
#     4  10  21  41  69  95 127 169 213 263 324 392
#     4  12  25  45  65  89 123 169 222 277 324 379
#     4  10  20  37  63  90 124 165 205 250 310 384
#     4   9  17  30  53  86 120 157 192 228 286 366
#     4  10  21  37  60  96 134 162 199 262 332 397
#
# _framework density 19.071003000000001
#
# number of rings (size 3 to 8) (size 9 to 14) (size 15 to 20)
#    0.000    1.407    3.704    1.333    2.074    3.852 
#    0.000    3.704    0.000    0.000    0.000    0.000 
#    0.000    0.000    0.000    0.000    0.000    0.000 
#
# Total GULP energy -300687.770061 kJ/mol
# GULP energy per Si atom -5568.292038 kJ/mol
# Density = 1.902760 g / cm^3
# Si number density = 19.071003 Si / 1000 Ang^3
#
#
#
# Elastic Constant Matrix: (Units=GPa)
#
#
# Indices 1 2 3 4 5 6 
#
# 1 58.4785 64.5998 47.3362 0.0000 0.0000 0.0000
# 2 64.5998 168.9830 69.1837 0.0000 0.0000 0.0000
# 3 47.3362 69.1837 140.1852 0.0000 0.0000 0.0000
# 4 0.0000 0.0000 0.0000 41.3123 0.0000 0.0000
# 5 0.0000 0.0000 0.0000 0.0000 19.6656 0.0000
# 6 0.0000 0.0000 0.0000 0.0000 0.0000 23.0601
#
#
#
# Elastic Compliance Matrix: (Units=1/GPa)
#
#
# Indices 1 2 3 4 5 6 
#
# 1 0.033465 -0.010235 -0.006249 0.000000 0.000000 0.000000
# 2 -0.010235 0.010546 -0.001749 0.000000 0.000000 0.000000
# 3 -0.006249 -0.001749 0.010107 0.000000 0.000000 0.000000
# 4 0.000000 0.000000 0.000000 0.024206 0.000000 0.000000
# 5 0.000000 0.000000 0.000000 0.000000 0.050850 0.000000
# 6 0.000000 0.000000 0.000000 0.000000 0.000000 0.043365
#
#
# Mechanical properties :
#
#
# Convention : Reuss Voigt Hill
#
# Bulk Modulus (GPa) = 56.64907 81.09845 68.87376
# Shear Modulus (GPa) = 23.26798 29.24273 26.25535
#
# Velocity S-wave (km/s) = 3.49674 3.92006 3.71444
# Velocity P-wave (km/s) = 6.78761 7.94393 7.38843
#
# Compressibility (1/GPa) = 0.01765254
#
# Stress axis : x y z
#
# Youngs Moduli (GPa) = 29.88235 94.81998 98.94509
#
# Poissons Ratio (x) = 0.97044 0.61831
# Poissons Ratio (y) = 0.30583 0.17304
# Poissons Ratio (z) = 0.18673 0.16583
#
# Static dielectric constant tensor:
#      x y z
#    x 1.674390 0.000000 0.000000 
#    y 0.000000 1.661690 0.000000 
#    z 0.000000 0.000000 1.790420 
# 
# From -- ./inp_files/59963.got.cif
#   From: 2010.05.17/outbox.cif.g08.bks.cpg/sg71_30_cif.got.tgz:59963.got - 2010.06.03 16:22:01.
