data_PCOD9522699
_publ_section_title
;
Structure prediction by ZEFSAII (Michael W. Deem and Ramdas Pophale) SiO2 
 PCOD9522699
Probable space group: I M M M
;
_chemical_formula_sum "Si O2"
_cell_formula_units_Z 80
_cell_length_a 31.467718
_cell_length_b 13.283316
_cell_length_c 7.256615
_cell_angle_alpha 90.000000
_cell_angle_beta 90.000000
_cell_angle_gamma 90.000000
_cell_volume 3033.233446
_symmetry_space_group_name_H-M "I M M M"
_symmetry_group_IT_number 71
_symmetry_cell_setting 'orthorhombic'
loop_
_space_group_symop_operation_xyz
x,y,z
-x,-y,z
x,-y,-z
-x,y,-z
-x,-y,-z
x,y,-z
-x,y,z
x,-y,z
1/2+x,1/2+y,1/2+z
1/2-x,1/2-y,1/2+z
1/2+x,1/2-y,1/2-z
1/2-x,1/2+y,1/2-z
1/2-x,1/2-y,1/2-z
1/2+x,1/2+y,1/2-z
1/2-x,1/2+y,1/2+z
1/2+x,1/2-y,1/2+z
loop_
_atom_site_type_symbol
_atom_site_label
_atom_site_fract_x
_atom_site_fract_y
_atom_site_fract_z
Si Si1 0.819159 0.120520 0.778457
Si Si2 0.954211 0.687631 0.711481
Si Si3 0.635934 0.119560 0.220477
Si Si4 0.412897 0.615292 0.277231
Si Si5 0.272568 0.120256 0.777016
O O1 0.865966 0.153605 0.714450
O O2 0.773347 0.159096 0.709029
O O3 0.819460 0.000000 0.740227
O O4 0.818743 0.129196 0.000000
O O5 0.954362 0.651224 0.500000
O O6 0.909660 0.652568 0.796285
O O7 0.948430 0.808000 0.712561
O O8 0.000000 0.659617 0.791554
O O9 0.681614 0.159957 0.290489
O O10 0.637717 0.000000 0.247430
O O11 0.635652 0.137276 0.000000
O O12 0.412720 0.615795 0.500000
O O13 0.418624 0.500000 0.219239
O O14 0.272264 0.000000 0.735317
O O15 0.272670 0.126424 0.000000
#
# Coordination Sequence:
#
# PCOD9522699 Si02
#       5
#    16  16  16  16  16
#     4   7  10  19  38  64  90 114 143 180 220 262
#     4  10  21  34  47  67  95 123 152 192 239 276
#     4   8  14  26  45  68  93 122 155 187 221 268
#     4   9  18  33  52  71  91 119 155 191 227 272
#     4   7   9  16  35  63  91 116 143 178 218 260
#
# _framework density 26.374495
#
# number of rings (size 3 to 8) (size 9 to 14) (size 15 to 20)
#    0.000    3.800    0.000    3.600    0.000    1.600 
#    0.000    5.000    0.000    0.600    0.000    1.400 
#    0.000    4.800    0.000    0.000    0.000    0.000 
#
# Total GULP energy -223432.940443 kJ/mol
# GULP energy per Si atom -5585.823511 kJ/mol
# Density = 2.631447 g / cm^3
# Si number density = 26.374495 Si / 1000 Ang^3
#
#
#
# Elastic Constant Matrix: (Units=GPa)
#
#
# Indices 1 2 3 4 5 6 
#
# 1 248.1560 30.4859 15.2935 0.0000 0.0000 0.0000
# 2 30.4859 53.5649 4.4961 0.0000 0.0000 0.0000
# 3 15.2935 4.4961 120.4119 0.0000 0.0000 0.0000
# 4 0.0000 0.0000 0.0000 4.8406 0.0000 0.0000
# 5 0.0000 0.0000 0.0000 0.0000 -0.9445 0.0000
# 6 0.0000 0.0000 0.0000 0.0000 0.0000 24.7568
#
#
#
# Elastic Compliance Matrix: (Units=1/GPa)
#
#
# Indices 1 2 3 4 5 6 
#
# 1 0.004358 -0.002442 -0.000462 0.000000 0.000000 0.000000
# 2 -0.002442 0.020096 -0.000440 0.000000 0.000000 0.000000
# 3 -0.000462 -0.000440 0.008380 0.000000 0.000000 0.000000
# 4 0.000000 0.000000 0.000000 0.206588 0.000000 0.000000
# 5 0.000000 0.000000 0.000000 0.000000 -1.058741 0.000000
# 6 0.000000 0.000000 0.000000 0.000000 0.000000 0.040393
#
#
# Mechanical properties :
#
#
# Convention : Reuss Voigt Hill
#
# Bulk Modulus (GPa) = 38.24787 58.07597 48.16192
# Shear Modulus (GPa) = -6.54859 30.52106 11.98623
#
# Velocity S-wave (km/s) = -1.57744 3.40548 2.13413
# Velocity P-wave (km/s) = 3.34897 6.12622 4.93691
#
# Compressibility (1/GPa) = 0.02614525
#
# Stress axis : x y z
#
# Youngs Moduli (GPa) = 229.45421 49.76236 119.33188
#
# Poissons Ratio (x) = 0.12150 0.05517
# Poissons Ratio (y) = 0.56023 0.05254
# Poissons Ratio (z) = 0.10609 0.02191
#
# Static dielectric constant tensor:
#      x y z
#    x 2.075260 0.000000 0.000000 
#    y 0.000000 2.100300 0.000000 
#    z 0.000000 0.000000 2.057850 
# 
# From -- ./inp_files/22428.got.cif
#   From: 2010.05.17/outbox.cif.g08.bks.cpg/sg71_12_cif.got.tgz:22428.got - 2010.06.03 16:22:01.
