data_PCOD9522233
_publ_section_title
;
Structure prediction by ZEFSAII (Michael W. Deem and Ramdas Pophale) SiO2 
 PCOD9522233
Probable space group: I M M M
;
_chemical_formula_sum "Si O2"
_cell_formula_units_Z 116
_cell_length_a 30.747204
_cell_length_b 24.890527
_cell_length_c 7.416179
_cell_angle_alpha 90.000000
_cell_angle_beta 90.000000
_cell_angle_gamma 90.000000
_cell_volume 5675.706441
_symmetry_space_group_name_H-M "I M M M"
_symmetry_group_IT_number 71
_symmetry_cell_setting 'orthorhombic'
loop_
_space_group_symop_operation_xyz
x,y,z
-x,-y,z
x,-y,-z
-x,y,-z
-x,-y,-z
x,y,-z
-x,y,z
x,-y,z
1/2+x,1/2+y,1/2+z
1/2-x,1/2-y,1/2+z
1/2+x,1/2-y,1/2-z
1/2-x,1/2+y,1/2-z
1/2-x,1/2-y,1/2-z
1/2+x,1/2+y,1/2-z
1/2-x,1/2+y,1/2+z
1/2+x,1/2-y,1/2+z
loop_
_atom_site_type_symbol
_atom_site_label
_atom_site_fract_x
_atom_site_fract_y
_atom_site_fract_z
Si Si1 0.049101 0.937901 0.781718
Si Si2 0.873079 0.140696 0.702059
Si Si3 0.202716 0.940739 0.787053
Si Si4 0.301266 0.938935 0.779247
Si Si5 0.582312 0.749040 0.776047
Si Si6 0.873529 0.358808 0.294511
Si Si7 0.500000 0.749243 0.500000
Si Si8 0.549375 0.061759 0.281877
O O1 0.085681 0.899175 0.709196
O O2 0.000000 0.922218 0.729175
O O3 0.055932 0.000000 0.729531
O O4 0.051136 0.935798 0.000000
O O5 0.861299 0.154937 0.500000
O O6 0.832420 0.105800 0.766577
O O7 0.890168 0.196398 0.780688
O O8 0.251498 0.929683 0.719304
O O9 0.188087 0.000000 0.718281
O O10 0.207921 0.946352 0.000000
O O11 0.334318 0.893558 0.712544
O O12 0.313821 0.000000 0.726459
O O13 0.302718 0.938329 0.000000
O O14 0.609707 0.802066 0.724441
O O15 0.538207 0.749173 0.660164
O O16 0.575438 0.748636 0.000000
O O17 0.860408 0.347699 0.500000
O O18 0.915024 0.398218 0.291334
O O19 0.550979 0.064024 0.500000
O O20 0.500000 0.075944 0.228642
O O21 0.557577 0.000000 0.228557
#
# Coordination Sequence:
#
# PCOD9522233 Si02
#       8
#    16  16  16  16  16  16   4  16
#     4   9  19  34  53  78 106 139 185 234 282 349
#     4  11  23  37  53  78 118 151 187 248 299 356
#     4   9  18  34  59  88 115 147 197 248 292 364
#     4   8  15  31  58  89 115 149 195 242 301 364
#     4  10  26  43  60  93 122 155 213 258 301 352
#     4  10  20  36  57  80 115 150 190 251 298 353
#     4  12  26  44  72  82 114 180 206 260 300 364
#     4   9  19  33  49  74 109 145 185 234 287 350
#
# _framework density 20.437982999999999
#
# number of rings (size 3 to 8) (size 9 to 14) (size 15 to 20)
#    0.000    2.483    0.000    3.103    4.828    3.586 
#    0.000    2.759    0.000    0.828    0.000    0.000 
#    0.000    0.000    0.000    0.000    0.000    0.000 
#
# Total GULP energy -322912.176846 kJ/mol
# GULP energy per Si atom -5567.451325 kJ/mol
# Density = 2.039147 g / cm^3
# Si number density = 20.437983 Si / 1000 Ang^3
#
#
#
# Elastic Constant Matrix: (Units=GPa)
#
#
# Indices 1 2 3 4 5 6 
#
# 1 145.7058 121.0864 18.0025 0.0000 0.0000 0.0000
# 2 121.0864 145.4445 17.9017 0.0000 0.0000 0.0000
# 3 18.0025 17.9017 81.5199 0.0000 0.0000 0.0000
# 4 0.0000 0.0000 0.0000 10.9582 0.0000 0.0000
# 5 0.0000 0.0000 0.0000 0.0000 70.8188 0.0000
# 6 0.0000 0.0000 0.0000 0.0000 0.0000 -83.6415
#
#
#
# Elastic Compliance Matrix: (Units=1/GPa)
#
#
# Indices 1 2 3 4 5 6 
#
# 1 0.022333 -0.018485 -0.000873 0.000000 0.000000 0.000000
# 2 -0.018485 0.022367 -0.000830 0.000000 0.000000 0.000000
# 3 -0.000873 -0.000830 0.012642 0.000000 0.000000 0.000000
# 4 0.000000 0.000000 0.000000 0.091256 0.000000 0.000000
# 5 0.000000 0.000000 0.000000 0.000000 0.014121 0.000000
# 6 0.000000 0.000000 0.000000 0.000000 0.000000 -0.011956
#
#
# Mechanical properties :
#
#
# Convention : Reuss Voigt Hill
#
# Bulk Modulus (GPa) = 58.93824 76.29461 67.61643
# Shear Modulus (GPa) = 25.40742 14.00573 19.70658
#
# Velocity S-wave (km/s) = 3.52965 2.62062 3.10855
# Velocity P-wave (km/s) = 6.74622 6.82406 6.78525
#
# Compressibility (1/GPa) = 0.01696691
#
# Stress axis : x y z
#
# Youngs Moduli (GPa) = 44.77710 44.70857 79.10261
#
# Poissons Ratio (x) = 0.82645 0.06902
# Poissons Ratio (y) = 0.82772 0.06562
# Poissons Ratio (z) = 0.03907 0.03709
#
# Static dielectric constant tensor:
#      x y z
#    x 1.711850 0.000000 0.000000 
#    y 0.000000 1.736520 0.000000 
#    z 0.000000 0.000000 1.802610 
# 
# From -- ./inp_files/17340.got.cif
#   From: 2010.05.17/outbox.cif.g08.bks.cpg/sg71_9_cif.got.tgz:17340.got - 2010.06.03 16:22:01.
