data_PCOD9522040
_publ_section_title
;
Structure prediction by ZEFSAII (Michael W. Deem and Ramdas Pophale) SiO2 
 PCOD9522040
Probable space group: I M M M
;
_chemical_formula_sum "Si O2"
_cell_formula_units_Z 96
_cell_length_a 27.078748
_cell_length_b 14.143282
_cell_length_c 13.913701
_cell_angle_alpha 90.000000
_cell_angle_beta 90.000000
_cell_angle_gamma 90.000000
_cell_volume 5328.702173
_symmetry_space_group_name_H-M "I M M M"
_symmetry_group_IT_number 71
_symmetry_cell_setting 'orthorhombic'
loop_
_space_group_symop_operation_xyz
x,y,z
-x,-y,z
x,-y,-z
-x,y,-z
-x,-y,-z
x,y,-z
-x,y,z
x,-y,z
1/2+x,1/2+y,1/2+z
1/2-x,1/2-y,1/2+z
1/2+x,1/2-y,1/2-z
1/2-x,1/2+y,1/2-z
1/2-x,1/2-y,1/2-z
1/2+x,1/2+y,1/2-z
1/2-x,1/2+y,1/2+z
1/2+x,1/2-y,1/2+z
loop_
_atom_site_type_symbol
_atom_site_label
_atom_site_fract_x
_atom_site_fract_y
_atom_site_fract_z
Si Si1 0.282676 0.607164 0.500000
Si Si2 0.559130 0.705566 0.108184
Si Si3 0.441832 0.108778 0.220728
Si Si4 0.207436 0.226209 0.823022
Si Si5 0.903191 0.892204 0.000000
Si Si6 0.609274 0.386659 0.289502
Si Si7 0.136011 0.389015 0.109990
O O1 0.265639 0.500000 0.500000
O O2 0.268311 0.664766 0.593004
O O3 0.343060 0.606530 0.500000
O O4 0.500000 0.695464 0.106403
O O5 0.570189 0.813558 0.140234
O O6 0.579515 0.641821 0.194820
O O7 0.577611 0.685355 0.000000
O O8 0.500000 0.118958 0.244684
O O9 0.407730 0.126458 0.313496
O O10 0.433987 0.000000 0.189785
O O11 0.250000 0.250000 0.750000
O O12 0.162588 0.162824 0.782076
O O13 0.180832 0.319673 0.864282
O O14 0.914396 0.853208 0.107173
O O15 0.922147 0.000000 0.000000
O O16 0.614523 0.500000 0.296728
O O17 0.149807 0.500000 0.116006
O O18 0.120446 0.369479 0.000000
#
# Coordination Sequence:
#
# PCOD9522040 Si02
#       7
#     8  16  16  16   8  16  16
#     4   9  18  36  59  80 103 142 187 229 283 346
#     4  10  21  37  57  81 113 154 196 235 278 335
#     4   9  18  34  57  85 114 145 184 231 283 341
#     4  11  21  36  58  83 111 145 190 239 284 334
#     4   7  14  30  57  81 100 131 175 221 271 329
#     4  10  20  37  59  84 111 145 188 236 287 342
#     4  10  20  35  57  85 116 148 180 225 291 355
#
# _framework density 18.015644000000002
#
# number of rings (size 3 to 8) (size 9 to 14) (size 15 to 20)
#    0.000    2.333    2.500    1.500    0.000    2.667 
#    1.500    4.583    0.000    1.500    0.000    0.000 
#    0.000    0.667    0.000    0.000    0.000    0.000 
#
# Total GULP energy -267462.847357 kJ/mol
# GULP energy per Si atom -5572.142653 kJ/mol
# Density = 1.797464 g / cm^3
# Si number density = 18.015644 Si / 1000 Ang^3
#
#
#
# Elastic Constant Matrix: (Units=GPa)
#
#
# Indices 1 2 3 4 5 6 
#
# 1 25.4948 25.5076 45.1557 0.0000 0.0000 0.0000
# 2 25.5076 88.0130 56.8472 0.0000 0.0000 0.0000
# 3 45.1557 56.8472 163.4414 0.0000 0.0000 0.0000
# 4 0.0000 0.0000 0.0000 22.0163 0.0000 0.0000
# 5 0.0000 0.0000 0.0000 0.0000 26.7288 0.0000
# 6 0.0000 0.0000 0.0000 0.0000 0.0000 12.4946
#
#
#
# Elastic Compliance Matrix: (Units=1/GPa)
#
#
# Indices 1 2 3 4 5 6 
#
# 1 0.086123 -0.012370 -0.019492 0.000000 0.000000 0.000000
# 2 -0.012370 0.016431 -0.002297 0.000000 0.000000 0.000000
# 3 -0.019492 -0.002297 0.012303 0.000000 0.000000 0.000000
# 4 0.000000 0.000000 0.000000 0.045421 0.000000 0.000000
# 5 0.000000 0.000000 0.000000 0.000000 0.037413 0.000000
# 6 0.000000 0.000000 0.000000 0.000000 0.000000 0.080035
#
#
# Mechanical properties :
#
#
# Convention : Reuss Voigt Hill
#
# Bulk Modulus (GPa) = 21.48764 59.10781 40.29773
# Shear Modulus (GPa) = 13.82910 22.21051 18.01981
#
# Velocity S-wave (km/s) = 2.77359 3.51500 3.16607
# Velocity P-wave (km/s) = 4.71277 7.02524 5.98182
#
# Compressibility (1/GPa) = 0.04653837
#
# Stress axis : x y z
#
# Youngs Moduli (GPa) = 11.61126 60.86123 81.28393
#
# Poissons Ratio (x) = 0.75287 1.58436
# Poissons Ratio (y) = 0.14364 0.18672
# Poissons Ratio (z) = 0.22632 0.13981
#
# Static dielectric constant tensor:
#      x y z
#    x 1.583000 0.000000 0.000000 
#    y 0.000000 1.655450 0.000000 
#    z 0.000000 0.000000 1.687070 
# 
# From -- ./inp_files/29981.got.cif
#   From: 2010.05.17/outbox.cif.g08.bks.cpg/sg71_15_cif.got.tgz:29981.got - 2010.06.03 16:22:01.
