data_PCOD9522219
_publ_section_title
;
Structure prediction by ZEFSAII (Michael W. Deem and Ramdas Pophale) SiO2 
 PCOD9522219
Probable space group: I M M M
;
_chemical_formula_sum "Si O2"
_cell_formula_units_Z 72
_cell_length_a 7.749406
_cell_length_b 18.345592
_cell_length_c 23.017582
_cell_angle_alpha 90.000000
_cell_angle_beta 90.000000
_cell_angle_gamma 90.000000
_cell_volume 3272.350724
_symmetry_space_group_name_H-M "I M M M"
_symmetry_group_IT_number 71
_symmetry_cell_setting 'orthorhombic'
loop_
_space_group_symop_operation_xyz
x,y,z
-x,-y,z
x,-y,-z
-x,y,-z
-x,-y,-z
x,y,-z
-x,y,z
x,-y,z
1/2+x,1/2+y,1/2+z
1/2-x,1/2-y,1/2+z
1/2+x,1/2-y,1/2-z
1/2-x,1/2+y,1/2-z
1/2-x,1/2-y,1/2-z
1/2+x,1/2+y,1/2-z
1/2-x,1/2+y,1/2+z
1/2+x,1/2-y,1/2+z
loop_
_atom_site_type_symbol
_atom_site_label
_atom_site_fract_x
_atom_site_fract_y
_atom_site_fract_z
Si Si1 0.211039 0.915083 0.000000
Si Si2 0.288000 0.650204 0.377185
Si Si3 0.695963 0.805876 0.335025
Si Si4 0.708317 0.416381 0.932803
Si Si5 0.794378 0.078921 0.239279
O O1 0.268115 0.874811 0.058986
O O2 0.000000 0.914375 0.000000
O O3 0.262878 0.000000 0.000000
O O4 0.500000 0.651470 0.379187
O O5 0.224885 0.729653 0.356057
O O6 0.234537 0.595431 0.325996
O O7 0.500000 0.788426 0.319685
O O8 0.707397 0.860189 0.389464
O O9 0.763129 0.852613 0.281051
O O10 0.500000 0.411539 0.926463
O O11 0.756642 0.500000 0.919916
O O12 0.750470 0.401599 0.000000
O O13 0.000000 0.073239 0.236752
O O14 0.727037 0.000000 0.260478
#
# Coordination Sequence:
#
# PCOD9522219 Si02
#       5
#     8  16  16  16  16
#     4   9  16  30  54  80 106 137 176 222 269 317
#     4   9  19  33  51  79 111 140 174 221 274 322
#     4  11  22  33  51  80 114 144 172 215 274 330
#     4   9  19  36  55  74 101 141 187 228 263 309
#     4  10  20  36  57  78 104 142 187 228 264 312
#
# _framework density 22.002531999999999
#
# number of rings (size 3 to 8) (size 9 to 14) (size 15 to 20)
#    0.000    2.333    0.000    3.333    1.556    6.667 
#    0.000    2.222    0.000    0.000    0.000    0.000 
#    0.000    6.222    0.000    0.000    0.000    0.000 
#
# Total GULP energy -201004.149741 kJ/mol
# GULP energy per Si atom -5583.448604 kJ/mol
# Density = 2.195245 g / cm^3
# Si number density = 22.002532 Si / 1000 Ang^3
#
#
#
# Elastic Constant Matrix: (Units=GPa)
#
#
# Indices 1 2 3 4 5 6 
#
# 1 24.1955 10.6418 11.1207 0.0000 0.0000 0.0000
# 2 10.6418 133.9763 95.7441 0.0000 0.0000 0.0000
# 3 11.1207 95.7441 141.4215 0.0000 0.0000 0.0000
# 4 0.0000 0.0000 0.0000 28.0073 0.0000 0.0000
# 5 0.0000 0.0000 0.0000 0.0000 210.0948 0.0000
# 6 0.0000 0.0000 0.0000 0.0000 0.0000 7.5980
#
#
#
# Elastic Compliance Matrix: (Units=1/GPa)
#
#
# Indices 1 2 3 4 5 6 
#
# 1 0.043139 -0.001942 -0.002078 0.000000 0.000000 0.000000
# 2 -0.001942 0.014547 -0.009696 0.000000 0.000000 0.000000
# 3 -0.002078 -0.009696 0.013799 0.000000 0.000000 0.000000
# 4 0.000000 0.000000 0.000000 0.035705 0.000000 0.000000
# 5 0.000000 0.000000 0.000000 0.000000 0.004760 0.000000
# 6 0.000000 0.000000 0.000000 0.000000 0.000000 0.131613
#
#
# Mechanical properties :
#
#
# Convention : Reuss Voigt Hill
#
# Bulk Modulus (GPa) = 22.69930 59.40072 41.05001
# Shear Modulus (GPa) = 17.50219 61.27914 39.39066
#
# Velocity S-wave (km/s) = 2.82345 5.28313 4.23576
# Velocity P-wave (km/s) = 4.57911 8.01692 6.52837
#
# Compressibility (1/GPa) = 0.04405422
#
# Stress axis : x y z
#
# Youngs Moduli (GPa) = 23.18087 68.74080 72.47004
#
# Poissons Ratio (x) = 0.13348 0.15057
# Poissons Ratio (y) = 0.04501 0.70268
# Poissons Ratio (z) = 0.04816 0.66652
#
# Static dielectric constant tensor:
#      x y z
#    x 1.838280 0.000000 0.000000 
#    y 0.000000 1.826570 0.000000 
#    z 0.000000 0.000000 1.777020 
# 
# From -- ./inp_files/7961.got.cif
#   From: 2010.05.17/outbox.cif.g08.bks.cpg/sg71_4_cif.got.tgz:7961.got - 2010.06.03 16:22:01.
