data_PCOD9522547
_publ_section_title
;
Structure prediction by ZEFSAII (Michael W. Deem and Ramdas Pophale) SiO2 
 PCOD9522547
Probable space group: I M M M
;
_chemical_formula_sum "Si O2"
_cell_formula_units_Z 56
_cell_length_a 14.602723
_cell_length_b 14.305371
_cell_length_c 13.143191
_cell_angle_alpha 90.000000
_cell_angle_beta 90.000000
_cell_angle_gamma 90.000000
_cell_volume 2745.578035
_symmetry_space_group_name_H-M "I M M M"
_symmetry_group_IT_number 71
_symmetry_cell_setting 'orthorhombic'
loop_
_space_group_symop_operation_xyz
x,y,z
-x,-y,z
x,-y,-z
-x,y,-z
-x,-y,-z
x,y,-z
-x,y,z
x,-y,z
1/2+x,1/2+y,1/2+z
1/2-x,1/2-y,1/2+z
1/2+x,1/2-y,1/2-z
1/2-x,1/2+y,1/2-z
1/2-x,1/2-y,1/2-z
1/2+x,1/2+y,1/2-z
1/2-x,1/2+y,1/2+z
1/2+x,1/2-y,1/2+z
loop_
_atom_site_type_symbol
_atom_site_label
_atom_site_fract_x
_atom_site_fract_y
_atom_site_fract_z
Si Si1 0.852823 0.893015 0.610198
Si Si2 0.814865 0.658973 0.771722
Si Si3 0.500000 0.215504 0.616025
Si Si4 0.500000 0.388853 0.272806
Si Si5 0.611659 0.000000 0.122805
O O1 0.865589 0.846372 0.500000
O O2 0.748879 0.892556 0.645838
O O3 0.914985 0.858361 0.702167
O O4 0.883228 0.000000 0.600389
O O5 0.750000 0.750000 0.750000
O O6 0.909916 0.682011 0.825784
O O7 0.840515 0.590819 0.676823
O O8 0.500000 0.185186 0.500000
O O9 0.500000 0.328191 0.626397
O O10 0.500000 0.500000 0.291047
O O11 0.500000 0.000000 0.141097
O O12 0.624848 0.000000 0.000000
#
# Coordination Sequence:
#
# PCOD9522547 Si02
#       5
#    16  16   8   8   8
#     4  10  20  37  64  93 125 169 216 272 339 406
#     4  12  24  45  69 101 141 178 234 296 354 434
#     4  12  26  43  64  97 137 181 231 291 363 429
#     4  10  21  41  61  91 135 175 227 290 342 422
#     4  11  26  50  78 103 138 193 249 302 362 423
#
# _framework density 20.396433999999999
#
# number of rings (size 3 to 8) (size 9 to 14) (size 15 to 20)
#    0.000    1.000    5.714    1.286    0.000    4.286 
#    0.000    0.714    0.000    0.000    0.000    0.000 
#    0.000    0.000    0.000    0.000    0.000    0.000 
#
# Total GULP energy -155960.066669 kJ/mol
# GULP energy per Si atom -5570.002381 kJ/mol
# Density = 2.035001 g / cm^3
# Si number density = 20.396434 Si / 1000 Ang^3
#
#
#
# Elastic Constant Matrix: (Units=GPa)
#
#
# Indices 1 2 3 4 5 6 
#
# 1 146.4951 42.4088 33.4684 0.0000 0.0000 0.0000
# 2 42.4088 82.4468 51.8334 0.0000 0.0000 0.0000
# 3 33.4684 51.8334 109.4086 0.0000 0.0000 0.0000
# 4 0.0000 0.0000 0.0000 22.4485 0.0000 0.0000
# 5 0.0000 0.0000 0.0000 0.0000 -29.9105 0.0000
# 6 0.0000 0.0000 0.0000 0.0000 0.0000 29.5461
#
#
#
# Elastic Compliance Matrix: (Units=1/GPa)
#
#
# Indices 1 2 3 4 5 6 
#
# 1 0.008059 -0.003697 -0.000714 0.000000 0.000000 0.000000
# 2 -0.003697 0.018970 -0.007856 0.000000 0.000000 0.000000
# 3 -0.000714 -0.007856 0.013080 0.000000 0.000000 0.000000
# 4 0.000000 0.000000 0.000000 0.044546 0.000000 0.000000
# 5 0.000000 0.000000 0.000000 0.000000 -0.033433 0.000000
# 6 0.000000 0.000000 0.000000 0.000000 0.000000 0.033845
#
#
# Mechanical properties :
#
#
# Convention : Reuss Voigt Hill
#
# Bulk Modulus (GPa) = 64.20302 65.97464 65.08883
# Shear Modulus (GPa) = 43.55632 18.45950 31.00791
#
# Velocity S-wave (km/s) = 4.62615 3.01164 3.90328
# Velocity P-wave (km/s) = 7.75119 6.67156 7.23155
#
# Compressibility (1/GPa) = 0.01557559
#
# Stress axis : x y z
#
# Youngs Moduli (GPa) = 124.07783 52.71586 76.45001
#
# Poissons Ratio (x) = 0.19487 0.05459
# Poissons Ratio (y) = 0.45868 0.60061
# Poissons Ratio (z) = 0.08860 0.41415
#
# Static dielectric constant tensor:
#      x y z
#    x 1.740380 0.000000 0.000000 
#    y 0.000000 1.857540 0.000000 
#    z 0.000000 0.000000 1.745540 
# 
# From -- ./inp_files/20864.got.cif
#   From: 2010.05.17/outbox.cif.g08.bks.cpg/sg71_11_cif.got.tgz:20864.got - 2010.06.03 16:22:01.
