data_PCOD9522304
_publ_section_title
;
Structure prediction by ZEFSAII (Michael W. Deem and Ramdas Pophale) SiO2 
 PCOD9522304
Probable space group: I M M M
;
_chemical_formula_sum "Si O2"
_cell_formula_units_Z 104
_cell_length_a 22.347252
_cell_length_b 28.648075
_cell_length_c 7.903893
_cell_angle_alpha 90.000000
_cell_angle_beta 90.000000
_cell_angle_gamma 90.000000
_cell_volume 5060.117757
_symmetry_space_group_name_H-M "I M M M"
_symmetry_group_IT_number 71
_symmetry_cell_setting 'orthorhombic'
loop_
_space_group_symop_operation_xyz
x,y,z
-x,-y,z
x,-y,-z
-x,y,-z
-x,-y,-z
x,y,-z
-x,y,z
x,-y,z
1/2+x,1/2+y,1/2+z
1/2-x,1/2-y,1/2+z
1/2+x,1/2-y,1/2-z
1/2-x,1/2+y,1/2-z
1/2-x,1/2-y,1/2-z
1/2+x,1/2+y,1/2-z
1/2-x,1/2+y,1/2+z
1/2+x,1/2-y,1/2+z
loop_
_atom_site_type_symbol
_atom_site_label
_atom_site_fract_x
_atom_site_fract_y
_atom_site_fract_z
Si Si1 0.000000 0.445180 0.808269
Si Si2 0.404318 0.793168 0.804949
Si Si3 0.324856 0.622344 0.191639
Si Si4 0.737687 0.801789 0.807375
Si Si5 0.390052 0.109442 0.800513
Si Si6 0.225750 0.553491 0.701652
Si Si7 0.068968 0.188110 0.293410
O O1 0.059645 0.429034 0.716869
O O2 0.000000 0.500000 0.816136
O O3 0.000000 0.426724 0.000000
O O4 0.333399 0.802972 0.803180
O O5 0.421377 0.843174 0.727625
O O6 0.417165 0.741507 0.733632
O O7 0.426493 0.790598 0.000000
O O8 0.274249 0.662614 0.194847
O O9 0.289926 0.578498 0.271021
O O10 0.383146 0.649207 0.266336
O O11 0.340017 0.609153 0.000000
O O12 0.750000 0.750000 0.750000
O O13 0.757250 0.810714 0.000000
O O14 0.327825 0.087386 0.731428
O O15 0.379683 0.118998 0.000000
O O16 0.216336 0.551106 0.500000
O O17 0.223328 0.500000 0.767038
O O18 0.075118 0.189166 0.500000
O O19 0.000000 0.177292 0.252734
#
# Coordination Sequence:
#
# PCOD9522304 Si02
#       7
#     8  16  16  16  16  16  16
#     4  11  25  41  53  71 107 151 189 233 286 325
#     4   9  17  30  51  79 108 137 177 221 262 314
#     4  11  21  34  55  84 113 146 185 229 287 339
#     4  11  19  32  52  79 112 145 182 221 267 322
#     4  10  20  36  59  83 105 140 191 233 268 325
#     4  10  21  38  60  84 110 142 182 234 291 341
#     4   9  18  32  52  79 112 149 187 223 263 325
#
# _framework density 20.552880999999999
#
# number of rings (size 3 to 8) (size 9 to 14) (size 15 to 20)
#    0.000    1.923    3.077    1.615    1.077    2.154 
#    0.000    0.000    0.000    2.308    0.000    3.231 
#    0.000    0.000    0.000    0.000    0.000    0.000 
#
# Total GULP energy -289619.253407 kJ/mol
# GULP energy per Si atom -5569.601027 kJ/mol
# Density = 2.050610 g / cm^3
# Si number density = 20.552881 Si / 1000 Ang^3
#
#
#
# Elastic Constant Matrix: (Units=GPa)
#
#
# Indices 1 2 3 4 5 6 
#
# 1 127.4930 50.7898 4.7241 0.0000 0.0000 0.0000
# 2 50.7898 102.3881 0.3580 0.0000 0.0000 0.0000
# 3 4.7241 0.3580 19.1065 0.0000 0.0000 0.0000
# 4 0.0000 0.0000 0.0000 17.5159 0.0000 0.0000
# 5 0.0000 0.0000 0.0000 0.0000 11.2734 0.0000
# 6 0.0000 0.0000 0.0000 0.0000 0.0000 22.9530
#
#
#
# Elastic Compliance Matrix: (Units=1/GPa)
#
#
# Indices 1 2 3 4 5 6 
#
# 1 0.009880 -0.004893 -0.002351 0.000000 0.000000 0.000000
# 2 -0.004893 0.012190 0.000981 0.000000 0.000000 0.000000
# 3 -0.002351 0.000981 0.052901 0.000000 0.000000 0.000000
# 4 0.000000 0.000000 0.000000 0.057091 0.000000 0.000000
# 5 0.000000 0.000000 0.000000 0.000000 0.088704 0.000000
# 6 0.000000 0.000000 0.000000 0.000000 0.000000 0.043567
#
#
# Mechanical properties :
#
#
# Convention : Reuss Voigt Hill
#
# Bulk Modulus (GPa) = 16.01372 40.08123 28.04747
# Shear Modulus (GPa) = 16.79690 23.22286 20.00988
#
# Velocity S-wave (km/s) = 2.86186 3.36506 3.12361
# Velocity P-wave (km/s) = 4.32767 5.88574 5.16579
#
# Compressibility (1/GPa) = 0.06244646
#
# Stress axis : x y z
#
# Youngs Moduli (GPa) = 101.21666 82.03211 18.90315
#
# Poissons Ratio (x) = 0.40136 0.04444
# Poissons Ratio (y) = 0.49522 -0.01855
# Poissons Ratio (z) = 0.23797 -0.08050
#
# Static dielectric constant tensor:
#      x y z
#    x 1.719690 0.000000 0.000000 
#    y 0.000000 2.084780 0.000000 
#    z 0.000000 0.000000 1.780180 
# 
# From -- ./inp_files/13339.got.cif
#   From: 2010.05.17/outbox.cif.g08.bks.cpg/sg71_7_cif.got.tgz:13339.got - 2010.06.03 16:22:01.
