data_PCOD9522509
_publ_section_title
;
Structure prediction by ZEFSAII (Michael W. Deem and Ramdas Pophale) SiO2 
 PCOD9522509
Probable space group: I M M M
;
_chemical_formula_sum "Si O2"
_cell_formula_units_Z 64
_cell_length_a 8.569591
_cell_length_b 24.549602
_cell_length_c 15.924373
_cell_angle_alpha 90.000000
_cell_angle_beta 90.000000
_cell_angle_gamma 90.000000
_cell_volume 3350.170362
_symmetry_space_group_name_H-M "I M M M"
_symmetry_group_IT_number 71
_symmetry_cell_setting 'orthorhombic'
loop_
_space_group_symop_operation_xyz
x,y,z
-x,-y,z
x,-y,-z
-x,y,-z
-x,-y,-z
x,y,-z
-x,y,z
x,-y,z
1/2+x,1/2+y,1/2+z
1/2-x,1/2-y,1/2+z
1/2+x,1/2-y,1/2-z
1/2-x,1/2+y,1/2-z
1/2-x,1/2-y,1/2-z
1/2+x,1/2+y,1/2-z
1/2-x,1/2+y,1/2+z
1/2+x,1/2-y,1/2+z
loop_
_atom_site_type_symbol
_atom_site_label
_atom_site_fract_x
_atom_site_fract_y
_atom_site_fract_z
Si Si1 0.809540 0.500000 0.674867
Si Si2 0.810405 0.500000 0.866821
Si Si3 0.314393 0.725452 0.663704
Si Si4 0.188709 0.614947 0.402645
Si Si5 0.689138 0.909620 0.500000
Si Si6 0.685689 0.287569 0.000000
O O1 0.756154 0.500000 0.771364
O O2 0.761820 0.555329 0.628668
O O3 0.000000 0.500000 0.674902
O O4 0.765471 0.446433 0.919559
O O5 0.000000 0.500000 0.866000
O O6 0.500000 0.728474 0.663938
O O7 0.250000 0.750000 0.750000
O O8 0.259600 0.663294 0.651873
O O9 0.250889 0.758468 0.583278
O O10 0.232311 0.622773 0.500000
O O11 0.000000 0.617947 0.397313
O O12 0.500000 0.904146 0.500000
O O13 0.764020 0.850576 0.500000
O O14 0.500000 0.282279 0.000000
#
# Coordination Sequence:
#
# PCOD9522509 Si02
#       6
#     8   8  16  16   8   8
#     4   9  18  32  57  90 120 161 207 251 303 367
#     4   8  16  32  54  86 122 159 205 251 300 368
#     4  12  26  44  66  93 127 168 212 262 319 377
#     4  10  20  37  61  90 126 163 206 256 308 371
#     4   9  18  34  58  86 121 163 205 250 305 367
#     4  12  25  43  65  95 129 166 211 260 316 380
#
# _framework density 19.103505999999999
#
# number of rings (size 3 to 8) (size 9 to 14) (size 15 to 20)
#    0.000    1.750    1.250    4.500    3.500    1.500 
#    0.000    1.875    0.000    3.000    0.000    0.000 
#    0.000    0.000    0.000    0.000    0.000    0.000 
#
# Total GULP energy -178829.921660 kJ/mol
# GULP energy per Si atom -5588.435052 kJ/mol
# Density = 1.906003 g / cm^3
# Si number density = 19.103506 Si / 1000 Ang^3
#
#
#
# Elastic Constant Matrix: (Units=GPa)
#
#
# Indices 1 2 3 4 5 6 
#
# 1 71.8440 52.8000 50.2037 0.0000 0.0000 0.0000
# 2 52.8000 186.5825 86.2466 0.0000 0.0000 0.0000
# 3 50.2037 86.2466 153.5094 0.0002 0.0000 0.0000
# 4 0.0000 0.0000 0.0002 9.8493 0.0000 0.0000
# 5 0.0000 0.0000 0.0000 0.0000 21.4493 0.0000
# 6 0.0000 0.0000 0.0000 0.0000 0.0000 24.7119
#
#
#
# Elastic Compliance Matrix: (Units=1/GPa)
#
#
# Indices 1 2 3 4 5 6 
#
# 1 0.019590 -0.003488 -0.004447 0.000000 0.000000 0.000000
# 2 -0.003488 0.007861 -0.003276 0.000000 0.000000 0.000000
# 3 -0.004447 -0.003276 0.009809 0.000000 0.000000 0.000000
# 4 0.000000 0.000000 0.000000 0.101530 0.000000 0.000000
# 5 0.000000 0.000000 0.000000 0.000000 0.046622 0.000000
# 6 0.000000 0.000000 0.000000 0.000000 0.000000 0.040466
#
#
# Mechanical properties :
#
#
# Convention : Reuss Voigt Hill
#
# Bulk Modulus (GPa) = 67.39341 87.82628 77.60985
# Shear Modulus (GPa) = 19.74370 26.04782 22.89576
#
# Velocity S-wave (km/s) = 3.21832 3.69658 3.46571
# Velocity P-wave (km/s) = 7.01175 8.01831 7.53187
#
# Compressibility (1/GPa) = 0.01483825
#
# Stress axis : x y z
#
# Youngs Moduli (GPa) = 51.04640 127.21323 101.94700
#
# Poissons Ratio (x) = 0.44373 0.45336
# Poissons Ratio (y) = 0.17805 0.33395
# Poissons Ratio (z) = 0.22700 0.41672
#
# Static dielectric constant tensor:
#      x y z
#    x 1.653470 0.000000 0.000000 
#    y 0.000000 1.641260 0.000000 
#    z 0.000000 0.000000 1.617410 
# 
# From -- ./inp_files/12044.got.cif
#   From: 2010.05.17/outbox.cif.g08.bks.cpg/sg71_7_cif.got.tgz:12044.got - 2010.06.03 16:22:01.
