data_PCOD9522515
_publ_section_title
;
Structure prediction by ZEFSAII (Michael W. Deem and Ramdas Pophale) SiO2 
 PCOD9522515
Probable space group: I M M M
;
_chemical_formula_sum "Si O2"
_cell_formula_units_Z 82
_cell_length_a 12.387005
_cell_length_b 20.374225
_cell_length_c 18.349661
_cell_angle_alpha 90.000000
_cell_angle_beta 90.000000
_cell_angle_gamma 90.000000
_cell_volume 4631.007199
_symmetry_space_group_name_H-M "I M M M"
_symmetry_group_IT_number 71
_symmetry_cell_setting 'orthorhombic'
loop_
_space_group_symop_operation_xyz
x,y,z
-x,-y,z
x,-y,-z
-x,y,-z
-x,-y,-z
x,y,-z
-x,y,z
x,-y,z
1/2+x,1/2+y,1/2+z
1/2-x,1/2-y,1/2+z
1/2+x,1/2-y,1/2-z
1/2-x,1/2+y,1/2-z
1/2-x,1/2-y,1/2-z
1/2+x,1/2+y,1/2-z
1/2-x,1/2+y,1/2+z
1/2+x,1/2-y,1/2+z
loop_
_atom_site_type_symbol
_atom_site_label
_atom_site_fract_x
_atom_site_fract_y
_atom_site_fract_z
Si Si1 0.625400 0.176105 0.244983
Si Si2 0.268123 0.576629 0.837918
Si Si3 0.000000 0.925224 0.704582
Si Si4 0.000000 0.000000 0.000000
Si Si5 0.183565 0.427214 0.000000
Si Si6 0.876259 0.281814 0.000000
Si Si7 0.000000 0.892867 0.129036
Si Si8 0.313850 0.287815 0.643556
O O1 0.500000 0.162580 0.230458
O O2 0.680455 0.119279 0.294337
O O3 0.635834 0.242434 0.292828
O O4 0.699429 0.187116 0.173819
O O5 0.263366 0.500000 0.813702
O O6 0.386999 0.604924 0.820858
O O7 0.249124 0.576578 0.924471
O O8 0.000000 0.925604 0.791489
O O9 0.000000 0.000000 0.675536
O O10 0.000000 0.056749 0.936231
O O11 0.130713 0.500000 0.000000
O O12 0.116643 0.360427 0.000000
O O13 0.814500 0.256449 0.071292
O O14 0.000000 0.256172 0.000000
O O15 0.106052 0.847449 0.127244
#
# Coordination Sequence:
#
# PCOD9522515 Si02
#       8
#    16  16   8   2   8   8   8  16
#     4  11  22  39  61  89 121 163 203 246 303 372
#     4  10  21  37  60  88 120 161 202 251 292 357
#     4  10  20  37  62  86 120 156 203 252 303 345
#     4  12  28  36  68 100 126 150 210 268 332 374
#     4  10  22  37  53  84 125 156 197 239 296 354
#     4  12  21  37  60  86 115 155 198 245 305 357
#     4  12  20  40  59  94 122 153 191 265 315 361
#     4  11  23  38  61  89 122 154 200 252 309 366
#
# _framework density 17.706731000000001
#
# number of rings (size 3 to 8) (size 9 to 14) (size 15 to 20)
#    0.000    1.171    6.341    0.585    0.000    0.976 
#    0.000    4.390    2.146    0.000    0.000    0.683 
#    0.000    0.000    0.000    0.000    0.000    0.000 
#
# Total GULP energy -228452.530595 kJ/mol
# GULP energy per Si atom -5572.012941 kJ/mol
# Density = 1.766643 g / cm^3
# Si number density = 17.706731 Si / 1000 Ang^3
#
#
#
# Elastic Constant Matrix: (Units=GPa)
#
#
# Indices 1 2 3 4 5 6 
#
# 1 158.5925 55.3800 64.8875 0.0000 0.0000 0.0000
# 2 55.3800 101.8984 42.5167 0.0000 0.0000 0.0000
# 3 64.8875 42.5167 120.6054 0.0000 0.0000 0.0000
# 4 0.0000 0.0000 0.0000 14.4704 0.0000 0.0000
# 5 0.0000 0.0000 0.0000 0.0000 -7.3891 0.0000
# 6 0.0000 0.0000 0.0000 0.0000 0.0000 -0.7237
#
#
#
# Elastic Compliance Matrix: (Units=1/GPa)
#
#
# Indices 1 2 3 4 5 6 
#
# 1 0.008967 -0.003354 -0.003642 0.000000 0.000000 0.000000
# 2 -0.003354 0.012760 -0.002694 0.000000 0.000000 0.000000
# 3 -0.003642 -0.002694 0.011201 0.000000 0.000000 0.000000
# 4 0.000000 0.000000 0.000000 0.069106 0.000000 0.000000
# 5 0.000000 0.000000 0.000000 0.000000 -0.135334 0.000000
# 6 0.000000 0.000000 0.000000 0.000000 0.000000 -1.381865
#
#
# Mechanical properties :
#
#
# Convention : Reuss Voigt Hill
#
# Bulk Modulus (GPa) = 73.80944 78.51830 76.16387
# Shear Modulus (GPa) = -3.59384 15.82568 6.11592
#
# Velocity S-wave (km/s) = -1.42620 2.99284 1.86051
# Velocity P-wave (km/s) = 6.25003 7.50885 6.90817
#
# Compressibility (1/GPa) = 0.01354840
#
# Stress axis : x y z
#
# Youngs Moduli (GPa) = 111.52472 78.36720 89.28047
#
# Poissons Ratio (x) = 0.26281 0.32515
# Poissons Ratio (y) = 0.37401 0.24053
# Poissons Ratio (z) = 0.40616 0.21113
#
# Static dielectric constant tensor:
#      x y z
#    x 1.605720 0.000000 0.000000 
#    y 0.000000 1.643070 0.000000 
#    z 0.000000 0.000000 1.583360 
# 
# From -- ./inp_files/23913.got.cif
#   From: 2010.05.17/outbox.cif.g08.bks.cpg/sg71_12_cif.got.tgz:23913.got - 2010.06.03 16:22:01.
