data_PCOD9522689
_publ_section_title
;
Structure prediction by ZEFSAII (Michael W. Deem and Ramdas Pophale) SiO2 
 PCOD9522689
Probable space group: I M M M
;
_chemical_formula_sum "Si O2"
_cell_formula_units_Z 80
_cell_length_a 11.990097
_cell_length_b 13.491078
_cell_length_c 28.807728
_cell_angle_alpha 90.000000
_cell_angle_beta 90.000000
_cell_angle_gamma 90.000000
_cell_volume 4659.918891
_symmetry_space_group_name_H-M "I M M M"
_symmetry_group_IT_number 71
_symmetry_cell_setting 'orthorhombic'
loop_
_space_group_symop_operation_xyz
x,y,z
-x,-y,z
x,-y,-z
-x,y,-z
-x,-y,-z
x,y,-z
-x,y,z
x,-y,z
1/2+x,1/2+y,1/2+z
1/2-x,1/2-y,1/2+z
1/2+x,1/2-y,1/2-z
1/2-x,1/2+y,1/2-z
1/2-x,1/2-y,1/2-z
1/2+x,1/2+y,1/2-z
1/2-x,1/2+y,1/2+z
1/2+x,1/2-y,1/2+z
loop_
_atom_site_type_symbol
_atom_site_label
_atom_site_fract_x
_atom_site_fract_y
_atom_site_fract_z
Si Si1 0.630545 0.617304 0.813351
Si Si2 0.000000 0.380521 0.261672
Si Si3 0.500000 0.881420 0.652946
Si Si4 0.790694 0.745115 0.131921
Si Si5 0.248263 0.618313 0.715218
Si Si6 0.632008 0.615558 0.444888
O O1 0.500000 0.635273 0.805342
O O2 0.645394 0.500000 0.823364
O O3 0.681310 0.683174 0.854385
O O4 0.699730 0.636820 0.765979
O O5 0.000000 0.353633 0.207554
O O6 0.882462 0.351401 0.283978
O O7 0.000000 0.500000 0.262776
O O8 0.609168 0.833263 0.631101
O O9 0.500000 0.000000 0.649618
O O10 0.808128 0.821298 0.174829
O O11 0.794915 0.810794 0.085867
O O12 0.255977 0.500000 0.707077
O O13 0.646572 0.630028 0.500000
O O14 0.500000 0.631708 0.434388
O O15 0.656261 0.500000 0.434463
#
# Coordination Sequence:
#
# PCOD9522689 Si02
#       6
#    16   8   8  16  16  16
#     4  10  22  36  50  75 112 148 182 222 260 301
#     4   9  18  34  48  68 109 149 175 213 264 302
#     4  11  22  34  50  76 107 143 183 220 262 314
#     4  12  21  32  57  79 103 144 183 215 263 325
#     4  10  21  33  49  77 111 143 182 224 260 308
#     4   9  19  37  59  85 113 133 161 216 278 327
#
# _framework density 17.167681000000002
#
# number of rings (size 3 to 8) (size 9 to 14) (size 15 to 20)
#    0.000    1.800    3.000    2.400    2.800    0.000 
#    0.000    0.000    0.000    3.600    0.000    2.800 
#    0.000    0.000    0.000    0.000    0.000    0.000 
#
# Total GULP energy -223338.912042 kJ/mol
# GULP energy per Si atom -5583.472801 kJ/mol
# Density = 1.712861 g / cm^3
# Si number density = 17.167681 Si / 1000 Ang^3
#
#
#
# Elastic Constant Matrix: (Units=GPa)
#
#
# Indices 1 2 3 4 5 6 
#
# 1 84.3017 37.7697 25.0782 0.0000 0.0000 0.0000
# 2 37.7697 92.4565 38.7270 0.0000 0.0000 0.0000
# 3 25.0782 38.7270 56.5174 0.0000 0.0000 0.0000
# 4 0.0000 0.0000 0.0000 33.1633 0.0000 0.0000
# 5 0.0000 0.0000 0.0000 0.0000 15.9466 0.0000
# 6 0.0000 0.0000 0.0000 0.0000 0.0000 33.0329
#
#
#
# Elastic Compliance Matrix: (Units=1/GPa)
#
#
# Indices 1 2 3 4 5 6 
#
# 1 0.014982 -0.004679 -0.003442 0.000000 0.000000 0.000000
# 2 -0.004679 0.016631 -0.009320 0.000000 0.000000 0.000000
# 3 -0.003442 -0.009320 0.025607 0.000000 0.000000 0.000000
# 4 0.000000 0.000000 0.000000 0.030154 0.000000 0.000000
# 5 0.000000 0.000000 0.000000 0.000000 0.062709 0.000000
# 6 0.000000 0.000000 0.000000 0.000000 0.000000 0.030273
#
#
# Mechanical properties :
#
#
# Convention : Reuss Voigt Hill
#
# Bulk Modulus (GPa) = 44.76440 48.49172 46.62806
# Shear Modulus (GPa) = 22.45330 25.20860 23.83095
#
# Velocity S-wave (km/s) = 3.62039 3.83610 3.72980
# Velocity P-wave (km/s) = 6.60361 6.92301 6.76520
#
# Compressibility (1/GPa) = 0.02233918
#
# Stress axis : x y z
#
# Youngs Moduli (GPa) = 66.74536 60.12870 39.05149
#
# Poissons Ratio (x) = 0.28132 0.13442
# Poissons Ratio (y) = 0.31228 0.36396
# Poissons Ratio (z) = 0.22974 0.56039
#
# Static dielectric constant tensor:
#      x y z
#    x 1.597340 0.000000 0.000000 
#    y 0.000000 1.626060 0.000000 
#    z 0.000000 0.000000 1.543650 
# 
# From -- ./inp_files/64363.got.cif
#   From: 2010.05.17/outbox.cif.g08.bks.cpg/sg71_33_cif.got.tgz:64363.got - 2010.06.03 16:22:01.
