data_PCOD9522095
_publ_section_title
;
Structure prediction by ZEFSAII (Michael W. Deem and Ramdas Pophale) SiO2 
 PCOD9522095
Probable space group: I M M M
;
_chemical_formula_sum "Si O2"
_cell_formula_units_Z 64
_cell_length_a 17.420189
_cell_length_b 8.062203
_cell_length_c 23.234836
_cell_angle_alpha 90.000000
_cell_angle_beta 90.000000
_cell_angle_gamma 90.000000
_cell_volume 3263.218866
_symmetry_space_group_name_H-M "I M M M"
_symmetry_group_IT_number 71
_symmetry_cell_setting 'orthorhombic'
loop_
_space_group_symop_operation_xyz
x,y,z
-x,-y,z
x,-y,-z
-x,y,-z
-x,-y,-z
x,y,-z
-x,y,z
x,-y,z
1/2+x,1/2+y,1/2+z
1/2-x,1/2-y,1/2+z
1/2+x,1/2-y,1/2-z
1/2-x,1/2+y,1/2-z
1/2-x,1/2-y,1/2-z
1/2+x,1/2+y,1/2-z
1/2-x,1/2+y,1/2+z
1/2+x,1/2-y,1/2+z
loop_
_atom_site_type_symbol
_atom_site_label
_atom_site_fract_x
_atom_site_fract_y
_atom_site_fract_z
Si Si1 0.592243 0.684106 0.140219
Si Si2 0.088280 0.197182 0.000000
Si Si3 0.593946 0.000000 0.066468
Si Si4 0.837701 0.300487 0.758171
Si Si5 0.911751 0.300682 0.122700
O O1 0.500000 0.682299 0.136033
O O2 0.620884 0.500000 0.124169
O O3 0.614999 0.723088 0.205665
O O4 0.619891 0.834584 0.099939
O O5 0.122671 0.252197 0.939140
O O6 0.000000 0.264999 0.000000
O O7 0.085023 0.000000 0.000000
O O8 0.500000 0.000000 0.067538
O O9 0.617620 0.000000 0.000000
O O10 0.845607 0.500000 0.755115
O O11 0.750000 0.250000 0.750000
O O12 0.867410 0.243592 0.820607
O O13 0.914029 0.500000 0.124681
O O14 0.000000 0.238605 0.125181
#
# Coordination Sequence:
#
# PCOD9522095 Si02
#       5
#    16   8   8  16  16
#     4  10  20  35  58  86 115 147 187 233 282 337
#     4   9  17  29  49  79 111 137 170 221 270 321
#     4   9  18  34  58  86 116 147 182 230 282 334
#     4  11  22  36  55  79 112 148 188 236 284 336
#     4   9  18  33  55  79 105 142 182 221 271 328
#
# _framework density 19.612537
#
# number of rings (size 3 to 8) (size 9 to 14) (size 15 to 20)
#    0.000    2.250    1.250    1.875    0.000    5.000 
#    0.000    5.000    2.750    0.000    0.000    0.000 
#    0.000    0.000    0.000    0.000    0.000    0.000 
#
# Total GULP energy -178543.794261 kJ/mol
# GULP energy per Si atom -5579.493571 kJ/mol
# Density = 1.956790 g / cm^3
# Si number density = 19.612537 Si / 1000 Ang^3
#
#
#
# Elastic Constant Matrix: (Units=GPa)
#
#
# Indices 1 2 3 4 5 6 
#
# 1 20.0628 12.3662 32.1415 0.0000 0.0000 0.0000
# 2 12.3662 114.4170 70.0350 0.0000 0.0000 0.0000
# 3 32.1415 70.0350 207.5667 0.0000 0.0000 0.0000
# 4 0.0000 0.0000 0.0000 11.6601 0.0000 0.0000
# 5 0.0000 0.0000 0.0000 0.0000 -5.1584 0.0000
# 6 0.0000 0.0000 0.0000 0.0000 0.0000 17.2911
#
#
#
# Elastic Compliance Matrix: (Units=1/GPa)
#
#
# Indices 1 2 3 4 5 6 
#
# 1 0.066400 -0.001113 -0.009907 0.000000 0.000000 0.000000
# 2 -0.001113 0.011033 -0.003551 0.000000 0.000000 0.000000
# 3 -0.009907 -0.003551 0.007550 0.000000 0.000000 0.000000
# 4 0.000000 0.000000 0.000000 0.085763 0.000000 0.000000
# 5 0.000000 0.000000 0.000000 0.000000 -0.193858 0.000000
# 6 0.000000 0.000000 0.000000 0.000000 0.000000 0.057833
#
#
# Mechanical properties :
#
#
# Convention : Reuss Voigt Hill
#
# Bulk Modulus (GPa) = 17.90713 63.45909 40.68311
# Shear Modulus (GPa) = 60.62394 19.92547 40.27470
#
# Velocity S-wave (km/s) = 5.56578 3.19086 4.53649
# Velocity P-wave (km/s) = 7.10311 6.78249 6.94465
#
# Compressibility (1/GPa) = 0.05584366
#
# Stress axis : x y z
#
# Youngs Moduli (GPa) = 15.06026 90.63311 132.45532
#
# Poissons Ratio (x) = 0.10085 1.31217
# Poissons Ratio (y) = 0.01676 0.47028
# Poissons Ratio (z) = 0.14919 0.32179
#
# Static dielectric constant tensor:
#      x y z
#    x 1.672830 0.000000 0.000000 
#    y 0.000000 1.703980 0.000000 
#    z 0.000000 0.000000 1.684580 
# 
# From -- ./inp_files/46801.got.cif
#   From: 2010.05.17/outbox.cif.g08.bks.cpg/sg71_24_cif.got.tgz:46801.got - 2010.06.03 16:22:01.
