data_PCOD9522759
_publ_section_title
;
Structure prediction by ZEFSAII (Michael W. Deem and Ramdas Pophale) SiO2 
 PCOD9522759
Probable space group: I M M M
;
_chemical_formula_sum "Si O2"
_cell_formula_units_Z 64
_cell_length_a 7.585374
_cell_length_b 29.235389
_cell_length_c 14.778703
_cell_angle_alpha 90.000000
_cell_angle_beta 90.000000
_cell_angle_gamma 90.000000
_cell_volume 3277.345270
_symmetry_space_group_name_H-M "I M M M"
_symmetry_group_IT_number 71
_symmetry_cell_setting 'orthorhombic'
loop_
_space_group_symop_operation_xyz
x,y,z
-x,-y,z
x,-y,-z
-x,y,-z
-x,-y,-z
x,y,-z
-x,y,z
x,-y,z
1/2+x,1/2+y,1/2+z
1/2-x,1/2-y,1/2+z
1/2+x,1/2-y,1/2-z
1/2-x,1/2+y,1/2-z
1/2-x,1/2-y,1/2-z
1/2+x,1/2+y,1/2-z
1/2-x,1/2+y,1/2+z
1/2+x,1/2-y,1/2+z
loop_
_atom_site_type_symbol
_atom_site_label
_atom_site_fract_x
_atom_site_fract_y
_atom_site_fract_z
Si Si1 0.789461 0.051949 0.000000
Si Si2 0.288861 0.196128 0.000000
Si Si3 0.790195 0.626644 0.648371
Si Si4 0.284929 0.948076 0.500000
Si Si5 0.715722 0.125015 0.647030
Si Si6 0.788681 0.302820 0.000000
O O1 0.736038 0.081328 0.087979
O O2 0.000000 0.050014 0.000000
O O3 0.720764 0.000000 0.000000
O O4 0.220569 0.168869 0.088033
O O5 0.255220 0.249710 0.000000
O O6 0.500000 0.189977 0.000000
O O7 0.719956 0.624236 0.750124
O O8 0.000000 0.633115 0.657210
O O9 0.500000 0.948794 0.500000
O O10 0.231281 0.919032 0.588009
O O11 0.222908 0.000000 0.500000
O O12 0.500000 0.125003 0.648400
O O13 0.772203 0.169279 0.588741
O O14 0.000000 0.306323 0.000000
#
# Coordination Sequence:
#
# PCOD9522759 Si02
#       6
#     8   8  16   8  16   8
#     4  10  21  35  49  69  98 125 151 190 235 276
#     4   9  18  30  43  64  93 121 156 201 237 267
#     4   9  18  33  51  69  92 123 158 195 231 271
#     4   8  13  22  39  66  96 119 143 184 234 276
#     4   8  15  28  45  67  94 121 152 191 231 272
#     4   9  17  30  48  69  95 125 154 188 234 283
#
# _framework density 19.528001
#
# number of rings (size 3 to 8) (size 9 to 14) (size 15 to 20)
#    0.000    3.250    0.000    2.625    0.000    5.000 
#    0.000    3.750    0.000    0.000    0.000    0.000 
#    0.000    7.000    0.000    0.000    0.000    0.000 
#
# Total GULP energy -178385.333256 kJ/mol
# GULP energy per Si atom -5574.541664 kJ/mol
# Density = 1.948355 g / cm^3
# Si number density = 19.528001 Si / 1000 Ang^3
#
#
#
# Elastic Constant Matrix: (Units=GPa)
#
#
# Indices 1 2 3 4 5 6 
#
# 1 38.9224 -5.4120 7.7041 0.0000 0.0000 0.0000
# 2 -5.4120 208.1296 124.6014 0.0000 0.0000 0.0000
# 3 7.7041 124.6014 235.8147 0.0000 0.0000 0.0000
# 4 0.0000 0.0000 0.0000 13.1114 0.0000 0.0000
# 5 0.0000 0.0000 0.0000 0.0000 -20.4503 0.0000
# 6 0.0000 0.0000 0.0000 0.0000 0.0000 20.0523
#
#
#
# Elastic Compliance Matrix: (Units=1/GPa)
#
#
# Indices 1 2 3 4 5 6 
#
# 1 0.026289 0.001752 -0.001785 0.000000 0.000000 0.000000
# 2 0.001752 0.007145 -0.003832 0.000000 0.000000 0.000000
# 3 -0.001785 -0.003832 0.006324 0.000000 0.000000 0.000000
# 4 0.000000 0.000000 0.000000 0.076269 0.000000 0.000000
# 5 0.000000 0.000000 0.000000 0.000000 -0.048899 0.000000
# 6 0.000000 0.000000 0.000000 0.000000 0.000000 0.049870
#
#
# Mechanical properties :
#
#
# Convention : Reuss Voigt Hill
#
# Bulk Modulus (GPa) = 31.22314 81.85042 56.53678
# Shear Modulus (GPa) = 36.92674 26.27422 31.60048
#
# Velocity S-wave (km/s) = 4.35324 3.67204 4.02707
# Velocity P-wave (km/s) = 6.42582 7.74492 7.11600
#
# Compressibility (1/GPa) = 0.03202753
#
# Stress axis : x y z
#
# Youngs Moduli (GPa) = 38.03877 139.96642 158.13079
#
# Poissons Ratio (x) = -0.24522 0.28220
# Poissons Ratio (y) = -0.06664 0.60601
# Poissons Ratio (z) = 0.06788 0.53640
#
# Static dielectric constant tensor:
#      x y z
#    x 1.729320 0.000000 0.000000 
#    y 0.000000 1.660970 0.000000 
#    z 0.000000 0.000000 1.690770 
# 
# From -- ./inp_files/31616.got.cif
#   From: 2010.05.17/outbox.cif.g08.bks.cpg/sg71_16_cif.got.tgz:31616.got - 2010.06.03 16:22:01.
