data_PCOD9522625
_publ_section_title
;
Structure prediction by ZEFSAII (Michael W. Deem and Ramdas Pophale) SiO2 
 PCOD9522625
Probable space group: I M M M
;
_chemical_formula_sum "Si O2"
_cell_formula_units_Z 82
_cell_length_a 17.445129
_cell_length_b 19.900850
_cell_length_c 11.989212
_cell_angle_alpha 90.000000
_cell_angle_beta 90.000000
_cell_angle_gamma 90.000000
_cell_volume 4162.329444
_symmetry_space_group_name_H-M "I M M M"
_symmetry_group_IT_number 71
_symmetry_cell_setting 'orthorhombic'
loop_
_space_group_symop_operation_xyz
x,y,z
-x,-y,z
x,-y,-z
-x,y,-z
-x,-y,-z
x,y,-z
-x,y,z
x,-y,z
1/2+x,1/2+y,1/2+z
1/2-x,1/2-y,1/2+z
1/2+x,1/2-y,1/2-z
1/2-x,1/2+y,1/2-z
1/2-x,1/2-y,1/2-z
1/2+x,1/2+y,1/2-z
1/2-x,1/2+y,1/2+z
1/2+x,1/2-y,1/2+z
loop_
_atom_site_type_symbol
_atom_site_label
_atom_site_fract_x
_atom_site_fract_y
_atom_site_fract_z
Si Si1 0.708658 0.500000 0.369025
Si Si2 0.912992 0.111681 0.500000
Si Si3 0.384352 0.000000 0.211072
Si Si4 0.091392 0.741897 0.260796
Si Si5 0.178210 0.880362 0.715733
Si Si6 0.586731 0.776047 0.000000
Si Si7 0.500000 0.000000 0.000000
Si Si8 0.146257 0.378851 0.131555
O O1 0.701734 0.500000 0.500000
O O2 0.796910 0.500000 0.330581
O O3 0.674189 0.433155 0.314802
O O4 0.868981 0.091497 0.610585
O O5 0.913315 0.194253 0.500000
O O6 0.000000 0.089183 0.500000
O O7 0.393155 0.935538 0.291743
O O8 0.434856 0.000000 0.100507
O O9 0.139899 0.809723 0.251370
O O10 0.118729 0.706629 0.378262
O O11 0.106319 0.691451 0.160750
O O12 0.000000 0.756072 0.273058
O O13 0.265312 0.872441 0.672210
O O14 0.500000 0.803366 0.000000
O O15 0.144075 0.394388 0.000000
#
# Coordination Sequence:
#
# PCOD9522625 Si02
#       8
#     8   8   8  16  16   8   2  16
#     4  10  22  42  62  89 123 169 211 258 316 382
#     4   9  16  33  63  93 119 153 203 267 308 360
#     4  10  25  44  68  93 123 160 211 274 316 384
#     4  10  21  38  60  91 125 167 210 267 315 370
#     4  10  20  39  63  91 126 166 216 264 318 381
#     4   7  14  31  53  79 115 149 194 245 305 340
#     4  12  24  48  74  96 124 156 230 268 324 376
#     4  11  23  41  63  93 130 169 211 257 327 398
#
# _framework density 19.700507000000002
#
# number of rings (size 3 to 8) (size 9 to 14) (size 15 to 20)
#    0.000    2.146    1.463    2.634    1.366    2.341 
#    3.512    2.927    0.000    4.098    0.000    0.000 
#    0.000    0.000    0.000    0.000    0.000    0.000 
#
# Total GULP energy -228550.862108 kJ/mol
# GULP energy per Si atom -5574.411271 kJ/mol
# Density = 1.965567 g / cm^3
# Si number density = 19.700507 Si / 1000 Ang^3
#
#
#
# Elastic Constant Matrix: (Units=GPa)
#
#
# Indices 1 2 3 4 5 6 
#
# 1 57.6063 27.7818 28.0402 0.0000 0.0000 0.0000
# 2 27.7818 86.6674 68.2519 0.0000 0.0000 0.0000
# 3 28.0402 68.2519 160.9282 0.0000 0.0000 0.0000
# 4 0.0000 0.0000 0.0000 26.7414 0.0000 0.0000
# 5 0.0000 0.0000 0.0000 0.0000 35.5590 0.0000
# 6 0.0000 0.0000 0.0000 0.0000 0.0000 -42.3720
#
#
#
# Elastic Compliance Matrix: (Units=1/GPa)
#
#
# Indices 1 2 3 4 5 6 
#
# 1 0.020684 -0.005694 -0.001189 0.000000 0.000000 0.000000
# 2 -0.005694 0.018892 -0.007020 0.000000 0.000000 0.000000
# 3 -0.001189 -0.007020 0.009399 0.000000 0.000000 0.000000
# 4 0.000000 0.000000 0.000000 0.037395 0.000000 0.000000
# 5 0.000000 0.000000 0.000000 0.000000 0.028122 0.000000
# 6 0.000000 0.000000 0.000000 0.000000 0.000000 -0.023600
#
#
# Mechanical properties :
#
#
# Convention : Reuss Voigt Hill
#
# Bulk Modulus (GPa) = 47.24109 61.48332 54.36221
# Shear Modulus (GPa) = 39.75994 16.06087 27.91040
#
# Velocity S-wave (km/s) = 4.49733 2.85836 3.76804
# Velocity P-wave (km/s) = 7.14141 6.49387 6.82532
#
# Compressibility (1/GPa) = 0.02116801
#
# Stress axis : x y z
#
# Youngs Moduli (GPa) = 48.34641 52.93186 106.39925
#
# Poissons Ratio (x) = 0.30139 0.12652
# Poissons Ratio (y) = 0.27528 0.74696
# Poissons Ratio (z) = 0.05749 0.37160
#
# Static dielectric constant tensor:
#      x y z
#    x 1.681820 0.000000 0.000000 
#    y 0.000000 1.720890 0.000000 
#    z 0.000000 0.000000 1.686750 
# 
# From -- ./inp_files/23932.got.cif
#   From: 2010.05.17/outbox.cif.g08.bks.cpg/sg71_12_cif.got.tgz:23932.got - 2010.06.03 16:22:01.
