data_PCOD9522572
_publ_section_title
;
Structure prediction by ZEFSAII (Michael W. Deem and Ramdas Pophale) SiO2 
 PCOD9522572
Probable space group: I M M M
;
_chemical_formula_sum "Si O2"
_cell_formula_units_Z 72
_cell_length_a 8.074201
_cell_length_b 15.338355
_cell_length_c 30.540552
_cell_angle_alpha 90.000000
_cell_angle_beta 90.000000
_cell_angle_gamma 90.000000
_cell_volume 3782.293480
_symmetry_space_group_name_H-M "I M M M"
_symmetry_group_IT_number 71
_symmetry_cell_setting 'orthorhombic'
loop_
_space_group_symop_operation_xyz
x,y,z
-x,-y,z
x,-y,-z
-x,y,-z
-x,-y,-z
x,y,-z
-x,y,z
x,-y,z
1/2+x,1/2+y,1/2+z
1/2-x,1/2-y,1/2+z
1/2+x,1/2-y,1/2-z
1/2-x,1/2+y,1/2-z
1/2-x,1/2-y,1/2-z
1/2+x,1/2+y,1/2-z
1/2-x,1/2+y,1/2+z
1/2+x,1/2-y,1/2+z
loop_
_atom_site_type_symbol
_atom_site_label
_atom_site_fract_x
_atom_site_fract_y
_atom_site_fract_z
Si Si1 0.701783 0.500000 0.671928
Si Si2 0.312799 0.714197 0.051751
Si Si3 0.500000 0.902476 0.553116
Si Si4 0.697828 0.500000 0.771933
Si Si5 0.802642 0.694145 0.792855
Si Si6 0.701389 0.681045 0.371475
O O1 0.500000 0.500000 0.673692
O O2 0.761837 0.500000 0.721820
O O3 0.751138 0.412357 0.647396
O O4 0.500000 0.680783 0.058148
O O5 0.167314 0.647758 0.065404
O O6 0.281475 0.797160 0.082133
O O7 0.292780 0.732209 0.000000
O O8 0.500000 0.906294 0.500000
O O9 0.500000 0.000000 0.570694
O O10 0.500000 0.500000 0.770932
O O11 0.749371 0.593118 0.791921
O O12 0.750000 0.750000 0.750000
O O13 0.745646 0.745920 0.836092
O O14 0.000000 0.695978 0.793396
O O15 0.500000 0.683002 0.375283
#
# Coordination Sequence:
#
# PCOD9522572 Si02
#       6
#     8  16   8   8  16  16
#     4   9  18  35  60  86 113 154 203 243 294 362
#     4  10  21  38  61  88 120 158 201 248 301 360
#     4   9  18  36  62  87 115 153 195 244 300 353
#     4  11  21  39  59  82 119 158 196 245 296 348
#     4  11  22  37  59  86 117 154 196 241 295 356
#     4  10  20  38  61  85 118 159 200 246 301 359
#
# _framework density 19.036071
#
# number of rings (size 3 to 8) (size 9 to 14) (size 15 to 20)
#    0.000    1.889    3.333    1.000    0.000    2.222 
#    2.000    3.333    0.000    3.333    0.000    0.000 
#    0.000    0.000    0.000    0.000    0.000    0.000 
#
# Total GULP energy -200892.036447 kJ/mol
# GULP energy per Si atom -5580.334346 kJ/mol
# Density = 1.899274 g / cm^3
# Si number density = 19.036071 Si / 1000 Ang^3
#
#
#
# Elastic Constant Matrix: (Units=GPa)
#
#
# Indices 1 2 3 4 5 6 
#
# 1 75.0500 42.8200 34.4113 0.0000 0.0000 0.0000
# 2 42.8200 165.8034 55.7945 0.0000 0.0000 0.0000
# 3 34.4113 55.7945 67.5936 0.0000 0.0000 0.0000
# 4 0.0000 0.0000 0.0000 17.6614 0.0000 0.0000
# 5 0.0000 0.0000 0.0000 0.0000 24.0705 0.0000
# 6 0.0000 0.0000 0.0000 0.0000 0.0000 20.4104
#
#
#
# Elastic Compliance Matrix: (Units=1/GPa)
#
#
# Indices 1 2 3 4 5 6 
#
# 1 0.017922 -0.002158 -0.007343 0.000000 0.000000 0.000000
# 2 -0.002158 0.008611 -0.006009 0.000000 0.000000 0.000000
# 3 -0.007343 -0.006009 0.023493 0.000000 0.000000 0.000000
# 4 0.000000 0.000000 0.000000 0.056621 0.000000 0.000000
# 5 0.000000 0.000000 0.000000 0.000000 0.041545 0.000000
# 6 0.000000 0.000000 0.000000 0.000000 0.000000 0.048995
#
#
# Mechanical properties :
#
#
# Convention : Reuss Voigt Hill
#
# Bulk Modulus (GPa) = 52.61485 63.83318 58.22401
# Shear Modulus (GPa) = 21.31825 24.12321 22.72073
#
# Velocity S-wave (km/s) = 3.35010 3.56369 3.45854
# Velocity P-wave (km/s) = 6.53175 7.10906 6.82651
#
# Compressibility (1/GPa) = 0.01900604
#
# Stress axis : x y z
#
# Youngs Moduli (GPa) = 55.79619 116.13635 42.56613
#
# Poissons Ratio (x) = 0.25057 0.31257
# Poissons Ratio (y) = 0.12038 0.25579
# Poissons Ratio (z) = 0.40972 0.69788
#
# Static dielectric constant tensor:
#      x y z
#    x 1.681320 0.000000 0.000000 
#    y 0.000000 1.614800 0.000000 
#    z 0.000000 0.000000 1.664580 
# 
# From -- ./inp_files/67882.got.cif
#   From: 2010.05.17/outbox.cif.g08.bks.cpg/sg71_34_cif.got.tgz:67882.got - 2010.06.03 16:22:01.
