data_PCOD9522424
_publ_section_title
;
Structure prediction by ZEFSAII (Michael W. Deem and Ramdas Pophale) SiO2 
 PCOD9522424
Probable space group: I M M M
;
_chemical_formula_sum "Si O2"
_cell_formula_units_Z 96
_cell_length_a 24.956635
_cell_length_b 23.772115
_cell_length_c 8.751155
_cell_angle_alpha 90.000000
_cell_angle_beta 90.000000
_cell_angle_gamma 90.000000
_cell_volume 5191.815205
_symmetry_space_group_name_H-M "I M M M"
_symmetry_group_IT_number 71
_symmetry_cell_setting 'orthorhombic'
loop_
_space_group_symop_operation_xyz
x,y,z
-x,-y,z
x,-y,-z
-x,y,-z
-x,-y,-z
x,y,-z
-x,y,z
x,-y,z
1/2+x,1/2+y,1/2+z
1/2-x,1/2-y,1/2+z
1/2+x,1/2-y,1/2-z
1/2-x,1/2+y,1/2-z
1/2-x,1/2-y,1/2-z
1/2+x,1/2+y,1/2-z
1/2-x,1/2+y,1/2+z
1/2+x,1/2-y,1/2+z
loop_
_atom_site_type_symbol
_atom_site_label
_atom_site_fract_x
_atom_site_fract_y
_atom_site_fract_z
Si Si1 0.911384 0.120043 0.828751
Si Si2 0.278699 0.874235 0.315685
Si Si3 0.257183 0.500000 0.181246
Si Si4 0.186011 0.798168 0.176037
Si Si5 0.000000 0.186428 0.674119
Si Si6 0.872420 0.000000 0.180058
Si Si7 0.000000 0.308490 0.685943
Si Si8 0.875991 0.310732 0.684238
O O1 0.853541 0.148349 0.827104
O O2 0.948402 0.151439 0.712203
O O3 0.906407 0.055212 0.792520
O O4 0.933505 0.127203 0.000000
O O5 0.278529 0.873205 0.500000
O O6 0.238142 0.824264 0.259260
O O7 0.336247 0.858068 0.247942
O O8 0.263611 0.938246 0.263954
O O9 0.319824 0.500000 0.219050
O O10 0.247803 0.500000 0.000000
O O11 0.150751 0.747561 0.250124
O O12 0.199292 0.782594 0.000000
O O13 0.000000 0.202416 0.500000
O O14 0.000000 0.245605 0.756312
O O15 0.856535 0.000000 0.000000
O O16 0.938135 0.324926 0.727661
O O17 0.000000 0.315099 0.500000
O O18 0.873911 0.306567 0.500000
#
# Coordination Sequence:
#
# PCOD9522424 Si02
#       8
#    16  16   8  16   8   8   8  16
#     4  10  21  35  54  79 109 146 191 239 282 328
#     4  11  23  39  58  86 117 149 186 228 279 335
#     4  10  22  38  59  82 113 148 182 229 280 333
#     4  11  21  35  57  86 116 150 187 230 280 333
#     4  11  21  36  56  77 107 149 194 238 280 330
#     4  10  20  37  57  78 108 147 194 239 279 329
#     4   9  20  37  58  81 108 144 183 226 278 327
#     4  11  22  39  60  85 116 149 185 231 280 334
#
# _framework density 18.490642999999999
#
# number of rings (size 3 to 8) (size 9 to 14) (size 15 to 20)
#    0.000    1.500    3.333    2.250    0.000    2.333 
#    0.000    3.333    0.000    0.500    0.000    3.500 
#    0.000    0.000    0.000    0.000    0.000    0.000 
#
# Total GULP energy -267333.797855 kJ/mol
# GULP energy per Si atom -5569.454122 kJ/mol
# Density = 1.844856 g / cm^3
# Si number density = 18.490643 Si / 1000 Ang^3
#
#
#
# Elastic Constant Matrix: (Units=GPa)
#
#
# Indices 1 2 3 4 5 6 
#
# 1 114.5366 5.8782 29.7626 0.0000 0.0000 0.0000
# 2 5.8782 25.7513 4.6167 0.0000 0.0000 0.0000
# 3 29.7626 4.6167 41.7647 0.0000 0.0000 0.0000
# 4 0.0000 0.0000 0.0000 20.0882 0.0000 0.0000
# 5 0.0000 0.0000 0.0000 0.0000 29.1907 0.0000
# 6 0.0000 0.0000 0.0000 0.0000 0.0000 237.6641
#
#
#
# Elastic Compliance Matrix: (Units=1/GPa)
#
#
# Indices 1 2 3 4 5 6 
#
# 1 0.010746 -0.001102 -0.007536 0.000000 0.000000 0.000000
# 2 -0.001102 0.039731 -0.003607 0.000000 0.000000 0.000000
# 3 -0.007536 -0.003607 0.029713 0.000000 0.000000 0.000000
# 4 0.000000 0.000000 0.000000 0.049781 0.000000 0.000000
# 5 0.000000 0.000000 0.000000 0.000000 0.034257 0.000000
# 6 0.000000 0.000000 0.000000 0.000000 0.000000 0.004208
#
#
# Mechanical properties :
#
#
# Convention : Reuss Voigt Hill
#
# Bulk Modulus (GPa) = 17.95312 29.17416 23.56364
# Shear Modulus (GPa) = 23.64174 66.84160 45.24167
#
# Velocity S-wave (km/s) = 3.57960 6.01892 4.95181
# Velocity P-wave (km/s) = 5.17833 8.00720 6.74278
#
# Compressibility (1/GPa) = 0.05570062
#
# Stress axis : x y z
#
# Youngs Moduli (GPa) = 93.06161 25.16919 33.65586
#
# Poissons Ratio (x) = 0.02773 0.25362
# Poissons Ratio (y) = 0.10254 0.12139
# Poissons Ratio (z) = 0.70129 0.09078
#
# Static dielectric constant tensor:
#      x y z
#    x 1.662280 0.000000 0.000000 
#    y 0.000000 1.645220 0.000000 
#    z 0.000000 0.000000 1.660840 
# 
# From -- ./inp_files/12986.got.cif
#   From: 2010.05.17/outbox.cif.g08.bks.cpg/sg71_7_cif.got.tgz:12986.got - 2010.06.03 16:22:01.
