data_PCOD9522597
_publ_section_title
;
Structure prediction by ZEFSAII (Michael W. Deem and Ramdas Pophale) SiO2 
 PCOD9522597
Probable space group: I M M M
;
_chemical_formula_sum "Si O2"
_cell_formula_units_Z 88
_cell_length_a 7.440640
_cell_length_b 29.773857
_cell_length_c 20.120498
_cell_angle_alpha 90.000000
_cell_angle_beta 90.000000
_cell_angle_gamma 90.000000
_cell_volume 4457.425738
_symmetry_space_group_name_H-M "I M M M"
_symmetry_group_IT_number 71
_symmetry_cell_setting 'orthorhombic'
loop_
_space_group_symop_operation_xyz
x,y,z
-x,-y,z
x,-y,-z
-x,y,-z
-x,-y,-z
x,y,-z
-x,y,z
x,-y,z
1/2+x,1/2+y,1/2+z
1/2-x,1/2-y,1/2+z
1/2+x,1/2-y,1/2-z
1/2-x,1/2+y,1/2-z
1/2-x,1/2-y,1/2-z
1/2+x,1/2+y,1/2-z
1/2-x,1/2+y,1/2+z
1/2+x,1/2-y,1/2+z
loop_
_atom_site_type_symbol
_atom_site_label
_atom_site_fract_x
_atom_site_fract_y
_atom_site_fract_z
Si Si1 0.716242 0.094088 0.329163
Si Si2 0.780018 0.376341 0.423925
Si Si3 0.718425 0.051743 0.186060
Si Si4 0.284291 0.195541 0.310435
Si Si5 0.000000 0.946694 0.425453
Si Si6 0.787797 0.291946 0.339833
O O1 0.500000 0.090024 0.335776
O O2 0.765775 0.074639 0.256373
O O3 0.768637 0.146423 0.334028
O O4 0.825167 0.068277 0.384844
O O5 0.721190 0.381330 0.500000
O O6 0.723594 0.416573 0.374824
O O7 0.720150 0.328951 0.391460
O O8 0.000000 0.376634 0.424800
O O9 0.500000 0.051044 0.184305
O O10 0.779240 0.000000 0.182301
O O11 0.500000 0.195517 0.307026
O O12 0.234434 0.239097 0.353364
O O13 0.213514 0.201262 0.234846
O O14 0.000000 0.928005 0.500000
O O15 0.000000 0.000000 0.428701
O O16 0.000000 0.300703 0.335331
#
# Coordination Sequence:
#
# PCOD9522597 Si02
#       6
#    16  16  16  16   8  16
#     4  10  20  38  63  88 117 153 190 237 292 342
#     4   9  16  27  44  71 110 150 187 232 285 338
#     4   9  16  28  49  77 108 145 191 237 278 329
#     4   9  17  30  51  78 105 138 188 237 280 335
#     4  11  26  44  62  90 121 147 187 237 293 369
#     4   9  16  28  47  74 107 144 185 233 285 337
#
# _framework density 19.742336999999999
#
# number of rings (size 3 to 8) (size 9 to 14) (size 15 to 20)
#    0.000    2.636    1.818    0.545    1.273    1.818 
#    0.000    3.636    0.000    1.636    0.000    0.000 
#    0.000    2.182    0.000    0.182    0.000    0.000 
#
# Total GULP energy -245464.230274 kJ/mol
# GULP energy per Si atom -5578.732506 kJ/mol
# Density = 1.969740 g / cm^3
# Si number density = 19.742337 Si / 1000 Ang^3
#
#
#
# Elastic Constant Matrix: (Units=GPa)
#
#
# Indices 1 2 3 4 5 6 
#
# 1 62.5213 13.8925 24.2708 0.0000 0.0000 0.0000
# 2 13.8925 163.8863 82.8442 0.0000 0.0000 0.0000
# 3 24.2708 82.8442 141.6179 0.0000 0.0000 0.0000
# 4 0.0000 0.0000 0.0000 24.7400 0.0000 0.0000
# 5 0.0000 0.0000 0.0000 0.0000 -23.7442 0.0000
# 6 0.0000 0.0000 0.0000 0.0000 0.0000 20.8194
#
#
#
# Elastic Compliance Matrix: (Units=1/GPa)
#
#
# Indices 1 2 3 4 5 6 
#
# 1 0.017135 0.000045 -0.002963 0.000000 0.000000 0.000000
# 2 0.000045 0.008664 -0.005076 0.000000 0.000000 0.000000
# 3 -0.002963 -0.005076 0.010538 0.000000 0.000000 0.000000
# 4 0.000000 0.000000 0.000000 0.040420 0.000000 0.000000
# 5 0.000000 0.000000 0.000000 0.000000 -0.042116 0.000000
# 6 0.000000 0.000000 0.000000 0.000000 0.000000 0.048032
#
#
# Mechanical properties :
#
#
# Convention : Reuss Voigt Hill
#
# Bulk Modulus (GPa) = 49.14114 67.78226 58.46170
# Shear Modulus (GPa) = 47.41820 20.83091 34.12455
#
# Velocity S-wave (km/s) = 4.90619 3.25181 4.16203
# Velocity P-wave (km/s) = 7.55245 6.96470 7.26452
#
# Compressibility (1/GPa) = 0.02034955
#
# Stress axis : x y z
#
# Youngs Moduli (GPa) = 58.36092 115.42218 94.89065
#
# Poissons Ratio (x) = -0.00524 0.28117
# Poissons Ratio (y) = -0.00265 0.48166
# Poissons Ratio (z) = 0.17293 0.58588
#
# Static dielectric constant tensor:
#      x y z
#    x 1.669310 0.000000 0.000000 
#    y 0.000000 1.705260 0.000000 
#    z 0.000000 0.000000 1.657100 
# 
# From -- ./inp_files/8819.got.cif
#   From: 2010.05.17/outbox.cif.g08.bks.cpg/sg71_5_cif.got.tgz:8819.got - 2010.06.03 16:22:01.
