data_PCOD9522375
_publ_section_title
;
Structure prediction by ZEFSAII (Michael W. Deem and Ramdas Pophale) SiO2 
 PCOD9522375
Probable space group: I M M M
;
_chemical_formula_sum "Si O2"
_cell_formula_units_Z 72
_cell_length_a 24.073593
_cell_length_b 8.973525
_cell_length_c 17.959353
_cell_angle_alpha 90.000000
_cell_angle_beta 90.000000
_cell_angle_gamma 90.000000
_cell_volume 3879.669028
_symmetry_space_group_name_H-M "I M M M"
_symmetry_group_IT_number 71
_symmetry_cell_setting 'orthorhombic'
loop_
_space_group_symop_operation_xyz
x,y,z
-x,-y,z
x,-y,-z
-x,y,-z
-x,-y,-z
x,y,-z
-x,y,z
x,-y,z
1/2+x,1/2+y,1/2+z
1/2-x,1/2-y,1/2+z
1/2+x,1/2-y,1/2-z
1/2-x,1/2+y,1/2-z
1/2-x,1/2-y,1/2-z
1/2+x,1/2+y,1/2-z
1/2-x,1/2+y,1/2+z
1/2+x,1/2-y,1/2+z
loop_
_atom_site_type_symbol
_atom_site_label
_atom_site_fract_x
_atom_site_fract_y
_atom_site_fract_z
Si Si1 0.144009 0.322707 0.587389
Si Si2 0.737812 0.177213 0.411292
Si Si3 0.566485 0.825150 0.500000
Si Si4 0.373161 0.678503 0.640223
Si Si5 0.935191 0.178875 0.705949
O O1 0.133736 0.291396 0.500000
O O2 0.149368 0.500000 0.596477
O O3 0.202235 0.244498 0.607783
O O4 0.095351 0.259279 0.638284
O O5 0.728364 0.205283 0.500000
O O6 0.688365 0.254315 0.366467
O O7 0.737538 0.000000 0.399828
O O8 0.500000 0.812970 0.500000
O O9 0.591751 0.747573 0.427393
O O10 0.582009 0.000000 0.500000
O O11 0.370995 0.500000 0.632638
O O12 0.403046 0.715558 0.717769
O O13 0.000000 0.219283 0.711578
O O14 0.931764 0.000000 0.695760
#
# Coordination Sequence:
#
# PCOD9522375 Si02
#       5
#    16  16   8  16  16
#     4  10  22  40  63  90 118 151 195 245 300 359
#     4  10  20  36  60  89 122 156 196 243 293 353
#     4  11  23  37  55  83 119 161 206 245 288 347
#     4  11  22  37  60  87 119 158 199 246 295 346
#     4  10  23  42  61  85 118 156 200 246 296 355
#
# _framework density 18.558285000000001
#
# number of rings (size 3 to 8) (size 9 to 14) (size 15 to 20)
#    0.000    1.667    1.111    3.000    0.000    7.556 
#    0.000    2.222    0.000    0.000    0.000    0.000 
#    0.000    0.000    0.000    0.000    0.000    0.000 
#
# Total GULP energy -201258.498586 kJ/mol
# GULP energy per Si atom -5590.513850 kJ/mol
# Density = 1.851605 g / cm^3
# Si number density = 18.558285 Si / 1000 Ang^3
#
#
#
# Elastic Constant Matrix: (Units=GPa)
#
#
# Indices 1 2 3 4 5 6 
#
# 1 140.8277 66.1473 82.6959 0.0000 0.0000 0.0000
# 2 66.1473 68.3067 62.7540 0.0000 0.0000 0.0000
# 3 82.6959 62.7540 96.1118 0.0000 0.0000 0.0000
# 4 0.0000 0.0000 0.0000 14.3758 0.0000 0.0000
# 5 0.0000 0.0000 0.0000 0.0000 10.9476 0.0000
# 6 0.0000 0.0000 0.0000 0.0000 0.0000 37.4076
#
#
#
# Elastic Compliance Matrix: (Units=1/GPa)
#
#
# Indices 1 2 3 4 5 6 
#
# 1 0.015559 -0.006918 -0.008870 0.000000 0.000000 0.000000
# 2 -0.006918 0.039662 -0.019944 0.000000 0.000000 0.000000
# 3 -0.008870 -0.019944 0.031059 0.000000 0.000000 0.000000
# 4 0.000000 0.000000 0.000000 0.069561 0.000000 0.000000
# 5 0.000000 0.000000 0.000000 0.000000 0.091344 0.000000
# 6 0.000000 0.000000 0.000000 0.000000 0.000000 0.026733
#
#
# Mechanical properties :
#
#
# Convention : Reuss Voigt Hill
#
# Bulk Modulus (GPa) = 67.49889 80.93784 74.21836
# Shear Modulus (GPa) = 14.27265 18.78946 16.53105
#
# Velocity S-wave (km/s) = 2.77622 3.18536 2.98780
# Velocity P-wave (km/s) = 6.83570 7.56546 7.20982
#
# Compressibility (1/GPa) = 0.01481506
#
# Stress axis : x y z
#
# Youngs Moduli (GPa) = 64.27144 25.21311 32.19707
#
# Poissons Ratio (x) = 0.17442 0.28560
# Poissons Ratio (y) = 0.44462 0.64214
# Poissons Ratio (z) = 0.57011 0.50285
#
# Static dielectric constant tensor:
#      x y z
#    x 1.616680 0.000000 0.000000 
#    y 0.000000 1.617090 0.000000 
#    z 0.000000 0.000000 1.618210 
# 
# From -- ./inp_files/42068.got.cif
#   From: 2010.05.17/outbox.cif.g08.bks.cpg/sg71_22_cif.got.tgz:42068.got - 2010.06.03 16:22:01.
