data_PCOD9522222
_publ_section_title
;
Structure prediction by ZEFSAII (Michael W. Deem and Ramdas Pophale) SiO2 
 PCOD9522222
Probable space group: I M M M
;
_chemical_formula_sum "Si O2"
_cell_formula_units_Z 88
_cell_length_a 17.929774
_cell_length_b 7.681806
_cell_length_c 30.826928
_cell_angle_alpha 90.000000
_cell_angle_beta 90.000000
_cell_angle_gamma 90.000000
_cell_volume 4245.886677
_symmetry_space_group_name_H-M "I M M M"
_symmetry_group_IT_number 71
_symmetry_cell_setting 'orthorhombic'
loop_
_space_group_symop_operation_xyz
x,y,z
-x,-y,z
x,-y,-z
-x,y,-z
-x,-y,-z
x,y,-z
-x,y,z
x,-y,z
1/2+x,1/2+y,1/2+z
1/2-x,1/2-y,1/2+z
1/2+x,1/2-y,1/2-z
1/2-x,1/2+y,1/2-z
1/2-x,1/2-y,1/2-z
1/2+x,1/2+y,1/2-z
1/2-x,1/2+y,1/2+z
1/2+x,1/2-y,1/2+z
loop_
_atom_site_type_symbol
_atom_site_label
_atom_site_fract_x
_atom_site_fract_y
_atom_site_fract_z
Si Si1 0.198442 0.786773 0.619417
Si Si2 0.414688 0.703500 0.192228
Si Si3 0.081372 0.788005 0.549561
Si Si4 0.000000 0.205669 0.950155
Si Si5 0.910747 0.302464 0.211684
Si Si6 0.631750 0.210249 0.617191
O O1 0.151289 0.726970 0.661559
O O2 0.148039 0.730272 0.579268
O O3 0.283117 0.730364 0.611886
O O4 0.201285 0.000000 0.620943
O O5 0.500000 0.776648 0.187350
O O6 0.421313 0.500000 0.180957
O O7 0.391458 0.716535 0.242585
O O8 0.087969 0.731276 0.500000
O O9 0.000000 0.735293 0.566674
O O10 0.082147 0.000000 0.549470
O O11 0.927175 0.248634 0.920781
O O12 0.000000 0.000000 0.954679
O O13 0.000000 0.278818 0.000000
O O14 0.880674 0.500000 0.213430
O O15 0.890203 0.223592 0.165258
O O16 0.000000 0.310200 0.211339
O O17 0.630174 0.000000 0.619682
#
# Coordination Sequence:
#
# PCOD9522222 Si02
#       6
#    16  16  16   8  16  16
#     4   9  17  28  45  72 105 134 170 218 260 303
#     4   9  17  29  47  74 107 144 179 211 253 303
#     4   8  13  22  38  62  95 134 168 200 247 302
#     4  11  25  43  61  81 105 133 169 217 274 331
#     4   9  17  31  49  69  98 135 175 216 259 308
#     4  10  20  36  57  79 102 134 173 216 265 312
#
# _framework density 20.725942
#
# number of rings (size 3 to 8) (size 9 to 14) (size 15 to 20)
#    0.000    2.818    0.909    1.364    0.000    5.091 
#    0.000    2.727    0.000    0.000    0.000    0.000 
#    0.000    0.000    0.000   12.545    0.000   11.273 
#
# Total GULP energy -245110.780894 kJ/mol
# GULP energy per Si atom -5570.699566 kJ/mol
# Density = 2.067877 g / cm^3
# Si number density = 20.725942 Si / 1000 Ang^3
#
#
#
# Elastic Constant Matrix: (Units=GPa)
#
#
# Indices 1 2 3 4 5 6 
#
# 1 171.5168 11.1310 117.9951 0.0000 0.0000 0.0000
# 2 11.1310 34.5156 1.8509 0.0000 0.0000 0.0000
# 3 117.9951 1.8509 149.9853 0.0000 0.0000 0.0000
# 4 0.0000 0.0000 0.0000 -1.0611 0.0000 0.0000
# 5 0.0000 0.0000 0.0000 0.0000 53.6480 0.0000
# 6 0.0000 0.0000 0.0000 0.0000 0.0000 -4.8700
#
#
#
# Elastic Compliance Matrix: (Units=1/GPa)
#
#
# Indices 1 2 3 4 5 6 
#
# 1 0.013162 -0.003692 -0.010309 0.000000 0.000000 0.000000
# 2 -0.003692 0.030027 0.002534 0.000000 0.000000 0.000000
# 3 -0.010309 0.002534 0.014746 0.000000 0.000000 0.000000
# 4 0.000000 0.000000 0.000000 -0.942453 0.000000 0.000000
# 5 0.000000 0.000000 0.000000 0.000000 0.018640 0.000000
# 6 0.000000 0.000000 0.000000 0.000000 0.000000 -0.205338
#
#
# Mechanical properties :
#
#
# Convention : Reuss Voigt Hill
#
# Bulk Modulus (GPa) = 28.57044 68.66353 48.61698
# Shear Modulus (GPa) = -4.82340 24.54612 9.86136
#
# Velocity S-wave (km/s) = -1.52718 3.44513 2.18365
# Velocity P-wave (km/s) = 3.27186 7.00188 5.46496
#
# Compressibility (1/GPa) = 0.03500122
#
# Stress axis : x y z
#
# Youngs Moduli (GPa) = 75.97511 33.30328 67.81278
#
# Poissons Ratio (x) = 0.12295 0.69910
# Poissons Ratio (y) = 0.28049 -0.17183
# Poissons Ratio (z) = 0.78325 -0.08439
#
# Static dielectric constant tensor:
#      x y z
#    x 1.731350 0.000000 0.000000 
#    y 0.000000 1.823230 0.000000 
#    z 0.000000 0.000000 1.748610 
# 
# From -- ./inp_files/70373.got.cif
#   From: 2010.05.17/outbox.cif.g08.bks.cpg/sg71_36_cif.got.tgz:70373.got - 2010.06.03 16:22:01.
