data_PCOD9522237
_publ_section_title
;
Structure prediction by ZEFSAII (Michael W. Deem and Ramdas Pophale) SiO2 
 PCOD9522237
Probable space group: I M M M
;
_chemical_formula_sum "Si O2"
_cell_formula_units_Z 72
_cell_length_a 28.105588
_cell_length_b 8.538956
_cell_length_c 16.535140
_cell_angle_alpha 90.000000
_cell_angle_beta 90.000000
_cell_angle_gamma 90.000000
_cell_volume 3968.307590
_symmetry_space_group_name_H-M "I M M M"
_symmetry_group_IT_number 71
_symmetry_cell_setting 'orthorhombic'
loop_
_space_group_symop_operation_xyz
x,y,z
-x,-y,z
x,-y,-z
-x,y,-z
-x,-y,-z
x,y,-z
-x,y,z
x,-y,z
1/2+x,1/2+y,1/2+z
1/2-x,1/2-y,1/2+z
1/2+x,1/2-y,1/2-z
1/2-x,1/2+y,1/2-z
1/2-x,1/2-y,1/2-z
1/2+x,1/2+y,1/2-z
1/2-x,1/2+y,1/2+z
1/2+x,1/2-y,1/2+z
loop_
_atom_site_type_symbol
_atom_site_label
_atom_site_fract_x
_atom_site_fract_y
_atom_site_fract_z
Si Si1 0.353630 0.310563 0.590200
Si Si2 0.803303 0.685466 0.248939
Si Si3 0.555786 0.812083 0.000000
Si Si4 0.553001 0.309920 0.324174
Si Si5 0.607223 0.311937 0.839263
O O1 0.339263 0.265430 0.500000
O O2 0.349416 0.500000 0.597583
O O3 0.324293 0.233113 0.661762
O O4 0.408574 0.268583 0.608007
O O5 0.802854 0.500000 0.258751
O O6 0.750000 0.750000 0.250000
O O7 0.839643 0.755861 0.315775
O O8 0.583898 0.753198 0.920745
O O9 0.500000 0.759277 0.000000
O O10 0.555625 0.000000 0.000000
O O11 0.500000 0.249555 0.336568
O O12 0.550973 0.500000 0.323004
O O13 0.574518 0.262649 0.237333
O O14 0.607469 0.500000 0.842994
#
# Coordination Sequence:
#
# PCOD9522237 Si02
#       5
#    16  16   8  16  16
#     4   9  18  33  53  80 113 145 181 224 268 319
#     4  11  22  39  61  82 108 142 184 233 291 349
#     4  11  23  37  55  85 125 161 193 237 294 349
#     4   8  14  26  48  78 109 142 180 221 264 310
#     4  10  20  36  57  82 112 148 194 239 282 338
#
# _framework density 18.143754999999999
#
# number of rings (size 3 to 8) (size 9 to 14) (size 15 to 20)
#    0.000    2.333    0.000    5.000    0.000    2.667 
#    2.000    2.222    0.000    6.000    0.000    6.222 
#    0.000    0.000    0.000    0.000    0.000    0.000 
#
# Total GULP energy -200789.008672 kJ/mol
# GULP energy per Si atom -5577.472463 kJ/mol
# Density = 1.810246 g / cm^3
# Si number density = 18.143755 Si / 1000 Ang^3
#
#
#
# Elastic Constant Matrix: (Units=GPa)
#
#
# Indices 1 2 3 4 5 6 
#
# 1 154.7098 37.9550 50.2461 0.0000 0.0000 0.0000
# 2 37.9550 63.9341 35.0567 0.0000 0.0000 0.0000
# 3 50.2461 35.0567 104.9766 0.0000 0.0000 0.0000
# 4 0.0000 0.0000 0.0000 24.4863 0.0000 0.0000
# 5 0.0000 0.0000 0.0000 0.0000 13.1675 0.0000
# 6 0.0000 0.0000 0.0000 0.0000 0.0000 22.0315
#
#
#
# Elastic Compliance Matrix: (Units=1/GPa)
#
#
# Indices 1 2 3 4 5 6 
#
# 1 0.008192 -0.003321 -0.002812 0.000000 0.000000 0.000000
# 2 -0.003321 0.020494 -0.005254 0.000000 0.000000 0.000000
# 3 -0.002812 -0.005254 0.012626 0.000000 0.000000 0.000000
# 4 0.000000 0.000000 0.000000 0.040839 0.000000 0.000000
# 5 0.000000 0.000000 0.000000 0.000000 0.075945 0.000000
# 6 0.000000 0.000000 0.000000 0.000000 0.000000 0.045390
#
#
# Mechanical properties :
#
#
# Convention : Reuss Voigt Hill
#
# Bulk Modulus (GPa) = 53.94481 63.34846 58.64663
# Shear Modulus (GPa) = 21.51104 25.29457 23.40281
#
# Velocity S-wave (km/s) = 3.44697 3.73784 3.59535
# Velocity P-wave (km/s) = 6.75564 7.32251 7.04478
#
# Compressibility (1/GPa) = 0.01853746
#
# Stress axis : x y z
#
# Youngs Moduli (GPa) = 122.07438 48.79524 79.19941
#
# Poissons Ratio (x) = 0.16207 0.22269
# Poissons Ratio (y) = 0.40545 0.41612
# Poissons Ratio (z) = 0.34324 0.25638
#
# Static dielectric constant tensor:
#      x y z
#    x 1.626600 0.000000 0.000000 
#    y 0.000000 1.627800 0.000000 
#    z 0.000000 0.000000 1.603250 
# 
# From -- ./inp_files/6075.got.cif
#   From: 2010.05.17/outbox.cif.g08.bks.cpg/sg71_4_cif.got.tgz:6075.got - 2010.06.03 16:22:01.
