data_PCOD9522501
_publ_section_title
;
Structure prediction by ZEFSAII (Michael W. Deem and Ramdas Pophale) SiO2 
 PCOD9522501
Probable space group: I M M M
;
_chemical_formula_sum "Si O2"
_cell_formula_units_Z 64
_cell_length_a 25.371265
_cell_length_b 8.703331
_cell_length_c 14.975651
_cell_angle_alpha 90.000000
_cell_angle_beta 90.000000
_cell_angle_gamma 90.000000
_cell_volume 3306.841145
_symmetry_space_group_name_H-M "I M M M"
_symmetry_group_IT_number 71
_symmetry_cell_setting 'orthorhombic'
loop_
_space_group_symop_operation_xyz
x,y,z
-x,-y,z
x,-y,-z
-x,y,-z
-x,-y,-z
x,y,-z
-x,y,z
x,-y,z
1/2+x,1/2+y,1/2+z
1/2-x,1/2-y,1/2+z
1/2+x,1/2-y,1/2-z
1/2-x,1/2+y,1/2-z
1/2-x,1/2-y,1/2-z
1/2+x,1/2+y,1/2-z
1/2-x,1/2+y,1/2+z
1/2+x,1/2-y,1/2+z
loop_
_atom_site_type_symbol
_atom_site_label
_atom_site_fract_x
_atom_site_fract_y
_atom_site_fract_z
Si Si1 0.889221 0.316187 0.345423
Si Si2 0.692322 0.815331 0.000000
Si Si3 0.191101 0.317306 0.000000
Si Si4 0.385225 0.314388 0.352866
Si Si5 0.000000 0.177256 0.861729
Si Si6 0.000000 0.176930 0.355714
O O1 0.891209 0.500000 0.335453
O O2 0.842884 0.275841 0.413785
O O3 0.879895 0.240018 0.249102
O O4 0.945844 0.259097 0.381640
O O5 0.748484 0.734993 0.000000
O O6 0.700059 0.000000 0.000000
O O7 0.160614 0.249806 0.914440
O O8 0.187488 0.500000 0.000000
O O9 0.385639 0.500000 0.355504
O O10 0.443041 0.257294 0.386893
O O11 0.000000 0.177965 0.753247
O O12 0.000000 0.000000 0.891538
O O13 0.000000 0.000000 0.384404
#
# Coordination Sequence:
#
# PCOD9522501 Si02
#       6
#    16   8   8  16   8   8
#     4  10  20  37  61  88 117 150 192 240 288 340
#     4  10  24  43  60  81 113 154 198 244 293 340
#     4  12  26  41  58  83 113 150 200 246 284 340
#     4  10  20  38  62  87 118 152 187 233 291 348
#     4   7  14  30  55  84 111 144 182 218 267 337
#     4   9  17  32  55  86 121 154 187 226 284 349
#
# _framework density 19.353818
#
# number of rings (size 3 to 8) (size 9 to 14) (size 15 to 20)
#    0.000    2.250    0.000    4.500    0.000    4.000 
#    0.000    6.875    0.000    0.000    0.000    0.000 
#    0.000    0.000    0.000    0.000    0.000    0.000 
#
# Total GULP energy -178677.447989 kJ/mol
# GULP energy per Si atom -5583.670250 kJ/mol
# Density = 1.930977 g / cm^3
# Si number density = 19.353818 Si / 1000 Ang^3
#
#
#
# Elastic Constant Matrix: (Units=GPa)
#
#
# Indices 1 2 3 4 5 6 
#
# 1 206.6337 82.4091 85.1315 0.0000 0.0000 0.0000
# 2 82.4091 86.6539 48.8451 0.0000 0.0000 0.0000
# 3 85.1315 48.8451 103.8263 0.0000 0.0000 0.0000
# 4 0.0000 0.0000 0.0000 4.1888 0.0000 0.0000
# 5 0.0000 0.0000 0.0000 0.0000 31.6945 0.0000
# 6 0.0000 0.0000 0.0000 0.0000 0.0000 32.1299
#
#
#
# Elastic Compliance Matrix: (Units=1/GPa)
#
#
# Indices 1 2 3 4 5 6 
#
# 1 0.009204 -0.006123 -0.004666 0.000000 0.000000 0.000000
# 2 -0.006123 0.019778 -0.004284 0.000000 0.000000 0.000000
# 3 -0.004666 -0.004284 0.015473 0.000000 0.000000 0.000000
# 4 0.000000 0.000000 0.000000 0.238733 0.000000 0.000000
# 5 0.000000 0.000000 0.000000 0.000000 0.031551 0.000000
# 6 0.000000 0.000000 0.000000 0.000000 0.000000 0.031124
#
#
# Mechanical properties :
#
#
# Convention : Reuss Voigt Hill
#
# Bulk Modulus (GPa) = 69.88880 92.20947 81.04914
# Shear Modulus (GPa) = 13.13100 25.65118 19.39109
#
# Velocity S-wave (km/s) = 2.60757 3.64453 3.16875
# Velocity P-wave (km/s) = 6.72722 8.09059 7.44020
#
# Compressibility (1/GPa) = 0.01430844
#
# Stress axis : x y z
#
# Youngs Moduli (GPa) = 108.65190 50.56153 64.62899
#
# Poissons Ratio (x) = 0.30957 0.30156
# Poissons Ratio (y) = 0.66524 0.27689
# Poissons Ratio (z) = 0.50698 0.21662
#
# Static dielectric constant tensor:
#      x y z
#    x 1.670330 0.000000 0.000000 
#    y 0.000000 1.648220 0.000000 
#    z 0.000000 0.000000 1.683100 
# 
# From -- ./inp_files/38809.got.cif
#   From: 2010.05.17/outbox.cif.g08.bks.cpg/sg71_20_cif.got.tgz:38809.got - 2010.06.03 16:22:01.
