data_PCOD9522593
_publ_section_title
;
Structure prediction by ZEFSAII (Michael W. Deem and Ramdas Pophale) SiO2 
 PCOD9522593
Probable space group: I M M M
;
_chemical_formula_sum "Si O2"
_cell_formula_units_Z 116
_cell_length_a 7.614062
_cell_length_b 23.374408
_cell_length_c 28.330905
_cell_angle_alpha 90.000000
_cell_angle_beta 90.000000
_cell_angle_gamma 90.000000
_cell_volume 5042.169918
_symmetry_space_group_name_H-M "I M M M"
_symmetry_group_IT_number 71
_symmetry_cell_setting 'orthorhombic'
loop_
_space_group_symop_operation_xyz
x,y,z
-x,-y,z
x,-y,-z
-x,y,-z
-x,-y,-z
x,y,-z
-x,y,z
x,-y,z
1/2+x,1/2+y,1/2+z
1/2-x,1/2-y,1/2+z
1/2+x,1/2-y,1/2-z
1/2-x,1/2+y,1/2-z
1/2-x,1/2-y,1/2-z
1/2+x,1/2+y,1/2-z
1/2-x,1/2+y,1/2+z
1/2+x,1/2-y,1/2+z
loop_
_atom_site_type_symbol
_atom_site_label
_atom_site_fract_x
_atom_site_fract_y
_atom_site_fract_z
Si Si1 0.789029 0.138333 0.053503
Si Si2 0.210737 0.677784 0.798333
Si Si3 0.208283 0.302048 0.690442
Si Si4 0.792677 0.766075 0.445289
Si Si5 0.715597 0.063060 0.650254
Si Si6 0.296468 0.109082 0.446531
Si Si7 0.799398 0.916456 0.144532
Si Si8 0.000000 0.500000 0.676758
O O1 0.740538 0.201927 0.071715
O O2 0.735210 0.089312 0.090146
O O3 0.000000 0.136398 0.051861
O O4 0.720956 0.131789 0.000000
O O5 0.269942 0.688426 0.744568
O O6 0.259800 0.736557 0.824683
O O7 0.275387 0.618055 0.819814
O O8 0.000000 0.675065 0.797822
O O9 0.300970 0.351287 0.661737
O O10 0.000000 0.311497 0.688240
O O11 0.732460 0.763101 0.500000
O O12 0.709224 0.825116 0.428103
O O13 0.000000 0.775852 0.443476
O O14 0.500000 0.064547 0.650324
O O15 0.777070 0.071742 0.596174
O O16 0.766513 0.000000 0.667928
O O17 0.220490 0.106239 0.500000
O O18 0.500000 0.092823 0.450921
O O19 0.000000 0.937581 0.146520
O O20 0.656297 0.950946 0.173746
#
# Coordination Sequence:
#
# PCOD9522593 Si02
#       8
#    16  16  16  16  16  16  16   4
#     4   9  19  36  58  86 120 159 203 254 314 376
#     4   9  19  36  60  90 121 159 204 264 323 382
#     4  10  20  38  62  94 123 156 206 262 326 388
#     4   9  17  28  46  75 110 145 189 245 302 357
#     4   9  18  33  52  80 115 154 204 253 307 372
#     4   9  17  29  47  73 109 154 200 247 299 357
#     4  11  24  43  68  94 129 171 212 266 321 376
#     4  12  26  48  65  96 136 168 222 260 303 402
#
# _framework density 23.005969
#
# number of rings (size 3 to 8) (size 9 to 14) (size 15 to 20)
#    0.000    2.483    0.690    1.034    2.897    2.483 
#    1.241    2.069    0.000    3.310    0.000    1.931 
#    0.000    0.000    0.000    0.000    0.000    0.000 
#
# Total GULP energy -323161.571892 kJ/mol
# GULP energy per Si atom -5571.751240 kJ/mol
# Density = 2.295361 g / cm^3
# Si number density = 23.005969 Si / 1000 Ang^3
#
#
#
# Elastic Constant Matrix: (Units=GPa)
#
#
# Indices 1 2 3 4 5 6 
#
# 1 66.8461 16.4632 6.7697 0.0000 0.0000 0.0000
# 2 16.4632 139.8659 38.0753 0.0000 0.0000 0.0003
# 3 6.7697 38.0753 52.8184 0.0000 0.0000 0.0000
# 4 0.0000 0.0000 0.0000 -61.9833 0.0000 0.0000
# 5 0.0000 0.0000 0.0000 0.0000 4.0314 0.0000
# 6 0.0000 0.0003 0.0000 0.0000 0.0000 5245.5693
#
#
#
# Elastic Compliance Matrix: (Units=1/GPa)
#
#
# Indices 1 2 3 4 5 6 
#
# 1 0.015436 -0.001590 -0.000832 0.000000 0.000000 0.000000
# 2 -0.001590 0.009059 -0.006327 0.000000 0.000000 0.000000
# 3 -0.000832 -0.006327 0.023600 0.000000 0.000000 0.000000
# 4 0.000000 0.000000 0.000000 -0.016133 0.000000 0.000000
# 5 0.000000 0.000000 0.000000 0.000000 0.248053 0.000000
# 6 0.000000 0.000000 0.000000 0.000000 0.000000 0.000191
#
#
# Mechanical properties :
#
#
# Convention : Reuss Voigt Hill
#
# Bulk Modulus (GPa) = 32.68289 42.46076 37.57182
# Shear Modulus (GPa) = 16.23893 1050.73830 533.48862
#
# Velocity S-wave (km/s) = 2.65968 21.39429 15.24450
# Velocity P-wave (km/s) = 4.86508 25.07557 18.06174
#
# Compressibility (1/GPa) = 0.03059705
#
# Stress axis : x y z
#
# Youngs Moduli (GPa) = 64.78495 110.38496 42.37262
#
# Poissons Ratio (x) = 0.17556 0.03525
# Poissons Ratio (y) = 0.10304 0.26808
# Poissons Ratio (z) = 0.05389 0.69837
#
# Static dielectric constant tensor:
#      x y z
#    x 1.835890 0.000000 0.000000 
#    y 0.000000 1.861780 0.000000 
#    z 0.000000 0.000000 1.950930 
# 
# From -- ./inp_files/63639.got.cif
#   From: 2010.05.17/outbox.cif.g08.bks.cpg/sg71_32_cif.got.tgz:63639.got - 2010.06.03 16:22:01.
