data_PCOD9522889
_publ_section_title
;
Structure prediction by ZEFSAII (Michael W. Deem and Ramdas Pophale) SiO2 
 PCOD9522889
Probable space group: I M M M
;
_chemical_formula_sum "Si O2"
_cell_formula_units_Z 80
_cell_length_a 13.643349
_cell_length_b 14.800340
_cell_length_c 21.674446
_cell_angle_alpha 90.000000
_cell_angle_beta 90.000000
_cell_angle_gamma 90.000000
_cell_volume 4376.638603
_symmetry_space_group_name_H-M "I M M M"
_symmetry_group_IT_number 71
_symmetry_cell_setting 'orthorhombic'
loop_
_space_group_symop_operation_xyz
x,y,z
-x,-y,z
x,-y,-z
-x,y,-z
-x,-y,-z
x,y,-z
-x,y,z
x,-y,z
1/2+x,1/2+y,1/2+z
1/2-x,1/2-y,1/2+z
1/2+x,1/2-y,1/2-z
1/2-x,1/2+y,1/2-z
1/2-x,1/2-y,1/2-z
1/2+x,1/2+y,1/2-z
1/2-x,1/2+y,1/2+z
1/2+x,1/2-y,1/2+z
loop_
_atom_site_type_symbol
_atom_site_label
_atom_site_fract_x
_atom_site_fract_y
_atom_site_fract_z
Si Si1 0.615952 0.105066 0.187072
Si Si2 0.693125 0.105338 0.684242
Si Si3 0.111529 0.285166 0.069542
Si Si4 0.386031 0.602646 0.113509
Si Si5 0.681932 0.210096 0.933242
O O1 0.500000 0.108138 0.197999
O O2 0.667181 0.143007 0.248648
O O3 0.640328 0.159128 0.125467
O O4 0.645078 0.000000 0.178812
O O5 0.636686 0.150040 0.626802
O O6 0.808661 0.111148 0.669283
O O7 0.665136 0.000000 0.685454
O O8 0.199874 0.213362 0.071264
O O9 0.000000 0.251767 0.075676
O O10 0.118831 0.326981 0.000000
O O11 0.500000 0.612161 0.130439
O O12 0.373059 0.500000 0.088176
O O13 0.355288 0.685826 0.070363
O O14 0.653050 0.172314 0.000000
#
# Coordination Sequence:
#
# PCOD9522889 Si02
#       5
#    16  16  16  16  16
#     4  10  21  36  54  76 101 131 170 215 258 297
#     4   9  18  33  51  73 104 137 169 208 252 298
#     4   9  18  32  51  76 103 131 164 203 250 304
#     4   9  18  32  51  77 107 136 166 202 246 301
#     4  10  21  36  53  74 102 135 171 212 256 301
#
# _framework density 18.278867000000002
#
# number of rings (size 3 to 8) (size 9 to 14) (size 15 to 20)
#    0.000    2.600    0.000    1.200    0.000    7.200 
#    0.000   10.000    0.000    1.800    0.000    2.800 
#    0.000    0.000    0.000    0.000    0.000    0.000 
#
# Total GULP energy -222726.971276 kJ/mol
# GULP energy per Si atom -5568.174282 kJ/mol
# Density = 1.823726 g / cm^3
# Si number density = 18.278867 Si / 1000 Ang^3
#
#
#
# Elastic Constant Matrix: (Units=GPa)
#
#
# Indices 1 2 3 4 5 6 
#
# 1 95.4314 13.5091 24.3819 0.0000 0.0000 0.0000
# 2 13.5091 33.9446 31.1410 0.0000 0.0000 0.0000
# 3 24.3819 31.1410 139.4593 0.0000 0.0000 0.0000
# 4 0.0000 0.0000 0.0000 4.8790 0.0000 0.0000
# 5 0.0000 0.0000 0.0000 0.0000 16.5632 0.0000
# 6 0.0000 0.0000 0.0000 0.0000 0.0000 14.6867
#
#
#
# Elastic Compliance Matrix: (Units=1/GPa)
#
#
# Indices 1 2 3 4 5 6 
#
# 1 0.011266 -0.003366 -0.001218 0.000000 0.000000 0.000000
# 2 -0.003366 0.038055 -0.007909 0.000000 0.000000 0.000000
# 3 -0.001218 -0.007909 0.009150 0.000000 0.000000 0.000000
# 4 0.000000 0.000000 0.000000 0.204959 0.000000 0.000000
# 5 0.000000 0.000000 0.000000 0.000000 0.060375 0.000000
# 6 0.000000 0.000000 0.000000 0.000000 0.000000 0.068089
#
#
# Mechanical properties :
#
#
# Convention : Reuss Voigt Hill
#
# Bulk Modulus (GPa) = 29.86466 45.21103 37.53784
# Shear Modulus (GPa) = 11.68110 20.54603 16.11357
#
# Velocity S-wave (km/s) = 2.53069 3.35630 2.97230
# Velocity P-wave (km/s) = 4.99129 6.30931 5.68860
#
# Compressibility (1/GPa) = 0.03348439
#
# Stress axis : x y z
#
# Youngs Moduli (GPa) = 88.75908 26.27751 109.29434
#
# Poissons Ratio (x) = 0.08846 0.13312
# Poissons Ratio (y) = 0.29879 0.86443
# Poissons Ratio (z) = 0.10811 0.20783
#
# Static dielectric constant tensor:
#      x y z
#    x 1.640140 0.000000 0.000000 
#    y 0.000000 1.644780 0.000000 
#    z 0.000000 0.000000 1.636030 
# 
# From -- ./inp_files/34273.got.cif
#   From: 2010.05.17/outbox.cif.g08.bks.cpg/sg71_18_cif.got.tgz:34273.got - 2010.06.03 16:22:01.
