data_PCOD9522886
_publ_section_title
;
Structure prediction by ZEFSAII (Michael W. Deem and Ramdas Pophale) SiO2 
 PCOD9522886
Probable space group: I M M M
;
_chemical_formula_sum "Si O2"
_cell_formula_units_Z 90
_cell_length_a 20.913771
_cell_length_b 25.294704
_cell_length_c 7.464935
_cell_angle_alpha 90.000000
_cell_angle_beta 90.000000
_cell_angle_gamma 90.000000
_cell_volume 3949.007699
_symmetry_space_group_name_H-M "I M M M"
_symmetry_group_IT_number 71
_symmetry_cell_setting 'orthorhombic'
loop_
_space_group_symop_operation_xyz
x,y,z
-x,-y,z
x,-y,-z
-x,y,-z
-x,-y,-z
x,y,-z
-x,y,z
x,-y,z
1/2+x,1/2+y,1/2+z
1/2-x,1/2-y,1/2+z
1/2+x,1/2-y,1/2-z
1/2-x,1/2+y,1/2-z
1/2-x,1/2-y,1/2-z
1/2+x,1/2+y,1/2-z
1/2-x,1/2+y,1/2+z
1/2+x,1/2-y,1/2+z
loop_
_atom_site_type_symbol
_atom_site_label
_atom_site_fract_x
_atom_site_fract_y
_atom_site_fract_z
Si Si1 0.890810 0.680014 0.289728
Si Si2 0.112860 0.204357 0.784111
Si Si3 0.750176 0.327570 0.295541
Si Si4 0.069389 0.089281 0.217145
Si Si5 0.000000 0.500000 0.000000
Si Si6 0.000000 0.401469 0.278767
Si Si7 0.290246 0.557101 0.207404
O O1 0.882797 0.669386 0.500000
O O2 0.915930 0.739682 0.269139
O O3 0.819315 0.680121 0.209172
O O4 0.938789 0.634902 0.228361
O O5 0.186300 0.198651 0.715652
O O6 0.077019 0.150930 0.729214
O O7 0.114592 0.202804 0.000000
O O8 0.753101 0.308061 0.500000
O O9 0.736043 0.390336 0.298061
O O10 0.132807 0.060763 0.283431
O O11 0.000000 0.069296 0.274580
O O12 0.071592 0.086649 0.000000
O O13 0.000000 0.546350 0.840684
O O14 0.000000 0.409386 0.500000
O O15 0.270012 0.500000 0.280629
O O16 0.270898 0.559825 0.000000
#
# Coordination Sequence:
#
# PCOD9522886 Si02
#       7
#    16  16  16  16   2   8  16
#     4  10  21  38  60  89 123 152 191 245 302 363
#     4   9  18  31  55  86 121 153 191 239 287 361
#     4   9  19  37  57  82 114 157 196 236 302 362
#     4   9  19  35  53  78 110 152 196 235 282 342
#     4  12  26  52  76  90 124 180 210 256 348 362
#     4  10  25  47  69 100 129 159 213 268 310 390
#     4  10  21  36  52  77 110 143 188 249 295 338
#
# _framework density 22.790534000000001
#
# number of rings (size 3 to 8) (size 9 to 14) (size 15 to 20)
#    0.000    2.489    0.000    2.267    2.489    5.689 
#    1.600    1.778    0.000    0.000    0.000    0.000 
#    0.000    0.000    0.000    0.000    0.000    0.000 
#
# Total GULP energy -250966.497450 kJ/mol
# GULP energy per Si atom -5577.033277 kJ/mol
# Density = 2.273866 g / cm^3
# Si number density = 22.790534 Si / 1000 Ang^3
#
#
#
# Elastic Constant Matrix: (Units=GPa)
#
#
# Indices 1 2 3 4 5 6 
#
# 1 58.5386 12.7883 5.6770 0.0000 0.0000 0.0000
# 2 12.7883 153.1622 7.9378 0.0000 0.0000 0.0000
# 3 5.6770 7.9378 80.4930 0.0000 0.0000 0.0000
# 4 0.0000 0.0000 0.0000 38.0077 0.0000 0.0000
# 5 0.0000 0.0000 0.0000 0.0000 19.6734 0.0000
# 6 0.0000 0.0000 0.0000 0.0000 0.0000 -0.8251
#
#
#
# Elastic Compliance Matrix: (Units=1/GPa)
#
#
# Indices 1 2 3 4 5 6 
#
# 1 0.017496 -0.001404 -0.001095 0.000000 0.000000 0.000000
# 2 -0.001404 0.006675 -0.000559 0.000000 0.000000 0.000000
# 3 -0.001095 -0.000559 0.012556 0.000000 0.000000 0.000000
# 4 0.000000 0.000000 0.000000 0.026310 0.000000 0.000000
# 5 0.000000 0.000000 0.000000 0.000000 0.050830 0.000000
# 6 0.000000 0.000000 0.000000 0.000000 0.000000 -1.211939
#
#
# Mechanical properties :
#
#
# Convention : Reuss Voigt Hill
#
# Bulk Modulus (GPa) = 32.66984 38.33334 35.50159
# Shear Modulus (GPa) = -4.62214 29.09059 12.23423
#
# Velocity S-wave (km/s) = -1.42566 3.57660 2.31943
# Velocity P-wave (km/s) = 3.41408 5.82344 4.77328
#
# Compressibility (1/GPa) = 0.03060928
#
# Stress axis : x y z
#
# Youngs Moduli (GPa) = 57.15691 149.80737 79.64413
#
# Poissons Ratio (x) = 0.21033 0.08725
# Poissons Ratio (y) = 0.08025 0.04454
# Poissons Ratio (z) = 0.06261 0.08378
#
# Static dielectric constant tensor:
#      x y z
#    x 1.877180 0.000000 0.000000 
#    y 0.000000 1.825990 0.000000 
#    z 0.000000 0.000000 1.867930 
# 
# From -- ./inp_files/10538.got.cif
#   From: 2010.05.17/outbox.cif.g08.bks.cpg/sg71_6_cif.got.tgz:10538.got - 2010.06.03 16:22:01.
