data_PCOD9522727
_publ_section_title
;
Structure prediction by ZEFSAII (Michael W. Deem and Ramdas Pophale) SiO2 
 PCOD9522727
Probable space group: I M M M
;
_chemical_formula_sum "Si O2"
_cell_formula_units_Z 88
_cell_length_a 25.678141
_cell_length_b 19.497413
_cell_length_c 7.544223
_cell_angle_alpha 90.000000
_cell_angle_beta 90.000000
_cell_angle_gamma 90.000000
_cell_volume 3777.070470
_symmetry_space_group_name_H-M "I M M M"
_symmetry_group_IT_number 71
_symmetry_cell_setting 'orthorhombic'
loop_
_space_group_symop_operation_xyz
x,y,z
-x,-y,z
x,-y,-z
-x,y,-z
-x,-y,-z
x,y,-z
-x,y,z
x,-y,z
1/2+x,1/2+y,1/2+z
1/2-x,1/2-y,1/2+z
1/2+x,1/2-y,1/2-z
1/2-x,1/2+y,1/2-z
1/2-x,1/2-y,1/2-z
1/2+x,1/2+y,1/2-z
1/2-x,1/2+y,1/2+z
1/2+x,1/2-y,1/2+z
loop_
_atom_site_type_symbol
_atom_site_label
_atom_site_fract_x
_atom_site_fract_y
_atom_site_fract_z
Si Si1 0.942516 0.080526 0.784320
Si Si2 0.436843 0.000000 0.200600
Si Si3 0.441921 0.847876 0.293357
Si Si4 0.332758 0.639783 0.716849
Si Si5 0.337636 0.209426 0.287722
Si Si6 0.771565 0.574149 0.287234
O O1 0.890876 0.119924 0.724506
O O2 0.000000 0.105214 0.725883
O O3 0.938052 0.000000 0.737735
O O4 0.942643 0.083937 0.000000
O O5 0.423618 0.072680 0.284790
O O6 0.500000 0.000000 0.199111
O O7 0.416910 0.000000 0.000000
O O8 0.446424 0.829904 0.500000
O O9 0.500000 0.842590 0.215014
O O10 0.395868 0.803081 0.215129
O O11 0.333159 0.637796 0.500000
O O12 0.317780 0.716838 0.774632
O O13 0.287549 0.588136 0.774016
O O14 0.341390 0.214703 0.500000
O O15 0.304364 0.141846 0.253304
O O16 0.770881 0.570510 0.500000
O O17 0.791104 0.500000 0.221279
#
# Coordination Sequence:
#
# PCOD9522727 Si02
#       6
#    16   8  16  16  16  16
#     4   8  13  22  41  72 106 136 165 199 241 292
#     4   9  17  29  47  69  91 121 163 205 240 279
#     4   9  18  32  48  68  97 130 161 196 245 298
#     4   9  17  31  49  70 100 135 167 200 246 302
#     4  10  21  34  51  75 101 131 166 207 251 297
#     4  10  21  36  54  74  97 130 169 209 253 299
#
# _framework density 23.298479
#
# number of rings (size 3 to 8) (size 9 to 14) (size 15 to 20)
#    0.000    2.818    0.000    1.909    1.273    5.091 
#    0.000    3.636    0.000    0.000    0.000    0.000 
#    0.000    2.182    0.000   10.000    0.000    9.091 
#
# Total GULP energy -245549.602640 kJ/mol
# GULP energy per Si atom -5580.672787 kJ/mol
# Density = 2.324545 g / cm^3
# Si number density = 23.298479 Si / 1000 Ang^3
#
#
#
# Elastic Constant Matrix: (Units=GPa)
#
#
# Indices 1 2 3 4 5 6 
#
# 1 100.0650 40.3409 0.3968 0.0000 0.0000 0.0000
# 2 40.3409 104.9380 -0.5515 0.0000 0.0000 0.0000
# 3 0.3968 -0.5515 54.6962 0.0000 0.0000 0.0000
# 4 0.0000 0.0000 0.0000 4.5956 0.0000 0.0000
# 5 0.0000 0.0000 0.0000 0.0000 -1.1291 0.0000
# 6 0.0000 0.0000 0.0000 0.0000 0.0000 39.5400
#
#
#
# Elastic Compliance Matrix: (Units=1/GPa)
#
#
# Indices 1 2 3 4 5 6 
#
# 1 0.011827 -0.004547 -0.000132 0.000000 0.000000 0.000000
# 2 -0.004547 0.011278 0.000147 0.000000 0.000000 0.000000
# 3 -0.000132 0.000147 0.018285 0.000000 0.000000 0.000000
# 4 0.000000 0.000000 0.000000 0.217602 0.000000 0.000000
# 5 0.000000 0.000000 0.000000 0.000000 -0.885634 0.000000
# 6 0.000000 0.000000 0.000000 0.000000 0.000000 0.025291
#
#
# Mechanical properties :
#
#
# Convention : Reuss Voigt Hill
#
# Bulk Modulus (GPa) = 30.93469 37.78573 34.36021
# Shear Modulus (GPa) = -8.59829 23.23549 7.31860
#
# Velocity S-wave (km/s) = -1.92315 3.16143 1.77428
# Velocity P-wave (km/s) = 2.89397 5.43870 4.35629
#
# Compressibility (1/GPa) = 0.03232617
#
# Stress axis : x y z
#
# Youngs Moduli (GPa) = 84.55012 88.66548 54.68894
#
# Poissons Ratio (x) = 0.40320 0.00720
# Poissons Ratio (y) = 0.38448 -0.00802
# Poissons Ratio (z) = 0.01113 -0.01301
#
# Static dielectric constant tensor:
#      x y z
#    x 1.899400 0.000000 0.000000 
#    y 0.000000 1.871700 0.000000 
#    z 0.000000 0.000000 1.918680 
# 
# From -- ./inp_files/12496.got.cif
#   From: 2010.05.17/outbox.cif.g08.bks.cpg/sg71_7_cif.got.tgz:12496.got - 2010.06.03 16:22:01.
