data_PCOD9522982
_publ_section_title
;
Structure prediction by ZEFSAII (Michael W. Deem and Ramdas Pophale) SiO2 
 PCOD9522982
Probable space group: I M M M
;
_chemical_formula_sum "Si O2"
_cell_formula_units_Z 90
_cell_length_a 25.108336
_cell_length_b 21.589055
_cell_length_c 8.902404
_cell_angle_alpha 90.000000
_cell_angle_beta 90.000000
_cell_angle_gamma 90.000000
_cell_volume 4825.683822
_symmetry_space_group_name_H-M "I M M M"
_symmetry_group_IT_number 71
_symmetry_cell_setting 'orthorhombic'
loop_
_space_group_symop_operation_xyz
x,y,z
-x,-y,z
x,-y,-z
-x,y,-z
-x,-y,-z
x,y,-z
-x,y,z
x,-y,z
1/2+x,1/2+y,1/2+z
1/2-x,1/2-y,1/2+z
1/2+x,1/2-y,1/2-z
1/2-x,1/2+y,1/2-z
1/2-x,1/2-y,1/2-z
1/2+x,1/2+y,1/2-z
1/2-x,1/2+y,1/2+z
1/2+x,1/2-y,1/2+z
loop_
_atom_site_type_symbol
_atom_site_label
_atom_site_fract_x
_atom_site_fract_y
_atom_site_fract_z
Si Si1 0.204892 0.930822 0.321812
Si Si2 0.500000 0.000000 0.000000
Si Si3 0.500000 0.870909 0.834234
Si Si4 0.438826 0.306866 0.829924
Si Si5 0.102146 0.689631 0.821855
Si Si6 0.089594 0.930638 0.822412
Si Si7 0.276206 0.811894 0.681014
O O1 0.191086 0.925693 0.500000
O O2 0.151666 0.928092 0.223535
O O3 0.242295 0.873288 0.283305
O O4 0.228771 0.000000 0.301376
O O5 0.500000 0.055884 0.129052
O O6 0.554205 0.849266 0.752815
O O7 0.500000 0.840554 0.000000
O O8 0.500000 0.286474 0.827738
O O9 0.407335 0.261163 0.721876
O O10 0.436811 0.376509 0.771478
O O11 0.418039 0.302997 0.000000
O O12 0.162588 0.676427 0.771033
O O13 0.098854 0.681150 0.000000
O O14 0.070372 0.000000 0.786541
O O15 0.082764 0.920526 0.000000
O O16 0.276432 0.804414 0.500000
O O17 0.250000 0.750000 0.750000
#
# Coordination Sequence:
#
# PCOD9522982 Si02
#       7
#    16   2   8  16  16  16  16
#     4   9  18  36  58  79 108 149 192 233 283 349
#     4   8  24  44  70  88 128 160 204 268 300 390
#     4  10  21  43  65  89 120 159 201 245 310 365
#     4  11  23  37  56  83 112 151 198 242 289 348
#     4  11  22  38  63  92 122 156 198 255 307 364
#     4  10  21  36  55  80 115 153 193 244 296 343
#     4  10  22  37  56  87 122 155 196 245 303 362
#
# _framework density 18.650206000000001
#
# number of rings (size 3 to 8) (size 9 to 14) (size 15 to 20)
#    0.267    1.600    0.889    2.933    0.000    7.467 
#    1.600    2.667    0.000    0.000    0.000    0.000 
#    0.000    0.000    0.000    0.000    0.000    0.000 
#
# Total GULP energy -250790.011716 kJ/mol
# GULP energy per Si atom -5573.111371 kJ/mol
# Density = 1.860776 g / cm^3
# Si number density = 18.650206 Si / 1000 Ang^3
#
#
#
# Elastic Constant Matrix: (Units=GPa)
#
#
# Indices 1 2 3 4 5 6 
#
# 1 83.3290 38.2087 21.6694 0.0000 0.0000 0.0000
# 2 38.2087 111.1042 20.1319 0.0000 0.0000 0.0000
# 3 21.6694 20.1319 41.0359 0.0000 0.0000 0.0000
# 4 0.0000 0.0000 0.0000 32.0742 0.0000 0.0000
# 5 0.0000 0.0000 0.0000 0.0000 22.2528 0.0000
# 6 0.0000 0.0000 0.0000 0.0000 0.0000 29.5391
#
#
#
# Elastic Compliance Matrix: (Units=1/GPa)
#
#
# Indices 1 2 3 4 5 6 
#
# 1 0.015534 -0.004232 -0.006127 0.000000 0.000000 0.000000
# 2 -0.004232 0.011032 -0.003177 0.000000 0.000000 0.000000
# 3 -0.006127 -0.003177 0.029163 0.000000 0.000000 0.000000
# 4 0.000000 0.000000 0.000000 0.031178 0.000000 0.000000
# 5 0.000000 0.000000 0.000000 0.000000 0.044938 0.000000
# 6 0.000000 0.000000 0.000000 0.000000 0.000000 0.033853
#
#
# Mechanical properties :
#
#
# Convention : Reuss Voigt Hill
#
# Bulk Modulus (GPa) = 34.89593 43.94325 39.41959
# Shear Modulus (GPa) = 24.71292 27.13714 25.92503
#
# Velocity S-wave (km/s) = 3.64411 3.81866 3.73240
# Velocity P-wave (km/s) = 6.03800 6.56170 6.30528
#
# Compressibility (1/GPa) = 0.02865664
#
# Stress axis : x y z
#
# Youngs Moduli (GPa) = 64.37306 90.64790 34.29002
#
# Poissons Ratio (x) = 0.38363 0.21009
# Poissons Ratio (y) = 0.27243 0.10895
# Poissons Ratio (z) = 0.39441 0.28801
#
# Static dielectric constant tensor:
#      x y z
#    x 1.663870 0.000000 0.000000 
#    y 0.000000 1.643930 0.000000 
#    z 0.000000 0.000000 1.633860 
# 
# From -- ./inp_files/12620.got.cif
#   From: 2010.05.17/outbox.cif.g08.bks.cpg/sg71_7_cif.got.tgz:12620.got - 2010.06.03 16:22:01.
