data_PCOD9522018
_publ_section_title
;
Structure prediction by ZEFSAII (Michael W. Deem and Ramdas Pophale) SiO2 
 PCOD9522018
Probable space group: I M M M
;
_chemical_formula_sum "Si O2"
_cell_formula_units_Z 90
_cell_length_a 7.344235
_cell_length_b 26.771024
_cell_length_c 20.305045
_cell_angle_alpha 90.000000
_cell_angle_beta 90.000000
_cell_angle_gamma 90.000000
_cell_volume 3992.229547
_symmetry_space_group_name_H-M "I M M M"
_symmetry_group_IT_number 71
_symmetry_cell_setting 'orthorhombic'
loop_
_space_group_symop_operation_xyz
x,y,z
-x,-y,z
x,-y,-z
-x,y,-z
-x,-y,-z
x,y,-z
-x,y,z
x,-y,z
1/2+x,1/2+y,1/2+z
1/2-x,1/2-y,1/2+z
1/2+x,1/2-y,1/2-z
1/2-x,1/2+y,1/2-z
1/2-x,1/2-y,1/2-z
1/2+x,1/2+y,1/2-z
1/2-x,1/2+y,1/2+z
1/2+x,1/2-y,1/2+z
loop_
_atom_site_type_symbol
_atom_site_label
_atom_site_fract_x
_atom_site_fract_y
_atom_site_fract_z
Si Si1 0.500000 0.500000 0.000000
Si Si2 0.277887 0.336018 0.573502
Si Si3 0.279780 0.858384 0.637702
Si Si4 0.782964 0.590701 0.000000
Si Si5 0.217308 0.750712 0.172167
Si Si6 0.220154 0.444758 0.764308
Si Si7 0.211655 0.054871 0.109199
O O1 0.658759 0.457150 0.000000
O O2 0.230910 0.318012 0.500000
O O3 0.500000 0.337993 0.577142
O O4 0.214713 0.298532 0.630985
O O5 0.212466 0.393098 0.582337
O O6 0.500000 0.856737 0.645290
O O7 0.242332 0.878199 0.565400
O O8 0.211705 0.802423 0.646981
O O9 0.214823 0.898928 0.691315
O O10 0.000000 0.578893 0.000000
O O11 0.250000 0.750000 0.250000
O O12 0.000000 0.751204 0.162277
O O13 0.276245 0.500000 0.789421
O O14 0.279561 0.440885 0.688628
O O15 0.000000 0.444030 0.764503
O O16 0.000000 0.053411 0.089202
O O17 0.289550 0.000000 0.091853
#
# Coordination Sequence:
#
# PCOD9522018 Si02
#       7
#     2  16  16   8  16  16  16
#     4  12  26  44  60  98 124 164 226 240 332 398
#     4   9  18  31  51  77 105 138 180 231 277 336
#     4   9  19  35  57  79 106 148 195 239 300 364
#     4  10  23  43  63  86 125 167 207 269 313 379
#     4  10  20  35  57  84 110 145 193 241 301 364
#     4   9  17  30  49  73  99 133 175 218 272 341
#     4   9  17  30  47  73 104 136 174 220 283 339
#
# _framework density 22.543793000000001
#
# number of rings (size 3 to 8) (size 9 to 14) (size 15 to 20)
#    0.000    2.667    0.000    1.200    2.489    0.356 
#    3.200    1.778    0.000    2.133    0.000    2.489 
#    0.000    0.000    0.000    0.000    0.000    0.000 
#
# Total GULP energy -251080.487870 kJ/mol
# GULP energy per Si atom -5579.566397 kJ/mol
# Density = 2.249248 g / cm^3
# Si number density = 22.543793 Si / 1000 Ang^3
#
#
#
# Elastic Constant Matrix: (Units=GPa)
#
#
# Indices 1 2 3 4 5 6 
#
# 1 90.8487 25.0130 6.8155 0.0000 0.0000 0.0000
# 2 25.0130 210.8586 91.7972 0.0001 0.0000 0.0000
# 3 6.8155 91.7972 115.4680 0.0006 0.0000 0.0000
# 4 0.0000 0.0001 0.0006 -739.0591 0.0000 -0.0001
# 5 0.0000 0.0000 0.0000 0.0000 12.1096 0.0000
# 6 0.0000 0.0000 0.0000 -0.0001 0.0000 -33.7840
#
#
#
# Elastic Compliance Matrix: (Units=1/GPa)
#
#
# Indices 1 2 3 4 5 6 
#
# 1 0.011407 -0.001621 0.000616 0.000000 0.000000 0.000000
# 2 -0.001621 0.007483 -0.005853 0.000000 0.000000 0.000000
# 3 0.000616 -0.005853 0.013278 0.000000 0.000000 0.000000
# 4 0.000000 0.000000 0.000000 -0.001353 0.000000 0.000000
# 5 0.000000 0.000000 0.000000 0.000000 0.082579 0.000000
# 6 0.000000 0.000000 0.000000 0.000000 0.000000 -0.029600
#
#
# Mechanical properties :
#
#
# Convention : Reuss Voigt Hill
#
# Bulk Modulus (GPa) = 54.20049 73.82517 64.01283
# Shear Modulus (GPa) = 48.23364 -132.57672 -42.17154
#
# Velocity S-wave (km/s) = 4.63055 -7.67699 -4.32979
# Velocity P-wave (km/s) = 7.25836 6.76484 1.86021
#
# Compressibility (1/GPa) = 0.01845002
#
# Stress axis : x y z
#
# Youngs Moduli (GPa) = 87.66174 133.63467 75.31528
#
# Poissons Ratio (x) = 0.21664 -0.04636
# Poissons Ratio (y) = 0.14211 0.44085
# Poissons Ratio (z) = -0.05396 0.78221
#
# Static dielectric constant tensor:
#      x y z
#    x 1.857960 0.000000 0.000000 
#    y 0.000000 1.822510 0.000000 
#    z 0.000000 0.000000 1.792460 
# 
# From -- ./inp_files/50563.got.cif
#   From: 2010.05.17/outbox.cif.g08.bks.cpg/sg71_26_cif.got.tgz:50563.got - 2010.06.03 16:22:01.
