data_PCOD9522451
_publ_section_title
;
Structure prediction by ZEFSAII (Michael W. Deem and Ramdas Pophale) SiO2 
 PCOD9522451
Probable space group: I M M M
;
_chemical_formula_sum "Si O2"
_cell_formula_units_Z 96
_cell_length_a 14.079118
_cell_length_b 16.967852
_cell_length_c 23.595209
_cell_angle_alpha 90.000000
_cell_angle_beta 90.000000
_cell_angle_gamma 90.000000
_cell_volume 5636.715883
_symmetry_space_group_name_H-M "I M M M"
_symmetry_group_IT_number 71
_symmetry_cell_setting 'orthorhombic'
loop_
_space_group_symop_operation_xyz
x,y,z
-x,-y,z
x,-y,-z
-x,y,-z
-x,-y,-z
x,y,-z
-x,y,z
x,-y,z
1/2+x,1/2+y,1/2+z
1/2-x,1/2-y,1/2+z
1/2+x,1/2-y,1/2-z
1/2-x,1/2+y,1/2-z
1/2-x,1/2-y,1/2-z
1/2+x,1/2+y,1/2-z
1/2-x,1/2+y,1/2+z
1/2+x,1/2-y,1/2+z
loop_
_atom_site_type_symbol
_atom_site_label
_atom_site_fract_x
_atom_site_fract_y
_atom_site_fract_z
Si Si1 0.612965 0.865569 0.500000
Si Si2 0.607577 0.905179 0.831837
Si Si3 0.114353 0.590862 0.874656
Si Si4 0.216526 0.665667 0.226443
Si Si5 0.298174 0.594922 0.391541
Si Si6 0.112923 0.822144 0.000000
Si Si7 0.104957 0.905898 0.772682
O O1 0.500000 0.881994 0.500000
O O2 0.646962 0.899446 0.560091
O O3 0.626827 0.771686 0.500000
O O4 0.500000 0.880986 0.845167
O O5 0.643824 0.869326 0.772871
O O6 0.688252 0.885537 0.878024
O O7 0.609419 0.000000 0.825897
O O8 0.131799 0.500000 0.856084
O O9 0.166672 0.652919 0.833797
O O10 0.000000 0.603714 0.872194
O O11 0.250000 0.750000 0.250000
O O12 0.314602 0.617274 0.228451
O O13 0.305941 0.500000 0.398895
O O14 0.340166 0.639103 0.444954
O O15 0.356579 0.617441 0.334878
O O16 0.000000 0.837690 0.000000
O O17 0.000000 0.872958 0.762089
O O18 0.099438 0.000000 0.773702
#
# Coordination Sequence:
#
# PCOD9522451 Si02
#       7
#     8  16  16  16  16   8  16
#     4   9  21  35  53  80 107 139 178 226 277 315
#     4   9  18  35  55  74 101 139 179 217 261 318
#     4  10  20  37  59  81 108 143 184 225 269 326
#     4  11  22  31  50  81 111 137 167 216 267 327
#     4   9  18  31  49  74 102 139 181 215 257 322
#     4  11  21  31  48  73 109 144 176 222 275 329
#     4   9  18  33  50  69 100 137 170 207 251 309
#
# _framework density 17.031192999999998
#
# number of rings (size 3 to 8) (size 9 to 14) (size 15 to 20)
#    0.000    2.333    0.000    4.000    4.667    5.000 
#    0.000    0.417    0.000    2.000    0.000    0.583 
#    0.000    2.667    0.000    0.000    0.000    0.000 
#
# Total GULP energy -267578.358511 kJ/mol
# GULP energy per Si atom -5574.549136 kJ/mol
# Density = 1.699243 g / cm^3
# Si number density = 17.031193 Si / 1000 Ang^3
#
#
#
# Elastic Constant Matrix: (Units=GPa)
#
#
# Indices 1 2 3 4 5 6 
#
# 1 111.5207 30.8870 33.2167 0.0000 0.0000 0.0000
# 2 30.8870 30.8737 32.8726 0.0000 0.0000 0.0000
# 3 33.2167 32.8726 81.4660 0.0000 0.0000 0.0000
# 4 0.0000 0.0000 0.0000 -708.1490 0.0000 0.0000
# 5 0.0000 0.0000 0.0000 0.0000 13.9324 0.0000
# 6 0.0000 0.0000 0.0000 0.0000 0.0000 15.8467
#
#
#
# Elastic Compliance Matrix: (Units=1/GPa)
#
#
# Indices 1 2 3 4 5 6 
#
# 1 0.012404 -0.012316 -0.000088 0.000000 0.000000 0.000000
# 2 -0.012316 0.069016 -0.022827 0.000000 0.000000 0.000000
# 3 -0.000088 -0.022827 0.021522 0.000000 0.000000 0.000000
# 4 0.000000 0.000000 0.000000 -0.001412 0.000000 0.000000
# 5 0.000000 0.000000 0.000000 0.000000 0.071775 0.000000
# 6 0.000000 0.000000 0.000000 0.000000 0.000000 0.063104
#
#
# Mechanical properties :
#
#
# Convention : Reuss Voigt Hill
#
# Bulk Modulus (GPa) = 30.78798 46.42369 38.60583
# Shear Modulus (GPa) = 15.73814 -127.21504 -55.73845
#
# Velocity S-wave (km/s) = 3.04316 -8.65202 -5.72698
# Velocity P-wave (km/s) = 5.51946 8.51427 4.58412
#
# Compressibility (1/GPa) = 0.03248021
#
# Stress axis : x y z
#
# Youngs Moduli (GPa) = 80.61817 14.48931 46.46371
#
# Poissons Ratio (x) = 0.17845 0.00409
# Poissons Ratio (y) = 0.99287 1.06065
# Poissons Ratio (z) = 0.00710 0.33075
#
# Static dielectric constant tensor:
#      x y z
#    x 1.604250 0.000000 0.000000 
#    y 0.000000 1.656400 0.000000 
#    z 0.000000 0.000000 1.575850 
# 
# From -- ./inp_files/59857.got.cif
#   From: 2010.05.17/outbox.cif.g08.bks.cpg/sg71_30_cif.got.tgz:59857.got - 2010.06.03 16:22:01.
