data_PCOD9522000
_publ_section_title
;
Structure prediction by ZEFSAII (Michael W. Deem and Ramdas Pophale) SiO2 
 PCOD9522000
Probable space group: I M M M
;
_chemical_formula_sum "Si O2"
_cell_formula_units_Z 64
_cell_length_a 11.014327
_cell_length_b 7.446440
_cell_length_c 34.799453
_cell_angle_alpha 90.000000
_cell_angle_beta 90.000000
_cell_angle_gamma 90.000000
_cell_volume 2854.165011
_symmetry_space_group_name_H-M "I M M M"
_symmetry_group_IT_number 71
_symmetry_cell_setting 'orthorhombic'
loop_
_space_group_symop_operation_xyz
x,y,z
-x,-y,z
x,-y,-z
-x,y,-z
-x,-y,-z
x,y,-z
-x,y,z
x,-y,z
1/2+x,1/2+y,1/2+z
1/2-x,1/2-y,1/2+z
1/2+x,1/2-y,1/2-z
1/2-x,1/2+y,1/2-z
1/2-x,1/2-y,1/2-z
1/2+x,1/2+y,1/2-z
1/2-x,1/2+y,1/2+z
1/2+x,1/2-y,1/2+z
loop_
_atom_site_type_symbol
_atom_site_label
_atom_site_fract_x
_atom_site_fract_y
_atom_site_fract_z
Si Si1 0.000000 0.287272 0.713379
Si Si2 0.500000 0.779408 0.301341
Si Si3 0.259148 0.286229 0.835997
Si Si4 0.500000 0.783328 0.455632
Si Si5 0.358129 0.702011 0.000000
Si Si6 0.255284 0.281143 0.921319
O O1 0.124515 0.239857 0.691288
O O2 0.000000 0.500000 0.716239
O O3 0.000000 0.218335 0.757014
O O4 0.627729 0.720697 0.320646
O O5 0.500000 0.000000 0.302179
O O6 0.243352 0.500000 0.839469
O O7 0.287750 0.216527 0.878902
O O8 0.500000 0.718039 0.500000
O O9 0.617395 0.734489 0.431467
O O10 0.500000 0.000000 0.458186
O O11 0.323614 0.785499 0.040679
O O12 0.299406 0.500000 0.000000
O O13 0.500000 0.682774 0.000000
O O14 0.270575 0.500000 0.920622
#
# Coordination Sequence:
#
# PCOD9522000 Si02
#       6
#     8   8  16   8   8  16
#     4  11  23  38  55  77 108 144 180 223 273 322
#     4   9  19  37  58  81 109 138 173 222 277 327
#     4  10  20  35  57  83 109 140 179 222 267 319
#     4   9  13  21  37  62  99 135 161 194 251 312
#     4   9  16  23  33  57  99 136 160 194 243 298
#     4   9  16  25  41  67 100 135 166 201 250 308
#
# _framework density 22.423370999999999
#
# number of rings (size 3 to 8) (size 9 to 14) (size 15 to 20)
#    0.000    2.500    1.250    1.875    1.750    3.000 
#    0.000    1.875    0.000    0.000    0.000    1.750 
#    0.000    1.000    0.000    0.000    0.000    0.000 
#
# Total GULP energy -178500.676992 kJ/mol
# GULP energy per Si atom -5578.146156 kJ/mol
# Density = 2.237233 g / cm^3
# Si number density = 22.423371 Si / 1000 Ang^3
#
#
#
# Elastic Constant Matrix: (Units=GPa)
#
#
# Indices 1 2 3 4 5 6 
#
# 1 136.1427 0.3365 85.0839 0.0000 0.0000 0.0000
# 2 0.3365 65.3083 12.8768 0.0000 0.0000 0.0000
# 3 85.0839 12.8768 224.4058 0.0000 0.0000 0.0000
# 4 0.0000 0.0000 0.0000 30.0786 0.0000 0.0000
# 5 0.0000 0.0000 0.0000 0.0000 -29.9686 0.0000
# 6 0.0000 0.0000 0.0000 0.0000 0.0000 -1.3716
#
#
#
# Elastic Compliance Matrix: (Units=1/GPa)
#
#
# Indices 1 2 3 4 5 6 
#
# 1 0.009656 0.000680 -0.003700 0.000000 0.000000 0.000000
# 2 0.000680 0.015535 -0.001149 0.000000 0.000000 0.000000
# 3 -0.003700 -0.001149 0.005925 0.000000 0.000000 0.000000
# 4 0.000000 0.000000 0.000000 0.033246 0.000000 0.000000
# 5 0.000000 0.000000 0.000000 0.000000 -0.033368 0.000000
# 6 0.000000 0.000000 0.000000 0.000000 0.000000 -0.729082
#
#
# Mechanical properties :
#
#
# Convention : Reuss Voigt Hill
#
# Bulk Modulus (GPa) = 43.90364 69.16124 56.53244
# Shear Modulus (GPa) = -7.32970 21.58498 7.12764
#
# Velocity S-wave (km/s) = -1.80994 3.10596 1.78482
# Velocity P-wave (km/s) = 3.90565 6.61612 5.43264
#
# Compressibility (1/GPa) = 0.02277716
#
# Stress axis : x y z
#
# Youngs Moduli (GPa) = 103.56298 64.37045 168.77494
#
# Poissons Ratio (x) = -0.04376 0.62448
# Poissons Ratio (y) = -0.07040 0.19395
# Poissons Ratio (z) = 0.38319 0.07397
#
# Static dielectric constant tensor:
#      x y z
#    x 1.834760 0.000000 0.000000 
#    y 0.000000 1.928780 0.000000 
#    z 0.000000 0.000000 1.856670 
# 
# From -- ./inp_files/68848.got.cif
#   From: 2010.05.17/outbox.cif.g08.bks.cpg/sg71_35_cif.got.tgz:68848.got - 2010.06.03 16:22:01.
