data_PCOD9522396
_publ_section_title
;
Structure prediction by ZEFSAII (Michael W. Deem and Ramdas Pophale) SiO2 
 PCOD9522396
Probable space group: I M M M
;
_chemical_formula_sum "Si O2"
_cell_formula_units_Z 66
_cell_length_a 18.216152
_cell_length_b 7.510239
_cell_length_c 22.609285
_cell_angle_alpha 90.000000
_cell_angle_beta 90.000000
_cell_angle_gamma 90.000000
_cell_volume 3093.123266
_symmetry_space_group_name_H-M "I M M M"
_symmetry_group_IT_number 71
_symmetry_cell_setting 'orthorhombic'
loop_
_space_group_symop_operation_xyz
x,y,z
-x,-y,z
x,-y,-z
-x,y,-z
-x,-y,-z
x,y,-z
-x,y,z
x,-y,z
1/2+x,1/2+y,1/2+z
1/2-x,1/2-y,1/2+z
1/2+x,1/2-y,1/2-z
1/2-x,1/2+y,1/2-z
1/2-x,1/2-y,1/2-z
1/2+x,1/2+y,1/2-z
1/2-x,1/2+y,1/2+z
1/2+x,1/2-y,1/2+z
loop_
_atom_site_type_symbol
_atom_site_label
_atom_site_fract_x
_atom_site_fract_y
_atom_site_fract_z
Si Si1 0.500000 0.000000 0.000000
Si Si2 0.204078 0.283506 0.622600
Si Si3 0.000000 0.217958 0.067967
Si Si4 0.082188 0.287991 0.715034
Si Si5 0.128234 0.799873 0.500000
Si Si6 0.631936 0.285642 0.651541
O O1 0.435729 0.154759 0.000000
O O2 0.204843 0.500000 0.623978
O O3 0.144203 0.219878 0.670515
O O4 0.177711 0.226715 0.558171
O O5 0.285849 0.221536 0.638656
O O6 0.928094 0.276565 0.104053
O O7 0.000000 0.000000 0.068118
O O8 0.000000 0.274974 0.000000
O O9 0.078289 0.500000 0.704976
O O10 0.105706 0.259842 0.782598
O O11 0.000000 0.215932 0.704996
O O12 0.098482 0.000000 0.500000
O O13 0.633391 0.500000 0.647874
#
# Coordination Sequence:
#
# PCOD9522396 Si02
#       6
#     2  16   8  16   8  16
#     4  12  26  52  72  90 152 162 218 284 318 394
#     4  10  22  40  63  90 129 175 217 272 340 396
#     4   9  18  32  54  87 121 158 214 271 325 404
#     4  10  21  36  58  85 123 171 213 268 344 401
#     4  12  27  45  73 105 130 180 223 269 336 392
#     4  10  20  36  61  89 121 166 217 276 337 389
#
# _framework density 21.337655000000002
#
# number of rings (size 3 to 8) (size 9 to 14) (size 15 to 20)
#    0.000    1.818    2.424    0.909    3.394    1.939 
#    0.000    0.000    0.000    0.727    0.000    0.000 
#    0.000    0.000    0.000    0.000    0.000    0.000 
#
# Total GULP energy -184248.404049 kJ/mol
# GULP energy per Si atom -5583.284971 kJ/mol
# Density = 2.128909 g / cm^3
# Si number density = 21.337655 Si / 1000 Ang^3
#
#
#
# Elastic Constant Matrix: (Units=GPa)
#
#
# Indices 1 2 3 4 5 6 
#
# 1 249.6219 29.3773 121.3051 0.0000 0.0000 0.0000
# 2 29.3773 85.8155 -5.0695 0.0000 0.0000 0.0000
# 3 121.3051 -5.0695 186.0867 0.0000 0.0000 0.0000
# 4 0.0000 0.0000 0.0000 48.2038 0.0000 0.0000
# 5 0.0000 0.0000 0.0000 0.0000 -31.1533 0.0000
# 6 0.0000 0.0000 0.0000 0.0000 0.0000 4.0413
#
#
#
# Elastic Compliance Matrix: (Units=1/GPa)
#
#
# Indices 1 2 3 4 5 6 
#
# 1 0.006326 -0.002413 -0.004189 0.000000 0.000000 0.000000
# 2 -0.002413 0.012592 0.001916 0.000000 0.000000 0.000000
# 3 -0.004189 0.001916 0.008157 0.000000 0.000000 0.000000
# 4 0.000000 0.000000 0.000000 0.020745 0.000000 0.000000
# 5 0.000000 0.000000 0.000000 0.000000 -0.032099 0.000000
# 6 0.000000 0.000000 0.000000 0.000000 0.000000 0.247444
#
#
# Mechanical properties :
#
#
# Convention : Reuss Voigt Hill
#
# Bulk Modulus (GPa) = 56.49009 90.30553 73.39781
# Shear Modulus (GPa) = 17.95728 29.27911 23.61820
#
# Velocity S-wave (km/s) = 2.90414 3.70831 3.33059
# Velocity P-wave (km/s) = 6.14632 7.79420 7.01879
#
# Compressibility (1/GPa) = 0.01770222
#
# Stress axis : x y z
#
# Youngs Moduli (GPa) = 158.07964 79.41450 122.59369
#
# Poissons Ratio (x) = 0.19163 0.51360
# Poissons Ratio (y) = 0.38145 -0.23489
# Poissons Ratio (z) = 0.66227 -0.15216
#
# Static dielectric constant tensor:
#      x y z
#    x 1.746850 0.000000 0.000000 
#    y 0.000000 1.803760 0.000000 
#    z 0.000000 0.000000 1.709950 
# 
# From -- ./inp_files/53756.got.cif
#   From: 2010.05.17/outbox.cif.g08.bks.cpg/sg71_27_cif.got.tgz:53756.got - 2010.06.03 16:22:01.
