data_PCOD9522006
_publ_section_title
;
Structure prediction by ZEFSAII (Michael W. Deem and Ramdas Pophale) SiO2 
 PCOD9522006
Probable space group: I M M M
;
_chemical_formula_sum "Si O2"
_cell_formula_units_Z 96
_cell_length_a 14.482967
_cell_length_b 14.207114
_cell_length_c 24.730984
_cell_angle_alpha 90.000000
_cell_angle_beta 90.000000
_cell_angle_gamma 90.000000
_cell_volume 5088.676036
_symmetry_space_group_name_H-M "I M M M"
_symmetry_group_IT_number 71
_symmetry_cell_setting 'orthorhombic'
loop_
_space_group_symop_operation_xyz
x,y,z
-x,-y,z
x,-y,-z
-x,y,-z
-x,-y,-z
x,y,-z
-x,y,z
x,-y,z
1/2+x,1/2+y,1/2+z
1/2-x,1/2-y,1/2+z
1/2+x,1/2-y,1/2-z
1/2-x,1/2+y,1/2-z
1/2-x,1/2-y,1/2-z
1/2+x,1/2+y,1/2-z
1/2-x,1/2+y,1/2+z
1/2+x,1/2-y,1/2+z
loop_
_atom_site_type_symbol
_atom_site_label
_atom_site_fract_x
_atom_site_fract_y
_atom_site_fract_z
Si Si1 0.391158 0.395361 0.148523
Si Si2 0.395670 0.266756 0.352670
Si Si3 0.112272 0.606705 0.938491
Si Si4 0.211390 0.611491 0.641591
Si Si5 0.145127 0.263749 0.733849
Si Si6 0.388767 0.756678 0.936942
O O1 0.500000 0.405687 0.138994
O O2 0.350776 0.500000 0.154154
O O3 0.382565 0.330155 0.201369
O O4 0.356502 0.333499 0.098182
O O5 0.500000 0.299362 0.367390
O O6 0.365168 0.184895 0.394092
O O7 0.314853 0.344941 0.353221
O O8 0.401924 0.226271 0.291665
O O9 0.143598 0.500000 0.925783
O O10 0.000000 0.604034 0.939269
O O11 0.142110 0.630108 0.000000
O O12 0.214512 0.500000 0.641988
O O13 0.147584 0.651833 0.690702
O O14 0.164422 0.654846 0.588200
O O15 0.250000 0.250000 0.750000
O O16 0.500000 0.767597 0.929395
O O17 0.371208 0.744156 0.000000
#
# Coordination Sequence:
#
# PCOD9522006 Si02
#       6
#    16  16  16  16  16  16
#     4   9  17  31  54  82 109 135 165 212 276 336
#     4  10  20  35  57  83 111 145 184 225 272 330
#     4   8  15  30  52  77 105 137 175 222 274 324
#     4  10  22  38  54  77 111 147 185 231 276 319
#     4   9  19  34  49  71 105 141 179 221 262 311
#     4   9  19  37  59  82 109 142 183 229 275 326
#
# _framework density 18.865417999999998
#
# number of rings (size 3 to 8) (size 9 to 14) (size 15 to 20)
#    0.000    2.833    0.000    1.000    0.000    6.000 
#    0.000    9.167    0.000    0.000    0.000    3.500 
#    0.000    0.000    0.000    0.000    0.000    0.000 
#
# Total GULP energy -267384.537401 kJ/mol
# GULP energy per Si atom -5570.511196 kJ/mol
# Density = 1.882248 g / cm^3
# Si number density = 18.865418 Si / 1000 Ang^3
#
#
#
# Elastic Constant Matrix: (Units=GPa)
#
#
# Indices 1 2 3 4 5 6 
#
# 1 65.6089 27.4679 17.9864 0.0000 0.0000 0.0000
# 2 27.4679 173.5522 77.7700 0.0000 0.0000 0.0000
# 3 17.9864 77.7700 132.1593 0.0000 0.0000 0.0000
# 4 0.0000 0.0000 0.0000 4.9455 0.0000 0.0000
# 5 0.0000 0.0000 0.0000 0.0000 0.8977 0.0000
# 6 0.0000 0.0000 0.0000 0.0000 0.0000 22.7006
#
#
#
# Elastic Compliance Matrix: (Units=1/GPa)
#
#
# Indices 1 2 3 4 5 6 
#
# 1 0.016412 -0.002168 -0.000958 0.000000 0.000000 0.000000
# 2 -0.002168 0.008112 -0.004478 0.000000 0.000000 0.000000
# 3 -0.000958 -0.004478 0.010332 0.000000 0.000000 0.000000
# 4 0.000000 0.000000 0.000000 0.202204 0.000000 0.000000
# 5 0.000000 0.000000 0.000000 0.000000 1.114003 0.000000
# 6 0.000000 0.000000 0.000000 0.000000 0.000000 0.044052
#
#
# Mechanical properties :
#
#
# Convention : Reuss Voigt Hill
#
# Bulk Modulus (GPa) = 50.89692 68.64099 59.76895
# Shear Modulus (GPa) = 3.52890 22.24849 12.88869
#
# Velocity S-wave (km/s) = 1.36917 3.43786 2.61663
# Velocity P-wave (km/s) = 5.43480 7.22648 6.39371
#
# Compressibility (1/GPa) = 0.01964756
#
# Stress axis : x y z
#
# Youngs Moduli (GPa) = 60.93027 123.27468 96.78377
#
# Poissons Ratio (x) = 0.26731 0.09268
# Poissons Ratio (y) = 0.13212 0.43344
# Poissons Ratio (z) = 0.05835 0.55208
#
# Static dielectric constant tensor:
#      x y z
#    x 1.709010 0.000000 0.000000 
#    y 0.000000 1.636320 0.000000 
#    z 0.000000 0.000000 1.629120 
# 
# From -- ./inp_files/60542.got.cif
#   From: 2010.05.17/outbox.cif.g08.bks.cpg/sg71_31_cif.got.tgz:60542.got - 2010.06.03 16:22:01.
