data_PCOD9522956
_publ_section_title
;
Structure prediction by ZEFSAII (Michael W. Deem and Ramdas Pophale) SiO2 
 PCOD9522956
Probable space group: I M M M
;
_chemical_formula_sum "Si O2"
_cell_formula_units_Z 82
_cell_length_a 22.025222
_cell_length_b 23.384606
_cell_length_c 7.699694
_cell_angle_alpha 90.000000
_cell_angle_beta 90.000000
_cell_angle_gamma 90.000000
_cell_volume 3965.736161
_symmetry_space_group_name_H-M "I M M M"
_symmetry_group_IT_number 71
_symmetry_cell_setting 'orthorhombic'
loop_
_space_group_symop_operation_xyz
x,y,z
-x,-y,z
x,-y,-z
-x,y,-z
-x,-y,-z
x,y,-z
-x,y,z
x,-y,z
1/2+x,1/2+y,1/2+z
1/2-x,1/2-y,1/2+z
1/2+x,1/2-y,1/2-z
1/2-x,1/2+y,1/2-z
1/2-x,1/2-y,1/2-z
1/2+x,1/2+y,1/2-z
1/2-x,1/2+y,1/2+z
1/2+x,1/2-y,1/2+z
loop_
_atom_site_type_symbol
_atom_site_label
_atom_site_fract_x
_atom_site_fract_y
_atom_site_fract_z
Si Si1 0.000000 0.588220 0.314751
Si Si2 0.358018 0.388790 0.712354
Si Si3 0.773413 0.433029 0.290505
Si Si4 0.428447 0.274992 0.288440
Si Si5 0.383310 0.152935 0.293309
Si Si6 0.431549 0.500000 0.287915
Si Si7 0.000000 0.500000 0.000000
O O1 0.059468 0.625984 0.300389
O O2 0.000000 0.559033 0.500000
O O3 0.000000 0.548202 0.150889
O O4 0.356575 0.386579 0.500000
O O5 0.289578 0.403806 0.768754
O O6 0.392326 0.331493 0.770481
O O7 0.397386 0.443172 0.766036
O O8 0.771613 0.436525 0.500000
O O9 0.780438 0.500000 0.230055
O O10 0.826723 0.388769 0.243158
O O11 0.431125 0.277101 0.500000
O O12 0.500000 0.271697 0.232344
O O13 0.387444 0.219698 0.242222
O O14 0.393208 0.151356 0.500000
O O15 0.500000 0.500000 0.227550
O O16 0.431542 0.500000 0.500000
#
# Coordination Sequence:
#
# PCOD9522956 Si02
#       7
#     8  16  16  16  16   8   2
#     4  12  25  43  67  96 131 170 213 270 330 380
#     4   9  16  29  49  78 115 156 197 253 319 389
#     4  10  21  36  54  80 117 158 202 256 321 385
#     4   9  17  31  54  80 113 156 201 254 326 390
#     4  11  22  39  58  84 121 163 212 265 313 372
#     4   9  14  22  43  78 117 148 190 251 313 378
#     4  12  26  44  64  98 132 164 210 270 314 398
#
# _framework density 20.677119999999999
#
# number of rings (size 3 to 8) (size 9 to 14) (size 15 to 20)
#    0.000    2.049    2.927    1.317    1.366    3.512 
#    0.000    0.000    0.000    1.171    0.000    0.000 
#    0.000    0.780    0.000    0.000    0.000    0.000 
#
# Total GULP energy -228400.145777 kJ/mol
# GULP energy per Si atom -5570.735263 kJ/mol
# Density = 2.063006 g / cm^3
# Si number density = 20.677120 Si / 1000 Ang^3
#
#
#
# Elastic Constant Matrix: (Units=GPa)
#
#
# Indices 1 2 3 4 5 6 
#
# 1 196.1287 116.7700 7.7540 0.0000 0.0000 0.0000
# 2 116.7700 232.9000 28.1838 0.0000 0.0000 0.0000
# 3 7.7540 28.1838 67.3388 0.0000 0.0000 0.0000
# 4 0.0000 0.0000 0.0000 11.6518 0.0000 0.0000
# 5 0.0000 0.0000 0.0000 0.0000 47.3127 0.0000
# 6 0.0000 0.0000 0.0000 0.0000 0.0000 47.0276
#
#
#
# Elastic Compliance Matrix: (Units=1/GPa)
#
#
# Indices 1 2 3 4 5 6 
#
# 1 0.007302 -0.003749 0.000728 0.000000 0.000000 0.000000
# 2 -0.003749 0.006448 -0.002267 0.000000 0.000000 0.000000
# 3 0.000728 -0.002267 0.015715 0.000000 0.000000 0.000000
# 4 0.000000 0.000000 0.000000 0.085824 0.000000 0.000000
# 5 0.000000 0.000000 0.000000 0.000000 0.021136 0.000000
# 6 0.000000 0.000000 0.000000 0.000000 0.000000 0.021264
#
#
# Mechanical properties :
#
#
# Convention : Reuss Voigt Hill
#
# Bulk Modulus (GPa) = 52.93944 89.08700 71.01322
# Shear Modulus (GPa) = 28.64328 44.10907 36.37617
#
# Velocity S-wave (km/s) = 3.72595 4.62370 4.19889
# Velocity P-wave (km/s) = 6.64596 8.46659 7.61091
#
# Compressibility (1/GPa) = 0.01888951
#
# Stress axis : x y z
#
# Youngs Moduli (GPa) = 136.94724 155.09240 63.63271
#
# Poissons Ratio (x) = 0.58147 -0.04635
# Poissons Ratio (y) = 0.51344 0.14425
# Poissons Ratio (z) = -0.09975 0.35158
#
# Static dielectric constant tensor:
#      x y z
#    x 1.715100 0.000000 0.000000 
#    y 0.000000 1.739060 0.000000 
#    z 0.000000 0.000000 1.771550 
# 
# From -- ./inp_files/10329.got.cif
#   From: 2010.05.17/outbox.cif.g08.bks.cpg/sg71_6_cif.got.tgz:10329.got - 2010.06.03 16:22:01.
