data_PCOD9522226
_publ_section_title
;
Structure prediction by ZEFSAII (Michael W. Deem and Ramdas Pophale) SiO2 
 PCOD9522226
Probable space group: I M M M
;
_chemical_formula_sum "Si O2"
_cell_formula_units_Z 66
_cell_length_a 10.581652
_cell_length_b 33.881359
_cell_length_c 10.454577
_cell_angle_alpha 90.000000
_cell_angle_beta 90.000000
_cell_angle_gamma 90.000000
_cell_volume 3748.182789
_symmetry_space_group_name_H-M "I M M M"
_symmetry_group_IT_number 71
_symmetry_cell_setting 'orthorhombic'
loop_
_space_group_symop_operation_xyz
x,y,z
-x,-y,z
x,-y,-z
-x,y,-z
-x,-y,-z
x,y,-z
-x,y,z
x,-y,z
1/2+x,1/2+y,1/2+z
1/2-x,1/2-y,1/2+z
1/2+x,1/2-y,1/2-z
1/2-x,1/2+y,1/2-z
1/2-x,1/2-y,1/2-z
1/2+x,1/2+y,1/2-z
1/2-x,1/2+y,1/2+z
1/2+x,1/2-y,1/2+z
loop_
_atom_site_type_symbol
_atom_site_label
_atom_site_fract_x
_atom_site_fract_y
_atom_site_fract_z
Si Si1 0.737962 0.544408 0.346822
Si Si2 0.000000 0.500000 0.000000
Si Si3 0.000000 0.901778 0.154148
Si Si4 0.000000 0.833616 0.642142
Si Si5 0.260772 0.214491 0.649404
Si Si6 0.500000 0.067994 0.276659
Si Si7 0.000000 0.660513 0.152771
O O1 0.737771 0.542630 0.500000
O O2 0.716865 0.500000 0.297037
O O3 0.623659 0.572918 0.311030
O O4 0.872472 0.559648 0.301038
O O5 0.000000 0.464493 0.110328
O O6 0.000000 0.863204 0.239873
O O7 0.000000 0.894731 0.000000
O O8 0.126751 0.807791 0.649453
O O9 0.000000 0.853096 0.500000
O O10 0.284967 0.226777 0.500000
O O11 0.250000 0.250000 0.750000
O O12 0.374013 0.184837 0.690481
O O13 0.500000 0.114585 0.309399
O O14 0.000000 0.660399 0.000000
#
# Coordination Sequence:
#
# PCOD9522226 Si02
#       7
#    16   2   8   8  16   8   8
#     4  10  20  36  57  79 109 149 191 241 290 339
#     4  12  24  36  58  90 120 164 196 252 284 352
#     4  10  21  37  57  83 111 147 194 237 283 345
#     4  10  21  38  55  81 113 148 178 226 290 346
#     4  10  21  38  59  83 110 147 187 230 289 350
#     4  12  21  38  57  87 118 151 203 240 290 343
#     4  10  21  36  57  81 114 152 187 230 283 347
#
# _framework density 17.608533000000001
#
# number of rings (size 3 to 8) (size 9 to 14) (size 15 to 20)
#    0.000    1.697    1.818    2.909    0.000    3.394 
#    2.182    2.424    0.000    1.455    0.000    0.000 
#    0.000    0.000    0.000    0.000    0.000    0.000 
#
# Total GULP energy -183752.325053 kJ/mol
# GULP energy per Si atom -5568.252274 kJ/mol
# Density = 1.756845 g / cm^3
# Si number density = 17.608533 Si / 1000 Ang^3
#
#
#
# Elastic Constant Matrix: (Units=GPa)
#
#
# Indices 1 2 3 4 5 6 
#
# 1 111.2716 35.4044 26.7468 -0.0004 -0.0005 0.0002
# 2 35.4044 127.8783 53.4834 -0.0001 -0.0004 0.0002
# 3 26.7468 53.4834 47.3290 0.0026 0.0008 -0.0011
# 4 -0.0004 -0.0001 0.0026 40.2610 0.0002 -0.0003
# 5 -0.0005 -0.0004 0.0008 0.0002 4.5071 -0.0003
# 6 0.0002 0.0002 -0.0011 -0.0003 -0.0003 31.2239
#
#
#
# Elastic Compliance Matrix: (Units=1/GPa)
#
#
# Indices 1 2 3 4 5 6 
#
# 1 0.010443 -0.000802 -0.004995 0.000000 0.000002 0.000000
# 2 -0.000802 0.014890 -0.016372 0.000001 0.000004 -0.000001
# 3 -0.004995 -0.016372 0.042453 -0.000003 -0.000009 0.000002
# 4 0.000000 0.000001 -0.000003 0.024838 -0.000001 0.000000
# 5 0.000002 0.000004 -0.000009 -0.000001 0.221870 0.000002
# 6 0.000000 -0.000001 0.000002 0.000000 0.000002 0.032027
#
#
# Mechanical properties :
#
#
# Convention : Reuss Voigt Hill
#
# Bulk Modulus (GPa) = 42.65097 57.52755 50.08926
# Shear Modulus (GPa) = 12.54153 26.58803 19.56478
#
# Velocity S-wave (km/s) = 2.67168 3.89002 3.33693
# Velocity P-wave (km/s) = 5.81305 7.27445 6.58442
#
# Compressibility (1/GPa) = 0.02344613
#
# Stress axis : x y z
#
# Youngs Moduli (GPa) = 95.75846 67.16109 23.55537
#
# Poissons Ratio (x) = 0.05387 0.11766
# Poissons Ratio (y) = 0.07680 0.38566
# Poissons Ratio (z) = 0.47834 1.09959
#
# Static dielectric constant tensor:
#      x y z
#    x 1.583790 0.000000 0.000000 
#    y 0.000000 1.599650 0.000000 
#    z 0.000000 0.000000 1.597600 
# 
# From -- ./inp_files/18549.got.cif
#   From: 2010.05.17/outbox.cif.g08.bks.cpg/sg71_10_cif.got.tgz:18549.got - 2010.06.03 16:22:01.
