data_PCOD9522121
_publ_section_title
;
Structure prediction by ZEFSAII (Michael W. Deem and Ramdas Pophale) SiO2 
 PCOD9522121
Probable space group: I M M M
;
_chemical_formula_sum "Si O2"
_cell_formula_units_Z 72
_cell_length_a 27.626602
_cell_length_b 19.072704
_cell_length_c 7.441805
_cell_angle_alpha 90.000000
_cell_angle_beta 90.000000
_cell_angle_gamma 90.000000
_cell_volume 3921.191258
_symmetry_space_group_name_H-M "I M M M"
_symmetry_group_IT_number 71
_symmetry_cell_setting 'orthorhombic'
loop_
_space_group_symop_operation_xyz
x,y,z
-x,-y,z
x,-y,-z
-x,y,-z
-x,-y,-z
x,y,-z
-x,y,z
x,-y,z
1/2+x,1/2+y,1/2+z
1/2-x,1/2-y,1/2+z
1/2+x,1/2-y,1/2-z
1/2-x,1/2+y,1/2-z
1/2-x,1/2-y,1/2-z
1/2+x,1/2+y,1/2-z
1/2-x,1/2+y,1/2+z
1/2+x,1/2-y,1/2+z
loop_
_atom_site_type_symbol
_atom_site_label
_atom_site_fract_x
_atom_site_fract_y
_atom_site_fract_z
Si Si1 0.000000 0.079158 0.717896
Si Si2 0.297976 0.153592 0.205177
Si Si3 0.085344 0.816902 0.283405
Si Si4 0.557629 0.199955 0.500000
Si Si5 0.362012 0.081944 0.500000
Si Si6 0.806115 0.184036 0.715611
O O1 0.046999 0.123761 0.768346
O O2 0.000000 0.076369 0.500000
O O3 0.000000 0.000000 0.784815
O O4 0.328867 0.103404 0.329938
O O5 0.240048 0.142790 0.211253
O O6 0.303745 0.234122 0.272550
O O7 0.314824 0.150519 0.000000
O O8 0.082821 0.804882 0.500000
O O9 0.071912 0.747374 0.172857
O O10 0.140012 0.840025 0.239034
O O11 0.500000 0.187346 0.500000
O O12 0.590367 0.130572 0.500000
O O13 0.373178 0.000000 0.500000
O O14 0.801027 0.183287 0.500000
#
# Coordination Sequence:
#
# PCOD9522121 Si02
#       6
#     8  16  16   8   8  16
#     4   9  18  35  57  83 120 162 192 230 296 361
#     4  10  20  35  59  90 119 152 193 245 298 361
#     4  10  20  35  58  90 123 156 199 250 295 353
#     4  12  24  39  64  92 110 152 215 265 311 361
#     4  12  26  43  60  84 126 163 200 258 321 379
#     4   9  17  31  58  92 120 148 195 246 288 339
#
# _framework density 18.361767
#
# number of rings (size 3 to 8) (size 9 to 14) (size 15 to 20)
#    0.000    1.889    4.444    0.000    3.111    0.667 
#    0.000    2.222    0.000    0.000    0.000    3.111 
#    0.000    0.000    0.000    0.000    0.000    0.000 
#
# Total GULP energy -200937.767190 kJ/mol
# GULP energy per Si atom -5581.604644 kJ/mol
# Density = 1.831997 g / cm^3
# Si number density = 18.361767 Si / 1000 Ang^3
#
#
#
# Elastic Constant Matrix: (Units=GPa)
#
#
# Indices 1 2 3 4 5 6 
#
# 1 159.5776 57.7980 29.5733 0.0000 0.0000 0.0000
# 2 57.7980 110.0924 31.5200 0.0000 0.0000 0.0000
# 3 29.5733 31.5200 84.5361 0.0000 0.0000 0.0000
# 4 0.0000 0.0000 0.0000 11.7962 0.0000 0.0000
# 5 0.0000 0.0000 0.0000 0.0000 16.4465 0.0000
# 6 0.0000 0.0000 0.0000 0.0000 0.0000 22.7964
#
#
#
# Elastic Compliance Matrix: (Units=1/GPa)
#
#
# Indices 1 2 3 4 5 6 
#
# 1 0.007875 -0.003745 -0.001358 0.000000 0.000000 0.000000
# 2 -0.003745 0.011950 -0.003145 0.000000 0.000000 0.000000
# 3 -0.001358 -0.003145 0.013477 0.000000 0.000000 0.000000
# 4 0.000000 0.000000 0.000000 0.084773 0.000000 0.000000
# 5 0.000000 0.000000 0.000000 0.000000 0.060803 0.000000
# 6 0.000000 0.000000 0.000000 0.000000 0.000000 0.043867
#
#
# Mechanical properties :
#
#
# Convention : Reuss Voigt Hill
#
# Bulk Modulus (GPa) = 59.51009 65.77651 62.64330
# Shear Modulus (GPa) = 20.42111 25.89547 23.15829
#
# Velocity S-wave (km/s) = 3.33851 3.75946 3.55522
# Velocity P-wave (km/s) = 6.88048 7.39899 7.14444
#
# Compressibility (1/GPa) = 0.01680387
#
# Stress axis : x y z
#
# Youngs Moduli (GPa) = 126.98703 83.68112 74.19895
#
# Poissons Ratio (x) = 0.31341 0.10079
# Poissons Ratio (y) = 0.47561 0.23339
# Poissons Ratio (z) = 0.17250 0.26322
#
# Static dielectric constant tensor:
#      x y z
#    x 1.651920 0.000000 0.000000 
#    y 0.000000 1.595400 0.000000 
#    z 0.000000 0.000000 1.671870 
# 
# From -- ./inp_files/14389.got.cif
#   From: 2010.05.17/outbox.cif.g08.bks.cpg/sg71_8_cif.got.tgz:14389.got - 2010.06.03 16:22:01.
