data_PCOD9522257
_publ_section_title
;
Structure prediction by ZEFSAII (Michael W. Deem and Ramdas Pophale) SiO2 
 PCOD9522257
Probable space group: I M M M
;
_chemical_formula_sum "Si O2"
_cell_formula_units_Z 88
_cell_length_a 7.806039
_cell_length_b 19.308353
_cell_length_c 29.218457
_cell_angle_alpha 90.000000
_cell_angle_beta 90.000000
_cell_angle_gamma 90.000000
_cell_volume 4403.857163
_symmetry_space_group_name_H-M "I M M M"
_symmetry_group_IT_number 71
_symmetry_cell_setting 'orthorhombic'
loop_
_space_group_symop_operation_xyz
x,y,z
-x,-y,z
x,-y,-z
-x,y,-z
-x,-y,-z
x,y,-z
-x,y,z
x,-y,z
1/2+x,1/2+y,1/2+z
1/2-x,1/2-y,1/2+z
1/2+x,1/2-y,1/2-z
1/2-x,1/2+y,1/2-z
1/2-x,1/2-y,1/2-z
1/2+x,1/2+y,1/2-z
1/2-x,1/2+y,1/2+z
1/2+x,1/2-y,1/2+z
loop_
_atom_site_type_symbol
_atom_site_label
_atom_site_fract_x
_atom_site_fract_y
_atom_site_fract_z
Si Si1 0.207649 0.889158 0.000000
Si Si2 0.705236 0.143382 0.776436
Si Si3 0.202736 0.353879 0.089376
Si Si4 0.793384 0.000000 0.074418
Si Si5 0.289583 0.000000 0.553189
Si Si6 0.800222 0.229318 0.500000
Si Si7 0.207531 0.712660 0.182631
Si Si8 0.294583 0.000000 0.818946
O O1 0.272306 0.811374 0.000000
O O2 0.261952 0.933156 0.044697
O O3 0.000000 0.887171 0.000000
O O4 0.500000 0.136978 0.772691
O O5 0.742335 0.207645 0.809896
O O6 0.769048 0.168423 0.726580
O O7 0.772504 0.070506 0.795495
O O8 0.271162 0.429911 0.077292
O O9 0.272848 0.318870 0.135214
O O10 0.000000 0.362796 0.097116
O O11 0.223912 0.305225 0.045390
O O12 0.737592 0.000000 0.126746
O O13 0.000000 0.000000 0.074019
O O14 0.500000 0.000000 0.553475
O O15 0.238971 0.000000 0.500000
O O16 0.000000 0.213511 0.500000
O O17 0.000000 0.710837 0.182853
O O18 0.500000 0.000000 0.812914
#
# Coordination Sequence:
#
# PCOD9522257 Si02
#       8
#     8  16  16   8   8   8  16   8
#     4   9  20  40  59  77 107 144 184 231 272 314
#     4   9  19  36  54  77 112 144 176 219 268 321
#     4  10  20  36  58  81 106 139 184 229 270 318
#     4   9  20  38  59  81 106 142 186 229 272 315
#     4   9  16  31  55  78 102 133 172 222 270 310
#     4  12  25  36  52  82 114 146 179 218 274 336
#     4   9  19  35  57  81 104 140 183 224 267 313
#     4  10  21  34  53  81 116 150 176 216 275 328
#
# _framework density 19.982481
#
# number of rings (size 3 to 8) (size 9 to 14) (size 15 to 20)
#    0.000    2.455    0.909    1.364    2.545    2.909 
#    0.000    5.455    0.000    0.000    0.000    3.818 
#    0.000    0.000    0.000    0.000    0.000    0.000 
#
# Total GULP energy -245585.177429 kJ/mol
# GULP energy per Si atom -5581.481305 kJ/mol
# Density = 1.993700 g / cm^3
# Si number density = 19.982481 Si / 1000 Ang^3
#
#
#
# Elastic Constant Matrix: (Units=GPa)
#
#
# Indices 1 2 3 4 5 6 
#
# 1 21.1169 -4.0541 -4.3923 0.0000 0.0000 0.0000
# 2 -4.0541 207.4741 116.2987 0.0000 0.0000 0.0000
# 3 -4.3923 116.2987 157.2742 0.0000 0.0000 0.0000
# 4 0.0000 0.0000 0.0000 75.2751 0.0000 0.0000
# 5 0.0000 0.0000 0.0000 0.0000 0.5683 0.0000
# 6 0.0000 0.0000 0.0000 0.0000 0.0000 -10.8343
#
#
#
# Elastic Compliance Matrix: (Units=1/GPa)
#
#
# Indices 1 2 3 4 5 6 
#
# 1 0.047644 0.000316 0.001097 0.000000 0.000000 0.000000
# 2 0.000316 0.008234 -0.006080 0.000000 0.000000 0.000000
# 3 0.001097 -0.006080 0.010885 0.000000 0.000000 0.000000
# 4 0.000000 0.000000 0.000000 0.013285 0.000000 0.000000
# 5 0.000000 0.000000 0.000000 0.000000 1.759705 0.000000
# 6 0.000000 0.000000 0.000000 0.000000 0.000000 -0.092300
#
#
# Mechanical properties :
#
#
# Convention : Reuss Voigt Hill
#
# Bulk Modulus (GPa) = 17.41277 66.84109 42.12693
# Shear Modulus (GPa) = 2.81542 31.53602 17.17572
#
# Velocity S-wave (km/s) = 1.18828 3.97695 2.93497
# Velocity P-wave (km/s) = 3.25816 7.38990 5.71079
#
# Compressibility (1/GPa) = 0.05742910
#
# Stress axis : x y z
#
# Youngs Moduli (GPa) = 20.98893 121.44438 91.86987
#
# Poissons Ratio (x) = -0.03840 -0.10076
# Poissons Ratio (y) = -0.00664 0.55858
# Poissons Ratio (z) = -0.02302 0.73839
#
# Static dielectric constant tensor:
#      x y z
#    x 1.742180 0.000000 0.000000 
#    y 0.000000 1.686620 0.000000 
#    z 0.000000 0.000000 1.637400 
# 
# From -- ./inp_files/68100.got.cif
#   From: 2010.05.17/outbox.cif.g08.bks.cpg/sg71_35_cif.got.tgz:68100.got - 2010.06.03 16:22:01.
