data_PCOD9522002
_publ_section_title
;
Structure prediction by ZEFSAII (Michael W. Deem and Ramdas Pophale) SiO2 
 PCOD9522002
Probable space group: I M M M
;
_chemical_formula_sum "Si O2"
_cell_formula_units_Z 104
_cell_length_a 26.980573
_cell_length_b 22.307115
_cell_length_c 7.654552
_cell_angle_alpha 90.000000
_cell_angle_beta 90.000000
_cell_angle_gamma 90.000000
_cell_volume 4606.959058
_symmetry_space_group_name_H-M "I M M M"
_symmetry_group_IT_number 71
_symmetry_cell_setting 'orthorhombic'
loop_
_space_group_symop_operation_xyz
x,y,z
-x,-y,z
x,-y,-z
-x,y,-z
-x,-y,-z
x,y,-z
-x,y,z
x,-y,z
1/2+x,1/2+y,1/2+z
1/2-x,1/2-y,1/2+z
1/2+x,1/2-y,1/2-z
1/2-x,1/2+y,1/2-z
1/2-x,1/2-y,1/2-z
1/2+x,1/2+y,1/2-z
1/2-x,1/2+y,1/2+z
1/2+x,1/2-y,1/2+z
loop_
_atom_site_type_symbol
_atom_site_label
_atom_site_fract_x
_atom_site_fract_y
_atom_site_fract_z
Si Si1 0.444463 0.500000 0.713549
Si Si2 0.784628 0.693013 0.210462
Si Si3 0.395924 0.187703 0.288260
Si Si4 0.239195 0.068487 0.701867
Si Si5 0.945519 0.805021 0.296315
Si Si6 0.057463 0.434164 0.212866
Si Si7 0.870051 0.899190 0.202333
O O1 0.500000 0.500000 0.779024
O O2 0.446489 0.500000 0.500000
O O3 0.412963 0.443035 0.768679
O O4 0.750000 0.750000 0.250000
O O5 0.840698 0.704301 0.270918
O O6 0.766186 0.627703 0.278267
O O7 0.785247 0.688355 0.000000
O O8 0.396901 0.189202 0.500000
O O9 0.436577 0.234585 0.224342
O O10 0.409600 0.121036 0.229347
O O11 0.255420 0.064196 0.500000
O O12 0.181321 0.087593 0.704719
O O13 0.244249 0.000000 0.774767
O O14 0.945153 0.820592 0.500000
O O15 0.897032 0.835474 0.213456
O O16 0.000000 0.822303 0.223457
O O17 0.074181 0.500000 0.270767
O O18 0.000000 0.426095 0.263766
O O19 0.058198 0.434222 0.000000
O O20 0.859926 0.913017 0.000000
#
# Coordination Sequence:
#
# PCOD9522002 Si02
#       7
#     8  16  16  16  16  16  16
#     4   9  18  32  51  77 107 135 169 221 276 319
#     4  10  22  38  56  81 110 146 190 236 286 335
#     4  10  20  35  57  83 109 142 189 237 280 331
#     4  10  21  38  59  83 117 157 193 233 288 349
#     4  11  24  39  55  80 115 152 188 228 282 346
#     4   8  14  26  48  80 113 139 166 211 271 328
#     4  11  21  36  58  83 111 144 188 235 279 328
#
# _framework density 22.574545000000001
#
# number of rings (size 3 to 8) (size 9 to 14) (size 15 to 20)
#    0.000    2.077    0.769    3.231    0.000    6.769 
#    0.000    3.077    0.000    2.308    0.000    4.308 
#    0.000    0.000    0.000    0.000    0.000    0.000 
#
# Total GULP energy -290300.351818 kJ/mol
# GULP energy per Si atom -5582.699073 kJ/mol
# Density = 2.252316 g / cm^3
# Si number density = 22.574545 Si / 1000 Ang^3
#
#
#
# Elastic Constant Matrix: (Units=GPa)
#
#
# Indices 1 2 3 4 5 6 
#
# 1 61.3727 25.1048 -1.8602 0.0000 0.0000 0.0000
# 2 25.1048 126.6299 -2.0190 0.0000 0.0000 0.0000
# 3 -1.8602 -2.0190 49.0339 0.0000 0.0000 0.0000
# 4 0.0000 0.0000 0.0000 21.4613 0.0000 0.0000
# 5 0.0000 0.0000 0.0000 0.0000 8.8695 0.0000
# 6 0.0000 0.0000 0.0000 0.0000 0.0000 31.1230
#
#
#
# Elastic Compliance Matrix: (Units=1/GPa)
#
#
# Indices 1 2 3 4 5 6 
#
# 1 0.017746 -0.003510 0.000529 0.000000 0.000000 0.000000
# 2 -0.003510 0.008596 0.000221 0.000000 0.000000 0.000000
# 3 0.000529 0.000221 0.020423 0.000000 0.000000 0.000000
# 4 0.000000 0.000000 0.000000 0.046596 0.000000 0.000000
# 5 0.000000 0.000000 0.000000 0.000000 0.112746 0.000000
# 6 0.000000 0.000000 0.000000 0.000000 0.000000 0.032131
#
#
# Mechanical properties :
#
#
# Convention : Reuss Voigt Hill
#
# Bulk Modulus (GPa) = 24.24549 31.05418 27.64983
# Shear Modulus (GPa) = 19.41700 26.67815 23.04758
#
# Velocity S-wave (km/s) = 2.93598 3.44143 3.19870
# Velocity P-wave (km/s) = 4.71771 5.43851 5.09088
#
# Compressibility (1/GPa) = 0.04124479
#
# Stress axis : x y z
#
# Youngs Moduli (GPa) = 56.35212 116.32842 48.96390
#
# Poissons Ratio (x) = 0.40828 -0.02589
# Poissons Ratio (y) = 0.19778 -0.01081
# Poissons Ratio (z) = -0.02979 -0.02569
#
# Static dielectric constant tensor:
#      x y z
#    x 1.829700 0.000000 0.000000 
#    y 0.000000 1.897920 0.000000 
#    z 0.000000 0.000000 1.875170 
# 
# From -- ./inp_files/14972.got.cif
#   From: 2010.05.17/outbox.cif.g08.bks.cpg/sg71_8_cif.got.tgz:14972.got - 2010.06.03 16:22:01.
