data_PCOD9522077
_publ_section_title
;
Structure prediction by ZEFSAII (Michael W. Deem and Ramdas Pophale) SiO2 
 PCOD9522077
Probable space group: I M M M
;
_chemical_formula_sum "Si O2"
_cell_formula_units_Z 64
_cell_length_a 12.966004
_cell_length_b 30.400178
_cell_length_c 7.470155
_cell_angle_alpha 90.000000
_cell_angle_beta 90.000000
_cell_angle_gamma 90.000000
_cell_volume 2944.502253
_symmetry_space_group_name_H-M "I M M M"
_symmetry_group_IT_number 71
_symmetry_cell_setting 'orthorhombic'
loop_
_space_group_symop_operation_xyz
x,y,z
-x,-y,z
x,-y,-z
-x,y,-z
-x,-y,-z
x,y,-z
-x,y,z
x,-y,z
1/2+x,1/2+y,1/2+z
1/2-x,1/2-y,1/2+z
1/2+x,1/2-y,1/2-z
1/2-x,1/2+y,1/2-z
1/2-x,1/2-y,1/2-z
1/2+x,1/2+y,1/2-z
1/2-x,1/2+y,1/2+z
1/2+x,1/2-y,1/2+z
loop_
_atom_site_type_symbol
_atom_site_label
_atom_site_fract_x
_atom_site_fract_y
_atom_site_fract_z
Si Si1 0.297637 0.175632 0.796838
Si Si2 0.122433 0.000000 0.219237
Si Si3 0.230083 0.579689 0.292643
Si Si4 0.500000 0.947624 0.297191
Si Si5 0.612385 0.262313 0.217092
O O1 0.272115 0.128763 0.711652
O O2 0.375488 0.211826 0.719087
O O3 0.195492 0.205308 0.798016
O O4 0.333945 0.166292 0.000000
O O5 0.190486 0.042695 0.278994
O O6 0.000000 0.000000 0.271069
O O7 0.123576 0.000000 0.000000
O O8 0.261468 0.584443 0.500000
O O9 0.110068 0.565193 0.285831
O O10 0.500000 0.929983 0.500000
O O11 0.500000 0.000000 0.301529
O O12 0.500000 0.278993 0.258403
O O13 0.626076 0.261821 0.000000
#
# Coordination Sequence:
#
# PCOD9522077 Si02
#       5
#    16   8  16   8  16
#     4   9  19  33  52  78 104 134 177 225 264 311
#     4   9  18  33  53  80 110 137 174 225 270 313
#     4  10  20  35  58  83 107 142 184 224 271 322
#     4  11  23  37  55  81 115 147 177 223 273 324
#     4   9  18  33  51  72 104 142 175 215 267 318
#
# _framework density 21.735423000000001
#
# number of rings (size 3 to 8) (size 9 to 14) (size 15 to 20)
#    0.000    2.500    1.250    0.375    1.750    3.000 
#    0.000    2.500    0.000    1.500    0.000    0.000 
#    0.000    0.000    0.000    0.000    0.000    0.000 
#
# Total GULP energy -178195.690794 kJ/mol
# GULP energy per Si atom -5568.615337 kJ/mol
# Density = 2.168595 g / cm^3
# Si number density = 21.735423 Si / 1000 Ang^3
#
#
#
# Elastic Constant Matrix: (Units=GPa)
#
#
# Indices 1 2 3 4 5 6 
#
# 1 122.8004 36.0122 -11.5958 0.0093 0.0015 -0.0002
# 2 36.0122 146.9168 -2.4971 0.0067 -0.0043 -0.0002
# 3 -11.5958 -2.4971 61.2283 0.0277 0.0183 -0.0005
# 4 0.0093 0.0067 0.0277 -167.6213 -0.0674 0.0001
# 5 0.0015 -0.0043 0.0183 -0.0674 -37.8996 0.0004
# 6 -0.0002 -0.0002 -0.0005 0.0001 0.0004 -0.8840
#
#
#
# Elastic Compliance Matrix: (Units=1/GPa)
#
#
# Indices 1 2 3 4 5 6 
#
# 1 0.008928 -0.002161 0.001603 0.000001 0.000001 -0.000003
# 2 -0.002161 0.007334 -0.000110 0.000000 -0.000001 -0.000001
# 3 0.001603 -0.000110 0.016631 0.000003 0.000008 -0.000009
# 4 0.000001 0.000000 0.000003 -0.005966 0.000011 -0.000001
# 5 0.000001 -0.000001 0.000008 0.000011 -0.026386 -0.000011
# 6 -0.000003 -0.000001 -0.000009 -0.000001 -0.000011 -1.131279
#
#
# Mechanical properties :
#
#
# Convention : Reuss Voigt Hill
#
# Bulk Modulus (GPa) = 31.68881 41.64267 36.66574
# Shear Modulus (GPa) = -4.46876 -20.67923 -12.57399
#
# Velocity S-wave (km/s) = -1.43542 -3.08783 -2.40782
# Velocity P-wave (km/s) = 3.44438 2.54706 3.02913
#
# Compressibility (1/GPa) = 0.03155688
#
# Stress axis : x y z
#
# Youngs Moduli (GPa) = 112.00135 136.34240 60.12736
#
# Poissons Ratio (x) = 0.29468 -0.09637
# Poissons Ratio (y) = 0.24207 0.00663
# Poissons Ratio (z) = -0.17951 0.01502
#
# Static dielectric constant tensor:
#      x y z
#    x 1.763430 0.000000 0.000000 
#    y 0.000000 1.807910 0.000000 
#    z 0.000000 0.000000 1.895990 
# 
# From -- ./inp_files/3778.got.cif
#   From: 2010.05.17/outbox.cif.g08.bks.cpg/sg71_2_cif.got.tgz:3778.got - 2010.06.03 16:22:01.
