data_PCOD9522536
_publ_section_title
;
Structure prediction by ZEFSAII (Michael W. Deem and Ramdas Pophale) SiO2 
 PCOD9522536
Probable space group: I M M M
;
_chemical_formula_sum "Si O2"
_cell_formula_units_Z 72
_cell_length_a 10.217510
_cell_length_b 24.946924
_cell_length_c 15.531056
_cell_angle_alpha 90.000000
_cell_angle_beta 90.000000
_cell_angle_gamma 90.000000
_cell_volume 3958.795437
_symmetry_space_group_name_H-M "I M M M"
_symmetry_group_IT_number 71
_symmetry_cell_setting 'orthorhombic'
loop_
_space_group_symop_operation_xyz
x,y,z
-x,-y,z
x,-y,-z
-x,y,-z
-x,-y,-z
x,y,-z
-x,y,z
x,-y,z
1/2+x,1/2+y,1/2+z
1/2-x,1/2-y,1/2+z
1/2+x,1/2-y,1/2-z
1/2-x,1/2+y,1/2-z
1/2-x,1/2-y,1/2-z
1/2+x,1/2+y,1/2-z
1/2-x,1/2+y,1/2+z
1/2+x,1/2-y,1/2+z
loop_
_atom_site_type_symbol
_atom_site_label
_atom_site_fract_x
_atom_site_fract_y
_atom_site_fract_z
Si Si1 0.161172 0.709693 0.500000
Si Si2 0.000000 0.440837 0.396493
Si Si3 0.844689 0.616126 0.831031
Si Si4 0.255072 0.129847 0.849340
Si Si5 0.159067 0.500000 0.899127
Si Si6 0.000000 0.937665 0.103412
Si Si7 0.652288 0.188748 0.500000
O O1 0.213979 0.677643 0.584174
O O2 0.236581 0.766039 0.500000
O O3 0.000000 0.711134 0.500000
O O4 0.871958 0.411217 0.366959
O O5 0.000000 0.500000 0.360386
O O6 0.000000 0.441988 0.500000
O O7 0.767852 0.642399 0.751590
O O8 0.801125 0.555099 0.852051
O O9 0.832416 0.651351 0.916571
O O10 0.000000 0.614561 0.810054
O O11 0.124373 0.097149 0.868573
O O12 0.000000 0.500000 0.900351
O O13 0.200174 0.500000 0.000000
O O14 0.000000 0.000000 0.134220
O O15 0.000000 0.940193 0.000000
O O16 0.500000 0.209547 0.500000
#
# Coordination Sequence:
#
# PCOD9522536 Si02
#       7
#     8   8  16  16   8   8   8
#     4  12  24  44  64  88 120 160 210 271 314 359
#     4  11  20  34  58  90 124 158 198 243 302 368
#     4  10  20  37  62  97 124 159 206 253 300 369
#     4  12  22  39  62  90 125 162 205 249 310 366
#     4   9  16  30  60  92 129 156 194 251 305 352
#     4  11  24  40  58  88 134 172 202 243 302 380
#     4  10  24  43  66  89 121 162 213 259 312 365
#
# _framework density 18.187349999999999
#
# number of rings (size 3 to 8) (size 9 to 14) (size 15 to 20)
#    0.000    1.222    5.556    0.667    4.667    2.667 
#    2.000    0.000    0.000    0.000    0.000    2.333 
#    0.000    0.000    0.000    0.000    0.000    0.000 
#
# Total GULP energy -200876.655061 kJ/mol
# GULP energy per Si atom -5579.907085 kJ/mol
# Density = 1.814595 g / cm^3
# Si number density = 18.187350 Si / 1000 Ang^3
#
#
#
# Elastic Constant Matrix: (Units=GPa)
#
#
# Indices 1 2 3 4 5 6 
#
# 1 122.6562 51.8830 35.4019 0.0000 0.0000 0.0000
# 2 51.8830 105.1358 41.9212 0.0000 0.0000 0.0000
# 3 35.4019 41.9212 136.4861 0.0001 0.0000 0.0000
# 4 0.0000 0.0000 0.0001 -17.1028 0.0000 0.0000
# 5 0.0000 0.0000 0.0000 0.0000 16.9863 0.0000
# 6 0.0000 0.0000 0.0000 0.0000 0.0000 59.3351
#
#
#
# Elastic Compliance Matrix: (Units=1/GPa)
#
#
# Indices 1 2 3 4 5 6 
#
# 1 0.010499 -0.004667 -0.001290 0.000000 0.000000 0.000000
# 2 -0.004667 0.012913 -0.002756 0.000000 0.000000 0.000000
# 3 -0.001290 -0.002756 0.008508 0.000000 0.000000 0.000000
# 4 0.000000 0.000000 0.000000 -0.058470 0.000000 0.000000
# 5 0.000000 0.000000 0.000000 0.000000 0.058871 0.000000
# 6 0.000000 0.000000 0.000000 0.000000 0.000000 0.016853
#
#
# Mechanical properties :
#
#
# Convention : Reuss Voigt Hill
#
# Bulk Modulus (GPa) = 68.98824 69.18782 69.08803
# Shear Modulus (GPa) = 69.99702 27.51519 48.75611
#
# Velocity S-wave (km/s) = 6.21049 3.89379 5.18323
# Velocity P-wave (km/s) = 9.45734 7.63805 8.59596
#
# Compressibility (1/GPa) = 0.01449523
#
# Stress axis : x y z
#
# Youngs Moduli (GPa) = 95.24503 77.43906 117.53976
#
# Poissons Ratio (x) = 0.36140 0.15161
# Poissons Ratio (y) = 0.44450 0.32392
# Poissons Ratio (z) = 0.12286 0.21341
#
# Static dielectric constant tensor:
#      x y z
#    x 1.601670 0.000000 0.000000 
#    y 0.000000 1.618620 0.000000 
#    z 0.000000 0.000000 1.738280 
# 
# From -- ./inp_files/14407.got.cif
#   From: 2010.05.17/outbox.cif.g08.bks.cpg/sg71_8_cif.got.tgz:14407.got - 2010.06.03 16:22:01.
