data_PCOD9522057
_publ_section_title
;
Structure prediction by ZEFSAII (Michael W. Deem and Ramdas Pophale) SiO2 
 PCOD9522057
Probable space group: I M M M
;
_chemical_formula_sum "Si O2"
_cell_formula_units_Z 96
_cell_length_a 14.229634
_cell_length_b 12.698147
_cell_length_c 28.098708
_cell_angle_alpha 90.000000
_cell_angle_beta 90.000000
_cell_angle_gamma 90.000000
_cell_volume 5077.155107
_symmetry_space_group_name_H-M "I M M M"
_symmetry_group_IT_number 71
_symmetry_cell_setting 'orthorhombic'
loop_
_space_group_symop_operation_xyz
x,y,z
-x,-y,z
x,-y,-z
-x,y,-z
-x,-y,-z
x,y,-z
-x,y,z
x,-y,z
1/2+x,1/2+y,1/2+z
1/2-x,1/2-y,1/2+z
1/2+x,1/2-y,1/2-z
1/2-x,1/2+y,1/2-z
1/2-x,1/2-y,1/2-z
1/2+x,1/2+y,1/2-z
1/2-x,1/2+y,1/2+z
1/2+x,1/2-y,1/2+z
loop_
_atom_site_type_symbol
_atom_site_label
_atom_site_fract_x
_atom_site_fract_y
_atom_site_fract_z
Si Si1 0.889509 0.879638 0.875207
Si Si2 0.723065 0.380044 0.118509
Si Si3 0.110956 0.689375 0.056013
Si Si4 0.894028 0.727631 0.444468
Si Si5 0.607021 0.000000 0.810074
Si Si6 0.736505 0.204234 0.197670
Si Si7 0.107374 0.500000 0.576455
O O1 0.876277 0.805940 0.921410
O O2 0.826748 0.842090 0.830748
O O3 0.000000 0.873109 0.862886
O O4 0.865053 0.000000 0.885978
O O5 0.698414 0.500000 0.129143
O O6 0.825070 0.376740 0.092497
O O7 0.657938 0.322517 0.080200
O O8 0.712278 0.303781 0.163922
O O9 0.000000 0.662888 0.058822
O O10 0.138277 0.682615 0.000000
O O11 0.898351 0.747009 0.500000
O O12 0.848841 0.611861 0.437425
O O13 0.000000 0.719860 0.424518
O O14 0.662647 0.892339 0.798401
O O15 0.601985 0.000000 0.867118
O O16 0.500000 0.000000 0.791142
O O17 0.750000 0.250000 0.250000
O O18 0.000000 0.500000 0.555974
#
# Coordination Sequence:
#
# PCOD9522057 Si02
#       7
#    16  16  16  16   8  16   8
#     4   9  18  35  60  88 119 152 192 242 300 362
#     4  11  24  39  56  83 119 156 200 245 296 352
#     4   9  19  36  57  83 116 156 200 245 293 347
#     4  10  20  35  57  86 120 158 197 238 286 345
#     4  11  22  41  69  96 121 153 197 253 305 355
#     4  11  24  41  65  87 119 154 200 248 309 360
#     4   9  17  34  59  87 117 149 191 241 289 336
#
# _framework density 18.908225999999999
#
# number of rings (size 3 to 8) (size 9 to 14) (size 15 to 20)
#    0.000    2.000    2.500    0.750    1.167    4.000 
#    0.000    3.333    0.000    0.000    0.000    0.000 
#    0.000    0.000    0.000    0.000    0.000    0.000 
#
# Total GULP energy -267563.115639 kJ/mol
# GULP energy per Si atom -5574.231576 kJ/mol
# Density = 1.886519 g / cm^3
# Si number density = 18.908226 Si / 1000 Ang^3
#
#
#
# Elastic Constant Matrix: (Units=GPa)
#
#
# Indices 1 2 3 4 5 6 
#
# 1 67.1329 48.3534 23.9808 0.0000 0.0000 0.0000
# 2 48.3534 170.8266 42.5546 0.0000 0.0000 0.0000
# 3 23.9808 42.5546 91.8913 0.0000 0.0000 0.0000
# 4 0.0000 0.0000 0.0000 19.6250 0.0000 0.0000
# 5 0.0000 0.0000 0.0000 0.0000 16.9308 0.0000
# 6 0.0000 0.0000 0.0000 0.0000 0.0000 7.1144
#
#
#
# Elastic Compliance Matrix: (Units=1/GPa)
#
#
# Indices 1 2 3 4 5 6 
#
# 1 0.019345 -0.004768 -0.002840 0.000000 0.000000 0.000000
# 2 -0.004768 0.007793 -0.002364 0.000000 0.000000 0.000000
# 3 -0.002840 -0.002364 0.012719 0.000000 0.000000 0.000000
# 4 0.000000 0.000000 0.000000 0.050955 0.000000 0.000000
# 5 0.000000 0.000000 0.000000 0.000000 0.059064 0.000000
# 6 0.000000 0.000000 0.000000 0.000000 0.000000 0.140559
#
#
# Mechanical properties :
#
#
# Convention : Reuss Voigt Hill
#
# Bulk Modulus (GPa) = 50.22522 62.18096 56.20309
# Shear Modulus (GPa) = 15.77206 23.06485 19.41846
#
# Velocity S-wave (km/s) = 2.89128 3.49640 3.20814
# Velocity P-wave (km/s) = 6.14543 7.01832 6.59633
#
# Compressibility (1/GPa) = 0.01991032
#
# Stress axis : x y z
#
# Youngs Moduli (GPa) = 51.69380 128.32842 78.62516
#
# Poissons Ratio (x) = 0.61188 0.22332
# Poissons Ratio (y) = 0.24648 0.18590
# Poissons Ratio (z) = 0.14682 0.30342
#
# Static dielectric constant tensor:
#      x y z
#    x 1.742930 0.000000 0.000000 
#    y 0.000000 1.655570 0.000000 
#    z 0.000000 0.000000 1.617560 
# 
# From -- ./inp_files/69891.got.cif
#   From: 2010.05.17/outbox.cif.g08.bks.cpg/sg71_35_cif.got.tgz:69891.got - 2010.06.03 16:22:01.
