data_PCOD9522693
_publ_section_title
;
Structure prediction by ZEFSAII (Michael W. Deem and Ramdas Pophale) SiO2 
 PCOD9522693
Probable space group: I M M M
;
_chemical_formula_sum "Si O2"
_cell_formula_units_Z 100
_cell_length_a 32.597598
_cell_length_b 7.384987
_cell_length_c 19.398229
_cell_angle_alpha 90.000000
_cell_angle_beta 90.000000
_cell_angle_gamma 90.000000
_cell_volume 4669.790709
_symmetry_space_group_name_H-M "I M M M"
_symmetry_group_IT_number 71
_symmetry_cell_setting 'orthorhombic'
loop_
_space_group_symop_operation_xyz
x,y,z
-x,-y,z
x,-y,-z
-x,y,-z
-x,-y,-z
x,y,-z
-x,y,z
x,-y,z
1/2+x,1/2+y,1/2+z
1/2-x,1/2-y,1/2+z
1/2+x,1/2-y,1/2-z
1/2-x,1/2+y,1/2-z
1/2-x,1/2-y,1/2-z
1/2+x,1/2+y,1/2-z
1/2-x,1/2+y,1/2+z
1/2+x,1/2-y,1/2+z
loop_
_atom_site_type_symbol
_atom_site_label
_atom_site_fract_x
_atom_site_fract_y
_atom_site_fract_z
Si Si1 0.790606 0.790487 0.916130
Si Si2 0.572437 0.210491 0.711728
Si Si3 0.880257 0.219690 0.079147
Si Si4 0.545732 0.718709 0.080730
Si Si5 0.700992 0.222440 0.079863
Si Si6 0.500000 0.500000 0.731792
Si Si7 0.374103 0.208044 0.830725
O O1 0.835016 0.713472 0.897460
O O2 0.746181 0.715464 0.896114
O O3 0.790822 0.000000 0.893808
O O4 0.790229 0.789201 0.000000
O O5 0.585205 0.221172 0.632094
O O6 0.535566 0.341975 0.729197
O O7 0.611350 0.277678 0.756977
O O8 0.564083 0.000000 0.729493
O O9 0.879100 0.000000 0.079069
O O10 0.887249 0.275904 0.000000
O O11 0.500000 0.776973 0.104135
O O12 0.545906 0.500000 0.085663
O O13 0.584621 0.784884 0.122924
O O14 0.549691 0.766800 0.000000
O O15 0.663877 0.287858 0.127418
O O16 0.701526 0.000000 0.079366
O O17 0.694472 0.275515 0.000000
O O18 0.362582 0.000000 0.819548
#
# Coordination Sequence:
#
# PCOD9522693 Si02
#       7
#    16  16  16  16  16   4  16
#     4   7  11  22  48  83 114 150 197 237 277 345
#     4  11  25  42  63  93 119 151 201 243 298 365
#     4   9  17  35  63  92 120 152 192 238 290 355
#     4   9  19  33  49  70  96 134 187 241 294 350
#     4   8  13  25  47  78 116 157 199 245 295 339
#     4  12  26  48  69  84 117 164 194 248 302 362
#     4  10  21  33  50  77 112 149 193 248 294 347
#
# _framework density 21.414235000000001
#
# number of rings (size 3 to 8) (size 9 to 14) (size 15 to 20)
#    0.000    2.880    0.800    3.120    2.240    1.600 
#    0.000    2.400    0.000    1.920    0.000    2.240 
#    0.000    0.000    0.000    0.000    0.000    0.000 
#
# Total GULP energy -278359.715031 kJ/mol
# GULP energy per Si atom -5567.194301 kJ/mol
# Density = 2.136550 g / cm^3
# Si number density = 21.414235 Si / 1000 Ang^3
#
#
#
# Elastic Constant Matrix: (Units=GPa)
#
#
# Indices 1 2 3 4 5 6 
#
# 1 35.1241 18.5561 0.1002 0.0000 0.0000 0.0000
# 2 18.5561 101.4953 7.4031 0.0000 0.0000 0.0000
# 3 0.1002 7.4031 45.9491 0.0000 0.0000 0.0000
# 4 0.0000 0.0000 0.0000 17.3267 0.0000 0.0000
# 5 0.0000 0.0000 0.0000 0.0000 -7.6756 0.0000
# 6 0.0000 0.0000 0.0000 0.0000 0.0000 6.1248
#
#
#
# Elastic Compliance Matrix: (Units=1/GPa)
#
#
# Indices 1 2 3 4 5 6 
#
# 1 0.031549 -0.005832 0.000871 0.000000 0.000000 0.000000
# 2 -0.005832 0.011048 -0.001767 0.000000 0.000000 0.000000
# 3 0.000871 -0.001767 0.022046 0.000000 0.000000 0.000000
# 4 0.000000 0.000000 0.000000 0.057714 0.000000 0.000000
# 5 0.000000 0.000000 0.000000 0.000000 -0.130284 0.000000
# 6 0.000000 0.000000 0.000000 0.000000 0.000000 0.163271
#
#
# Mechanical properties :
#
#
# Convention : Reuss Voigt Hill
#
# Bulk Modulus (GPa) = 19.53639 26.07638 22.80638
# Shear Modulus (GPa) = 26.90158 13.58912 20.24535
#
# Velocity S-wave (km/s) = 3.54820 2.52183 3.07810
# Velocity P-wave (km/s) = 5.09207 4.54786 4.82764
#
# Compressibility (1/GPa) = 0.05118653
#
# Stress axis : x y z
#
# Youngs Moduli (GPa) = 31.69693 90.51625 45.35964
#
# Poissons Ratio (x) = 0.52785 -0.03950
# Poissons Ratio (y) = 0.18484 0.08016
# Poissons Ratio (z) = -0.02760 0.15996
#
# Static dielectric constant tensor:
#      x y z
#    x 1.777260 0.000000 0.000000 
#    y 0.000000 1.868670 0.000000 
#    z 0.000000 0.000000 1.779500 
# 
# From -- ./inp_files/56248.got.cif
#   From: 2010.05.17/outbox.cif.g08.bks.cpg/sg71_29_cif.got.tgz:56248.got - 2010.06.03 16:22:01.
