data_PCOD9522184
_publ_section_title
;
Structure prediction by ZEFSAII (Michael W. Deem and Ramdas Pophale) SiO2 
 PCOD9522184
Probable space group: I M M M
;
_chemical_formula_sum "Si O2"
_cell_formula_units_Z 72
_cell_length_a 16.591758
_cell_length_b 13.348858
_cell_length_c 17.744730
_cell_angle_alpha 90.000000
_cell_angle_beta 90.000000
_cell_angle_gamma 90.000000
_cell_volume 3930.120927
_symmetry_space_group_name_H-M "I M M M"
_symmetry_group_IT_number 71
_symmetry_cell_setting 'orthorhombic'
loop_
_space_group_symop_operation_xyz
x,y,z
-x,-y,z
x,-y,-z
-x,y,-z
-x,-y,-z
x,y,-z
-x,y,z
x,-y,z
1/2+x,1/2+y,1/2+z
1/2-x,1/2-y,1/2+z
1/2+x,1/2-y,1/2-z
1/2-x,1/2+y,1/2-z
1/2-x,1/2-y,1/2-z
1/2+x,1/2+y,1/2-z
1/2-x,1/2+y,1/2+z
1/2+x,1/2-y,1/2+z
loop_
_atom_site_type_symbol
_atom_site_label
_atom_site_fract_x
_atom_site_fract_y
_atom_site_fract_z
Si Si1 0.905925 0.889973 0.867539
Si Si2 0.500000 0.620768 0.088870
Si Si3 0.097127 0.323979 0.918094
Si Si4 0.683211 0.110378 0.272755
Si Si5 0.137674 0.182788 0.702592
O O1 0.872572 0.791176 0.908026
O O2 0.900263 0.864734 0.778757
O O3 0.000000 0.895121 0.888481
O O4 0.870085 0.000000 0.882573
O O5 0.500000 0.500000 0.095235
O O6 0.578633 0.661129 0.133471
O O7 0.500000 0.646432 0.000000
O O8 0.129202 0.383910 0.847400
O O9 0.000000 0.322180 0.914982
O O10 0.121580 0.362431 0.000000
O O11 0.773745 0.134547 0.300421
O O12 0.652956 0.199486 0.218720
O O13 0.680337 0.000000 0.238574
#
# Coordination Sequence:
#
# PCOD9522184 Si02
#       5
#    16   8  16  16  16
#     4   9  15  26  50  75  98 133 168 208 258 301
#     4  11  22  36  59  87 116 149 179 223 287 341
#     4   9  19  33  46  70 107 139 174 215 256 309
#     4  10  21  35  56  80 104 143 184 224 274 321
#     4  10  20  36  55  81 111 135 179 232 269 323
#
# _framework density 18.320046999999999
#
# number of rings (size 3 to 8) (size 9 to 14) (size 15 to 20)
#    0.000    2.333    1.111    2.000    1.556    2.222 
#    0.000    3.333    0.000    1.333    0.000    0.000 
#    0.000    0.000    0.000    0.000    0.000    0.000 
#
# Total GULP energy -200676.547466 kJ/mol
# GULP energy per Si atom -5574.348541 kJ/mol
# Density = 1.827835 g / cm^3
# Si number density = 18.320047 Si / 1000 Ang^3
#
#
#
# Elastic Constant Matrix: (Units=GPa)
#
#
# Indices 1 2 3 4 5 6 
#
# 1 59.8100 25.7650 33.3256 0.0000 0.0000 0.0000
# 2 25.7650 123.4139 14.0640 0.0000 0.0000 0.0000
# 3 33.3256 14.0640 84.4913 0.0000 0.0000 0.0000
# 4 0.0000 0.0000 0.0000 3.9180 0.0000 0.0000
# 5 0.0000 0.0000 0.0000 0.0000 1.1632 0.0000
# 6 0.0000 0.0000 0.0000 0.0000 0.0000 12.7311
#
#
#
# Elastic Compliance Matrix: (Units=1/GPa)
#
#
# Indices 1 2 3 4 5 6 
#
# 1 0.023100 -0.003858 -0.008469 0.000000 0.000000 0.000000
# 2 -0.003858 0.008904 0.000039 0.000000 0.000000 0.000000
# 3 -0.008469 0.000039 0.015169 0.000000 0.000000 0.000000
# 4 0.000000 0.000000 0.000000 0.255230 0.000000 0.000000
# 5 0.000000 0.000000 0.000000 0.000000 0.859698 0.000000
# 6 0.000000 0.000000 0.000000 0.000000 0.000000 0.078548
#
#
# Mechanical properties :
#
#
# Convention : Reuss Voigt Hill
#
# Bulk Modulus (GPa) = 44.25016 46.00273 45.12645
# Shear Modulus (GPa) = 3.92848 16.53317 10.23082
#
# Velocity S-wave (km/s) = 1.46595 3.00736 2.36572
# Velocity P-wave (km/s) = 5.20305 6.10115 5.66991
#
# Compressibility (1/GPa) = 0.02259879
#
# Stress axis : x y z
#
# Youngs Moduli (GPa) = 43.28936 112.31349 65.92181
#
# Poissons Ratio (x) = 0.43325 0.55831
# Poissons Ratio (y) = 0.16699 -0.00260
# Poissons Ratio (z) = 0.36663 -0.00443
#
# Static dielectric constant tensor:
#      x y z
#    x 1.636290 0.000000 0.000000 
#    y 0.000000 1.687580 0.000000 
#    z 0.000000 0.000000 1.623130 
# 
# From -- ./inp_files/34081.got.cif
#   From: 2010.05.17/outbox.cif.g08.bks.cpg/sg71_18_cif.got.tgz:34081.got - 2010.06.03 16:22:01.
