data_PCOD9522567
_publ_section_title
;
Structure prediction by ZEFSAII (Michael W. Deem and Ramdas Pophale) SiO2 
 PCOD9522567
Probable space group: I M M M
;
_chemical_formula_sum "Si O2"
_cell_formula_units_Z 104
_cell_length_a 27.348006
_cell_length_b 7.900762
_cell_length_c 24.152840
_cell_angle_alpha 90.000000
_cell_angle_beta 90.000000
_cell_angle_gamma 90.000000
_cell_volume 5218.706230
_symmetry_space_group_name_H-M "I M M M"
_symmetry_group_IT_number 71
_symmetry_cell_setting 'orthorhombic'
loop_
_space_group_symop_operation_xyz
x,y,z
-x,-y,z
x,-y,-z
-x,y,-z
-x,-y,-z
x,y,-z
-x,y,z
x,-y,z
1/2+x,1/2+y,1/2+z
1/2-x,1/2-y,1/2+z
1/2+x,1/2-y,1/2-z
1/2-x,1/2+y,1/2-z
1/2-x,1/2-y,1/2-z
1/2+x,1/2+y,1/2-z
1/2-x,1/2+y,1/2+z
1/2+x,1/2-y,1/2+z
loop_
_atom_site_type_symbol
_atom_site_label
_atom_site_fract_x
_atom_site_fract_y
_atom_site_fract_z
Si Si1 0.556093 0.296586 0.241032
Si Si2 0.500000 0.796301 0.563543
Si Si3 0.631403 0.201754 0.145653
Si Si4 0.174659 0.204761 0.061682
Si Si5 0.052355 0.706380 0.436951
Si Si6 0.409842 0.701176 0.360878
Si Si7 0.211824 0.799505 0.437719
O O1 0.500000 0.235147 0.227102
O O2 0.552270 0.500000 0.243048
O O3 0.601866 0.258516 0.200343
O O4 0.571931 0.230894 0.301765
O O5 0.500000 0.741599 0.500000
O O6 0.547302 0.729522 0.595268
O O7 0.500000 0.000000 0.565643
O O8 0.596334 0.273337 0.097792
O O9 0.683856 0.241610 0.118135
O O10 0.629240 0.000000 0.148083
O O11 0.139545 0.268870 0.110522
O O12 0.230967 0.256302 0.067698
O O13 0.172603 0.000000 0.062107
O O14 0.158090 0.260963 0.000000
O O15 0.054839 0.760839 0.500000
O O16 0.054014 0.500000 0.436881
O O17 0.000000 0.756600 0.413030
O O18 0.402849 0.500000 0.352792
O O19 0.196017 0.731555 0.500000
O O20 0.205924 0.000000 0.440261
#
# Coordination Sequence:
#
# PCOD9522567 Si02
#       7
#    16   8  16  16  16  16  16
#     4  10  21  38  57  79 112 152 191 233 283 336
#     4  11  23  35  53  87 125 153 182 229 284 337
#     4  11  21  33  53  79 107 144 192 238 279 330
#     4   9  18  34  59  88 113 140 181 233 283 336
#     4   8  14  25  42  67  98 128 162 213 274 327
#     4  10  20  38  61  84 112 152 195 231 277 337
#     4  10  21  37  57  82 114 149 183 227 288 349
#
# _framework density 19.92831
#
# number of rings (size 3 to 8) (size 9 to 14) (size 15 to 20)
#    0.000    2.231    0.769    3.000    0.000    4.923 
#    0.000    2.308    0.000    0.000    0.000    6.462 
#    0.000    0.000    0.000    0.000    0.000    0.000 
#
# Total GULP energy -289608.598529 kJ/mol
# GULP energy per Si atom -5569.396126 kJ/mol
# Density = 1.988295 g / cm^3
# Si number density = 19.928310 Si / 1000 Ang^3
#
#
#
# Elastic Constant Matrix: (Units=GPa)
#
#
# Indices 1 2 3 4 5 6 
#
# 1 98.8320 2.2232 68.6188 0.0000 0.0000 0.0000
# 2 2.2232 26.6220 7.6795 0.0000 0.0000 0.0000
# 3 68.6188 7.6795 134.2397 0.0000 0.0000 0.0000
# 4 0.0000 0.0000 0.0000 16.8066 0.0000 0.0000
# 5 0.0000 0.0000 0.0000 0.0000 50.9861 0.0000
# 6 0.0000 0.0000 0.0000 0.0000 0.0000 15.0797
#
#
#
# Elastic Compliance Matrix: (Units=1/GPa)
#
#
# Indices 1 2 3 4 5 6 
#
# 1 0.015712 0.001022 -0.008090 0.000000 0.000000 0.000000
# 2 0.001022 0.038260 -0.002711 0.000000 0.000000 0.000000
# 3 -0.008090 -0.002711 0.011740 0.000000 0.000000 0.000000
# 4 0.000000 0.000000 0.000000 0.059500 0.000000 0.000000
# 5 0.000000 0.000000 0.000000 0.000000 0.019613 0.000000
# 6 0.000000 0.000000 0.000000 0.000000 0.000000 0.066315
#
#
# Mechanical properties :
#
#
# Convention : Reuss Voigt Hill
#
# Bulk Modulus (GPa) = 21.66714 46.30405 33.98560
# Shear Modulus (GPa) = 20.31843 28.65264 24.48553
#
# Velocity S-wave (km/s) = 3.19654 3.79593 3.50906
# Velocity P-wave (km/s) = 4.95177 6.51904 5.78869
#
# Compressibility (1/GPa) = 0.04615284
#
# Stress axis : x y z
#
# Youngs Moduli (GPa) = 63.64576 26.13722 85.18098
#
# Poissons Ratio (x) = -0.02670 0.68910
# Poissons Ratio (y) = -0.06502 0.23092
# Poissons Ratio (z) = 0.51489 0.07086
#
# Static dielectric constant tensor:
#      x y z
#    x 1.726120 0.000000 0.000000 
#    y 0.000000 1.719010 0.000000 
#    z 0.000000 0.000000 1.743910 
# 
# From -- ./inp_files/62000.got.cif
#   From: 2010.05.17/outbox.cif.g08.bks.cpg/sg71_31_cif.got.tgz:62000.got - 2010.06.03 16:22:01.
