data_PCOD9522752
_publ_section_title
;
Structure prediction by ZEFSAII (Michael W. Deem and Ramdas Pophale) SiO2 
 PCOD9522752
Probable space group: I M M M
;
_chemical_formula_sum "Si O2"
_cell_formula_units_Z 104
_cell_length_a 8.679979
_cell_length_b 25.647462
_cell_length_c 33.922031
_cell_angle_alpha 90.000000
_cell_angle_beta 90.000000
_cell_angle_gamma 90.000000
_cell_volume 7551.703259
_symmetry_space_group_name_H-M "I M M M"
_symmetry_group_IT_number 71
_symmetry_cell_setting 'orthorhombic'
loop_
_space_group_symop_operation_xyz
x,y,z
-x,-y,z
x,-y,-z
-x,y,-z
-x,-y,-z
x,y,-z
-x,y,z
x,-y,z
1/2+x,1/2+y,1/2+z
1/2-x,1/2-y,1/2+z
1/2+x,1/2-y,1/2-z
1/2-x,1/2+y,1/2-z
1/2-x,1/2-y,1/2-z
1/2+x,1/2+y,1/2-z
1/2-x,1/2+y,1/2+z
1/2+x,1/2-y,1/2+z
loop_
_atom_site_type_symbol
_atom_site_label
_atom_site_fract_x
_atom_site_fract_y
_atom_site_fract_z
Si Si1 0.816476 0.611038 0.954924
Si Si2 0.686283 0.727115 0.190082
Si Si3 0.324292 0.500000 0.047955
Si Si4 0.686531 0.829921 0.767002
Si Si5 0.182630 0.841502 0.381256
Si Si6 0.184910 0.443332 0.255754
Si Si7 0.316541 0.941478 0.338780
O O1 0.758226 0.553877 0.941367
O O2 0.758118 0.653430 0.923997
O O3 0.000000 0.609889 0.954984
O O4 0.762455 0.619499 0.000000
O O5 0.500000 0.723781 0.191778
O O6 0.731160 0.786320 0.200902
O O7 0.753052 0.691268 0.225068
O O8 0.735970 0.704640 0.147900
O O9 0.500000 0.500000 0.062025
O O10 0.325454 0.500000 0.000000
O O11 0.500000 0.830886 0.765027
O O12 0.742567 0.888973 0.773718
O O13 0.225342 0.895064 0.358821
O O14 0.000000 0.837852 0.385974
O O15 0.247256 0.500000 0.268575
O O16 0.205788 0.439404 0.208466
O O17 0.000000 0.444697 0.262174
O O18 0.500000 0.934867 0.346283
O O19 0.272534 0.000000 0.351812
#
# Coordination Sequence:
#
# PCOD9522752 Si02
#       7
#    16  16   8  16  16  16  16
#     4  10  21  35  48  59  72  94 126 160 192 233
#     4   9  18  28  38  57  78  99 127 158 191 227
#     4   9  17  31  49  65  79  95 117 149 197 247
#     4   9  15  26  43  56  74 102 129 158 191 224
#     4  11  21  30  41  57  79  99 124 159 197 240
#     4   8  13  22  38  58  75  95 127 162 192 223
#     4   9  17  28  40  54  73  97 128 163 196 231
#
# _framework density 13.771727
#
# number of rings (size 3 to 8) (size 9 to 14) (size 15 to 20)
#    0.000    2.692    1.538    2.077    1.077    2.769 
#    0.000    0.000    0.000    0.462    0.000    0.000 
#    0.000    0.000    0.000    0.000    0.000    0.769 
#
# Total GULP energy -289713.021036 kJ/mol
# GULP energy per Si atom -5571.404251 kJ/mol
# Density = 1.374038 g / cm^3
# Si number density = 13.771727 Si / 1000 Ang^3
#
#
#
# Elastic Constant Matrix: (Units=GPa)
#
#
# Indices 1 2 3 4 5 6 
#
# 1 15.2566 12.4023 17.0156 0.0000 0.0000 0.0000
# 2 12.4023 109.7318 46.3836 0.0000 0.0000 0.0000
# 3 17.0156 46.3836 68.5271 0.0000 0.0000 0.0000
# 4 0.0000 0.0000 0.0000 24.5968 0.0000 0.0000
# 5 0.0000 0.0000 0.0000 0.0000 13.7784 0.0000
# 6 0.0000 0.0000 0.0000 0.0000 0.0000 11.9969
#
#
#
# Elastic Compliance Matrix: (Units=1/GPa)
#
#
# Indices 1 2 3 4 5 6 
#
# 1 0.090731 -0.001025 -0.021835 0.000000 0.000000 0.000000
# 2 -0.001025 0.012777 -0.008394 0.000000 0.000000 0.000000
# 3 -0.021835 -0.008394 0.025696 0.000000 0.000000 0.000000
# 4 0.000000 0.000000 0.000000 0.040656 0.000000 0.000000
# 5 0.000000 0.000000 0.000000 0.000000 0.072577 0.000000
# 6 0.000000 0.000000 0.000000 0.000000 0.000000 0.083355
#
#
# Mechanical properties :
#
#
# Convention : Reuss Voigt Hill
#
# Bulk Modulus (GPa) = 14.99339 38.34650 26.66994
# Shear Modulus (GPa) = 12.17932 17.92202 15.05067
#
# Velocity S-wave (km/s) = 2.97706 3.61135 3.30944
# Velocity P-wave (km/s) = 4.76738 6.73008 5.83189
#
# Compressibility (1/GPa) = 0.06669608
#
# Stress axis : x y z
#
# Youngs Moduli (GPa) = 11.02159 78.26535 38.91652
#
# Poissons Ratio (x) = 0.08023 0.84975
# Poissons Ratio (y) = 0.01130 0.32666
# Poissons Ratio (z) = 0.24066 0.65695
#
# Static dielectric constant tensor:
#      x y z
#    x 1.465720 0.000000 0.000000 
#    y 0.000000 1.477460 0.000000 
#    z 0.000000 0.000000 1.462500 
# 
# From -- ./inp_files/68568.got.cif
#   From: 2010.05.17/outbox.cif.g08.bks.cpg/sg71_35_cif.got.tgz:68568.got - 2010.06.03 16:22:01.
