data_PCOD9522170
_publ_section_title
;
Structure prediction by ZEFSAII (Michael W. Deem and Ramdas Pophale) SiO2 
 PCOD9522170
Probable space group: I M M M
;
_chemical_formula_sum "Si O2"
_cell_formula_units_Z 88
_cell_length_a 14.680074
_cell_length_b 29.335870
_cell_length_c 11.822496
_cell_angle_alpha 90.000000
_cell_angle_beta 90.000000
_cell_angle_gamma 90.000000
_cell_volume 5091.390325
_symmetry_space_group_name_H-M "I M M M"
_symmetry_group_IT_number 71
_symmetry_cell_setting 'orthorhombic'
loop_
_space_group_symop_operation_xyz
x,y,z
-x,-y,z
x,-y,-z
-x,y,-z
-x,-y,-z
x,y,-z
-x,y,z
x,-y,z
1/2+x,1/2+y,1/2+z
1/2-x,1/2-y,1/2+z
1/2+x,1/2-y,1/2-z
1/2-x,1/2+y,1/2-z
1/2-x,1/2-y,1/2-z
1/2+x,1/2+y,1/2-z
1/2-x,1/2+y,1/2+z
1/2+x,1/2-y,1/2+z
loop_
_atom_site_type_symbol
_atom_site_label
_atom_site_fract_x
_atom_site_fract_y
_atom_site_fract_z
Si Si1 0.305494 0.171959 0.237195
Si Si2 0.668357 0.409602 0.256409
Si Si3 0.000000 0.228330 0.702780
Si Si4 0.109700 0.000000 0.364384
Si Si5 0.500000 0.828839 0.871313
Si Si6 0.500000 0.631782 0.873415
Si Si7 0.390394 0.554637 0.500000
Si Si8 0.832470 0.759976 0.871921
O O1 0.252629 0.124767 0.254867
O O2 0.406547 0.160057 0.193948
O O3 0.250213 0.204580 0.148937
O O4 0.307690 0.207286 0.343061
O O5 0.661886 0.456640 0.186993
O O6 0.585528 0.382631 0.200030
O O7 0.649456 0.422454 0.386946
O O8 0.000000 0.274111 0.631824
O O9 0.000000 0.185629 0.622528
O O10 0.911799 0.227856 0.783672
O O11 0.111431 0.000000 0.500000
O O12 0.000000 0.000000 0.330292
O O13 0.500000 0.845924 0.000000
O O14 0.500000 0.611425 0.000000
O O15 0.372281 0.500000 0.500000
O O16 0.500000 0.560227 0.500000
O O17 0.864102 0.763844 0.000000
#
# Coordination Sequence:
#
# PCOD9522170 Si02
#       8
#    16  16   8   8   8   8   8  16
#     4  10  23  37  55  83 112 152 200 243 287 345
#     4  12  23  39  57  89 119 158 200 230 293 354
#     4  10  20  36  53  86 116 152 194 235 294 349
#     4  11  22  39  61  90 129 157 183 230 289 362
#     4  10  21  39  57  76 111 155 200 248 291 329
#     4  12  23  35  55  87 127 162 195 236 282 353
#     4  11  22  38  60  83 123 157 181 236 290 362
#     4  10  20  36  55  80 116 152 193 242 291 348
#
# _framework density 17.284079999999999
#
# number of rings (size 3 to 8) (size 9 to 14) (size 15 to 20)
#    0.000    1.273    4.545    1.636    2.545    1.455 
#    1.636    0.000    0.000    0.545    0.000    1.909 
#    0.000    0.000    0.000    0.000    0.000    0.000 
#
# Total GULP energy -245397.275251 kJ/mol
# GULP energy per Si atom -5577.210801 kJ/mol
# Density = 1.724474 g / cm^3
# Si number density = 17.284080 Si / 1000 Ang^3
#
#
#
# Elastic Constant Matrix: (Units=GPa)
#
#
# Indices 1 2 3 4 5 6 
#
# 1 122.6759 56.3688 28.0210 0.0000 0.0000 0.0000
# 2 56.3688 119.8094 28.0093 0.0000 0.0000 0.0000
# 3 28.0210 28.0093 99.9508 0.0001 -0.0001 0.0002
# 4 0.0000 0.0000 0.0001 9.8409 0.0000 0.0000
# 5 0.0000 0.0000 -0.0001 0.0000 4.6902 0.0000
# 6 0.0000 0.0000 0.0002 0.0000 0.0000 16.9818
#
#
#
# Elastic Compliance Matrix: (Units=1/GPa)
#
#
# Indices 1 2 3 4 5 6 
#
# 1 0.010661 -0.004620 -0.001694 0.000000 0.000000 0.000000
# 2 -0.004620 0.010934 -0.001769 0.000000 0.000000 0.000000
# 3 -0.001694 -0.001769 0.010976 0.000000 0.000000 0.000000
# 4 0.000000 0.000000 0.000000 0.101617 0.000001 0.000000
# 5 0.000000 0.000000 0.000000 0.000001 0.213212 0.000000
# 6 0.000000 0.000000 0.000000 0.000000 0.000000 0.058887
#
#
# Mechanical properties :
#
#
# Convention : Reuss Voigt Hill
#
# Bulk Modulus (GPa) = 60.95802 63.02603 61.99203
# Shear Modulus (GPa) = 11.68443 21.63836 16.66140
#
# Velocity S-wave (km/s) = 2.60286 3.54209 3.10816
# Velocity P-wave (km/s) = 6.66169 7.29880 6.98751
#
# Compressibility (1/GPa) = 0.01640473
#
# Stress axis : x y z
#
# Youngs Moduli (GPa) = 93.79633 91.46001 91.11144
#
# Poissons Ratio (x) = 0.42254 0.15436
# Poissons Ratio (y) = 0.43334 0.16116
# Poissons Ratio (z) = 0.15891 0.16177
#
# Static dielectric constant tensor:
#      x y z
#    x 1.603110 0.000000 0.000000 
#    y 0.000000 1.617890 0.000000 
#    z 0.000000 0.000000 1.587490 
# 
# From -- ./inp_files/22403.got.cif
#   From: 2010.05.17/outbox.cif.g08.bks.cpg/sg71_12_cif.got.tgz:22403.got - 2010.06.03 16:22:01.
