data_PCOD9522984
_publ_section_title
;
Structure prediction by ZEFSAII (Michael W. Deem and Ramdas Pophale) SiO2 
 PCOD9522984
Probable space group: I M M M
;
_chemical_formula_sum "Si O2"
_cell_formula_units_Z 72
_cell_length_a 18.238366
_cell_length_b 13.375838
_cell_length_c 15.923819
_cell_angle_alpha 90.000000
_cell_angle_beta 90.000000
_cell_angle_gamma 90.000000
_cell_volume 3884.670248
_symmetry_space_group_name_H-M "I M M M"
_symmetry_group_IT_number 71
_symmetry_cell_setting 'orthorhombic'
loop_
_space_group_symop_operation_xyz
x,y,z
-x,-y,z
x,-y,-z
-x,y,-z
-x,-y,-z
x,y,-z
-x,y,z
x,-y,z
1/2+x,1/2+y,1/2+z
1/2-x,1/2-y,1/2+z
1/2+x,1/2-y,1/2-z
1/2-x,1/2+y,1/2-z
1/2-x,1/2-y,1/2-z
1/2+x,1/2+y,1/2-z
1/2-x,1/2+y,1/2+z
1/2+x,1/2-y,1/2+z
loop_
_atom_site_type_symbol
_atom_site_label
_atom_site_fract_x
_atom_site_fract_y
_atom_site_fract_z
Si Si1 0.413202 0.379562 0.500000
Si Si2 0.087616 0.889658 0.658127
Si Si3 0.159905 0.816609 0.826287
Si Si4 0.911755 0.322088 0.592258
Si Si5 0.814971 0.610716 0.739861
O O1 0.407643 0.500000 0.500000
O O2 0.500000 0.353891 0.500000
O O3 0.373460 0.338849 0.583358
O O4 0.108116 0.863285 0.753828
O O5 0.112677 0.793952 0.604670
O O6 0.000000 0.893231 0.649565
O O7 0.116690 0.000000 0.635946
O O8 0.170028 0.699114 0.805861
O O9 0.238959 0.865465 0.808040
O O10 0.889390 0.357671 0.500000
O O11 0.876982 0.381353 0.668621
O O12 0.000000 0.325034 0.596990
O O13 0.812198 0.500000 0.776527
#
# Coordination Sequence:
#
# PCOD9522984 Si02
#       5
#     8  16  16  16  16
#     4  11  22  36  59  89 118 146 179 228 285 333
#     4   9  16  29  51  75 103 139 173 210 261 317
#     4  10  21  36  55  81 110 138 179 225 269 325
#     4   9  19  33  48  73 106 136 175 222 261 307
#     4  10  21  37  57  77 104 144 183 222 270 322
#
# _framework density 18.534390999999999
#
# number of rings (size 3 to 8) (size 9 to 14) (size 15 to 20)
#    0.000    2.333    0.000    2.667    1.556    4.000 
#    0.000    3.889    0.000    0.667    0.000    0.000 
#    0.000    0.000    0.000    0.000    0.000    0.000 
#
# Total GULP energy -200813.198427 kJ/mol
# GULP energy per Si atom -5578.144401 kJ/mol
# Density = 1.849221 g / cm^3
# Si number density = 18.534391 Si / 1000 Ang^3
#
#
#
# Elastic Constant Matrix: (Units=GPa)
#
#
# Indices 1 2 3 4 5 6 
#
# 1 33.1916 27.1193 25.7265 0.0000 0.0000 0.0000
# 2 27.1193 119.6361 11.8465 0.0000 0.0000 0.0000
# 3 25.7265 11.8465 83.1277 0.0000 0.0000 0.0000
# 4 0.0000 0.0000 0.0000 4.6080 0.0000 0.0000
# 5 0.0000 0.0000 0.0000 0.0000 19.7976 0.0000
# 6 0.0000 0.0000 0.0000 0.0000 0.0000 16.2781
#
#
#
# Elastic Compliance Matrix: (Units=1/GPa)
#
#
# Indices 1 2 3 4 5 6 
#
# 1 0.048623 -0.009668 -0.013670 0.000000 0.000000 0.000000
# 2 -0.009668 0.010401 0.001510 0.000000 0.000000 0.000000
# 3 -0.013670 0.001510 0.016045 0.000000 0.000000 0.000000
# 4 0.000000 0.000000 0.000000 0.217015 0.000000 0.000000
# 5 0.000000 0.000000 0.000000 0.000000 0.050511 0.000000
# 6 0.000000 0.000000 0.000000 0.000000 0.000000 0.061432
#
#
# Mechanical properties :
#
#
# Convention : Reuss Voigt Hill
#
# Bulk Modulus (GPa) = 31.83487 40.59333 36.21410
# Shear Modulus (GPa) = 10.91334 19.55429 15.23382
#
# Velocity S-wave (km/s) = 2.42919 3.25164 2.87003
# Velocity P-wave (km/s) = 5.00812 6.00389 5.52847
#
# Compressibility (1/GPa) = 0.03141210
#
# Stress axis : x y z
#
# Youngs Moduli (GPa) = 20.56629 96.14651 62.32402
#
# Poissons Ratio (x) = 0.92958 0.85198
# Poissons Ratio (y) = 0.19884 -0.09411
# Poissons Ratio (z) = 0.28114 -0.14518
#
# Static dielectric constant tensor:
#      x y z
#    x 1.647520 0.000000 0.000000 
#    y 0.000000 1.696390 0.000000 
#    z 0.000000 0.000000 1.611570 
# 
# From -- ./inp_files/36086.got.cif
#   From: 2010.05.17/outbox.cif.g08.bks.cpg/sg71_19_cif.got.tgz:36086.got - 2010.06.03 16:22:01.
