data_PCOD9522017
_publ_section_title
;
Structure prediction by ZEFSAII (Michael W. Deem and Ramdas Pophale) SiO2 
 PCOD9522017
Probable space group: I M M M
;
_chemical_formula_sum "Si O2"
_cell_formula_units_Z 88
_cell_length_a 7.506170
_cell_length_b 19.613928
_cell_length_c 24.615686
_cell_angle_alpha 90.000000
_cell_angle_beta 90.000000
_cell_angle_gamma 90.000000
_cell_volume 3624.056136
_symmetry_space_group_name_H-M "I M M M"
_symmetry_group_IT_number 71
_symmetry_cell_setting 'orthorhombic'
loop_
_space_group_symop_operation_xyz
x,y,z
-x,-y,z
x,-y,-z
-x,y,-z
-x,-y,-z
x,y,-z
-x,y,z
x,-y,z
1/2+x,1/2+y,1/2+z
1/2-x,1/2-y,1/2+z
1/2+x,1/2-y,1/2-z
1/2-x,1/2+y,1/2-z
1/2-x,1/2-y,1/2-z
1/2+x,1/2+y,1/2-z
1/2-x,1/2+y,1/2+z
1/2+x,1/2-y,1/2+z
loop_
_atom_site_type_symbol
_atom_site_label
_atom_site_fract_x
_atom_site_fract_y
_atom_site_fract_z
Si Si1 0.204884 0.712682 0.329260
Si Si2 0.783329 0.079725 0.440907
Si Si3 0.716996 0.362290 0.172980
Si Si4 0.208865 0.848049 0.937872
Si Si5 0.708437 0.925970 0.782788
Si Si6 0.712628 0.000000 0.062282
O O1 0.281102 0.785778 0.313752
O O2 0.207097 0.702585 0.394398
O O3 0.290222 0.643771 0.306023
O O4 0.000000 0.713471 0.310907
O O5 0.724026 0.105987 0.500000
O O6 0.722912 0.118313 0.387373
O O7 0.000000 0.082100 0.440734
O O8 0.734413 0.000000 0.437036
O O9 0.500000 0.362586 0.173522
O O10 0.780154 0.415089 0.218142
O O11 0.232238 0.926038 0.916481
O O12 0.000000 0.833799 0.939755
O O13 0.279275 0.845040 0.000000
O O14 0.500000 0.927391 0.799485
O O15 0.784336 0.000000 0.797690
O O16 0.500000 0.000000 0.062350
O O17 0.780810 0.000000 0.000000
#
# Coordination Sequence:
#
# PCOD9522017 Si02
#       6
#    16  16  16  16  16   8
#     4  10  22  37  55  81 111 147 191 235 282 341
#     4   8  14  26  47  77 110 139 169 214 273 331
#     4  10  20  35  57  84 110 140 184 234 282 336
#     4  10  21  36  54  80 114 149 188 234 282 332
#     4  10  22  39  57  78 107 144 185 231 286 347
#     4   9  17  31  53  77 103 141 185 229 278 329
#
# _framework density 24.282184999999998
#
# number of rings (size 3 to 8) (size 9 to 14) (size 15 to 20)
#    0.000    2.455    0.000    2.455    1.273    5.455 
#    0.000    1.818    0.000    0.545    0.000    2.545 
#    0.000    0.000    0.000    0.000    0.000    0.000 
#
# Total GULP energy -245883.364981 kJ/mol
# GULP energy per Si atom -5588.258295 kJ/mol
# Density = 2.422692 g / cm^3
# Si number density = 24.282185 Si / 1000 Ang^3
#
#
#
# Elastic Constant Matrix: (Units=GPa)
#
#
# Indices 1 2 3 4 5 6 
#
# 1 77.4797 3.0601 -3.5988 0.0000 0.0000 0.0000
# 2 3.0601 112.3020 28.6841 0.0000 0.0000 0.0000
# 3 -3.5988 28.6841 98.7494 0.0000 0.0000 0.0000
# 4 0.0000 0.0000 0.0000 41.3793 0.0000 0.0000
# 5 0.0000 0.0000 0.0000 0.0000 17.2221 0.0000
# 6 0.0000 0.0000 0.0000 0.0000 0.0000 1.0257
#
#
#
# Elastic Compliance Matrix: (Units=1/GPa)
#
#
# Indices 1 2 3 4 5 6 
#
# 1 0.012956 -0.000512 0.000621 0.000000 0.000000 0.000000
# 2 -0.000512 0.009638 -0.002818 0.000000 0.000000 0.000000
# 3 0.000621 -0.002818 0.010968 0.000000 0.000000 0.000000
# 4 0.000000 0.000000 0.000000 0.024167 0.000000 0.000000
# 5 0.000000 0.000000 0.000000 0.000000 0.058065 0.000000
# 6 0.000000 0.000000 0.000000 0.000000 0.000000 0.974960
#
#
# Mechanical properties :
#
#
# Convention : Reuss Voigt Hill
#
# Bulk Modulus (GPa) = 35.53204 38.31353 36.92279
# Shear Modulus (GPa) = 4.52262 29.28445 16.90354
#
# Velocity S-wave (km/s) = 1.36623 3.47653 2.64129
# Velocity P-wave (km/s) = 4.14168 5.65046 4.95385
#
# Compressibility (1/GPa) = 0.02814361
#
# Stress axis : x y z
#
# Youngs Moduli (GPa) = 77.18642 103.75210 91.17502
#
# Poissons Ratio (x) = 0.05308 -0.05660
# Poissons Ratio (y) = 0.03949 0.25696
# Poissons Ratio (z) = -0.04791 0.29241
#
# Static dielectric constant tensor:
#      x y z
#    x 1.890200 0.000000 0.000000 
#    y 0.000000 1.916660 0.000000 
#    z 0.000000 0.000000 1.962140 
# 
# From -- ./inp_files/10498.got.cif
#   From: 2010.05.17/outbox.cif.g08.bks.cpg/sg71_6_cif.got.tgz:10498.got - 2010.06.03 16:22:01.
