data_PCOD9522648
_publ_section_title
;
Structure prediction by ZEFSAII (Michael W. Deem and Ramdas Pophale) SiO2 
 PCOD9522648
Probable space group: I M M M
;
_chemical_formula_sum "Si O2"
_cell_formula_units_Z 92
_cell_length_a 20.123394
_cell_length_b 15.155750
_cell_length_c 16.173735
_cell_angle_alpha 90.000000
_cell_angle_beta 90.000000
_cell_angle_gamma 90.000000
_cell_volume 4932.748649
_symmetry_space_group_name_H-M "I M M M"
_symmetry_group_IT_number 71
_symmetry_cell_setting 'orthorhombic'
loop_
_space_group_symop_operation_xyz
x,y,z
-x,-y,z
x,-y,-z
-x,y,-z
-x,-y,-z
x,y,-z
-x,y,z
x,-y,z
1/2+x,1/2+y,1/2+z
1/2-x,1/2-y,1/2+z
1/2+x,1/2-y,1/2-z
1/2-x,1/2+y,1/2-z
1/2-x,1/2-y,1/2-z
1/2+x,1/2+y,1/2-z
1/2-x,1/2+y,1/2+z
1/2+x,1/2-y,1/2+z
loop_
_atom_site_type_symbol
_atom_site_label
_atom_site_fract_x
_atom_site_fract_y
_atom_site_fract_z
Si Si1 0.612399 0.677219 0.597322
Si Si2 0.788987 0.000000 0.724283
Si Si3 0.110757 0.605207 0.358097
Si Si4 0.426532 0.862273 0.331263
Si Si5 0.750842 0.675900 0.678606
Si Si6 0.923956 0.000000 0.803393
Si Si7 0.000000 0.632968 0.500000
Si Si8 0.676592 0.000000 0.402864
O O1 0.597937 0.676093 0.500000
O O2 0.579507 0.760884 0.641878
O O3 0.691123 0.688710 0.614492
O O4 0.589466 0.586633 0.640770
O O5 0.764510 0.914814 0.773864
O O6 0.868908 0.000000 0.730402
O O7 0.748848 0.000000 0.639203
O O8 0.125220 0.500000 0.363243
O O9 0.082368 0.624737 0.266688
O O10 0.178016 0.662265 0.363652
O O11 0.057831 0.627669 0.427819
O O12 0.500000 0.894413 0.355599
O O13 0.367154 0.916763 0.373001
O O14 0.750000 0.750000 0.750000
O O15 0.000000 0.000000 0.774868
O O16 0.682438 0.000000 0.500000
#
# Coordination Sequence:
#
# PCOD9522648 Si02
#       8
#    16   8  16  16  16   8   4   8
#     4  11  24  39  59  94 123 160 215 263 324 372
#     4  10  20  40  62  89 120 159 218 264 318 386
#     4  12  22  41  61  93 133 167 217 256 324 390
#     4  12  23  38  63  88 131 170 203 255 305 388
#     4  11  20  38  63  87 120 171 210 265 320 374
#     4  10  23  42  65  88 118 163 208 275 333 385
#     4  12  29  40  68 104 132 189 212 269 340 420
#     4  12  23  38  61  93 129 171 209 250 307 383
#
# _framework density 18.650859000000001
#
# number of rings (size 3 to 8) (size 9 to 14) (size 15 to 20)
#    0.000    0.696    6.087    2.348    1.217    3.130 
#    0.000    0.000    0.000    0.261    0.000    0.000 
#    0.000    0.000    0.000    0.000    0.000    0.000 
#
# Total GULP energy -256496.736861 kJ/mol
# GULP energy per Si atom -5576.016019 kJ/mol
# Density = 1.860841 g / cm^3
# Si number density = 18.650859 Si / 1000 Ang^3
#
#
#
# Elastic Constant Matrix: (Units=GPa)
#
#
# Indices 1 2 3 4 5 6 
#
# 1 173.6740 27.5154 59.6193 0.0000 0.0000 0.0000
# 2 27.5154 105.9759 23.9346 0.0000 0.0000 0.0000
# 3 59.6193 23.9346 135.0967 0.0000 0.0000 0.0000
# 4 0.0000 0.0000 0.0000 -0.0275 0.0000 0.0000
# 5 0.0000 0.0000 0.0000 0.0000 31.2563 0.0000
# 6 0.0000 0.0000 0.0000 0.0000 0.0000 -2.0143
#
#
#
# Elastic Compliance Matrix: (Units=1/GPa)
#
#
# Indices 1 2 3 4 5 6 
#
# 1 0.006919 -0.001153 -0.002849 0.000000 0.000000 0.000000
# 2 -0.001153 0.010022 -0.001267 0.000000 0.000000 0.000000
# 3 -0.002849 -0.001267 0.008884 0.000000 0.000000 0.000000
# 4 0.000000 0.000000 0.000000-36.394925 0.000000 0.000000
# 5 0.000000 0.000000 0.000000 0.000000 0.031994 0.000000
# 6 0.000000 0.000000 0.000000 0.000000 0.000000 -0.496451
#
#
# Mechanical properties :
#
#
# Convention : Reuss Voigt Hill
#
# Bulk Modulus (GPa) = 65.41599 70.76501 68.09050
# Shear Modulus (GPa) = -0.13580 26.08805 12.97612
#
# Velocity S-wave (km/s) = -0.27013 3.74406 2.64055
# Velocity P-wave (km/s) = 5.92054 7.53093 6.77376
#
# Compressibility (1/GPa) = 0.01528678
#
# Stress axis : x y z
#
# Youngs Moduli (GPa) = 144.53849 99.78519 112.56447
#
# Poissons Ratio (x) = 0.11504 0.32069
# Poissons Ratio (y) = 0.16664 0.14258
# Poissons Ratio (z) = 0.41179 0.12640
#
# Static dielectric constant tensor:
#      x y z
#    x 1.687090 0.000000 0.000000 
#    y 0.000000 1.647920 0.000000 
#    z 0.000000 0.000000 1.596590 
# 
# From -- ./inp_files/37881.got.cif
#   From: 2010.05.17/outbox.cif.g08.bks.cpg/sg71_19_cif.got.tgz:37881.got - 2010.06.03 16:22:01.
