data_PCOD9522579
_publ_section_title
;
Structure prediction by ZEFSAII (Michael W. Deem and Ramdas Pophale) SiO2 
 PCOD9522579
Probable space group: I M M M
;
_chemical_formula_sum "Si O2"
_cell_formula_units_Z 80
_cell_length_a 7.770860
_cell_length_b 27.182517
_cell_length_c 17.807779
_cell_angle_alpha 90.000000
_cell_angle_beta 90.000000
_cell_angle_gamma 90.000000
_cell_volume 3761.564476
_symmetry_space_group_name_H-M "I M M M"
_symmetry_group_IT_number 71
_symmetry_cell_setting 'orthorhombic'
loop_
_space_group_symop_operation_xyz
x,y,z
-x,-y,z
x,-y,-z
-x,y,-z
-x,-y,-z
x,y,-z
-x,y,z
x,-y,z
1/2+x,1/2+y,1/2+z
1/2-x,1/2-y,1/2+z
1/2+x,1/2-y,1/2-z
1/2-x,1/2+y,1/2-z
1/2-x,1/2-y,1/2-z
1/2+x,1/2+y,1/2-z
1/2-x,1/2+y,1/2+z
1/2+x,1/2-y,1/2+z
loop_
_atom_site_type_symbol
_atom_site_label
_atom_site_fract_x
_atom_site_fract_y
_atom_site_fract_z
Si Si1 0.705518 0.820447 0.417120
Si Si2 0.205269 0.000000 0.585428
Si Si3 0.710703 0.942917 0.000000
Si Si4 0.204652 0.273849 0.330379
Si Si5 0.294129 0.906868 0.313557
Si Si6 0.289030 0.113820 0.149932
O O1 0.775707 0.830945 0.500000
O O2 0.500000 0.827928 0.419802
O O3 0.736124 0.764730 0.392718
O O4 0.774622 0.857792 0.354323
O O5 0.259187 0.047612 0.632463
O O6 0.274431 0.000000 0.500000
O O7 0.000000 0.000000 0.580884
O O8 0.767288 0.914269 0.075093
O O9 0.500000 0.942728 0.000000
O O10 0.764097 0.000000 0.000000
O O11 0.250000 0.250000 0.250000
O O12 0.268751 0.329268 0.343734
O O13 0.000000 0.276880 0.332892
O O14 0.500000 0.901455 0.307491
O O15 0.232631 0.911545 0.227996
O O16 0.500000 0.113747 0.147636
#
# Coordination Sequence:
#
# PCOD9522579 Si02
#       6
#    16   8   8  16  16  16
#     4  10  21  37  57  84 118 152 194 243 290 347
#     4  11  25  41  57  84 119 146 182 239 295 347
#     4   9  18  32  54  84 116 146 186 247 302 335
#     4  11  21  36  57  83 119 156 195 240 292 354
#     4  10  20  38  62  84 110 151 197 237 282 344
#     4   9  19  34  54  84 118 149 190 239 286 343
#
# _framework density 21.267745999999999
#
# number of rings (size 3 to 8) (size 9 to 14) (size 15 to 20)
#    0.000    2.000    2.000    1.500    2.800    2.800 
#    0.000    0.000    0.000    0.000    0.000    0.700 
#    0.000    0.000    0.000    0.000    0.000    0.000 
#
# Total GULP energy -223400.190534 kJ/mol
# GULP energy per Si atom -5585.004763 kJ/mol
# Density = 2.121934 g / cm^3
# Si number density = 21.267746 Si / 1000 Ang^3
#
#
#
# Elastic Constant Matrix: (Units=GPa)
#
#
# Indices 1 2 3 4 5 6 
#
# 1 21.9533 -8.0680 11.0803 0.0000 0.0000 0.0000
# 2 -8.0680 152.4309 106.2775 0.0000 0.0000 0.0000
# 3 11.0803 106.2775 229.2050 0.0001 0.0000 0.0000
# 4 0.0000 0.0000 0.0001 38.0198 0.0000 0.0000
# 5 0.0000 0.0000 0.0000 0.0000 14.4247 0.0000
# 6 0.0000 0.0000 0.0000 0.0000 0.0000 22.6682
#
#
#
# Elastic Compliance Matrix: (Units=1/GPa)
#
#
# Indices 1 2 3 4 5 6 
#
# 1 0.050692 0.006490 -0.005460 0.000000 0.000000 0.000000
# 2 0.006490 0.010525 -0.005194 0.000000 0.000000 0.000000
# 3 -0.005460 -0.005194 0.007035 0.000000 0.000000 0.000000
# 4 0.000000 0.000000 0.000000 0.026302 0.000000 0.000000
# 5 0.000000 0.000000 0.000000 0.000000 0.069326 0.000000
# 6 0.000000 0.000000 0.000000 0.000000 0.000000 0.044115
#
#
# Mechanical properties :
#
#
# Convention : Reuss Voigt Hill
#
# Bulk Modulus (GPa) = 16.68779 69.12987 42.90883
# Shear Modulus (GPa) = 21.15976 34.64250 27.90113
#
# Velocity S-wave (km/s) = 3.15766 4.04031 3.62594
# Velocity P-wave (km/s) = 4.59978 7.37161 6.14405
#
# Compressibility (1/GPa) = 0.05992407
#
# Stress axis : x y z
#
# Youngs Moduli (GPa) = 19.72706 95.00991 142.14223
#
# Poissons Ratio (x) = -0.61658 0.77605
# Poissons Ratio (y) = -0.12802 0.73829
# Poissons Ratio (z) = 0.10770 0.49349
#
# Static dielectric constant tensor:
#      x y z
#    x 1.768010 0.000000 0.000000 
#    y 0.000000 1.698370 0.000000 
#    z 0.000000 0.000000 1.768900 
# 
# From -- ./inp_files/42251.got.cif
#   From: 2010.05.17/outbox.cif.g08.bks.cpg/sg71_22_cif.got.tgz:42251.got - 2010.06.03 16:22:01.
