data_PCOD9522186
_publ_section_title
;
Structure prediction by ZEFSAII (Michael W. Deem and Ramdas Pophale) SiO2 
 PCOD9522186
Probable space group: I M M M
;
_chemical_formula_sum "Si O2"
_cell_formula_units_Z 88
_cell_length_a 20.473038
_cell_length_b 25.254334
_cell_length_c 9.228367
_cell_angle_alpha 90.000000
_cell_angle_beta 90.000000
_cell_angle_gamma 90.000000
_cell_volume 4771.369718
_symmetry_space_group_name_H-M "I M M M"
_symmetry_group_IT_number 71
_symmetry_cell_setting 'orthorhombic'
loop_
_space_group_symop_operation_xyz
x,y,z
-x,-y,z
x,-y,-z
-x,y,-z
-x,-y,-z
x,y,-z
-x,y,z
x,-y,z
1/2+x,1/2+y,1/2+z
1/2-x,1/2-y,1/2+z
1/2+x,1/2-y,1/2-z
1/2-x,1/2+y,1/2-z
1/2-x,1/2-y,1/2-z
1/2+x,1/2+y,1/2-z
1/2-x,1/2+y,1/2+z
1/2+x,1/2-y,1/2+z
loop_
_atom_site_type_symbol
_atom_site_label
_atom_site_fract_x
_atom_site_fract_y
_atom_site_fract_z
Si Si1 0.139416 0.605325 0.325953
Si Si2 0.223262 0.500000 0.329283
Si Si3 0.359215 0.500000 0.828372
Si Si4 0.924469 0.795733 0.668933
Si Si5 0.921390 0.098142 0.834718
Si Si6 0.693594 0.783570 0.828314
Si Si7 0.000000 0.437382 0.677349
O O1 0.133791 0.613277 0.500000
O O2 0.180652 0.552253 0.302831
O O3 0.177948 0.657196 0.271755
O O4 0.065771 0.592826 0.274132
O O5 0.242332 0.500000 0.500000
O O6 0.285551 0.500000 0.228017
O O7 0.393250 0.448345 0.762152
O O8 0.363588 0.500000 0.000000
O O9 0.921717 0.812521 0.500000
O O10 0.904658 0.844845 0.768853
O O11 0.874412 0.748111 0.687202
O O12 0.000000 0.781308 0.699864
O O13 0.000000 0.094413 0.834306
O O14 0.898118 0.092937 0.000000
O O15 0.750000 0.750000 0.750000
O O16 0.709739 0.786301 0.000000
O O17 0.000000 0.500000 0.719046
O O18 0.000000 0.437654 0.500000
#
# Coordination Sequence:
#
# PCOD9522186 Si02
#       7
#    16   8   8  16  16  16   8
#     4   9  18  32  54  84 116 148 184 232 289 343
#     4  10  20  36  55  82 116 150 188 229 280 339
#     4  12  25  37  55  82 113 149 186 227 278 336
#     4   9  19  36  56  80 113 150 189 234 283 336
#     4  10  21  38  60  84 109 140 183 233 283 336
#     4  10  22  37  55  82 114 152 194 237 286 339
#     4   9  14  26  52  88 122 144 174 229 292 347
#
# _framework density 18.443342000000001
#
# number of rings (size 3 to 8) (size 9 to 14) (size 15 to 20)
#    0.000    2.273    0.909    1.636    3.818    2.909 
#    0.000    0.000    0.000    0.000    0.000    2.545 
#    0.000    0.000    0.000    0.000    0.000    0.000 
#
# Total GULP energy -245476.589831 kJ/mol
# GULP energy per Si atom -5579.013405 kJ/mol
# Density = 1.840136 g / cm^3
# Si number density = 18.443342 Si / 1000 Ang^3
#
#
#
# Elastic Constant Matrix: (Units=GPa)
#
#
# Indices 1 2 3 4 5 6 
#
# 1 43.4034 54.8269 28.7847 0.0000 0.0000 0.0000
# 2 54.8269 130.7696 54.9036 0.0000 0.0000 0.0000
# 3 28.7847 54.9036 69.7830 0.0000 0.0000 0.0000
# 4 0.0000 0.0000 0.0000 -6.7380 0.0000 0.0000
# 5 0.0000 0.0000 0.0000 0.0000 21.4499 0.0000
# 6 0.0000 0.0000 0.0000 0.0000 0.0000 18.7962
#
#
#
# Elastic Compliance Matrix: (Units=1/GPa)
#
#
# Indices 1 2 3 4 5 6 
#
# 1 0.050748 -0.018648 -0.006261 0.000000 0.000000 0.000000
# 2 -0.018648 0.018272 -0.006684 0.000000 0.000000 0.000000
# 3 -0.006261 -0.006684 0.022171 0.000000 0.000000 0.000000
# 4 0.000000 0.000000 0.000000 -0.148412 0.000000 0.000000
# 5 0.000000 0.000000 0.000000 0.000000 0.046620 0.000000
# 6 0.000000 0.000000 0.000000 0.000000 0.000000 0.053202
#
#
# Mechanical properties :
#
#
# Convention : Reuss Voigt Hill
#
# Bulk Modulus (GPa) = 35.70746 57.88739 46.79742
# Shear Modulus (GPa) = 43.43211 13.73100 28.58155
#
# Velocity S-wave (km/s) = 4.85799 2.73151 3.94089
# Velocity P-wave (km/s) = 7.13228 6.43451 6.79236
#
# Compressibility (1/GPa) = 0.02800535
#
# Stress axis : x y z
#
# Youngs Moduli (GPa) = 19.70521 54.72998 45.10349
#
# Poissons Ratio (x) = 1.02060 0.28240
# Poissons Ratio (y) = 0.36746 0.30145
# Poissons Ratio (z) = 0.12338 0.36579
#
# Static dielectric constant tensor:
#      x y z
#    x 1.635570 0.000000 0.000000 
#    y 0.000000 1.634430 0.000000 
#    z 0.000000 0.000000 1.626140 
# 
# From -- ./inp_files/10516.got.cif
#   From: 2010.05.17/outbox.cif.g08.bks.cpg/sg71_6_cif.got.tgz:10516.got - 2010.06.03 16:22:01.
