data_PCOD9522076
_publ_section_title
;
Structure prediction by ZEFSAII (Michael W. Deem and Ramdas Pophale) SiO2 
 PCOD9522076
Probable space group: I M M M
;
_chemical_formula_sum "Si O2"
_cell_formula_units_Z 100
_cell_length_a 20.286051
_cell_length_b 18.927143
_cell_length_c 14.297001
_cell_angle_alpha 90.000000
_cell_angle_beta 90.000000
_cell_angle_gamma 90.000000
_cell_volume 5489.433444
_symmetry_space_group_name_H-M "I M M M"
_symmetry_group_IT_number 71
_symmetry_cell_setting 'orthorhombic'
loop_
_space_group_symop_operation_xyz
x,y,z
-x,-y,z
x,-y,-z
-x,y,-z
-x,-y,-z
x,y,-z
-x,y,z
x,-y,z
1/2+x,1/2+y,1/2+z
1/2-x,1/2-y,1/2+z
1/2+x,1/2-y,1/2-z
1/2-x,1/2+y,1/2-z
1/2-x,1/2-y,1/2-z
1/2+x,1/2+y,1/2-z
1/2-x,1/2+y,1/2+z
1/2+x,1/2-y,1/2+z
loop_
_atom_site_type_symbol
_atom_site_label
_atom_site_fract_x
_atom_site_fract_y
_atom_site_fract_z
Si Si1 0.807795 0.784355 0.110394
Si Si2 0.000000 0.500000 0.349957
Si Si3 0.239770 0.079567 0.785721
Si Si4 0.422742 0.824035 0.392305
Si Si5 0.793385 0.158332 0.610478
Si Si6 0.891385 0.613465 0.702722
Si Si7 0.075161 0.763273 0.611745
O O1 0.799412 0.857144 0.164408
O O2 0.876116 0.743130 0.126776
O O3 0.750633 0.727587 0.135046
O O4 0.801587 0.798197 0.000000
O O5 0.942498 0.438811 0.344974
O O6 0.230923 0.095494 0.675691
O O7 0.316359 0.090617 0.811386
O O8 0.219451 0.000000 0.809236
O O9 0.409681 0.846274 0.500000
O O10 0.500000 0.806893 0.384367
O O11 0.406084 0.882021 0.314099
O O12 0.784741 0.145394 0.500000
O O13 0.869298 0.178151 0.629926
O O14 0.904123 0.691673 0.663329
O O15 0.077168 0.749915 0.500000
O O16 0.000000 0.782176 0.637093
#
# Coordination Sequence:
#
# PCOD9522076 Si02
#       7
#    16   4  16  16  16  16  16
#     4  10  20  36  59  83 106 140 191 239 272 317
#     4  12  24  36  50  76 124 162 176 204 262 332
#     4  12  24  35  54  81 115 153 182 219 280 333
#     4  10  20  35  58  83 105 136 183 232 276 315
#     4  10  20  36  59  83 106 140 191 239 272 317
#     4  12  21  35  52  76 113 151 185 215 253 323
#     4  10  20  35  58  83 105 136 183 232 276 315
#
# _framework density 18.216816000000001
#
# number of rings (size 3 to 8) (size 9 to 14) (size 15 to 20)
#    0.000    1.280    5.600    1.440    0.000    0.640 
#    0.000    1.600    0.000    1.920    0.000    4.480 
#    0.000    0.000    0.000    0.000    0.000    0.000 
#
# Total GULP energy -278671.817781 kJ/mol
# GULP energy per Si atom -5573.436356 kJ/mol
# Density = 1.817535 g / cm^3
# Si number density = 18.216816 Si / 1000 Ang^3
#
#
#
# Elastic Constant Matrix: (Units=GPa)
#
#
# Indices 1 2 3 4 5 6 
#
# 1 44.8247 -4.9863 -1.8591 0.0000 0.0000 0.0000
# 2 -4.9863 25.7965 -0.3839 0.0000 0.0000 0.0000
# 3 -1.8591 -0.3839 24.0979 0.0000 0.0000 0.0000
# 4 0.0000 0.0000 0.0000 -1.3161 0.0000 0.0000
# 5 0.0000 0.0000 0.0000 0.0000 20.1638 0.0000
# 6 0.0000 0.0000 0.0000 0.0000 0.0000 71.5074
#
#
#
# Elastic Compliance Matrix: (Units=1/GPa)
#
#
# Indices 1 2 3 4 5 6 
#
# 1 0.022880 0.004450 0.001836 0.000000 0.000000 0.000000
# 2 0.004450 0.039640 0.000975 0.000000 0.000000 0.000000
# 3 0.001836 0.000975 0.041655 0.000000 0.000000 0.000000
# 4 0.000000 0.000000 0.000000 -0.759820 0.000000 0.000000
# 5 0.000000 0.000000 0.000000 0.000000 0.049594 0.000000
# 6 0.000000 0.000000 0.000000 0.000000 0.000000 0.013985
#
#
# Mechanical properties :
#
#
# Convention : Reuss Voigt Hill
#
# Bulk Modulus (GPa) = 8.42488 8.91783 8.67135
# Shear Modulus (GPa) = -8.81797 24.86758 8.02480
#
# Velocity S-wave (km/s) = -2.20252 3.69872 2.10112
# Velocity P-wave (km/s) = 1.35399 4.81110 3.26446
#
# Compressibility (1/GPa) = 0.11869607
#
# Stress axis : x y z
#
# Youngs Moduli (GPa) = 43.70571 25.22733 24.00700
#
# Poissons Ratio (x) = -0.11226 -0.04408
# Poissons Ratio (y) = -0.19449 -0.02340
# Poissons Ratio (z) = -0.08025 -0.02459
#
# Static dielectric constant tensor:
#      x y z
#    x 1.633220 0.000000 0.000000 
#    y 0.000000 1.586870 0.000000 
#    z 0.000000 0.000000 1.686980 
# 
# From -- ./inp_files/38111.got.cif
#   From: 2010.05.17/outbox.cif.g08.bks.cpg/sg71_20_cif.got.tgz:38111.got - 2010.06.03 16:22:01.
