data_PCOD9522720
_publ_section_title
;
Structure prediction by ZEFSAII (Michael W. Deem and Ramdas Pophale) SiO2 
 PCOD9522720
Probable space group: I M M M
;
_chemical_formula_sum "Si O2"
_cell_formula_units_Z 64
_cell_length_a 14.433249
_cell_length_b 27.269050
_cell_length_c 8.103499
_cell_angle_alpha 90.000000
_cell_angle_beta 90.000000
_cell_angle_gamma 90.000000
_cell_volume 3189.383148
_symmetry_space_group_name_H-M "I M M M"
_symmetry_group_IT_number 71
_symmetry_cell_setting 'orthorhombic'
loop_
_space_group_symop_operation_xyz
x,y,z
-x,-y,z
x,-y,-z
-x,y,-z
-x,-y,-z
x,y,-z
-x,y,z
x,-y,z
1/2+x,1/2+y,1/2+z
1/2-x,1/2-y,1/2+z
1/2+x,1/2-y,1/2-z
1/2-x,1/2+y,1/2-z
1/2-x,1/2-y,1/2-z
1/2+x,1/2+y,1/2-z
1/2-x,1/2+y,1/2+z
1/2+x,1/2-y,1/2+z
loop_
_atom_site_type_symbol
_atom_site_label
_atom_site_fract_x
_atom_site_fract_y
_atom_site_fract_z
Si Si1 0.113388 0.054933 0.500000
Si Si2 0.889357 0.883555 0.816461
Si Si3 0.391886 0.891677 0.797557
Si Si4 0.758241 0.305387 0.308126
Si Si5 0.886984 0.500000 0.308125
O O1 0.140352 0.082134 0.667200
O O2 0.000000 0.053940 0.500000
O O3 0.148093 0.000000 0.500000
O O4 0.841096 0.831509 0.792056
O O5 0.000000 0.879607 0.813547
O O6 0.861491 0.901610 0.000000
O O7 0.500000 0.884896 0.754868
O O8 0.330598 0.845690 0.737352
O O9 0.361005 0.946261 0.738840
O O10 0.386875 0.893182 0.000000
O O11 0.782758 0.302290 0.500000
O O12 0.750000 0.250000 0.250000
O O13 0.856996 0.500000 0.500000
O O14 0.000000 0.500000 0.307653
#
# Coordination Sequence:
#
# PCOD9522720 Si02
#       5
#     8  16  16  16   8
#     4   9  18  34  58  84 109 143 183 222 271 326
#     4   9  19  36  55  78 111 146 182 223 271 328
#     4   8  14  27  47  73 101 128 164 210 261 316
#     4  10  21  34  50  74 104 139 181 226 270 318
#     4   7  10  20  42  68  96 124 149 194 253 304
#
# _framework density 20.066575
#
# number of rings (size 3 to 8) (size 9 to 14) (size 15 to 20)
#    0.000    3.250    0.000    1.500    1.750    1.500 
#    2.250    2.500    0.000    0.000    0.000    0.000 
#    0.000    4.000    0.000    0.000    0.000    0.000 
#
# Total GULP energy -178206.048404 kJ/mol
# GULP energy per Si atom -5568.939013 kJ/mol
# Density = 2.002090 g / cm^3
# Si number density = 20.066575 Si / 1000 Ang^3
#
#
#
# Elastic Constant Matrix: (Units=GPa)
#
#
# Indices 1 2 3 4 5 6 
#
# 1 59.5039 51.8869 22.2276 0.0000 -0.0002 -0.0001
# 2 51.8869 220.0541 75.7191 0.0005 -0.0006 -0.0007
# 3 22.2276 75.7191 78.5656 0.0024 -0.0016 -0.0024
# 4 0.0000 0.0005 0.0024 12.0373 -0.0010 -0.0002
# 5 -0.0002 -0.0006 -0.0016 -0.0010 4.9829 0.0005
# 6 -0.0001 -0.0007 -0.0024 -0.0002 0.0005 20.0415
#
#
#
# Elastic Compliance Matrix: (Units=1/GPa)
#
#
# Indices 1 2 3 4 5 6 
#
# 1 0.021320 -0.004416 -0.001776 0.000001 0.000000 0.000000
# 2 -0.004416 0.007714 -0.006185 0.000001 -0.000001 -0.000001
# 3 -0.001776 -0.006185 0.019191 -0.000004 0.000005 0.000002
# 4 0.000001 0.000001 -0.000004 0.083075 0.000016 0.000001
# 5 0.000000 -0.000001 0.000005 0.000016 0.200688 -0.000005
# 6 0.000000 -0.000001 0.000002 0.000001 -0.000005 0.049896
#
#
# Mechanical properties :
#
#
# Convention : Reuss Voigt Hill
#
# Bulk Modulus (GPa) = 42.60468 73.08786 57.84627
# Shear Modulus (GPa) = 12.06384 21.29834 16.68109
#
# Velocity S-wave (km/s) = 2.45458 3.26142 2.88633
# Velocity P-wave (km/s) = 5.41397 7.11929 6.32437
#
# Compressibility (1/GPa) = 0.02347160
#
# Stress axis : x y z
#
# Youngs Moduli (GPa) = 46.90513 129.63796 52.10650
#
# Poissons Ratio (x) = 0.57248 0.09253
# Poissons Ratio (y) = 0.20713 0.32228
# Poissons Ratio (z) = 0.08329 0.80181
#
# Static dielectric constant tensor:
#      x y z
#    x 1.730510 0.000000 0.000000 
#    y 0.000000 1.759290 0.000000 
#    z 0.000000 0.000000 1.761670 
# 
# From -- ./inp_files/5902.got.cif
#   From: 2010.05.17/outbox.cif.g08.bks.cpg/sg71_3_cif.got.tgz:5902.got - 2010.06.03 16:22:01.
