data_PCOD9522175
_publ_section_title
;
Structure prediction by ZEFSAII (Michael W. Deem and Ramdas Pophale) SiO2 
 PCOD9522175
Probable space group: I M M M
;
_chemical_formula_sum "Si O2"
_cell_formula_units_Z 116
_cell_length_a 7.467621
_cell_length_b 24.715531
_cell_length_c 30.150081
_cell_angle_alpha 90.000000
_cell_angle_beta 90.000000
_cell_angle_gamma 90.000000
_cell_volume 5564.686432
_symmetry_space_group_name_H-M "I M M M"
_symmetry_group_IT_number 71
_symmetry_cell_setting 'orthorhombic'
loop_
_space_group_symop_operation_xyz
x,y,z
-x,-y,z
x,-y,-z
-x,y,-z
-x,-y,-z
x,y,-z
-x,y,z
x,-y,z
1/2+x,1/2+y,1/2+z
1/2-x,1/2-y,1/2+z
1/2+x,1/2-y,1/2-z
1/2-x,1/2+y,1/2-z
1/2-x,1/2-y,1/2-z
1/2+x,1/2+y,1/2-z
1/2-x,1/2+y,1/2+z
1/2+x,1/2-y,1/2+z
loop_
_atom_site_type_symbol
_atom_site_label
_atom_site_fract_x
_atom_site_fract_y
_atom_site_fract_z
Si Si1 0.204155 0.092708 0.780696
Si Si2 0.781726 0.938739 0.949326
Si Si3 0.218077 0.144195 0.125295
Si Si4 0.282668 0.561976 0.875353
Si Si5 0.207806 0.651574 0.803564
Si Si6 0.500000 0.000000 0.235789
Si Si7 0.713932 0.356052 0.050098
Si Si8 0.784886 0.732995 0.122386
O O1 0.262710 0.117857 0.827592
O O2 0.203290 0.138916 0.743023
O O3 0.000000 0.072080 0.785413
O O4 0.342941 0.047173 0.766137
O O5 0.719877 0.894492 0.914380
O O6 0.000000 0.938356 0.948999
O O7 0.727061 0.000000 0.937318
O O8 0.726509 0.927986 0.000000
O O9 0.281311 0.205799 0.120935
O O10 0.000000 0.145595 0.123268
O O11 0.500000 0.562077 0.874897
O O12 0.222592 0.500000 0.873572
O O13 0.221660 0.597421 0.833665
O O14 0.221416 0.594172 0.919306
O O15 0.282701 0.698718 0.835305
O O16 0.000000 0.663121 0.795018
O O17 0.500000 0.362243 0.047246
O O18 0.747313 0.301842 0.078347
O O19 0.784752 0.354715 0.000000
O O20 0.000000 0.734541 0.126605
#
# Coordination Sequence:
#
# PCOD9522175 Si02
#       8
#    16  16  16  16  16   4  16  16
#     4  11  24  41  63  90 123 162 197 243 296 351
#     4   8  14  26  47  77 112 146 184 237 296 357
#     4   9  19  35  56  86 115 149 199 244 296 353
#     4   9  18  31  50  75 103 144 194 242 298 359
#     4  10  20  36  54  80 117 153 197 246 300 352
#     4  12  26  44  60  94 129 154 203 238 296 352
#     4   9  18  33  51  75 108 144 187 241 302 361
#     4   9  19  36  57  80 111 149 195 252 296 351
#
# _framework density 20.845738000000001
#
# number of rings (size 3 to 8) (size 9 to 14) (size 15 to 20)
#    0.000    2.621    0.690    1.034    1.931    2.483 
#    1.241    2.759    0.000    0.000    0.000    4.345 
#    0.000    0.000    0.000    0.000    0.000    0.000 
#
# Total GULP energy -323317.960077 kJ/mol
# GULP energy per Si atom -5574.447588 kJ/mol
# Density = 2.079829 g / cm^3
# Si number density = 20.845738 Si / 1000 Ang^3
#
#
#
# Elastic Constant Matrix: (Units=GPa)
#
#
# Indices 1 2 3 4 5 6 
#
# 1 77.6016 7.1269 2.1782 0.0000 0.0000 0.0000
# 2 7.1269 138.9368 79.8867 0.0000 0.0000 0.0000
# 3 2.1782 79.8867 132.6433 0.0000 0.0000 0.0000
# 4 0.0000 0.0000 0.0000 52.0083 0.0000 0.0000
# 5 0.0000 0.0000 0.0000 0.0000 19.5354 0.0000
# 6 0.0000 0.0000 0.0000 0.0000 0.0000 34.8857
#
#
#
# Elastic Compliance Matrix: (Units=1/GPa)
#
#
# Indices 1 2 3 4 5 6 
#
# 1 0.012954 -0.000829 0.000287 0.000000 0.000000 0.000000
# 2 -0.000829 0.011063 -0.006650 0.000000 0.000000 0.000000
# 3 0.000287 -0.006650 0.011539 0.000000 0.000000 0.000000
# 4 0.000000 0.000000 0.000000 0.019228 0.000000 0.000000
# 5 0.000000 0.000000 0.000000 0.000000 0.051189 0.000000
# 6 0.000000 0.000000 0.000000 0.000000 0.000000 0.028665
#
#
# Mechanical properties :
#
#
# Convention : Reuss Voigt Hill
#
# Bulk Modulus (GPa) = 47.23062 58.61836 52.92449
# Shear Modulus (GPa) = 32.03472 38.61855 35.32663
#
# Velocity S-wave (km/s) = 3.92440 4.30884 4.12110
# Velocity P-wave (km/s) = 6.57578 7.27571 6.93458
#
# Compressibility (1/GPa) = 0.02117271
#
# Stress axis : x y z
#
# Youngs Moduli (GPa) = 77.19355 90.38775 86.66193
#
# Poissons Ratio (x) = 0.07497 -0.02485
# Poissons Ratio (y) = 0.06402 0.57626
# Poissons Ratio (z) = -0.02214 0.60104
#
# Static dielectric constant tensor:
#      x y z
#    x 1.794500 0.000000 0.000000 
#    y 0.000000 1.722950 0.000000 
#    z 0.000000 0.000000 1.726360 
# 
# From -- ./inp_files/13696.got.cif
#   From: 2010.05.17/outbox.cif.g08.bks.cpg/sg71_7_cif.got.tgz:13696.got - 2010.06.03 16:22:01.
