data_PCOD9522768
_publ_section_title
;
Structure prediction by ZEFSAII (Michael W. Deem and Ramdas Pophale) SiO2 
 PCOD9522768
Probable space group: I M M M
;
_chemical_formula_sum "Si O2"
_cell_formula_units_Z 112
_cell_length_a 14.499997
_cell_length_b 15.153100
_cell_length_c 28.560423
_cell_angle_alpha 90.000000
_cell_angle_beta 90.000000
_cell_angle_gamma 90.000000
_cell_volume 6275.293415
_symmetry_space_group_name_H-M "I M M M"
_symmetry_group_IT_number 71
_symmetry_cell_setting 'orthorhombic'
loop_
_space_group_symop_operation_xyz
x,y,z
-x,-y,z
x,-y,-z
-x,y,-z
-x,-y,-z
x,y,-z
-x,y,z
x,-y,z
1/2+x,1/2+y,1/2+z
1/2-x,1/2-y,1/2+z
1/2+x,1/2-y,1/2-z
1/2-x,1/2+y,1/2-z
1/2-x,1/2-y,1/2-z
1/2+x,1/2+y,1/2-z
1/2-x,1/2+y,1/2+z
1/2+x,1/2-y,1/2+z
loop_
_atom_site_type_symbol
_atom_site_label
_atom_site_fract_x
_atom_site_fract_y
_atom_site_fract_z
Si Si1 0.757090 0.600873 0.615967
Si Si2 0.889084 0.094014 0.556004
Si Si3 0.762211 0.395644 0.271455
Si Si4 0.893265 0.243147 0.881875
Si Si5 0.892461 0.752596 0.769801
Si Si6 0.610958 0.787676 0.055113
Si Si7 0.111995 0.399946 0.052464
O O1 0.741078 0.500000 0.603439
O O2 0.770748 0.606034 0.672065
O O3 0.669575 0.661279 0.604609
O O4 0.842288 0.640151 0.587425
O O5 0.873245 0.093427 0.500000
O O6 0.857686 0.189994 0.572375
O O7 0.000000 0.093747 0.561986
O O8 0.854447 0.000000 0.575197
O O9 0.761078 0.500000 0.257522
O O10 0.844606 0.334947 0.251232
O O11 0.669581 0.339520 0.258273
O O12 0.888652 0.255986 0.826122
O O13 0.860388 0.329895 0.909053
O O14 0.000000 0.227376 0.894245
O O15 0.000000 0.761427 0.756010
O O16 0.500000 0.791463 0.057814
O O17 0.635197 0.797344 0.000000
O O18 0.141765 0.500000 0.061720
O O19 0.000000 0.401218 0.051898
O O20 0.142936 0.375303 0.000000
#
# Coordination Sequence:
#
# PCOD9522768 Si02
#       7
#    16  16  16  16  16  16  16
#     4  10  21  35  50  70  97 130 168 209 251 292
#     4   7  10  20  41  66  88 111 144 189 238 285
#     4   9  19  35  53  76 105 133 165 207 254 306
#     4   9  18  33  53  76 100 127 161 201 245 294
#     4   9  18  33  54  79 104 131 165 206 253 304
#     4   9  18  32  49  69  95 130 171 213 255 297
#     4   8  14  26  45  69  98 130 159 190 235 291
#
# _framework density 17.847771999999999
#
# number of rings (size 3 to 8) (size 9 to 14) (size 15 to 20)
#    0.000    3.286    0.000    1.714    0.000    3.143 
#    0.000    7.143    0.000    5.143    0.000    9.000 
#    0.000    0.000    0.000    0.000    0.000    0.000 
#
# Total GULP energy -311832.316042 kJ/mol
# GULP energy per Si atom -5568.434215 kJ/mol
# Density = 1.780715 g / cm^3
# Si number density = 17.847772 Si / 1000 Ang^3
#
#
#
# Elastic Constant Matrix: (Units=GPa)
#
#
# Indices 1 2 3 4 5 6 
#
# 1 94.1767 45.5914 24.5850 0.0000 0.0000 0.0000
# 2 45.5914 143.1661 41.3574 0.0000 0.0000 0.0000
# 3 24.5850 41.3574 15.3970 0.0000 0.0000 0.0000
# 4 0.0000 0.0000 0.0000 29.0525 0.0000 0.0000
# 5 0.0000 0.0000 0.0000 0.0000 5.6300 0.0000
# 6 0.0000 0.0000 0.0000 0.0000 0.0000 8.1223
#
#
#
# Elastic Compliance Matrix: (Units=1/GPa)
#
#
# Indices 1 2 3 4 5 6 
#
# 1 0.023872 0.015216 -0.078988 0.000000 0.000000 0.000000
# 2 0.015216 0.040872 -0.134081 0.000000 0.000000 0.000000
# 3 -0.078988 -0.134081 0.551221 0.000000 0.000000 0.000000
# 4 0.000000 0.000000 0.000000 0.034420 0.000000 0.000000
# 5 0.000000 0.000000 0.000000 0.000000 0.177621 0.000000
# 6 0.000000 0.000000 0.000000 0.000000 0.000000 0.123118
#
#
# Mechanical properties :
#
#
# Convention : Reuss Voigt Hill
#
# Bulk Modulus (GPa) = 4.54012 52.86748 28.70380
# Shear Modulus (GPa) = 3.52050 17.97469 10.74759
#
# Velocity S-wave (km/s) = 1.40599 3.17694 2.45660
# Velocity P-wave (km/s) = 2.27707 6.56833 4.91569
#
# Compressibility (1/GPa) = 0.22025871
#
# Stress axis : x y z
#
# Youngs Moduli (GPa) = 41.88942 24.46638 1.81415
#
# Poissons Ratio (x) = -0.37227 0.14330
# Poissons Ratio (y) = -0.63737 0.24324
# Poissons Ratio (z) = 3.30876 3.28048
#
# Static dielectric constant tensor:
#      x y z
#    x 1.649950 0.000000 0.000000 
#    y 0.000000 1.624920 0.000000 
#    z 0.000000 0.000000 1.587840 
# 
# From -- ./inp_files/41071.got.cif
#   From: 2010.05.17/outbox.cif.g08.bks.cpg/sg71_21_cif.got.tgz:41071.got - 2010.06.03 16:22:01.
