data_PCOD9522005
_publ_section_title
;
Structure prediction by ZEFSAII (Michael W. Deem and Ramdas Pophale) SiO2 
 PCOD9522005
Probable space group: I M M M
;
_chemical_formula_sum "Si O2"
_cell_formula_units_Z 88
_cell_length_a 7.945223
_cell_length_b 29.080652
_cell_length_c 19.381968
_cell_angle_alpha 90.000000
_cell_angle_beta 90.000000
_cell_angle_gamma 90.000000
_cell_volume 4478.247609
_symmetry_space_group_name_H-M "I M M M"
_symmetry_group_IT_number 71
_symmetry_cell_setting 'orthorhombic'
loop_
_space_group_symop_operation_xyz
x,y,z
-x,-y,z
x,-y,-z
-x,y,-z
-x,-y,-z
x,y,-z
-x,y,z
x,-y,z
1/2+x,1/2+y,1/2+z
1/2-x,1/2-y,1/2+z
1/2+x,1/2-y,1/2-z
1/2-x,1/2+y,1/2-z
1/2-x,1/2-y,1/2-z
1/2+x,1/2+y,1/2-z
1/2-x,1/2+y,1/2+z
1/2+x,1/2-y,1/2+z
loop_
_atom_site_type_symbol
_atom_site_label
_atom_site_fract_x
_atom_site_fract_y
_atom_site_fract_z
Si Si1 0.201452 0.000000 0.267475
Si Si2 0.299789 0.815713 0.284441
Si Si3 0.205526 0.053528 0.500000
Si Si4 0.796891 0.500000 0.608871
Si Si5 0.796179 0.911584 0.648033
Si Si6 0.799601 0.776856 0.856584
Si Si7 0.202356 0.181657 0.000000
Si Si8 0.703407 0.075240 0.000000
O O1 0.264636 0.045962 0.304984
O O2 0.239414 0.000000 0.186978
O O3 0.000000 0.000000 0.276543
O O4 0.500000 0.810576 0.278871
O O5 0.259752 0.863322 0.321111
O O6 0.230136 0.811640 0.206858
O O7 0.232793 0.772275 0.329027
O O8 0.260082 0.078649 0.569807
O O9 0.000000 0.053079 0.500000
O O10 0.257773 0.000000 0.500000
O O11 0.741472 0.454865 0.566213
O O12 0.000000 0.500000 0.607793
O O13 0.000000 0.911936 0.648139
O O14 0.731621 0.795017 0.929494
O O15 0.000000 0.771658 0.865156
O O16 0.237488 0.127351 0.000000
O O17 0.000000 0.186925 0.000000
O O18 0.500000 0.075790 0.000000
#
# Coordination Sequence:
#
# PCOD9522005 Si02
#       8
#     8  16   8   8  16  16   8   8
#     4  10  21  34  53  82 111 142 182 227 267 315
#     4  10  21  37  58  82 110 147 181 219 273 326
#     4   9  16  33  57  77 103 143 184 222 265 314
#     4   9  20  38  55  73 110 150 182 220 271 325
#     4  10  20  35  57  83 110 141 183 228 269 319
#     4   9  20  39  58  79 110 143 182 226 269 321
#     4  10  21  36  58  83 107 141 181 227 275 318
#     4   9  20  38  55  77 109 148 182 221 272 322
#
# _framework density 19.650544
#
# number of rings (size 3 to 8) (size 9 to 14) (size 15 to 20)
#    0.000    2.455    0.909    1.091    2.545    3.636 
#    0.000    2.273    0.000    0.545    0.000    0.000 
#    0.000    0.000    0.000    0.000    0.000    0.000 
#
# Total GULP energy -245568.807902 kJ/mol
# GULP energy per Si atom -5581.109270 kJ/mol
# Density = 1.960582 g / cm^3
# Si number density = 19.650544 Si / 1000 Ang^3
#
#
#
# Elastic Constant Matrix: (Units=GPa)
#
#
# Indices 1 2 3 4 5 6 
#
# 1 12.4163 -2.7017 -0.8882 0.0000 0.0000 0.0000
# 2 -2.7017 132.6606 100.2179 0.0000 0.0000 0.0000
# 3 -0.8882 100.2179 201.0911 -0.0002 0.0002 0.0000
# 4 0.0000 0.0000 -0.0002 -18.4344 0.0003 0.0000
# 5 0.0000 0.0000 0.0002 0.0003 72.4540 0.0000
# 6 0.0000 0.0000 0.0000 0.0000 0.0000 20.3505
#
#
#
# Elastic Compliance Matrix: (Units=1/GPa)
#
#
# Indices 1 2 3 4 5 6 
#
# 1 0.080967 0.002211 -0.000744 0.000000 0.000000 0.000000
# 2 0.002211 0.012150 -0.006045 0.000000 0.000000 0.000000
# 3 -0.000744 -0.006045 0.007982 0.000000 0.000000 0.000000
# 4 0.000000 0.000000 0.000000 -0.054246 0.000000 0.000000
# 5 0.000000 0.000000 0.000000 0.000000 0.013802 0.000000
# 6 0.000000 0.000000 0.000000 0.000000 0.000000 0.049139
#
#
# Mechanical properties :
#
#
# Convention : Reuss Voigt Hill
#
# Bulk Modulus (GPa) = 10.87633 59.93597 35.40615
# Shear Modulus (GPa) = 33.42267 31.51002 32.46634
#
# Velocity S-wave (km/s) = 4.12861 4.00874 4.06912
# Velocity P-wave (km/s) = 5.31734 7.21067 6.33514
#
# Compressibility (1/GPa) = 0.09194279
#
# Stress axis : x y z
#
# Youngs Moduli (GPa) = 12.35066 82.30381 125.27445
#
# Poissons Ratio (x) = -0.18200 0.09326
# Poissons Ratio (y) = -0.02731 0.75734
# Poissons Ratio (z) = 0.00919 0.49757
#
# Static dielectric constant tensor:
#      x y z
#    x 1.716160 0.000000 0.000000 
#    y 0.000000 1.665110 0.000000 
#    z 0.000000 0.000000 1.679030 
# 
# From -- ./inp_files/42575.got.cif
#   From: 2010.05.17/outbox.cif.g08.bks.cpg/sg71_22_cif.got.tgz:42575.got - 2010.06.03 16:22:01.
