data_PCOD9522638
_publ_section_title
;
Structure prediction by ZEFSAII (Michael W. Deem and Ramdas Pophale) SiO2 
 PCOD9522638
Probable space group: I M M M
;
_chemical_formula_sum "Si O2"
_cell_formula_units_Z 104
_cell_length_a 8.421397
_cell_length_b 28.031696
_cell_length_c 22.496589
_cell_angle_alpha 90.000000
_cell_angle_beta 90.000000
_cell_angle_gamma 90.000000
_cell_volume 5310.680692
_symmetry_space_group_name_H-M "I M M M"
_symmetry_group_IT_number 71
_symmetry_cell_setting 'orthorhombic'
loop_
_space_group_symop_operation_xyz
x,y,z
-x,-y,z
x,-y,-z
-x,y,-z
-x,-y,-z
x,y,-z
-x,y,z
x,-y,z
1/2+x,1/2+y,1/2+z
1/2-x,1/2-y,1/2+z
1/2+x,1/2-y,1/2-z
1/2-x,1/2+y,1/2-z
1/2-x,1/2-y,1/2-z
1/2+x,1/2+y,1/2-z
1/2-x,1/2+y,1/2+z
1/2+x,1/2-y,1/2+z
loop_
_atom_site_type_symbol
_atom_site_label
_atom_site_fract_x
_atom_site_fract_y
_atom_site_fract_z
Si Si1 0.688523 0.817290 0.375604
Si Si2 0.814403 0.139839 0.122164
Si Si3 0.807457 0.203645 0.500000
Si Si4 0.692942 0.078856 0.333483
Si Si5 0.688869 0.815748 0.000000
Si Si6 0.306045 0.000000 0.569923
Si Si7 0.815712 0.271428 0.689560
Si Si8 0.191594 0.553291 0.300217
O O1 0.500000 0.808539 0.366407
O O2 0.731065 0.822224 0.443957
O O3 0.734341 0.865814 0.342492
O O4 0.788277 0.771481 0.356039
O O5 0.778595 0.182780 0.167749
O O6 0.746509 0.092616 0.152913
O O7 0.000000 0.134008 0.113560
O O8 0.742450 0.156851 0.059372
O O9 0.757717 0.260033 0.500000
O O10 0.000000 0.201361 0.500000
O O11 0.500000 0.076079 0.333468
O O12 0.743547 0.045453 0.388961
O O13 0.746726 0.062699 0.267893
O O14 0.500000 0.813900 0.000000
O O15 0.500000 0.000000 0.568171
O O16 0.254563 0.000000 0.500000
O O17 0.750000 0.250000 0.750000
O O18 0.000000 0.284204 0.694613
O O19 0.241629 0.500000 0.317471
O O20 0.000000 0.554823 0.298430
#
# Coordination Sequence:
#
# PCOD9522638 Si02
#       8
#    16  16   8  16   8   8  16  16
#     4  11  22  35  57  89 122 156 199 252 304 365
#     4  12  25  41  65  95 127 164 208 264 325 388
#     4  11  23  39  59  83 118 166 209 253 304 372
#     4   9  18  33  55  88 123 160 206 258 312 367
#     4  11  23  43  68  92 123 167 212 256 316 391
#     4   9  16  28  50  82 122 159 202 257 310 358
#     4  12  24  40  60  87 123 162 204 251 306 372
#     4  10  20  39  66  93 125 166 213 263 319 385
#
# _framework density 19.583178
#
# number of rings (size 3 to 8) (size 9 to 14) (size 15 to 20)
#    0.000    1.308    2.308    4.615    1.077    2.154 
#    0.000    1.154    0.000    2.308    0.000    0.538 
#    0.000    0.000    0.000    0.000    0.000    0.000 
#
# Total GULP energy -290463.348798 kJ/mol
# GULP energy per Si atom -5585.833631 kJ/mol
# Density = 1.953861 g / cm^3
# Si number density = 19.583178 Si / 1000 Ang^3
#
#
#
# Elastic Constant Matrix: (Units=GPa)
#
#
# Indices 1 2 3 4 5 6 
#
# 1 30.7836 10.6598 5.1742 0.0000 0.0000 0.0000
# 2 10.6598 119.2447 22.8764 0.0000 0.0000 0.0000
# 3 5.1742 22.8764 75.9189 0.0000 0.0000 0.0000
# 4 0.0000 0.0000 0.0000 32.5626 0.0000 0.0000
# 5 0.0000 0.0000 0.0000 0.0000 24.9271 0.0000
# 6 0.0000 0.0000 0.0000 0.0000 0.0000 15.3083
#
#
#
# Elastic Compliance Matrix: (Units=1/GPa)
#
#
# Indices 1 2 3 4 5 6 
#
# 1 0.033677 -0.002728 -0.001473 0.000000 0.000000 0.000000
# 2 -0.002728 0.009122 -0.002563 0.000000 0.000000 0.000000
# 3 -0.001473 -0.002563 0.014045 0.000000 0.000000 0.000000
# 4 0.000000 0.000000 0.000000 0.030710 0.000000 0.000000
# 5 0.000000 0.000000 0.000000 0.000000 0.040117 0.000000
# 6 0.000000 0.000000 0.000000 0.000000 0.000000 0.065324
#
#
# Mechanical properties :
#
#
# Convention : Reuss Voigt Hill
#
# Bulk Modulus (GPa) = 23.08639 33.70757 28.39698
# Shear Modulus (GPa) = 22.62846 27.04204 24.83525
#
# Velocity S-wave (km/s) = 3.40296 3.72005 3.56503
# Velocity P-wave (km/s) = 5.22060 5.97508 5.61054
#
# Compressibility (1/GPa) = 0.04331556
#
# Stress axis : x y z
#
# Youngs Moduli (GPa) = 29.69382 109.62980 71.20196
#
# Poissons Ratio (x) = 0.29906 0.10490
# Poissons Ratio (y) = 0.08100 0.18247
# Poissons Ratio (z) = 0.04375 0.28094
#
# Static dielectric constant tensor:
#      x y z
#    x 1.671070 0.000000 0.000000 
#    y 0.000000 1.742310 0.000000 
#    z 0.000000 0.000000 1.946870 
# 
# From -- ./inp_files/50954.got.cif
#   From: 2010.05.17/outbox.cif.g08.bks.cpg/sg71_26_cif.got.tgz:50954.got - 2010.06.03 16:22:01.
