data_PCOD9522960
_publ_section_title
;
Structure prediction by ZEFSAII (Michael W. Deem and Ramdas Pophale) SiO2 
 PCOD9522960
Probable space group: I M M M
;
_chemical_formula_sum "Si O2"
_cell_formula_units_Z 88
_cell_length_a 19.287641
_cell_length_b 7.420554
_cell_length_c 30.183592
_cell_angle_alpha 90.000000
_cell_angle_beta 90.000000
_cell_angle_gamma 90.000000
_cell_volume 4320.026049
_symmetry_space_group_name_H-M "I M M M"
_symmetry_group_IT_number 71
_symmetry_cell_setting 'orthorhombic'
loop_
_space_group_symop_operation_xyz
x,y,z
-x,-y,z
x,-y,-z
-x,y,-z
-x,-y,-z
x,y,-z
-x,y,z
x,-y,z
1/2+x,1/2+y,1/2+z
1/2-x,1/2-y,1/2+z
1/2+x,1/2-y,1/2-z
1/2-x,1/2+y,1/2-z
1/2-x,1/2-y,1/2-z
1/2+x,1/2+y,1/2-z
1/2-x,1/2+y,1/2+z
1/2+x,1/2-y,1/2+z
loop_
_atom_site_type_symbol
_atom_site_label
_atom_site_fract_x
_atom_site_fract_y
_atom_site_fract_z
Si Si1 0.184218 0.793625 0.626374
Si Si2 0.421290 0.711934 0.197793
Si Si3 0.077617 0.717887 0.551191
Si Si4 0.082733 0.000000 0.052822
Si Si5 0.921277 0.283550 0.201609
Si Si6 0.659851 0.218771 0.613184
O O1 0.136607 0.710139 0.665051
O O2 0.136134 0.789808 0.583183
O O3 0.259942 0.721357 0.615037
O O4 0.198421 0.000000 0.640119
O O5 0.500000 0.786595 0.193226
O O6 0.426474 0.500000 0.186987
O O7 0.400003 0.727092 0.249084
O O8 0.086828 0.771003 0.500000
O O9 0.079856 0.500000 0.552778
O O10 0.000000 0.773207 0.565472
O O11 0.118034 0.826377 0.075803
O O12 0.000000 0.000000 0.061071
O O13 0.093998 0.000000 0.000000
O O14 0.922939 0.500000 0.202047
O O15 0.873494 0.232146 0.160711
O O16 0.000000 0.217896 0.194542
O O17 0.655110 0.000000 0.607018
#
# Coordination Sequence:
#
# PCOD9522960 Si02
#       6
#    16  16  16   8  16  16
#     4  10  21  36  54  81 119 158 197 242 303 364
#     4   9  18  32  52  81 117 158 203 250 294 345
#     4   9  19  35  54  77 106 146 197 248 296 350
#     4  11  26  46  70  98 121 153 203 251 307 377
#     4   9  18  34  56  82 113 153 201 247 294 355
#     4  10  23  42  63  92 127 161 198 249 306 366
#
# _framework density 20.370246000000002
#
# number of rings (size 3 to 8) (size 9 to 14) (size 15 to 20)
#    0.000    2.455    0.000    1.636    2.545    5.091 
#    0.000    5.455    0.000    0.000    0.000    0.000 
#    0.000    0.000    0.000    0.000    0.000    0.000 
#
# Total GULP energy -245586.482789 kJ/mol
# GULP energy per Si atom -5581.510972 kJ/mol
# Density = 2.032388 g / cm^3
# Si number density = 20.370246 Si / 1000 Ang^3
#
#
#
# Elastic Constant Matrix: (Units=GPa)
#
#
# Indices 1 2 3 4 5 6 
#
# 1 171.5826 30.5304 112.3322 0.0000 0.0000 0.0000
# 2 30.5304 82.8785 22.5532 0.0000 0.0000 0.0000
# 3 112.3322 22.5532 126.8525 0.0000 0.0000 0.0000
# 4 0.0000 0.0000 0.0000 -8.0256 0.0000 0.0000
# 5 0.0000 0.0000 0.0000 0.0000 -62.1516 0.0000
# 6 0.0000 0.0000 0.0000 0.0000 0.0000 11.7486
#
#
#
# Elastic Compliance Matrix: (Units=1/GPa)
#
#
# Indices 1 2 3 4 5 6 
#
# 1 0.014145 -0.001894 -0.012189 0.000000 0.000000 0.000000
# 2 -0.001894 0.012933 -0.000622 0.000000 0.000000 0.000000
# 3 -0.012189 -0.000622 0.018788 0.000000 0.000000 0.000000
# 4 0.000000 0.000000 0.000000 -0.124601 0.000000 0.000000
# 5 0.000000 0.000000 0.000000 0.000000 -0.016090 0.000000
# 6 0.000000 0.000000 0.000000 0.000000 0.000000 0.085117
#
#
# Mechanical properties :
#
#
# Convention : Reuss Voigt Hill
#
# Bulk Modulus (GPa) = 60.77178 79.12726 69.94952
# Shear Modulus (GPa) = 198.51105 2.70747 100.60926
#
# Velocity S-wave (km/s) = 9.88246 1.15413 7.03545
# Velocity P-wave (km/s) = 12.65368 6.38004 10.02049
#
# Compressibility (1/GPa) = 0.01645501
#
# Stress axis : x y z
#
# Youngs Moduli (GPa) = 70.69497 77.32261 53.22553
#
# Poissons Ratio (x) = 0.14643 0.64879
# Poissons Ratio (y) = 0.13388 0.03313
# Poissons Ratio (z) = 0.86173 0.04812
#
# Static dielectric constant tensor:
#      x y z
#    x 1.720110 0.000000 0.000000 
#    y 0.000000 1.779010 0.000000 
#    z 0.000000 0.000000 1.687740 
# 
# From -- ./inp_files/49203.got.cif
#   From: 2010.05.17/outbox.cif.g08.bks.cpg/sg71_25_cif.got.tgz:49203.got - 2010.06.03 16:22:01.
