data_PCOD9522115
_publ_section_title
;
Structure prediction by ZEFSAII (Michael W. Deem and Ramdas Pophale) SiO2 
 PCOD9522115
Probable space group: I M M M
;
_chemical_formula_sum "Si O2"
_cell_formula_units_Z 56
_cell_length_a 24.786307
_cell_length_b 7.843598
_cell_length_c 13.337124
_cell_angle_alpha 90.000000
_cell_angle_beta 90.000000
_cell_angle_gamma 90.000000
_cell_volume 2592.921332
_symmetry_space_group_name_H-M "I M M M"
_symmetry_group_IT_number 71
_symmetry_cell_setting 'orthorhombic'
loop_
_space_group_symop_operation_xyz
x,y,z
-x,-y,z
x,-y,-z
-x,y,-z
-x,-y,-z
x,y,-z
-x,y,z
x,-y,z
1/2+x,1/2+y,1/2+z
1/2-x,1/2-y,1/2+z
1/2+x,1/2-y,1/2-z
1/2-x,1/2+y,1/2-z
1/2-x,1/2-y,1/2-z
1/2+x,1/2+y,1/2-z
1/2-x,1/2+y,1/2+z
1/2+x,1/2-y,1/2+z
loop_
_atom_site_type_symbol
_atom_site_label
_atom_site_fract_x
_atom_site_fract_y
_atom_site_fract_z
Si Si1 0.875351 0.707344 0.000000
Si Si2 0.305327 0.305807 0.202010
Si Si3 0.500000 0.791238 0.880767
Si Si4 0.086160 0.693048 0.215713
Si Si5 0.246294 0.295574 0.500000
O O1 0.905270 0.767238 0.102826
O O2 0.810890 0.752825 0.000000
O O3 0.876528 0.500000 0.000000
O O4 0.319034 0.500000 0.227493
O O5 0.250000 0.250000 0.250000
O O6 0.353897 0.193060 0.240202
O O7 0.288353 0.280890 0.089396
O O8 0.450144 0.736181 0.807821
O O9 0.500000 0.000000 0.886794
O O10 0.500000 0.735663 0.000000
O O11 0.066251 0.500000 0.199854
O O12 0.243378 0.500000 0.500000
#
# Coordination Sequence:
#
# PCOD9522115 Si02
#       5
#     8  16   8  16   8
#     4  10  20  35  58  88 125 162 205 257 304 367
#     4  12  24  39  60  91 128 165 208 254 312 376
#     4   9  20  39  62  90 121 159 209 262 311 373
#     4  10  21  38  61  89 123 164 211 258 312 371
#     4  12  24  38  59  88 126 169 207 253 315 375
#
# _framework density 21.597261
#
# number of rings (size 3 to 8) (size 9 to 14) (size 15 to 20)
#    0.000    1.286    2.857    3.857    2.000    0.571 
#    0.000    3.571    0.000    0.857    0.000    3.000 
#    0.000    0.000    0.000    0.000    0.000    0.000 
#
# Total GULP energy -155905.569887 kJ/mol
# GULP energy per Si atom -5568.056067 kJ/mol
# Density = 2.154811 g / cm^3
# Si number density = 21.597261 Si / 1000 Ang^3
#
#
#
# Elastic Constant Matrix: (Units=GPa)
#
#
# Indices 1 2 3 4 5 6 
#
# 1 119.6462 -4.7975 65.3476 0.0000 0.0000 0.0000
# 2 -4.7975 68.0627 -13.7228 0.0000 0.0000 0.0000
# 3 65.3476 -13.7228 222.1855 0.0000 0.0000 0.0000
# 4 0.0000 0.0000 0.0000 12.1640 0.0000 0.0000
# 5 0.0000 0.0000 0.0000 0.0000 40.9581 0.0000
# 6 0.0000 0.0000 0.0000 0.0000 0.0000 9.1371
#
#
#
# Elastic Compliance Matrix: (Units=1/GPa)
#
#
# Indices 1 2 3 4 5 6 
#
# 1 0.009958 0.000113 -0.002922 0.000000 0.000000 0.000000
# 2 0.000113 0.014879 0.000886 0.000000 0.000000 0.000000
# 3 -0.002922 0.000886 0.005415 0.000000 0.000000 0.000000
# 4 0.000000 0.000000 0.000000 0.082210 0.000000 0.000000
# 5 0.000000 0.000000 0.000000 0.000000 0.024415 0.000000
# 6 0.000000 0.000000 0.000000 0.000000 0.000000 0.109444
#
#
# Mechanical properties :
#
#
# Convention : Reuss Voigt Hill
#
# Bulk Modulus (GPa) = 37.87100 55.94989 46.91045
# Shear Modulus (GPa) = 19.30728 36.65632 27.98180
#
# Velocity S-wave (km/s) = 2.99317 4.12426 3.60337
# Velocity P-wave (km/s) = 5.43310 6.97435 6.25141
#
# Compressibility (1/GPa) = 0.02640543
#
# Stress axis : x y z
#
# Youngs Moduli (GPa) = 100.41802 67.20939 184.67821
#
# Poissons Ratio (x) = -0.00758 0.53961
# Poissons Ratio (y) = -0.01133 -0.16358
# Poissons Ratio (z) = 0.29341 -0.05953
#
# Static dielectric constant tensor:
#      x y z
#    x 1.731330 0.000000 0.000000 
#    y 0.000000 1.780570 0.000000 
#    z 0.000000 0.000000 1.753150 
# 
# From -- ./inp_files/14029.got.cif
#   From: 2010.05.17/outbox.cif.g08.bks.cpg/sg71_8_cif.got.tgz:14029.got - 2010.06.03 16:22:01.
