data_PCOD9522771
_publ_section_title
;
Structure prediction by ZEFSAII (Michael W. Deem and Ramdas Pophale) SiO2 
 PCOD9522771
Probable space group: I M M M
;
_chemical_formula_sum "Si O2"
_cell_formula_units_Z 80
_cell_length_a 7.814987
_cell_length_b 20.823553
_cell_length_c 29.329527
_cell_angle_alpha 90.000000
_cell_angle_beta 90.000000
_cell_angle_gamma 90.000000
_cell_volume 4772.963922
_symmetry_space_group_name_H-M "I M M M"
_symmetry_group_IT_number 71
_symmetry_cell_setting 'orthorhombic'
loop_
_space_group_symop_operation_xyz
x,y,z
-x,-y,z
x,-y,-z
-x,y,-z
-x,-y,-z
x,y,-z
-x,y,z
x,-y,z
1/2+x,1/2+y,1/2+z
1/2-x,1/2-y,1/2+z
1/2+x,1/2-y,1/2-z
1/2-x,1/2+y,1/2-z
1/2-x,1/2-y,1/2-z
1/2+x,1/2+y,1/2-z
1/2-x,1/2+y,1/2+z
1/2+x,1/2-y,1/2+z
loop_
_atom_site_type_symbol
_atom_site_label
_atom_site_fract_x
_atom_site_fract_y
_atom_site_fract_z
Si Si1 0.500000 0.891184 0.447484
Si Si2 0.798312 0.691278 0.282645
Si Si3 0.500000 0.734768 0.551794
Si Si4 0.300392 0.387662 0.120630
Si Si5 0.800191 0.267810 0.381092
Si Si6 0.294247 0.429137 0.778212
O O1 0.500000 0.913542 0.500000
O O2 0.500000 0.812985 0.448688
O O3 0.330389 0.909231 0.418733
O O4 0.750000 0.750000 0.250000
O O5 0.731604 0.702512 0.333694
O O6 0.753441 0.625660 0.257399
O O7 0.000000 0.694228 0.288098
O O8 0.500000 0.712283 0.500000
O O9 0.670526 0.714733 0.578729
O O10 0.500000 0.406356 0.112864
O O11 0.296545 0.309895 0.123531
O O12 0.240772 0.412617 0.170068
O O13 0.000000 0.285284 0.389153
O O14 0.500000 0.429997 0.779835
O O15 0.231630 0.500000 0.765557
#
# Coordination Sequence:
#
# PCOD9522771 Si02
#       6
#     8  16   8  16  16  16
#     4   9  18  30  47  72  95 123 172 222 265 305
#     4  11  21  31  51  77 103 138 174 215 260 307
#     4   9  18  30  48  71 101 137 165 209 267 305
#     4   9  17  31  48  67  95 131 169 211 260 307
#     4   9  18  30  46  73 101 128 172 213 250 308
#     4  10  21  35  50  72 103 138 175 214 260 312
#
# _framework density 16.761073
#
# number of rings (size 3 to 8) (size 9 to 14) (size 15 to 20)
#    0.000    2.400    2.000    0.600    4.200    1.200 
#    0.000    4.000    0.000    1.200    0.000    2.800 
#    0.000    1.600    0.000    4.400    0.000    0.200 
#
# Total GULP energy -223019.464891 kJ/mol
# GULP energy per Si atom -5575.486622 kJ/mol
# Density = 1.672292 g / cm^3
# Si number density = 16.761073 Si / 1000 Ang^3
#
#
#
# Elastic Constant Matrix: (Units=GPa)
#
#
# Indices 1 2 3 4 5 6 
#
# 1 74.9727 22.3124 61.2739 0.0000 0.0000 0.0000
# 2 22.3124 59.6885 46.8933 0.0000 0.0000 0.0000
# 3 61.2739 46.8933 149.9126 0.0000 0.0000 0.0000
# 4 0.0000 0.0000 0.0000 2.9272 0.0000 0.0000
# 5 0.0000 0.0000 0.0000 0.0000 30.1757 0.0000
# 6 0.0000 0.0000 0.0000 0.0000 0.0000 10.1976
#
#
#
# Elastic Compliance Matrix: (Units=1/GPa)
#
#
# Indices 1 2 3 4 5 6 
#
# 1 0.020117 -0.001406 -0.007783 0.000000 0.000000 0.000000
# 2 -0.001406 0.022310 -0.006404 0.000000 0.000000 0.000000
# 3 -0.007783 -0.006404 0.011855 0.000000 0.000000 0.000000
# 4 0.000000 0.000000 0.000000 0.341619 0.000000 0.000000
# 5 0.000000 0.000000 0.000000 0.000000 0.033139 0.000000
# 6 0.000000 0.000000 0.000000 0.000000 0.000000 0.098062
#
#
# Mechanical properties :
#
#
# Convention : Reuss Voigt Hill
#
# Bulk Modulus (GPa) = 43.29539 60.61478 51.95509
# Shear Modulus (GPa) = 8.83411 18.93307 13.88359
#
# Velocity S-wave (km/s) = 2.29827 3.36458 2.88118
# Velocity P-wave (km/s) = 5.73844 7.16494 6.49100
#
# Compressibility (1/GPa) = 0.02309715
#
# Stress axis : x y z
#
# Youngs Moduli (GPa) = 49.70833 44.82195 84.35301
#
# Poissons Ratio (x) = 0.06300 0.65651
# Poissons Ratio (y) = 0.06987 0.54022
# Poissons Ratio (z) = 0.38687 0.28705
#
# Static dielectric constant tensor:
#      x y z
#    x 1.581010 0.000000 0.000000 
#    y 0.000000 1.554900 0.000000 
#    z 0.000000 0.000000 1.581320 
# 
# From -- ./inp_files/12393.got.cif
#   From: 2010.05.17/outbox.cif.g08.bks.cpg/sg71_7_cif.got.tgz:12393.got - 2010.06.03 16:22:01.
