data_PCOD9522633
_publ_section_title
;
Structure prediction by ZEFSAII (Michael W. Deem and Ramdas Pophale) SiO2 
 PCOD9522633
Probable space group: I M M M
;
_chemical_formula_sum "Si O2"
_cell_formula_units_Z 50
_cell_length_a 8.113681
_cell_length_b 15.271542
_cell_length_c 20.814893
_cell_angle_alpha 90.000000
_cell_angle_beta 90.000000
_cell_angle_gamma 90.000000
_cell_volume 2579.140508
_symmetry_space_group_name_H-M "I M M M"
_symmetry_group_IT_number 71
_symmetry_cell_setting 'orthorhombic'
loop_
_space_group_symop_operation_xyz
x,y,z
-x,-y,z
x,-y,-z
-x,y,-z
-x,-y,-z
x,y,-z
-x,y,z
x,-y,z
1/2+x,1/2+y,1/2+z
1/2-x,1/2-y,1/2+z
1/2+x,1/2-y,1/2-z
1/2-x,1/2+y,1/2-z
1/2-x,1/2-y,1/2-z
1/2+x,1/2+y,1/2-z
1/2-x,1/2+y,1/2+z
1/2+x,1/2-y,1/2+z
loop_
_atom_site_type_symbol
_atom_site_label
_atom_site_fract_x
_atom_site_fract_y
_atom_site_fract_z
Si Si1 0.000000 0.500000 0.500000
Si Si2 0.183099 0.000000 0.095542
Si Si3 0.697315 0.000000 0.425319
Si Si4 0.803424 0.147567 0.325350
Si Si5 0.193046 0.648108 0.682481
O O1 0.150119 0.500000 0.553870
O O2 0.198968 0.085061 0.139850
O O3 0.000000 0.000000 0.066405
O O4 0.752075 0.084906 0.383861
O O5 0.500000 0.000000 0.427345
O O6 0.757075 0.000000 0.500000
O O7 0.764332 0.250725 0.332653
O O8 0.721162 0.124943 0.257222
O O9 0.000000 0.139922 0.317591
O O10 0.000000 0.636680 0.668105
#
# Coordination Sequence:
#
# PCOD9522633 Si02
#       5
#     2   8   8  16  16
#     4  12  26  48  60  90 132 162 224 252 308 390
#     4  12  24  42  67  91 126 170 210 261 316 374
#     4  11  24  41  57  82 123 167 206 252 312 382
#     4  10  21  37  63  93 122 158 208 259 313 374
#     4  10  20  39  64  93 126 159 204 265 314 364
#
# _framework density 19.386303999999999
#
# number of rings (size 3 to 8) (size 9 to 14) (size 15 to 20)
#    0.000    1.440    1.600    3.600    0.000    5.120 
#    2.880    0.000    0.000    0.000    0.000    0.000 
#    0.000    0.000    0.000    0.000    0.000    0.000 
#
# Total GULP energy -139257.673809 kJ/mol
# GULP energy per Si atom -5570.306952 kJ/mol
# Density = 1.934218 g / cm^3
# Si number density = 19.386304 Si / 1000 Ang^3
#
#
#
# Elastic Constant Matrix: (Units=GPa)
#
#
# Indices 1 2 3 4 5 6 
#
# 1 112.7075 42.5854 46.7494 0.0000 0.0000 0.0000
# 2 42.5854 88.9406 80.8576 0.0000 0.0000 0.0000
# 3 46.7494 80.8576 141.5201 0.0000 0.0000 0.0000
# 4 0.0000 0.0000 0.0000 1.7597 0.0000 0.0000
# 5 0.0000 0.0000 0.0000 0.0000 0.7681 0.0000
# 6 0.0000 0.0000 0.0000 0.0000 0.0000 104.4508
#
#
#
# Elastic Compliance Matrix: (Units=1/GPa)
#
#
# Indices 1 2 3 4 5 6 
#
# 1 0.010945 -0.004065 -0.001293 0.000000 0.000000 0.000000
# 2 -0.004065 0.024906 -0.012887 0.000000 0.000000 0.000000
# 3 -0.001293 -0.012887 0.014856 0.000000 0.000000 0.000000
# 4 0.000000 0.000000 0.000000 0.568266 0.000000 0.000000
# 5 0.000000 0.000000 0.000000 0.000000 1.301946 0.000000
# 6 0.000000 0.000000 0.000000 0.000000 0.000000 0.009574
#
#
# Mechanical properties :
#
#
# Convention : Reuss Voigt Hill
#
# Bulk Modulus (GPa) = 70.33966 75.95033 73.14499
# Shear Modulus (GPa) = 2.53585 32.92744 17.73165
#
# Velocity S-wave (km/s) = 1.14495 4.12575 3.02760
# Velocity P-wave (km/s) = 6.17331 7.87134 7.07347
#
# Compressibility (1/GPa) = 0.01421673
#
# Stress axis : x y z
#
# Youngs Moduli (GPa) = 91.36819 40.15153 67.31173
#
# Poissons Ratio (x) = 0.16322 0.08703
# Poissons Ratio (y) = 0.37141 0.86745
# Poissons Ratio (z) = 0.11813 0.51743
#
# Static dielectric constant tensor:
#      x y z
#    x 1.670220 0.000000 0.000000 
#    y 0.000000 1.671890 0.000000 
#    z 0.000000 0.000000 1.659140 
# 
# From -- ./inp_files/30827.got.cif
#   From: 2010.05.17/outbox.cif.g08.bks.cpg/sg71_16_cif.got.tgz:30827.got - 2010.06.03 16:22:01.
