data_PCOD9522223
_publ_section_title
;
Structure prediction by ZEFSAII (Michael W. Deem and Ramdas Pophale) SiO2 
 PCOD9522223
Probable space group: I M M M
;
_chemical_formula_sum "Si O2"
_cell_formula_units_Z 120
_cell_length_a 9.123355
_cell_length_b 28.420550
_cell_length_c 26.960675
_cell_angle_alpha 90.000000
_cell_angle_beta 90.000000
_cell_angle_gamma 90.000000
_cell_volume 6990.654098
_symmetry_space_group_name_H-M "I M M M"
_symmetry_group_IT_number 71
_symmetry_cell_setting 'orthorhombic'
loop_
_space_group_symop_operation_xyz
x,y,z
-x,-y,z
x,-y,-z
-x,y,-z
-x,-y,-z
x,y,-z
-x,y,z
x,-y,z
1/2+x,1/2+y,1/2+z
1/2-x,1/2-y,1/2+z
1/2+x,1/2-y,1/2-z
1/2-x,1/2+y,1/2-z
1/2-x,1/2-y,1/2-z
1/2+x,1/2+y,1/2-z
1/2-x,1/2+y,1/2+z
1/2+x,1/2-y,1/2+z
loop_
_atom_site_type_symbol
_atom_site_label
_atom_site_fract_x
_atom_site_fract_y
_atom_site_fract_z
Si Si1 0.825081 0.385679 0.201902
Si Si2 0.668470 0.213750 0.559471
Si Si3 0.174701 0.944593 0.500000
Si Si4 0.674259 0.809721 0.058006
Si Si5 0.674463 0.638224 0.354121
Si Si6 0.324663 0.300608 0.256508
Si Si7 0.824751 0.554431 0.701318
Si Si8 0.175453 0.391052 0.909578
O O1 0.740028 0.338537 0.217702
O O2 0.796359 0.424752 0.243766
O O3 0.787088 0.403249 0.146993
O O4 0.000000 0.375353 0.202102
O O5 0.672688 0.206667 0.500000
O O6 0.500000 0.225527 0.573125
O O7 0.771873 0.257230 0.571621
O O8 0.708634 0.164339 0.583671
O O9 0.242439 0.920370 0.548653
O O10 0.000000 0.938327 0.500000
O O11 0.208145 0.000000 0.500000
O O12 0.500000 0.813336 0.062941
O O13 0.753868 0.844983 0.094969
O O14 0.713128 0.817144 0.000000
O O15 0.500000 0.635056 0.358614
O O16 0.707273 0.676449 0.310603
O O17 0.741305 0.589038 0.335777
O O18 0.500000 0.296712 0.251273
O O19 0.250000 0.250000 0.250000
O O20 0.782098 0.500000 0.697416
O O21 0.000000 0.557953 0.692929
O O22 0.000000 0.396454 0.916971
#
# Coordination Sequence:
#
# PCOD9522223 Si02
#       8
#    16  16   8  16  16  16  16  16
#     4   9  19  34  54  81 109 137 177 226 274 326
#     4   9  17  31  50  73 104 140 179 220 264 312
#     4  11  25  41  55  75 105 141 183 235 290 337
#     4  10  21  35  53  81 113 146 183 219 262 317
#     4  10  21  36  55  80 110 145 183 222 266 318
#     4  10  21  35  51  75 109 148 186 222 268 322
#     4   9  18  35  58  82 109 140 176 222 274 325
#     4  10  20  36  57  79 104 139 182 230 278 331
#
# _framework density 17.165776000000001
#
# number of rings (size 3 to 8) (size 9 to 14) (size 15 to 20)
#    0.000    2.333    0.667    1.400    1.867    4.800 
#    0.000    1.333    0.000    0.400    0.000    2.800 
#    0.000    0.000    0.000    0.000    0.000    0.000 
#
# Total GULP energy -334861.183232 kJ/mol
# GULP energy per Si atom -5581.019721 kJ/mol
# Density = 1.712671 g / cm^3
# Si number density = 17.165776 Si / 1000 Ang^3
#
#
#
# Elastic Constant Matrix: (Units=GPa)
#
#
# Indices 1 2 3 4 5 6 
#
# 1 57.9814 67.8214 61.5289 0.0000 0.0000 0.0000
# 2 67.8214 132.3008 72.5716 0.0000 0.0000 0.0000
# 3 61.5289 72.5716 112.2331 0.0000 0.0000 0.0000
# 4 0.0000 0.0000 0.0000 10.9250 0.0000 0.0000
# 5 0.0000 0.0000 0.0000 0.0000 22.5132 0.0000
# 6 0.0000 0.0000 0.0000 0.0000 0.0000 29.4695
#
#
#
# Elastic Compliance Matrix: (Units=1/GPa)
#
#
# Indices 1 2 3 4 5 6 
#
# 1 0.066475 -0.021829 -0.022328 0.000000 0.000000 0.000000
# 2 -0.021829 0.018882 -0.000242 0.000000 0.000000 0.000000
# 3 -0.022328 -0.000242 0.021307 0.000000 0.000000 0.000000
# 4 0.000000 0.000000 0.000000 0.091533 0.000000 0.000000
# 5 0.000000 0.000000 0.000000 0.000000 0.044418 0.000000
# 6 0.000000 0.000000 0.000000 0.000000 0.000000 0.033933
#
#
# Mechanical properties :
#
#
# Convention : Reuss Voigt Hill
#
# Bulk Modulus (GPa) = 55.97397 78.48435 67.22916
# Shear Modulus (GPa) = 13.46613 19.28777 16.37695
#
# Velocity S-wave (km/s) = 2.80389 3.35568 3.09212
# Velocity P-wave (km/s) = 6.56971 7.79966 7.21096
#
# Compressibility (1/GPa) = 0.01786545
#
# Stress axis : x y z
#
# Youngs Moduli (GPa) = 15.04324 52.96173 46.93293
#
# Poissons Ratio (x) = 1.15613 1.04791
# Poissons Ratio (y) = 0.32839 0.01134
# Poissons Ratio (z) = 0.33588 0.01280
#
# Static dielectric constant tensor:
#      x y z
#    x 1.572850 0.000000 0.000000 
#    y 0.000000 1.553290 0.000000 
#    z 0.000000 0.000000 1.583290 
# 
# From -- ./inp_files/63762.got.cif
#   From: 2010.05.17/outbox.cif.g08.bks.cpg/sg71_32_cif.got.tgz:63762.got - 2010.06.03 16:22:01.
