data_PCOD9522697
_publ_section_title
;
Structure prediction by ZEFSAII (Michael W. Deem and Ramdas Pophale) SiO2 
 PCOD9522697
Probable space group: I M M M
;
_chemical_formula_sum "Si O2"
_cell_formula_units_Z 80
_cell_length_a 20.894906
_cell_length_b 18.317659
_cell_length_c 13.469539
_cell_angle_alpha 90.000000
_cell_angle_beta 90.000000
_cell_angle_gamma 90.000000
_cell_volume 5155.408981
_symmetry_space_group_name_H-M "I M M M"
_symmetry_group_IT_number 71
_symmetry_cell_setting 'orthorhombic'
loop_
_space_group_symop_operation_xyz
x,y,z
-x,-y,z
x,-y,-z
-x,y,-z
-x,-y,-z
x,y,-z
-x,y,z
x,-y,z
1/2+x,1/2+y,1/2+z
1/2-x,1/2-y,1/2+z
1/2+x,1/2-y,1/2-z
1/2-x,1/2+y,1/2-z
1/2-x,1/2-y,1/2-z
1/2+x,1/2+y,1/2-z
1/2-x,1/2+y,1/2+z
1/2+x,1/2-y,1/2+z
loop_
_atom_site_type_symbol
_atom_site_label
_atom_site_fract_x
_atom_site_fract_y
_atom_site_fract_z
Si Si1 0.802053 0.850821 0.301971
Si Si2 0.573152 0.585023 0.880580
Si Si3 0.748356 0.000000 0.615251
Si Si4 0.803939 0.756149 0.116815
Si Si5 0.929359 0.662204 0.879265
Si Si6 0.595502 0.000000 0.614300
O O1 0.875182 0.860396 0.335811
O O2 0.771302 0.928282 0.328800
O O3 0.799862 0.825939 0.187997
O O4 0.759233 0.792212 0.361778
O O5 0.500000 0.600481 0.851131
O O6 0.587111 0.500000 0.853347
O O7 0.576723 0.588614 0.000000
O O8 0.672029 0.000000 0.611606
O O9 0.771795 0.000000 0.500000
O O10 0.867050 0.709299 0.148711
O O11 0.808815 0.771892 0.000000
O O12 0.924652 0.578220 0.842485
O O13 0.000000 0.691447 0.852149
O O14 0.926553 0.659123 0.000000
O O15 0.572424 0.000000 0.500000
#
# Coordination Sequence:
#
# PCOD9522697 Si02
#       6
#    16  16   8  16  16   8
#     4  11  20  31  52  72  93 129 161 200 243 289
#     4   9  17  29  48  74  97 116 149 202 251 282
#     4  11  18  29  52  76  94 116 155 203 245 281
#     4  10  21  34  46  69 100 131 163 194 234 290
#     4   9  16  27  44  67  96 127 155 186 229 278
#     4   9  15  24  43  70  97 120 150 191 227 270
#
# _framework density 15.517683
#
# number of rings (size 3 to 8) (size 9 to 14) (size 15 to 20)
#    0.000    2.200    3.000    2.700    0.000    2.000 
#    0.000    0.500    0.000    0.000    0.000    1.400 
#    0.000    0.000    0.000    5.200    0.000    0.800 
#
# Total GULP energy -222750.168486 kJ/mol
# GULP energy per Si atom -5568.754212 kJ/mol
# Density = 1.548236 g / cm^3
# Si number density = 15.517683 Si / 1000 Ang^3
#
#
#
# Elastic Constant Matrix: (Units=GPa)
#
#
# Indices 1 2 3 4 5 6 
#
# 1 123.4807 38.1766 33.1986 0.0000 0.0000 0.0000
# 2 38.1766 76.6631 46.3172 0.0000 0.0000 0.0000
# 3 33.1986 46.3172 66.4334 0.0000 0.0000 0.0000
# 4 0.0000 0.0000 0.0000 18.0789 0.0000 0.0000
# 5 0.0000 0.0000 0.0000 0.0000 10.9348 0.0000
# 6 0.0000 0.0000 0.0000 0.0000 0.0000 10.7498
#
#
#
# Elastic Compliance Matrix: (Units=1/GPa)
#
#
# Indices 1 2 3 4 5 6 
#
# 1 0.009823 -0.003328 -0.002589 0.000000 0.000000 0.000000
# 2 -0.003328 0.023665 -0.014836 0.000000 0.000000 0.000000
# 3 -0.002589 -0.014836 0.026690 0.000000 0.000000 0.000000
# 4 0.000000 0.000000 0.000000 0.055313 0.000000 0.000000
# 5 0.000000 0.000000 0.000000 0.000000 0.091451 0.000000
# 6 0.000000 0.000000 0.000000 0.000000 0.000000 0.093025
#
#
# Mechanical properties :
#
#
# Convention : Reuss Voigt Hill
#
# Bulk Modulus (GPa) = 53.55385 55.77355 54.66370
# Shear Modulus (GPa) = 14.38036 17.87835 16.12936
#
# Velocity S-wave (km/s) = 3.04749 3.39798 3.22750
# Velocity P-wave (km/s) = 6.85342 7.17043 7.01371
#
# Compressibility (1/GPa) = 0.01867279
#
# Stress axis : x y z
#
# Youngs Moduli (GPa) = 101.79878 42.25729 37.46723
#
# Poissons Ratio (x) = 0.14062 0.09700
# Poissons Ratio (y) = 0.33875 0.55586
# Poissons Ratio (z) = 0.26355 0.62693
#
# Static dielectric constant tensor:
#      x y z
#    x 1.567600 0.000000 0.000000 
#    y 0.000000 1.526610 0.000000 
#    z 0.000000 0.000000 1.490610 
# 
# From -- ./inp_files/27371.got.cif
#   From: 2010.05.17/outbox.cif.g08.bks.cpg/sg71_14_cif.got.tgz:27371.got - 2010.06.03 16:22:01.
