data_PCOD9522510
_publ_section_title
;
Structure prediction by ZEFSAII (Michael W. Deem and Ramdas Pophale) SiO2 
 PCOD9522510
Probable space group: I M M M
;
_chemical_formula_sum "Si O2"
_cell_formula_units_Z 68
_cell_length_a 7.733364
_cell_length_b 27.711359
_cell_length_c 13.603586
_cell_angle_alpha 90.000000
_cell_angle_beta 90.000000
_cell_angle_gamma 90.000000
_cell_volume 2915.276042
_symmetry_space_group_name_H-M "I M M M"
_symmetry_group_IT_number 71
_symmetry_cell_setting 'orthorhombic'
loop_
_space_group_symop_operation_xyz
x,y,z
-x,-y,z
x,-y,-z
-x,y,-z
-x,-y,-z
x,y,-z
-x,y,z
x,-y,z
1/2+x,1/2+y,1/2+z
1/2-x,1/2-y,1/2+z
1/2+x,1/2-y,1/2-z
1/2-x,1/2+y,1/2-z
1/2-x,1/2-y,1/2-z
1/2+x,1/2+y,1/2-z
1/2-x,1/2+y,1/2+z
1/2+x,1/2-y,1/2+z
loop_
_atom_site_type_symbol
_atom_site_label
_atom_site_fract_x
_atom_site_fract_y
_atom_site_fract_z
Si Si1 0.298994 0.328306 0.114954
Si Si2 0.204949 0.775513 0.886690
Si Si3 0.292494 0.882994 0.888644
Si Si4 0.698822 0.928228 0.305224
Si Si5 0.000000 0.000000 0.363679
O O1 0.500000 0.340595 0.123354
O O2 0.277412 0.274190 0.156806
O O3 0.197156 0.373123 0.157910
O O4 0.250854 0.324586 0.000000
O O5 0.242222 0.829552 0.850900
O O6 0.000000 0.769505 0.888060
O O7 0.272263 0.777661 0.000000
O O8 0.500000 0.883991 0.892727
O O9 0.242918 0.923282 0.809281
O O10 0.224811 0.889471 0.000000
O O11 0.500000 0.945911 0.311486
O O12 0.844800 0.958525 0.360360
#
# Coordination Sequence:
#
# PCOD9522510 Si02
#       5
#    16  16  16  16   4
#     4  10  20  37  61  90 126 165 203 248 304 368
#     4   9  17  29  52  88 127 164 201 241 293 362
#     4   9  19  37  60  89 125 163 202 247 302 367
#     4  11  24  43  67  90 118 160 206 259 319 367
#     4  12  26  48  66  90 124 156 212 276 316 362
#
# _framework density 23.325407999999999
#
# number of rings (size 3 to 8) (size 9 to 14) (size 15 to 20)
#    0.000    2.118    1.176    1.765    1.647    5.176 
#    0.000    2.353    0.000    4.235    0.000    0.000 
#    0.000    0.000    0.000    0.000    0.000    0.000 
#
# Total GULP energy -189370.343465 kJ/mol
# GULP energy per Si atom -5569.715984 kJ/mol
# Density = 2.327232 g / cm^3
# Si number density = 23.325408 Si / 1000 Ang^3
#
#
#
# Elastic Constant Matrix: (Units=GPa)
#
#
# Indices 1 2 3 4 5 6 
#
# 1 83.2189 29.4414 18.6365 -0.0001 0.0000 0.0000
# 2 29.4414 76.7290 6.6802 -0.0001 0.0000 0.0000
# 3 18.6365 6.6802 39.8745 -0.0001 0.0000 0.0001
# 4 -0.0001 -0.0001 -0.0001 -114.8753 -0.0001 0.0001
# 5 0.0000 0.0000 0.0000 -0.0001 8.4457 0.0000
# 6 0.0000 0.0000 0.0001 0.0001 0.0000 141.8399
#
#
#
# Elastic Compliance Matrix: (Units=1/GPa)
#
#
# Indices 1 2 3 4 5 6 
#
# 1 0.015303 -0.005327 -0.006260 0.000000 0.000000 0.000000
# 2 -0.005327 0.015080 -0.000037 0.000000 0.000000 0.000000
# 3 -0.006260 -0.000037 0.028011 0.000000 0.000000 0.000000
# 4 0.000000 0.000000 0.000000 -0.008705 0.000000 0.000000
# 5 0.000000 0.000000 0.000000 0.000000 0.118403 0.000000
# 6 0.000000 0.000000 0.000000 0.000000 0.000000 0.007050
#
#
# Mechanical properties :
#
#
# Convention : Reuss Voigt Hill
#
# Bulk Modulus (GPa) = 28.45218 34.37097 31.41158
# Shear Modulus (GPa) = 23.79772 16.75303 20.27537
#
# Velocity S-wave (km/s) = 3.19760 2.68289 2.95149
# Velocity P-wave (km/s) = 5.08500 4.93605 5.01108
#
# Compressibility (1/GPa) = 0.03514669
#
# Stress axis : x y z
#
# Youngs Moduli (GPa) = 65.34701 66.31289 35.70080
#
# Poissons Ratio (x) = 0.35324 0.22348
# Poissons Ratio (y) = 0.34809 0.00131
# Poissons Ratio (z) = 0.40906 0.00243
#
# Static dielectric constant tensor:
#      x y z
#    x 1.800040 0.000000 0.000000 
#    y 0.000000 1.870980 0.000000 
#    z 0.000000 0.000000 2.013760 
# 
# From -- ./inp_files/41934.got.cif
#   From: 2010.05.17/outbox.cif.g08.bks.cpg/sg71_21_cif.got.tgz:41934.got - 2010.06.03 16:22:01.
