data_PCOD9522345
_publ_section_title
;
Structure prediction by ZEFSAII (Michael W. Deem and Ramdas Pophale) SiO2 
 PCOD9522345
Probable space group: I M M M
;
_chemical_formula_sum "Si O2"
_cell_formula_units_Z 64
_cell_length_a 25.024846
_cell_length_b 13.752573
_cell_length_c 9.129509
_cell_angle_alpha 90.000000
_cell_angle_beta 90.000000
_cell_angle_gamma 90.000000
_cell_volume 3141.975495
_symmetry_space_group_name_H-M "I M M M"
_symmetry_group_IT_number 71
_symmetry_cell_setting 'orthorhombic'
loop_
_space_group_symop_operation_xyz
x,y,z
-x,-y,z
x,-y,-z
-x,y,-z
-x,-y,-z
x,y,-z
-x,y,z
x,-y,z
1/2+x,1/2+y,1/2+z
1/2-x,1/2-y,1/2+z
1/2+x,1/2-y,1/2-z
1/2-x,1/2+y,1/2-z
1/2-x,1/2-y,1/2-z
1/2+x,1/2+y,1/2-z
1/2-x,1/2+y,1/2+z
1/2+x,1/2-y,1/2+z
loop_
_atom_site_type_symbol
_atom_site_label
_atom_site_fract_x
_atom_site_fract_y
_atom_site_fract_z
Si Si1 0.561100 0.500000 0.734333
Si Si2 0.320069 0.500000 0.336843
Si Si3 0.248099 0.353526 0.824712
Si Si4 0.637821 0.892389 0.174669
Si Si5 0.441378 0.277350 0.172782
O O1 0.500000 0.500000 0.672946
O O2 0.616510 0.500000 0.648323
O O3 0.565581 0.394187 0.812575
O O4 0.295931 0.500000 0.500000
O O5 0.297954 0.589324 0.243281
O O6 0.250000 0.250000 0.750000
O O7 0.192230 0.395598 0.766601
O O8 0.250619 0.352290 0.000000
O O9 0.602899 0.799492 0.226655
O O10 0.611579 0.000000 0.188638
O O11 0.650029 0.879675 0.000000
O O12 0.500000 0.255446 0.237810
O O13 0.443342 0.257878 0.000000
#
# Coordination Sequence:
#
# PCOD9522345 Si02
#       5
#     8   8  16  16  16
#     4  10  21  37  59  87 122 163 208 260 318 379
#     4  12  25  42  64  92 125 163 209 258 313 380
#     4  12  25  41  63  91 125 165 209 261 316 378
#     4  10  20  36  59  87 125 167 210 262 315 375
#     4   9  18  33  56  88 123 163 212 264 317 373
#
# _framework density 20.369350000000001
#
# number of rings (size 3 to 8) (size 9 to 14) (size 15 to 20)
#    0.000    1.500    1.250    4.500    0.000    6.250 
#    0.000    2.500    0.000    2.250    0.000    1.750 
#    0.000    0.000    0.000    0.000    0.000    0.000 
#
# Total GULP energy -178210.023236 kJ/mol
# GULP energy per Si atom -5569.063226 kJ/mol
# Density = 2.032299 g / cm^3
# Si number density = 20.369350 Si / 1000 Ang^3
#
#
#
# Elastic Constant Matrix: (Units=GPa)
#
#
# Indices 1 2 3 4 5 6 
#
# 1 128.4424 58.1128 45.4819 0.0000 0.0000 0.0000
# 2 58.1128 145.3413 35.9771 0.0000 0.0000 0.0000
# 3 45.4819 35.9771 115.1582 0.0000 0.0000 0.0000
# 4 0.0000 0.0000 0.0000 136.9228 0.0000 0.0000
# 5 0.0000 0.0000 0.0000 0.0000 18.8723 0.0000
# 6 0.0000 0.0000 0.0000 0.0000 0.0000 51.9712
#
#
#
# Elastic Compliance Matrix: (Units=1/GPa)
#
#
# Indices 1 2 3 4 5 6 
#
# 1 0.010405 -0.003407 -0.003045 0.000000 0.000000 0.000000
# 2 -0.003407 0.008572 -0.001333 0.000000 0.000000 0.000000
# 3 -0.003045 -0.001333 0.010303 0.000000 0.000000 0.000000
# 4 0.000000 0.000000 0.000000 0.007303 0.000000 0.000000
# 5 0.000000 0.000000 0.000000 0.000000 0.052988 0.000000
# 6 0.000000 0.000000 0.000000 0.000000 0.000000 0.019241
#
#
# Mechanical properties :
#
#
# Convention : Reuss Voigt Hill
#
# Bulk Modulus (GPa) = 72.93291 74.23172 73.58232
# Shear Modulus (GPa) = 38.77403 58.17793 48.47598
#
# Velocity S-wave (km/s) = 4.36770 5.35009 4.88366
# Velocity P-wave (km/s) = 7.83062 8.64214 8.24637
#
# Compressibility (1/GPa) = 0.01371123
#
# Stress axis : x y z
#
# Youngs Moduli (GPa) = 96.10570 116.65455 97.06104
#
# Poissons Ratio (x) = 0.39739 0.29558
# Poissons Ratio (y) = 0.32739 0.12935
# Poissons Ratio (z) = 0.29267 0.15546
#
# Static dielectric constant tensor:
#      x y z
#    x 1.757310 0.000000 0.000000 
#    y 0.000000 1.741570 0.000000 
#    z 0.000000 0.000000 1.692070 
# 
# From -- ./inp_files/12004.got.cif
#   From: 2010.05.17/outbox.cif.g08.bks.cpg/sg71_7_cif.got.tgz:12004.got - 2010.06.03 16:22:01.
