data_PCOD9522779
_publ_section_title
;
Structure prediction by ZEFSAII (Michael W. Deem and Ramdas Pophale) SiO2 
 PCOD9522779
Probable space group: I M M M
;
_chemical_formula_sum "Si O2"
_cell_formula_units_Z 120
_cell_length_a 8.304335
_cell_length_b 27.878337
_cell_length_c 28.605546
_cell_angle_alpha 90.000000
_cell_angle_beta 90.000000
_cell_angle_gamma 90.000000
_cell_volume 6622.499981
_symmetry_space_group_name_H-M "I M M M"
_symmetry_group_IT_number 71
_symmetry_cell_setting 'orthorhombic'
loop_
_space_group_symop_operation_xyz
x,y,z
-x,-y,z
x,-y,-z
-x,y,-z
-x,-y,-z
x,y,-z
-x,y,z
x,-y,z
1/2+x,1/2+y,1/2+z
1/2-x,1/2-y,1/2+z
1/2+x,1/2-y,1/2-z
1/2-x,1/2+y,1/2-z
1/2-x,1/2-y,1/2-z
1/2+x,1/2+y,1/2-z
1/2-x,1/2+y,1/2+z
1/2+x,1/2-y,1/2+z
loop_
_atom_site_type_symbol
_atom_site_label
_atom_site_fract_x
_atom_site_fract_y
_atom_site_fract_z
Si Si1 0.805606 0.819148 0.053800
Si Si2 0.193892 0.350805 0.859777
Si Si3 0.192102 0.898921 0.781798
Si Si4 0.307944 0.908318 0.886487
Si Si5 0.306260 0.053231 0.688354
Si Si6 0.807368 0.198513 0.266850
Si Si7 0.196947 0.500000 0.553799
Si Si8 0.803305 0.290531 0.946846
O O1 0.740355 0.858604 0.088998
O O2 0.755736 0.764363 0.064625
O O3 0.000000 0.820478 0.055397
O O4 0.756742 0.829622 0.000000
O O5 0.254814 0.403445 0.844498
O O6 0.237551 0.315628 0.817216
O O7 0.253562 0.328082 0.908121
O O8 0.000000 0.353601 0.862645
O O9 0.242787 0.911361 0.834014
O O10 0.264698 0.932555 0.741544
O O11 0.242319 0.844501 0.768214
O O12 0.000000 0.901645 0.778136
O O13 0.500000 0.911030 0.884242
O O14 0.250051 0.952533 0.918543
O O15 0.500000 0.052583 0.684331
O O16 0.245059 0.000000 0.677297
O O17 0.750000 0.250000 0.250000
O O18 0.000000 0.198286 0.269638
O O19 0.250508 0.500000 0.500000
O O20 0.000000 0.500000 0.553307
O O21 0.000000 0.290951 0.946601
O O22 0.752619 0.301121 0.000000
#
# Coordination Sequence:
#
# PCOD9522779 Si02
#       8
#    16  16  16  16  16  16   8  16
#     4   9  18  33  51  72 100 132 167 210 257 304
#     4   9  17  31  52  76 101 135 176 210 250 304
#     4  10  22  37  51  73 102 133 169 209 254 305
#     4  11  22  35  54  76  98 128 168 215 263 311
#     4   9  18  33  53  75 102 133 169 215 259 302
#     4  10  21  35  51  72 103 136 168 207 252 304
#     4   9  20  38  55  71  95 129 167 209 260 311
#     4   8  15  29  51  77 104 136 171 205 246 300
#
# _framework density 18.120045000000001
#
# number of rings (size 3 to 8) (size 9 to 14) (size 15 to 20)
#    0.000    2.600    0.000    2.400    2.800    2.667 
#    0.000    1.000    0.000    4.000    0.000    2.800 
#    0.000    0.000    0.000    6.667    0.000    6.933 
#
# Total GULP energy -334715.773791 kJ/mol
# GULP energy per Si atom -5578.596230 kJ/mol
# Density = 1.807880 g / cm^3
# Si number density = 18.120045 Si / 1000 Ang^3
#
#
#
# Elastic Constant Matrix: (Units=GPa)
#
#
# Indices 1 2 3 4 5 6 
#
# 1 7.3727 8.2940 4.7920 0.0000 0.0000 0.0000
# 2 8.2940 144.6072 89.5347 0.0000 0.0000 0.0000
# 3 4.7920 89.5347 133.4436 0.0000 0.0000 0.0000
# 4 0.0000 0.0000 0.0000 15.8282 0.0000 0.0000
# 5 0.0000 0.0000 0.0000 0.0000 17.0969 0.0000
# 6 0.0000 0.0000 0.0000 0.0000 0.0000 16.7130
#
#
#
# Elastic Compliance Matrix: (Units=1/GPa)
#
#
# Indices 1 2 3 4 5 6 
#
# 1 0.145022 -0.008713 0.000638 0.000000 0.000000 0.000000
# 2 -0.008713 0.012353 -0.007976 0.000000 0.000000 0.000000
# 3 0.000638 -0.007976 0.012822 0.000000 0.000000 0.000000
# 4 0.000000 0.000000 0.000000 0.063178 0.000000 0.000000
# 5 0.000000 0.000000 0.000000 0.000000 0.058490 0.000000
# 6 0.000000 0.000000 0.000000 0.000000 0.000000 0.059834
#
#
# Mechanical properties :
#
#
# Convention : Reuss Voigt Hill
#
# Bulk Modulus (GPa) = 7.24128 54.51829 30.87979
# Shear Modulus (GPa) = 11.63244 22.11448 16.87346
#
# Velocity S-wave (km/s) = 2.53645 3.49727 3.05487
# Velocity P-wave (km/s) = 3.54726 6.81619 5.43340
#
# Compressibility (1/GPa) = 0.13809710
#
# Stress axis : x y z
#
# Youngs Moduli (GPa) = 6.89549 80.95125 77.99040
#
# Poissons Ratio (x) = 0.70532 -0.04978
# Poissons Ratio (y) = 0.06008 0.62201
# Poissons Ratio (z) = -0.00440 0.64563
#
# Static dielectric constant tensor:
#      x y z
#    x 1.633660 0.000000 0.000000 
#    y 0.000000 1.619400 0.000000 
#    z 0.000000 0.000000 1.601520 
# 
# From -- ./inp_files/63850.got.cif
#   From: 2010.05.17/outbox.cif.g08.bks.cpg/sg71_32_cif.got.tgz:63850.got - 2010.06.03 16:22:01.
