data_PCOD9522823
_publ_section_title
;
Structure prediction by ZEFSAII (Michael W. Deem and Ramdas Pophale) SiO2 
 PCOD9522823
Probable space group: I M M M
;
_chemical_formula_sum "Si O2"
_cell_formula_units_Z 88
_cell_length_a 9.004747
_cell_length_b 28.472145
_cell_length_c 19.355551
_cell_angle_alpha 90.000000
_cell_angle_beta 90.000000
_cell_angle_gamma 90.000000
_cell_volume 4962.462535
_symmetry_space_group_name_H-M "I M M M"
_symmetry_group_IT_number 71
_symmetry_cell_setting 'orthorhombic'
loop_
_space_group_symop_operation_xyz
x,y,z
-x,-y,z
x,-y,-z
-x,y,-z
-x,-y,-z
x,y,-z
-x,y,z
x,-y,z
1/2+x,1/2+y,1/2+z
1/2-x,1/2-y,1/2+z
1/2+x,1/2-y,1/2-z
1/2-x,1/2+y,1/2-z
1/2-x,1/2-y,1/2-z
1/2+x,1/2+y,1/2-z
1/2-x,1/2+y,1/2+z
1/2+x,1/2-y,1/2+z
loop_
_atom_site_type_symbol
_atom_site_label
_atom_site_fract_x
_atom_site_fract_y
_atom_site_fract_z
Si Si1 0.321204 0.947763 0.778068
Si Si2 0.676975 0.846347 0.167918
Si Si3 0.166855 0.444350 0.000000
Si Si4 0.323445 0.586695 0.139205
Si Si5 0.821595 0.316257 0.822332
Si Si6 0.678440 0.729786 0.421055
O O1 0.500000 0.945044 0.769322
O O2 0.278106 0.900947 0.820838
O O3 0.246184 0.941534 0.703489
O O4 0.286216 0.000000 0.805972
O O5 0.500000 0.845393 0.157248
O O6 0.707766 0.818482 0.240009
O O7 0.756641 0.818970 0.106787
O O8 0.255345 0.430384 0.067879
O O9 0.153387 0.500000 0.000000
O O10 0.000000 0.423521 0.000000
O O11 0.500000 0.582931 0.140225
O O12 0.268942 0.639986 0.148454
O O13 0.779942 0.270289 0.865905
O O14 0.000000 0.323835 0.830384
O O15 0.725794 0.740152 0.500000
O O16 0.500000 0.727399 0.420637
#
# Coordination Sequence:
#
# PCOD9522823 Si02
#       6
#    16  16   8  16  16  16
#     4   9  18  35  57  78 102 135 175 213 257 319
#     4   9  18  33  54  80 106 135 173 219 266 312
#     4  11  23  37  51  65  93 143 187 217 260 315
#     4  11  22  33  49  77 107 132 170 223 270 309
#     4   9  19  36  55  75 102 141 183 215 255 316
#     4  10  21  35  53  78 106 140 179 217 262 319
#
# _framework density 17.733131
#
# number of rings (size 3 to 8) (size 9 to 14) (size 15 to 20)
#    0.000    2.273    0.000    4.091    1.273    7.273 
#    0.000    0.000    0.000    0.545    0.000    3.818 
#    0.000    0.000    0.000    0.000    0.000    0.000 
#
# Total GULP energy -245379.714213 kJ/mol
# GULP energy per Si atom -5576.811687 kJ/mol
# Density = 1.769277 g / cm^3
# Si number density = 17.733131 Si / 1000 Ang^3
#
#
#
# Elastic Constant Matrix: (Units=GPa)
#
#
# Indices 1 2 3 4 5 6 
#
# 1 19.7106 22.5739 15.4523 0.0000 0.0000 0.0000
# 2 22.5739 109.6575 36.9170 0.0000 0.0000 0.0000
# 3 15.4523 36.9170 42.3324 0.0000 0.0000 0.0000
# 4 0.0000 0.0000 0.0000 9.8220 0.0000 0.0000
# 5 0.0000 0.0000 0.0000 0.0000 27.7763 0.0000
# 6 0.0000 0.0000 0.0000 0.0000 0.0000 12.7608
#
#
#
# Elastic Compliance Matrix: (Units=1/GPa)
#
#
# Indices 1 2 3 4 5 6 
#
# 1 0.076914 -0.009034 -0.020197 0.000000 0.000000 0.000000
# 2 -0.009034 0.013970 -0.008886 0.000000 0.000000 0.000000
# 3 -0.020197 -0.008886 0.038744 0.000000 0.000000 0.000000
# 4 0.000000 0.000000 0.000000 0.101812 0.000000 0.000000
# 5 0.000000 0.000000 0.000000 0.000000 0.036002 0.000000
# 6 0.000000 0.000000 0.000000 0.000000 0.000000 0.078365
#
#
# Mechanical properties :
#
#
# Convention : Reuss Voigt Hill
#
# Bulk Modulus (GPa) = 18.72832 35.73187 27.23010
# Shear Modulus (GPa) = 11.36780 16.52232 13.94506
#
# Velocity S-wave (km/s) = 2.53464 3.05572 2.80730
# Velocity P-wave (km/s) = 4.37607 5.71344 5.08888
#
# Compressibility (1/GPa) = 0.05339507
#
# Stress axis : x y z
#
# Youngs Moduli (GPa) = 13.00152 71.57977 25.81052
#
# Poissons Ratio (x) = 0.64664 0.52130
# Poissons Ratio (y) = 0.11745 0.22934
# Poissons Ratio (z) = 0.26259 0.63603
#
# Static dielectric constant tensor:
#      x y z
#    x 1.593410 0.000000 0.000000 
#    y 0.000000 1.626450 0.000000 
#    z 0.000000 0.000000 1.580140 
# 
# From -- ./inp_files/8815.got.cif
#   From: 2010.05.17/outbox.cif.g08.bks.cpg/sg71_5_cif.got.tgz:8815.got - 2010.06.03 16:22:01.
