data_PCOD9522333
_publ_section_title
;
Structure prediction by ZEFSAII (Michael W. Deem and Ramdas Pophale) SiO2 
 PCOD9522333
Probable space group: I M M M
;
_chemical_formula_sum "Si O2"
_cell_formula_units_Z 56
_cell_length_a 8.282683
_cell_length_b 19.459647
_cell_length_c 15.717061
_cell_angle_alpha 90.000000
_cell_angle_beta 90.000000
_cell_angle_gamma 90.000000
_cell_volume 2533.245831
_symmetry_space_group_name_H-M "I M M M"
_symmetry_group_IT_number 71
_symmetry_cell_setting 'orthorhombic'
loop_
_space_group_symop_operation_xyz
x,y,z
-x,-y,z
x,-y,-z
-x,y,-z
-x,-y,-z
x,y,-z
-x,y,z
x,-y,z
1/2+x,1/2+y,1/2+z
1/2-x,1/2-y,1/2+z
1/2+x,1/2-y,1/2-z
1/2-x,1/2+y,1/2-z
1/2-x,1/2-y,1/2-z
1/2+x,1/2+y,1/2-z
1/2-x,1/2+y,1/2+z
1/2+x,1/2-y,1/2+z
loop_
_atom_site_type_symbol
_atom_site_label
_atom_site_fract_x
_atom_site_fract_y
_atom_site_fract_z
Si Si1 0.000000 0.080569 0.896672
Si Si2 0.675746 0.851041 0.097501
Si Si3 0.190060 0.720624 0.160266
Si Si4 0.193694 0.923502 0.601398
O O1 0.834423 0.113920 0.863083
O O2 0.000000 0.000000 0.880091
O O3 0.000000 0.091290 0.000000
O O4 0.500000 0.863897 0.137883
O O5 0.711782 0.769875 0.096759
O O6 0.667151 0.875758 0.000000
O O7 0.250000 0.750000 0.250000
O O8 0.228312 0.641068 0.147551
O O9 0.000000 0.731999 0.149179
O O10 0.226814 0.917849 0.500000
O O11 0.000000 0.919791 0.612140
O O12 0.246379 0.000000 0.629107
#
# Coordination Sequence:
#
# PCOD9522333 Si02
#       4
#     8  16  16  16
#     4   9  18  34  56  84 115 147 190 240 291 348
#     4  10  20  36  59  86 117 154 199 249 303 362
#     4  12  24  38  58  85 121 160 207 256 307 370
#     4   9  19  38  64  93 125 161 202 252 312 376
#
# _framework density 22.106027999999998
#
# number of rings (size 3 to 8) (size 9 to 14) (size 15 to 20)
#    0.000    1.857    1.429    4.286    0.000    5.143 
#    0.000    5.714    0.000    3.429    0.000    0.000 
#    0.000    0.000    0.000    0.000    0.000    0.000 
#
# Total GULP energy -156389.066582 kJ/mol
# GULP energy per Si atom -5585.323806 kJ/mol
# Density = 2.205571 g / cm^3
# Si number density = 22.106028 Si / 1000 Ang^3
#
#
#
# Elastic Constant Matrix: (Units=GPa)
#
#
# Indices 1 2 3 4 5 6 
#
# 1 180.0959 84.6672 20.9514 0.0000 0.0000 0.0000
# 2 84.6672 134.0792 9.2689 0.0000 0.0000 0.0000
# 3 20.9514 9.2689 30.1089 0.0000 0.0000 0.0000
# 4 0.0000 0.0000 0.0000 25.2631 0.0000 0.0000
# 5 0.0000 0.0000 0.0000 0.0000 14.8650 0.0000
# 6 0.0000 0.0000 0.0000 0.0000 0.0000 30.1185
#
#
#
# Elastic Compliance Matrix: (Units=1/GPa)
#
#
# Indices 1 2 3 4 5 6 
#
# 1 0.008411 -0.005013 -0.004309 0.000000 0.000000 0.000000
# 2 -0.005013 0.010609 0.000223 0.000000 0.000000 0.000000
# 3 -0.004309 0.000223 0.036143 0.000000 0.000000 0.000000
# 4 0.000000 0.000000 0.000000 0.039583 0.000000 0.000000
# 5 0.000000 0.000000 0.000000 0.000000 0.067272 0.000000
# 6 0.000000 0.000000 0.000000 0.000000 0.000000 0.033202
#
#
# Mechanical properties :
#
#
# Convention : Reuss Voigt Hill
#
# Bulk Modulus (GPa) = 27.05455 63.78437 45.41946
# Shear Modulus (GPa) = 22.14930 29.34241 25.74585
#
# Velocity S-wave (km/s) = 3.16880 3.64723 3.41640
# Velocity P-wave (km/s) = 5.06493 6.83029 6.01275
#
# Compressibility (1/GPa) = 0.03696235
#
# Stress axis : x y z
#
# Youngs Moduli (GPa) = 118.89513 94.26300 27.66799
#
# Poissons Ratio (x) = 0.47256 0.11923
# Poissons Ratio (y) = 0.59605 -0.00616
# Poissons Ratio (z) = 0.51236 -0.02099
#
# Static dielectric constant tensor:
#      x y z
#    x 1.817810 0.000000 0.000000 
#    y 0.000000 1.790200 0.000000 
#    z 0.000000 0.000000 1.512230 
# 
# From -- ./inp_files/7216.got.cif
#   From: 2010.05.17/outbox.cif.g08.bks.cpg/sg71_4_cif.got.tgz:7216.got - 2010.06.03 16:22:01.
