data_PCOD9522842
_publ_section_title
;
Structure prediction by ZEFSAII (Michael W. Deem and Ramdas Pophale) SiO2 
 PCOD9522842
Probable space group: I M M M
;
_chemical_formula_sum "Si O2"
_cell_formula_units_Z 64
_cell_length_a 28.859389
_cell_length_b 7.715624
_cell_length_c 15.230132
_cell_angle_alpha 90.000000
_cell_angle_beta 90.000000
_cell_angle_gamma 90.000000
_cell_volume 3391.265993
_symmetry_space_group_name_H-M "I M M M"
_symmetry_group_IT_number 71
_symmetry_cell_setting 'orthorhombic'
loop_
_space_group_symop_operation_xyz
x,y,z
-x,-y,z
x,-y,-z
-x,y,-z
-x,-y,-z
x,y,-z
-x,y,z
x,-y,z
1/2+x,1/2+y,1/2+z
1/2-x,1/2-y,1/2+z
1/2+x,1/2-y,1/2-z
1/2-x,1/2+y,1/2-z
1/2-x,1/2-y,1/2-z
1/2+x,1/2+y,1/2-z
1/2-x,1/2+y,1/2+z
1/2+x,1/2-y,1/2+z
loop_
_atom_site_type_symbol
_atom_site_label
_atom_site_fract_x
_atom_site_fract_y
_atom_site_fract_z
Si Si1 0.378102 0.289299 0.658779
Si Si2 0.868893 0.792749 0.639963
Si Si3 0.811422 0.206463 0.000000
Si Si4 0.796288 0.208367 0.500000
Si Si5 0.446963 0.793978 0.000000
Si Si6 0.948276 0.500000 0.894965
O O1 0.384840 0.500000 0.654022
O O2 0.367420 0.238344 0.759134
O O3 0.338606 0.238023 0.588055
O O4 0.422177 0.174656 0.633349
O O5 0.825283 0.725412 0.583828
O O6 0.915743 0.754224 0.585015
O O7 0.865435 0.000000 0.641882
O O8 0.757670 0.252750 0.000000
O O9 0.814142 0.000000 0.000000
O O10 0.800307 0.000000 0.500000
O O11 0.500000 0.724169 0.000000
O O12 0.450322 0.000000 0.000000
O O13 0.000000 0.500000 0.858866
O O14 0.949359 0.500000 0.000000
#
# Coordination Sequence:
#
# PCOD9522842 Si02
#       6
#    16  16   8   8   8   8
#     4  10  22  41  62  86 121 160 198 248 297 355
#     4   9  20  39  58  81 116 155 195 241 296 352
#     4  10  21  37  58  85 118 154 199 240 297 360
#     4   9  19  35  58  86 116 153 196 245 295 355
#     4  10  21  35  54  83 115 147 188 241 294 351
#     4  11  24  40  62  91 119 157 205 246 302 361
#
# _framework density 18.872008999999998
#
# number of rings (size 3 to 8) (size 9 to 14) (size 15 to 20)
#    0.000    2.250    1.250    1.125    3.500    5.500 
#    0.000    3.750    0.000    0.000    0.000    0.000 
#    0.000    0.000    0.000    0.000    0.000    0.000 
#
# Total GULP energy -178375.396489 kJ/mol
# GULP energy per Si atom -5574.231140 kJ/mol
# Density = 1.882906 g / cm^3
# Si number density = 18.872009 Si / 1000 Ang^3
#
#
#
# Elastic Constant Matrix: (Units=GPa)
#
#
# Indices 1 2 3 4 5 6 
#
# 1 190.5921 24.5968 99.5824 0.0000 0.0000 0.0000
# 2 24.5968 40.1885 26.8865 0.0000 0.0000 0.0000
# 3 99.5824 26.8865 183.9400 0.0000 0.0000 0.0000
# 4 0.0000 0.0000 0.0000 36.8175 0.0000 0.0000
# 5 0.0000 0.0000 0.0000 0.0000 2.2344 0.0000
# 6 0.0000 0.0000 0.0000 0.0000 0.0000 -4.2720
#
#
#
# Elastic Compliance Matrix: (Units=1/GPa)
#
#
# Indices 1 2 3 4 5 6 
#
# 1 0.007468 -0.002068 -0.003741 0.000000 0.000000 0.000000
# 2 -0.002068 0.028152 -0.002995 0.000000 0.000000 0.000000
# 3 -0.003741 -0.002995 0.007900 0.000000 0.000000 0.000000
# 4 0.000000 0.000000 0.000000 0.027161 0.000000 0.000000
# 5 0.000000 0.000000 0.000000 0.000000 0.447556 0.000000
# 6 0.000000 0.000000 0.000000 0.000000 0.000000 -0.234081
#
#
# Mechanical properties :
#
#
# Convention : Reuss Voigt Hill
#
# Bulk Modulus (GPa) = 38.59284 79.65021 59.12153
# Shear Modulus (GPa) = 16.10811 24.53297 20.32054
#
# Velocity S-wave (km/s) = 2.92472 3.60942 3.28496
# Velocity P-wave (km/s) = 5.64796 7.72448 6.76635
#
# Compressibility (1/GPa) = 0.02591154
#
# Stress axis : x y z
#
# Youngs Moduli (GPa) = 133.89916 35.52084 126.58754
#
# Poissons Ratio (x) = 0.07346 0.47355
# Poissons Ratio (y) = 0.27692 0.37918
# Poissons Ratio (z) = 0.50091 0.10640
#
# Static dielectric constant tensor:
#      x y z
#    x 1.653790 0.000000 0.000000 
#    y 0.000000 1.671990 0.000000 
#    z 0.000000 0.000000 1.721350 
# 
# From -- ./inp_files/38816.got.cif
#   From: 2010.05.17/outbox.cif.g08.bks.cpg/sg71_20_cif.got.tgz:38816.got - 2010.06.03 16:22:01.
