data_PCOD9522441
_publ_section_title
;
Structure prediction by ZEFSAII (Michael W. Deem and Ramdas Pophale) SiO2 
 PCOD9522441
Probable space group: I M M M
;
_chemical_formula_sum "Si O2"
_cell_formula_units_Z 104
_cell_length_a 33.157545
_cell_length_b 19.024823
_cell_length_c 9.365508
_cell_angle_alpha 90.000000
_cell_angle_beta 90.000000
_cell_angle_gamma 90.000000
_cell_volume 5907.916272
_symmetry_space_group_name_H-M "I M M M"
_symmetry_group_IT_number 71
_symmetry_cell_setting 'orthorhombic'
loop_
_space_group_symop_operation_xyz
x,y,z
-x,-y,z
x,-y,-z
-x,y,-z
-x,-y,-z
x,y,-z
-x,y,z
x,-y,z
1/2+x,1/2+y,1/2+z
1/2-x,1/2-y,1/2+z
1/2+x,1/2-y,1/2-z
1/2-x,1/2+y,1/2-z
1/2-x,1/2-y,1/2-z
1/2+x,1/2+y,1/2-z
1/2-x,1/2+y,1/2+z
1/2+x,1/2-y,1/2+z
loop_
_atom_site_type_symbol
_atom_site_label
_atom_site_fract_x
_atom_site_fract_y
_atom_site_fract_z
Si Si1 0.079878 0.915800 0.667249
Si Si2 0.117935 0.338378 0.829403
Si Si3 0.798783 0.416371 0.831756
Si Si4 0.762662 0.820737 0.830936
Si Si5 0.858414 0.177330 0.167777
Si Si6 0.000000 0.085525 0.163443
Si Si7 0.046608 0.582610 0.671486
O O1 0.075430 0.900415 0.500000
O O2 0.117623 0.876691 0.734940
O O3 0.040007 0.892759 0.752838
O O4 0.083901 0.000000 0.682996
O O5 0.158289 0.382058 0.791833
O O6 0.127340 0.256758 0.799089
O O7 0.079392 0.369252 0.748538
O O8 0.111938 0.345516 0.000000
O O9 0.800546 0.500000 0.816127
O O10 0.763514 0.382698 0.738097
O O11 0.791903 0.399652 0.000000
O O12 0.750000 0.750000 0.750000
O O13 0.810542 0.829556 0.812072
O O14 0.754687 0.814773 0.000000
O O15 0.867146 0.164237 0.000000
O O16 0.000000 0.000000 0.162043
O O17 0.000000 0.109861 0.000000
O O18 0.050169 0.589544 0.500000
O O19 0.053578 0.500000 0.706363
O O20 0.000000 0.599158 0.709729
#
# Coordination Sequence:
#
# PCOD9522441 Si02
#       7
#    16  16  16  16  16   8  16
#     4  10  21  37  58  86 117 148 189 237 283 337
#     4  10  20  37  58  82 113 149 190 232 277 332
#     4  10  21  38  60  87 119 151 187 236 288 334
#     4  11  22  39  61  82 112 151 192 236 285 343
#     4  10  22  39  58  81 112 151 191 232 283 342
#     4   9  17  33  59  85 111 147 186 227 280 335
#     4   9  19  36  56  80 113 150 187 231 282 332
#
# _framework density 17.603498999999999
#
# number of rings (size 3 to 8) (size 9 to 14) (size 15 to 20)
#    0.000    2.077    1.538    2.077    0.000    6.462 
#    1.385    3.846    0.000    0.000    0.000    0.000 
#    0.000    0.000    0.000    0.000    0.000    0.000 
#
# Total GULP energy -290314.466489 kJ/mol
# GULP energy per Si atom -5582.970509 kJ/mol
# Density = 1.756343 g / cm^3
# Si number density = 17.603499 Si / 1000 Ang^3
#
#
#
# Elastic Constant Matrix: (Units=GPa)
#
#
# Indices 1 2 3 4 5 6 
#
# 1 127.9094 54.4418 90.3038 0.0000 0.0000 0.0000
# 2 54.4418 52.6086 59.8881 0.0000 0.0000 0.0000
# 3 90.3038 59.8881 105.8417 0.0000 0.0000 0.0000
# 4 0.0000 0.0000 0.0000 29.6880 0.0000 0.0000
# 5 0.0000 0.0000 0.0000 0.0000 39.1199 0.0000
# 6 0.0000 0.0000 0.0000 0.0000 0.0000 33.6838
#
#
#
# Elastic Compliance Matrix: (Units=1/GPa)
#
#
# Indices 1 2 3 4 5 6 
#
# 1 0.019895 -0.003555 -0.014963 0.000000 0.000000 0.000000
# 2 -0.003555 0.054048 -0.027549 0.000000 0.000000 0.000000
# 3 -0.014963 -0.027549 0.037802 0.000000 0.000000 0.000000
# 4 0.000000 0.000000 0.000000 0.033684 0.000000 0.000000
# 5 0.000000 0.000000 0.000000 0.000000 0.025562 0.000000
# 6 0.000000 0.000000 0.000000 0.000000 0.000000 0.029688
#
#
# Mechanical properties :
#
#
# Convention : Reuss Voigt Hill
#
# Bulk Modulus (GPa) = 50.98936 77.29191 64.14063
# Shear Modulus (GPa) = 16.70300 25.94675 21.32488
#
# Velocity S-wave (km/s) = 3.08368 3.84338 3.48429
# Velocity P-wave (km/s) = 6.45810 7.98109 7.25965
#
# Compressibility (1/GPa) = 0.01961194
#
# Stress axis : x y z
#
# Youngs Moduli (GPa) = 50.26466 18.50222 26.45375
#
# Poissons Ratio (x) = 0.06577 0.39582
# Poissons Ratio (y) = 0.17869 0.72876
# Poissons Ratio (z) = 0.75209 0.50971
#
# Static dielectric constant tensor:
#      x y z
#    x 1.642010 0.000000 0.000000 
#    y 0.000000 1.588920 0.000000 
#    z 0.000000 0.000000 1.586440 
# 
# From -- ./inp_files/15040.got.cif
#   From: 2010.05.17/outbox.cif.g08.bks.cpg/sg71_8_cif.got.tgz:15040.got - 2010.06.03 16:22:01.
