data_PCOD9522722
_publ_section_title
;
Structure prediction by ZEFSAII (Michael W. Deem and Ramdas Pophale) SiO2 
 PCOD9522722
Probable space group: I M M M
;
_chemical_formula_sum "Si O2"
_cell_formula_units_Z 104
_cell_length_a 27.975573
_cell_length_b 11.865989
_cell_length_c 17.485630
_cell_angle_alpha 90.000000
_cell_angle_beta 90.000000
_cell_angle_gamma 90.000000
_cell_volume 5804.491992
_symmetry_space_group_name_H-M "I M M M"
_symmetry_group_IT_number 71
_symmetry_cell_setting 'orthorhombic'
loop_
_space_group_symop_operation_xyz
x,y,z
-x,-y,z
x,-y,-z
-x,y,-z
-x,-y,-z
x,y,-z
-x,y,z
x,-y,z
1/2+x,1/2+y,1/2+z
1/2-x,1/2-y,1/2+z
1/2+x,1/2-y,1/2-z
1/2-x,1/2+y,1/2-z
1/2-x,1/2-y,1/2-z
1/2+x,1/2+y,1/2-z
1/2-x,1/2+y,1/2+z
1/2+x,1/2-y,1/2+z
loop_
_atom_site_type_symbol
_atom_site_label
_atom_site_fract_x
_atom_site_fract_y
_atom_site_fract_z
Si Si1 0.943679 0.623405 0.000000
Si Si2 0.412446 0.744608 0.351196
Si Si3 0.211639 0.000000 0.910604
Si Si4 0.097018 0.000000 0.909268
Si Si5 0.843636 0.370811 0.639550
Si Si6 0.817218 0.629306 0.182075
Si Si7 0.745599 0.236932 0.089052
Si Si8 0.053974 0.633339 0.299867
O O1 0.930579 0.690477 0.924925
O O2 0.920624 0.500000 0.000000
O O3 0.000000 0.611299 0.000000
O O4 0.419406 0.613116 0.367213
O O5 0.357074 0.782063 0.345671
O O6 0.437796 0.792087 0.275573
O O7 0.233014 0.117012 0.881412
O O8 0.154724 0.000000 0.905220
O O9 0.224914 0.000000 0.000000
O O10 0.084047 0.000000 0.000000
O O11 0.838406 0.500000 0.610851
O O12 0.822551 0.368011 0.726202
O O13 0.811126 0.283274 0.594053
O O14 0.900199 0.345171 0.646080
O O15 0.828240 0.500000 0.159290
O O16 0.767699 0.668660 0.144215
O O17 0.759829 0.255392 0.000000
O O18 0.058077 0.500000 0.278500
O O19 0.000000 0.650549 0.329808
#
# Coordination Sequence:
#
# PCOD9522722 Si02
#       8
#     8  16   8   8  16  16  16  16
#     4  11  22  33  47  67  93 128 171 219 264 299
#     4  11  20  33  50  71  97 132 172 216 255 304
#     4   9  18  30  46  70  99 138 173 195 232 296
#     4  11  20  34  46  68 102 139 174 207 256 303
#     4   9  18  33  53  76 104 134 170 213 254 305
#     4  10  21  34  50  76 105 137 175 215 257 299
#     4  11  20  32  52  77 106 139 173 207 250 308
#     4   9  18  35  57  76  95 125 167 214 263 309
#
# _framework density 17.917159000000002
#
# number of rings (size 3 to 8) (size 9 to 14) (size 15 to 20)
#    0.000    1.923    3.077    3.231    1.077    1.538 
#    0.000    1.923    0.000    0.462    0.000    2.154 
#    0.000    0.000    0.000    1.385    0.000    0.000 
#
# Total GULP energy -289869.367286 kJ/mol
# GULP energy per Si atom -5574.410909 kJ/mol
# Density = 1.787638 g / cm^3
# Si number density = 17.917159 Si / 1000 Ang^3
#
#
#
# Elastic Constant Matrix: (Units=GPa)
#
#
# Indices 1 2 3 4 5 6 
#
# 1 75.5832 3.5077 10.5556 0.0000 0.0000 0.0000
# 2 3.5077 85.5530 8.1825 0.0000 0.0000 0.0000
# 3 10.5556 8.1825 14.9514 0.0000 0.0000 0.0000
# 4 0.0000 0.0000 0.0000 14.8469 0.0000 0.0000
# 5 0.0000 0.0000 0.0000 0.0000 9.4760 0.0000
# 6 0.0000 0.0000 0.0000 0.0000 0.0000 23.0122
#
#
#
# Elastic Compliance Matrix: (Units=1/GPa)
#
#
# Indices 1 2 3 4 5 6 
#
# 1 0.014691 0.000411 -0.010597 0.000000 0.000000 0.000000
# 2 0.000411 0.012346 -0.007047 0.000000 0.000000 0.000000
# 3 -0.010597 -0.007047 0.078221 0.000000 0.000000 0.000000
# 4 0.000000 0.000000 0.000000 0.067354 0.000000 0.000000
# 5 0.000000 0.000000 0.000000 0.000000 0.105529 0.000000
# 6 0.000000 0.000000 0.000000 0.000000 0.000000 0.043455
#
#
# Mechanical properties :
#
#
# Convention : Reuss Voigt Hill
#
# Bulk Modulus (GPa) = 14.12568 24.50879 19.31723
# Shear Modulus (GPa) = 13.16970 19.72315 16.44643
#
# Velocity S-wave (km/s) = 2.71409 3.32143 3.03300
# Velocity P-wave (km/s) = 4.20984 5.33083 4.80315
#
# Compressibility (1/GPa) = 0.07079305
#
# Stress axis : x y z
#
# Youngs Moduli (GPa) = 68.06759 80.99944 12.78430
#
# Poissons Ratio (x) = -0.03330 0.13547
# Poissons Ratio (y) = -0.02799 0.09009
# Poissons Ratio (z) = 0.72131 0.57078
#
# Static dielectric constant tensor:
#      x y z
#    x 1.672670 0.000000 0.000000 
#    y 0.000000 1.617740 0.000000 
#    z 0.000000 0.000000 1.596510 
# 
# From -- ./inp_files/48912.got.cif
#   From: 2010.05.17/outbox.cif.g08.bks.cpg/sg71_25_cif.got.tgz:48912.got - 2010.06.03 16:22:01.
