data_PCOD9522407
_publ_section_title
;
Structure prediction by ZEFSAII (Michael W. Deem and Ramdas Pophale) SiO2 
 PCOD9522407
Probable space group: I M M M
;
_chemical_formula_sum "Si O2"
_cell_formula_units_Z 108
_cell_length_a 15.611727
_cell_length_b 14.314955
_cell_length_c 22.901690
_cell_angle_alpha 90.000000
_cell_angle_beta 90.000000
_cell_angle_gamma 90.000000
_cell_volume 5118.096464
_symmetry_space_group_name_H-M "I M M M"
_symmetry_group_IT_number 71
_symmetry_cell_setting 'orthorhombic'
loop_
_space_group_symop_operation_xyz
x,y,z
-x,-y,z
x,-y,-z
-x,y,-z
-x,-y,-z
x,y,-z
-x,y,z
x,-y,z
1/2+x,1/2+y,1/2+z
1/2-x,1/2-y,1/2+z
1/2+x,1/2-y,1/2-z
1/2-x,1/2+y,1/2-z
1/2-x,1/2-y,1/2-z
1/2+x,1/2+y,1/2-z
1/2-x,1/2+y,1/2+z
1/2+x,1/2-y,1/2+z
loop_
_atom_site_type_symbol
_atom_site_label
_atom_site_fract_x
_atom_site_fract_y
_atom_site_fract_z
Si Si1 0.500000 0.831259 0.000000
Si Si2 0.251801 0.890045 0.590037
Si Si3 0.099318 0.603194 0.308327
Si Si4 0.400886 0.887023 0.500000
Si Si5 0.750111 0.644385 0.771672
Si Si6 0.592902 0.390581 0.688144
Si Si7 0.838023 0.113140 0.063973
Si Si8 0.156807 0.292349 0.583348
O O1 0.574893 0.827236 0.049488
O O2 0.340164 0.864181 0.556076
O O3 0.253423 0.873858 0.659604
O O4 0.179768 0.815491 0.570609
O O5 0.234504 0.000000 0.578172
O O6 0.106555 0.500000 0.337650
O O7 0.163069 0.601641 0.254204
O O8 0.134597 0.684221 0.349897
O O9 0.000000 0.617281 0.293558
O O10 0.500000 0.852400 0.500000
O O11 0.407039 0.000000 0.500000
O O12 0.750000 0.750000 0.750000
O O13 0.664604 0.611645 0.738141
O O14 0.500000 0.351785 0.706297
O O15 0.583437 0.500000 0.676448
O O16 0.619887 0.351013 0.624450
O O17 0.741078 0.149375 0.067248
O O18 0.838776 0.000000 0.064892
O O19 0.874362 0.141629 0.000000
#
# Coordination Sequence:
#
# PCOD9522407 Si02
#       8
#     4  16  16   8  16  16  16  16
#     4  12  26  40  68  94 130 172 230 292 328 406
#     4  11  24  44  73 100 131 180 230 275 340 414
#     4  11  23  40  65  97 136 178 220 273 338 404
#     4   9  21  44  73 104 136 170 221 290 350 405
#     4  12  23  42  69  98 136 178 221 277 342 407
#     4  10  21  38  61  91 129 173 223 275 327 393
#     4  10  20  36  62  91 127 176 221 268 335 405
#     4  12  22  42  62  90 132 174 222 277 336 394
#
# _framework density 21.101595
#
# number of rings (size 3 to 8) (size 9 to 14) (size 15 to 20)
#    0.000    1.111    4.444    2.222    0.000    1.481 
#    1.333    7.407    0.000    0.000    0.000    0.000 
#    0.000    0.000    0.000    0.000    0.000    0.000 
#
# Total GULP energy -300645.576304 kJ/mol
# GULP energy per Si atom -5567.510672 kJ/mol
# Density = 2.105357 g / cm^3
# Si number density = 21.101595 Si / 1000 Ang^3
#
#
#
# Elastic Constant Matrix: (Units=GPa)
#
#
# Indices 1 2 3 4 5 6 
#
# 1 130.2714 14.1836 59.9127 0.0000 0.0000 0.0000
# 2 14.1836 65.6268 -4.7487 0.0000 0.0000 0.0000
# 3 59.9127 -4.7487 147.2575 0.0000 0.0000 0.0000
# 4 0.0000 0.0000 0.0000 0.9614 0.0000 0.0000
# 5 0.0000 0.0000 0.0000 0.0000 6.0860 0.0000
# 6 0.0000 0.0000 0.0000 0.0000 0.0000 22.7863
#
#
#
# Elastic Compliance Matrix: (Units=1/GPa)
#
#
# Indices 1 2 3 4 5 6 
#
# 1 0.009811 -0.002415 -0.004069 0.000000 0.000000 0.000000
# 2 -0.002415 0.015868 0.001494 0.000000 0.000000 0.000000
# 3 -0.004069 0.001494 0.008495 0.000000 0.000000 0.000000
# 4 0.000000 0.000000 0.000000 1.040131 0.000000 0.000000
# 5 0.000000 0.000000 0.000000 0.000000 0.164310 0.000000
# 6 0.000000 0.000000 0.000000 0.000000 0.000000 0.043886
#
#
# Mechanical properties :
#
#
# Convention : Reuss Voigt Hill
#
# Bulk Modulus (GPa) = 41.33429 53.53899 47.43664
# Shear Modulus (GPa) = 3.84454 24.22061 14.03258
#
# Velocity S-wave (km/s) = 1.35125 3.39161 2.58156
# Velocity P-wave (km/s) = 4.69737 6.38470 5.60490
#
# Compressibility (1/GPa) = 0.02419299
#
# Stress axis : x y z
#
# Youngs Moduli (GPa) = 101.92874 63.02108 117.72051
#
# Poissons Ratio (x) = 0.15218 0.47906
# Poissons Ratio (y) = 0.24614 -0.17590
# Poissons Ratio (z) = 0.41479 -0.09417
#
# Static dielectric constant tensor:
#      x y z
#    x 1.897580 0.000000 0.000000 
#    y 0.000000 1.835720 0.000000 
#    z 0.000000 0.000000 3.149930 
# 
# From -- ./inp_files/59952.got.cif
#   From: 2010.05.17/outbox.cif.g08.bks.cpg/sg71_30_cif.got.tgz:59952.got - 2010.06.03 16:22:01.
