data_PCOD9522105
_publ_section_title
;
Structure prediction by ZEFSAII (Michael W. Deem and Ramdas Pophale) SiO2 
 PCOD9522105
Probable space group: I M M M
;
_chemical_formula_sum "Si O2"
_cell_formula_units_Z 72
_cell_length_a 18.313432
_cell_length_b 7.841966
_cell_length_c 26.191183
_cell_angle_alpha 90.000000
_cell_angle_beta 90.000000
_cell_angle_gamma 90.000000
_cell_volume 3761.402512
_symmetry_space_group_name_H-M "I M M M"
_symmetry_group_IT_number 71
_symmetry_cell_setting 'orthorhombic'
loop_
_space_group_symop_operation_xyz
x,y,z
-x,-y,z
x,-y,-z
-x,y,-z
-x,-y,-z
x,y,-z
-x,y,z
x,-y,z
1/2+x,1/2+y,1/2+z
1/2-x,1/2-y,1/2+z
1/2+x,1/2-y,1/2-z
1/2-x,1/2+y,1/2-z
1/2-x,1/2-y,1/2-z
1/2+x,1/2+y,1/2-z
1/2-x,1/2+y,1/2+z
1/2+x,1/2-y,1/2+z
loop_
_atom_site_type_symbol
_atom_site_label
_atom_site_fract_x
_atom_site_fract_y
_atom_site_fract_z
Si Si1 0.082490 0.704126 0.336689
Si Si2 0.585243 0.295028 0.054703
Si Si3 0.413408 0.304635 0.365765
Si Si4 0.911475 0.500000 0.941514
Si Si5 0.667018 0.204794 0.737323
O O1 0.078854 0.500000 0.332448
O O2 0.118659 0.741091 0.391500
O O3 0.122209 0.768304 0.286537
O O4 0.000000 0.773465 0.337799
O O5 0.500000 0.237182 0.055456
O O6 0.584732 0.500000 0.054281
O O7 0.616473 0.236818 0.000000
O O8 0.500000 0.275166 0.353824
O O9 0.406270 0.500000 0.383488
O O10 0.365933 0.279000 0.314755
O O11 0.391264 0.167216 0.408657
O O12 0.000000 0.500000 0.944130
O O13 0.884286 0.500000 0.000000
O O14 0.750000 0.250000 0.750000
O O15 0.659894 0.000000 0.733521
#
# Coordination Sequence:
#
# PCOD9522105 Si02
#       5
#    16  16  16   8  16
#     4   9  18  31  49  73 100 133 171 215 269 325
#     4   8  14  25  42  66  96 127 160 203 251 297
#     4  10  20  35  58  87 118 153 191 232 285 349
#     4   9  18  34  58  88 120 152 186 234 292 345
#     4  11  22  36  53  76 109 146 187 236 286 336
#
# _framework density 19.141797
#
# number of rings (size 3 to 8) (size 9 to 14) (size 15 to 20)
#    0.000    2.556    1.111    2.000    0.000    3.556 
#    0.000    6.667    0.000    1.333    0.000    3.111 
#    0.000    0.000    0.000    0.000    0.000    0.000 
#
# Total GULP energy -200609.450581 kJ/mol
# GULP energy per Si atom -5572.484738 kJ/mol
# Density = 1.909823 g / cm^3
# Si number density = 19.141797 Si / 1000 Ang^3
#
#
#
# Elastic Constant Matrix: (Units=GPa)
#
#
# Indices 1 2 3 4 5 6 
#
# 1 41.6710 19.3204 48.7233 0.0000 0.0000 0.0000
# 2 19.3204 81.8791 52.5866 0.0000 0.0000 0.0000
# 3 48.7233 52.5866 201.1167 0.0000 0.0000 0.0000
# 4 0.0000 0.0000 0.0000 -188.6325 0.0000 0.0000
# 5 0.0000 0.0000 0.0000 0.0000 -2.6779 0.0000
# 6 0.0000 0.0000 0.0000 0.0000 0.0000 16.6219
#
#
#
# Elastic Compliance Matrix: (Units=1/GPa)
#
#
# Indices 1 2 3 4 5 6 
#
# 1 0.034210 -0.003304 -0.007424 0.000000 0.000000 0.000000
# 2 -0.003304 0.014997 -0.003121 0.000000 0.000000 0.000000
# 3 -0.007424 -0.003121 0.007587 0.000000 0.000000 0.000000
# 4 0.000000 0.000000 0.000000 -0.005301 0.000000 0.000000
# 5 0.000000 0.000000 0.000000 0.000000 -0.373423 0.000000
# 6 0.000000 0.000000 0.000000 0.000000 0.000000 0.060162
#
#
# Mechanical properties :
#
#
# Convention : Reuss Voigt Hill
#
# Bulk Modulus (GPa) = 34.36926 62.88082 48.62504
# Shear Modulus (GPa) = -22.28431 -21.33527 -21.80979
#
# Velocity S-wave (km/s) = -3.41570 -3.34217 -3.37913
# Velocity P-wave (km/s) = 1.56144 4.24592 3.19890
#
# Compressibility (1/GPa) = 0.02909577
#
# Stress axis : x y z
#
# Youngs Moduli (GPa) = 29.23155 66.67920 131.80839
#
# Poissons Ratio (x) = 0.22033 0.97852
# Poissons Ratio (y) = 0.09659 0.41135
# Poissons Ratio (z) = 0.21701 0.20810
#
# Static dielectric constant tensor:
#      x y z
#    x 1.641630 0.000000 0.000000 
#    y 0.000000 1.685750 0.000000 
#    z 0.000000 0.000000 1.696800 
# 
# From -- ./inp_files/47922.got.cif
#   From: 2010.05.17/outbox.cif.g08.bks.cpg/sg71_24_cif.got.tgz:47922.got - 2010.06.03 16:22:01.
