data_PCOD9522926
_publ_section_title
;
Structure prediction by ZEFSAII (Michael W. Deem and Ramdas Pophale) SiO2 
 PCOD9522926
Probable space group: I M M M
;
_chemical_formula_sum "Si O2"
_cell_formula_units_Z 104
_cell_length_a 24.138865
_cell_length_b 7.863866
_cell_length_c 30.939912
_cell_angle_alpha 90.000000
_cell_angle_beta 90.000000
_cell_angle_gamma 90.000000
_cell_volume 5873.162600
_symmetry_space_group_name_H-M "I M M M"
_symmetry_group_IT_number 71
_symmetry_cell_setting 'orthorhombic'
loop_
_space_group_symop_operation_xyz
x,y,z
-x,-y,z
x,-y,-z
-x,y,-z
-x,-y,-z
x,y,-z
-x,y,z
x,-y,z
1/2+x,1/2+y,1/2+z
1/2-x,1/2-y,1/2+z
1/2+x,1/2-y,1/2-z
1/2-x,1/2+y,1/2-z
1/2-x,1/2-y,1/2-z
1/2+x,1/2+y,1/2-z
1/2-x,1/2+y,1/2+z
1/2+x,1/2-y,1/2+z
loop_
_atom_site_type_symbol
_atom_site_label
_atom_site_fract_x
_atom_site_fract_y
_atom_site_fract_z
Si Si1 0.269054 0.704200 0.549190
Si Si2 0.356992 0.296512 0.048631
Si Si3 0.063416 0.203571 0.623790
Si Si4 0.122667 0.794355 0.100792
Si Si5 0.563124 0.202179 0.217097
Si Si6 0.563784 0.703000 0.311204
Si Si7 0.565771 0.000000 0.451429
O O1 0.282974 0.763876 0.500000
O O2 0.267645 0.500000 0.547609
O O3 0.207238 0.764801 0.559429
O O4 0.315293 0.748572 0.584598
O O5 0.364717 0.500000 0.046837
O O6 0.398212 0.229000 0.085294
O O7 0.367023 0.228878 0.000000
O O8 0.087488 0.238373 0.671592
O O9 0.000000 0.270420 0.621881
O O10 0.060281 0.000000 0.619300
O O11 0.104270 0.749639 0.149601
O O12 0.085140 0.672609 0.071614
O O13 0.114564 0.000000 0.094785
O O14 0.500000 0.273181 0.217718
O O15 0.586365 0.250153 0.263837
O O16 0.560643 0.000000 0.215355
O O17 0.500000 0.771341 0.316235
O O18 0.559343 0.500000 0.312701
O O19 0.500000 0.000000 0.452061
O O20 0.587905 0.000000 0.500000
#
# Coordination Sequence:
#
# PCOD9522926 Si02
#       7
#    16  16  16  16  16  16   8
#     4   9  18  33  52  72  95 128 171 215 258 302
#     4   9  18  31  49  74 100 129 167 211 254 297
#     4   9  17  30  48  71 102 136 166 199 247 309
#     4  10  21  36  54  76 103 138 178 223 266 315
#     4   9  17  28  45  70  98 129 164 204 248 299
#     4   9  17  30  49  72  98 129 165 208 259 308
#     4  11  24  36  50  76 106 140 177 215 268 324
#
# _framework density 17.707664999999999
#
# number of rings (size 3 to 8) (size 9 to 14) (size 15 to 20)
#    0.000    2.692    0.000    1.385    2.154    4.615 
#    0.000    2.308    0.000    0.923    0.000    4.308 
#    0.000    0.000    0.000    0.000    0.000    0.000 
#
# Total GULP energy -289539.146592 kJ/mol
# GULP energy per Si atom -5568.060511 kJ/mol
# Density = 1.766736 g / cm^3
# Si number density = 17.707665 Si / 1000 Ang^3
#
#
#
# Elastic Constant Matrix: (Units=GPa)
#
#
# Indices 1 2 3 4 5 6 
#
# 1 78.1515 14.8831 87.5974 0.0000 0.0000 0.0000
# 2 14.8831 24.5162 24.9150 0.0000 0.0000 0.0000
# 3 87.5974 24.9150 181.6260 0.0000 0.0000 0.0000
# 4 0.0000 0.0000 0.0000 6.7494 0.0000 0.0000
# 5 0.0000 0.0000 0.0000 0.0000 22.8144 0.0000
# 6 0.0000 0.0000 0.0000 0.0000 0.0000 16.4271
#
#
#
# Elastic Compliance Matrix: (Units=1/GPa)
#
#
# Indices 1 2 3 4 5 6 
#
# 1 0.028158 -0.003826 -0.013056 0.000000 0.000000 0.000000
# 2 -0.003826 0.047917 -0.004728 0.000000 0.000000 0.000000
# 3 -0.013056 -0.004728 0.012451 0.000000 0.000000 0.000000
# 4 0.000000 0.000000 0.000000 0.148162 0.000000 0.000000
# 5 0.000000 0.000000 0.000000 0.000000 0.043832 0.000000
# 6 0.000000 0.000000 0.000000 0.000000 0.000000 0.060875
#
#
# Mechanical properties :
#
#
# Convention : Reuss Voigt Hill
#
# Bulk Modulus (GPa) = 22.07169 59.89828 40.98498
# Shear Modulus (GPa) = 12.50889 19.65806 16.08347
#
# Velocity S-wave (km/s) = 2.66072 3.33550 3.01703
# Velocity P-wave (km/s) = 4.68303 6.98095 5.94409
#
# Compressibility (1/GPa) = 0.04530690
#
# Stress axis : x y z
#
# Youngs Moduli (GPa) = 35.51420 20.86954 80.31482
#
# Poissons Ratio (x) = 0.07984 1.04855
# Poissons Ratio (y) = 0.13587 0.37972
# Poissons Ratio (z) = 0.46366 0.09867
#
# Static dielectric constant tensor:
#      x y z
#    x 1.594470 0.000000 0.000000 
#    y 0.000000 1.646390 0.000000 
#    z 0.000000 0.000000 1.639090 
# 
# From -- ./inp_files/70971.got.cif
#   From: 2010.05.17/outbox.cif.g08.bks.cpg/sg71_36_cif.got.tgz:70971.got - 2010.06.03 16:22:01.
