data_PCOD9522263
_publ_section_title
;
Structure prediction by ZEFSAII (Michael W. Deem and Ramdas Pophale) SiO2 
 PCOD9522263
Probable space group: I M M M
;
_chemical_formula_sum "Si O2"
_cell_formula_units_Z 88
_cell_length_a 8.847830
_cell_length_b 23.157245
_cell_length_c 24.664504
_cell_angle_alpha 90.000000
_cell_angle_beta 90.000000
_cell_angle_gamma 90.000000
_cell_volume 5053.543942
_symmetry_space_group_name_H-M "I M M M"
_symmetry_group_IT_number 71
_symmetry_cell_setting 'orthorhombic'
loop_
_space_group_symop_operation_xyz
x,y,z
-x,-y,z
x,-y,-z
-x,y,-z
-x,-y,-z
x,y,-z
-x,y,z
x,-y,z
1/2+x,1/2+y,1/2+z
1/2-x,1/2-y,1/2+z
1/2+x,1/2-y,1/2-z
1/2-x,1/2+y,1/2-z
1/2-x,1/2-y,1/2-z
1/2+x,1/2+y,1/2-z
1/2-x,1/2+y,1/2+z
1/2+x,1/2-y,1/2+z
loop_
_atom_site_type_symbol
_atom_site_label
_atom_site_fract_x
_atom_site_fract_y
_atom_site_fract_z
Si Si1 0.819302 0.932247 0.851553
Si Si2 0.319525 0.610320 0.875046
Si Si3 0.679990 0.218728 0.564103
Si Si4 0.679429 0.931177 0.734610
Si Si5 0.320898 0.000000 0.564840
Si Si6 0.180703 0.655969 0.563400
O O1 0.748250 0.917065 0.793210
O O2 0.749978 0.892299 0.897869
O O3 0.000000 0.925599 0.849460
O O4 0.785357 0.000000 0.861629
O O5 0.500000 0.608774 0.876263
O O6 0.257952 0.669024 0.901181
O O7 0.259594 0.602163 0.814023
O O8 0.253274 0.556687 0.909331
O O9 0.706496 0.207395 0.500000
O O10 0.500000 0.218603 0.573129
O O11 0.747981 0.281628 0.576284
O O12 0.500000 0.920723 0.734072
O O13 0.703683 0.000000 0.725602
O O14 0.500000 0.000000 0.577355
O O15 0.302667 0.000000 0.500000
O O16 0.214139 0.643746 0.500000
O O17 0.000000 0.658447 0.569764
#
# Coordination Sequence:
#
# PCOD9522263 Si02
#       6
#    16  16  16  16   8  16
#     4  10  21  37  59  87 118 149 186 230 279 336
#     4  12  23  35  55  82 113 148 190 237 286 337
#     4  10  21  38  59  81 110 150 192 233 282 340
#     4  10  20  36  58  81 111 150 191 233 282 338
#     4  11  23  37  53  77 111 149 192 241 288 333
#     4  10  21  38  60  86 116 149 187 230 279 337
#
# _framework density 17.413520999999999
#
# number of rings (size 3 to 8) (size 9 to 14) (size 15 to 20)
#    0.000    1.545    0.909    4.636    0.000    7.273 
#    0.000    2.727    0.000    0.000    0.000    0.000 
#    0.000    0.000    0.000    0.000    0.000    0.000 
#
# Total GULP energy -245932.404798 kJ/mol
# GULP energy per Si atom -5589.372836 kJ/mol
# Density = 1.737389 g / cm^3
# Si number density = 17.413521 Si / 1000 Ang^3
#
#
#
# Elastic Constant Matrix: (Units=GPa)
#
#
# Indices 1 2 3 4 5 6 
#
# 1 130.2324 88.2620 96.4659 0.0000 0.0000 0.0000
# 2 88.2620 127.5482 111.4446 0.0000 0.0000 0.0000
# 3 96.4659 111.4446 137.9842 0.0000 0.0000 0.0000
# 4 0.0000 0.0000 0.0000 7.1849 0.0000 0.0000
# 5 0.0000 0.0000 0.0000 0.0000 30.3713 0.0000
# 6 0.0000 0.0000 0.0000 0.0000 0.0000 33.6111
#
#
#
# Elastic Compliance Matrix: (Units=1/GPa)
#
#
# Indices 1 2 3 4 5 6 
#
# 1 0.016684 -0.004600 -0.007948 0.000000 0.000000 0.000000
# 2 -0.004600 0.027908 -0.019324 0.000000 0.000000 0.000000
# 3 -0.007948 -0.019324 0.028411 0.000000 0.000000 0.000000
# 4 0.000000 0.000000 0.000000 0.139180 0.000000 0.000000
# 5 0.000000 0.000000 0.000000 0.000000 0.032926 0.000000
# 6 0.000000 0.000000 0.000000 0.000000 0.000000 0.029752
#
#
# Mechanical properties :
#
#
# Convention : Reuss Voigt Hill
#
# Bulk Modulus (GPa) = 108.01870 109.78999 108.90434
# Shear Modulus (GPa) = 14.63309 20.87297 17.75303
#
# Velocity S-wave (km/s) = 2.90199 3.46593 3.19642
# Velocity P-wave (km/s) = 8.56708 8.89958 8.73491
#
# Compressibility (1/GPa) = 0.00925766
#
# Stress axis : x y z
#
# Youngs Moduli (GPa) = 59.93857 35.83258 35.19732
#
# Poissons Ratio (x) = 0.16483 0.27976
# Poissons Ratio (y) = 0.27572 0.68015
# Poissons Ratio (z) = 0.47642 0.69243
#
# Static dielectric constant tensor:
#      x y z
#    x 1.574670 0.000000 0.000000 
#    y 0.000000 1.558420 0.000000 
#    z 0.000000 0.000000 1.572120 
# 
# From -- ./inp_files/10376.got.cif
#   From: 2010.05.17/outbox.cif.g08.bks.cpg/sg71_6_cif.got.tgz:10376.got - 2010.06.03 16:22:01.
