data_PCOD9522359
_publ_section_title
;
Structure prediction by ZEFSAII (Michael W. Deem and Ramdas Pophale) SiO2 
 PCOD9522359
Probable space group: I M M M
;
_chemical_formula_sum "Si O2"
_cell_formula_units_Z 66
_cell_length_a 7.781218
_cell_length_b 17.356792
_cell_length_c 28.335181
_cell_angle_alpha 90.000000
_cell_angle_beta 90.000000
_cell_angle_gamma 90.000000
_cell_volume 3826.864040
_symmetry_space_group_name_H-M "I M M M"
_symmetry_group_IT_number 71
_symmetry_cell_setting 'orthorhombic'
loop_
_space_group_symop_operation_xyz
x,y,z
-x,-y,z
x,-y,-z
-x,y,-z
-x,-y,-z
x,y,-z
-x,y,z
x,-y,z
1/2+x,1/2+y,1/2+z
1/2-x,1/2-y,1/2+z
1/2+x,1/2-y,1/2-z
1/2-x,1/2+y,1/2-z
1/2-x,1/2-y,1/2-z
1/2+x,1/2+y,1/2-z
1/2-x,1/2+y,1/2+z
1/2+x,1/2-y,1/2+z
loop_
_atom_site_type_symbol
_atom_site_label
_atom_site_fract_x
_atom_site_fract_y
_atom_site_fract_z
Si Si1 0.303487 0.747421 0.901163
Si Si2 0.207803 0.413732 0.055321
Si Si3 0.000000 0.000000 0.000000
Si Si4 0.199715 0.301000 0.705318
Si Si5 0.500000 0.589041 0.315888
Si Si6 0.500000 0.641092 0.575655
O O1 0.500000 0.770929 0.911292
O O2 0.278038 0.659133 0.916503
O O3 0.274747 0.757365 0.844865
O O4 0.166604 0.802810 0.927232
O O5 0.262060 0.500000 0.070730
O O6 0.000000 0.411206 0.058104
O O7 0.254224 0.405699 0.000000
O O8 0.000000 0.069365 0.959458
O O9 0.250000 0.250000 0.750000
O O10 0.329841 0.371722 0.704427
O O11 0.000000 0.322935 0.707999
O O12 0.500000 0.500000 0.306684
O O13 0.500000 0.606704 0.371639
#
# Coordination Sequence:
#
# PCOD9522359 Si02
#       6
#    16  16   2  16   8   8
#     4  10  21  36  58  85 113 151 191 231 286 342
#     4   9  18  33  54  81 113 150 191 231 269 323
#     4  12  24  40  66  84 118 158 200 236 310 336
#     4  10  20  36  60  86 111 146 190 233 283 347
#     4  10  20  38  60  83 116 151 186 234 293 334
#     4  10  22  40  57  83 116 150 190 243 281 345
#
# _framework density 17.246497000000002
#
# number of rings (size 3 to 8) (size 9 to 14) (size 15 to 20)
#    0.000    2.182    3.030    0.727    1.697    1.455 
#    0.000    3.636    0.000    0.000    0.000    0.000 
#    0.000    0.000    0.000    0.000    0.000    0.000 
#
# Total GULP energy -183762.504956 kJ/mol
# GULP energy per Si atom -5568.560756 kJ/mol
# Density = 1.720724 g / cm^3
# Si number density = 17.246497 Si / 1000 Ang^3
#
#
#
# Elastic Constant Matrix: (Units=GPa)
#
#
# Indices 1 2 3 4 5 6 
#
# 1 121.4888 84.9672 51.8938 0.0000 0.0000 0.0000
# 2 84.9672 182.7893 68.9957 0.0000 0.0000 0.0000
# 3 51.8938 68.9957 55.6641 0.0000 0.0000 0.0000
# 4 0.0000 0.0000 0.0000 23.0970 0.0000 0.0000
# 5 0.0000 0.0000 0.0000 0.0000 10.2559 0.0000
# 6 0.0000 0.0000 0.0000 0.0000 0.0000 16.5892
#
#
#
# Elastic Compliance Matrix: (Units=1/GPa)
#
#
# Indices 1 2 3 4 5 6 
#
# 1 0.014550 -0.003088 -0.009737 0.000000 0.000000 0.000000
# 2 -0.003088 0.010936 -0.010676 0.000000 0.000000 0.000000
# 3 -0.009737 -0.010676 0.040276 0.000000 0.000000 0.000000
# 4 0.000000 0.000000 0.000000 0.043296 0.000000 0.000000
# 5 0.000000 0.000000 0.000000 0.000000 0.097505 0.000000
# 6 0.000000 0.000000 0.000000 0.000000 0.000000 0.060280
#
#
# Mechanical properties :
#
#
# Convention : Reuss Voigt Hill
#
# Bulk Modulus (GPa) = 53.30730 85.73951 69.52340
# Shear Modulus (GPa) = 15.62020 20.26078 17.94049
#
# Velocity S-wave (km/s) = 3.01275 3.43122 3.22877
# Velocity P-wave (km/s) = 6.56341 8.09443 7.36879
#
# Compressibility (1/GPa) = 0.01875916
#
# Stress axis : x y z
#
# Youngs Moduli (GPa) = 68.72813 91.43936 24.82887
#
# Poissons Ratio (x) = 0.28238 0.24175
# Poissons Ratio (y) = 0.21224 0.26508
# Poissons Ratio (z) = 0.66919 0.97625
#
# Static dielectric constant tensor:
#      x y z
#    x 1.596270 0.000000 0.000000 
#    y 0.000000 1.553380 0.000000 
#    z 0.000000 0.000000 1.574180 
# 
# From -- ./inp_files/57205.got.cif
#   From: 2010.05.17/outbox.cif.g08.bks.cpg/sg71_29_cif.got.tgz:57205.got - 2010.06.03 16:22:01.
