data_PCOD9522911
_publ_section_title
;
Structure prediction by ZEFSAII (Michael W. Deem and Ramdas Pophale) SiO2 
 PCOD9522911
Probable space group: I M M M
;
_chemical_formula_sum "Si O2"
_cell_formula_units_Z 72
_cell_length_a 19.689147
_cell_length_b 23.448584
_cell_length_c 7.534538
_cell_angle_alpha 90.000000
_cell_angle_beta 90.000000
_cell_angle_gamma 90.000000
_cell_volume 3478.565224
_symmetry_space_group_name_H-M "I M M M"
_symmetry_group_IT_number 71
_symmetry_cell_setting 'orthorhombic'
loop_
_space_group_symop_operation_xyz
x,y,z
-x,-y,z
x,-y,-z
-x,y,-z
-x,-y,-z
x,y,-z
-x,y,z
x,-y,z
1/2+x,1/2+y,1/2+z
1/2-x,1/2-y,1/2+z
1/2+x,1/2-y,1/2-z
1/2-x,1/2+y,1/2-z
1/2-x,1/2-y,1/2-z
1/2+x,1/2+y,1/2-z
1/2-x,1/2+y,1/2+z
1/2+x,1/2-y,1/2+z
loop_
_atom_site_type_symbol
_atom_site_label
_atom_site_fract_x
_atom_site_fract_y
_atom_site_fract_z
Si Si1 0.172836 0.231250 0.210622
Si Si2 0.423723 0.163931 0.790290
Si Si3 0.825911 0.102782 0.217021
Si Si4 0.577830 0.500000 0.283013
Si Si5 0.325386 0.064788 0.782917
O O1 0.250000 0.250000 0.250000
O O2 0.119880 0.278564 0.272963
O O3 0.161031 0.167180 0.279158
O O4 0.166073 0.228840 0.000000
O O5 0.500000 0.168684 0.717122
O O6 0.379607 0.111149 0.718402
O O7 0.429816 0.153202 0.000000
O O8 0.750459 0.083239 0.270681
O O9 0.880909 0.056158 0.273280
O O10 0.826203 0.103222 0.000000
O O11 0.500000 0.500000 0.224845
O O12 0.577914 0.500000 0.500000
O O13 0.339543 0.000000 0.727957
O O14 0.325553 0.065531 0.000000
#
# Coordination Sequence:
#
# PCOD9522911 Si02
#       5
#    16  16  16   8  16
#     4  11  21  34  55  80 108 141 181 221 265 320
#     4  10  21  36  53  78 111 142 177 223 272 320
#     4   9  16  27  46  72 100 132 168 212 261 314
#     4   9  16  26  42  70 106 134 159 206 269 316
#     4   9  15  27  50  76 102 132 173 221 269 315
#
# _framework density 20.698187999999998
#
# number of rings (size 3 to 8) (size 9 to 14) (size 15 to 20)
#    0.000    2.333    3.333    0.667    0.000    1.778 
#    0.000    4.444    0.000    0.667    0.000    3.889 
#    0.000    5.333    0.000    0.000    0.000    0.000 
#
# Total GULP energy -201046.981061 kJ/mol
# GULP energy per Si atom -5584.638363 kJ/mol
# Density = 2.065108 g / cm^3
# Si number density = 20.698188 Si / 1000 Ang^3
#
#
#
# Elastic Constant Matrix: (Units=GPa)
#
#
# Indices 1 2 3 4 5 6 
#
# 1 220.2306 137.2801 2.9169 0.0000 0.0000 0.0000
# 2 137.2801 242.4773 -0.3321 0.0000 0.0000 0.0000
# 3 2.9169 -0.3321 50.3972 0.0000 0.0000 0.0000
# 4 0.0000 0.0000 0.0000 16.7415 0.0000 0.0000
# 5 0.0000 0.0000 0.0000 0.0000 2.7630 0.0000
# 6 0.0000 0.0000 0.0000 0.0000 0.0000 29.4596
#
#
#
# Elastic Compliance Matrix: (Units=1/GPa)
#
#
# Indices 1 2 3 4 5 6 
#
# 1 0.007027 -0.003979 -0.000433 0.000000 0.000000 0.000000
# 2 -0.003979 0.006377 0.000272 0.000000 0.000000 0.000000
# 3 -0.000433 0.000272 0.019869 0.000000 0.000000 0.000000
# 4 0.000000 0.000000 0.000000 0.059732 0.000000 0.000000
# 5 0.000000 0.000000 0.000000 0.000000 0.361923 0.000000
# 6 0.000000 0.000000 0.000000 0.000000 0.000000 0.033945
#
#
# Mechanical properties :
#
#
# Convention : Reuss Voigt Hill
#
# Bulk Modulus (GPa) = 40.00931 88.09276 64.05103
# Shear Modulus (GPa) = 9.89154 34.67550 22.28352
#
# Velocity S-wave (km/s) = 2.18845 4.09747 3.28471
# Velocity P-wave (km/s) = 5.07519 8.06466 6.73781
#
# Compressibility (1/GPa) = 0.02499418
#
# Stress axis : x y z
#
# Youngs Moduli (GPa) = 142.31731 156.81232 50.32911
#
# Poissons Ratio (x) = 0.62391 0.02179
# Poissons Ratio (y) = 0.56624 -0.01371
# Poissons Ratio (z) = 0.06161 -0.04270
#
# Static dielectric constant tensor:
#      x y z
#    x 1.690020 0.000000 0.000000 
#    y 0.000000 1.716770 0.000000 
#    z 0.000000 0.000000 1.816450 
# 
# From -- ./inp_files/7921.got.cif
#   From: 2010.05.17/outbox.cif.g08.bks.cpg/sg71_4_cif.got.tgz:7921.got - 2010.06.03 16:22:01.
