data_PCOD9522615
_publ_section_title
;
Structure prediction by ZEFSAII (Michael W. Deem and Ramdas Pophale) SiO2 
 PCOD9522615
Probable space group: I M M M
;
_chemical_formula_sum "Si O2"
_cell_formula_units_Z 116
_cell_length_a 9.565824
_cell_length_b 23.718525
_cell_length_c 25.039761
_cell_angle_alpha 90.000000
_cell_angle_beta 90.000000
_cell_angle_gamma 90.000000
_cell_volume 5681.202156
_symmetry_space_group_name_H-M "I M M M"
_symmetry_group_IT_number 71
_symmetry_cell_setting 'orthorhombic'
loop_
_space_group_symop_operation_xyz
x,y,z
-x,-y,z
x,-y,-z
-x,y,-z
-x,-y,-z
x,y,-z
-x,y,z
x,-y,z
1/2+x,1/2+y,1/2+z
1/2-x,1/2-y,1/2+z
1/2+x,1/2-y,1/2-z
1/2-x,1/2+y,1/2-z
1/2-x,1/2-y,1/2-z
1/2+x,1/2+y,1/2-z
1/2-x,1/2+y,1/2+z
1/2+x,1/2-y,1/2+z
loop_
_atom_site_type_symbol
_atom_site_label
_atom_site_fract_x
_atom_site_fract_y
_atom_site_fract_z
Si Si1 0.162017 0.112496 0.441736
Si Si2 0.661362 0.897524 0.228365
Si Si3 0.650722 0.136140 0.061775
Si Si4 0.663740 0.767589 0.801784
Si Si5 0.833451 0.932765 0.671426
Si Si6 0.762860 0.239513 0.419068
Si Si7 0.161388 0.937273 0.866254
Si Si8 0.500000 0.758083 0.500000
O O1 0.226682 0.099191 0.500000
O O2 0.218046 0.083813 0.388034
O O3 0.168996 0.179798 0.433653
O O4 0.000000 0.095086 0.444082
O O5 0.500000 0.914389 0.235496
O O6 0.662821 0.835451 0.201830
O O7 0.744090 0.900361 0.284123
O O8 0.746939 0.935249 0.186996
O O9 0.500000 0.116748 0.083715
O O10 0.656293 0.203561 0.065238
O O11 0.776180 0.108369 0.093666
O O12 0.659932 0.120028 0.000000
O O13 0.500000 0.749108 0.801921
O O14 0.750000 0.750000 0.750000
O O15 0.739694 0.744626 0.854753
O O16 0.000000 0.918899 0.675783
O O17 0.819366 0.000000 0.679314
O O18 0.621397 0.241814 0.452944
O O19 0.000000 0.925460 0.853442
O O20 0.170537 0.000000 0.890009
#
# Coordination Sequence:
#
# PCOD9522615 Si02
#       8
#    16  16  16  16  16  16  16   4
#     4  10  20  38  65  94 126 169 215 269 328 389
#     4  11  23  41  64  93 125 166 215 265 325 392
#     4  11  23  40  65  92 124 166 214 264 318 385
#     4  11  25  42  65  99 136 177 220 275 340 405
#     4  10  22  41  65  94 129 171 221 274 329 394
#     4  12  23  42  64  95 136 173 227 268 337 404
#     4  11  25  42  63  90 122 163 210 263 321 382
#     4  12  28  40  66 104 134 196 222 284 340 394
#
# _framework density 20.418213000000002
#
# number of rings (size 3 to 8) (size 9 to 14) (size 15 to 20)
#    0.000    1.103    2.759    3.310    1.931    7.172 
#    1.241    2.759    0.000    0.000    0.000    1.448 
#    0.000    0.000    0.000    0.000    0.000    0.000 
#
# Total GULP energy -323355.146471 kJ/mol
# GULP energy per Si atom -5575.088732 kJ/mol
# Density = 2.037174 g / cm^3
# Si number density = 20.418213 Si / 1000 Ang^3
#
#
#
# Elastic Constant Matrix: (Units=GPa)
#
#
# Indices 1 2 3 4 5 6 
#
# 1 110.6742 10.3584 46.1642 0.0000 0.0000 0.0000
# 2 10.3584 21.6846 -5.9467 0.0000 0.0000 0.0000
# 3 46.1642 -5.9467 143.5079 0.0000 0.0000 0.0000
# 4 0.0000 0.0000 0.0000 7.3708 0.0000 0.0000
# 5 0.0000 0.0000 0.0000 0.0000 33.3977 0.0000
# 6 0.0000 0.0000 0.0000 0.0000 0.0000 -63.3112
#
#
#
# Elastic Compliance Matrix: (Units=1/GPa)
#
#
# Indices 1 2 3 4 5 6 
#
# 1 0.011261 -0.006446 -0.003890 0.000000 0.000000 0.000000
# 2 -0.006446 0.050336 0.004159 0.000000 0.000000 0.000000
# 3 -0.003890 0.004159 0.008392 0.000000 0.000000 0.000000
# 4 0.000000 0.000000 0.000000 0.135671 0.000000 0.000000
# 5 0.000000 0.000000 0.000000 0.000000 0.029942 0.000000
# 6 0.000000 0.000000 0.000000 0.000000 0.000000 -0.015795
#
#
# Mechanical properties :
#
#
# Convention : Reuss Voigt Hill
#
# Bulk Modulus (GPa) = 17.35023 41.89094 29.62058
# Shear Modulus (GPa) = 19.89084 10.51085 15.20085
#
# Velocity S-wave (km/s) = 3.12456 2.27133 2.73147
# Velocity P-wave (km/s) = 4.64037 5.23828 4.94836
#
# Compressibility (1/GPa) = 0.05763613
#
# Stress axis : x y z
#
# Youngs Moduli (GPa) = 88.79972 19.86664 119.16294
#
# Poissons Ratio (x) = 0.12806 0.46351
# Poissons Ratio (y) = 0.57241 -0.49565
# Poissons Ratio (z) = 0.34540 -0.08263
#
# Static dielectric constant tensor:
#      x y z
#    x 1.722720 0.000000 0.000000 
#    y 0.000000 1.733450 0.000000 
#    z 0.000000 0.000000 1.756030 
# 
# From -- ./inp_files/58104.got.cif
#   From: 2010.05.17/outbox.cif.g08.bks.cpg/sg71_30_cif.got.tgz:58104.got - 2010.06.03 16:22:01.
