data_PCOD9522621
_publ_section_title
;
Structure prediction by ZEFSAII (Michael W. Deem and Ramdas Pophale) SiO2 
 PCOD9522621
Probable space group: I M M M
;
_chemical_formula_sum "Si O2"
_cell_formula_units_Z 50
_cell_length_a 29.763671
_cell_length_b 10.356419
_cell_length_c 8.998549
_cell_angle_alpha 90.000000
_cell_angle_beta 90.000000
_cell_angle_gamma 90.000000
_cell_volume 2773.758167
_symmetry_space_group_name_H-M "I M M M"
_symmetry_group_IT_number 71
_symmetry_cell_setting 'orthorhombic'
loop_
_space_group_symop_operation_xyz
x,y,z
-x,-y,z
x,-y,-z
-x,y,-z
-x,-y,-z
x,y,-z
-x,y,z
x,-y,z
1/2+x,1/2+y,1/2+z
1/2-x,1/2-y,1/2+z
1/2+x,1/2-y,1/2-z
1/2-x,1/2+y,1/2-z
1/2-x,1/2-y,1/2-z
1/2+x,1/2+y,1/2-z
1/2-x,1/2+y,1/2+z
1/2+x,1/2-y,1/2+z
loop_
_atom_site_type_symbol
_atom_site_label
_atom_site_fract_x
_atom_site_fract_y
_atom_site_fract_z
Si Si1 0.000000 0.500000 0.500000
Si Si2 0.948474 0.000000 0.818865
Si Si3 0.716796 0.646908 0.678947
Si Si4 0.615709 0.733032 0.678977
Si Si5 0.406603 0.000000 0.163249
O O1 0.959716 0.500000 0.626917
O O2 0.921210 0.872617 0.772292
O O3 0.000000 0.000000 0.768193
O O4 0.948577 0.000000 0.000000
O O5 0.720457 0.652399 0.500000
O O6 0.726887 0.500000 0.726115
O O7 0.750000 0.750000 0.750000
O O8 0.665262 0.681141 0.716832
O O9 0.613283 0.743174 0.500000
O O10 0.606686 0.871122 0.750549
O O11 0.383954 0.000000 0.000000
#
# Coordination Sequence:
#
# PCOD9522621 Si02
#       5
#     2   8  16  16   8
#     4   8  24  44  54  78 132 164 194 242 300 360
#     4   9  18  32  58  89 115 142 185 242 299 345
#     4  10  22  40  61  87 122 156 196 246 299 355
#     4  10  20  39  62  88 116 152 199 250 294 352
#     4  10  23  39  58  80 121 159 195 238 294 351
#
# _framework density 18.026084999999998
#
# number of rings (size 3 to 8) (size 9 to 14) (size 15 to 20)
#    0.480    1.760    1.600    0.480    4.480    1.920 
#    0.000    1.600    0.000    1.920    0.000    0.000 
#    0.000    0.000    0.000    0.000    0.000    0.000 
#
# Total GULP energy -139184.317296 kJ/mol
# GULP energy per Si atom -5567.372692 kJ/mol
# Density = 1.798506 g / cm^3
# Si number density = 18.026085 Si / 1000 Ang^3
#
#
#
# Elastic Constant Matrix: (Units=GPa)
#
#
# Indices 1 2 3 4 5 6 
#
# 1 146.3549 102.1115 39.0210 0.0000 0.0000 0.0000
# 2 102.1115 215.2056 47.3787 0.0000 0.0000 0.0000
# 3 39.0210 47.3787 19.8878 0.0000 0.0000 0.0000
# 4 0.0000 0.0000 0.0000 16.7201 0.0000 0.0000
# 5 0.0000 0.0000 0.0000 0.0000 29.8703 0.0000
# 6 0.0000 0.0000 0.0000 0.0000 0.0000 23.8074
#
#
#
# Elastic Compliance Matrix: (Units=1/GPa)
#
#
# Indices 1 2 3 4 5 6 
#
# 1 0.014498 -0.001297 -0.025357 0.000000 0.000000 0.000000
# 2 -0.001297 0.009888 -0.021012 0.000000 0.000000 0.000000
# 3 -0.025357 -0.021012 0.150089 0.000000 0.000000 0.000000
# 4 0.000000 0.000000 0.000000 0.059808 0.000000 0.000000
# 5 0.000000 0.000000 0.000000 0.000000 0.033478 0.000000
# 6 0.000000 0.000000 0.000000 0.000000 0.000000 0.042004
#
#
# Mechanical properties :
#
#
# Convention : Reuss Voigt Hill
#
# Bulk Modulus (GPa) = 12.63506 84.27452 48.45479
# Shear Modulus (GPa) = 11.58811 26.94204 19.26508
#
# Velocity S-wave (km/s) = 2.53820 3.87022 3.27270
# Velocity P-wave (km/s) = 3.95152 8.17462 6.42024
#
# Compressibility (1/GPa) = 0.07914485
#
# Stress axis : x y z
#
# Youngs Moduli (GPa) = 68.97514 101.13550 6.66270
#
# Poissons Ratio (x) = 0.13113 0.16895
# Poissons Ratio (y) = 0.08943 0.13999
# Poissons Ratio (z) = 1.74900 2.12501
#
# Static dielectric constant tensor:
#      x y z
#    x 1.602320 0.000000 0.000000 
#    y 0.000000 1.581440 0.000000 
#    z 0.000000 0.000000 1.621230 
# 
# From -- ./inp_files/15997.got.cif
#   From: 2010.05.17/outbox.cif.g08.bks.cpg/sg71_8_cif.got.tgz:15997.got - 2010.06.03 16:22:01.
