data_PCOD9522814
_publ_section_title
;
Structure prediction by ZEFSAII (Michael W. Deem and Ramdas Pophale) SiO2 
 PCOD9522814
Probable space group: I M M M
;
_chemical_formula_sum "Si O2"
_cell_formula_units_Z 112
_cell_length_a 25.134583
_cell_length_b 14.272998
_cell_length_c 16.489104
_cell_angle_alpha 90.000000
_cell_angle_beta 90.000000
_cell_angle_gamma 90.000000
_cell_volume 5915.397678
_symmetry_space_group_name_H-M "I M M M"
_symmetry_group_IT_number 71
_symmetry_cell_setting 'orthorhombic'
loop_
_space_group_symop_operation_xyz
x,y,z
-x,-y,z
x,-y,-z
-x,y,-z
-x,-y,-z
x,y,-z
-x,y,z
x,-y,z
1/2+x,1/2+y,1/2+z
1/2-x,1/2-y,1/2+z
1/2+x,1/2-y,1/2-z
1/2-x,1/2+y,1/2-z
1/2-x,1/2-y,1/2-z
1/2+x,1/2+y,1/2-z
1/2-x,1/2+y,1/2+z
1/2+x,1/2-y,1/2+z
loop_
_atom_site_type_symbol
_atom_site_label
_atom_site_fract_x
_atom_site_fract_y
_atom_site_fract_z
Si Si1 0.574633 0.391739 0.589136
Si Si2 0.757724 0.891920 0.597044
Si Si3 0.837827 0.229468 0.301329
Si Si4 0.135283 0.386825 0.095681
Si Si5 0.306899 0.109715 0.089739
Si Si6 0.940192 0.733635 0.785974
Si Si7 0.691223 0.392640 0.648563
O O1 0.558181 0.361710 0.500000
O O2 0.560335 0.500000 0.600865
O O3 0.554457 0.324604 0.657918
O O4 0.638434 0.385991 0.595740
O O5 0.760056 0.889406 0.500000
O O6 0.805947 0.831767 0.632450
O O7 0.696841 0.861960 0.617318
O O8 0.763146 0.000000 0.623600
O O9 0.826579 0.334094 0.332218
O O10 0.901348 0.232296 0.286546
O O11 0.813773 0.183855 0.219482
O O12 0.131225 0.500000 0.100296
O O13 0.094120 0.338320 0.157591
O O14 0.126264 0.361229 0.000000
O O15 0.243381 0.120094 0.095680
O O16 0.319878 0.000000 0.096125
O O17 0.324825 0.142712 0.000000
O O18 0.000000 0.700584 0.764809
O O19 0.692906 0.500000 0.682077
#
# Coordination Sequence:
#
# PCOD9522814 Si02
#       7
#    16  16  16  16  16  16  16
#     4   9  18  33  53  77 108 147 187 225 265 314
#     4   9  19  36  60  90 118 143 177 228 290 353
#     4  11  22  35  55  82 111 148 185 226 282 334
#     4   9  20  38  59  84 114 146 182 230 286 342
#     4  10  21  35  52  78 111 143 177 218 267 331
#     4  11  25  39  53  77 112 152 199 238 271 320
#     4   9  18  31  50  80 114 142 171 212 268 333
#
# _framework density 18.933638999999999
#
# number of rings (size 3 to 8) (size 9 to 14) (size 15 to 20)
#    0.000    2.286    0.000    3.000    6.000    4.571 
#    0.000    1.429    0.000    1.714    0.000    2.000 
#    0.000    0.000    0.000    0.000    0.000    0.000 
#
# Total GULP energy -312174.541119 kJ/mol
# GULP energy per Si atom -5574.545377 kJ/mol
# Density = 1.889054 g / cm^3
# Si number density = 18.933639 Si / 1000 Ang^3
#
#
#
# Elastic Constant Matrix: (Units=GPa)
#
#
# Indices 1 2 3 4 5 6 
#
# 1 131.1994 31.7470 38.2316 0.0000 0.0000 0.0000
# 2 31.7470 64.1295 35.0340 0.0000 0.0000 0.0000
# 3 38.2316 35.0340 63.1724 0.0000 0.0000 0.0000
# 4 0.0000 0.0000 0.0000 1.4897 0.0000 0.0000
# 5 0.0000 0.0000 0.0000 0.0000 -11.0020 0.0000
# 6 0.0000 0.0000 0.0000 0.0000 0.0000 5.1840
#
#
#
# Elastic Compliance Matrix: (Units=1/GPa)
#
#
# Indices 1 2 3 4 5 6 
#
# 1 0.009472 -0.002234 -0.004493 0.000000 0.000000 0.000000
# 2 -0.002234 0.022898 -0.011347 0.000000 0.000000 0.000000
# 3 -0.004493 -0.011347 0.024842 0.000000 0.000000 0.000000
# 4 0.000000 0.000000 0.000000 0.671261 0.000000 0.000000
# 5 0.000000 0.000000 0.000000 0.000000 -0.090892 0.000000
# 6 0.000000 0.000000 0.000000 0.000000 0.000000 0.192901
#
#
# Mechanical properties :
#
#
# Convention : Reuss Voigt Hill
#
# Bulk Modulus (GPa) = 47.47599 52.05851 49.76725
# Shear Modulus (GPa) = 5.72310 9.36692 7.54501
#
# Velocity S-wave (km/s) = 1.74048 2.22665 1.99841
# Velocity P-wave (km/s) = 5.40078 5.84513 5.62734
#
# Compressibility (1/GPa) = 0.02106328
#
# Stress axis : x y z
#
# Youngs Moduli (GPa) = 105.57446 43.67146 40.25507
#
# Poissons Ratio (x) = 0.09758 0.18088
# Poissons Ratio (y) = 0.23590 0.45676
# Poissons Ratio (z) = 0.47437 0.49552
#
# Static dielectric constant tensor:
#      x y z
#    x 1.721480 0.000000 0.000000 
#    y 0.000000 1.707930 0.000000 
#    z 0.000000 0.000000 1.669020 
# 
# From -- ./inp_files/40349.got.cif
#   From: 2010.05.17/outbox.cif.g08.bks.cpg/sg71_21_cif.got.tgz:40349.got - 2010.06.03 16:22:01.
