data_PCOD9522997
_publ_section_title
;
Structure prediction by ZEFSAII (Michael W. Deem and Ramdas Pophale) SiO2 
 PCOD9522997
Probable space group: I M M M
;
_chemical_formula_sum "Si O2"
_cell_formula_units_Z 104
_cell_length_a 24.963234
_cell_length_b 21.482692
_cell_length_c 8.607607
_cell_angle_alpha 90.000000
_cell_angle_beta 90.000000
_cell_angle_gamma 90.000000
_cell_volume 4616.065682
_symmetry_space_group_name_H-M "I M M M"
_symmetry_group_IT_number 71
_symmetry_cell_setting 'orthorhombic'
loop_
_space_group_symop_operation_xyz
x,y,z
-x,-y,z
x,-y,-z
-x,y,-z
-x,-y,-z
x,y,-z
-x,y,z
x,-y,z
1/2+x,1/2+y,1/2+z
1/2-x,1/2-y,1/2+z
1/2+x,1/2-y,1/2-z
1/2-x,1/2+y,1/2-z
1/2-x,1/2-y,1/2-z
1/2+x,1/2+y,1/2-z
1/2-x,1/2+y,1/2+z
1/2+x,1/2-y,1/2+z
loop_
_atom_site_type_symbol
_atom_site_label
_atom_site_fract_x
_atom_site_fract_y
_atom_site_fract_z
Si Si1 0.437778 0.108263 0.830444
Si Si2 0.780527 0.571175 0.816430
Si Si3 0.903440 0.252875 0.325662
Si Si4 0.442200 0.380924 0.815683
Si Si5 0.667788 0.573826 0.327907
Si Si6 0.939477 0.573061 0.000000
Si Si7 0.297430 0.207656 0.317774
O O1 0.500000 0.086848 0.828053
O O2 0.435399 0.182800 0.824911
O O3 0.413025 0.088160 0.665564
O O4 0.415435 0.088528 0.000000
O O5 0.792005 0.500000 0.754340
O O6 0.717158 0.584003 0.787960
O O7 0.803507 0.636765 0.750628
O O8 0.792341 0.568042 0.000000
O O9 0.880414 0.245380 0.500000
O O10 0.939685 0.193532 0.296739
O O11 0.853569 0.258314 0.211602
O O12 0.500000 0.404638 0.759620
O O13 0.389251 0.404143 0.732381
O O14 0.438410 0.394785 0.000000
O O15 0.680051 0.600018 0.500000
O O16 0.664116 0.500000 0.341065
O O17 0.945137 0.500000 0.000000
O O18 0.000000 0.602126 0.000000
O O19 0.287329 0.200795 0.500000
O O20 0.250000 0.250000 0.250000
#
# Coordination Sequence:
#
# PCOD9522997 Si02
#       7
#    16  16  16  16  16   8  16
#     4   9  18  34  56  80 110 148 187 232 286 340
#     4   9  19  38  61  82 108 148 196 238 281 340
#     4  10  21  37  57  80 110 144 184 234 289 343
#     4  10  21  37  57  81 110 148 194 237 278 333
#     4  10  21  36  55  82 115 148 183 229 285 340
#     4   9  18  32  52  80 110 142 185 231 273 329
#     4  11  23  37  57  84 115 148 187 237 293 351
#
# _framework density 22.530007000000001
#
# number of rings (size 3 to 8) (size 9 to 14) (size 15 to 20)
#    0.000    2.231    0.000    2.308    1.077    9.231 
#    0.000    3.846    0.000    0.923    0.000    0.000 
#    0.000    0.000    0.000    0.000    0.000    0.000 
#
# Total GULP energy -290018.526908 kJ/mol
# GULP energy per Si atom -5577.279364 kJ/mol
# Density = 2.247873 g / cm^3
# Si number density = 22.530007 Si / 1000 Ang^3
#
#
#
# Elastic Constant Matrix: (Units=GPa)
#
#
# Indices 1 2 3 4 5 6 
#
# 1 57.5596 12.7312 9.0472 0.0000 0.0000 0.0000
# 2 12.7312 23.2579 18.0345 0.0000 0.0000 0.0000
# 3 9.0472 18.0345 92.8329 0.0000 0.0000 0.0000
# 4 0.0000 0.0000 0.0000 36.1252 0.0000 0.0000
# 5 0.0000 0.0000 0.0000 0.0000 5.6089 0.0000
# 6 0.0000 0.0000 0.0000 0.0000 0.0000 54.5301
#
#
#
# Elastic Compliance Matrix: (Units=1/GPa)
#
#
# Indices 1 2 3 4 5 6 
#
# 1 0.019770 -0.010982 0.000207 0.000000 0.000000 0.000000
# 2 -0.010982 0.056722 -0.009949 0.000000 0.000000 0.000000
# 3 0.000207 -0.009949 0.012685 0.000000 0.000000 0.000000
# 4 0.000000 0.000000 0.000000 0.027682 0.000000 0.000000
# 5 0.000000 0.000000 0.000000 0.000000 0.178287 0.000000
# 6 0.000000 0.000000 0.000000 0.000000 0.000000 0.018338
#
#
# Mechanical properties :
#
#
# Convention : Reuss Voigt Hill
#
# Bulk Modulus (GPa) = 20.95207 28.14178 24.54693
# Shear Modulus (GPa) = 13.48281 28.17535 20.82908
#
# Velocity S-wave (km/s) = 2.44895 3.54018 3.04386
# Velocity P-wave (km/s) = 4.16129 5.40633 4.82414
#
# Compressibility (1/GPa) = 0.04772798
#
# Stress axis : x y z
#
# Youngs Moduli (GPa) = 50.58205 17.62972 78.83523
#
# Poissons Ratio (x) = 0.19361 -0.01630
# Poissons Ratio (y) = 0.55550 0.78434
# Poissons Ratio (z) = -0.01046 0.17540
#
# Static dielectric constant tensor:
#      x y z
#    x 1.947540 0.000000 0.000000 
#    y 0.000000 1.859490 0.000000 
#    z 0.000000 0.000000 1.883590 
# 
# From -- ./inp_files/14976.got.cif
#   From: 2010.05.17/outbox.cif.g08.bks.cpg/sg71_8_cif.got.tgz:14976.got - 2010.06.03 16:22:01.
