data_PCOD9522934
_publ_section_title
;
Structure prediction by ZEFSAII (Michael W. Deem and Ramdas Pophale) SiO2 
 PCOD9522934
Probable space group: I M M M
;
_chemical_formula_sum "Si O2"
_cell_formula_units_Z 88
_cell_length_a 25.547313
_cell_length_b 10.864616
_cell_length_c 17.264882
_cell_angle_alpha 90.000000
_cell_angle_beta 90.000000
_cell_angle_gamma 90.000000
_cell_volume 4792.070785
_symmetry_space_group_name_H-M "I M M M"
_symmetry_group_IT_number 71
_symmetry_cell_setting 'orthorhombic'
loop_
_space_group_symop_operation_xyz
x,y,z
-x,-y,z
x,-y,-z
-x,y,-z
-x,-y,-z
x,y,-z
-x,y,z
x,-y,z
1/2+x,1/2+y,1/2+z
1/2-x,1/2-y,1/2+z
1/2+x,1/2-y,1/2-z
1/2-x,1/2+y,1/2-z
1/2-x,1/2-y,1/2-z
1/2+x,1/2+y,1/2-z
1/2-x,1/2+y,1/2+z
1/2+x,1/2-y,1/2+z
loop_
_atom_site_type_symbol
_atom_site_label
_atom_site_fract_x
_atom_site_fract_y
_atom_site_fract_z
Si Si1 0.790964 0.639078 0.838236
Si Si2 0.108452 0.746014 0.911732
Si Si3 0.785704 0.641713 0.651421
Si Si4 0.500000 0.150778 0.810235
Si Si5 0.000000 0.355558 0.866307
Si Si6 0.401132 0.148948 0.911807
Si Si7 0.938401 0.000000 0.094679
O O1 0.777183 0.500000 0.864423
O O2 0.849991 0.671170 0.862363
O O3 0.787609 0.639610 0.744946
O O4 0.755001 0.750527 0.869791
O O5 0.051966 0.683494 0.909764
O O6 0.094463 0.881305 0.880772
O O7 0.127712 0.754282 0.000000
O O8 0.772892 0.500000 0.626242
O O9 0.843110 0.675096 0.619502
O O10 0.500000 0.194843 0.721702
O O11 0.447855 0.190916 0.855807
O O12 0.500000 0.000000 0.809618
O O13 0.000000 0.500000 0.859190
O O14 0.404730 0.000000 0.913522
O O15 0.407894 0.192956 0.000000
O O16 0.000000 0.000000 0.118586
O O17 0.939914 0.000000 0.000000
#
# Coordination Sequence:
#
# PCOD9522934 Si02
#       7
#    16  16  16   8   8  16   8
#     4  10  21  36  54  77 107 142 180 222 267 316
#     4  11  22  35  53  76 105 139 178 221 265 315
#     4   9  19  36  55  76 106 142 178 220 267 315
#     4   9  17  29  48  75 107 137 167 208 263 317
#     4  11  21  32  49  73 105 143 174 210 264 320
#     4   9  16  28  49  77 105 132 168 215 265 314
#     4   9  18  36  54  72 102 138 174 217 271 315
#
# _framework density 18.363669999999999
#
# number of rings (size 3 to 8) (size 9 to 14) (size 15 to 20)
#    0.000    2.273    0.909    2.182    1.273    6.545 
#    0.000    0.000    0.000    0.000    0.000    0.000 
#    0.000    1.455    0.000    0.000    0.000    0.000 
#
# Total GULP energy -245261.345813 kJ/mol
# GULP energy per Si atom -5574.121496 kJ/mol
# Density = 1.832187 g / cm^3
# Si number density = 18.363670 Si / 1000 Ang^3
#
#
#
# Elastic Constant Matrix: (Units=GPa)
#
#
# Indices 1 2 3 4 5 6 
#
# 1 88.5343 42.7142 10.4163 0.0000 0.0000 0.0000
# 2 42.7142 94.3277 15.6769 0.0000 0.0000 0.0000
# 3 10.4163 15.6769 33.1985 0.0000 0.0000 0.0000
# 4 0.0000 0.0000 0.0000 11.9117 0.0000 0.0000
# 5 0.0000 0.0000 0.0000 0.0000 -59.4031 0.0000
# 6 0.0000 0.0000 0.0000 0.0000 0.0000 23.3677
#
#
#
# Elastic Compliance Matrix: (Units=1/GPa)
#
#
# Indices 1 2 3 4 5 6 
#
# 1 0.014528 -0.006317 -0.001575 0.000000 0.000000 0.000000
# 2 -0.006317 0.014251 -0.004747 0.000000 0.000000 0.000000
# 3 -0.001575 -0.004747 0.032858 0.000000 0.000000 0.000000
# 4 0.000000 0.000000 0.000000 0.083951 0.000000 0.000000
# 5 0.000000 0.000000 0.000000 0.000000 -0.016834 0.000000
# 6 0.000000 0.000000 0.000000 0.000000 0.000000 0.042794
#
#
# Mechanical properties :
#
#
# Convention : Reuss Voigt Hill
#
# Bulk Modulus (GPa) = 27.50475 39.29726 33.40100
# Shear Modulus (GPa) = 23.92955 4.99215 14.46085
#
# Velocity S-wave (km/s) = 3.61375 1.65057 2.80923
# Velocity P-wave (km/s) = 5.69408 5.00784 5.36195
#
# Compressibility (1/GPa) = 0.03635736
#
# Stress axis : x y z
#
# Youngs Moduli (GPa) = 68.83239 70.17146 30.43401
#
# Poissons Ratio (x) = 0.44326 0.04794
# Poissons Ratio (y) = 0.43481 0.14449
# Poissons Ratio (z) = 0.10844 0.33314
#
# Static dielectric constant tensor:
#      x y z
#    x 1.610400 0.000000 0.000000 
#    y 0.000000 1.685820 0.000000 
#    z 0.000000 0.000000 1.639930 
# 
# From -- ./inp_files/47140.got.cif
#   From: 2010.05.17/outbox.cif.g08.bks.cpg/sg71_24_cif.got.tgz:47140.got - 2010.06.03 16:22:01.
