data_PCOD9522012
_publ_section_title
;
Structure prediction by ZEFSAII (Michael W. Deem and Ramdas Pophale) SiO2 
 PCOD9522012
Probable space group: I M M M
;
_chemical_formula_sum "Si O2"
_cell_formula_units_Z 88
_cell_length_a 24.351399
_cell_length_b 8.674372
_cell_length_c 20.777179
_cell_angle_alpha 90.000000
_cell_angle_beta 90.000000
_cell_angle_gamma 90.000000
_cell_volume 4388.827797
_symmetry_space_group_name_H-M "I M M M"
_symmetry_group_IT_number 71
_symmetry_cell_setting 'orthorhombic'
loop_
_space_group_symop_operation_xyz
x,y,z
-x,-y,z
x,-y,-z
-x,y,-z
-x,-y,-z
x,y,-z
-x,y,z
x,-y,z
1/2+x,1/2+y,1/2+z
1/2-x,1/2-y,1/2+z
1/2+x,1/2-y,1/2-z
1/2-x,1/2+y,1/2-z
1/2-x,1/2-y,1/2-z
1/2+x,1/2+y,1/2-z
1/2-x,1/2+y,1/2+z
1/2+x,1/2-y,1/2+z
loop_
_atom_site_type_symbol
_atom_site_label
_atom_site_fract_x
_atom_site_fract_y
_atom_site_fract_z
Si Si1 0.638084 0.327951 0.000000
Si Si2 0.228142 0.818481 0.862688
Si Si3 0.439056 0.815389 0.766193
Si Si4 0.615426 0.183752 0.363579
Si Si5 0.230549 0.326062 0.000000
Si Si6 0.435865 0.188071 0.500000
Si Si7 0.651488 0.684812 0.859562
O O1 0.704013 0.344340 0.000000
O O2 0.629550 0.254675 0.929672
O O3 0.612705 0.500000 0.000000
O O4 0.171643 0.753743 0.834242
O O5 0.218157 0.768507 0.936668
O O6 0.287017 0.745843 0.844988
O O7 0.231617 0.000000 0.854299
O O8 0.500000 0.766445 0.786120
O O9 0.430344 0.787215 0.690333
O O10 0.391929 0.733666 0.806597
O O11 0.434112 0.000000 0.775616
O O12 0.594865 0.237361 0.434108
O O13 0.624349 0.000000 0.368569
O O14 0.206488 0.500000 0.000000
O O15 0.500000 0.235686 0.500000
O O16 0.435924 0.000000 0.500000
O O17 0.655558 0.500000 0.865117
#
# Coordination Sequence:
#
# PCOD9522012 Si02
#       7
#     8  16  16  16   8   8  16
#     4   7  14  30  53  80 105 133 173 219 264 316
#     4  11  21  33  53  84 119 151 188 237 291 342
#     4  10  22  40  59  81 112 149 190 238 292 349
#     4  10  20  35  57  83 114 152 192 238 290 343
#     4   9  16  30  51  77 114 154 187 220 268 335
#     4   9  17  32  58  88 112 145 199 247 278 322
#     4  10  20  37  61  85 112 148 189 234 287 348
#
# _framework density 20.050912
#
# number of rings (size 3 to 8) (size 9 to 14) (size 15 to 20)
#    0.000    2.273    0.000    4.636    0.000    4.727 
#    0.000    1.818    0.000    4.909    0.000    0.000 
#    0.000    0.000    0.000    0.000    0.000    0.000 
#
# Total GULP energy -245267.444049 kJ/mol
# GULP energy per Si atom -5574.260092 kJ/mol
# Density = 2.000528 g / cm^3
# Si number density = 20.050912 Si / 1000 Ang^3
#
#
#
# Elastic Constant Matrix: (Units=GPa)
#
#
# Indices 1 2 3 4 5 6 
#
# 1 147.6491 40.7451 51.8043 0.0000 0.0000 0.0000
# 2 40.7451 44.1692 24.7884 0.0000 0.0000 0.0000
# 3 51.8043 24.7884 79.5148 0.0000 0.0000 0.0000
# 4 0.0000 0.0000 0.0000 16.6117 0.0000 0.0000
# 5 0.0000 0.0000 0.0000 0.0000 31.2710 0.0000
# 6 0.0000 0.0000 0.0000 0.0000 0.0000 23.0220
#
#
#
# Elastic Compliance Matrix: (Units=1/GPa)
#
#
# Indices 1 2 3 4 5 6 
#
# 1 0.010278 -0.006937 -0.004533 0.000000 0.000000 0.000000
# 2 -0.006937 0.032123 -0.005495 0.000000 0.000000 0.000000
# 3 -0.004533 -0.005495 0.017243 0.000000 0.000000 0.000000
# 4 0.000000 0.000000 0.000000 0.060198 0.000000 0.000000
# 5 0.000000 0.000000 0.000000 0.000000 0.031979 0.000000
# 6 0.000000 0.000000 0.000000 0.000000 0.000000 0.043437
#
#
# Mechanical properties :
#
#
# Convention : Reuss Voigt Hill
#
# Bulk Modulus (GPa) = 38.89025 56.22318 47.55672
# Shear Modulus (GPa) = 21.02973 24.44729 22.73851
#
# Velocity S-wave (km/s) = 3.24206 3.49558 3.37120
# Velocity P-wave (km/s) = 5.78381 6.66282 6.23881
#
# Compressibility (1/GPa) = 0.02571339
#
# Stress axis : x y z
#
# Youngs Moduli (GPa) = 97.29830 31.13033 57.99492
#
# Poissons Ratio (x) = 0.21594 0.26292
# Poissons Ratio (y) = 0.67493 0.31868
# Poissons Ratio (z) = 0.44110 0.17106
#
# Static dielectric constant tensor:
#      x y z
#    x 1.710850 0.000000 0.000000 
#    y 0.000000 1.686110 0.000000 
#    z 0.000000 0.000000 1.127930 
# 
# From -- ./inp_files/55591.got.cif
#   From: 2010.05.17/outbox.cif.g08.bks.cpg/sg71_28_cif.got.tgz:55591.got - 2010.06.03 16:22:01.
