data_PCOD9522232
_publ_section_title
;
Structure prediction by ZEFSAII (Michael W. Deem and Ramdas Pophale) SiO2 
 PCOD9522232
Probable space group: I M M M
;
_chemical_formula_sum "Si O2"
_cell_formula_units_Z 96
_cell_length_a 19.642773
_cell_length_b 8.254316
_cell_length_c 30.441650
_cell_angle_alpha 90.000000
_cell_angle_beta 90.000000
_cell_angle_gamma 90.000000
_cell_volume 4935.737759
_symmetry_space_group_name_H-M "I M M M"
_symmetry_group_IT_number 71
_symmetry_cell_setting 'orthorhombic'
loop_
_space_group_symop_operation_xyz
x,y,z
-x,-y,z
x,-y,-z
-x,y,-z
-x,-y,-z
x,y,-z
-x,y,z
x,-y,z
1/2+x,1/2+y,1/2+z
1/2-x,1/2-y,1/2+z
1/2+x,1/2-y,1/2-z
1/2-x,1/2+y,1/2-z
1/2-x,1/2-y,1/2-z
1/2+x,1/2+y,1/2-z
1/2-x,1/2+y,1/2+z
1/2+x,1/2-y,1/2+z
loop_
_atom_site_type_symbol
_atom_site_label
_atom_site_fract_x
_atom_site_fract_y
_atom_site_fract_z
Si Si1 0.825496 0.189185 0.627574
Si Si2 0.421862 0.194828 0.049351
Si Si3 0.820713 0.803968 0.727219
Si Si4 0.924203 0.691232 0.947654
Si Si5 0.922262 0.197602 0.802541
Si Si6 0.176976 0.187922 0.119306
O O1 0.873071 0.258481 0.589334
O O2 0.830764 0.256888 0.677411
O O3 0.746624 0.215750 0.615900
O O4 0.841451 0.000000 0.630104
O O5 0.500000 0.250480 0.056573
O O6 0.423114 0.000000 0.047886
O O7 0.400606 0.250757 0.000000
O O8 0.750000 0.750000 0.750000
O O9 0.883853 0.755258 0.757919
O O10 0.818394 0.000000 0.725977
O O11 0.915422 0.500000 0.937555
O O12 0.866782 0.793461 0.924433
O O13 0.000000 0.740233 0.932546
O O14 0.921929 0.707536 0.000000
O O15 0.872844 0.249461 0.842101
O O16 0.000000 0.255114 0.806024
O O17 0.924284 0.000000 0.804096
O O18 0.193469 0.000000 0.128150
#
# Coordination Sequence:
#
# PCOD9522232 Si02
#       6
#    16  16  16  16  16  16
#     4  11  23  36  57  88 118 153 192 233 287 347
#     4   9  20  41  66  89 116 152 193 240 295 353
#     4  10  20  36  57  80 112 152 190 234 285 341
#     4   9  19  36  55  75 105 144 181 225 283 338
#     4   9  18  33  54  80 108 142 184 229 279 332
#     4  11  21  34  55  80 109 148 189 234 279 329
#
# _framework density 19.449981000000001
#
# number of rings (size 3 to 8) (size 9 to 14) (size 15 to 20)
#    0.000    2.167    1.667    2.500    0.000    4.000 
#    0.000    3.333    0.000    1.500    0.000    0.000 
#    0.000    0.000    0.000    0.000    0.000    0.000 
#
# Total GULP energy -267817.146887 kJ/mol
# GULP energy per Si atom -5579.523893 kJ/mol
# Density = 1.940571 g / cm^3
# Si number density = 19.449981 Si / 1000 Ang^3
#
#
#
# Elastic Constant Matrix: (Units=GPa)
#
#
# Indices 1 2 3 4 5 6 
#
# 1 123.6986 10.3459 79.1620 0.0000 0.0000 0.0000
# 2 10.3459 11.2201 20.3719 0.0000 0.0000 0.0000
# 3 79.1620 20.3719 129.7403 0.0000 0.0000 0.0000
# 4 0.0000 0.0000 0.0000 19.2408 0.0000 0.0000
# 5 0.0000 0.0000 0.0000 0.0000 38.9566 0.0000
# 6 0.0000 0.0000 0.0000 0.0000 0.0000 6.9440
#
#
#
# Elastic Compliance Matrix: (Units=1/GPa)
#
#
# Indices 1 2 3 4 5 6 
#
# 1 0.013359 0.003471 -0.008696 0.000000 0.000000 0.000000
# 2 0.003471 0.125570 -0.021835 0.000000 0.000000 0.000000
# 3 -0.008696 -0.021835 0.016442 0.000000 0.000000 0.000000
# 4 0.000000 0.000000 0.000000 0.051973 0.000000 0.000000
# 5 0.000000 0.000000 0.000000 0.000000 0.025670 0.000000
# 6 0.000000 0.000000 0.000000 0.000000 0.000000 0.144008
#
#
# Mechanical properties :
#
#
# Convention : Reuss Voigt Hill
#
# Bulk Modulus (GPa) = 9.87643 53.82428 31.85035
# Shear Modulus (GPa) = 10.75517 23.34691 17.05104
#
# Velocity S-wave (km/s) = 2.35407 3.46837 2.96406
# Velocity P-wave (km/s) = 3.53239 6.61610 5.30333
#
# Compressibility (1/GPa) = 0.10125120
#
# Stress axis : x y z
#
# Youngs Moduli (GPa) = 74.85578 7.96369 60.81892
#
# Poissons Ratio (x) = -0.02764 0.52889
# Poissons Ratio (y) = -0.25983 1.32798
# Poissons Ratio (z) = 0.65096 0.17389
#
# Static dielectric constant tensor:
#      x y z
#    x 1.647790 0.000000 0.000000 
#    y 0.000000 1.697360 0.000000 
#    z 0.000000 0.000000 1.702720 
# 
# From -- ./inp_files/66336.got.cif
#   From: 2010.05.17/outbox.cif.g08.bks.cpg/sg71_34_cif.got.tgz:66336.got - 2010.06.03 16:22:01.
