data_PCOD9522324
_publ_section_title
;
Structure prediction by ZEFSAII (Michael W. Deem and Ramdas Pophale) SiO2 
 PCOD9522324
Probable space group: I M M M
;
_chemical_formula_sum "Si O2"
_cell_formula_units_Z 104
_cell_length_a 28.700451
_cell_length_b 21.837030
_cell_length_c 7.836331
_cell_angle_alpha 90.000000
_cell_angle_beta 90.000000
_cell_angle_gamma 90.000000
_cell_volume 4911.284177
_symmetry_space_group_name_H-M "I M M M"
_symmetry_group_IT_number 71
_symmetry_cell_setting 'orthorhombic'
loop_
_space_group_symop_operation_xyz
x,y,z
-x,-y,z
x,-y,-z
-x,y,-z
-x,-y,-z
x,y,-z
-x,y,z
x,-y,z
1/2+x,1/2+y,1/2+z
1/2-x,1/2-y,1/2+z
1/2+x,1/2-y,1/2-z
1/2-x,1/2+y,1/2-z
1/2-x,1/2-y,1/2-z
1/2+x,1/2+y,1/2-z
1/2-x,1/2+y,1/2+z
1/2+x,1/2-y,1/2+z
loop_
_atom_site_type_symbol
_atom_site_label
_atom_site_fract_x
_atom_site_fract_y
_atom_site_fract_z
Si Si1 0.944787 0.000000 0.708055
Si Si2 0.732736 0.500000 0.793219
Si Si3 0.596223 0.366613 0.205404
Si Si4 0.656629 0.000000 0.707686
Si Si5 0.052812 0.262725 0.706229
Si Si6 0.201258 0.126110 0.806796
Si Si7 0.217552 0.303649 0.813405
Si Si8 0.627286 0.134510 0.706116
O O1 0.921789 0.934397 0.764739
O O2 0.941634 0.000000 0.500000
O O3 0.000000 0.000000 0.752055
O O4 0.788065 0.500000 0.747173
O O5 0.704490 0.445196 0.711391
O O6 0.729377 0.500000 0.000000
O O7 0.569672 0.304967 0.265866
O O8 0.650106 0.354280 0.251680
O O9 0.592087 0.368436 0.000000
O O10 0.632065 0.936350 0.765681
O O11 0.655505 0.000000 0.500000
O O12 0.053802 0.260299 0.500000
O O13 0.084125 0.321102 0.756802
O O14 0.000000 0.272207 0.763634
O O15 0.244219 0.143738 0.686323
O O16 0.211280 0.145964 0.000000
O O17 0.250000 0.250000 0.750000
O O18 0.172152 0.328513 0.721150
O O19 0.201315 0.285718 0.000000
O O20 0.631401 0.130035 0.500000
#
# Coordination Sequence:
#
# PCOD9522324 Si02
#       8
#     8   8  16   8  16  16  16  16
#     4   9  17  32  58  88 111 142 201 264 306 351
#     4  11  20  38  61  81 114 161 202 243 295 353
#     4  10  20  36  59  85 117 161 206 249 302 360
#     4   9  18  38  63  86 112 147 195 252 302 353
#     4  10  22  40  61  87 120 156 197 250 309 369
#     4  12  24  36  53  84 122 156 196 242 287 351
#     4  11  22  37  57  83 117 157 197 240 293 354
#     4  10  21  39  63  88 113 150 200 251 306 367
#
# _framework density 21.175723999999999
#
# number of rings (size 3 to 8) (size 9 to 14) (size 15 to 20)
#    0.000    1.615    1.538    3.923    0.000    7.077 
#    0.000    0.769    0.000    4.154    0.000    0.000 
#    0.000    0.000    0.000    0.000    0.000    0.000 
#
# Total GULP energy -289748.747946 kJ/mol
# GULP energy per Si atom -5572.091307 kJ/mol
# Density = 2.112753 g / cm^3
# Si number density = 21.175724 Si / 1000 Ang^3
#
#
#
# Elastic Constant Matrix: (Units=GPa)
#
#
# Indices 1 2 3 4 5 6 
#
# 1 151.6810 64.4034 2.4678 0.0000 0.0000 0.0000
# 2 64.4034 129.4291 16.3373 0.0000 0.0000 0.0000
# 3 2.4678 16.3373 36.1811 0.0000 0.0000 0.0000
# 4 0.0000 0.0000 0.0000 11.3459 0.0000 0.0000
# 5 0.0000 0.0000 0.0000 0.0000 18.7089 0.0000
# 6 0.0000 0.0000 0.0000 0.0000 0.0000 57.0154
#
#
#
# Elastic Compliance Matrix: (Units=1/GPa)
#
#
# Indices 1 2 3 4 5 6 
#
# 1 0.008425 -0.004369 0.001398 0.000000 0.000000 0.000000
# 2 -0.004369 0.010459 -0.004425 0.000000 0.000000 0.000000
# 3 0.001398 -0.004425 0.029541 0.000000 0.000000 0.000000
# 4 0.000000 0.000000 0.000000 0.088138 0.000000 0.000000
# 5 0.000000 0.000000 0.000000 0.000000 0.053450 0.000000
# 6 0.000000 0.000000 0.000000 0.000000 0.000000 0.017539
#
#
# Mechanical properties :
#
#
# Convention : Reuss Voigt Hill
#
# Bulk Modulus (GPa) = 29.73150 53.74537 41.73843
# Shear Modulus (GPa) = 21.40835 33.01956 27.21395
#
# Velocity S-wave (km/s) = 3.18305 3.95310 3.58879
# Velocity P-wave (km/s) = 5.25166 6.80233 6.07666
#
# Compressibility (1/GPa) = 0.03363436
#
# Stress axis : x y z
#
# Youngs Moduli (GPa) = 118.69459 95.61528 33.85102
#
# Poissons Ratio (x) = 0.41772 -0.04732
# Poissons Ratio (y) = 0.51854 0.14977
# Poissons Ratio (z) = -0.16594 0.42305
#
# Static dielectric constant tensor:
#      x y z
#    x 1.707580 0.000000 0.000000 
#    y 0.000000 1.641320 0.000000 
#    z 0.000000 0.000000 1.839850 
# 
# From -- ./inp_files/15081.got.cif
#   From: 2010.05.17/outbox.cif.g08.bks.cpg/sg71_8_cif.got.tgz:15081.got - 2010.06.03 16:22:01.
