data_PCOD9522932
_publ_section_title
;
Structure prediction by ZEFSAII (Michael W. Deem and Ramdas Pophale) SiO2 
 PCOD9522932
Probable space group: I M M M
;
_chemical_formula_sum "Si O2"
_cell_formula_units_Z 104
_cell_length_a 22.444582
_cell_length_b 26.644180
_cell_length_c 7.395651
_cell_angle_alpha 90.000000
_cell_angle_beta 90.000000
_cell_angle_gamma 90.000000
_cell_volume 4422.728595
_symmetry_space_group_name_H-M "I M M M"
_symmetry_group_IT_number 71
_symmetry_cell_setting 'orthorhombic'
loop_
_space_group_symop_operation_xyz
x,y,z
-x,-y,z
x,-y,-z
-x,y,-z
-x,-y,-z
x,y,-z
-x,y,z
x,-y,z
1/2+x,1/2+y,1/2+z
1/2-x,1/2-y,1/2+z
1/2+x,1/2-y,1/2-z
1/2-x,1/2+y,1/2-z
1/2-x,1/2-y,1/2-z
1/2+x,1/2+y,1/2-z
1/2-x,1/2+y,1/2+z
1/2+x,1/2-y,1/2+z
loop_
_atom_site_type_symbol
_atom_site_label
_atom_site_fract_x
_atom_site_fract_y
_atom_site_fract_z
Si Si1 0.932158 0.867925 0.281023
Si Si2 0.569165 0.000000 0.221301
Si Si3 0.879830 0.605485 0.284092
Si Si4 0.335409 0.556486 0.218211
Si Si5 0.755812 0.354477 0.711190
Si Si6 0.935536 0.706564 0.784044
Si Si7 0.160054 0.780189 0.207381
O O1 0.931356 0.863994 0.500000
O O2 0.899218 0.919741 0.231979
O O3 0.890366 0.823703 0.208999
O O4 0.000000 0.864593 0.220121
O O5 0.601578 0.949205 0.282801
O O6 0.500000 0.000000 0.275249
O O7 0.569685 0.000000 0.000000
O O8 0.872115 0.600329 0.500000
O O9 0.818570 0.628710 0.208681
O O10 0.929180 0.647617 0.250056
O O11 0.326270 0.500000 0.283919
O O12 0.286482 0.596682 0.278958
O O13 0.332657 0.555582 0.000000
O O14 0.764840 0.342622 0.500000
O O15 0.718437 0.307251 0.788386
O O16 0.876459 0.733981 0.709135
O O17 0.000000 0.725000 0.715486
O O18 0.935247 0.715034 0.000000
O O19 0.174412 0.767231 0.000000
#
# Coordination Sequence:
#
# PCOD9522932 Si02
#       7
#    16   8  16  16  16  16  16
#     4   9  17  29  46  70  99 132 174 220 262 305
#     4   9  18  34  55  77 103 135 168 207 258 310
#     4  10  21  36  56  81 105 134 173 217 262 310
#     4   9  18  31  47  69  99 135 173 215 263 314
#     4   9  19  34  53  77 103 133 174 217 259 306
#     4  10  21  36  54  77 106 139 173 210 257 313
#     4   9  18  34  53  74 103 139 173 209 256 311
#
# _framework density 23.514894999999999
#
# number of rings (size 3 to 8) (size 9 to 14) (size 15 to 20)
#    0.000    2.692    0.000    0.923    1.077    4.308 
#    0.000    1.923    0.000    1.385    0.000    4.308 
#    0.000    0.000    0.000    0.000    0.000    0.000 
#
# Total GULP energy -290437.066406 kJ/mol
# GULP energy per Si atom -5585.328200 kJ/mol
# Density = 2.346137 g / cm^3
# Si number density = 23.514895 Si / 1000 Ang^3
#
#
#
# Elastic Constant Matrix: (Units=GPa)
#
#
# Indices 1 2 3 4 5 6 
#
# 1 151.2715 58.7771 11.5212 0.0000 0.0000 0.0000
# 2 58.7771 152.9137 2.6249 0.0000 0.0000 0.0000
# 3 11.5212 2.6249 86.8366 0.0000 0.0000 0.0000
# 4 0.0000 0.0000 0.0000 8.6707 0.0000 0.0000
# 5 0.0000 0.0000 0.0000 0.0000 5.6700 0.0000
# 6 0.0000 0.0000 0.0000 0.0000 0.0000 27.6336
#
#
#
# Elastic Compliance Matrix: (Units=1/GPa)
#
#
# Indices 1 2 3 4 5 6 
#
# 1 0.007849 -0.003001 -0.000951 0.000000 0.000000 0.000000
# 2 -0.003001 0.007690 0.000166 0.000000 0.000000 0.000000
# 3 -0.000951 0.000166 0.011637 0.000000 0.000000 0.000000
# 4 0.000000 0.000000 0.000000 0.115331 0.000000 0.000000
# 5 0.000000 0.000000 0.000000 0.000000 0.176368 0.000000
# 6 0.000000 0.000000 0.000000 0.000000 0.000000 0.036188
#
#
# Mechanical properties :
#
#
# Convention : Reuss Voigt Hill
#
# Bulk Modulus (GPa) = 51.00791 59.65201 55.32996
# Shear Modulus (GPa) = 13.54393 29.60143 21.57268
#
# Velocity S-wave (km/s) = 2.40255 3.55186 3.03216
# Velocity P-wave (km/s) = 5.42542 6.49952 5.98661
#
# Compressibility (1/GPa) = 0.01960480
#
# Stress axis : x y z
#
# Youngs Moduli (GPa) = 127.40550 130.03575 85.93272
#
# Poissons Ratio (x) = 0.39019 0.08169
# Poissons Ratio (y) = 0.38230 -0.01424
# Poissons Ratio (z) = 0.12112 -0.02154
#
# Static dielectric constant tensor:
#      x y z
#    x 1.892240 0.000000 0.000000 
#    y 0.000000 1.873300 0.000000 
#    z 0.000000 0.000000 1.885450 
# 
# From -- ./inp_files/13346.got.cif
#   From: 2010.05.17/outbox.cif.g08.bks.cpg/sg71_7_cif.got.tgz:13346.got - 2010.06.03 16:22:01.
