data_PCOD9522808
_publ_section_title
;
Structure prediction by ZEFSAII (Michael W. Deem and Ramdas Pophale) SiO2 
 PCOD9522808
Probable space group: I M M M
;
_chemical_formula_sum "Si O2"
_cell_formula_units_Z 96
_cell_length_a 21.073362
_cell_length_b 23.173123
_cell_length_c 9.755807
_cell_angle_alpha 90.000000
_cell_angle_beta 90.000000
_cell_angle_gamma 90.000000
_cell_volume 4764.107959
_symmetry_space_group_name_H-M "I M M M"
_symmetry_group_IT_number 71
_symmetry_cell_setting 'orthorhombic'
loop_
_space_group_symop_operation_xyz
x,y,z
-x,-y,z
x,-y,-z
-x,y,-z
-x,-y,-z
x,y,-z
-x,y,z
x,-y,z
1/2+x,1/2+y,1/2+z
1/2-x,1/2-y,1/2+z
1/2+x,1/2-y,1/2-z
1/2-x,1/2+y,1/2-z
1/2-x,1/2-y,1/2-z
1/2+x,1/2+y,1/2-z
1/2-x,1/2+y,1/2+z
1/2+x,1/2-y,1/2+z
loop_
_atom_site_type_symbol
_atom_site_label
_atom_site_fract_x
_atom_site_fract_y
_atom_site_fract_z
Si Si1 0.887375 0.826125 0.343269
Si Si2 0.808707 0.564145 0.339421
Si Si3 0.576788 0.565929 0.342248
Si Si4 0.891356 0.277014 0.156177
Si Si5 0.071237 0.409096 0.839868
Si Si6 0.239955 0.661867 0.153358
O O1 0.909949 0.829834 0.500000
O O2 0.899986 0.885003 0.260834
O O3 0.913889 0.771337 0.260941
O O4 0.811378 0.816501 0.346105
O O5 0.817218 0.576190 0.500000
O O6 0.781292 0.500000 0.324744
O O7 0.875719 0.566433 0.260086
O O8 0.767409 0.612762 0.266593
O O9 0.597205 0.577355 0.500000
O O10 0.500000 0.567103 0.340992
O O11 0.596123 0.500000 0.306958
O O12 0.923796 0.339403 0.171669
O O13 0.816199 0.291898 0.173518
O O14 0.901203 0.256875 0.000000
O O15 0.000000 0.427554 0.806687
O O16 0.083731 0.423291 0.000000
O O17 0.227524 0.637236 0.000000
#
# Coordination Sequence:
#
# PCOD9522808 Si02
#       6
#    16  16  16  16  16  16
#     4  11  22  34  54  85 112 135 169 213 262 315
#     4  10  21  35  52  77 107 138 175 221 268 310
#     4   9  20  40  61  78 101 137 178 216 255 304
#     4   9  18  34  54  76 106 142 177 214 255 304
#     4   9  19  36  56  77 103 139 181 220 260 309
#     4   9  20  37  54  75 106 142 177 214 258 309
#
# _framework density 20.150677000000002
#
# number of rings (size 3 to 8) (size 9 to 14) (size 15 to 20)
#    0.000    2.500    0.000    3.000    0.000    8.000 
#    0.000    7.500    0.000    0.000    0.000    0.000 
#    0.000    0.000    0.000    0.000    0.000    0.000 
#
# Total GULP energy -267912.031780 kJ/mol
# GULP energy per Si atom -5581.500662 kJ/mol
# Density = 2.010481 g / cm^3
# Si number density = 20.150677 Si / 1000 Ang^3
#
#
#
# Elastic Constant Matrix: (Units=GPa)
#
#
# Indices 1 2 3 4 5 6 
#
# 1 27.8499 -9.6846 -2.2976 0.0000 0.0000 0.0000
# 2 -9.6846 95.3015 81.9173 0.0000 0.0000 0.0000
# 3 -2.2976 81.9173 136.0215 0.0000 0.0000 0.0000
# 4 0.0000 0.0000 0.0000 25.4728 0.0000 0.0000
# 5 0.0000 0.0000 0.0000 0.0000 17.5690 0.0000
# 6 0.0000 0.0000 0.0000 0.0000 0.0000 -15.1598
#
#
#
# Elastic Compliance Matrix: (Units=1/GPa)
#
#
# Indices 1 2 3 4 5 6 
#
# 1 0.038005 0.006863 -0.003491 0.000000 0.000000 0.000000
# 2 0.006863 0.022994 -0.013732 0.000000 0.000000 0.000000
# 3 -0.003491 -0.013732 0.015563 0.000000 0.000000 0.000000
# 4 0.000000 0.000000 0.000000 0.039258 0.000000 0.000000
# 5 0.000000 0.000000 0.000000 0.000000 0.056918 0.000000
# 6 0.000000 0.000000 0.000000 0.000000 0.000000 -0.065964
#
#
# Mechanical properties :
#
#
# Convention : Reuss Voigt Hill
#
# Bulk Modulus (GPa) = 17.90775 44.33813 31.12294
# Shear Modulus (GPa) = 34.22140 18.19226 26.20683
#
# Velocity S-wave (km/s) = 4.12548 3.00794 3.61022
# Velocity P-wave (km/s) = 5.62130 5.84078 5.73209
#
# Compressibility (1/GPa) = 0.05584173
#
# Stress axis : x y z
#
# Youngs Moduli (GPa) = 26.31212 43.49012 64.25662
#
# Poissons Ratio (x) = -0.29847 0.22433
# Poissons Ratio (y) = -0.18058 0.88236
# Poissons Ratio (z) = 0.09186 0.59720
#
# Static dielectric constant tensor:
#      x y z
#    x 1.728670 0.000000 0.000000 
#    y 0.000000 1.707870 0.000000 
#    z 0.000000 0.000000 1.691550 
# 
# From -- ./inp_files/12817.got.cif
#   From: 2010.05.17/outbox.cif.g08.bks.cpg/sg71_7_cif.got.tgz:12817.got - 2010.06.03 16:22:01.
