data_PCOD9522321
_publ_section_title
;
Structure prediction by ZEFSAII (Michael W. Deem and Ramdas Pophale) SiO2 
 PCOD9522321
Probable space group: I M M M
;
_chemical_formula_sum "Si O2"
_cell_formula_units_Z 88
_cell_length_a 15.774042
_cell_length_b 20.135919
_cell_length_c 14.734421
_cell_angle_alpha 90.000000
_cell_angle_beta 90.000000
_cell_angle_gamma 90.000000
_cell_volume 4680.017995
_symmetry_space_group_name_H-M "I M M M"
_symmetry_group_IT_number 71
_symmetry_cell_setting 'orthorhombic'
loop_
_space_group_symop_operation_xyz
x,y,z
-x,-y,z
x,-y,-z
-x,y,-z
-x,-y,-z
x,y,-z
-x,y,z
x,-y,z
1/2+x,1/2+y,1/2+z
1/2-x,1/2-y,1/2+z
1/2+x,1/2-y,1/2-z
1/2-x,1/2+y,1/2-z
1/2-x,1/2-y,1/2-z
1/2+x,1/2+y,1/2-z
1/2-x,1/2+y,1/2+z
1/2+x,1/2-y,1/2+z
loop_
_atom_site_type_symbol
_atom_site_label
_atom_site_fract_x
_atom_site_fract_y
_atom_site_fract_z
Si Si1 0.777020 0.321994 0.599247
Si Si2 0.661396 0.423928 0.102719
Si Si3 0.324416 0.124666 0.705182
Si Si4 0.090325 0.209522 0.635540
Si Si5 0.400903 0.000000 0.604932
Si Si6 0.401977 0.734814 0.652133
O O1 0.791871 0.352812 0.500000
O O2 0.812267 0.361635 0.687159
O O3 0.830285 0.252893 0.602546
O O4 0.676474 0.305560 0.608296
O O5 0.638154 0.500000 0.126776
O O6 0.731673 0.393308 0.168287
O O7 0.592296 0.366398 0.104525
O O8 0.694888 0.425796 0.000000
O O9 0.375794 0.062925 0.665777
O O10 0.367187 0.189840 0.660948
O O11 0.093903 0.210295 0.744255
O O12 0.000000 0.240762 0.608626
O O13 0.500000 0.000000 0.594704
O O14 0.366295 0.000000 0.500000
O O15 0.500000 0.731834 0.616429
#
# Coordination Sequence:
#
# PCOD9522321 Si02
#       6
#    16  16  16  16   8  16
#     4  11  22  37  59  86 116 155 202 245 295 354
#     4  11  21  33  55  83 112 149 191 236 290 350
#     4  11  20  38  57  84 120 154 193 241 293 351
#     4  10  20  37  58  81 115 153 192 243 297 350
#     4  11  24  40  63  93 122 157 197 239 297 360
#     4  10  20  36  59  85 114 152 196 246 301 348
#
# _framework density 18.803346000000001
#
# number of rings (size 3 to 8) (size 9 to 14) (size 15 to 20)
#    0.000    1.364    4.545    2.727    0.000    3.636 
#    0.000    1.364    0.000    0.545    0.000    0.000 
#    0.000    4.364    0.000    0.000    0.000    0.000 
#
# Total GULP energy -244967.173127 kJ/mol
# GULP energy per Si atom -5567.435753 kJ/mol
# Density = 1.876055 g / cm^3
# Si number density = 18.803346 Si / 1000 Ang^3
#
#
#
# Elastic Constant Matrix: (Units=GPa)
#
#
# Indices 1 2 3 4 5 6 
#
# 1 114.1750 15.9881 28.1872 0.0000 0.0000 0.0000
# 2 15.9881 100.9911 48.8065 0.0000 0.0000 0.0000
# 3 28.1872 48.8065 113.2837 0.0000 0.0000 0.0000
# 4 0.0000 0.0000 0.0000 17.2899 0.0000 0.0000
# 5 0.0000 0.0000 0.0000 0.0000 4.1433 0.0000
# 6 0.0000 0.0000 0.0000 0.0000 0.0000 13.1288
#
#
#
# Elastic Compliance Matrix: (Units=1/GPa)
#
#
# Indices 1 2 3 4 5 6 
#
# 1 0.009348 -0.000449 -0.002132 0.000000 0.000000 0.000000
# 2 -0.000449 0.012527 -0.005285 0.000000 0.000000 0.000000
# 3 -0.002132 -0.005285 0.011635 0.000000 0.000000 0.000000
# 4 0.000000 0.000000 0.000000 0.057837 0.000000 0.000000
# 5 0.000000 0.000000 0.000000 0.000000 0.241355 0.000000
# 6 0.000000 0.000000 0.000000 0.000000 0.000000 0.076168
#
#
# Mechanical properties :
#
#
# Convention : Reuss Voigt Hill
#
# Bulk Modulus (GPa) = 56.25540 57.15703 56.70622
# Shear Modulus (GPa) = 11.61358 22.61027 17.11192
#
# Velocity S-wave (km/s) = 2.48792 3.47141 3.01997
# Velocity P-wave (km/s) = 6.18350 6.82135 6.51024
#
# Compressibility (1/GPa) = 0.01777607
#
# Stress axis : x y z
#
# Youngs Moduli (GPa) = 106.97672 79.82569 85.94701
#
# Poissons Ratio (x) = 0.03587 0.18327
# Poissons Ratio (y) = 0.04807 0.45426
# Poissons Ratio (z) = 0.22811 0.42191
#
# Static dielectric constant tensor:
#      x y z
#    x 1.736480 0.000000 0.000000 
#    y 0.000000 1.493870 0.000000 
#    z 0.000000 0.000000 1.675150 
# 
# From -- ./inp_files/36348.got.cif
#   From: 2010.05.17/outbox.cif.g08.bks.cpg/sg71_19_cif.got.tgz:36348.got - 2010.06.03 16:22:01.
