data_PCOD9522902
_publ_section_title
;
Structure prediction by ZEFSAII (Michael W. Deem and Ramdas Pophale) SiO2 
 PCOD9522902
Probable space group: I M M M
;
_chemical_formula_sum "Si O2"
_cell_formula_units_Z 112
_cell_length_a 14.968560
_cell_length_b 27.558776
_cell_length_c 14.177980
_cell_angle_alpha 90.000000
_cell_angle_beta 90.000000
_cell_angle_gamma 90.000000
_cell_volume 5848.632143
_symmetry_space_group_name_H-M "I M M M"
_symmetry_group_IT_number 71
_symmetry_cell_setting 'orthorhombic'
loop_
_space_group_symop_operation_xyz
x,y,z
-x,-y,z
x,-y,-z
-x,y,-z
-x,-y,-z
x,y,-z
-x,y,z
x,-y,z
1/2+x,1/2+y,1/2+z
1/2-x,1/2-y,1/2+z
1/2+x,1/2-y,1/2-z
1/2-x,1/2+y,1/2-z
1/2-x,1/2-y,1/2-z
1/2+x,1/2+y,1/2-z
1/2-x,1/2+y,1/2+z
1/2+x,1/2-y,1/2+z
loop_
_atom_site_type_symbol
_atom_site_label
_atom_site_fract_x
_atom_site_fract_y
_atom_site_fract_z
Si Si1 0.221342 0.147685 0.387300
Si Si2 0.400691 0.088695 0.110978
Si Si3 0.097280 0.667432 0.771308
Si Si4 0.394547 0.647209 0.609953
Si Si5 0.709742 0.551814 0.613927
Si Si6 0.652365 0.727442 0.238943
Si Si7 0.101730 0.944250 0.385544
O O1 0.231036 0.149645 0.500000
O O2 0.317659 0.155197 0.337143
O O3 0.157732 0.191362 0.350027
O O4 0.173741 0.096818 0.360138
O O5 0.500000 0.067047 0.125185
O O6 0.393818 0.135538 0.176955
O O7 0.314922 0.056469 0.134680
O O8 0.393505 0.101080 0.000000
O O9 0.095794 0.723754 0.741602
O O10 0.000000 0.655577 0.814992
O O11 0.371368 0.656036 0.500000
O O12 0.500000 0.637990 0.615301
O O13 0.341837 0.599776 0.644548
O O14 0.370652 0.693133 0.673161
O O15 0.700942 0.551648 0.500000
O O16 0.674658 0.500000 0.648253
O O17 0.750000 0.750000 0.250000
O O18 0.098478 0.943342 0.500000
O O19 0.000000 0.933160 0.352318
O O20 0.123591 0.000000 0.359510
#
# Coordination Sequence:
#
# PCOD9522902 Si02
#       7
#    16  16  16  16  16  16  16
#     4  10  21  36  55  81 111 143 179 221 270 322
#     4   9  18  34  56  80 107 141 181 225 273 321
#     4  10  21  37  56  79 109 144 181 223 270 320
#     4  10  21  37  57  80 109 146 182 217 264 324
#     4   9  17  30  51  79 109 142 180 220 263 316
#     4  10  21  36  53  76 105 137 176 223 265 308
#     4   8  15  31  56  82 106 136 176 221 270 322
#
# _framework density 19.149777
#
# number of rings (size 3 to 8) (size 9 to 14) (size 15 to 20)
#    0.000    2.571    0.000    2.571    0.000    4.857 
#    0.000    5.714    0.000    1.286    0.000    2.000 
#    0.000    0.000    0.000    0.000    0.000    0.000 
#
# Total GULP energy -312114.687126 kJ/mol
# GULP energy per Si atom -5573.476556 kJ/mol
# Density = 1.910619 g / cm^3
# Si number density = 19.149777 Si / 1000 Ang^3
#
#
#
# Elastic Constant Matrix: (Units=GPa)
#
#
# Indices 1 2 3 4 5 6 
#
# 1 96.1859 46.0049 32.8337 0.0000 0.0000 0.0000
# 2 46.0049 120.5335 23.1611 0.0000 0.0000 0.0000
# 3 32.8337 23.1611 70.2970 0.0000 0.0000 0.0000
# 4 0.0000 0.0000 0.0000 24.9862 0.0000 0.0000
# 5 0.0000 0.0000 0.0000 0.0000 21.6540 0.0000
# 6 0.0000 0.0000 0.0000 0.0000 0.0000 -17.2684
#
#
#
# Elastic Compliance Matrix: (Units=1/GPa)
#
#
# Indices 1 2 3 4 5 6 
#
# 1 0.014309 -0.004460 -0.005214 0.000000 0.000000 0.000000
# 2 -0.004460 0.010247 -0.001293 0.000000 0.000000 0.000000
# 3 -0.005214 -0.001293 0.017087 0.000000 0.000000 0.000000
# 4 0.000000 0.000000 0.000000 0.040022 0.000000 0.000000
# 5 0.000000 0.000000 0.000000 0.000000 0.046181 0.000000
# 6 0.000000 0.000000 0.000000 0.000000 0.000000 -0.057909
#
#
# Mechanical properties :
#
#
# Convention : Reuss Voigt Hill
#
# Bulk Modulus (GPa) = 50.73744 54.55730 52.64737
# Shear Modulus (GPa) = 50.79182 18.20879 34.50030
#
# Velocity S-wave (km/s) = 5.15568 3.08695 4.24913
# Velocity P-wave (km/s) = 7.87362 6.42319 7.18510
#
# Compressibility (1/GPa) = 0.01970931
#
# Stress axis : x y z
#
# Youngs Moduli (GPa) = 69.88388 97.58865 58.52467
#
# Poissons Ratio (x) = 0.43521 0.30516
# Poissons Ratio (y) = 0.31166 0.07568
# Poissons Ratio (z) = 0.36439 0.12620
#
# Static dielectric constant tensor:
#      x y z
#    x 1.695680 0.000000 0.000000 
#    y 0.000000 1.659120 0.000000 
#    z 0.000000 0.000000 1.670780 
# 
# From -- ./inp_files/35126.got.cif
#   From: 2010.05.17/outbox.cif.g08.bks.cpg/sg71_18_cif.got.tgz:35126.got - 2010.06.03 16:22:01.
