data_PCOD9522919
_publ_section_title
;
Structure prediction by ZEFSAII (Michael W. Deem and Ramdas Pophale) SiO2 
 PCOD9522919
Probable space group: I M M M
;
_chemical_formula_sum "Si O2"
_cell_formula_units_Z 96
_cell_length_a 15.458272
_cell_length_b 26.748535
_cell_length_c 13.510892
_cell_angle_alpha 90.000000
_cell_angle_beta 90.000000
_cell_angle_gamma 90.000000
_cell_volume 5586.566441
_symmetry_space_group_name_H-M "I M M M"
_symmetry_group_IT_number 71
_symmetry_cell_setting 'orthorhombic'
loop_
_space_group_symop_operation_xyz
x,y,z
-x,-y,z
x,-y,-z
-x,y,-z
-x,-y,-z
x,y,-z
-x,y,z
x,-y,z
1/2+x,1/2+y,1/2+z
1/2-x,1/2-y,1/2+z
1/2+x,1/2-y,1/2-z
1/2-x,1/2+y,1/2-z
1/2-x,1/2-y,1/2-z
1/2+x,1/2+y,1/2-z
1/2-x,1/2+y,1/2+z
1/2+x,1/2-y,1/2+z
loop_
_atom_site_type_symbol
_atom_site_label
_atom_site_fract_x
_atom_site_fract_y
_atom_site_fract_z
Si Si1 0.602208 0.364242 0.882612
Si Si2 0.660724 0.720006 0.267130
Si Si3 0.774895 0.942864 0.723786
Si Si4 0.599453 0.083244 0.617390
Si Si5 0.252166 0.639365 0.616241
Si Si6 0.593846 0.824294 0.750521
O O1 0.500000 0.371487 0.861114
O O2 0.635385 0.314872 0.825440
O O3 0.660418 0.410336 0.844484
O O4 0.612526 0.358486 0.000000
O O5 0.750000 0.750000 0.250000
O O6 0.675412 0.680797 0.355563
O O7 0.597332 0.766402 0.278737
O O8 0.678683 0.942042 0.675284
O O9 0.771641 0.912206 0.826581
O O10 0.802734 0.000000 0.734490
O O11 0.611591 0.078438 0.500000
O O12 0.500000 0.066652 0.639939
O O13 0.606012 0.140642 0.654682
O O14 0.242481 0.633711 0.500000
O O15 0.166260 0.660721 0.670058
O O16 0.500000 0.836198 0.793191
#
# Coordination Sequence:
#
# PCOD9522919 Si02
#       6
#    16  16  16  16  16  16
#     4  10  21  36  54  78 108 138 169 212 266 317
#     4   9  18  31  48  73 103 134 167 202 241 292
#     4  10  21  36  54  75  99 131 174 223 269 314
#     4   9  18  32  50  75 107 138 168 208 260 317
#     4   9  19  34  50  71  99 131 168 210 254 298
#     4   9  17  30  49  74 103 133 165 200 242 298
#
# _framework density 17.184079000000001
#
# number of rings (size 3 to 8) (size 9 to 14) (size 15 to 20)
#    0.000    2.667    0.000    2.000    0.000    6.000 
#    0.000    1.667    0.000   12.000    0.000    9.333 
#    0.000    0.000    0.000    0.000    0.000    0.000 
#
# Total GULP energy -267252.625374 kJ/mol
# GULP energy per Si atom -5567.763029 kJ/mol
# Density = 1.714497 g / cm^3
# Si number density = 17.184079 Si / 1000 Ang^3
#
#
#
# Elastic Constant Matrix: (Units=GPa)
#
#
# Indices 1 2 3 4 5 6 
#
# 1 65.1390 19.6621 13.9701 0.0001 0.0000 0.0000
# 2 19.6621 110.5687 4.3270 0.0001 0.0000 0.0000
# 3 13.9701 4.3270 54.5756 0.0003 0.0000 0.0000
# 4 0.0001 0.0001 0.0003 2.9770 0.0000 0.0000
# 5 0.0000 0.0000 0.0000 0.0000 19.6769 0.0000
# 6 0.0000 0.0000 0.0000 0.0000 0.0000 6.5734
#
#
#
# Elastic Compliance Matrix: (Units=1/GPa)
#
#
# Indices 1 2 3 4 5 6 
#
# 1 0.017112 -0.002880 -0.004152 0.000000 0.000000 0.000000
# 2 -0.002880 0.009557 -0.000020 0.000000 0.000000 0.000000
# 3 -0.004152 -0.000020 0.019388 -0.000002 0.000000 0.000000
# 4 0.000000 0.000000 -0.000002 0.335914 0.000000 0.000001
# 5 0.000000 0.000000 0.000000 0.000000 0.050821 0.000000
# 6 0.000000 0.000000 0.000000 0.000001 0.000000 0.152127
#
#
# Mechanical properties :
#
#
# Convention : Reuss Voigt Hill
#
# Bulk Modulus (GPa) = 31.29786 34.02243 32.66014
# Shear Modulus (GPa) = 8.20110 18.66706 13.43408
#
# Velocity S-wave (km/s) = 2.18698 3.29948 2.79906
# Velocity P-wave (km/s) = 4.96286 5.86150 5.43080
#
# Compressibility (1/GPa) = 0.03195107
#
# Stress axis : x y z
#
# Youngs Moduli (GPa) = 58.43967 104.63349 51.57939
#
# Poissons Ratio (x) = 0.30139 0.21415
# Poissons Ratio (y) = 0.16833 0.00105
# Poissons Ratio (z) = 0.24263 0.00214
#
# Static dielectric constant tensor:
#      x y z
#    x 1.586770 0.000000 0.000000 
#    y 0.000000 1.592540 0.000000 
#    z 0.000000 0.000000 1.538840 
# 
# From -- ./inp_files/24459.got.cif
#   From: 2010.05.17/outbox.cif.g08.bks.cpg/sg71_13_cif.got.tgz:24459.got - 2010.06.03 16:22:01.
