data_PCOD9522145
_publ_section_title
;
Structure prediction by ZEFSAII (Michael W. Deem and Ramdas Pophale) SiO2 
 PCOD9522145
Probable space group: I M M M
;
_chemical_formula_sum "Si O2"
_cell_formula_units_Z 74
_cell_length_a 24.567665
_cell_length_b 10.168788
_cell_length_c 16.113707
_cell_angle_alpha 90.000000
_cell_angle_beta 90.000000
_cell_angle_gamma 90.000000
_cell_volume 4025.580699
_symmetry_space_group_name_H-M "I M M M"
_symmetry_group_IT_number 71
_symmetry_cell_setting 'orthorhombic'
loop_
_space_group_symop_operation_xyz
x,y,z
-x,-y,z
x,-y,-z
-x,y,-z
-x,-y,-z
x,y,-z
-x,y,z
x,-y,z
1/2+x,1/2+y,1/2+z
1/2-x,1/2-y,1/2+z
1/2+x,1/2-y,1/2-z
1/2-x,1/2+y,1/2-z
1/2-x,1/2-y,1/2-z
1/2+x,1/2+y,1/2-z
1/2-x,1/2+y,1/2+z
1/2+x,1/2-y,1/2+z
loop_
_atom_site_type_symbol
_atom_site_label
_atom_site_fract_x
_atom_site_fract_y
_atom_site_fract_z
Si Si1 0.060291 0.158366 0.182602
Si Si2 0.582408 0.348027 0.500000
Si Si3 0.885005 0.500000 0.407620
Si Si4 0.500000 0.000000 0.000000
Si Si5 0.257998 0.855531 0.642481
Si Si6 0.787010 0.152784 0.000000
Si Si7 0.341178 0.777541 0.785279
O O1 0.063572 0.208705 0.087564
O O2 0.108055 0.219905 0.235612
O O3 0.000000 0.186068 0.215952
O O4 0.067544 0.000000 0.180354
O O5 0.563651 0.500000 0.500000
O O6 0.647531 0.347091 0.500000
O O7 0.859634 0.500000 0.500000
O O8 0.950047 0.500000 0.428338
O O9 0.864215 0.375479 0.354986
O O10 0.268715 0.735273 0.580104
O O11 0.300280 0.845142 0.719002
O O12 0.196872 0.834620 0.675252
O O13 0.264378 0.000000 0.604182
O O14 0.769884 0.000000 0.000000
#
# Coordination Sequence:
#
# PCOD9522145 Si02
#       7
#    16   8   8   2  16   8  16
#     4  10  20  35  59  89 123 164 207 257 315 380
#     4   9  17  33  53  87 120 158 198 244 293 366
#     4  10  24  44  64  93 116 164 214 275 321 393
#     4   8  24  44  72  88 118 158 232 280 324 384
#     4  11  24  40  60  94 132 169 211 267 323 383
#     4  11  23  37  64  90 127 172 212 248 307 384
#     4  11  23  38  64  89 126 161 215 265 327 381
#
# _framework density 18.382442000000001
#
# number of rings (size 3 to 8) (size 9 to 14) (size 15 to 20)
#    0.324    1.297    3.243    1.297    4.541    2.162 
#    0.000    0.000    0.000    0.000    0.000    6.054 
#    0.000    0.000    0.000    0.000    0.000    0.000 
#
# Total GULP energy -206059.752919 kJ/mol
# GULP energy per Si atom -5569.182511 kJ/mol
# Density = 1.834060 g / cm^3
# Si number density = 18.382442 Si / 1000 Ang^3
#
#
#
# Elastic Constant Matrix: (Units=GPa)
#
#
# Indices 1 2 3 4 5 6 
#
# 1 155.6480 43.8166 61.5552 0.0000 0.0000 0.0000
# 2 43.8166 98.1872 47.2903 0.0000 0.0000 0.0000
# 3 61.5552 47.2903 117.7833 0.0000 0.0000 0.0000
# 4 0.0000 0.0000 0.0000 33.8136 0.0000 0.0000
# 5 0.0000 0.0000 0.0000 0.0000 30.3406 0.0000
# 6 0.0000 0.0000 0.0000 0.0000 0.0000 8.5679
#
#
#
# Elastic Compliance Matrix: (Units=1/GPa)
#
#
# Indices 1 2 3 4 5 6 
#
# 1 0.008412 -0.002029 -0.003582 0.000000 0.000000 0.000000
# 2 -0.002029 0.013116 -0.004206 0.000000 0.000000 0.000000
# 3 -0.003582 -0.004206 0.012051 0.000000 0.000000 0.000000
# 4 0.000000 0.000000 0.000000 0.029574 0.000000 0.000000
# 5 0.000000 0.000000 0.000000 0.000000 0.032959 0.000000
# 6 0.000000 0.000000 0.000000 0.000000 0.000000 0.116714
#
#
# Mechanical properties :
#
#
# Convention : Reuss Voigt Hill
#
# Bulk Modulus (GPa) = 71.70550 75.21587 73.46069
# Shear Modulus (GPa) = 21.08748 29.14153 25.11450
#
# Velocity S-wave (km/s) = 3.39064 3.98589 3.70025
# Velocity P-wave (km/s) = 7.37705 7.88601 7.63577
#
# Compressibility (1/GPa) = 0.01394593
#
# Stress axis : x y z
#
# Youngs Moduli (GPa) = 118.87125 76.24500 82.98325
#
# Poissons Ratio (x) = 0.15470 0.29723
# Poissons Ratio (y) = 0.24119 0.34899
# Poissons Ratio (z) = 0.42578 0.32065
#
# Static dielectric constant tensor:
#      x y z
#    x 1.625730 0.000000 0.000000 
#    y 0.000000 1.632750 0.000000 
#    z 0.000000 0.000000 1.649950 
# 
# From -- ./inp_files/40002.got.cif
#   From: 2010.05.17/outbox.cif.g08.bks.cpg/sg71_21_cif.got.tgz:40002.got - 2010.06.03 16:22:01.
