data_PCOD9522566
_publ_section_title
;
Structure prediction by ZEFSAII (Michael W. Deem and Ramdas Pophale) SiO2 
 PCOD9522566
Probable space group: I M M M
;
_chemical_formula_sum "Si O2"
_cell_formula_units_Z 72
_cell_length_a 13.282738
_cell_length_b 18.731208
_cell_length_c 14.551233
_cell_angle_alpha 90.000000
_cell_angle_beta 90.000000
_cell_angle_gamma 90.000000
_cell_volume 3620.371919
_symmetry_space_group_name_H-M "I M M M"
_symmetry_group_IT_number 71
_symmetry_cell_setting 'orthorhombic'
loop_
_space_group_symop_operation_xyz
x,y,z
-x,-y,z
x,-y,-z
-x,y,-z
-x,-y,-z
x,y,-z
-x,y,z
x,-y,z
1/2+x,1/2+y,1/2+z
1/2-x,1/2-y,1/2+z
1/2+x,1/2-y,1/2-z
1/2-x,1/2+y,1/2-z
1/2-x,1/2-y,1/2-z
1/2+x,1/2+y,1/2-z
1/2-x,1/2+y,1/2+z
1/2+x,1/2-y,1/2+z
loop_
_atom_site_type_symbol
_atom_site_label
_atom_site_fract_x
_atom_site_fract_y
_atom_site_fract_z
Si Si1 0.880436 0.921942 0.605679
Si Si2 0.817562 0.728324 0.000000
Si Si3 0.382550 0.612859 0.500000
Si Si4 0.202307 0.417279 0.639662
Si Si5 0.889844 0.688559 0.500000
Si Si6 0.735099 0.177653 0.308247
O O1 0.845008 0.918134 0.500000
O O2 0.841292 0.853926 0.658769
O O3 0.000000 0.922282 0.605075
O O4 0.847472 0.000000 0.643111
O O5 0.828502 0.689744 0.901654
O O6 0.880828 0.801164 0.000000
O O7 0.701099 0.755730 0.000000
O O8 0.500000 0.588627 0.500000
O O9 0.312398 0.590642 0.411999
O O10 0.175030 0.500000 0.634438
O O11 0.128878 0.364793 0.584346
O O12 0.199332 0.384725 0.740863
O O13 0.000000 0.721321 0.500000
O O14 0.750000 0.250000 0.250000
#
# Coordination Sequence:
#
# PCOD9522566 Si02
#       6
#    16   8   8  16   8  16
#     4   9  19  35  57  87 118 149 189 236 289 349
#     4  10  22  40  54  87 119 148 194 241 280 349
#     4  10  20  38  61  83 118 158 189 234 288 341
#     4  10  22  38  57  88 118 146 194 243 284 351
#     4  10  20  38  63  85 113 148 183 243 304 338
#     4  12  20  38  57  79 117 157 188 235 286 341
#
# _framework density 19.887459
#
# number of rings (size 3 to 8) (size 9 to 14) (size 15 to 20)
#    0.000    2.000    5.556    2.667    0.000    3.556 
#    0.000    1.111    0.000    0.000    0.000    0.000 
#    0.000    3.556    0.000    0.000    0.000    0.000 
#
# Total GULP energy -200586.221405 kJ/mol
# GULP energy per Si atom -5571.839483 kJ/mol
# Density = 1.984219 g / cm^3
# Si number density = 19.887459 Si / 1000 Ang^3
#
#
#
# Elastic Constant Matrix: (Units=GPa)
#
#
# Indices 1 2 3 4 5 6 
#
# 1 45.2526 2.8571 -5.2997 0.0000 0.0000 0.0000
# 2 2.8571 86.5954 34.3643 0.0001 0.0000 0.0000
# 3 -5.2997 34.3643 108.7862 0.0003 0.0000 0.0000
# 4 0.0000 0.0001 0.0003 48.5460 0.0000 0.0000
# 5 0.0000 0.0000 0.0000 0.0000 10.8919 0.0000
# 6 0.0000 0.0000 0.0000 0.0000 0.0000 19.5586
#
#
#
# Elastic Compliance Matrix: (Units=1/GPa)
#
#
# Indices 1 2 3 4 5 6 
#
# 1 0.022360 -0.001338 0.001512 0.000000 0.000000 0.000000
# 2 -0.001338 0.013283 -0.004261 0.000000 0.000000 0.000000
# 3 0.001512 -0.004261 0.010612 0.000000 0.000000 0.000000
# 4 0.000000 0.000000 0.000000 0.020599 0.000000 0.000000
# 5 0.000000 0.000000 0.000000 0.000000 0.091811 0.000000
# 6 0.000000 0.000000 0.000000 0.000000 0.000000 0.051129
#
#
# Mechanical properties :
#
#
# Convention : Reuss Voigt Hill
#
# Bulk Modulus (GPa) = 26.25992 33.83084 30.04538
# Shear Modulus (GPa) = 21.67681 29.71347 25.69514
#
# Velocity S-wave (km/s) = 3.30506 3.86953 3.59838
# Velocity P-wave (km/s) = 5.27233 6.08378 5.69253
#
# Compressibility (1/GPa) = 0.03808085
#
# Stress axis : x y z
#
# Youngs Moduli (GPa) = 44.72337 75.28381 94.23257
#
# Poissons Ratio (x) = 0.10071 -0.14247
# Poissons Ratio (y) = 0.05983 0.40154
# Poissons Ratio (z) = -0.06762 0.32079
#
# Static dielectric constant tensor:
#      x y z
#    x 1.688520 0.000000 0.000000 
#    y 0.000000 1.751540 0.000000 
#    z 0.000000 0.000000 2.016640 
# 
# From -- ./inp_files/34116.got.cif
#   From: 2010.05.17/outbox.cif.g08.bks.cpg/sg71_18_cif.got.tgz:34116.got - 2010.06.03 16:22:01.
