data_PCOD9522284
_publ_section_title
;
Structure prediction by ZEFSAII (Michael W. Deem and Ramdas Pophale) SiO2 
 PCOD9522284
Probable space group: I M M M
;
_chemical_formula_sum "Si O2"
_cell_formula_units_Z 66
_cell_length_a 14.270517
_cell_length_b 11.430091
_cell_length_c 22.243105
_cell_angle_alpha 90.000000
_cell_angle_beta 90.000000
_cell_angle_gamma 90.000000
_cell_volume 3628.146435
_symmetry_space_group_name_H-M "I M M M"
_symmetry_group_IT_number 71
_symmetry_cell_setting 'orthorhombic'
loop_
_space_group_symop_operation_xyz
x,y,z
-x,-y,z
x,-y,-z
-x,y,-z
-x,-y,-z
x,y,-z
-x,y,z
x,-y,z
1/2+x,1/2+y,1/2+z
1/2-x,1/2-y,1/2+z
1/2+x,1/2-y,1/2-z
1/2-x,1/2+y,1/2-z
1/2-x,1/2-y,1/2-z
1/2+x,1/2+y,1/2-z
1/2-x,1/2+y,1/2+z
1/2+x,1/2-y,1/2+z
loop_
_atom_site_type_symbol
_atom_site_label
_atom_site_fract_x
_atom_site_fract_y
_atom_site_fract_z
Si Si1 0.889465 0.136516 0.733030
Si Si2 0.710810 0.363202 0.108228
Si Si3 0.500000 0.000000 0.000000
Si Si4 0.613648 0.500000 0.431621
Si Si5 0.111180 0.762503 0.137669
Si Si6 0.604204 0.757139 0.000000
O O1 0.832125 0.166086 0.673627
O O2 0.872026 0.214806 0.791514
O O3 0.000000 0.144986 0.719005
O O4 0.870826 0.000000 0.748731
O O5 0.693222 0.500000 0.096242
O O6 0.821059 0.336393 0.112403
O O7 0.660858 0.285323 0.058067
O O8 0.580485 0.894818 0.000000
O O9 0.500000 0.500000 0.433354
O O10 0.648395 0.500000 0.500000
O O11 0.638764 0.617439 0.396278
O O12 0.000000 0.742228 0.129004
O O13 0.500000 0.699796 0.000000
#
# Coordination Sequence:
#
# PCOD9522284 Si02
#       6
#    16  16   2   8  16   8
#     4   9  17  34  58  83 112 155 207 255 300 351
#     4  11  23  36  59  89 120 162 202 237 299 368
#     4   8  24  48  70  88 122 144 188 246 326 344
#     4   9  18  33  55  82 108 149 201 247 303 341
#     4  10  20  36  58  84 122 159 203 254 296 348
#     4  10  23  46  65  87 118 147 192 251 298 363
#
# _framework density 18.191108
#
# number of rings (size 3 to 8) (size 9 to 14) (size 15 to 20)
#    0.364    1.818    1.212    1.818    1.697    3.394 
#    0.000    0.000    2.667    1.455    0.000    0.000 
#    0.000    0.000    0.000    0.000    0.000    0.000 
#
# Total GULP energy -183756.787262 kJ/mol
# GULP energy per Si atom -5568.387493 kJ/mol
# Density = 1.814970 g / cm^3
# Si number density = 18.191108 Si / 1000 Ang^3
#
#
#
# Elastic Constant Matrix: (Units=GPa)
#
#
# Indices 1 2 3 4 5 6 
#
# 1 86.0929 39.4146 51.1873 0.0000 0.0000 0.0000
# 2 39.4146 72.6503 46.0219 0.0000 0.0000 0.0000
# 3 51.1873 46.0219 89.6435 0.0000 0.0000 0.0000
# 4 0.0000 0.0000 0.0000 2.8790 0.0000 0.0000
# 5 0.0000 0.0000 0.0000 0.0000 23.5214 0.0000
# 6 0.0000 0.0000 0.0000 0.0000 0.0000 27.7659
#
#
#
# Elastic Compliance Matrix: (Units=1/GPa)
#
#
# Indices 1 2 3 4 5 6 
#
# 1 0.018746 -0.005023 -0.008125 0.000000 0.000000 0.000000
# 2 -0.005023 0.021744 -0.008295 0.000000 0.000000 0.000000
# 3 -0.008125 -0.008295 0.020054 0.000000 0.000000 0.000000
# 4 0.000000 0.000000 0.000000 0.347339 0.000000 0.000000
# 5 0.000000 0.000000 0.000000 0.000000 0.042514 0.000000
# 6 0.000000 0.000000 0.000000 0.000000 0.000000 0.036015
#
#
# Mechanical properties :
#
#
# Convention : Reuss Voigt Hill
#
# Bulk Modulus (GPa) = 56.63491 57.95937 57.29714
# Shear Modulus (GPa) = 9.34255 18.28413 13.81334
#
# Velocity S-wave (km/s) = 2.26868 3.17379 2.75861
# Velocity P-wave (km/s) = 6.16956 6.73507 6.45851
#
# Compressibility (1/GPa) = 0.01765695
#
# Stress axis : x y z
#
# Youngs Moduli (GPa) = 53.34479 45.98882 49.86633
#
# Poissons Ratio (x) = 0.23100 0.40518
# Poissons Ratio (y) = 0.26795 0.41365
# Poissons Ratio (z) = 0.43345 0.38149
#
# Static dielectric constant tensor:
#      x y z
#    x 1.633190 0.000000 0.000000 
#    y 0.000000 1.603170 0.000000 
#    z 0.000000 0.000000 1.618230 
# 
# From -- ./inp_files/52751.got.cif
#   From: 2010.05.17/outbox.cif.g08.bks.cpg/sg71_27_cif.got.tgz:52751.got - 2010.06.03 16:22:01.
