data_PCOD9522540
_publ_section_title
;
Structure prediction by ZEFSAII (Michael W. Deem and Ramdas Pophale) SiO2 
 PCOD9522540
Probable space group: I M M M
;
_chemical_formula_sum "Si O2"
_cell_formula_units_Z 82
_cell_length_a 20.908302
_cell_length_b 7.884453
_cell_length_c 24.663894
_cell_angle_alpha 90.000000
_cell_angle_beta 90.000000
_cell_angle_gamma 90.000000
_cell_volume 4065.855860
_symmetry_space_group_name_H-M "I M M M"
_symmetry_group_IT_number 71
_symmetry_cell_setting 'orthorhombic'
loop_
_space_group_symop_operation_xyz
x,y,z
-x,-y,z
x,-y,-z
-x,y,-z
-x,-y,-z
x,y,-z
-x,y,z
x,-y,z
1/2+x,1/2+y,1/2+z
1/2-x,1/2-y,1/2+z
1/2+x,1/2-y,1/2-z
1/2-x,1/2+y,1/2-z
1/2-x,1/2-y,1/2-z
1/2+x,1/2+y,1/2-z
1/2-x,1/2+y,1/2+z
1/2+x,1/2-y,1/2+z
loop_
_atom_site_type_symbol
_atom_site_label
_atom_site_fract_x
_atom_site_fract_y
_atom_site_fract_z
Si Si1 0.740996 0.797328 0.939657
Si Si2 0.000000 0.500000 0.500000
Si Si3 0.634018 0.700374 0.146971
Si Si4 0.632618 0.704831 0.620078
Si Si5 0.323742 0.704745 0.738625
Si Si6 0.500000 0.201945 0.562314
Si Si7 0.000000 0.199134 0.410955
O O1 0.686181 0.766815 0.895518
O O2 0.809086 0.732290 0.917806
O O3 0.746806 0.000000 0.943960
O O4 0.725347 0.731033 0.000000
O O5 0.000000 0.651616 0.454171
O O6 0.646878 0.500000 0.150434
O O7 0.640625 0.769688 0.207687
O O8 0.563644 0.722289 0.124071
O O9 0.636200 0.500000 0.621407
O O10 0.648154 0.766840 0.681246
O O11 0.564006 0.747908 0.594904
O O12 0.328286 0.500000 0.736214
O O13 0.250000 0.750000 0.750000
O O14 0.500000 0.270239 0.500000
O O15 0.500000 0.000000 0.558585
O O16 0.000000 0.000000 0.430605
#
# Coordination Sequence:
#
# PCOD9522540 Si02
#       7
#    16   2  16  16  16   8   8
#     4  10  21  35  57  87 120 154 203 255 302 365
#     4  12  26  44  72  90 124 176 222 258 330 378
#     4  10  22  39  60  87 124 162 201 255 318 373
#     4  10  21  39  63  91 119 161 207 253 310 372
#     4  10  20  37  63  92 122 161 203 255 314 372
#     4  11  25  42  61  88 126 164 203 255 311 374
#     4  10  25  44  62  93 130 169 215 264 324 391
#
# _framework density 20.167956
#
# number of rings (size 3 to 8) (size 9 to 14) (size 15 to 20)
#    0.000    1.854    1.951    1.024    2.732    4.293 
#    0.000    2.927    2.146    0.000    0.000    0.000 
#    0.000    0.000    0.000    0.000    0.000    0.000 
#
# Total GULP energy -228538.539422 kJ/mol
# GULP energy per Si atom -5574.110718 kJ/mol
# Density = 2.012205 g / cm^3
# Si number density = 20.167956 Si / 1000 Ang^3
#
#
#
# Elastic Constant Matrix: (Units=GPa)
#
#
# Indices 1 2 3 4 5 6 
#
# 1 143.3281 16.4895 80.7245 0.0000 0.0000 0.0000
# 2 16.4895 43.0302 33.8442 0.0000 0.0000 0.0000
# 3 80.7245 33.8442 193.5010 0.0000 0.0000 0.0000
# 4 0.0000 0.0000 0.0000 12.9979 0.0000 0.0000
# 5 0.0000 0.0000 0.0000 0.0000 15.4629 0.0000
# 6 0.0000 0.0000 0.0000 0.0000 0.0000 38.5397
#
#
#
# Elastic Compliance Matrix: (Units=1/GPa)
#
#
# Indices 1 2 3 4 5 6 
#
# 1 0.009132 -0.000583 -0.003708 0.000000 0.000000 0.000000
# 2 -0.000583 0.026984 -0.004476 0.000000 0.000000 0.000000
# 3 -0.003708 -0.004476 0.007498 0.000000 0.000000 0.000000
# 4 0.000000 0.000000 0.000000 0.076936 0.000000 0.000000
# 5 0.000000 0.000000 0.000000 0.000000 0.064671 0.000000
# 6 0.000000 0.000000 0.000000 0.000000 0.000000 0.025947
#
#
# Mechanical properties :
#
#
# Convention : Reuss Voigt Hill
#
# Bulk Modulus (GPa) = 38.34499 71.33063 54.83781
# Shear Modulus (GPa) = 21.06189 29.98682 25.52436
#
# Velocity S-wave (km/s) = 3.23511 3.86016 3.56137
# Velocity P-wave (km/s) = 5.74532 7.43726 6.64536
#
# Compressibility (1/GPa) = 0.02607903
#
# Stress axis : x y z
#
# Youngs Moduli (GPa) = 109.50016 37.05943 133.37488
#
# Poissons Ratio (x) = 0.02162 0.49453
# Poissons Ratio (y) = 0.06387 0.59701
# Poissons Ratio (z) = 0.40601 0.16589
#
# Static dielectric constant tensor:
#      x y z
#    x 1.675310 0.000000 0.000000 
#    y 0.000000 1.736810 0.000000 
#    z 0.000000 0.000000 1.756990 
# 
# From -- ./inp_files/61073.got.cif
#   From: 2010.05.17/outbox.cif.g08.bks.cpg/sg71_31_cif.got.tgz:61073.got - 2010.06.03 16:22:01.
