data_PCOD9522876
_publ_section_title
;
Structure prediction by ZEFSAII (Michael W. Deem and Ramdas Pophale) SiO2 
 PCOD9522876
Probable space group: I M M M
;
_chemical_formula_sum "Si O2"
_cell_formula_units_Z 88
_cell_length_a 30.940778
_cell_length_b 8.384328
_cell_length_c 20.911904
_cell_angle_alpha 90.000000
_cell_angle_beta 90.000000
_cell_angle_gamma 90.000000
_cell_volume 5424.916602
_symmetry_space_group_name_H-M "I M M M"
_symmetry_group_IT_number 71
_symmetry_cell_setting 'orthorhombic'
loop_
_space_group_symop_operation_xyz
x,y,z
-x,-y,z
x,-y,-z
-x,y,-z
-x,-y,-z
x,y,-z
-x,y,z
x,-y,z
1/2+x,1/2+y,1/2+z
1/2-x,1/2-y,1/2+z
1/2+x,1/2-y,1/2-z
1/2-x,1/2+y,1/2-z
1/2-x,1/2-y,1/2-z
1/2+x,1/2+y,1/2-z
1/2-x,1/2+y,1/2+z
1/2+x,1/2-y,1/2+z
loop_
_atom_site_type_symbol
_atom_site_label
_atom_site_fract_x
_atom_site_fract_y
_atom_site_fract_z
Si Si1 0.775583 0.693123 0.569609
Si Si2 0.950256 0.309646 0.859905
Si Si3 0.368046 0.691081 0.699455
Si Si4 0.947541 0.818218 0.000000
Si Si5 0.207305 0.691185 0.711413
Si Si6 0.326639 0.693003 0.431458
O O1 0.792188 0.750961 0.500000
O O2 0.780254 0.500000 0.569156
O O3 0.793105 0.750787 0.637778
O O4 0.724333 0.726579 0.571134
O O5 0.949433 0.500000 0.857046
O O6 0.917876 0.240549 0.806937
O O7 0.936107 0.258194 0.931778
O O8 0.000000 0.255367 0.851412
O O9 0.365084 0.500000 0.701304
O O10 0.336708 0.758030 0.753685
O O11 0.348239 0.753814 0.632439
O O12 0.000000 0.817665 0.000000
O O13 0.931733 0.000000 0.000000
O O14 0.210358 0.500000 0.710241
O O15 0.250000 0.750000 0.750000
O O16 0.343653 0.751181 0.500000
O O17 0.330906 0.500000 0.430975
#
# Coordination Sequence:
#
# PCOD9522876 Si02
#       6
#    16  16  16   8  16  16
#     4   8  14  27  47  67  88 121 163 200 233 274
#     4  10  21  36  50  67  94 125 161 209 257 293
#     4  11  21  32  49  71  94 126 165 203 247 299
#     4   9  17  31  51  71  91 123 165 205 249 299
#     4  11  20  32  49  70  99 129 161 202 246 291
#     4   8  14  25  41  63  89 119 160 202 234 269
#
# _framework density 16.221446
#
# number of rings (size 3 to 8) (size 9 to 14) (size 15 to 20)
#    0.000    2.455    1.818    3.000    1.273    2.182 
#    0.000    0.000    0.000    3.273    0.000    0.000 
#    0.000    0.727    0.000    8.364    0.000    2.364 
#
# Total GULP energy -245189.937078 kJ/mol
# GULP energy per Si atom -5572.498570 kJ/mol
# Density = 1.618453 g / cm^3
# Si number density = 16.221446 Si / 1000 Ang^3
#
#
#
# Elastic Constant Matrix: (Units=GPa)
#
#
# Indices 1 2 3 4 5 6 
#
# 1 78.8519 12.3345 64.5459 0.0000 0.0000 0.0000
# 2 12.3345 29.0030 19.1035 0.0000 0.0000 0.0000
# 3 64.5459 19.1035 137.3591 0.0000 0.0000 0.0000
# 4 0.0000 0.0000 0.0000 18.2164 0.0000 0.0000
# 5 0.0000 0.0000 0.0000 0.0000 29.2676 0.0000
# 6 0.0000 0.0000 0.0000 0.0000 0.0000 19.0289
#
#
#
# Elastic Compliance Matrix: (Units=1/GPa)
#
#
# Indices 1 2 3 4 5 6 
#
# 1 0.020793 -0.002650 -0.009402 0.000000 0.000000 0.000000
# 2 -0.002650 0.038294 -0.004081 0.000000 0.000000 0.000000
# 3 -0.009402 -0.004081 0.012266 0.000000 0.000000 0.000000
# 4 0.000000 0.000000 0.000000 0.054896 0.000000 0.000000
# 5 0.000000 0.000000 0.000000 0.000000 0.034167 0.000000
# 6 0.000000 0.000000 0.000000 0.000000 0.000000 0.052552
#
#
# Mechanical properties :
#
#
# Convention : Reuss Voigt Hill
#
# Bulk Modulus (GPa) = 25.58373 48.57574 37.07974
# Shear Modulus (GPa) = 19.36020 23.25125 21.30572
#
# Velocity S-wave (km/s) = 3.45845 3.79009 3.62806
# Velocity P-wave (km/s) = 5.63503 7.01166 6.36070
#
# Compressibility (1/GPa) = 0.03908734
#
# Stress axis : x y z
#
# Youngs Moduli (GPa) = 48.09345 26.11378 81.52721
#
# Poissons Ratio (x) = 0.06920 0.76653
# Poissons Ratio (y) = 0.12744 0.33268
# Poissons Ratio (z) = 0.45218 0.10656
#
# Static dielectric constant tensor:
#      x y z
#    x 1.569540 0.000000 0.000000 
#    y 0.000000 1.570130 0.000000 
#    z 0.000000 0.000000 1.575450 
# 
# From -- ./inp_files/50790.got.cif
#   From: 2010.05.17/outbox.cif.g08.bks.cpg/sg71_26_cif.got.tgz:50790.got - 2010.06.03 16:22:01.
