data_PCOD9522391
_publ_section_title
;
Structure prediction by ZEFSAII (Michael W. Deem and Ramdas Pophale) SiO2 
 PCOD9522391
Probable space group: I M M M
;
_chemical_formula_sum "Si O2"
_cell_formula_units_Z 88
_cell_length_a 16.580390
_cell_length_b 14.107823
_cell_length_c 18.770375
_cell_angle_alpha 90.000000
_cell_angle_beta 90.000000
_cell_angle_gamma 90.000000
_cell_volume 4390.638620
_symmetry_space_group_name_H-M "I M M M"
_symmetry_group_IT_number 71
_symmetry_cell_setting 'orthorhombic'
loop_
_space_group_symop_operation_xyz
x,y,z
-x,-y,z
x,-y,-z
-x,y,-z
-x,-y,-z
x,y,-z
-x,y,z
x,-y,z
1/2+x,1/2+y,1/2+z
1/2-x,1/2-y,1/2+z
1/2+x,1/2-y,1/2-z
1/2-x,1/2+y,1/2-z
1/2-x,1/2-y,1/2-z
1/2+x,1/2+y,1/2-z
1/2-x,1/2+y,1/2+z
1/2+x,1/2-y,1/2+z
loop_
_atom_site_type_symbol
_atom_site_label
_atom_site_fract_x
_atom_site_fract_y
_atom_site_fract_z
Si Si1 0.656979 0.110693 0.651351
Si Si2 0.595225 0.890386 0.186706
Si Si3 0.594929 0.718131 0.422548
Si Si4 0.902817 0.107725 0.216303
Si Si5 0.096656 0.111743 0.500000
Si Si6 0.667184 0.702450 0.143266
O O1 0.616380 0.116892 0.729253
O O2 0.605238 0.171457 0.595953
O O3 0.742302 0.164694 0.651728
O O4 0.666653 0.000000 0.633648
O O5 0.500000 0.868060 0.176803
O O6 0.650802 0.814697 0.146381
O O7 0.608414 0.000000 0.165909
O O8 0.631238 0.696569 0.500000
O O9 0.500000 0.696534 0.425916
O O10 0.627162 0.659231 0.355202
O O11 0.878190 0.161988 0.287295
O O12 0.000000 0.106108 0.213900
O O13 0.872694 0.000000 0.219622
O O14 0.131756 0.159504 0.570840
O O15 0.000000 0.120799 0.500000
O O16 0.116808 0.000000 0.500000
#
# Coordination Sequence:
#
# PCOD9522391 Si02
#       6
#    16  16  16  16   8  16
#     4  11  23  38  60  91 125 161 200 251 307 360
#     4  10  21  39  65  93 120 156 203 249 298 363
#     4  10  22  39  59  87 123 161 205 251 297 358
#     4  10  20  36  61  88 117 158 203 245 296 360
#     4  11  24  40  61  89 122 160 203 254 305 355
#     4  12  23  40  61  89 122 158 200 254 306 358
#
# _framework density 20.042643000000002
#
# number of rings (size 3 to 8) (size 9 to 14) (size 15 to 20)
#    0.000    1.364    1.818    4.364    1.273    3.273 
#    0.000    3.182    0.000    1.636    0.000    0.000 
#    0.000    0.000    0.000    0.000    0.000    0.000 
#
# Total GULP energy -245820.951002 kJ/mol
# GULP energy per Si atom -5586.839796 kJ/mol
# Density = 1.999703 g / cm^3
# Si number density = 20.042643 Si / 1000 Ang^3
#
#
#
# Elastic Constant Matrix: (Units=GPa)
#
#
# Indices 1 2 3 4 5 6 
#
# 1 27.6421 12.6841 8.6569 0.0000 0.0000 0.0000
# 2 12.6841 109.4950 48.8099 0.0000 0.0000 0.0000
# 3 8.6569 48.8099 124.3027 0.0000 0.0000 0.0000
# 4 0.0000 0.0000 0.0000 -9.0683 0.0000 0.0000
# 5 0.0000 0.0000 0.0000 0.0000 -13.2654 0.0000
# 6 0.0000 0.0000 0.0000 0.0000 0.0000 29.0961
#
#
#
# Elastic Compliance Matrix: (Units=1/GPa)
#
#
# Indices 1 2 3 4 5 6 
#
# 1 0.038336 -0.003941 -0.001123 0.000000 0.000000 0.000000
# 2 -0.003941 0.011476 -0.004232 0.000000 0.000000 0.000000
# 3 -0.001123 -0.004232 0.009785 0.000000 0.000000 0.000000
# 4 0.000000 0.000000 0.000000 -0.110274 0.000000 0.000000
# 5 0.000000 0.000000 0.000000 0.000000 -0.075384 0.000000
# 6 0.000000 0.000000 0.000000 0.000000 0.000000 0.034369
#
#
# Mechanical properties :
#
#
# Convention : Reuss Voigt Hill
#
# Bulk Modulus (GPa) = 24.38598 44.63796 34.51197
# Shear Modulus (GPa) = -84.12736 14.10508 -35.01114
#
# Velocity S-wave (km/s) = -6.48578 2.65571 -4.18405
# Velocity P-wave (km/s) = 6.62523 5.63237 2.46678
#
# Compressibility (1/GPa) = 0.04100718
#
# Stress axis : x y z
#
# Youngs Moduli (GPa) = 26.08483 87.14059 102.20012
#
# Poissons Ratio (x) = 0.34338 0.11473
# Poissons Ratio (y) = 0.10279 0.43248
# Poissons Ratio (z) = 0.02928 0.36875
#
# Static dielectric constant tensor:
#      x y z
#    x 1.700650 0.000000 0.000000 
#    y 0.000000 1.726840 0.000000 
#    z 0.000000 0.000000 1.695810 
# 
# From -- ./inp_files/45862.got.cif
#   From: 2010.05.17/outbox.cif.g08.bks.cpg/sg71_23_cif.got.tgz:45862.got - 2010.06.03 16:22:01.
