data_PCOD9522139
_publ_section_title
;
Structure prediction by ZEFSAII (Michael W. Deem and Ramdas Pophale) SiO2 
 PCOD9522139
Probable space group: I M M M
;
_chemical_formula_sum "Si O2"
_cell_formula_units_Z 104
_cell_length_a 20.059902
_cell_length_b 19.232819
_cell_length_c 14.558662
_cell_angle_alpha 90.000000
_cell_angle_beta 90.000000
_cell_angle_gamma 90.000000
_cell_volume 5616.855029
_symmetry_space_group_name_H-M "I M M M"
_symmetry_group_IT_number 71
_symmetry_cell_setting 'orthorhombic'
loop_
_space_group_symop_operation_xyz
x,y,z
-x,-y,z
x,-y,-z
-x,y,-z
-x,-y,-z
x,y,-z
-x,y,z
x,-y,z
1/2+x,1/2+y,1/2+z
1/2-x,1/2-y,1/2+z
1/2+x,1/2-y,1/2-z
1/2-x,1/2+y,1/2-z
1/2-x,1/2-y,1/2-z
1/2+x,1/2+y,1/2-z
1/2-x,1/2+y,1/2+z
1/2+x,1/2-y,1/2+z
loop_
_atom_site_type_symbol
_atom_site_label
_atom_site_fract_x
_atom_site_fract_y
_atom_site_fract_z
Si Si1 0.922871 0.783012 0.608346
Si Si2 0.767753 0.919179 0.173922
Si Si3 0.127291 0.652264 0.705344
Si Si4 0.391298 0.578037 0.209112
Si Si5 0.421025 0.802169 0.603754
Si Si6 0.500000 0.083448 0.892505
Si Si7 0.103694 0.137556 0.100857
O O1 0.912547 0.775469 0.500000
O O2 0.876687 0.730099 0.664105
O O3 0.911373 0.861688 0.640413
O O4 0.000000 0.764784 0.629602
O O5 0.696421 0.884880 0.183554
O O6 0.811961 0.917896 0.267758
O O7 0.816974 0.877403 0.106437
O O8 0.762934 0.000000 0.146002
O O9 0.115682 0.658963 0.814171
O O10 0.065825 0.612153 0.657590
O O11 0.408527 0.500000 0.181159
O O12 0.421526 0.595898 0.310151
O O13 0.400160 0.820989 0.500000
O O14 0.500000 0.815264 0.612538
O O15 0.410681 0.719001 0.613690
O O16 0.500000 0.000000 0.889369
O O17 0.500000 0.105322 0.000000
O O18 0.079215 0.116708 0.000000
#
# Coordination Sequence:
#
# PCOD9522139 Si02
#       7
#    16  16  16  16  16   8  16
#     4  11  23  38  58  86 118 154 196 239 288 345
#     4   9  21  37  56  83 116 152 190 234 290 344
#     4  12  20  38  62  83 117 157 188 239 295 343
#     4   9  20  38  57  80 115 154 190 235 284 336
#     4  10  20  35  59  89 116 147 190 239 289 340
#     4  11  24  38  57  89 118 150 200 247 293 345
#     4   9  18  34  58  86 116 150 188 230 283 345
#
# _framework density 18.515699999999999
#
# number of rings (size 3 to 8) (size 9 to 14) (size 15 to 20)
#    0.923    1.000    3.077    0.923    0.000    5.538 
#    0.000    3.077    0.000    3.692    0.000    9.692 
#    0.000    0.000    0.000    0.000    0.000    0.000 
#
# Total GULP energy -289879.108419 kJ/mol
# GULP energy per Si atom -5574.598239 kJ/mol
# Density = 1.847356 g / cm^3
# Si number density = 18.515700 Si / 1000 Ang^3
#
#
#
# Elastic Constant Matrix: (Units=GPa)
#
#
# Indices 1 2 3 4 5 6 
#
# 1 86.6979 14.7980 22.2120 0.0000 0.0000 0.0000
# 2 14.7980 49.8403 19.4187 0.0000 0.0000 0.0000
# 3 22.2120 19.4187 70.0216 0.0000 0.0000 0.0000
# 4 0.0000 0.0000 0.0000 13.9658 0.0000 0.0000
# 5 0.0000 0.0000 0.0000 0.0000 10.9047 0.0000
# 6 0.0000 0.0000 0.0000 0.0000 0.0000 43.3932
#
#
#
# Elastic Compliance Matrix: (Units=1/GPa)
#
#
# Indices 1 2 3 4 5 6 
#
# 1 0.012825 -0.002492 -0.003377 0.000000 0.000000 0.000000
# 2 -0.002492 0.022979 -0.005582 0.000000 0.000000 0.000000
# 3 -0.003377 -0.005582 0.016901 0.000000 0.000000 0.000000
# 4 0.000000 0.000000 0.000000 0.071604 0.000000 0.000000
# 5 0.000000 0.000000 0.000000 0.000000 0.091704 0.000000
# 6 0.000000 0.000000 0.000000 0.000000 0.000000 0.023045
#
#
# Mechanical properties :
#
#
# Convention : Reuss Voigt Hill
#
# Bulk Modulus (GPa) = 33.55495 35.49080 34.52288
# Shear Modulus (GPa) = 18.38956 23.66148 21.02552
#
# Velocity S-wave (km/s) = 3.15491 3.57867 3.37345
# Velocity P-wave (km/s) = 5.60652 6.02374 5.81887
#
# Compressibility (1/GPa) = 0.02980186
#
# Stress axis : x y z
#
# Youngs Moduli (GPa) = 77.97342 43.51825 59.16933
#
# Poissons Ratio (x) = 0.10845 0.19983
# Poissons Ratio (y) = 0.19431 0.33029
# Poissons Ratio (z) = 0.26333 0.24292
#
# Static dielectric constant tensor:
#      x y z
#    x 1.679050 0.000000 0.000000 
#    y 0.000000 1.624660 0.000000 
#    z 0.000000 0.000000 1.647560 
# 
# From -- ./inp_files/38066.got.cif
#   From: 2010.05.17/outbox.cif.g08.bks.cpg/sg71_20_cif.got.tgz:38066.got - 2010.06.03 16:22:01.
