data_PCOD9522920
_publ_section_title
;
Structure prediction by ZEFSAII (Michael W. Deem and Ramdas Pophale) SiO2 
 PCOD9522920
Probable space group: I M M M
;
_chemical_formula_sum "Si O2"
_cell_formula_units_Z 64
_cell_length_a 9.697953
_cell_length_b 7.519839
_cell_length_c 42.686390
_cell_angle_alpha 90.000000
_cell_angle_beta 90.000000
_cell_angle_gamma 90.000000
_cell_volume 3112.992293
_symmetry_space_group_name_H-M "I M M M"
_symmetry_group_IT_number 71
_symmetry_cell_setting 'orthorhombic'
loop_
_space_group_symop_operation_xyz
x,y,z
-x,-y,z
x,-y,-z
-x,y,-z
-x,-y,-z
x,y,-z
-x,y,z
x,-y,z
1/2+x,1/2+y,1/2+z
1/2-x,1/2-y,1/2+z
1/2+x,1/2-y,1/2-z
1/2-x,1/2+y,1/2-z
1/2-x,1/2-y,1/2-z
1/2+x,1/2+y,1/2-z
1/2-x,1/2+y,1/2+z
1/2+x,1/2-y,1/2+z
loop_
_atom_site_type_symbol
_atom_site_label
_atom_site_fract_x
_atom_site_fract_y
_atom_site_fract_z
Si Si1 0.340543 0.782974 0.465212
Si Si2 0.343136 0.286278 0.092254
Si Si3 0.842323 0.712444 0.337252
Si Si4 0.342968 0.286523 0.280305
O O1 0.292317 0.728617 0.500000
O O2 0.500000 0.730048 0.461769
O O3 0.249911 0.719728 0.436191
O O4 0.338275 0.000000 0.464869
O O5 0.500000 0.219069 0.089885
O O6 0.347568 0.500000 0.089688
O O7 0.293219 0.245583 0.127320
O O8 0.850487 0.500000 0.333192
O O9 0.738951 0.781674 0.310828
O O10 0.000000 0.782021 0.334198
O O11 0.500000 0.218901 0.277426
O O12 0.352265 0.500000 0.283247
O O13 0.250000 0.250000 0.250000
#
# Coordination Sequence:
#
# PCOD9522920 Si02
#       4
#    16  16  16  16
#     4   8  14  25  41  62  89 119 149 184 229 277
#     4   9  17  28  44  68  93 116 149 193 233 269
#     4   9  18  33  50  67  93 128 158 186 229 283
#     4  10  21  36  54  76 100 127 161 199 239 285
#
# _framework density 20.558997999999999
#
# number of rings (size 3 to 8) (size 9 to 14) (size 15 to 20)
#    0.000    3.000    0.000    1.500    0.000    4.000 
#    0.000    5.000    0.000    0.750    0.000    5.250 
#    0.000    0.000    0.000    0.000    0.000    0.000 
#
# Total GULP energy -178525.168653 kJ/mol
# GULP energy per Si atom -5578.911520 kJ/mol
# Density = 2.051220 g / cm^3
# Si number density = 20.558998 Si / 1000 Ang^3
#
#
#
# Elastic Constant Matrix: (Units=GPa)
#
#
# Indices 1 2 3 4 5 6 
#
# 1 130.0133 5.4300 137.2471 0.0000 0.0000 0.0000
# 2 5.4300 53.3893 -1.8922 0.0000 0.0000 0.0000
# 3 137.2471 -1.8922 239.7775 0.0000 0.0000 0.0000
# 4 0.0000 0.0000 0.0000 14.0290 0.0000 0.0000
# 5 0.0000 0.0000 0.0000 0.0000 42.4323 0.0000
# 6 0.0000 0.0000 0.0000 0.0000 0.0000 7.5370
#
#
#
# Elastic Compliance Matrix: (Units=1/GPa)
#
#
# Indices 1 2 3 4 5 6 
#
# 1 0.019740 -0.002409 -0.011318 0.000000 0.000000 0.000000
# 2 -0.002409 0.019030 0.001529 0.000000 0.000000 0.000000
# 3 -0.011318 0.001529 0.010661 0.000000 0.000000 0.000000
# 4 0.000000 0.000000 0.000000 0.071281 0.000000 0.000000
# 5 0.000000 0.000000 0.000000 0.000000 0.023567 0.000000
# 6 0.000000 0.000000 0.000000 0.000000 0.000000 0.132679
#
#
# Mechanical properties :
#
#
# Convention : Reuss Voigt Hill
#
# Bulk Modulus (GPa) = 39.94462 78.30555 59.12508
# Shear Modulus (GPa) = 16.14480 31.62601 23.88540
#
# Velocity S-wave (km/s) = 2.80534 3.92638 3.41221
# Velocity P-wave (km/s) = 5.47400 7.66330 6.65924
#
# Compressibility (1/GPa) = 0.02503466
#
# Stress axis : x y z
#
# Youngs Moduli (GPa) = 50.65917 52.54995 93.80062
#
# Poissons Ratio (x) = 0.12658 1.06163
# Poissons Ratio (y) = 0.12203 -0.14342
# Poissons Ratio (z) = 0.57336 -0.08035
#
# Static dielectric constant tensor:
#      x y z
#    x 1.725890 0.000000 0.000000 
#    y 0.000000 1.810750 0.000000 
#    z 0.000000 0.000000 1.709500 
# 
# From -- ./inp_files/3686.got.cif
#   From: 2010.05.17/outbox.cif.g08.bks.cpg/sg71_2_cif.got.tgz:3686.got - 2010.06.03 16:22:01.
