data_PCOD9522977
_publ_section_title
;
Structure prediction by ZEFSAII (Michael W. Deem and Ramdas Pophale) SiO2 
 PCOD9522977
Probable space group: I M M M
;
_chemical_formula_sum "Si O2"
_cell_formula_units_Z 80
_cell_length_a 9.443271
_cell_length_b 30.111460
_cell_length_c 13.800441
_cell_angle_alpha 90.000000
_cell_angle_beta 90.000000
_cell_angle_gamma 90.000000
_cell_volume 3924.164741
_symmetry_space_group_name_H-M "I M M M"
_symmetry_group_IT_number 71
_symmetry_cell_setting 'orthorhombic'
loop_
_space_group_symop_operation_xyz
x,y,z
-x,-y,z
x,-y,-z
-x,y,-z
-x,-y,-z
x,y,-z
-x,y,z
x,-y,z
1/2+x,1/2+y,1/2+z
1/2-x,1/2-y,1/2+z
1/2+x,1/2-y,1/2-z
1/2-x,1/2+y,1/2-z
1/2-x,1/2-y,1/2-z
1/2+x,1/2+y,1/2-z
1/2-x,1/2+y,1/2+z
1/2+x,1/2-y,1/2+z
loop_
_atom_site_type_symbol
_atom_site_label
_atom_site_fract_x
_atom_site_fract_y
_atom_site_fract_z
Si Si1 0.831169 0.049634 0.196014
Si Si2 0.835531 0.218741 0.118372
Si Si3 0.161603 0.632904 0.616578
Si Si4 0.167926 0.095103 0.389532
Si Si5 0.664236 0.182783 0.382317
O O1 0.748291 0.089213 0.144942
O O2 0.807060 0.057033 0.310928
O O3 0.000000 0.054266 0.178521
O O4 0.788291 0.000000 0.166542
O O5 0.738643 0.177994 0.150844
O O6 0.784705 0.268095 0.147035
O O7 0.000000 0.213047 0.148406
O O8 0.836206 0.217999 0.000000
O O9 0.158754 0.635221 0.500000
O O10 0.000000 0.630348 0.651167
O O11 0.210834 0.084327 0.500000
O O12 0.246854 0.139645 0.355272
O O13 0.000000 0.104064 0.390216
O O14 0.667787 0.182939 0.500000
O O15 0.500000 0.178653 0.354157
#
# Coordination Sequence:
#
# PCOD9522977 Si02
#       5
#    16  16  16  16  16
#     4  10  22  39  57  77 102 135 176 219 263 314
#     4   8  14  27  49  76 106 140 175 209 248 300
#     4  10  21  36  55  80 108 137 171 215 265 311
#     4   9  18  33  54  80 108 137 171 214 261 306
#     4   8  14  26  47  76 108 141 174 207 248 301
#
# _framework density 20.386503000000001
#
# number of rings (size 3 to 8) (size 9 to 14) (size 15 to 20)
#    0.000    3.000    0.000    1.800    0.000    4.000 
#    0.000    9.000    0.000    0.000    0.000    4.200 
#    0.000    0.000    0.000    0.000    0.000    0.000 
#
# Total GULP energy -223257.230552 kJ/mol
# GULP energy per Si atom -5581.430764 kJ/mol
# Density = 2.034010 g / cm^3
# Si number density = 20.386503 Si / 1000 Ang^3
#
#
#
# Elastic Constant Matrix: (Units=GPa)
#
#
# Indices 1 2 3 4 5 6 
#
# 1 40.0940 47.3965 -1.1306 0.0000 0.0000 0.0000
# 2 47.3965 133.1643 2.3346 0.0001 -0.0001 0.0000
# 3 -1.1306 2.3346 39.9107 -0.0002 -0.0003 0.0000
# 4 0.0000 0.0001 -0.0002 26.2555 0.0000 0.0000
# 5 0.0000 -0.0001 -0.0003 0.0000 12.8147 0.0000
# 6 0.0000 0.0000 0.0000 0.0000 0.0000 26.8985
#
#
#
# Elastic Compliance Matrix: (Units=1/GPa)
#
#
# Indices 1 2 3 4 5 6 
#
# 1 0.043238 -0.015427 0.002127 0.000000 0.000000 0.000000
# 2 -0.015427 0.013021 -0.001199 0.000000 0.000000 0.000000
# 3 0.002127 -0.001199 0.025186 0.000000 0.000001 0.000000
# 4 0.000000 0.000000 0.000000 0.038087 0.000000 0.000000
# 5 0.000000 0.000000 0.000001 0.000000 0.078035 0.000000
# 6 0.000000 0.000000 0.000000 0.000000 0.000000 0.037177
#
#
# Mechanical properties :
#
#
# Convention : Reuss Voigt Hill
#
# Bulk Modulus (GPa) = 19.06609 34.48555 26.77582
# Shear Modulus (GPa) = 17.77941 24.16497 20.97219
#
# Velocity S-wave (km/s) = 2.95637 3.44661 3.21086
# Velocity P-wave (km/s) = 4.58542 5.72638 5.18737
#
# Compressibility (1/GPa) = 0.05244913
#
# Stress axis : x y z
#
# Youngs Moduli (GPa) = 23.12791 76.79732 39.70408
#
# Poissons Ratio (x) = 1.18473 -0.08446
# Poissons Ratio (y) = 0.35679 0.04759
# Poissons Ratio (z) = -0.04920 0.09206
#
# Static dielectric constant tensor:
#      x y z
#    x 1.683780 0.000000 0.000000 
#    y 0.000000 1.682820 0.000000 
#    z 0.000000 0.000000 1.795790 
# 
# From -- ./inp_files/14518.got.cif
#   From: 2010.05.17/outbox.cif.g08.bks.cpg/sg71_8_cif.got.tgz:14518.got - 2010.06.03 16:22:01.
