data_PCOD9522447
_publ_section_title
;
Structure prediction by ZEFSAII (Michael W. Deem and Ramdas Pophale) SiO2 
 PCOD9522447
Probable space group: I M M M
;
_chemical_formula_sum "Si O2"
_cell_formula_units_Z 80
_cell_length_a 12.360135
_cell_length_b 24.334382
_cell_length_c 14.617731
_cell_angle_alpha 90.000000
_cell_angle_beta 90.000000
_cell_angle_gamma 90.000000
_cell_volume 4396.666265
_symmetry_space_group_name_H-M "I M M M"
_symmetry_group_IT_number 71
_symmetry_cell_setting 'orthorhombic'
loop_
_space_group_symop_operation_xyz
x,y,z
-x,-y,z
x,-y,-z
-x,y,-z
-x,-y,-z
x,y,-z
-x,y,z
x,-y,z
1/2+x,1/2+y,1/2+z
1/2-x,1/2-y,1/2+z
1/2+x,1/2-y,1/2-z
1/2-x,1/2+y,1/2-z
1/2-x,1/2-y,1/2-z
1/2+x,1/2+y,1/2-z
1/2-x,1/2+y,1/2+z
1/2+x,1/2-y,1/2+z
loop_
_atom_site_type_symbol
_atom_site_label
_atom_site_fract_x
_atom_site_fract_y
_atom_site_fract_z
Si Si1 0.130195 0.762928 0.897517
Si Si2 0.795212 0.362637 0.892343
Si Si3 0.128822 0.860763 0.765787
Si Si4 0.763766 0.433972 0.392920
Si Si5 0.500000 0.935991 0.888923
Si Si6 0.000000 0.563187 0.111018
O O1 0.165548 0.700329 0.883464
O O2 0.164205 0.804714 0.818213
O O3 0.000000 0.764011 0.898689
O O4 0.167448 0.780147 0.000000
O O5 0.691185 0.368548 0.828943
O O6 0.892279 0.403391 0.862804
O O7 0.773615 0.372703 0.000000
O O8 0.169749 0.908399 0.833161
O O9 0.000000 0.860510 0.754903
O O10 0.749866 0.420522 0.500000
O O11 0.765421 0.500000 0.385765
O O12 0.883188 0.412584 0.361892
O O13 0.500000 0.000000 0.861486
O O14 0.500000 0.935604 0.000000
O O15 0.000000 0.500000 0.142694
O O16 0.000000 0.562605 0.000000
#
# Coordination Sequence:
#
# PCOD9522447 Si02
#       6
#    16  16  16  16   8   8
#     4   9  17  34  59  82 106 137 178 228 280 325
#     4  10  20  37  59  79 106 143 176 224 287 331
#     4  11  23  34  50  80 112 148 191 222 252 316
#     4   9  18  34  55  78 108 144 181 227 279 324
#     4   7  12  27  51  75 100 135 175 216 271 326
#     4   9  18  35  61  89 106 125 176 241 293 337
#
# _framework density 18.195605
#
# number of rings (size 3 to 8) (size 9 to 14) (size 15 to 20)
#    0.000    2.600    1.000    2.400    0.000    3.600 
#    0.000    2.000    2.200    0.000    0.000    4.200 
#    0.000    0.000    0.000    0.000    0.000    0.000 
#
# Total GULP energy -223005.610789 kJ/mol
# GULP energy per Si atom -5575.140270 kJ/mol
# Density = 1.815419 g / cm^3
# Si number density = 18.195605 Si / 1000 Ang^3
#
#
#
# Elastic Constant Matrix: (Units=GPa)
#
#
# Indices 1 2 3 4 5 6 
#
# 1 101.7780 49.9235 61.9322 0.0000 0.0000 0.0000
# 2 49.9235 70.7456 46.0098 0.0000 0.0000 0.0000
# 3 61.9322 46.0098 107.8396 0.0000 0.0000 0.0000
# 4 0.0000 0.0000 0.0000 -92.1199 0.0000 0.0000
# 5 0.0000 0.0000 0.0000 0.0000 33.2889 0.0000
# 6 0.0000 0.0000 0.0000 0.0000 0.0000 18.2722
#
#
#
# Elastic Compliance Matrix: (Units=1/GPa)
#
#
# Indices 1 2 3 4 5 6 
#
# 1 0.018048 -0.008298 -0.006825 0.000000 0.000000 0.000000
# 2 -0.008298 0.023378 -0.005209 0.000000 0.000000 0.000000
# 3 -0.006825 -0.005209 0.015415 0.000000 0.000000 0.000000
# 4 0.000000 0.000000 0.000000 -0.010855 0.000000 0.000000
# 5 0.000000 0.000000 0.000000 0.000000 0.030040 0.000000
# 6 0.000000 0.000000 0.000000 0.000000 0.000000 0.054728
#
#
# Mechanical properties :
#
#
# Convention : Reuss Voigt Hill
#
# Bulk Modulus (GPa) = 61.81068 66.23269 64.02169
# Shear Modulus (GPa) = 28.27883 0.05476 14.16679
#
# Velocity S-wave (km/s) = 3.94656 0.17366 2.79334
# Velocity P-wave (km/s) = 7.40344 6.04315 6.75761
#
# Compressibility (1/GPa) = 0.01617843
#
# Stress axis : x y z
#
# Youngs Moduli (GPa) = 55.40632 42.77463 64.87163
#
# Poissons Ratio (x) = 0.35493 0.44275
# Poissons Ratio (y) = 0.45975 0.33792
# Poissons Ratio (z) = 0.37815 0.22281
#
# Static dielectric constant tensor:
#      x y z
#    x 1.614360 0.000000 0.000000 
#    y 0.000000 1.617980 0.000000 
#    z 0.000000 0.000000 1.653650 
# 
# From -- ./inp_files/32690.got.cif
#   From: 2010.05.17/outbox.cif.g08.bks.cpg/sg71_17_cif.got.tgz:32690.got - 2010.06.03 16:22:01.
