data_PCOD9522802
_publ_section_title
;
Structure prediction by ZEFSAII (Michael W. Deem and Ramdas Pophale) SiO2 
 PCOD9522802
Probable space group: I M M M
;
_chemical_formula_sum "Si O2"
_cell_formula_units_Z 104
_cell_length_a 32.722455
_cell_length_b 20.441811
_cell_length_c 9.263325
_cell_angle_alpha 90.000000
_cell_angle_beta 90.000000
_cell_angle_gamma 90.000000
_cell_volume 6196.295901
_symmetry_space_group_name_H-M "I M M M"
_symmetry_group_IT_number 71
_symmetry_cell_setting 'orthorhombic'
loop_
_space_group_symop_operation_xyz
x,y,z
-x,-y,z
x,-y,-z
-x,y,-z
-x,-y,-z
x,y,-z
-x,y,z
x,-y,z
1/2+x,1/2+y,1/2+z
1/2-x,1/2-y,1/2+z
1/2+x,1/2-y,1/2-z
1/2-x,1/2+y,1/2-z
1/2-x,1/2-y,1/2-z
1/2+x,1/2+y,1/2-z
1/2-x,1/2+y,1/2+z
1/2+x,1/2-y,1/2+z
loop_
_atom_site_type_symbol
_atom_site_label
_atom_site_fract_x
_atom_site_fract_y
_atom_site_fract_z
Si Si1 0.134076 0.316383 0.325444
Si Si2 0.774583 0.075600 0.172310
Si Si3 0.048864 0.000000 0.837990
Si Si4 0.165659 0.173054 0.333749
Si Si5 0.071909 0.871862 0.666052
Si Si6 0.187560 0.576302 0.170744
Si Si7 0.955203 0.729822 0.675644
O O1 0.135256 0.324230 0.500000
O O2 0.158706 0.249027 0.292780
O O3 0.155239 0.376040 0.245291
O O4 0.086515 0.306614 0.281233
O O5 0.805633 0.129258 0.234159
O O6 0.731134 0.084862 0.250607
O O7 0.787966 0.000000 0.202002
O O8 0.770082 0.082253 0.000000
O O9 0.062669 0.064905 0.757333
O O10 0.000000 0.000000 0.841683
O O11 0.065288 0.000000 0.000000
O O12 0.180592 0.170743 0.500000
O O13 0.120069 0.143384 0.332406
O O14 0.059283 0.882862 0.500000
O O15 0.050032 0.805729 0.719159
O O16 0.175989 0.500000 0.187798
O O17 0.191386 0.589854 0.000000
O O18 0.954529 0.729748 0.500000
O O19 0.000000 0.705255 0.721865
#
# Coordination Sequence:
#
# PCOD9522802 Si02
#       7
#    16  16   8  16  16  16  16
#     4   9  18  33  54  80 106 131 165 208 254 302
#     4  10  21  35  52  75 102 136 177 214 252 299
#     4  11  23  33  41  61  95 131 169 217 267 305
#     4   9  19  34  51  75 104 133 169 211 256 301
#     4   9  18  32  50  70  92 128 173 212 250 299
#     4  10  21  37  56  77 101 132 168 205 250 303
#     4   8  14  28  52  78 101 126 162 208 251 295
#
# _framework density 16.784222
#
# number of rings (size 3 to 8) (size 9 to 14) (size 15 to 20)
#    0.000    2.692    0.000    3.462    1.077    4.923 
#    0.000    2.308    0.000    1.846    0.000    3.231 
#    0.000    0.000    0.000    0.000    0.000    0.000 
#
# Total GULP energy -289865.512332 kJ/mol
# GULP energy per Si atom -5574.336776 kJ/mol
# Density = 1.674602 g / cm^3
# Si number density = 16.784222 Si / 1000 Ang^3
#
#
#
# Elastic Constant Matrix: (Units=GPa)
#
#
# Indices 1 2 3 4 5 6 
#
# 1 95.1593 67.5314 46.0578 0.0000 0.0000 0.0000
# 2 67.5314 86.7745 55.2341 0.0000 0.0000 0.0000
# 3 46.0578 55.2341 67.7057 0.0000 0.0000 0.0000
# 4 0.0000 0.0000 0.0000 24.5769 0.0000 0.0000
# 5 0.0000 0.0000 0.0000 0.0000 23.9477 0.0000
# 6 0.0000 0.0000 0.0000 0.0000 0.0000 11.5908
#
#
#
# Elastic Compliance Matrix: (Units=1/GPa)
#
#
# Indices 1 2 3 4 5 6 
#
# 1 0.023633 -0.016972 -0.002231 0.000000 0.000000 0.000000
# 2 -0.016972 0.036161 -0.017954 0.000000 0.000000 0.000000
# 3 -0.002231 -0.017954 0.030934 0.000000 0.000000 0.000000
# 4 0.000000 0.000000 0.000000 0.040689 0.000000 0.000000
# 5 0.000000 0.000000 0.000000 0.000000 0.041758 0.000000
# 6 0.000000 0.000000 0.000000 0.000000 0.000000 0.086275
#
#
# Mechanical properties :
#
#
# Convention : Reuss Voigt Hill
#
# Bulk Modulus (GPa) = 60.92508 65.25400 63.08954
# Shear Modulus (GPa) = 14.73902 17.41085 16.07493
#
# Velocity S-wave (km/s) = 2.96657 3.22426 3.09810
# Velocity P-wave (km/s) = 6.93627 7.26799 7.10407
#
# Compressibility (1/GPa) = 0.01641360
#
# Stress axis : x y z
#
# Youngs Moduli (GPa) = 42.31373 27.65422 32.32637
#
# Poissons Ratio (x) = 0.46935 0.07212
# Poissons Ratio (y) = 0.71815 0.58040
# Poissons Ratio (z) = 0.09440 0.49651
#
# Static dielectric constant tensor:
#      x y z
#    x 1.568350 0.000000 0.000000 
#    y 0.000000 1.487320 0.000000 
#    z 0.000000 0.000000 1.563010 
# 
# From -- ./inp_files/16992.got.cif
#   From: 2010.05.17/outbox.cif.g08.bks.cpg/sg71_9_cif.got.tgz:16992.got - 2010.06.03 16:22:01.
