data_PCOD9522281
_publ_section_title
;
Structure prediction by ZEFSAII (Michael W. Deem and Ramdas Pophale) SiO2 
 PCOD9522281
Probable space group: I M M M
;
_chemical_formula_sum "Si O2"
_cell_formula_units_Z 120
_cell_length_a 28.207350
_cell_length_b 28.044760
_cell_length_c 8.177687
_cell_angle_alpha 90.000000
_cell_angle_beta 90.000000
_cell_angle_gamma 90.000000
_cell_volume 6469.109452
_symmetry_space_group_name_H-M "I M M M"
_symmetry_group_IT_number 71
_symmetry_cell_setting 'orthorhombic'
loop_
_space_group_symop_operation_xyz
x,y,z
-x,-y,z
x,-y,-z
-x,y,-z
-x,-y,-z
x,y,-z
-x,y,z
x,-y,z
1/2+x,1/2+y,1/2+z
1/2-x,1/2-y,1/2+z
1/2+x,1/2-y,1/2-z
1/2-x,1/2+y,1/2-z
1/2-x,1/2-y,1/2-z
1/2+x,1/2+y,1/2-z
1/2-x,1/2+y,1/2+z
1/2+x,1/2-y,1/2+z
loop_
_atom_site_type_symbol
_atom_site_label
_atom_site_fract_x
_atom_site_fract_y
_atom_site_fract_z
Si Si1 0.145651 0.641526 0.194380
Si Si2 0.295782 0.945732 0.806590
Si Si3 0.943430 0.945629 0.500000
Si Si4 0.600499 0.603662 0.317918
Si Si5 0.553794 0.805230 0.802472
Si Si6 0.105600 0.208078 0.306498
Si Si7 0.308496 0.443645 0.808437
Si Si8 0.803036 0.738464 0.196511
O O1 0.163900 0.592431 0.268971
O O2 0.092605 0.657298 0.240671
O O3 0.179697 0.685481 0.247387
O O4 0.149107 0.637739 0.000000
O O5 0.246341 0.931445 0.721934
O O6 0.307483 0.000000 0.754219
O O7 0.286973 0.946453 0.000000
O O8 0.925914 0.920997 0.666248
O O9 0.000000 0.945426 0.500000
O O10 0.925631 0.000000 0.500000
O O11 0.584171 0.590088 0.500000
O O12 0.596182 0.660116 0.291520
O O13 0.655124 0.587414 0.295325
O O14 0.500000 0.813240 0.746571
O O15 0.572574 0.752539 0.755339
O O16 0.554404 0.806551 0.000000
O O17 0.098658 0.199101 0.500000
O O18 0.159222 0.225473 0.275346
O O19 0.313972 0.500000 0.768873
O O20 0.319494 0.436867 0.000000
O O21 0.750000 0.750000 0.250000
O O22 0.806957 0.741575 0.000000
#
# Coordination Sequence:
#
# PCOD9522281 Si02
#       8
#    16  16   8  16  16  16  16  16
#     4  10  21  36  55  82 116 154 196 240 293 355
#     4  10  21  36  56  85 119 157 202 248 293 349
#     4  11  26  48  68  88 118 156 200 256 316 370
#     4  12  24  40  64  92 121 156 200 253 307 367
#     4   9  19  37  62  87 113 150 193 240 295 357
#     4  10  20  37  57  86 119 153 195 245 297 354
#     4  10  20  36  58  84 116 155 198 244 296 352
#     4  10  21  35  52  78 115 158 200 239 287 351
#
# _framework density 18.549693999999999
#
# number of rings (size 3 to 8) (size 9 to 14) (size 15 to 20)
#    0.000    1.800    1.333    2.400    1.867    5.600 
#    0.000    0.667    0.000    0.400    0.000    2.800 
#    0.000    0.000    0.000    0.000    0.000    0.000 
#
# Total GULP energy -335165.009306 kJ/mol
# GULP energy per Si atom -5586.083488 kJ/mol
# Density = 1.850747 g / cm^3
# Si number density = 18.549694 Si / 1000 Ang^3
#
#
#
# Elastic Constant Matrix: (Units=GPa)
#
#
# Indices 1 2 3 4 5 6 
#
# 1 105.3067 37.8562 21.6587 0.0000 0.0000 0.0000
# 2 37.8562 77.9468 32.4983 0.0000 0.0000 0.0000
# 3 21.6587 32.4983 75.7555 0.0000 0.0000 0.0000
# 4 0.0000 0.0000 0.0000 21.2102 0.0000 0.0000
# 5 0.0000 0.0000 0.0000 0.0000 21.4540 0.0000
# 6 0.0000 0.0000 0.0000 0.0000 0.0000 11.6352
#
#
#
# Elastic Compliance Matrix: (Units=1/GPa)
#
#
# Indices 1 2 3 4 5 6 
#
# 1 0.011579 -0.005167 -0.001094 0.000000 0.000000 0.000000
# 2 -0.005167 0.017930 -0.006214 0.000000 0.000000 0.000000
# 3 -0.001094 -0.006214 0.016179 0.000000 0.000000 0.000000
# 4 0.000000 0.000000 0.000000 0.047147 0.000000 0.000000
# 5 0.000000 0.000000 0.000000 0.000000 0.046611 0.000000
# 6 0.000000 0.000000 0.000000 0.000000 0.000000 0.085946
#
#
# Mechanical properties :
#
#
# Convention : Reuss Voigt Hill
#
# Bulk Modulus (GPa) = 48.22370 49.22615 48.72492
# Shear Modulus (GPa) = 19.43603 21.99296 20.71450
#
# Velocity S-wave (km/s) = 3.24046 3.44702 3.34534
# Velocity P-wave (km/s) = 6.32884 6.51442 6.42230
#
# Compressibility (1/GPa) = 0.02073669
#
# Stress axis : x y z
#
# Youngs Moduli (GPa) = 86.36632 55.77301 61.80891
#
# Poissons Ratio (x) = 0.28820 0.06759
# Poissons Ratio (y) = 0.44629 0.38410
# Poissons Ratio (z) = 0.09445 0.34659
#
# Static dielectric constant tensor:
#      x y z
#    x 1.623710 0.000000 0.000000 
#    y 0.000000 1.632600 0.000000 
#    z 0.000000 0.000000 1.649620 
# 
# From -- ./inp_files/15596.got.cif
#   From: 2010.05.17/outbox.cif.g08.bks.cpg/sg71_8_cif.got.tgz:15596.got - 2010.06.03 16:22:01.
