data_PCOD9522606
_publ_section_title
;
Structure prediction by ZEFSAII (Michael W. Deem and Ramdas Pophale) SiO2 
 PCOD9522606
Probable space group: I M M M
;
_chemical_formula_sum "Si O2"
_cell_formula_units_Z 104
_cell_length_a 20.740136
_cell_length_b 14.841774
_cell_length_c 17.469883
_cell_angle_alpha 90.000000
_cell_angle_beta 90.000000
_cell_angle_gamma 90.000000
_cell_volume 5377.586569
_symmetry_space_group_name_H-M "I M M M"
_symmetry_group_IT_number 71
_symmetry_cell_setting 'orthorhombic'
loop_
_space_group_symop_operation_xyz
x,y,z
-x,-y,z
x,-y,-z
-x,y,-z
-x,-y,-z
x,y,-z
-x,y,z
x,-y,z
1/2+x,1/2+y,1/2+z
1/2-x,1/2-y,1/2+z
1/2+x,1/2-y,1/2-z
1/2-x,1/2+y,1/2-z
1/2-x,1/2-y,1/2-z
1/2+x,1/2+y,1/2-z
1/2-x,1/2+y,1/2+z
1/2+x,1/2-y,1/2+z
loop_
_atom_site_type_symbol
_atom_site_label
_atom_site_fract_x
_atom_site_fract_y
_atom_site_fract_z
Si Si1 0.392310 0.901207 0.409503
Si Si2 0.928450 0.227979 0.175735
Si Si3 0.800763 0.892910 0.186696
Si Si4 0.750767 0.599006 0.141078
Si Si5 0.922696 0.500000 0.588041
Si Si6 0.426097 0.808525 0.154640
Si Si7 0.797012 0.279252 0.415687
O O1 0.376274 0.897688 0.500000
O O2 0.426218 0.808950 0.385692
O O3 0.328097 0.902399 0.357671
O O4 0.424247 0.000000 0.397250
O O5 0.868048 0.159631 0.170121
O O6 0.923046 0.278139 0.257831
O O7 0.000000 0.184744 0.172520
O O8 0.780892 0.884229 0.276058
O O9 0.743780 0.843729 0.139968
O O10 0.805111 0.000000 0.169666
O O11 0.729686 0.500000 0.114019
O O12 0.735313 0.681946 0.087480
O O13 0.897561 0.500000 0.500000
O O14 0.907303 0.411791 0.636811
O O15 0.000000 0.500000 0.580905
O O16 0.500000 0.794854 0.128294
O O17 0.370155 0.759297 0.109094
O O18 0.795813 0.318992 0.500000
#
# Coordination Sequence:
#
# PCOD9522606 Si02
#       7
#    16  16  16  16   8  16  16
#     4  10  21  37  59  90 125 155 190 244 308 368
#     4  11  23  40  62  86 117 160 209 254 301 356
#     4  11  24  42  62  88 121 157 207 258 298 351
#     4  10  20  38  64  89 118 156 196 243 300 360
#     4   9  18  34  54  80 121 163 194 230 285 354
#     4  10  22  38  58  87 124 163 202 240 289 363
#     4  12  23  37  63  92 123 158 197 248 304 361
#
# _framework density 19.33953
#
# number of rings (size 3 to 8) (size 9 to 14) (size 15 to 20)
#    0.000    1.462    3.077    2.308    2.154    3.077 
#    0.000    0.769    0.000    0.462    0.000    3.231 
#    0.000    0.000    0.000    0.000    0.000    0.000 
#
# Total GULP energy -289877.018823 kJ/mol
# GULP energy per Si atom -5574.558054 kJ/mol
# Density = 1.929551 g / cm^3
# Si number density = 19.339530 Si / 1000 Ang^3
#
#
#
# Elastic Constant Matrix: (Units=GPa)
#
#
# Indices 1 2 3 4 5 6 
#
# 1 119.9969 39.6009 26.3599 0.0000 0.0000 0.0000
# 2 39.6009 91.3641 30.9512 0.0000 0.0000 0.0000
# 3 26.3599 30.9512 51.3075 0.0000 0.0000 0.0000
# 4 0.0000 0.0000 0.0000 11.1622 0.0000 0.0000
# 5 0.0000 0.0000 0.0000 0.0000 -44.7934 0.0000
# 6 0.0000 0.0000 0.0000 0.0000 0.0000 9.5585
#
#
#
# Elastic Compliance Matrix: (Units=1/GPa)
#
#
# Indices 1 2 3 4 5 6 
#
# 1 0.010129 -0.003302 -0.003212 0.000000 0.000000 0.000000
# 2 -0.003302 0.014833 -0.007251 0.000000 0.000000 0.000000
# 3 -0.003212 -0.007251 0.025515 0.000000 0.000000 0.000000
# 4 0.000000 0.000000 0.000000 0.089588 0.000000 0.000000
# 5 0.000000 0.000000 0.000000 0.000000 -0.022325 0.000000
# 6 0.000000 0.000000 0.000000 0.000000 0.000000 0.104619
#
#
# Mechanical properties :
#
#
# Convention : Reuss Voigt Hill
#
# Bulk Modulus (GPa) = 43.58084 50.72139 47.15112
# Shear Modulus (GPa) = 19.41459 6.23591 12.82525
#
# Velocity S-wave (km/s) = 3.17185 1.79762 2.57799
# Velocity P-wave (km/s) = 5.99980 5.53103 5.77018
#
# Compressibility (1/GPa) = 0.02294586
#
# Stress axis : x y z
#
# Youngs Moduli (GPa) = 98.72772 67.41679 39.19285
#
# Poissons Ratio (x) = 0.22262 0.12588
# Poissons Ratio (y) = 0.32602 0.28421
# Poissons Ratio (z) = 0.31709 0.48887
#
# Static dielectric constant tensor:
#      x y z
#    x 1.684330 0.000000 0.000000 
#    y 0.000000 1.733150 0.000000 
#    z 0.000000 0.000000 1.677090 
# 
# From -- ./inp_files/47301.got.cif
#   From: 2010.05.17/outbox.cif.g08.bks.cpg/sg71_24_cif.got.tgz:47301.got - 2010.06.03 16:22:01.
