data_PCOD9522398
_publ_section_title
;
Structure prediction by ZEFSAII (Michael W. Deem and Ramdas Pophale) SiO2 
 PCOD9522398
Probable space group: I M M M
;
_chemical_formula_sum "Si O2"
_cell_formula_units_Z 104
_cell_length_a 21.404632
_cell_length_b 14.244661
_cell_length_c 17.397365
_cell_angle_alpha 90.000000
_cell_angle_beta 90.000000
_cell_angle_gamma 90.000000
_cell_volume 5304.486628
_symmetry_space_group_name_H-M "I M M M"
_symmetry_group_IT_number 71
_symmetry_cell_setting 'orthorhombic'
loop_
_space_group_symop_operation_xyz
x,y,z
-x,-y,z
x,-y,-z
-x,y,-z
-x,-y,-z
x,y,-z
-x,y,z
x,-y,z
1/2+x,1/2+y,1/2+z
1/2-x,1/2-y,1/2+z
1/2+x,1/2-y,1/2-z
1/2-x,1/2+y,1/2-z
1/2-x,1/2-y,1/2-z
1/2+x,1/2+y,1/2-z
1/2-x,1/2+y,1/2+z
1/2+x,1/2-y,1/2+z
loop_
_atom_site_type_symbol
_atom_site_label
_atom_site_fract_x
_atom_site_fract_y
_atom_site_fract_z
Si Si1 0.929166 0.263034 0.623832
Si Si2 0.760941 0.893744 0.626861
Si Si3 0.702519 0.809418 0.083949
Si Si4 0.573883 0.604255 0.000000
Si Si5 0.613669 0.107641 0.591537
Si Si6 0.069188 0.224577 0.805883
Si Si7 0.805226 0.890816 0.196803
O O1 0.870282 0.327212 0.602229
O O2 0.916076 0.167250 0.575962
O O3 0.927896 0.247725 0.715032
O O4 0.000000 0.293565 0.602882
O O5 0.786607 0.803137 0.583558
O O6 0.685890 0.888346 0.619113
O O7 0.785366 0.882018 0.713952
O O8 0.777846 0.000000 0.601508
O O9 0.749156 0.848486 0.147201
O O10 0.718071 0.847252 0.000000
O O11 0.602043 0.500000 0.000000
O O12 0.500000 0.591711 0.000000
O O13 0.611372 0.128311 0.500000
O O14 0.576913 0.182765 0.642149
O O15 0.592051 0.000000 0.602258
O O16 0.129570 0.160487 0.820360
O O17 0.000000 0.183033 0.820365
O O18 0.811943 0.000000 0.179591
#
# Coordination Sequence:
#
# PCOD9522398 Si02
#       7
#    16  16  16   8  16  16  16
#     4  10  21  37  58  89 126 165 202 242 298 371
#     4  10  20  36  61  91 121 154 192 244 309 370
#     4  12  22  36  61  88 121 161 199 249 301 360
#     4   9  18  34  56  88 131 169 204 249 301 361
#     4  10  21  39  64  96 129 157 197 258 324 384
#     4  11  23  40  63  89 124 168 209 254 310 372
#     4  11  24  41  61  86 120 161 209 258 302 360
#
# _framework density 19.606045000000002
#
# number of rings (size 3 to 8) (size 9 to 14) (size 15 to 20)
#    0.000    1.462    3.846    1.846    0.000    3.385 
#    0.000    2.308    0.000    1.385    0.000    3.231 
#    0.000    0.000    0.000    0.000    0.000    0.000 
#
# Total GULP energy -290148.767759 kJ/mol
# GULP energy per Si atom -5579.783995 kJ/mol
# Density = 1.956142 g / cm^3
# Si number density = 19.606045 Si / 1000 Ang^3
#
#
#
# Elastic Constant Matrix: (Units=GPa)
#
#
# Indices 1 2 3 4 5 6 
#
# 1 108.1640 30.3128 57.1077 0.0000 0.0000 0.0000
# 2 30.3128 68.6791 60.5129 0.0000 0.0000 0.0000
# 3 57.1077 60.5129 87.0290 0.0000 0.0000 0.0000
# 4 0.0000 0.0000 0.0000 -5.9500 0.0000 0.0000
# 5 0.0000 0.0000 0.0000 0.0000 30.9586 0.0000
# 6 0.0000 0.0000 0.0000 0.0000 0.0000 -1.8521
#
#
#
# Elastic Compliance Matrix: (Units=1/GPa)
#
#
# Indices 1 2 3 4 5 6 
#
# 1 0.014843 0.005242 -0.013385 0.000000 0.000000 0.000000
# 2 0.005242 0.039441 -0.030864 0.000000 0.000000 0.000000
# 3 -0.013385 -0.030864 0.041733 0.000000 0.000000 0.000000
# 4 0.000000 0.000000 0.000000 -0.168068 0.000000 0.000000
# 5 0.000000 0.000000 0.000000 0.000000 0.032301 0.000000
# 6 0.000000 0.000000 0.000000 0.000000 0.000000 -0.539939
#
#
# Mechanical properties :
#
#
# Convention : Reuss Voigt Hill
#
# Bulk Modulus (GPa) = 55.54194 62.19321 58.86758
# Shear Modulus (GPa) = -10.08724 12.36055 1.13666
#
# Velocity S-wave (km/s) = -2.27071 2.51359 0.76224
# Velocity P-wave (km/s) = 4.63850 6.34149 5.55563
#
# Compressibility (1/GPa) = 0.01800441
#
# Stress axis : x y z
#
# Youngs Moduli (GPa) = 67.37236 25.35457 23.96169
#
# Poissons Ratio (x) = -0.13291 0.32072
# Poissons Ratio (y) = -0.35316 0.73954
# Poissons Ratio (z) = 0.90175 0.78253
#
# Static dielectric constant tensor:
#      x y z
#    x 1.722660 0.000000 0.000000 
#    y 0.000000 1.683860 0.000000 
#    z 0.000000 0.000000 1.655480 
# 
# From -- ./inp_files/47315.got.cif
#   From: 2010.05.17/outbox.cif.g08.bks.cpg/sg71_24_cif.got.tgz:47315.got - 2010.06.03 16:22:01.
