data_PCOD9522094
_publ_section_title
;
Structure prediction by ZEFSAII (Michael W. Deem and Ramdas Pophale) SiO2 
 PCOD9522094
Probable space group: I M M M
;
_chemical_formula_sum "Si O2"
_cell_formula_units_Z 104
_cell_length_a 18.573950
_cell_length_b 18.185206
_cell_length_c 17.281923
_cell_angle_alpha 90.000000
_cell_angle_beta 90.000000
_cell_angle_gamma 90.000000
_cell_volume 5837.334263
_symmetry_space_group_name_H-M "I M M M"
_symmetry_group_IT_number 71
_symmetry_cell_setting 'orthorhombic'
loop_
_space_group_symop_operation_xyz
x,y,z
-x,-y,z
x,-y,-z
-x,y,-z
-x,-y,-z
x,y,-z
-x,y,z
x,-y,z
1/2+x,1/2+y,1/2+z
1/2-x,1/2-y,1/2+z
1/2+x,1/2-y,1/2-z
1/2-x,1/2+y,1/2-z
1/2-x,1/2-y,1/2-z
1/2+x,1/2+y,1/2-z
1/2-x,1/2+y,1/2+z
1/2+x,1/2-y,1/2+z
loop_
_atom_site_type_symbol
_atom_site_label
_atom_site_fract_x
_atom_site_fract_y
_atom_site_fract_z
Si Si1 0.810973 0.298504 0.792625
Si Si2 0.377243 0.582735 0.000000
Si Si3 0.676986 0.673484 0.407834
Si Si4 0.845403 0.654853 0.367388
Si Si5 0.582721 0.000000 0.092911
Si Si6 0.302667 0.584195 0.834722
Si Si7 0.417666 0.411603 0.706646
Si Si8 0.581968 0.749877 0.000000
O O1 0.750000 0.250000 0.750000
O O2 0.840045 0.249316 0.862354
O O3 0.860324 0.322101 0.721150
O O4 0.768061 0.368068 0.824794
O O5 0.330480 0.585462 0.077849
O O6 0.418000 0.660977 0.000000
O O7 0.412679 0.500000 0.000000
O O8 0.672085 0.679238 0.500000
O O9 0.759397 0.652608 0.384835
O O10 0.621944 0.615525 0.370562
O O11 0.877911 0.574649 0.382035
O O12 0.878174 0.715314 0.425735
O O13 0.500000 0.000000 0.119995
O O14 0.582430 0.000000 0.000000
O O15 0.288223 0.500000 0.812209
O O16 0.366530 0.612309 0.778133
O O17 0.500000 0.384925 0.713312
O O18 0.419957 0.500000 0.708447
O O19 0.500000 0.776624 0.000000
#
# Coordination Sequence:
#
# PCOD9522094 Si02
#       8
#    16   8  16  16   8  16  16   8
#     4  10  20  35  58  86 114 149 193 243 284 337
#     4  10  22  37  57  87 120 161 199 240 283 346
#     4  11  22  38  61  86 113 151 197 246 293 343
#     4  11  22  37  60  85 121 159 195 237 287 354
#     4  11  22  38  58  88 128 158 192 237 288 352
#     4  10  20  36  58  83 118 153 195 239 288 342
#     4  10  22  39  58  83 118 154 191 239 294 351
#     4  12  24  38  58  86 124 161 193 234 294 353
#
# _framework density 17.816351000000001
#
# number of rings (size 3 to 8) (size 9 to 14) (size 15 to 20)
#    0.000    1.462    4.615    2.308    3.231    1.385 
#    0.000    3.077    0.000    0.000    0.000    0.000 
#    0.000    0.615    0.000    0.000    0.000    0.000 
#
# Total GULP energy -290033.791228 kJ/mol
# GULP energy per Si atom -5577.572908 kJ/mol
# Density = 1.777580 g / cm^3
# Si number density = 17.816351 Si / 1000 Ang^3
#
#
#
# Elastic Constant Matrix: (Units=GPa)
#
#
# Indices 1 2 3 4 5 6 
#
# 1 60.0701 26.4247 23.1198 0.0000 0.0000 0.0000
# 2 26.4247 88.8104 26.5143 0.0000 0.0000 0.0000
# 3 23.1198 26.5143 126.2408 0.0000 0.0000 0.0000
# 4 0.0000 0.0000 0.0000 35.4233 0.0000 0.0000
# 5 0.0000 0.0000 0.0000 0.0000 9.3028 0.0000
# 6 0.0000 0.0000 0.0000 0.0000 0.0000 15.5233
#
#
#
# Elastic Compliance Matrix: (Units=1/GPa)
#
#
# Indices 1 2 3 4 5 6 
#
# 1 0.019902 -0.005157 -0.002562 0.000000 0.000000 0.000000
# 2 -0.005157 0.013349 -0.001859 0.000000 0.000000 0.000000
# 3 -0.002562 -0.001859 0.008781 0.000000 0.000000 0.000000
# 4 0.000000 0.000000 0.000000 0.028230 0.000000 0.000000
# 5 0.000000 0.000000 0.000000 0.000000 0.107495 0.000000
# 6 0.000000 0.000000 0.000000 0.000000 0.000000 0.064419
#
#
# Mechanical properties :
#
#
# Convention : Reuss Voigt Hill
#
# Bulk Modulus (GPa) = 43.71317 47.47100 45.59209
# Shear Modulus (GPa) = 18.59032 25.32070 21.95551
#
# Velocity S-wave (km/s) = 3.23374 3.77398 3.51426
# Velocity P-wave (km/s) = 6.20737 6.75966 6.48939
#
# Compressibility (1/GPa) = 0.02287640
#
# Stress axis : x y z
#
# Youngs Moduli (GPa) = 50.24717 74.90975 113.88162
#
# Poissons Ratio (x) = 0.38629 0.29173
# Poissons Ratio (y) = 0.25911 0.21175
# Poissons Ratio (z) = 0.12872 0.13928
#
# Static dielectric constant tensor:
#      x y z
#    x 1.605250 0.000000 0.000000 
#    y 0.000000 1.636870 0.000000 
#    z 0.000000 0.000000 1.618760 
# 
# From -- ./inp_files/46183.got.cif
#   From: 2010.05.17/outbox.cif.g08.bks.cpg/sg71_24_cif.got.tgz:46183.got - 2010.06.03 16:22:01.
