data_PCOD9522462
_publ_section_title
;
Structure prediction by ZEFSAII (Michael W. Deem and Ramdas Pophale) SiO2 
 PCOD9522462
Probable space group: I M M M
;
_chemical_formula_sum "Si O2"
_cell_formula_units_Z 90
_cell_length_a 20.400878
_cell_length_b 25.167121
_cell_length_c 7.683205
_cell_angle_alpha 90.000000
_cell_angle_beta 90.000000
_cell_angle_gamma 90.000000
_cell_volume 3944.798432
_symmetry_space_group_name_H-M "I M M M"
_symmetry_group_IT_number 71
_symmetry_cell_setting 'orthorhombic'
loop_
_space_group_symop_operation_xyz
x,y,z
-x,-y,z
x,-y,-z
-x,y,-z
-x,-y,-z
x,y,-z
-x,y,z
x,-y,z
1/2+x,1/2+y,1/2+z
1/2-x,1/2-y,1/2+z
1/2+x,1/2-y,1/2-z
1/2-x,1/2+y,1/2-z
1/2-x,1/2-y,1/2-z
1/2+x,1/2+y,1/2-z
1/2-x,1/2+y,1/2+z
1/2+x,1/2-y,1/2+z
loop_
_atom_site_type_symbol
_atom_site_label
_atom_site_fract_x
_atom_site_fract_y
_atom_site_fract_z
Si Si1 0.903728 0.680002 0.199408
Si Si2 0.115754 0.206353 0.787313
Si Si3 0.757085 0.328579 0.301374
Si Si4 0.071657 0.089462 0.211008
Si Si5 0.000000 0.500000 0.000000
Si Si6 0.000000 0.409797 0.306908
Si Si7 0.286717 0.557415 0.202215
O O1 0.916848 0.739059 0.272593
O O2 0.824980 0.677157 0.203406
O O3 0.938051 0.630498 0.289907
O O4 0.925800 0.678314 0.000000
O O5 0.191939 0.200431 0.730594
O O6 0.080192 0.151672 0.740829
O O7 0.117093 0.208038 0.000000
O O8 0.767096 0.311457 0.500000
O O9 0.739046 0.390998 0.298959
O O10 0.134570 0.060221 0.285367
O O11 0.000000 0.070376 0.264653
O O12 0.075589 0.085937 0.000000
O O13 0.000000 0.546959 0.846002
O O14 0.000000 0.433472 0.500000
O O15 0.264317 0.500000 0.268598
O O16 0.267476 0.562049 0.000000
#
# Coordination Sequence:
#
# PCOD9522462 Si02
#       7
#    16  16  16  16   2   8  16
#     4  11  21  39  65  97 130 167 209 255 320 391
#     4   8  17  32  58  89 127 167 202 250 312 380
#     4  10  20  37  59  89 123 163 208 260 322 385
#     4   9  18  33  54  82 114 156 201 244 300 363
#     4  12  26  60  76  98 132 180 218 280 356 378
#     4  12  27  49  75 104 133 171 223 276 330 406
#     4  10  21  37  54  76 109 151 201 258 310 367
#
# _framework density 22.814852999999999
#
# number of rings (size 3 to 8) (size 9 to 14) (size 15 to 20)
#    0.000    2.133    0.889    3.333    1.244    2.133 
#    1.600    9.778    0.000    0.000    0.000    0.000 
#    0.000    0.000    0.000    0.000    0.000    0.000 
#
# Total GULP energy -251178.630263 kJ/mol
# GULP energy per Si atom -5581.747339 kJ/mol
# Density = 2.276293 g / cm^3
# Si number density = 22.814853 Si / 1000 Ang^3
#
#
#
# Elastic Constant Matrix: (Units=GPa)
#
#
# Indices 1 2 3 4 5 6 
#
# 1 72.0215 5.4526 4.3583 0.0000 0.0000 0.0000
# 2 5.4526 143.4865 26.6793 0.0000 0.0000 0.0000
# 3 4.3583 26.6793 91.1326 0.0000 0.0000 0.0000
# 4 0.0000 0.0000 0.0000 9.2447 0.0000 0.0000
# 5 0.0000 0.0000 0.0000 0.0000 1.5712 0.0000
# 6 0.0000 0.0000 0.0000 0.0000 0.0000 -1.5964
#
#
#
# Elastic Compliance Matrix: (Units=1/GPa)
#
#
# Indices 1 2 3 4 5 6 
#
# 1 0.013950 -0.000429 -0.000541 0.000000 0.000000 0.000000
# 2 -0.000429 0.007384 -0.002141 0.000000 0.000000 0.000000
# 3 -0.000541 -0.002141 0.011626 0.000000 0.000000 0.000000
# 4 0.000000 0.000000 0.000000 0.108171 0.000000 0.000000
# 5 0.000000 0.000000 0.000000 0.000000 0.636445 0.000000
# 6 0.000000 0.000000 0.000000 0.000000 0.000000 -0.626403
#
#
# Mechanical properties :
#
#
# Convention : Reuss Voigt Hill
#
# Bulk Modulus (GPa) = 37.40334 42.18013 39.79173
# Shear Modulus (GPa) = 30.06469 19.85392 24.95931
#
# Velocity S-wave (km/s) = 3.63405 2.95315 3.31115
# Velocity P-wave (km/s) = 5.83423 5.49147 5.66544
#
# Compressibility (1/GPa) = 0.02673558
#
# Stress axis : x y z
#
# Youngs Moduli (GPa) = 71.68450 135.43314 86.01623
#
# Poissons Ratio (x) = 0.05816 0.04657
# Poissons Ratio (y) = 0.03078 0.18417
# Poissons Ratio (z) = 0.03881 0.28997
#
# Static dielectric constant tensor:
#      x y z
#    x 1.844680 0.000000 0.000000 
#    y 0.000000 1.853900 0.000000 
#    z 0.000000 0.000000 1.871320 
# 
# From -- ./inp_files/10537.got.cif
#   From: 2010.05.17/outbox.cif.g08.bks.cpg/sg71_6_cif.got.tgz:10537.got - 2010.06.03 16:22:01.
