data_PCOD9522420
_publ_section_title
;
Structure prediction by ZEFSAII (Michael W. Deem and Ramdas Pophale) SiO2 
 PCOD9522420
Probable space group: I M M M
;
_chemical_formula_sum "Si O2"
_cell_formula_units_Z 88
_cell_length_a 17.856062
_cell_length_b 18.637212
_cell_length_c 14.929871
_cell_angle_alpha 90.000000
_cell_angle_beta 90.000000
_cell_angle_gamma 90.000000
_cell_volume 4968.470160
_symmetry_space_group_name_H-M "I M M M"
_symmetry_group_IT_number 71
_symmetry_cell_setting 'orthorhombic'
loop_
_space_group_symop_operation_xyz
x,y,z
-x,-y,z
x,-y,-z
-x,y,-z
-x,-y,-z
x,y,-z
-x,y,z
x,-y,z
1/2+x,1/2+y,1/2+z
1/2-x,1/2-y,1/2+z
1/2+x,1/2-y,1/2-z
1/2-x,1/2+y,1/2-z
1/2-x,1/2-y,1/2-z
1/2+x,1/2+y,1/2-z
1/2-x,1/2+y,1/2+z
1/2+x,1/2-y,1/2+z
loop_
_atom_site_type_symbol
_atom_site_label
_atom_site_fract_x
_atom_site_fract_y
_atom_site_fract_z
Si Si1 0.911683 0.581327 0.500000
Si Si2 0.729305 0.000000 0.395854
Si Si3 0.089438 0.500000 0.793085
Si Si4 0.641179 0.860469 0.814914
Si Si5 0.213049 0.202798 0.893529
Si Si6 0.912215 0.208657 0.753365
Si Si7 0.802998 0.148975 0.606544
O O1 0.878893 0.500000 0.500000
O O2 0.889336 0.625657 0.413853
O O3 0.000000 0.573325 0.500000
O O4 0.765590 0.074255 0.362850
O O5 0.744973 0.000000 0.500000
O O6 0.640379 0.000000 0.380990
O O7 0.117708 0.569442 0.739251
O O8 0.000000 0.500000 0.803065
O O9 0.728227 0.843366 0.834330
O O10 0.602698 0.791989 0.770293
O O11 0.133529 0.195017 0.844974
O O12 0.244401 0.284641 0.885284
O O13 0.213246 0.185018 0.000000
O O14 0.872291 0.166974 0.671112
O O15 0.000000 0.193701 0.759985
O O16 0.822709 0.145623 0.500000
#
# Coordination Sequence:
#
# PCOD9522420 Si02
#       7
#     8   8   8  16  16  16  16
#     4  11  20  32  50  80 117 140 166 212 258 312
#     4  10  20  37  58  77 103 142 183 220 259 315
#     4  12  22  32  52  83 117 146 171 208 260 316
#     4  11  21  36  52  78 110 144 177 209 260 322
#     4  10  20  37  56  76 104 143 184 218 259 316
#     4  11  22  35  54  80 108 138 177 226 272 314
#     4   9  19  36  57  80 104 136 177 221 266 319
#
# _framework density 17.711690000000001
#
# number of rings (size 3 to 8) (size 9 to 14) (size 15 to 20)
#    0.000    1.545    1.818    6.000    1.273    0.909 
#    0.000    0.455    0.000    7.091    0.000    0.000 
#    0.000    5.091    0.000    0.000    0.000    0.364 
#
# Total GULP energy -245419.471758 kJ/mol
# GULP energy per Si atom -5577.715267 kJ/mol
# Density = 1.767138 g / cm^3
# Si number density = 17.711690 Si / 1000 Ang^3
#
#
#
# Elastic Constant Matrix: (Units=GPa)
#
#
# Indices 1 2 3 4 5 6 
#
# 1 158.3934 46.4717 47.5170 0.0000 0.0000 0.0000
# 2 46.4717 88.5978 16.4852 0.0000 0.0000 0.0000
# 3 47.5170 16.4852 54.0424 0.0000 0.0000 0.0000
# 4 0.0000 0.0000 0.0000 22.7956 0.0000 0.0000
# 5 0.0000 0.0000 0.0000 0.0000 17.9905 0.0000
# 6 0.0000 0.0000 0.0000 0.0000 0.0000 12.9287
#
#
#
# Elastic Compliance Matrix: (Units=1/GPa)
#
#
# Indices 1 2 3 4 5 6 
#
# 1 0.009581 -0.003666 -0.007305 0.000000 0.000000 0.000000
# 2 -0.003666 0.013369 -0.000855 0.000000 0.000000 0.000000
# 3 -0.007305 -0.000855 0.025188 0.000000 0.000000 0.000000
# 4 0.000000 0.000000 0.000000 0.043868 0.000000 0.000000
# 5 0.000000 0.000000 0.000000 0.000000 0.055585 0.000000
# 6 0.000000 0.000000 0.000000 0.000000 0.000000 0.077347
#
#
# Mechanical properties :
#
#
# Convention : Reuss Voigt Hill
#
# Bulk Modulus (GPa) = 40.84105 57.99793 49.41949
# Shear Modulus (GPa) = 19.47404 23.44694 21.46049
#
# Velocity S-wave (km/s) = 3.31947 3.64237 3.48466
# Velocity P-wave (km/s) = 6.14823 7.10674 6.64479
#
# Compressibility (1/GPa) = 0.02448517
#
# Stress axis : x y z
#
# Youngs Moduli (GPa) = 104.37817 74.80058 39.70125
#
# Poissons Ratio (x) = 0.27421 0.29004
# Poissons Ratio (y) = 0.38264 0.03394
# Poissons Ratio (z) = 0.76253 0.06394
#
# Static dielectric constant tensor:
#      x y z
#    x 1.596540 0.000000 0.000000 
#    y 0.000000 1.657680 0.000000 
#    z 0.000000 0.000000 1.617100 
# 
# From -- ./inp_files/36430.got.cif
#   From: 2010.05.17/outbox.cif.g08.bks.cpg/sg71_19_cif.got.tgz:36430.got - 2010.06.03 16:22:01.
