data_PCOD9522176
_publ_section_title
;
Structure prediction by ZEFSAII (Michael W. Deem and Ramdas Pophale) SiO2 
 PCOD9522176
Probable space group: I M M M
;
_chemical_formula_sum "Si O2"
_cell_formula_units_Z 66
_cell_length_a 19.495764
_cell_length_b 17.202205
_cell_length_c 9.973988
_cell_angle_alpha 90.000000
_cell_angle_beta 90.000000
_cell_angle_gamma 90.000000
_cell_volume 3344.977642
_symmetry_space_group_name_H-M "I M M M"
_symmetry_group_IT_number 71
_symmetry_cell_setting 'orthorhombic'
loop_
_space_group_symop_operation_xyz
x,y,z
-x,-y,z
x,-y,-z
-x,y,-z
-x,-y,-z
x,y,-z
-x,y,z
x,-y,z
1/2+x,1/2+y,1/2+z
1/2-x,1/2-y,1/2+z
1/2+x,1/2-y,1/2-z
1/2-x,1/2+y,1/2-z
1/2-x,1/2-y,1/2-z
1/2+x,1/2+y,1/2-z
1/2-x,1/2+y,1/2+z
1/2+x,1/2-y,1/2+z
loop_
_atom_site_type_symbol
_atom_site_label
_atom_site_fract_x
_atom_site_fract_y
_atom_site_fract_z
Si Si1 0.769959 0.868997 0.000000
Si Si2 0.892666 0.645653 0.500000
Si Si3 0.192440 0.411144 0.000000
Si Si4 0.878332 0.742054 0.000000
Si Si5 0.577253 0.281444 0.205132
Si Si6 0.000000 0.500000 0.500000
Si Si7 0.312999 0.412541 0.794023
O O1 0.802475 0.782033 0.000000
O O2 0.798457 0.906645 0.135736
O O3 0.688211 0.872109 0.000000
O O4 0.907989 0.701355 0.372664
O O5 0.939890 0.569462 0.500000
O O6 0.132250 0.349723 0.000000
O O7 0.241975 0.398866 0.127652
O O8 0.168713 0.500000 0.000000
O O9 0.914762 0.768248 0.135687
O O10 0.500000 0.306070 0.173536
O O11 0.632441 0.346981 0.167570
O O12 0.335912 0.500000 0.827861
#
# Coordination Sequence:
#
# PCOD9522176 Si02
#       7
#     8   8   8   8  16   2  16
#     4  10  21  37  64  86 117 154 193 249 288 342
#     4  12  24  43  64  85 117 157 203 240 294 339
#     4  10  20  36  54  84 116 144 185 255 300 340
#     4  10  21  39  59  88 115 154 200 236 298 347
#     4  11  22  40  60  83 120 159 194 237 288 355
#     4  12  28  44  60  94 118 156 198 254 276 356
#     4  10  21  36  59  92 119 147 194 239 295 349
#
# _framework density 19.731075000000001
#
# number of rings (size 3 to 8) (size 9 to 14) (size 15 to 20)
#    0.000    1.455    1.212    4.364    1.697    4.364 
#    2.182    0.000    0.000    9.455    0.000    0.000 
#    0.000    0.000    0.000    0.000    0.000    0.000 
#
# Total GULP energy -184132.522760 kJ/mol
# GULP energy per Si atom -5579.773417 kJ/mol
# Density = 1.968617 g / cm^3
# Si number density = 19.731075 Si / 1000 Ang^3
#
#
#
# Elastic Constant Matrix: (Units=GPa)
#
#
# Indices 1 2 3 4 5 6 
#
# 1 87.8377 26.0176 -11.0225 0.0000 0.0000 0.0000
# 2 26.0176 89.4207 10.7053 0.0000 0.0000 0.0000
# 3 -11.0225 10.7053 98.7889 0.0000 0.0000 0.0000
# 4 0.0000 0.0000 0.0000 20.7052 0.0000 0.0000
# 5 0.0000 0.0000 0.0000 0.0000 7.0315 0.0000
# 6 0.0000 0.0000 0.0000 0.0000 0.0000 25.2342
#
#
#
# Elastic Compliance Matrix: (Units=1/GPa)
#
#
# Indices 1 2 3 4 5 6 
#
# 1 0.012785 -0.003942 0.001854 0.000000 0.000000 0.000000
# 2 -0.003942 0.012545 -0.001799 0.000000 0.000000 0.000000
# 3 0.001854 -0.001799 0.010524 0.000000 0.000000 0.000000
# 4 0.000000 0.000000 0.000000 0.048297 0.000000 0.000000
# 5 0.000000 0.000000 0.000000 0.000000 0.142218 0.000000
# 6 0.000000 0.000000 0.000000 0.000000 0.000000 0.039629
#
#
# Mechanical properties :
#
#
# Convention : Reuss Voigt Hill
#
# Bulk Modulus (GPa) = 35.61283 36.38310 35.99797
# Shear Modulus (GPa) = 17.65954 27.28397 22.47176
#
# Velocity S-wave (km/s) = 2.99492 3.72263 3.37842
# Velocity P-wave (km/s) = 5.48158 6.07921 5.78811
#
# Compressibility (1/GPa) = 0.02807977
#
# Stress axis : x y z
#
# Youngs Moduli (GPa) = 78.21796 79.71060 95.01730
#
# Poissons Ratio (x) = 0.31420 -0.17613
# Poissons Ratio (y) = 0.30831 0.17096
# Poissons Ratio (z) = -0.14499 0.14342
#
# Static dielectric constant tensor:
#      x y z
#    x 1.662220 0.000000 0.000000 
#    y 0.000000 1.693570 0.000000 
#    z 0.000000 0.000000 1.647920 
# 
# From -- ./inp_files/9700.got.cif
#   From: 2010.05.17/outbox.cif.g08.bks.cpg/sg71_5_cif.got.tgz:9700.got - 2010.06.03 16:22:01.
