data_PCOD9522228
_publ_section_title
;
Structure prediction by ZEFSAII (Michael W. Deem and Ramdas Pophale) SiO2 
 PCOD9522228
Probable space group: I M M M
;
_chemical_formula_sum "Si O2"
_cell_formula_units_Z 80
_cell_length_a 7.596582
_cell_length_b 17.392722
_cell_length_c 28.381115
_cell_angle_alpha 90.000000
_cell_angle_beta 90.000000
_cell_angle_gamma 90.000000
_cell_volume 3749.861599
_symmetry_space_group_name_H-M "I M M M"
_symmetry_group_IT_number 71
_symmetry_cell_setting 'orthorhombic'
loop_
_space_group_symop_operation_xyz
x,y,z
-x,-y,z
x,-y,-z
-x,y,-z
-x,-y,-z
x,y,-z
-x,y,z
x,-y,z
1/2+x,1/2+y,1/2+z
1/2-x,1/2-y,1/2+z
1/2+x,1/2-y,1/2-z
1/2-x,1/2+y,1/2-z
1/2-x,1/2-y,1/2-z
1/2+x,1/2+y,1/2-z
1/2-x,1/2+y,1/2+z
1/2+x,1/2-y,1/2+z
loop_
_atom_site_type_symbol
_atom_site_label
_atom_site_fract_x
_atom_site_fract_y
_atom_site_fract_z
Si Si1 0.289463 0.912147 0.816594
Si Si2 0.715327 0.088541 0.000000
Si Si3 0.784134 0.681189 0.592314
Si Si4 0.709883 0.349370 0.114214
Si Si5 0.788478 0.088397 0.712314
Si Si6 0.209742 0.500000 0.946567
O O1 0.500000 0.916557 0.821432
O O2 0.225906 0.860396 0.859596
O O3 0.253448 0.881014 0.764244
O O4 0.220310 0.000000 0.819054
O O5 0.772283 0.133473 0.046748
O O6 0.500000 0.087984 0.000000
O O7 0.772147 0.000000 0.000000
O O8 0.723984 0.769551 0.592734
O O9 0.000000 0.680507 0.591671
O O10 0.500000 0.340050 0.118716
O O11 0.778871 0.366018 0.166927
O O12 0.738578 0.423780 0.081991
O O13 0.000000 0.085408 0.708758
O O14 0.723051 0.000000 0.709907
O O15 0.000000 0.500000 0.949182
O O16 0.280667 0.500000 0.000000
#
# Coordination Sequence:
#
# PCOD9522228 Si02
#       6
#    16   8  16  16  16   8
#     4   9  17  30  49  75 108 144 178 216 264 318
#     4   9  16  28  48  75 109 142 170 215 273 311
#     4   9  18  30  48  78 108 136 178 226 265 313
#     4  10  20  36  57  80 106 138 181 225 264 312
#     4   9  17  31  49  72 102 138 178 220 264 313
#     4  11  25  41  57  79 109 143 177 216 271 330
#
# _framework density 21.334121
#
# number of rings (size 3 to 8) (size 9 to 14) (size 15 to 20)
#    0.000    2.600    1.000    0.900    1.400    4.800 
#    0.000    1.000    0.000    0.000    0.000    0.000 
#    0.000    4.800    0.000    0.000    0.000    0.000 
#
# Total GULP energy -223323.357852 kJ/mol
# GULP energy per Si atom -5583.083946 kJ/mol
# Density = 2.128556 g / cm^3
# Si number density = 21.334121 Si / 1000 Ang^3
#
#
#
# Elastic Constant Matrix: (Units=GPa)
#
#
# Indices 1 2 3 4 5 6 
#
# 1 41.9140 0.9472 -1.1656 0.0000 0.0000 0.0000
# 2 0.9472 175.8618 130.3877 0.0000 0.0000 0.0000
# 3 -1.1656 130.3877 220.7867 0.0000 0.0000 0.0000
# 4 0.0000 0.0000 0.0000 14.6249 0.0000 0.0000
# 5 0.0000 0.0000 0.0000 0.0000 21.8066 0.0000
# 6 0.0000 0.0000 0.0000 0.0000 0.0000 -7.3857
#
#
#
# Elastic Compliance Matrix: (Units=1/GPa)
#
#
# Indices 1 2 3 4 5 6 
#
# 1 0.023877 -0.000395 0.000359 0.000000 0.000000 0.000000
# 2 -0.000395 0.010122 -0.005980 0.000000 0.000000 0.000000
# 3 0.000359 -0.005980 0.008062 0.000000 0.000000 0.000000
# 4 0.000000 0.000000 0.000000 0.068377 0.000000 0.000000
# 5 0.000000 0.000000 0.000000 0.000000 0.045858 0.000000
# 6 0.000000 0.000000 0.000000 0.000000 0.000000 -0.135396
#
#
# Mechanical properties :
#
#
# Convention : Reuss Voigt Hill
#
# Bulk Modulus (GPa) = 33.29893 77.65568 55.47730
# Shear Modulus (GPa) = 116.44022 26.36870 71.40446
#
# Velocity S-wave (km/s) = 7.39580 3.51948 5.79157
# Velocity P-wave (km/s) = 9.41130 7.27972 8.41329
#
# Compressibility (1/GPa) = 0.03003100
#
# Stress axis : x y z
#
# Youngs Moduli (GPa) = 41.88077 98.79629 124.03126
#
# Poissons Ratio (x) = 0.03903 -0.04457
# Poissons Ratio (y) = 0.01654 0.74166
# Poissons Ratio (z) = -0.01505 0.59077
#
# Static dielectric constant tensor:
#      x y z
#    x 1.804900 0.000000 0.000000 
#    y 0.000000 1.800250 0.000000 
#    z 0.000000 0.000000 1.752790 
# 
# From -- ./inp_files/8382.got.cif
#   From: 2010.05.17/outbox.cif.g08.bks.cpg/sg71_5_cif.got.tgz:8382.got - 2010.06.03 16:22:01.
