data_PCOD9522386
_publ_section_title
;
Structure prediction by ZEFSAII (Michael W. Deem and Ramdas Pophale) SiO2 
 PCOD9522386
Probable space group: I M M M
;
_chemical_formula_sum "Si O2"
_cell_formula_units_Z 66
_cell_length_a 24.478649
_cell_length_b 15.472095
_cell_length_c 9.611418
_cell_angle_alpha 90.000000
_cell_angle_beta 90.000000
_cell_angle_gamma 90.000000
_cell_volume 3640.189842
_symmetry_space_group_name_H-M "I M M M"
_symmetry_group_IT_number 71
_symmetry_cell_setting 'orthorhombic'
loop_
_space_group_symop_operation_xyz
x,y,z
-x,-y,z
x,-y,-z
-x,y,-z
-x,-y,-z
x,y,-z
-x,y,z
x,-y,z
1/2+x,1/2+y,1/2+z
1/2-x,1/2-y,1/2+z
1/2+x,1/2-y,1/2-z
1/2-x,1/2+y,1/2-z
1/2-x,1/2-y,1/2-z
1/2+x,1/2+y,1/2-z
1/2-x,1/2+y,1/2+z
1/2+x,1/2-y,1/2+z
loop_
_atom_site_type_symbol
_atom_site_label
_atom_site_fract_x
_atom_site_fract_y
_atom_site_fract_z
Si Si1 0.806549 0.250270 0.168177
Si Si2 0.106721 0.099895 0.163341
Si Si3 0.000000 0.500000 0.500000
Si Si4 0.000000 0.349638 0.267572
Si Si5 0.500000 0.649493 0.161615
Si Si6 0.615614 0.096759 0.336165
O O1 0.750000 0.250000 0.250000
O O2 0.844629 0.166691 0.196122
O O3 0.840815 0.334222 0.216915
O O4 0.798263 0.253934 0.000000
O O5 0.053950 0.117051 0.258243
O O6 0.123841 0.000000 0.179061
O O7 0.091969 0.113663 0.000000
O O8 0.000000 0.575815 0.381334
O O9 0.000000 0.253562 0.328186
O O10 0.055369 0.364675 0.182524
O O11 0.500000 0.623129 0.000000
O O12 0.625704 0.089571 0.500000
O O13 0.618835 0.000000 0.274401
#
# Coordination Sequence:
#
# PCOD9522386 Si02
#       6
#    16  16   2   8   8  16
#     4  10  22  40  59  85 115 152 200 247 291 347
#     4  10  22  41  64  86 118 159 202 243 293 355
#     4  12  24  36  50  88 138 156 188 226 296 374
#     4  12  21  36  56  85 123 156 185 230 292 360
#     4  12  24  36  58  93 124 153 190 241 301 350
#     4  10  20  36  61  87 111 145 192 241 288 346
#
# _framework density 18.130922000000002
#
# number of rings (size 3 to 8) (size 9 to 14) (size 15 to 20)
#    0.000    1.455    4.242    1.091    0.000    5.818 
#    2.182    0.000    0.000    0.000    0.000    0.000 
#    0.000    0.000    0.000    0.000    0.000    0.000 
#
# Total GULP energy -183883.742301 kJ/mol
# GULP energy per Si atom -5572.234615 kJ/mol
# Density = 1.808966 g / cm^3
# Si number density = 18.130922 Si / 1000 Ang^3
#
#
#
# Elastic Constant Matrix: (Units=GPa)
#
#
# Indices 1 2 3 4 5 6 
#
# 1 169.7949 76.8411 54.1903 0.0000 0.0000 0.0000
# 2 76.8411 116.9845 43.2437 0.0000 0.0000 0.0000
# 3 54.1903 43.2437 55.5364 0.0000 0.0000 0.0000
# 4 0.0000 0.0000 0.0000 -50.5887 0.0000 0.0000
# 5 0.0000 0.0000 0.0000 0.0000 66.4040 0.0000
# 6 0.0000 0.0000 0.0000 0.0000 0.0000 8.2056
#
#
#
# Elastic Compliance Matrix: (Units=1/GPa)
#
#
# Indices 1 2 3 4 5 6 
#
# 1 0.009755 -0.004057 -0.006360 0.000000 0.000000 0.000000
# 2 -0.004057 0.013690 -0.006701 0.000000 0.000000 0.000000
# 3 -0.006360 -0.006701 0.029430 0.000000 0.000000 0.000000
# 4 0.000000 0.000000 0.000000 -0.019767 0.000000 0.000000
# 5 0.000000 0.000000 0.000000 0.000000 0.015059 0.000000
# 6 0.000000 0.000000 0.000000 0.000000 0.000000 0.121869
#
#
# Mechanical properties :
#
#
# Convention : Reuss Voigt Hill
#
# Bulk Modulus (GPa) = 53.65059 76.76290 65.20675
# Shear Modulus (GPa) = 23.75468 16.00689 19.88079
#
# Velocity S-wave (km/s) = 3.62356 2.97450 3.31496
# Velocity P-wave (km/s) = 6.86745 7.36389 7.12000
#
# Compressibility (1/GPa) = 0.01863912
#
# Stress axis : x y z
#
# Youngs Moduli (GPa) = 102.51072 73.04637 33.97889
#
# Poissons Ratio (x) = 0.29632 0.21610
# Poissons Ratio (y) = 0.41585 0.22771
# Poissons Ratio (z) = 0.65196 0.48951
#
# Static dielectric constant tensor:
#      x y z
#    x 1.590180 0.000000 0.000000 
#    y 0.000000 1.652350 0.000000 
#    z 0.000000 0.000000 1.616480 
# 
# From -- ./inp_files/12039.got.cif
#   From: 2010.05.17/outbox.cif.g08.bks.cpg/sg71_7_cif.got.tgz:12039.got - 2010.06.03 16:22:01.
