data_PCOD9522249
_publ_section_title
;
Structure prediction by ZEFSAII (Michael W. Deem and Ramdas Pophale) SiO2 
 PCOD9522249
Probable space group: I M M M
;
_chemical_formula_sum "Si O2"
_cell_formula_units_Z 72
_cell_length_a 13.680587
_cell_length_b 12.455165
_cell_length_c 18.907250
_cell_angle_alpha 90.000000
_cell_angle_beta 90.000000
_cell_angle_gamma 90.000000
_cell_volume 3221.681359
_symmetry_space_group_name_H-M "I M M M"
_symmetry_group_IT_number 71
_symmetry_cell_setting 'orthorhombic'
loop_
_space_group_symop_operation_xyz
x,y,z
-x,-y,z
x,-y,-z
-x,y,-z
-x,-y,-z
x,y,-z
-x,y,z
x,-y,z
1/2+x,1/2+y,1/2+z
1/2-x,1/2-y,1/2+z
1/2+x,1/2-y,1/2-z
1/2-x,1/2+y,1/2-z
1/2-x,1/2-y,1/2-z
1/2+x,1/2+y,1/2-z
1/2-x,1/2+y,1/2+z
1/2+x,1/2-y,1/2+z
loop_
_atom_site_type_symbol
_atom_site_label
_atom_site_fract_x
_atom_site_fract_y
_atom_site_fract_z
Si Si1 0.120124 0.000000 0.084055
Si Si2 0.616135 0.119299 0.782622
Si Si3 0.803696 0.618206 0.916133
Si Si4 0.111688 0.247662 0.582720
Si Si5 0.890023 0.208523 0.170311
O O1 0.151781 0.896310 0.130647
O O2 0.000000 0.000000 0.081499
O O3 0.150679 0.000000 0.000000
O O4 0.500000 0.113191 0.766588
O O5 0.624106 0.153527 0.864240
O O6 0.651434 0.220566 0.735526
O O7 0.657756 0.000000 0.770763
O O8 0.819875 0.500000 0.886832
O O9 0.695642 0.662548 0.898247
O O10 0.883542 0.701063 0.889755
O O11 0.807358 0.613353 0.000000
O O12 0.123641 0.276017 0.500000
O O13 0.000000 0.207066 0.591829
O O14 0.000000 0.178239 0.190963
#
# Coordination Sequence:
#
# PCOD9522249 Si02
#       5
#     8  16  16  16  16
#     4   9  18  34  56  80 112 154 192 226 266 321
#     4   9  18  34  57  85 116 149 187 234 287 342
#     4  10  21  36  55  83 115 147 189 235 280 339
#     4   9  19  37  58  81 111 149 193 240 290 337
#     4  10  20  36  57  84 117 151 185 226 280 340
#
# _framework density 22.348579000000001
#
# number of rings (size 3 to 8) (size 9 to 14) (size 15 to 20)
#    0.000    2.556    0.000    1.333    0.000    4.444 
#    4.000    5.556    0.000    0.000    0.000    0.000 
#    0.000    0.000    0.000    0.000    0.000    0.000 
#
# Total GULP energy -200552.226354 kJ/mol
# GULP energy per Si atom -5570.895177 kJ/mol
# Density = 2.229771 g / cm^3
# Si number density = 22.348579 Si / 1000 Ang^3
#
#
#
# Elastic Constant Matrix: (Units=GPa)
#
#
# Indices 1 2 3 4 5 6 
#
# 1 61.3692 8.9282 -2.4263 0.0000 0.0000 0.0000
# 2 8.9282 159.2738 69.3253 0.0000 0.0000 0.0000
# 3 -2.4263 69.3253 60.2912 0.0000 0.0000 0.0000
# 4 0.0000 0.0000 0.0000 23.1004 0.0000 0.0000
# 5 0.0000 0.0000 0.0000 0.0000 -3.7362 0.0000
# 6 0.0000 0.0000 0.0000 0.0000 0.0000 -14.6134
#
#
#
# Elastic Compliance Matrix: (Units=1/GPa)
#
#
# Indices 1 2 3 4 5 6 
#
# 1 0.016794 -0.002473 0.003520 0.000000 0.000000 0.000000
# 2 -0.002473 0.012933 -0.014971 0.000000 0.000000 0.000000
# 3 0.003520 -0.014971 0.033942 0.000000 0.000000 0.000000
# 4 0.000000 0.000000 0.000000 0.043289 0.000000 0.000000
# 5 0.000000 0.000000 0.000000 0.000000 -0.267654 0.000000
# 6 0.000000 0.000000 0.000000 0.000000 0.000000 -0.068430
#
#
# Mechanical properties :
#
#
# Convention : Reuss Voigt Hill
#
# Bulk Modulus (GPa) = 27.91713 48.06542 37.99127
# Shear Modulus (GPa) = -26.40795 14.62397 -5.89199
#
# Velocity S-wave (km/s) = -3.44123 2.56082 -1.62546
# Velocity P-wave (km/s) = 1.80848 5.50432 3.67607
#
# Compressibility (1/GPa) = 0.03582030
#
# Stress axis : x y z
#
# Youngs Moduli (GPa) = 59.54572 77.31973 29.46216
#
# Poissons Ratio (x) = 0.19125 -0.10370
# Poissons Ratio (y) = 0.14728 0.44107
# Poissons Ratio (z) = -0.20960 1.15754
#
# Static dielectric constant tensor:
#      x y z
#    x 1.868460 0.000000 0.000000 
#    y 0.000000 1.809280 0.000000 
#    z 0.000000 0.000000 1.849750 
# 
# From -- ./inp_files/43084.got.cif
#   From: 2010.05.17/outbox.cif.g08.bks.cpg/sg71_22_cif.got.tgz:43084.got - 2010.06.03 16:22:01.
