data_PCOD9522476
_publ_section_title
;
Structure prediction by ZEFSAII (Michael W. Deem and Ramdas Pophale) SiO2 
 PCOD9522476
Probable space group: I M M M
;
_chemical_formula_sum "Si O2"
_cell_formula_units_Z 96
_cell_length_a 21.155717
_cell_length_b 22.450564
_cell_length_c 12.061898
_cell_angle_alpha 90.000000
_cell_angle_beta 90.000000
_cell_angle_gamma 90.000000
_cell_volume 5728.892278
_symmetry_space_group_name_H-M "I M M M"
_symmetry_group_IT_number 71
_symmetry_cell_setting 'orthorhombic'
loop_
_space_group_symop_operation_xyz
x,y,z
-x,-y,z
x,-y,-z
-x,y,-z
-x,-y,-z
x,y,-z
-x,y,z
x,-y,z
1/2+x,1/2+y,1/2+z
1/2-x,1/2-y,1/2+z
1/2+x,1/2-y,1/2-z
1/2-x,1/2+y,1/2-z
1/2-x,1/2-y,1/2-z
1/2+x,1/2+y,1/2-z
1/2-x,1/2+y,1/2+z
1/2+x,1/2-y,1/2+z
loop_
_atom_site_type_symbol
_atom_site_label
_atom_site_fract_x
_atom_site_fract_y
_atom_site_fract_z
Si Si1 0.500000 0.070600 0.622820
Si Si2 0.117273 0.613638 0.738007
Si Si3 0.426009 0.928598 0.000000
Si Si4 0.576731 0.314572 0.000000
Si Si5 0.781574 0.819249 0.872492
Si Si6 0.244620 0.930009 0.724075
Si Si7 0.850709 0.742738 0.691028
Si Si8 0.163004 0.070424 0.500000
O O1 0.500000 0.097032 0.500000
O O2 0.439374 0.088636 0.691489
O O3 0.500000 0.000000 0.614278
O O4 0.108600 0.593692 0.610351
O O5 0.182240 0.588593 0.788287
O O6 0.114902 0.684717 0.737520
O O7 0.500000 0.908954 0.000000
O O8 0.425877 0.000000 0.000000
O O9 0.606694 0.279293 0.895033
O O10 0.500000 0.314283 0.000000
O O11 0.606425 0.381430 0.000000
O O12 0.777221 0.885407 0.821074
O O13 0.827895 0.783622 0.791652
O O14 0.713410 0.785553 0.863028
O O15 0.800582 0.819897 0.000000
O O16 0.205520 0.919468 0.610543
O O17 0.239843 0.000000 0.751163
O O18 0.144263 0.000000 0.500000
#
# Coordination Sequence:
#
# PCOD9522476 Si02
#       8
#     8  16   8   8  16  16  16   8
#     4  11  24  39  53  73 111 156 207 244 278 338
#     4  11  23  36  54  81 113 159 195 242 289 339
#     4  11  21  35  54  76 115 159 196 240 284 332
#     4  12  23  39  67  89 121 154 195 249 297 363
#     4  10  20  37  60  84 119 153 186 242 292 343
#     4  10  21  36  59  86 116 149 193 244 295 355
#     4  10  22  37  56  87 116 150 197 233 293 352
#     4  10  22  42  63  90 119 146 192 254 317 359
#
# _framework density 16.757166000000002
#
# number of rings (size 3 to 8) (size 9 to 14) (size 15 to 20)
#    0.000    1.500    3.333    2.000    5.833    1.833 
#    0.000    0.000    0.000    0.000    0.000    0.000 
#    0.000    2.667    0.000    0.000    0.000    0.000 
#
# Total GULP energy -267865.380254 kJ/mol
# GULP energy per Si atom -5580.528755 kJ/mol
# Density = 1.671903 g / cm^3
# Si number density = 16.757166 Si / 1000 Ang^3
#
#
#
# Elastic Constant Matrix: (Units=GPa)
#
#
# Indices 1 2 3 4 5 6 
#
# 1 91.6379 60.8056 54.6128 0.0000 0.0000 0.0000
# 2 60.8056 131.7602 64.0335 0.0000 0.0000 0.0000
# 3 54.6128 64.0335 128.2863 0.0000 0.0000 0.0000
# 4 0.0000 0.0000 0.0000 23.5536 0.0000 0.0000
# 5 0.0000 0.0000 0.0000 0.0000 56.9821 0.0000
# 6 0.0000 0.0000 0.0000 0.0000 0.0000 14.9648
#
#
#
# Elastic Compliance Matrix: (Units=1/GPa)
#
#
# Indices 1 2 3 4 5 6 
#
# 1 0.017509 -0.005886 -0.004516 0.000000 0.000000 0.000000
# 2 -0.005886 0.011999 -0.003484 0.000000 0.000000 0.000000
# 3 -0.004516 -0.003484 0.011456 0.000000 0.000000 0.000000
# 4 0.000000 0.000000 0.000000 0.042456 0.000000 0.000000
# 5 0.000000 0.000000 0.000000 0.000000 0.017549 0.000000
# 6 0.000000 0.000000 0.000000 0.000000 0.000000 0.066823
#
#
# Mechanical properties :
#
#
# Convention : Reuss Voigt Hill
#
# Bulk Modulus (GPa) = 75.79258 78.95427 77.37343
# Shear Modulus (GPa) = 25.00482 30.58229 27.79355
#
# Velocity S-wave (km/s) = 3.86707 4.27667 4.07702
# Velocity P-wave (km/s) = 8.07881 8.46201 8.27263
#
# Compressibility (1/GPa) = 0.01319390
#
# Stress axis : x y z
#
# Youngs Moduli (GPa) = 57.11265 83.34330 87.28736
#
# Poissons Ratio (x) = 0.49052 0.39420
# Poissons Ratio (y) = 0.33614 0.30407
# Poissons Ratio (z) = 0.25793 0.29033
#
# Static dielectric constant tensor:
#      x y z
#    x 1.561770 0.000000 0.000000 
#    y 0.000000 1.573710 0.000000 
#    z 0.000000 0.000000 1.548570 
# 
# From -- ./inp_files/26052.got.cif
#   From: 2010.05.17/outbox.cif.g08.bks.cpg/sg71_14_cif.got.tgz:26052.got - 2010.06.03 16:22:01.
