data_PCOD9522651
_publ_section_title
;
Structure prediction by ZEFSAII (Michael W. Deem and Ramdas Pophale) SiO2 
 PCOD9522651
Probable space group: I M M M
;
_chemical_formula_sum "Si O2"
_cell_formula_units_Z 84
_cell_length_a 26.046232
_cell_length_b 12.993927
_cell_length_c 13.675877
_cell_angle_alpha 90.000000
_cell_angle_beta 90.000000
_cell_angle_gamma 90.000000
_cell_volume 4628.502614
_symmetry_space_group_name_H-M "I M M M"
_symmetry_group_IT_number 71
_symmetry_cell_setting 'orthorhombic'
loop_
_space_group_symop_operation_xyz
x,y,z
-x,-y,z
x,-y,-z
-x,y,-z
-x,-y,-z
x,y,-z
-x,y,z
x,-y,z
1/2+x,1/2+y,1/2+z
1/2-x,1/2-y,1/2+z
1/2+x,1/2-y,1/2-z
1/2-x,1/2+y,1/2-z
1/2-x,1/2-y,1/2-z
1/2+x,1/2+y,1/2-z
1/2-x,1/2+y,1/2+z
1/2+x,1/2-y,1/2+z
loop_
_atom_site_type_symbol
_atom_site_label
_atom_site_fract_x
_atom_site_fract_y
_atom_site_fract_z
Si Si1 0.613764 0.000000 0.688864
Si Si2 0.216342 0.118525 0.500000
Si Si3 0.184560 0.500000 0.000000
Si Si4 0.911113 0.294041 0.252451
Si Si5 0.181991 0.500000 0.387359
Si Si6 0.938380 0.883793 0.891903
Si Si7 0.000000 0.622440 0.383572
Si Si8 0.294742 0.777612 0.826542
O O1 0.583009 0.105475 0.684068
O O2 0.653721 0.000000 0.600550
O O3 0.639937 0.000000 0.798556
O O4 0.277431 0.097582 0.500000
O O5 0.203298 0.187674 0.593094
O O6 0.195164 0.000000 0.500000
O O7 0.924734 0.193089 0.193339
O O8 0.851495 0.283621 0.280474
O O9 0.949795 0.320299 0.340638
O O10 0.161559 0.500000 0.500000
O O11 0.212613 0.607122 0.371406
O O12 0.000000 0.887892 0.895952
O O13 0.919540 0.000000 0.874716
O O14 0.920008 0.850322 0.000000
O O15 0.000000 0.500000 0.356245
O O16 0.000000 0.627139 0.500000
O O17 0.250000 0.750000 0.750000
#
# Coordination Sequence:
#
# PCOD9522651 Si02
#       8
#     8   8   4  16   8  16   8  16
#     4  10  22  35  61  97 123 169 203 263 333 383
#     4  10  22  39  63  83 120 167 209 255 317 380
#     4  10  22  42  62  87 138 167 212 254 334 392
#     4  11  22  39  66  91 127 158 215 264 319 377
#     4  10  20  40  63  89 123 163 219 267 317 376
#     4   9  19  38  62  86 118 162 202 245 307 370
#     4  11  24  42  66  97 130 166 214 268 326 388
#     4  11  24  41  63  91 125 168 212 264 323 387
#
# _framework density 18.148416999999998
#
# number of rings (size 3 to 8) (size 9 to 14) (size 15 to 20)
#    0.286    1.429    2.857    2.857    4.000    1.524 
#    1.714    0.000    0.000    2.857    0.000    0.000 
#    0.000    0.000    0.000    0.000    0.000    0.000 
#
# Total GULP energy -233922.374486 kJ/mol
# GULP energy per Si atom -5569.580345 kJ/mol
# Density = 1.810711 g / cm^3
# Si number density = 18.148417 Si / 1000 Ang^3
#
#
#
# Elastic Constant Matrix: (Units=GPa)
#
#
# Indices 1 2 3 4 5 6 
#
# 1 74.8201 26.6247 33.7470 0.0000 0.0000 0.0000
# 2 26.6247 136.7975 63.5321 0.0000 0.0000 0.0000
# 3 33.7470 63.5321 95.4914 0.0000 0.0000 0.0000
# 4 0.0000 0.0000 0.0000 35.8758 0.0000 0.0000
# 5 0.0000 0.0000 0.0000 0.0000 1.0516 0.0000
# 6 0.0000 0.0000 0.0000 0.0000 0.0000 26.9001
#
#
#
# Elastic Compliance Matrix: (Units=1/GPa)
#
#
# Indices 1 2 3 4 5 6 
#
# 1 0.015947 -0.000704 -0.005167 0.000000 0.000000 0.000000
# 2 -0.000704 0.010610 -0.006810 0.000000 0.000000 0.000000
# 3 -0.005167 -0.006810 0.016829 0.000000 0.000000 0.000000
# 4 0.000000 0.000000 0.000000 0.027874 0.000000 0.000000
# 5 0.000000 0.000000 0.000000 0.000000 0.950929 0.000000
# 6 0.000000 0.000000 0.000000 0.000000 0.000000 0.037175
#
#
# Mechanical properties :
#
#
# Convention : Reuss Voigt Hill
#
# Bulk Modulus (GPa) = 55.48467 61.65739 58.57103
# Shear Modulus (GPa) = 4.58407 24.97919 14.78163
#
# Velocity S-wave (km/s) = 1.59103 3.71399 2.85702
# Velocity P-wave (km/s) = 5.83217 7.24150 6.57471
#
# Compressibility (1/GPa) = 0.01802300
#
# Stress axis : x y z
#
# Youngs Moduli (GPa) = 62.70962 94.25166 59.42038
#
# Poissons Ratio (x) = 0.06634 0.30704
# Poissons Ratio (y) = 0.04414 0.40467
# Poissons Ratio (z) = 0.32404 0.64187
#
# Static dielectric constant tensor:
#      x y z
#    x 1.663820 0.000000 0.000000 
#    y 0.000000 1.650350 0.000000 
#    z 0.000000 0.000000 1.482920 
# 
# From -- ./inp_files/39056.got.cif
#   From: 2010.05.17/outbox.cif.g08.bks.cpg/sg71_20_cif.got.tgz:39056.got - 2010.06.03 16:22:01.
