data_PCOD9522833
_publ_section_title
;
Structure prediction by ZEFSAII (Michael W. Deem and Ramdas Pophale) SiO2 
 PCOD9522833
Probable space group: I M M M
;
_chemical_formula_sum "Si O2"
_cell_formula_units_Z 88
_cell_length_a 8.047507
_cell_length_b 30.396108
_cell_length_c 17.815840
_cell_angle_alpha 90.000000
_cell_angle_beta 90.000000
_cell_angle_gamma 90.000000
_cell_volume 4357.984144
_symmetry_space_group_name_H-M "I M M M"
_symmetry_group_IT_number 71
_symmetry_cell_setting 'orthorhombic'
loop_
_space_group_symop_operation_xyz
x,y,z
-x,-y,z
x,-y,-z
-x,y,-z
-x,-y,-z
x,y,-z
-x,y,z
x,-y,z
1/2+x,1/2+y,1/2+z
1/2-x,1/2-y,1/2+z
1/2+x,1/2-y,1/2-z
1/2-x,1/2+y,1/2-z
1/2-x,1/2-y,1/2-z
1/2+x,1/2+y,1/2-z
1/2-x,1/2+y,1/2+z
1/2+x,1/2-y,1/2+z
loop_
_atom_site_type_symbol
_atom_site_label
_atom_site_fract_x
_atom_site_fract_y
_atom_site_fract_z
Si Si1 0.308404 0.110630 0.361882
Si Si2 0.300609 0.551728 0.583985
Si Si3 0.696267 0.550045 0.000000
Si Si4 0.194119 0.622333 0.302558
Si Si5 0.309422 0.296105 0.090161
Si Si6 0.203749 0.698331 0.587019
O O1 0.500000 0.097647 0.355112
O O2 0.238933 0.078700 0.426136
O O3 0.230395 0.111021 0.278534
O O4 0.292593 0.161390 0.386786
O O5 0.252143 0.566103 0.500000
O O6 0.500000 0.557533 0.591045
O O7 0.266542 0.500000 0.590631
O O8 0.209503 0.579872 0.645609
O O9 0.768026 0.500000 0.000000
O O10 0.500000 0.545640 0.000000
O O11 0.263391 0.662281 0.353237
O O12 0.000000 0.633407 0.289559
O O13 0.500000 0.301570 0.117159
O O14 0.246625 0.247637 0.111583
O O15 0.315256 0.295167 0.000000
O O16 0.255859 0.690163 0.500000
O O17 0.000000 0.697898 0.585673
#
# Coordination Sequence:
#
# PCOD9522833 Si02
#       6
#    16  16   8  16  16  16
#     4  11  23  37  56  84 116 145 175 226 289 337
#     4   9  19  36  56  78 107 144 184 227 275 323
#     4  11  25  45  67  85 101 135 191 241 286 351
#     4  10  21  35  53  82 117 149 184 224 273 336
#     4   9  17  32  56  80 105 146 195 229 261 322
#     4   8  15  30  53  80 111 151 191 225 261 307
#
# _framework density 20.192823000000001
#
# number of rings (size 3 to 8) (size 9 to 14) (size 15 to 20)
#    0.000    2.455    0.909    3.000    0.000    5.091 
#    0.000    5.455    0.000    1.091    0.000    0.000 
#    0.000    0.000    0.000    0.000    0.000    0.000 
#
# Total GULP energy -245321.943416 kJ/mol
# GULP energy per Si atom -5575.498714 kJ/mol
# Density = 2.014686 g / cm^3
# Si number density = 20.192823 Si / 1000 Ang^3
#
#
#
# Elastic Constant Matrix: (Units=GPa)
#
#
# Indices 1 2 3 4 5 6 
#
# 1 11.7186 10.6792 13.7007 0.0000 0.0000 0.0000
# 2 10.6792 103.5701 87.7587 0.0001 0.0000 0.0000
# 3 13.7007 87.7587 138.2454 0.0005 0.0001 0.0000
# 4 0.0000 0.0001 0.0005 14.4208 0.0001 0.0001
# 5 0.0000 0.0000 0.0001 0.0001 5.2637 0.0000
# 6 0.0000 0.0000 0.0000 0.0001 0.0000 6.8990
#
#
#
# Elastic Compliance Matrix: (Units=1/GPa)
#
#
# Indices 1 2 3 4 5 6 
#
# 1 0.097289 -0.004029 -0.007084 0.000000 0.000000 0.000000
# 2 -0.004029 0.021061 -0.012970 0.000000 0.000000 0.000000
# 3 -0.007084 -0.012970 0.016169 0.000000 0.000000 0.000000
# 4 0.000000 0.000000 0.000000 0.069344 -0.000001 -0.000001
# 5 0.000000 0.000000 0.000000 -0.000001 0.189982 -0.000001
# 6 0.000000 0.000000 0.000000 -0.000001 -0.000001 0.144948
#
#
# Mechanical properties :
#
#
# Convention : Reuss Voigt Hill
#
# Bulk Modulus (GPa) = 11.58050 53.09014 32.33532
# Shear Modulus (GPa) = 8.12027 14.74306 11.43166
#
# Velocity S-wave (km/s) = 2.00751 2.70499 2.38192
# Velocity P-wave (km/s) = 3.33480 6.00871 4.85930
#
# Compressibility (1/GPa) = 0.08635206
#
# Stress axis : x y z
#
# Youngs Moduli (GPa) = 10.27870 47.48134 61.84614
#
# Poissons Ratio (x) = 0.19130 0.43813
# Poissons Ratio (y) = 0.04141 0.80216
# Poissons Ratio (z) = 0.07282 0.61585
#
# Static dielectric constant tensor:
#      x y z
#    x 1.731250 0.000000 0.000000 
#    y 0.000000 1.711170 0.000000 
#    z 0.000000 0.000000 1.735200 
# 
# From -- ./inp_files/42442.got.cif
#   From: 2010.05.17/outbox.cif.g08.bks.cpg/sg71_22_cif.got.tgz:42442.got - 2010.06.03 16:22:01.
