data_PCOD9522894
_publ_section_title
;
Structure prediction by ZEFSAII (Michael W. Deem and Ramdas Pophale) SiO2 
 PCOD9522894
Probable space group: I M M M
;
_chemical_formula_sum "Si O2"
_cell_formula_units_Z 88
_cell_length_a 25.140016
_cell_length_b 8.747834
_cell_length_c 23.311397
_cell_angle_alpha 90.000000
_cell_angle_beta 90.000000
_cell_angle_gamma 90.000000
_cell_volume 5126.658437
_symmetry_space_group_name_H-M "I M M M"
_symmetry_group_IT_number 71
_symmetry_cell_setting 'orthorhombic'
loop_
_space_group_symop_operation_xyz
x,y,z
-x,-y,z
x,-y,-z
-x,y,-z
-x,-y,-z
x,y,-z
-x,y,z
x,-y,z
1/2+x,1/2+y,1/2+z
1/2-x,1/2-y,1/2+z
1/2+x,1/2-y,1/2-z
1/2-x,1/2+y,1/2-z
1/2-x,1/2-y,1/2-z
1/2+x,1/2+y,1/2-z
1/2-x,1/2+y,1/2+z
1/2+x,1/2-y,1/2+z
loop_
_atom_site_type_symbol
_atom_site_label
_atom_site_fract_x
_atom_site_fract_y
_atom_site_fract_z
Si Si1 0.262176 0.816643 0.432766
Si Si2 0.438670 0.184628 0.157942
Si Si3 0.437830 0.317228 0.717054
Si Si4 0.437421 0.316561 0.500000
Si Si5 0.623743 0.183701 0.609867
Si Si6 0.351337 0.184331 0.934063
O O1 0.271206 0.777836 0.500000
O O2 0.314590 0.769827 0.398168
O O3 0.206637 0.741949 0.415064
O O4 0.257009 0.000000 0.429099
O O5 0.500000 0.225389 0.144387
O O6 0.425130 0.255680 0.219564
O O7 0.397823 0.234591 0.108760
O O8 0.436107 0.000000 0.162452
O O9 0.500000 0.278615 0.705677
O O10 0.432774 0.500000 0.715550
O O11 0.401559 0.243367 0.668443
O O12 0.432589 0.500000 0.500000
O O13 0.500000 0.277767 0.500000
O O14 0.409242 0.250024 0.443648
O O15 0.621345 0.000000 0.607562
O O16 0.351064 0.000000 0.934449
O O17 0.359749 0.236184 0.000000
#
# Coordination Sequence:
#
# PCOD9522894 Si02
#       6
#    16  16  16   8  16  16
#     4   9  18  34  52  73 103 137 173 213 259 307
#     4   9  18  34  55  78 106 139 172 208 255 313
#     4  10  21  36  53  75 104 137 175 218 264 313
#     4  11  23  35  49  75 109 139 172 219 268 309
#     4  11  21  35  54  76 102 137 181 220 261 311
#     4   9  18  32  53  82 109 134 169 211 258 311
#
# _framework density 17.165175999999999
#
# number of rings (size 3 to 8) (size 9 to 14) (size 15 to 20)
#    0.000    2.273    0.909    1.909    0.000    6.545 
#    0.000    2.727    0.000    0.000    0.000    5.091 
#    0.000    0.000    0.000    0.000    0.000    0.000 
#
# Total GULP energy -245528.412102 kJ/mol
# GULP energy per Si atom -5580.191184 kJ/mol
# Density = 1.712611 g / cm^3
# Si number density = 17.165176 Si / 1000 Ang^3
#
#
#
# Elastic Constant Matrix: (Units=GPa)
#
#
# Indices 1 2 3 4 5 6 
#
# 1 158.6585 44.2829 116.3277 0.0000 0.0000 0.0000
# 2 44.2829 26.2998 37.5361 0.0000 0.0000 0.0000
# 3 116.3277 37.5361 125.2419 0.0000 0.0000 0.0000
# 4 0.0000 0.0000 0.0000 19.4990 0.0000 0.0000
# 5 0.0000 0.0000 0.0000 0.0000 18.8363 0.0000
# 6 0.0000 0.0000 0.0000 0.0000 0.0000 26.5307
#
#
#
# Elastic Compliance Matrix: (Units=1/GPa)
#
#
# Indices 1 2 3 4 5 6 
#
# 1 0.022363 -0.013995 -0.016577 0.000000 0.000000 0.000000
# 2 -0.013995 0.075204 -0.009540 0.000000 0.000000 0.000000
# 3 -0.016577 -0.009540 0.026241 0.000000 0.000000 0.000000
# 4 0.000000 0.000000 0.000000 0.051285 0.000000 0.000000
# 5 0.000000 0.000000 0.000000 0.000000 0.053089 0.000000
# 6 0.000000 0.000000 0.000000 0.000000 0.000000 0.037692
#
#
# Mechanical properties :
#
#
# Convention : Reuss Voigt Hill
#
# Bulk Modulus (GPa) = 22.94458 78.49931 50.72195
# Shear Modulus (GPa) = 13.86475 20.44342 17.15408
#
# Velocity S-wave (km/s) = 2.84513 3.45480 3.16469
# Velocity P-wave (km/s) = 4.91823 7.85781 6.55493
#
# Compressibility (1/GPa) = 0.04358328
#
# Stress axis : x y z
#
# Youngs Moduli (GPa) = 44.71627 13.29717 38.10829
#
# Poissons Ratio (x) = 0.18610 0.63172
# Poissons Ratio (y) = 0.62581 0.36356
# Poissons Ratio (z) = 0.74126 0.12686
#
# Static dielectric constant tensor:
#      x y z
#    x 1.573720 0.000000 0.000000 
#    y 0.000000 1.577620 0.000000 
#    z 0.000000 0.000000 1.553470 
# 
# From -- ./inp_files/10416.got.cif
#   From: 2010.05.17/outbox.cif.g08.bks.cpg/sg71_6_cif.got.tgz:10416.got - 2010.06.03 16:22:01.
