data_PCOD9522364
_publ_section_title
;
Structure prediction by ZEFSAII (Michael W. Deem and Ramdas Pophale) SiO2 
 PCOD9522364
Probable space group: I M M M
;
_chemical_formula_sum "Si O2"
_cell_formula_units_Z 104
_cell_length_a 18.901691
_cell_length_b 16.181071
_cell_length_c 16.486775
_cell_angle_alpha 90.000000
_cell_angle_beta 90.000000
_cell_angle_gamma 90.000000
_cell_volume 5042.473606
_symmetry_space_group_name_H-M "I M M M"
_symmetry_group_IT_number 71
_symmetry_cell_setting 'orthorhombic'
loop_
_space_group_symop_operation_xyz
x,y,z
-x,-y,z
x,-y,-z
-x,y,-z
-x,-y,-z
x,y,-z
-x,y,z
x,-y,z
1/2+x,1/2+y,1/2+z
1/2-x,1/2-y,1/2+z
1/2+x,1/2-y,1/2-z
1/2-x,1/2+y,1/2-z
1/2-x,1/2-y,1/2-z
1/2+x,1/2+y,1/2-z
1/2-x,1/2+y,1/2+z
1/2+x,1/2-y,1/2+z
loop_
_atom_site_type_symbol
_atom_site_label
_atom_site_fract_x
_atom_site_fract_y
_atom_site_fract_z
Si Si1 0.921859 0.097359 0.687303
Si Si2 0.671024 0.633962 0.656573
Si Si3 0.917676 0.131932 0.000000
Si Si4 0.162090 0.597412 0.663817
Si Si5 0.417575 0.100943 0.000000
Si Si6 0.161699 0.668566 0.835605
Si Si7 0.919067 0.333481 0.000000
Si Si8 0.703126 0.400114 0.089584
O O1 0.873004 0.104433 0.766025
O O2 0.874230 0.131139 0.614333
O O3 0.000000 0.133730 0.697756
O O4 0.929836 0.000000 0.671426
O O5 0.626592 0.605601 0.578419
O O6 0.752979 0.608358 0.654518
O O7 0.668421 0.733256 0.659868
O O8 0.918392 0.232811 0.000000
O O9 0.000000 0.105546 0.000000
O O10 0.147884 0.500000 0.673553
O O11 0.123059 0.627180 0.582075
O O12 0.136750 0.641998 0.746398
O O13 0.500000 0.125579 0.000000
O O14 0.415498 0.000000 0.000000
O O15 0.117756 0.640421 0.915312
O O16 0.239363 0.630636 0.847367
O O17 0.000000 0.361190 0.000000
O O18 0.703539 0.500000 0.089933
O O19 0.723010 0.370932 0.000000
#
# Coordination Sequence:
#
# PCOD9522364 Si02
#       8
#    16  16   8  16   8  16   8  16
#     4  10  21  37  57  84 119 155 191 235 284 337
#     4  11  21  35  59  86 116 149 192 239 284 340
#     4   9  19  35  54  80 116 156 185 223 285 346
#     4  11  22  38  61  85 111 149 196 240 287 343
#     4   9  21  42  62  80 107 143 188 242 290 336
#     4  11  21  36  61  88 116 152 191 239 287 345
#     4   9  20  37  56  86 120 148 183 231 290 348
#     4  10  20  36  60  86 117 155 192 232 281 345
#
# _framework density 20.624797999999998
#
# number of rings (size 3 to 8) (size 9 to 14) (size 15 to 20)
#    0.000    1.769    2.308    2.308    0.000    1.538 
#    0.000    2.692    0.000    6.000    0.000    0.000 
#    0.000    0.000    0.000    0.000    0.000    0.000 
#
# Total GULP energy -290279.045954 kJ/mol
# GULP energy per Si atom -5582.289345 kJ/mol
# Density = 2.057785 g / cm^3
# Si number density = 20.624798 Si / 1000 Ang^3
#
#
#
# Elastic Constant Matrix: (Units=GPa)
#
#
# Indices 1 2 3 4 5 6 
#
# 1 131.3849 7.1868 53.7838 0.0000 0.0000 0.0000
# 2 7.1868 30.1893 18.4470 0.0000 0.0000 0.0000
# 3 53.7838 18.4470 142.2108 0.0000 0.0000 0.0000
# 4 0.0000 0.0000 0.0000 12.9665 0.0000 0.0000
# 5 0.0000 0.0000 0.0000 0.0000 518.7120 0.0000
# 6 0.0000 0.0000 0.0000 0.0000 0.0000 -4.0612
#
#
#
# Elastic Compliance Matrix: (Units=1/GPa)
#
#
# Indices 1 2 3 4 5 6 
#
# 1 0.009006 -0.000068 -0.003397 0.000000 0.000000 0.000000
# 2 -0.000068 0.035976 -0.004641 0.000000 0.000000 0.000000
# 3 -0.003397 -0.004641 0.008919 0.000000 0.000000 0.000000
# 4 0.000000 0.000000 0.000000 0.077122 0.000000 0.000000
# 5 0.000000 0.000000 0.000000 0.000000 0.001928 0.000000
# 6 0.000000 0.000000 0.000000 0.000000 0.000000 -0.246231
#
#
# Mechanical properties :
#
#
# Convention : Reuss Voigt Hill
#
# Bulk Modulus (GPa) = 26.53343 51.40223 38.96783
# Shear Modulus (GPa) = -59.16735 120.48129 30.65697
#
# Velocity S-wave (km/s) = -5.36188 7.65131 3.85959
# Velocity P-wave (km/s) = 5.04383 10.15054 6.22869
#
# Compressibility (1/GPa) = 0.03768830
#
# Stress axis : x y z
#
# Youngs Moduli (GPa) = 111.04240 27.79604 112.12550
#
# Poissons Ratio (x) = 0.00189 0.38090
# Poissons Ratio (y) = 0.00756 0.52037
# Poissons Ratio (z) = 0.37722 0.12900
#
# Static dielectric constant tensor:
#      x y z
#    x 1.733070 0.000000 0.000000 
#    y 0.000000 1.723790 0.000000 
#    z 0.000000 0.000000 1.755390 
# 
# From -- ./inp_files/46166.got.cif
#   From: 2010.05.17/outbox.cif.g08.bks.cpg/sg71_24_cif.got.tgz:46166.got - 2010.06.03 16:22:01.
