data_PCOD9522395
_publ_section_title
;
Structure prediction by ZEFSAII (Michael W. Deem and Ramdas Pophale) SiO2 
 PCOD9522395
Probable space group: I M M M
;
_chemical_formula_sum "Si O2"
_cell_formula_units_Z 44
_cell_length_a 12.725644
_cell_length_b 10.774403
_cell_length_c 14.468691
_cell_angle_alpha 90.000000
_cell_angle_beta 90.000000
_cell_angle_gamma 90.000000
_cell_volume 1983.819830
_symmetry_space_group_name_H-M "I M M M"
_symmetry_group_IT_number 71
_symmetry_cell_setting 'orthorhombic'
loop_
_space_group_symop_operation_xyz
x,y,z
-x,-y,z
x,-y,-z
-x,y,-z
-x,-y,-z
x,y,-z
-x,y,z
x,-y,z
1/2+x,1/2+y,1/2+z
1/2-x,1/2-y,1/2+z
1/2+x,1/2-y,1/2-z
1/2-x,1/2+y,1/2-z
1/2-x,1/2-y,1/2-z
1/2+x,1/2+y,1/2-z
1/2-x,1/2+y,1/2+z
1/2+x,1/2-y,1/2+z
loop_
_atom_site_type_symbol
_atom_site_label
_atom_site_fract_x
_atom_site_fract_y
_atom_site_fract_z
Si Si1 0.000000 0.000000 0.345166
Si Si2 0.000000 0.860976 0.835806
Si Si3 0.728914 0.500000 0.897138
Si Si4 0.271342 0.270092 0.388704
Si Si5 0.377636 0.000000 0.112741
O O1 0.000000 0.116311 0.274548
O O2 0.103909 0.000000 0.402950
O O3 0.108721 0.802099 0.866184
O O4 0.000000 0.000000 0.876508
O O5 0.753495 0.631332 0.850791
O O6 0.777788 0.500000 0.000000
O O7 0.258667 0.263428 0.500000
O O8 0.189267 0.377465 0.359343
O O9 0.500000 0.000000 0.144251
O O10 0.380293 0.000000 0.000000
#
# Coordination Sequence:
#
# PCOD9522395 Si02
#       5
#     4   8   8  16   8
#     4  10  23  40  59  86 122 168 196 238 293 374
#     4  10  21  38  58  89 115 161 196 240 296 353
#     4  10  23  39  60  90 120 158 198 249 304 349
#     4  10  20  36  61  89 120 154 199 253 298 350
#     4   9  17  29  50  84 117 149 193 242 289 340
#
# _framework density 22.179431999999998
#
# number of rings (size 3 to 8) (size 9 to 14) (size 15 to 20)
#    0.545    1.636    1.818    0.818    2.545    2.909 
#    0.000    2.727    0.000    0.000    0.000    0.000 
#    0.000    0.000    0.000    0.000    0.000    0.000 
#
# Total GULP energy -122734.247546 kJ/mol
# GULP energy per Si atom -5578.829434 kJ/mol
# Density = 2.212895 g / cm^3
# Si number density = 22.179432 Si / 1000 Ang^3
#
#
#
# Elastic Constant Matrix: (Units=GPa)
#
#
# Indices 1 2 3 4 5 6 
#
# 1 192.9938 124.5341 -1.1507 0.0000 0.0000 0.0000
# 2 124.5341 233.1329 10.4426 0.0000 0.0000 0.0000
# 3 -1.1507 10.4426 69.9824 0.0000 0.0000 0.0000
# 4 0.0000 0.0000 0.0000 78.9077 0.0000 0.0000
# 5 0.0000 0.0000 0.0000 0.0000 18.1341 0.0000
# 6 0.0000 0.0000 0.0000 0.0000 0.0000 -14.2861
#
#
#
# Elastic Compliance Matrix: (Units=1/GPa)
#
#
# Indices 1 2 3 4 5 6 
#
# 1 0.007948 -0.004280 0.000769 0.000000 0.000000 0.000000
# 2 -0.004280 0.006623 -0.001059 0.000000 0.000000 0.000000
# 3 0.000769 -0.001059 0.014460 0.000000 0.000000 0.000000
# 4 0.000000 0.000000 0.000000 0.012673 0.000000 0.000000
# 5 0.000000 0.000000 0.000000 0.000000 0.055145 0.000000
# 6 0.000000 0.000000 0.000000 0.000000 0.000000 -0.069998
#
#
# Mechanical properties :
#
#
# Convention : Reuss Voigt Hill
#
# Bulk Modulus (GPa) = 50.27091 84.86237 67.56664
# Shear Modulus (GPa) = 117.31530 40.70334 79.00932
#
# Velocity S-wave (km/s) = 7.28070 4.28855 5.97496
# Velocity P-wave (km/s) = 9.66400 7.92887 8.83911
#
# Compressibility (1/GPa) = 0.01989222
#
# Stress axis : x y z
#
# Youngs Moduli (GPa) = 125.81924 150.98623 69.15665
#
# Poissons Ratio (x) = 0.64623 -0.05321
# Poissons Ratio (y) = 0.53851 0.07321
# Poissons Ratio (z) = -0.09680 0.15984
#
# Static dielectric constant tensor:
#      x y z
#    x 1.980620 0.000000 0.000000 
#    y 0.000000 1.882830 0.000000 
#    z 0.000000 0.000000 1.814980 
# 
# From -- ./inp_files/42738.got.cif
#   From: 2010.05.17/outbox.cif.g08.bks.cpg/sg71_22_cif.got.tgz:42738.got - 2010.06.03 16:22:01.
