data_PCOD9522210
_publ_section_title
;
Structure prediction by ZEFSAII (Michael W. Deem and Ramdas Pophale) SiO2 
 PCOD9522210
Probable space group: I M M M
;
_chemical_formula_sum "Si O2"
_cell_formula_units_Z 90
_cell_length_a 20.764692
_cell_length_b 25.324923
_cell_length_c 8.728628
_cell_angle_alpha 90.000000
_cell_angle_beta 90.000000
_cell_angle_gamma 90.000000
_cell_volume 4590.073207
_symmetry_space_group_name_H-M "I M M M"
_symmetry_group_IT_number 71
_symmetry_cell_setting 'orthorhombic'
loop_
_space_group_symop_operation_xyz
x,y,z
-x,-y,z
x,-y,-z
-x,y,-z
-x,-y,-z
x,y,-z
-x,y,z
x,-y,z
1/2+x,1/2+y,1/2+z
1/2-x,1/2-y,1/2+z
1/2+x,1/2-y,1/2-z
1/2-x,1/2+y,1/2-z
1/2-x,1/2-y,1/2-z
1/2+x,1/2+y,1/2-z
1/2-x,1/2+y,1/2+z
1/2+x,1/2-y,1/2+z
loop_
_atom_site_type_symbol
_atom_site_label
_atom_site_fract_x
_atom_site_fract_y
_atom_site_fract_z
Si Si1 0.755808 0.334727 0.680895
Si Si2 0.500000 0.000000 0.000000
Si Si3 0.613639 0.701346 0.315015
Si Si4 0.569020 0.408221 0.184094
Si Si5 0.605454 0.182476 0.682101
Si Si6 0.000000 0.611402 0.668111
Si Si7 0.790742 0.941487 0.683886
O O1 0.765578 0.326996 0.500000
O O2 0.689838 0.304539 0.726477
O O3 0.820035 0.320573 0.770621
O O4 0.742687 0.395863 0.720736
O O5 0.500000 0.951494 0.867723
O O6 0.610085 0.696784 0.500000
O O7 0.578691 0.651586 0.240909
O O8 0.585701 0.758105 0.269151
O O9 0.500000 0.428758 0.239617
O O10 0.633701 0.438819 0.227191
O O11 0.567927 0.408773 0.000000
O O12 0.599705 0.180083 0.500000
O O13 0.562774 0.135356 0.749847
O O14 0.000000 0.636759 0.500000
O O15 0.785563 0.930838 0.500000
O O16 0.765238 0.000000 0.712446
#
# Coordination Sequence:
#
# PCOD9522210 Si02
#       7
#    16   2  16  16  16   8  16
#     4  10  20  36  56  83 115 154 189 229 286 343
#     4   8  24  52  70  80 120 148 190 252 296 340
#     4   9  20  35  54  81 120 155 185 225 279 338
#     4   9  18  31  49  77 111 149 192 231 278 330
#     4  11  22  38  61  91 118 145 185 233 282 348
#     4  10  23  45  67  87 113 148 187 236 288 342
#     4   9  18  34  53  75 106 145 192 243 284 326
#
# _framework density 19.607531000000002
#
# number of rings (size 3 to 8) (size 9 to 14) (size 15 to 20)
#    0.267    2.133    0.000    1.867    1.244    3.200 
#    1.600    2.667    0.000    0.000    0.000    4.978 
#    0.000    0.000    0.000    0.000    0.000    0.000 
#
# Total GULP energy -250611.063232 kJ/mol
# GULP energy per Si atom -5569.134738 kJ/mol
# Density = 1.956290 g / cm^3
# Si number density = 19.607531 Si / 1000 Ang^3
#
#
#
# Elastic Constant Matrix: (Units=GPa)
#
#
# Indices 1 2 3 4 5 6 
#
# 1 34.6205 2.6464 1.4046 0.0000 0.0000 0.0000
# 2 2.6464 103.9712 14.6281 0.0000 0.0000 0.0000
# 3 1.4046 14.6281 20.8640 0.0000 0.0000 0.0000
# 4 0.0000 0.0000 0.0000 23.5610 0.0000 0.0000
# 5 0.0000 0.0000 0.0000 0.0000 21.1466 0.0000
# 6 0.0000 0.0000 0.0000 0.0000 0.0000 -3.2978
#
#
#
# Elastic Compliance Matrix: (Units=1/GPa)
#
#
# Indices 1 2 3 4 5 6 
#
# 1 0.028988 -0.000514 -0.001591 0.000000 0.000000 0.000000
# 2 -0.000514 0.010680 -0.007453 0.000000 0.000000 0.000000
# 3 -0.001591 -0.007453 0.053262 0.000000 0.000000 0.000000
# 4 0.000000 0.000000 0.000000 0.042443 0.000000 0.000000
# 5 0.000000 0.000000 0.000000 0.000000 0.047289 0.000000
# 6 0.000000 0.000000 0.000000 0.000000 0.000000 -0.303236
#
#
# Mechanical properties :
#
#
# Convention : Reuss Voigt Hill
#
# Bulk Modulus (GPa) = 13.54760 21.86819 17.70789
# Shear Modulus (GPa) = -65.05942 17.66707 -23.69617
#
# Velocity S-wave (km/s) = -5.76653 3.00498 -3.48015
# Velocity P-wave (km/s) = 6.11660 4.81841 2.66418
#
# Compressibility (1/GPa) = 0.07381382
#
# Stress axis : x y z
#
# Youngs Moduli (GPa) = 34.49646 93.63527 18.77509
#
# Poissons Ratio (x) = 0.04813 0.02987
# Poissons Ratio (y) = 0.01773 0.13993
# Poissons Ratio (z) = 0.05489 0.69787
#
# Static dielectric constant tensor:
#      x y z
#    x 1.730150 0.000000 0.000000 
#    y 0.000000 1.690780 0.000000 
#    z 0.000000 0.000000 1.665420 
# 
# From -- ./inp_files/10995.got.cif
#   From: 2010.05.17/outbox.cif.g08.bks.cpg/sg71_6_cif.got.tgz:10995.got - 2010.06.03 16:22:01.
