data_PCOD9522259
_publ_section_title
;
Structure prediction by ZEFSAII (Michael W. Deem and Ramdas Pophale) SiO2 
 PCOD9522259
Probable space group: I M M M
;
_chemical_formula_sum "Si O2"
_cell_formula_units_Z 88
_cell_length_a 31.735402
_cell_length_b 8.433037
_cell_length_c 18.334770
_cell_angle_alpha 90.000000
_cell_angle_beta 90.000000
_cell_angle_gamma 90.000000
_cell_volume 4906.857842
_symmetry_space_group_name_H-M "I M M M"
_symmetry_group_IT_number 71
_symmetry_cell_setting 'orthorhombic'
loop_
_space_group_symop_operation_xyz
x,y,z
-x,-y,z
x,-y,-z
-x,y,-z
-x,-y,-z
x,y,-z
-x,y,z
x,-y,z
1/2+x,1/2+y,1/2+z
1/2-x,1/2-y,1/2+z
1/2+x,1/2-y,1/2-z
1/2-x,1/2+y,1/2-z
1/2-x,1/2-y,1/2-z
1/2+x,1/2+y,1/2-z
1/2-x,1/2+y,1/2+z
1/2+x,1/2-y,1/2+z
loop_
_atom_site_type_symbol
_atom_site_label
_atom_site_fract_x
_atom_site_fract_y
_atom_site_fract_z
Si Si1 0.380083 0.314250 0.305892
Si Si2 0.329063 0.809182 0.920804
Si Si3 0.586104 0.190223 0.845774
Si Si4 0.952133 0.691316 0.914719
Si Si5 0.203132 0.690413 0.736160
Si Si6 0.000000 0.693740 0.582874
O O1 0.375596 0.500000 0.317788
O O2 0.401394 0.275806 0.228190
O O3 0.412752 0.248937 0.366396
O O4 0.332837 0.244246 0.293806
O O5 0.378612 0.783335 0.907214
O O6 0.308577 0.750513 0.845694
O O7 0.322459 0.000000 0.922153
O O8 0.315693 0.746173 0.000000
O O9 0.541450 0.242749 0.874935
O O10 0.585866 0.000000 0.830964
O O11 0.952162 0.500000 0.911358
O O12 0.000000 0.742744 0.891440
O O13 0.947193 0.737041 0.000000
O O14 0.202008 0.500000 0.735408
O O15 0.250000 0.750000 0.750000
O O16 0.000000 0.500000 0.581205
O O17 0.000000 0.748967 0.500000
#
# Coordination Sequence:
#
# PCOD9522259 Si02
#       6
#    16  16  16  16  16   8
#     4  11  22  35  53  78 109 144 180 218 263 324
#     4   8  14  27  49  74  98 127 168 216 261 304
#     4   9  17  29  47  72 101 136 175 218 260 302
#     4   9  19  37  60  83 108 141 182 231 285 335
#     4  10  20  36  58  81 107 139 176 224 279 332
#     4   9  16  26  45  73 100 131 176 223 259 294
#
# _framework density 17.934083999999999
#
# number of rings (size 3 to 8) (size 9 to 14) (size 15 to 20)
#    0.000    2.636    0.000    4.364    1.273    2.909 
#    0.000    1.818    0.000   22.364    0.000    0.000 
#    0.000    0.000    0.000    0.000    0.000    0.000 
#
# Total GULP energy -245057.300208 kJ/mol
# GULP energy per Si atom -5569.484096 kJ/mol
# Density = 1.789327 g / cm^3
# Si number density = 17.934084 Si / 1000 Ang^3
#
#
#
# Elastic Constant Matrix: (Units=GPa)
#
#
# Indices 1 2 3 4 5 6 
#
# 1 162.3451 33.3198 66.1364 0.0000 0.0000 0.0000
# 2 33.3198 40.7021 23.2049 0.0000 0.0000 0.0000
# 3 66.1364 23.2049 88.8862 0.0000 0.0000 0.0000
# 4 0.0000 0.0000 0.0000 -16.4450 0.0000 0.0000
# 5 0.0000 0.0000 0.0000 0.0000 10.6947 0.0000
# 6 0.0000 0.0000 0.0000 0.0000 0.0000 25.0820
#
#
#
# Elastic Compliance Matrix: (Units=1/GPa)
#
#
# Indices 1 2 3 4 5 6 
#
# 1 0.009461 -0.004384 -0.005895 0.000000 0.000000 0.000000
# 2 -0.004384 0.030897 -0.004804 0.000000 0.000000 0.000000
# 3 -0.005895 -0.004804 0.016891 0.000000 0.000000 0.000000
# 4 0.000000 0.000000 0.000000 -0.060809 0.000000 0.000000
# 5 0.000000 0.000000 0.000000 0.000000 0.093504 0.000000
# 6 0.000000 0.000000 0.000000 0.000000 0.000000 0.039869
#
#
# Mechanical properties :
#
#
# Convention : Reuss Voigt Hill
#
# Bulk Modulus (GPa) = 36.92472 59.69505 48.30988
# Shear Modulus (GPa) = 29.58467 15.15116 22.36792
#
# Velocity S-wave (km/s) = 4.06597 2.90974 3.53545
# Velocity P-wave (km/s) = 6.53274 6.68183 6.60771
#
# Compressibility (1/GPa) = 0.02708213
#
# Stress axis : x y z
#
# Youngs Moduli (GPa) = 105.69649 32.36612 59.20433
#
# Poissons Ratio (x) = 0.14190 0.34901
# Poissons Ratio (y) = 0.46340 0.28441
# Poissons Ratio (z) = 0.62308 0.15548
#
# Static dielectric constant tensor:
#      x y z
#    x 1.618560 0.000000 0.000000 
#    y 0.000000 1.623760 0.000000 
#    z 0.000000 0.000000 1.613260 
# 
# From -- ./inp_files/16707.got.cif
#   From: 2010.05.17/outbox.cif.g08.bks.cpg/sg71_9_cif.got.tgz:16707.got - 2010.06.03 16:22:01.
