data_PCOD9522713
_publ_section_title
;
Structure prediction by ZEFSAII (Michael W. Deem and Ramdas Pophale) SiO2 
 PCOD9522713
Probable space group: I M M M
;
_chemical_formula_sum "Si O2"
_cell_formula_units_Z 90
_cell_length_a 22.231593
_cell_length_b 25.693573
_cell_length_c 7.442474
_cell_angle_alpha 90.000000
_cell_angle_beta 90.000000
_cell_angle_gamma 90.000000
_cell_volume 4251.208560
_symmetry_space_group_name_H-M "I M M M"
_symmetry_group_IT_number 71
_symmetry_cell_setting 'orthorhombic'
loop_
_space_group_symop_operation_xyz
x,y,z
-x,-y,z
x,-y,-z
-x,y,-z
-x,-y,-z
x,y,-z
-x,y,z
x,-y,z
1/2+x,1/2+y,1/2+z
1/2-x,1/2-y,1/2+z
1/2+x,1/2-y,1/2-z
1/2-x,1/2+y,1/2-z
1/2-x,1/2-y,1/2-z
1/2+x,1/2+y,1/2-z
1/2-x,1/2+y,1/2+z
1/2+x,1/2-y,1/2+z
loop_
_atom_site_type_symbol
_atom_site_label
_atom_site_fract_x
_atom_site_fract_y
_atom_site_fract_z
Si Si1 0.753772 0.360321 0.717886
Si Si2 0.500000 0.000000 0.000000
Si Si3 0.668185 0.728244 0.295041
Si Si4 0.567171 0.352475 0.210727
Si Si5 0.616982 0.165061 0.707067
Si Si6 0.000000 0.598933 0.777598
Si Si7 0.847009 0.941302 0.783305
O O1 0.753748 0.359258 0.500000
O O2 0.724187 0.305343 0.780328
O O3 0.821573 0.367833 0.781405
O O4 0.709076 0.405967 0.777441
O O5 0.500000 0.953620 0.840166
O O6 0.684319 0.741093 0.500000
O O7 0.614646 0.686107 0.298657
O O8 0.639697 0.780076 0.209067
O O9 0.500000 0.347367 0.281449
O O10 0.593074 0.410342 0.232023
O O11 0.566963 0.339753 0.000000
O O12 0.602000 0.177114 0.500000
O O13 0.559311 0.133223 0.771951
O O14 0.000000 0.590612 0.000000
O O15 0.844831 0.000000 0.717143
O O16 0.844528 0.942343 0.000000
#
# Coordination Sequence:
#
# PCOD9522713 Si02
#       7
#    16   2  16  16  16   8  16
#     4   9  18  33  55  86 120 151 193 242 294 370
#     4  12  26  52  76  90 124 180 210 256 356 362
#     4   9  19  35  57  84 118 159 193 234 298 357
#     4  10  21  34  49  78 114 151 190 236 289 342
#     4  10  21  38  60  89 123 153 192 246 302 360
#     4  10  25  47  69 100 129 159 215 270 308 390
#     4   9  19  37  56  77 106 144 194 248 288 338
#
# _framework density 21.170451
#
# number of rings (size 3 to 8) (size 9 to 14) (size 15 to 20)
#    0.000    2.489    0.000    2.267    2.489    5.689 
#    1.600    1.778    0.000    0.000    0.000    0.000 
#    0.000    0.000    0.000    0.000    0.000    0.000 
#
# Total GULP energy -250737.280093 kJ/mol
# GULP energy per Si atom -5571.939558 kJ/mol
# Density = 2.112227 g / cm^3
# Si number density = 21.170451 Si / 1000 Ang^3
#
#
#
# Elastic Constant Matrix: (Units=GPa)
#
#
# Indices 1 2 3 4 5 6 
#
# 1 163.7437 43.4917 13.5389 0.0000 0.0000 0.0000
# 2 43.4917 86.2511 24.0143 0.0000 0.0000 0.0000
# 3 13.5389 24.0143 89.6355 0.0000 0.0000 0.0000
# 4 0.0000 0.0000 0.0000 -1.0247 0.0000 0.0000
# 5 0.0000 0.0000 0.0000 0.0000 18.8738 0.0000
# 6 0.0000 0.0000 0.0000 0.0000 0.0000 14.0802
#
#
#
# Elastic Compliance Matrix: (Units=1/GPa)
#
#
# Indices 1 2 3 4 5 6 
#
# 1 0.007053 -0.003522 -0.000122 0.000000 0.000000 0.000000
# 2 -0.003522 0.014288 -0.003296 0.000000 0.000000 0.000000
# 3 -0.000122 -0.003296 0.012058 0.000000 0.000000 0.000000
# 4 0.000000 0.000000 0.000000 -0.975890 0.000000 0.000000
# 5 0.000000 0.000000 0.000000 0.000000 0.052984 0.000000
# 6 0.000000 0.000000 0.000000 0.000000 0.000000 0.071022
#
#
# Mechanical properties :
#
#
# Convention : Reuss Voigt Hill
#
# Bulk Modulus (GPa) = 51.23334 55.74669 53.49002
# Shear Modulus (GPa) = -6.26487 23.62487 8.68000
#
# Velocity S-wave (km/s) = -1.72211 3.34419 2.02706
# Velocity P-wave (km/s) = 4.50541 6.42658 5.54976
#
# Compressibility (1/GPa) = 0.01951854
#
# Stress axis : x y z
#
# Youngs Moduli (GPa) = 141.78856 69.98943 82.93494
#
# Poissons Ratio (x) = 0.24654 0.01008
# Poissons Ratio (y) = 0.49945 0.27334
# Poissons Ratio (z) = 0.01724 0.23067
#
# Static dielectric constant tensor:
#      x y z
#    x 1.752030 0.000000 0.000000 
#    y 0.000000 1.772960 0.000000 
#    z 0.000000 0.000000 1.822160 
# 
# From -- ./inp_files/10996.got.cif
#   From: 2010.05.17/outbox.cif.g08.bks.cpg/sg71_6_cif.got.tgz:10996.got - 2010.06.03 16:22:01.
