data_PCOD9522216
_publ_section_title
;
Structure prediction by ZEFSAII (Michael W. Deem and Ramdas Pophale) SiO2 
 PCOD9522216
Probable space group: I M M M
;
_chemical_formula_sum "Si O2"
_cell_formula_units_Z 82
_cell_length_a 24.962016
_cell_length_b 20.219626
_cell_length_c 9.309068
_cell_angle_alpha 90.000000
_cell_angle_beta 90.000000
_cell_angle_gamma 90.000000
_cell_volume 4698.497263
_symmetry_space_group_name_H-M "I M M M"
_symmetry_group_IT_number 71
_symmetry_cell_setting 'orthorhombic'
loop_
_space_group_symop_operation_xyz
x,y,z
-x,-y,z
x,-y,-z
-x,y,-z
-x,-y,-z
x,y,-z
-x,y,z
x,-y,z
1/2+x,1/2+y,1/2+z
1/2-x,1/2-y,1/2+z
1/2+x,1/2-y,1/2-z
1/2-x,1/2+y,1/2-z
1/2-x,1/2-y,1/2-z
1/2+x,1/2+y,1/2-z
1/2-x,1/2+y,1/2+z
1/2+x,1/2-y,1/2+z
loop_
_atom_site_type_symbol
_atom_site_label
_atom_site_fract_x
_atom_site_fract_y
_atom_site_fract_z
Si Si1 0.880981 0.113637 0.342294
Si Si2 0.717167 0.576449 0.333744
Si Si3 0.000000 0.748932 0.328974
Si Si4 0.617985 0.226250 0.834776
Si Si5 0.000000 0.895792 0.741212
Si Si6 0.500000 0.500000 0.500000
Si Si7 0.720244 0.810875 0.328627
O O1 0.859383 0.095983 0.500000
O O2 0.844157 0.083249 0.219513
O O3 0.878089 0.193504 0.327703
O O4 0.942930 0.092868 0.334898
O O5 0.721523 0.597636 0.500000
O O6 0.733135 0.500000 0.323228
O O7 0.752009 0.623436 0.232473
O O8 0.055549 0.711361 0.306252
O O9 0.000000 0.816101 0.236666
O O10 0.000000 0.769547 0.500000
O O11 0.659143 0.194439 0.724824
O O12 0.631228 0.207836 0.000000
O O13 0.000000 0.942169 0.876932
O O14 0.725278 0.805845 0.500000
O O15 0.750000 0.750000 0.250000
#
# Coordination Sequence:
#
# PCOD9522216 Si02
#       7
#    16  16   8  16   8   2  16
#     4  10  20  36  57  77 102 141 185 235 282 332
#     4  11  25  40  57  79 110 146 187 234 283 336
#     4   8  16  36  59  80 104 136 175 227 284 329
#     4   9  17  33  58  84 110 140 178 226 278 331
#     4  10  22  36  49  65 103 139 193 230 278 318
#     4  12  28  36  42  68 100 160 190 244 278 322
#     4  12  23  37  57  83 113 147 188 231 280 333
#
# _framework density 17.452387999999999
#
# number of rings (size 3 to 8) (size 9 to 14) (size 15 to 20)
#    0.000    1.756    1.951    4.390    2.732    1.561 
#    5.268    1.707    0.000    0.000    0.000    0.683 
#    0.000    5.463    0.000    0.000    0.000    0.000 
#
# Total GULP energy -228523.077962 kJ/mol
# GULP energy per Si atom -5573.733609 kJ/mol
# Density = 1.741267 g / cm^3
# Si number density = 17.452388 Si / 1000 Ang^3
#
#
#
# Elastic Constant Matrix: (Units=GPa)
#
#
# Indices 1 2 3 4 5 6 
#
# 1 111.5147 34.8320 61.4501 0.0000 0.0000 0.0000
# 2 34.8320 45.7772 44.8847 0.0000 0.0000 0.0000
# 3 61.4501 44.8847 139.9579 0.0000 0.0000 0.0000
# 4 0.0000 0.0000 0.0000 25.8770 0.0000 0.0000
# 5 0.0000 0.0000 0.0000 0.0000 -71.9449 0.0000
# 6 0.0000 0.0000 0.0000 0.0000 0.0000 8.4720
#
#
#
# Elastic Compliance Matrix: (Units=1/GPa)
#
#
# Indices 1 2 3 4 5 6 
#
# 1 0.012946 -0.006239 -0.003683 0.000000 0.000000 0.000000
# 2 -0.006239 0.034872 -0.008444 0.000000 0.000000 0.000000
# 3 -0.003683 -0.008444 0.011470 0.000000 0.000000 0.000000
# 4 0.000000 0.000000 0.000000 0.038644 0.000000 0.000000
# 5 0.000000 0.000000 0.000000 0.000000 -0.013900 0.000000
# 6 0.000000 0.000000 0.000000 0.000000 0.000000 0.118035
#
#
# Mechanical properties :
#
#
# Convention : Reuss Voigt Hill
#
# Bulk Modulus (GPa) = 44.33597 64.39814 54.36706
# Shear Modulus (GPa) = 20.29888 2.88637 11.59262
#
# Velocity S-wave (km/s) = 3.41413 1.28742 2.58009
# Velocity P-wave (km/s) = 6.40319 6.26014 6.33207
#
# Compressibility (1/GPa) = 0.02255505
#
# Stress axis : x y z
#
# Youngs Moduli (GPa) = 77.24491 28.67645 87.18311
#
# Poissons Ratio (x) = 0.17892 0.32110
# Poissons Ratio (y) = 0.48195 0.73618
# Poissons Ratio (z) = 0.28450 0.24214
#
# Static dielectric constant tensor:
#      x y z
#    x 1.636010 0.000000 0.000000 
#    y 0.000000 1.579320 0.000000 
#    z 0.000000 0.000000 1.588290 
# 
# From -- ./inp_files/12440.got.cif
#   From: 2010.05.17/outbox.cif.g08.bks.cpg/sg71_7_cif.got.tgz:12440.got - 2010.06.03 16:22:01.
