data_PCOD9522746
_publ_section_title
;
Structure prediction by ZEFSAII (Michael W. Deem and Ramdas Pophale) SiO2 
 PCOD9522746
Probable space group: I M M M
;
_chemical_formula_sum "Si O2"
_cell_formula_units_Z 88
_cell_length_a 7.675564
_cell_length_b 19.161894
_cell_length_c 29.460439
_cell_angle_alpha 90.000000
_cell_angle_beta 90.000000
_cell_angle_gamma 90.000000
_cell_volume 4332.992575
_symmetry_space_group_name_H-M "I M M M"
_symmetry_group_IT_number 71
_symmetry_cell_setting 'orthorhombic'
loop_
_space_group_symop_operation_xyz
x,y,z
-x,-y,z
x,-y,-z
-x,y,-z
-x,-y,-z
x,y,-z
-x,y,z
x,-y,z
1/2+x,1/2+y,1/2+z
1/2-x,1/2-y,1/2+z
1/2+x,1/2-y,1/2-z
1/2-x,1/2+y,1/2-z
1/2-x,1/2-y,1/2-z
1/2+x,1/2+y,1/2-z
1/2-x,1/2+y,1/2+z
1/2+x,1/2-y,1/2+z
loop_
_atom_site_type_symbol
_atom_site_label
_atom_site_fract_x
_atom_site_fract_y
_atom_site_fract_z
Si Si1 0.210826 0.000000 0.574347
Si Si2 0.292676 0.854637 0.718753
Si Si3 0.293708 0.728166 0.500000
Si Si4 0.207192 0.150695 0.911447
Si Si5 0.291545 0.000000 0.052247
Si Si6 0.211334 0.204957 0.814986
Si Si7 0.210430 0.110458 0.500000
Si Si8 0.705882 0.000000 0.679800
O O1 0.266328 0.066983 0.544502
O O2 0.275100 0.000000 0.625531
O O3 0.000000 0.000000 0.575645
O O4 0.500000 0.855408 0.710327
O O5 0.263718 0.842159 0.772118
O O6 0.225329 0.784093 0.694474
O O7 0.220734 0.927877 0.700363
O O8 0.500000 0.712060 0.500000
O O9 0.219891 0.693735 0.545713
O O10 0.271929 0.810757 0.500000
O O11 0.275942 0.175261 0.862795
O O12 0.000000 0.163963 0.909688
O O13 0.233909 0.069684 0.922261
O O14 0.500000 0.000000 0.050425
O O15 0.225710 0.000000 0.000000
O O16 0.000000 0.206326 0.815189
O O17 0.000000 0.110333 0.500000
O O18 0.500000 0.000000 0.690821
#
# Coordination Sequence:
#
# PCOD9522746 Si02
#       8
#     8  16   8  16   8  16   8   8
#     4   9  20  38  55  77 111 153 188 222 271 324
#     4   9  19  36  55  79 112 142 175 222 277 323
#     4  10  21  34  56  86 112 144 183 222 268 326
#     4  10  21  37  58  82 110 145 181 220 271 328
#     4  11  23  38  55  78 109 142 180 227 270 319
#     4   9  19  36  57  79 106 142 182 222 263 322
#     4   9  20  38  55  75 113 152 186 227 270 318
#     4  10  21  34  56  84 111 141 175 229 281 320
#
# _framework density 20.309290000000001
#
# number of rings (size 3 to 8) (size 9 to 14) (size 15 to 20)
#    0.000    2.455    0.909    0.818    2.545    4.000 
#    0.000    2.727    0.000    0.000    0.000    0.000 
#    0.000    0.000    0.000    0.000    0.000    0.000 
#
# Total GULP energy -245610.024949 kJ/mol
# GULP energy per Si atom -5582.046022 kJ/mol
# Density = 2.026307 g / cm^3
# Si number density = 20.309290 Si / 1000 Ang^3
#
#
#
# Elastic Constant Matrix: (Units=GPa)
#
#
# Indices 1 2 3 4 5 6 
#
# 1 25.1403 -16.9297 -12.7612 0.0000 0.0000 0.0000
# 2 -16.9297 168.3617 118.5046 0.0000 0.0000 0.0000
# 3 -12.7612 118.5046 185.7060 0.0000 0.0000 0.0000
# 4 0.0000 0.0000 0.0000 11.7920 0.0000 0.0000
# 5 0.0000 0.0000 0.0000 0.0000 -125.6788 0.0000
# 6 0.0000 0.0000 0.0000 0.0000 0.0000 17.8195
#
#
#
# Elastic Compliance Matrix: (Units=1/GPa)
#
#
# Indices 1 2 3 4 5 6 
#
# 1 0.042679 0.004043 0.000353 0.000000 0.000000 0.000000
# 2 0.004043 0.011166 -0.006847 0.000000 0.000000 0.000000
# 3 0.000353 -0.006847 0.009779 0.000000 0.000000 0.000000
# 4 0.000000 0.000000 0.000000 0.084804 0.000000 0.000000
# 5 0.000000 0.000000 0.000000 0.000000 -0.007957 0.000000
# 6 0.000000 0.000000 0.000000 0.000000 0.000000 0.056118
#
#
# Mechanical properties :
#
#
# Convention : Reuss Voigt Hill
#
# Bulk Modulus (GPa) = 17.02991 61.87061 39.45026
# Shear Modulus (GPa) = 22.61783 0.14614 11.38199
#
# Velocity S-wave (km/s) = 3.34079 0.26854 2.36991
# Velocity P-wave (km/s) = 4.82542 5.53412 5.19187
#
# Compressibility (1/GPa) = 0.05872021
#
# Stress axis : x y z
#
# Youngs Moduli (GPa) = 23.43093 89.55854 102.26378
#
# Poissons Ratio (x) = -0.36213 -0.03605
# Poissons Ratio (y) = -0.09474 0.70024
# Poissons Ratio (z) = -0.00826 0.61325
#
# Static dielectric constant tensor:
#      x y z
#    x 1.756590 0.000000 0.000000 
#    y 0.000000 1.696570 0.000000 
#    z 0.000000 0.000000 1.698980 
# 
# From -- ./inp_files/68110.got.cif
#   From: 2010.05.17/outbox.cif.g08.bks.cpg/sg71_35_cif.got.tgz:68110.got - 2010.06.03 16:22:01.
