data_PCOD9522111
_publ_section_title
;
Structure prediction by ZEFSAII (Michael W. Deem and Ramdas Pophale) SiO2 
 PCOD9522111
Probable space group: I M M M
;
_chemical_formula_sum "Si O2"
_cell_formula_units_Z 56
_cell_length_a 14.912841
_cell_length_b 22.237114
_cell_length_c 9.735466
_cell_angle_alpha 90.000000
_cell_angle_beta 90.000000
_cell_angle_gamma 90.000000
_cell_volume 3228.461074
_symmetry_space_group_name_H-M "I M M M"
_symmetry_group_IT_number 71
_symmetry_cell_setting 'orthorhombic'
loop_
_space_group_symop_operation_xyz
x,y,z
-x,-y,z
x,-y,-z
-x,y,-z
-x,-y,-z
x,y,-z
-x,y,z
x,-y,z
1/2+x,1/2+y,1/2+z
1/2-x,1/2-y,1/2+z
1/2+x,1/2-y,1/2-z
1/2-x,1/2+y,1/2-z
1/2-x,1/2-y,1/2-z
1/2+x,1/2+y,1/2-z
1/2-x,1/2+y,1/2+z
1/2+x,1/2-y,1/2+z
loop_
_atom_site_type_symbol
_atom_site_label
_atom_site_fract_x
_atom_site_fract_y
_atom_site_fract_z
Si Si1 0.827108 0.318066 0.500000
Si Si2 0.889846 0.819632 0.500000
Si Si3 0.000000 0.500000 0.262931
Si Si4 0.698030 0.000000 0.340729
Si Si5 0.895518 0.065986 0.000000
Si Si6 0.210007 0.123023 0.236530
Si Si7 0.500000 0.902049 0.000000
O O1 0.865159 0.250897 0.500000
O O2 0.770463 0.333563 0.361085
O O3 0.911194 0.362569 0.500000
O O4 0.838888 0.847921 0.367567
O O5 0.000000 0.828047 0.500000
O O6 0.091012 0.500000 0.177253
O O7 0.000000 0.556657 0.365255
O O8 0.735617 0.062236 0.276661
O O9 0.723769 0.000000 0.500000
O O10 0.866272 0.100743 0.866050
O O11 0.000000 0.059531 0.000000
O O12 0.851208 0.000000 0.000000
#
# Coordination Sequence:
#
# PCOD9522111 Si02
#       7
#     8   8   4   8   8  16   4
#     4  11  23  42  66  88 126 161 210 252 302 366
#     4  12  25  43  63  88 125 168 210 254 298 358
#     4  11  23  36  66  94 125 155 192 258 314 370
#     4  12  22  39  59  90 130 156 195 249 325 362
#     4  10  20  35  58  88 119 156 203 251 298 352
#     4  11  23  39  63  91 121 162 204 252 309 368
#     4  11  20  36  66 102 112 153 214 252 298 371
#
# _framework density 17.345725000000002
#
# number of rings (size 3 to 8) (size 9 to 14) (size 15 to 20)
#    0.000    0.857    6.429    1.929    0.000    0.000 
#    0.000    0.714    0.000    0.000    0.000    0.000 
#    0.000    0.000    0.000    0.000    0.000    0.000 
#
# Total GULP energy -156126.251622 kJ/mol
# GULP energy per Si atom -5575.937558 kJ/mol
# Density = 1.730625 g / cm^3
# Si number density = 17.345725 Si / 1000 Ang^3
#
#
#
# Elastic Constant Matrix: (Units=GPa)
#
#
# Indices 1 2 3 4 5 6 
#
# 1 127.0314 52.4047 54.6014 0.0000 0.0000 0.0000
# 2 52.4047 113.3607 54.0658 0.0000 0.0000 0.0000
# 3 54.6014 54.0658 138.8894 0.0000 0.0001 0.0000
# 4 0.0000 0.0000 0.0000 34.9575 0.0000 0.0000
# 5 0.0000 0.0000 0.0001 0.0000 -1.2793 0.0000
# 6 0.0000 0.0000 0.0000 0.0000 0.0000 27.5789
#
#
#
# Elastic Compliance Matrix: (Units=1/GPa)
#
#
# Indices 1 2 3 4 5 6 
#
# 1 0.010520 -0.003550 -0.002754 0.000000 0.000000 0.000000
# 2 -0.003550 0.012030 -0.003288 0.000000 0.000000 0.000000
# 3 -0.002754 -0.003288 0.009562 0.000000 0.000001 0.000000
# 4 0.000000 0.000000 0.000000 0.028606 0.000000 0.000000
# 5 0.000000 0.000000 0.000001 0.000000 -0.781705 0.000000
# 6 0.000000 0.000000 0.000000 0.000000 0.000000 0.036260
#
#
# Mechanical properties :
#
#
# Convention : Reuss Voigt Hill
#
# Bulk Modulus (GPa) = 77.33778 77.93616 77.63697
# Shear Modulus (GPa) = -7.56163 26.79872 9.61854
#
# Velocity S-wave (km/s) = -2.09017 3.93488 2.35738
# Velocity P-wave (km/s) = 6.23360 8.10389 7.22948
#
# Compressibility (1/GPa) = 0.01293029
#
# Stress axis : x y z
#
# Youngs Moduli (GPa) = 95.05499 83.12279 104.57650
#
# Poissons Ratio (x) = 0.29508 0.28800
# Poissons Ratio (y) = 0.33743 0.34380
# Poissons Ratio (z) = 0.26178 0.27327
#
# Static dielectric constant tensor:
#      x y z
#    x 1.570030 0.000000 0.000000 
#    y 0.000000 1.588100 0.000000 
#    z 0.000000 0.000000 1.888550 
# 
# From -- ./inp_files/5176.got.cif
#   From: 2010.05.17/outbox.cif.g08.bks.cpg/sg71_3_cif.got.tgz:5176.got - 2010.06.03 16:22:01.
