data_PCOD9522530
_publ_section_title
;
Structure prediction by ZEFSAII (Michael W. Deem and Ramdas Pophale) SiO2 
 PCOD9522530
Probable space group: I M M M
;
_chemical_formula_sum "Si O2"
_cell_formula_units_Z 112
_cell_length_a 14.153658
_cell_length_b 14.452950
_cell_length_c 27.416479
_cell_angle_alpha 90.000000
_cell_angle_beta 90.000000
_cell_angle_gamma 90.000000
_cell_volume 5608.372831
_symmetry_space_group_name_H-M "I M M M"
_symmetry_group_IT_number 71
_symmetry_cell_setting 'orthorhombic'
loop_
_space_group_symop_operation_xyz
x,y,z
-x,-y,z
x,-y,-z
-x,y,-z
-x,-y,-z
x,y,-z
-x,y,z
x,-y,z
1/2+x,1/2+y,1/2+z
1/2-x,1/2-y,1/2+z
1/2+x,1/2-y,1/2-z
1/2-x,1/2+y,1/2-z
1/2-x,1/2-y,1/2-z
1/2+x,1/2+y,1/2-z
1/2-x,1/2+y,1/2+z
1/2+x,1/2-y,1/2+z
loop_
_atom_site_type_symbol
_atom_site_label
_atom_site_fract_x
_atom_site_fract_y
_atom_site_fract_z
Si Si1 0.610493 0.398847 0.347570
Si Si2 0.392101 0.147509 0.444206
Si Si3 0.793329 0.152928 0.054353
Si Si4 0.772858 0.896893 0.626832
Si Si5 0.887086 0.279824 0.605441
Si Si6 0.108796 0.603272 0.700472
Si Si7 0.173242 0.283277 0.211689
O O1 0.500000 0.392822 0.360231
O O2 0.625451 0.500000 0.323182
O O3 0.669321 0.398152 0.397730
O O4 0.632901 0.308247 0.314931
O O5 0.392255 0.114940 0.500000
O O6 0.500000 0.139285 0.425203
O O7 0.357553 0.254087 0.444860
O O8 0.310494 0.100226 0.413205
O O9 0.683640 0.178830 0.064768
O O10 0.802833 0.112294 0.000000
O O11 0.855606 0.826952 0.610925
O O12 0.721375 0.849137 0.672309
O O13 0.806682 0.000000 0.637260
O O14 0.856846 0.331820 0.656032
O O15 0.000000 0.288895 0.597262
O O16 0.152496 0.500000 0.701955
O O17 0.110342 0.653664 0.752679
O O18 0.000000 0.591743 0.687645
O O19 0.250000 0.250000 0.250000
#
# Coordination Sequence:
#
# PCOD9522530 Si02
#       7
#    16  16  16  16  16  16  16
#     4  11  24  41  64  96 133 170 204 245 307 380
#     4   9  18  35  60  88 121 159 195 239 300 366
#     4  10  20  37  62  91 122 162 207 255 307 368
#     4  11  23  38  58  90 123 158 205 255 307 367
#     4  10  21  41  62  87 124 164 207 262 319 368
#     4  10  21  38  62  88 115 154 202 248 299 360
#     4  12  22  40  60  85 123 163 202 253 300 354
#
# _framework density 19.970143
#
# number of rings (size 3 to 8) (size 9 to 14) (size 15 to 20)
#    0.000    1.571    4.286    1.286    0.000    5.714 
#    0.000    1.429    0.000    0.000    0.000    7.000 
#    0.000    0.000    0.000    0.000    0.000    0.000 
#
# Total GULP energy -312070.762494 kJ/mol
# GULP energy per Si atom -5572.692187 kJ/mol
# Density = 1.992469 g / cm^3
# Si number density = 19.970143 Si / 1000 Ang^3
#
#
#
# Elastic Constant Matrix: (Units=GPa)
#
#
# Indices 1 2 3 4 5 6 
#
# 1 113.3506 27.4448 27.8546 0.0000 0.0000 0.0000
# 2 27.4448 133.3476 36.8019 0.0000 0.0000 0.0000
# 3 27.8546 36.8019 83.9646 0.0000 0.0000 0.0000
# 4 0.0000 0.0000 0.0000 -2.3366 0.0000 0.0000
# 5 0.0000 0.0000 0.0000 0.0000 28.3891 0.0000
# 6 0.0000 0.0000 0.0000 0.0000 0.0000 9.9475
#
#
#
# Elastic Compliance Matrix: (Units=1/GPa)
#
#
# Indices 1 2 3 4 5 6 
#
# 1 0.009791 -0.001273 -0.002690 0.000000 0.000000 0.000000
# 2 -0.001273 0.008697 -0.003390 0.000000 0.000000 0.000000
# 3 -0.002690 -0.003390 0.014288 0.000000 0.000000 0.000000
# 4 0.000000 0.000000 0.000000 -0.427968 0.000000 0.000000
# 5 0.000000 0.000000 0.000000 0.000000 0.035225 0.000000
# 6 0.000000 0.000000 0.000000 0.000000 0.000000 0.100528
#
#
# Mechanical properties :
#
#
# Convention : Reuss Voigt Hill
#
# Bulk Modulus (GPa) = 55.33817 57.20728 56.27272
# Shear Modulus (GPa) = -20.94593 23.10409 1.07908
#
# Velocity S-wave (km/s) = -3.24213 3.40506 0.73588
# Velocity P-wave (km/s) = 3.70883 6.64589 5.38160
#
# Compressibility (1/GPa) = 0.01807071
#
# Stress axis : x y z
#
# Youngs Moduli (GPa) = 102.12970 114.98744 69.98908
#
# Poissons Ratio (x) = 0.14635 0.18830
# Poissons Ratio (y) = 0.12998 0.23723
# Poissons Ratio (z) = 0.27477 0.38975
#
# Static dielectric constant tensor:
#      x y z
#    x 1.730510 0.000000 0.000000 
#    y 0.000000 1.742100 0.000000 
#    z 0.000000 0.000000 1.690800 
# 
# From -- ./inp_files/59923.got.cif
#   From: 2010.05.17/outbox.cif.g08.bks.cpg/sg71_30_cif.got.tgz:59923.got - 2010.06.03 16:22:01.
