data_PCOD9522172
_publ_section_title
;
Structure prediction by ZEFSAII (Michael W. Deem and Ramdas Pophale) SiO2 
 PCOD9522172
Probable space group: I M M M
;
_chemical_formula_sum "Si O2"
_cell_formula_units_Z 84
_cell_length_a 15.112114
_cell_length_b 18.569237
_cell_length_c 17.427307
_cell_angle_alpha 90.000000
_cell_angle_beta 90.000000
_cell_angle_gamma 90.000000
_cell_volume 4890.458322
_symmetry_space_group_name_H-M "I M M M"
_symmetry_group_IT_number 71
_symmetry_cell_setting 'orthorhombic'
loop_
_space_group_symop_operation_xyz
x,y,z
-x,-y,z
x,-y,-z
-x,y,-z
-x,-y,-z
x,y,-z
-x,y,z
x,-y,z
1/2+x,1/2+y,1/2+z
1/2-x,1/2-y,1/2+z
1/2+x,1/2-y,1/2-z
1/2-x,1/2+y,1/2-z
1/2-x,1/2-y,1/2-z
1/2+x,1/2+y,1/2-z
1/2-x,1/2+y,1/2+z
1/2+x,1/2-y,1/2+z
loop_
_atom_site_type_symbol
_atom_site_label
_atom_site_fract_x
_atom_site_fract_y
_atom_site_fract_z
Si Si1 0.240554 0.706035 0.411804
Si Si2 0.336570 0.851338 0.617179
Si Si3 0.896777 0.851319 0.813678
Si Si4 0.500000 0.168226 0.500000
Si Si5 0.760228 0.000000 0.586661
Si Si6 0.896021 0.000000 0.725215
Si Si7 0.396009 0.204030 0.777753
O O1 0.221395 0.689289 0.500000
O O2 0.264743 0.790427 0.403215
O O3 0.328425 0.665120 0.381572
O O4 0.161530 0.690501 0.353020
O O5 0.422550 0.834048 0.566748
O O6 0.299752 0.929509 0.597996
O O7 0.360706 0.843113 0.706646
O O8 0.884169 0.786523 0.752344
O O9 0.000000 0.848454 0.838527
O O10 0.879282 0.927961 0.774552
O O11 0.836144 0.000000 0.650183
O O12 0.795708 0.000000 0.500000
O O13 0.000000 0.000000 0.705118
O O14 0.500000 0.192099 0.789875
#
# Coordination Sequence:
#
# PCOD9522172 Si02
#       7
#    16  16  16   4   8   8  16
#     4  11  21  34  54  80 105 137 180 219 262 316
#     4  11  22  36  54  80 111 138 176 217 268 314
#     4   9  19  34  57  77 102 134 172 219 270 313
#     4  12  20  37  56  80 110 137 178 222 264 309
#     4  12  22  33  52  79 114 145 169 214 258 310
#     4  10  20  37  55  78 105 140 180 213 261 324
#     4  10  20  36  54  75 106 145 175 214 261 314
#
# _framework density 17.176303999999998
#
# number of rings (size 3 to 8) (size 9 to 14) (size 15 to 20)
#    0.000    1.524    2.857    4.571    1.333    1.714 
#    0.000    0.476    0.000    7.429    0.000    0.000 
#    0.000    4.571    0.000    0.000    0.000    0.381 
#
# Total GULP energy -234009.383962 kJ/mol
# GULP energy per Si atom -5571.651999 kJ/mol
# Density = 1.713721 g / cm^3
# Si number density = 17.176304 Si / 1000 Ang^3
#
#
#
# Elastic Constant Matrix: (Units=GPa)
#
#
# Indices 1 2 3 4 5 6 
#
# 1 50.4949 8.5254 64.3143 0.0000 0.0000 0.0000
# 2 8.5254 63.7945 20.0460 0.0000 0.0000 0.0000
# 3 64.3143 20.0460 162.9586 0.0000 0.0000 0.0000
# 4 0.0000 0.0000 0.0000 1.3081 0.0000 0.0000
# 5 0.0000 0.0000 0.0000 0.0000 45.3066 0.0000
# 6 0.0000 0.0000 0.0000 0.0000 0.0000 8.8866
#
#
#
# Elastic Compliance Matrix: (Units=1/GPa)
#
#
# Indices 1 2 3 4 5 6 
#
# 1 0.039831 -0.000399 -0.015671 0.000000 0.000000 0.000000
# 2 -0.000399 0.016310 -0.001849 0.000000 0.000000 0.000000
# 3 -0.015671 -0.001849 0.012549 0.000000 0.000000 0.000000
# 4 0.000000 0.000000 0.000000 0.764482 0.000000 0.000000
# 5 0.000000 0.000000 0.000000 0.000000 0.022072 0.000000
# 6 0.000000 0.000000 0.000000 0.000000 0.000000 0.112529
#
#
# Mechanical properties :
#
#
# Convention : Reuss Voigt Hill
#
# Bulk Modulus (GPa) = 30.43933 51.44661 40.94297
# Shear Modulus (GPa) = 4.92824 23.39108 14.15966
#
# Velocity S-wave (km/s) = 1.69571 3.69429 2.87430
# Velocity P-wave (km/s) = 4.64694 6.94364 5.90797
#
# Compressibility (1/GPa) = 0.03285224
#
# Stress axis : x y z
#
# Youngs Moduli (GPa) = 25.10605 61.31362 79.68913
#
# Poissons Ratio (x) = 0.02445 1.24880
# Poissons Ratio (y) = 0.01001 0.14734
# Poissons Ratio (z) = 0.39344 0.11336
#
# Static dielectric constant tensor:
#      x y z
#    x 1.576490 0.000000 0.000000 
#    y 0.000000 1.582500 0.000000 
#    z 0.000000 0.000000 1.575700 
# 
# From -- ./inp_files/34451.got.cif
#   From: 2010.05.17/outbox.cif.g08.bks.cpg/sg71_18_cif.got.tgz:34451.got - 2010.06.03 16:22:01.
