data_PCOD9522517
_publ_section_title
;
Structure prediction by ZEFSAII (Michael W. Deem and Ramdas Pophale) SiO2 
 PCOD9522517
Probable space group: I M M M
;
_chemical_formula_sum "Si O2"
_cell_formula_units_Z 64
_cell_length_a 7.742330
_cell_length_b 22.526372
_cell_length_c 18.918443
_cell_angle_alpha 90.000000
_cell_angle_beta 90.000000
_cell_angle_gamma 90.000000
_cell_volume 3299.501429
_symmetry_space_group_name_H-M "I M M M"
_symmetry_group_IT_number 71
_symmetry_cell_setting 'orthorhombic'
loop_
_space_group_symop_operation_xyz
x,y,z
-x,-y,z
x,-y,-z
-x,y,-z
-x,-y,-z
x,y,-z
-x,y,z
x,-y,z
1/2+x,1/2+y,1/2+z
1/2-x,1/2-y,1/2+z
1/2+x,1/2-y,1/2-z
1/2-x,1/2+y,1/2-z
1/2-x,1/2-y,1/2-z
1/2+x,1/2+y,1/2-z
1/2-x,1/2+y,1/2+z
1/2+x,1/2-y,1/2+z
loop_
_atom_site_type_symbol
_atom_site_label
_atom_site_fract_x
_atom_site_fract_y
_atom_site_fract_z
Si Si1 0.790387 0.117790 0.333426
Si Si2 0.500000 0.930146 0.922284
Si Si3 0.792898 0.751640 0.666606
Si Si4 0.696479 0.377766 0.666995
Si Si5 0.288516 0.500000 0.917484
O O1 0.735062 0.183382 0.360108
O O2 0.749183 0.115995 0.249712
O O3 0.000000 0.118149 0.336957
O O4 0.731415 0.060008 0.376625
O O5 0.668810 0.912026 0.879834
O O6 0.500000 0.000000 0.928660
O O7 0.500000 0.902111 0.000000
O O8 0.750000 0.750000 0.750000
O O9 0.707217 0.690904 0.641879
O O10 0.000000 0.746807 0.657414
O O11 0.500000 0.398709 0.661688
O O12 0.500000 0.500000 0.915933
O O13 0.237337 0.500000 0.000000
#
# Coordination Sequence:
#
# PCOD9522517 Si02
#       5
#    16   8  16  16   8
#     4   8  16  28  50  82 117 156 199 241 285 335
#     4  11  26  44  60  86 120 147 189 243 305 377
#     4   9  15  28  50  82 120 147 194 250 291 333
#     4  10  20  37  62  87 116 150 196 247 293 352
#     4   9  16  28  46  77 121 158 195 235 280 342
#
# _framework density 19.396871000000001
#
# number of rings (size 3 to 8) (size 9 to 14) (size 15 to 20)
#    0.000    2.750    1.250    2.250    1.750    1.000 
#    0.000    2.500    0.000    0.000    0.000    1.750 
#    0.000    0.000    0.000    0.000    0.000    0.000 
#
# Total GULP energy -178280.001266 kJ/mol
# GULP energy per Si atom -5571.250040 kJ/mol
# Density = 1.935272 g / cm^3
# Si number density = 19.396871 Si / 1000 Ang^3
#
#
#
# Elastic Constant Matrix: (Units=GPa)
#
#
# Indices 1 2 3 4 5 6 
#
# 1 70.4978 17.8125 35.4415 0.0000 0.0000 0.0000
# 2 17.8125 146.5305 65.5008 0.0000 0.0000 0.0000
# 3 35.4415 65.5008 87.2544 0.0000 0.0000 0.0000
# 4 0.0000 0.0000 0.0000 -35.0943 0.0000 0.0000
# 5 0.0000 0.0000 0.0000 0.0000 -35.0201 0.0000
# 6 0.0000 0.0000 0.0000 0.0000 0.0000 6.9745
#
#
#
# Elastic Compliance Matrix: (Units=1/GPa)
#
#
# Indices 1 2 3 4 5 6 
#
# 1 0.018081 0.001633 -0.008570 0.000000 0.000000 0.000000
# 2 0.001633 0.010419 -0.008484 0.000000 0.000000 0.000000
# 3 -0.008570 -0.008484 0.021311 0.000000 0.000000 0.000000
# 4 0.000000 0.000000 0.000000 -0.028495 0.000000 0.000000
# 5 0.000000 0.000000 0.000000 0.000000 -0.028555 0.000000
# 6 0.000000 0.000000 0.000000 0.000000 0.000000 0.143380
#
#
# Mechanical properties :
#
#
# Convention : Reuss Voigt Hill
#
# Bulk Modulus (GPa) = 52.72222 60.19914 56.46068
# Shear Modulus (GPa) = 28.85083 -0.25944 14.29569
#
# Velocity S-wave (km/s) = 3.86086 -0.36612 2.71774
# Velocity P-wave (km/s) = 6.86402 5.56095 6.24656
#
# Compressibility (1/GPa) = 0.01896734
#
# Stress axis : x y z
#
# Youngs Moduli (GPa) = 55.30784 95.98172 46.92438
#
# Poissons Ratio (x) = -0.15673 0.40214
# Poissons Ratio (y) = -0.09031 0.39813
# Poissons Ratio (z) = 0.47398 0.81435
#
# Static dielectric constant tensor:
#      x y z
#    x 1.642690 0.000000 0.000000 
#    y 0.000000 1.724080 0.000000 
#    z 0.000000 0.000000 1.625260 
# 
# From -- ./inp_files/9558.got.cif
#   From: 2010.05.17/outbox.cif.g08.bks.cpg/sg71_5_cif.got.tgz:9558.got - 2010.06.03 16:22:01.
