data_PCOD9522374
_publ_section_title
;
Structure prediction by ZEFSAII (Michael W. Deem and Ramdas Pophale) SiO2 
 PCOD9522374
Probable space group: I M M M
;
_chemical_formula_sum "Si O2"
_cell_formula_units_Z 50
_cell_length_a 10.505198
_cell_length_b 15.585992
_cell_length_c 15.393709
_cell_angle_alpha 90.000000
_cell_angle_beta 90.000000
_cell_angle_gamma 90.000000
_cell_volume 2520.472502
_symmetry_space_group_name_H-M "I M M M"
_symmetry_group_IT_number 71
_symmetry_cell_setting 'orthorhombic'
loop_
_space_group_symop_operation_xyz
x,y,z
-x,-y,z
x,-y,-z
-x,y,-z
-x,-y,-z
x,y,-z
-x,y,z
x,-y,z
1/2+x,1/2+y,1/2+z
1/2-x,1/2-y,1/2+z
1/2+x,1/2-y,1/2-z
1/2-x,1/2+y,1/2-z
1/2-x,1/2-y,1/2-z
1/2+x,1/2+y,1/2-z
1/2-x,1/2+y,1/2+z
1/2+x,1/2-y,1/2+z
loop_
_atom_site_type_symbol
_atom_site_label
_atom_site_fract_x
_atom_site_fract_y
_atom_site_fract_z
Si Si1 0.647454 0.694604 0.500000
Si Si2 0.360192 0.101143 0.312255
Si Si3 0.000000 0.000000 0.500000
Si Si4 0.857457 0.103736 0.184156
Si Si5 0.257120 0.628429 0.000000
O O1 0.500000 0.729126 0.500000
O O2 0.659726 0.639628 0.412499
O O3 0.753341 0.768399 0.500000
O O4 0.500000 0.140448 0.300199
O O5 0.250456 0.136282 0.249653
O O6 0.318099 0.106466 0.411965
O O7 0.368751 0.000000 0.291750
O O8 0.887404 0.924811 0.500000
O O9 0.000000 0.126860 0.214862
O O10 0.852964 0.000000 0.181357
#
# Coordination Sequence:
#
# PCOD9522374 Si02
#       5
#     8  16   2  16   8
#     4  10  21  40  61  91 124 167 207 252 308 359
#     4  10  20  36  60  88 119 160 206 249 306 367
#     4  12  28  44  62  92 114 162 210 256 316 380
#     4   9  19  36  63  91 126 165 207 248 296 362
#     4  12  24  40  62  84 122 154 208 255 309 370
#
# _framework density 19.837551000000001
#
# number of rings (size 3 to 8) (size 9 to 14) (size 15 to 20)
#    0.000    1.920    1.600    1.920    2.240    4.480 
#    2.880    0.000    0.000    3.840    0.000    0.000 
#    0.000    0.000    0.000    0.000    0.000    0.000 
#
# Total GULP energy -139208.826046 kJ/mol
# GULP energy per Si atom -5568.353042 kJ/mol
# Density = 1.979240 g / cm^3
# Si number density = 19.837551 Si / 1000 Ang^3
#
#
#
# Elastic Constant Matrix: (Units=GPa)
#
#
# Indices 1 2 3 4 5 6 
#
# 1 207.6344 45.4105 109.6771 0.0000 0.0000 0.0000
# 2 45.4105 43.6119 13.1174 0.0000 0.0000 0.0000
# 3 109.6771 13.1174 131.8869 0.0000 0.0000 0.0000
# 4 0.0000 0.0000 0.0000 -63.9050 0.0000 0.0000
# 5 0.0000 0.0000 0.0000 0.0000 -0.8064 0.0000
# 6 0.0000 0.0000 0.0000 0.0000 0.0000 18.6717
#
#
#
# Elastic Compliance Matrix: (Units=1/GPa)
#
#
# Indices 1 2 3 4 5 6 
#
# 1 0.011326 -0.009237 -0.008500 0.000000 0.000000 0.000000
# 2 -0.009237 0.031169 0.004581 0.000000 0.000000 0.000000
# 3 -0.008500 0.004581 0.014195 0.000000 0.000000 0.000000
# 4 0.000000 0.000000 0.000000 -0.015648 0.000000 0.000000
# 5 0.000000 0.000000 0.000000 0.000000 -1.240121 0.000000
# 6 0.000000 0.000000 0.000000 0.000000 0.000000 0.053557
#
#
# Mechanical properties :
#
#
# Convention : Reuss Voigt Hill
#
# Bulk Modulus (GPa) = 32.91707 79.94923 56.43315
# Shear Modulus (GPa) = -4.50823 5.12063 0.30620
#
# Velocity S-wave (km/s) = -1.50914 1.60838 0.39331
# Velocity P-wave (km/s) = 3.68682 6.62108 5.35870
#
# Compressibility (1/GPa) = 0.03037937
#
# Stress axis : x y z
#
# Youngs Moduli (GPa) = 88.29026 32.08287 70.44529
#
# Poissons Ratio (x) = 0.29634 0.59880
# Poissons Ratio (y) = 0.81551 -0.32272
# Poissons Ratio (z) = 0.75049 -0.14698
#
# Static dielectric constant tensor:
#      x y z
#    x 1.725190 0.000000 0.000000 
#    y 0.000000 1.732190 0.000000 
#    z 0.000000 0.000000 1.664950 
# 
# From -- ./inp_files/4948.got.cif
#   From: 2010.05.17/outbox.cif.g08.bks.cpg/sg71_3_cif.got.tgz:4948.got - 2010.06.03 16:22:01.
