data_PCOD9522082
_publ_section_title
;
Structure prediction by ZEFSAII (Michael W. Deem and Ramdas Pophale) SiO2 
 PCOD9522082
Probable space group: I M M M
;
_chemical_formula_sum "Si O2"
_cell_formula_units_Z 80
_cell_length_a 8.084832
_cell_length_b 22.244525
_cell_length_c 22.173406
_cell_angle_alpha 90.000000
_cell_angle_beta 90.000000
_cell_angle_gamma 90.000000
_cell_volume 3987.737344
_symmetry_space_group_name_H-M "I M M M"
_symmetry_group_IT_number 71
_symmetry_cell_setting 'orthorhombic'
loop_
_space_group_symop_operation_xyz
x,y,z
-x,-y,z
x,-y,-z
-x,y,-z
-x,-y,-z
x,y,-z
-x,y,z
x,-y,z
1/2+x,1/2+y,1/2+z
1/2-x,1/2-y,1/2+z
1/2+x,1/2-y,1/2-z
1/2-x,1/2+y,1/2-z
1/2-x,1/2-y,1/2-z
1/2+x,1/2+y,1/2-z
1/2-x,1/2+y,1/2+z
1/2+x,1/2-y,1/2+z
loop_
_atom_site_type_symbol
_atom_site_label
_atom_site_fract_x
_atom_site_fract_y
_atom_site_fract_z
Si Si1 0.314396 0.570787 0.255576
Si Si2 0.701739 0.000000 0.570975
Si Si3 0.811786 0.619416 0.861824
Si Si4 0.702229 0.930147 0.000000
Si Si5 0.301918 0.128743 0.124559
Si Si6 0.698252 0.754930 0.679398
O O1 0.500000 0.593827 0.242834
O O2 0.312363 0.500000 0.246574
O O3 0.190975 0.599577 0.208011
O O4 0.267898 0.586309 0.323203
O O5 0.762395 0.062189 0.602188
O O6 0.500000 0.000000 0.578435
O O7 0.738639 0.000000 0.500000
O O8 0.735587 0.685969 0.856112
O O9 0.000000 0.625855 0.884505
O O10 0.756140 0.894987 0.940141
O O11 0.500000 0.930620 0.000000
O O12 0.754757 0.000000 0.000000
O O13 0.500000 0.125567 0.125640
O O14 0.249418 0.195448 0.143669
O O15 0.500000 0.759756 0.680095
O O16 0.750000 0.750000 0.750000
#
# Coordination Sequence:
#
# PCOD9522082 Si02
#       6
#    16   8  16   8  16  16
#     4  11  22  34  54  86 118 148 188 244 304 354
#     4   9  18  36  61  87 113 144 195 250 291 341
#     4  10  20  35  58  84 112 151 193 238 291 348
#     4   9  20  40  63  87 115 154 207 254 296 356
#     4  11  22  38  61  85 115 158 202 247 298 354
#     4  11  22  36  56  88 122 155 195 241 297 354
#
# _framework density 20.061501
#
# number of rings (size 3 to 8) (size 9 to 14) (size 15 to 20)
#    0.000    1.600    3.000    2.400    0.000    2.800 
#    1.800    2.000    0.000    4.800    0.000    0.000 
#    0.000    0.000    0.000    0.000    0.000    0.000 
#
# Total GULP energy -223178.534365 kJ/mol
# GULP energy per Si atom -5579.463359 kJ/mol
# Density = 2.001584 g / cm^3
# Si number density = 20.061501 Si / 1000 Ang^3
#
#
#
# Elastic Constant Matrix: (Units=GPa)
#
#
# Indices 1 2 3 4 5 6 
#
# 1 38.5226 7.4620 -7.1110 0.0000 0.0000 0.0000
# 2 7.4620 105.3569 32.6005 0.0000 0.0000 0.0000
# 3 -7.1110 32.6005 90.4252 0.0000 0.0000 0.0000
# 4 0.0000 0.0000 0.0000 30.5135 0.0000 0.0000
# 5 0.0000 0.0000 0.0000 0.0000 10.5758 0.0000
# 6 0.0000 0.0000 0.0000 0.0000 0.0000 20.4314
#
#
#
# Elastic Compliance Matrix: (Units=1/GPa)
#
#
# Indices 1 2 3 4 5 6 
#
# 1 0.027108 -0.002903 0.003179 0.000000 0.000000 0.000000
# 2 -0.002903 0.010994 -0.004192 0.000000 0.000000 0.000000
# 3 0.003179 -0.004192 0.012820 0.000000 0.000000 0.000000
# 4 0.000000 0.000000 0.000000 0.032772 0.000000 0.000000
# 5 0.000000 0.000000 0.000000 0.000000 0.094555 0.000000
# 6 0.000000 0.000000 0.000000 0.000000 0.000000 0.048944
#
#
# Mechanical properties :
#
#
# Convention : Reuss Voigt Hill
#
# Bulk Modulus (GPa) = 23.20808 33.35641 28.28225
# Shear Modulus (GPa) = 20.04880 25.72767 22.88823
#
# Velocity S-wave (km/s) = 3.16471 3.58500 3.38139
# Velocity P-wave (km/s) = 4.99474 5.81373 5.41973
#
# Compressibility (1/GPa) = 0.04308843
#
# Stress axis : x y z
#
# Youngs Moduli (GPa) = 36.88954 90.95593 78.00211
#
# Poissons Ratio (x) = 0.26409 -0.24793
# Poissons Ratio (y) = 0.10711 0.32699
# Poissons Ratio (z) = -0.11725 0.38129
#
# Static dielectric constant tensor:
#      x y z
#    x 1.760240 0.000000 0.000000 
#    y 0.000000 1.743610 0.000000 
#    z 0.000000 0.000000 1.660950 
# 
# From -- ./inp_files/10269.got.cif
#   From: 2010.05.17/outbox.cif.g08.bks.cpg/sg71_6_cif.got.tgz:10269.got - 2010.06.03 16:22:01.
