data_PCOD9522825
_publ_section_title
;
Structure prediction by ZEFSAII (Michael W. Deem and Ramdas Pophale) SiO2 
 PCOD9522825
Probable space group: I M M M
;
_chemical_formula_sum "Si O2"
_cell_formula_units_Z 72
_cell_length_a 17.843173
_cell_length_b 13.361382
_cell_length_c 15.971398
_cell_angle_alpha 90.000000
_cell_angle_beta 90.000000
_cell_angle_gamma 90.000000
_cell_volume 3807.732222
_symmetry_space_group_name_H-M "I M M M"
_symmetry_group_IT_number 71
_symmetry_cell_setting 'orthorhombic'
loop_
_space_group_symop_operation_xyz
x,y,z
-x,-y,z
x,-y,-z
-x,y,-z
-x,-y,-z
x,y,-z
-x,y,z
x,-y,z
1/2+x,1/2+y,1/2+z
1/2-x,1/2-y,1/2+z
1/2+x,1/2-y,1/2-z
1/2-x,1/2+y,1/2-z
1/2-x,1/2-y,1/2-z
1/2+x,1/2+y,1/2-z
1/2-x,1/2+y,1/2+z
1/2+x,1/2-y,1/2+z
loop_
_atom_site_type_symbol
_atom_site_label
_atom_site_fract_x
_atom_site_fract_y
_atom_site_fract_z
Si Si1 0.197036 0.222988 0.671704
Si Si2 0.349432 0.789601 0.403620
Si Si3 0.912810 0.500000 0.101628
Si Si4 0.588764 0.384818 0.283578
Si Si5 0.914668 0.383171 0.399268
O O1 0.250000 0.250000 0.750000
O O2 0.259263 0.204352 0.601449
O O3 0.140372 0.137022 0.702338
O O4 0.145255 0.315085 0.645918
O O5 0.373645 0.779792 0.500000
O O6 0.378025 0.895889 0.368036
O O7 0.383043 0.696764 0.351433
O O8 0.000000 0.500000 0.121738
O O9 0.904098 0.500000 0.000000
O O10 0.500000 0.370563 0.267807
O O11 0.599824 0.500000 0.310978
O O12 0.908307 0.372012 0.500000
O O13 0.903781 0.500000 0.379896
O O14 0.000000 0.355780 0.375856
#
# Coordination Sequence:
#
# PCOD9522825 Si02
#       5
#    16  16   8  16  16
#     4  10  21  35  53  79 117 152 186 225 280 342
#     4  10  21  37  59  86 112 146 189 240 295 339
#     4   9  18  34  56  80 109 141 180 233 285 335
#     4  10  22  39  57  80 114 155 194 231 274 335
#     4   9  18  35  61  89 114 144 188 243 296 342
#
# _framework density 18.908892999999999
#
# number of rings (size 3 to 8) (size 9 to 14) (size 15 to 20)
#    0.000    2.333    0.000    2.667    1.556    5.333 
#    6.000    1.111    0.000    0.000    0.000    4.667 
#    0.000    0.000    0.000    0.000    0.000    0.000 
#
# Total GULP energy -200729.368228 kJ/mol
# GULP energy per Si atom -5575.815784 kJ/mol
# Density = 1.886586 g / cm^3
# Si number density = 18.908893 Si / 1000 Ang^3
#
#
#
# Elastic Constant Matrix: (Units=GPa)
#
#
# Indices 1 2 3 4 5 6 
#
# 1 135.2521 92.2314 20.6330 0.0000 0.0000 0.0000
# 2 92.2314 150.1220 32.9489 0.0000 0.0000 0.0000
# 3 20.6330 32.9489 19.4104 0.0000 0.0000 0.0000
# 4 0.0000 0.0000 0.0000 32.4256 0.0000 0.0000
# 5 0.0000 0.0000 0.0000 0.0000 13.6963 0.0000
# 6 0.0000 0.0000 0.0000 0.0000 0.0000 4.1841
#
#
#
# Elastic Compliance Matrix: (Units=1/GPa)
#
#
# Indices 1 2 3 4 5 6 
#
# 1 0.012727 -0.007730 -0.000408 0.000000 0.000000 0.000000
# 2 -0.007730 0.015311 -0.017774 0.000000 0.000000 0.000000
# 3 -0.000408 -0.017774 0.082123 0.000000 0.000000 0.000000
# 4 0.000000 0.000000 0.000000 0.030840 0.000000 0.000000
# 5 0.000000 0.000000 0.000000 0.000000 0.073012 0.000000
# 6 0.000000 0.000000 0.000000 0.000000 0.000000 0.239001
#
#
# Mechanical properties :
#
#
# Convention : Reuss Voigt Hill
#
# Bulk Modulus (GPa) = 17.14128 66.26792 41.70460
# Shear Modulus (GPa) = 9.53683 20.65927 15.09805
#
# Velocity S-wave (km/s) = 2.24823 3.30899 2.82877
# Velocity P-wave (km/s) = 3.97797 7.05133 5.72475
#
# Compressibility (1/GPa) = 0.05833871
#
# Stress axis : x y z
#
# Youngs Moduli (GPa) = 78.57480 65.31175 12.17683
#
# Poissons Ratio (x) = 0.50483 0.00496
# Poissons Ratio (y) = 0.60735 0.21643
# Poissons Ratio (z) = 0.03202 1.16086
#
# Static dielectric constant tensor:
#      x y z
#    x 1.636790 0.000000 0.000000 
#    y 0.000000 1.637450 0.000000 
#    z 0.000000 0.000000 1.689710 
# 
# From -- ./inp_files/23496.got.cif
#   From: 2010.05.17/outbox.cif.g08.bks.cpg/sg71_12_cif.got.tgz:23496.got - 2010.06.03 16:22:01.
