data_PCOD9522921
_publ_section_title
;
Structure prediction by ZEFSAII (Michael W. Deem and Ramdas Pophale) SiO2 
 PCOD9522921
Probable space group: I M M M
;
_chemical_formula_sum "Si O2"
_cell_formula_units_Z 56
_cell_length_a 9.478272
_cell_length_b 7.782282
_cell_length_c 37.495191
_cell_angle_alpha 90.000000
_cell_angle_beta 90.000000
_cell_angle_gamma 90.000000
_cell_volume 2765.742235
_symmetry_space_group_name_H-M "I M M M"
_symmetry_group_IT_number 71
_symmetry_cell_setting 'orthorhombic'
loop_
_space_group_symop_operation_xyz
x,y,z
-x,-y,z
x,-y,-z
-x,y,-z
-x,-y,-z
x,y,-z
-x,y,z
x,-y,z
1/2+x,1/2+y,1/2+z
1/2-x,1/2-y,1/2+z
1/2+x,1/2-y,1/2-z
1/2-x,1/2+y,1/2-z
1/2-x,1/2-y,1/2-z
1/2+x,1/2+y,1/2-z
1/2-x,1/2+y,1/2+z
1/2+x,1/2-y,1/2+z
loop_
_atom_site_type_symbol
_atom_site_label
_atom_site_fract_x
_atom_site_fract_y
_atom_site_fract_z
Si Si1 0.840582 0.295756 0.715678
Si Si2 0.837601 0.289431 0.069639
Si Si3 0.662685 0.709987 0.000000
Si Si4 0.661154 0.705017 0.137339
O O1 0.848869 0.500000 0.714109
O O2 0.750000 0.250000 0.750000
O O3 0.783766 0.236803 0.677275
O O4 0.000000 0.224606 0.719091
O O5 0.838836 0.500000 0.069760
O O6 0.746751 0.236283 0.035334
O O7 0.760643 0.230328 0.105784
O O8 0.000000 0.233892 0.067520
O O9 0.660918 0.500000 0.000000
O O10 0.500000 0.766526 0.000000
O O11 0.500000 0.773661 0.135149
O O12 0.652078 0.500000 0.132676
#
# Coordination Sequence:
#
# PCOD9522921 Si02
#       4
#    16  16   8  16
#     4  10  21  36  54  76 101 130 165 205 249 298
#     4   9  16  25  39  62  92 124 159 200 242 283
#     4   9  15  23  37  59  90 127 162 195 236 286
#     4   9  17  30  47  67  94 128 163 199 242 292
#
# _framework density 20.247731000000002
#
# number of rings (size 3 to 8) (size 9 to 14) (size 15 to 20)
#    0.000    2.714    0.000    2.143    0.000    8.000 
#    0.000    2.857    0.000    0.000    0.000    1.000 
#    0.000    8.000    0.000    0.000    0.000    0.000 
#
# Total GULP energy -156255.623017 kJ/mol
# GULP energy per Si atom -5580.557965 kJ/mol
# Density = 2.020165 g / cm^3
# Si number density = 20.247731 Si / 1000 Ang^3
#
#
#
# Elastic Constant Matrix: (Units=GPa)
#
#
# Indices 1 2 3 4 5 6 
#
# 1 148.3773 5.4619 133.4447 0.0000 0.0000 0.0000
# 2 5.4619 26.5248 0.9118 0.0000 0.0000 0.0000
# 3 133.4447 0.9118 235.9368 0.0000 0.0000 0.0000
# 4 0.0000 0.0000 0.0000 12.1471 0.0000 0.0000
# 5 0.0000 0.0000 0.0000 0.0000 37.7140 0.0000
# 6 0.0000 0.0000 0.0000 0.0000 0.0000 5.4919
#
#
#
# Elastic Compliance Matrix: (Units=1/GPa)
#
#
# Indices 1 2 3 4 5 6 
#
# 1 0.013893 -0.002591 -0.007848 0.000000 0.000000 0.000000
# 2 -0.002591 0.038189 0.001318 0.000000 0.000000 0.000000
# 3 -0.007848 0.001318 0.008672 0.000000 0.000000 0.000000
# 4 0.000000 0.000000 0.000000 0.082324 0.000000 0.000000
# 5 0.000000 0.000000 0.000000 0.000000 0.026515 0.000000
# 6 0.000000 0.000000 0.000000 0.000000 0.000000 0.182088
#
#
# Mechanical properties :
#
#
# Convention : Reuss Voigt Hill
#
# Bulk Modulus (GPa) = 23.52278 76.71951 50.12115
# Shear Modulus (GPa) = 13.01767 29.13864 21.07816
#
# Velocity S-wave (km/s) = 2.53834 3.79767 3.22997
# Velocity P-wave (km/s) = 4.49818 7.56323 6.22238
#
# Compressibility (1/GPa) = 0.04251197
#
# Stress axis : x y z
#
# Youngs Moduli (GPa) = 71.97917 26.18566 115.31392
#
# Poissons Ratio (x) = 0.06785 0.90495
# Poissons Ratio (y) = 0.18650 -0.15197
# Poissons Ratio (z) = 0.56487 -0.03451
#
# Static dielectric constant tensor:
#      x y z
#    x 1.708870 0.000000 0.000000 
#    y 0.000000 1.755340 0.000000 
#    z 0.000000 0.000000 1.701630 
# 
# From -- ./inp_files/3588.got.cif
#   From: 2010.05.17/outbox.cif.g08.bks.cpg/sg71_2_cif.got.tgz:3588.got - 2010.06.03 16:22:01.
