data_PCOD9522203
_publ_section_title
;
Structure prediction by ZEFSAII (Michael W. Deem and Ramdas Pophale) SiO2 
 PCOD9522203
Probable space group: I M M M
;
_chemical_formula_sum "Si O2"
_cell_formula_units_Z 96
_cell_length_a 24.207977
_cell_length_b 26.091666
_cell_length_c 8.632191
_cell_angle_alpha 90.000000
_cell_angle_beta 90.000000
_cell_angle_gamma 90.000000
_cell_volume 5452.320161
_symmetry_space_group_name_H-M "I M M M"
_symmetry_group_IT_number 71
_symmetry_cell_setting 'orthorhombic'
loop_
_space_group_symop_operation_xyz
x,y,z
-x,-y,z
x,-y,-z
-x,y,-z
-x,-y,-z
x,y,-z
-x,y,z
x,-y,z
1/2+x,1/2+y,1/2+z
1/2-x,1/2-y,1/2+z
1/2+x,1/2-y,1/2-z
1/2-x,1/2+y,1/2-z
1/2-x,1/2-y,1/2-z
1/2+x,1/2+y,1/2-z
1/2-x,1/2+y,1/2+z
1/2+x,1/2-y,1/2+z
loop_
_atom_site_type_symbol
_atom_site_label
_atom_site_fract_x
_atom_site_fract_y
_atom_site_fract_z
Si Si1 0.752379 0.940001 0.812908
Si Si2 0.436773 0.500000 0.811274
Si Si3 0.063580 0.807813 0.185349
Si Si4 0.063902 0.500000 0.185702
Si Si5 0.133218 0.099053 0.314302
Si Si6 0.063800 0.304855 0.313307
Si Si7 0.631460 0.096148 0.812563
O O1 0.805353 0.911194 0.746434
O O2 0.694645 0.914095 0.764999
O O3 0.752927 0.000000 0.764745
O O4 0.754981 0.939097 0.000000
O O5 0.500000 0.500000 0.757918
O O6 0.404201 0.449262 0.761719
O O7 0.437357 0.500000 0.000000
O O8 0.105095 0.849351 0.253872
O O9 0.076485 0.750356 0.241406
O O10 0.000000 0.819054 0.235173
O O11 0.065457 0.809724 0.000000
O O12 0.094534 0.549960 0.249529
O O13 0.000000 0.500000 0.234536
O O14 0.066316 0.500000 0.000000
O O15 0.133729 0.099636 0.500000
O O16 0.066569 0.300563 0.500000
O O17 0.104981 0.349884 0.263282
O O18 0.000000 0.318036 0.272957
O O19 0.629768 0.094408 0.000000
#
# Coordination Sequence:
#
# PCOD9522203 Si02
#       7
#    16   8  16   8  16  16  16
#     4  10  20  36  56  79 111 148 184 226 277 328
#     4   9  18  31  49  76 106 133 166 217 272 317
#     4  10  21  37  57  82 113 147 181 222 278 336
#     4  11  23  34  49  80 118 149 180 227 284 335
#     4  11  21  35  56  81 110 144 186 228 271 327
#     4   9  18  34  58  85 110 140 182 231 278 328
#     4  10  20  37  59  82 108 146 192 231 275 331
#
# _framework density 17.607182999999999
#
# number of rings (size 3 to 8) (size 9 to 14) (size 15 to 20)
#    0.000    2.000    1.667    2.250    0.000    4.333 
#    0.000    2.500    0.000    2.000    0.000    0.000 
#    0.000    0.000    0.000    0.000    0.000    0.000 
#
# Total GULP energy -268018.124358 kJ/mol
# GULP energy per Si atom -5583.710924 kJ/mol
# Density = 1.756711 g / cm^3
# Si number density = 17.607183 Si / 1000 Ang^3
#
#
#
# Elastic Constant Matrix: (Units=GPa)
#
#
# Indices 1 2 3 4 5 6 
#
# 1 189.6913 120.3364 40.7418 0.0000 0.0000 0.0000
# 2 120.3364 158.5593 37.1535 0.0000 0.0000 0.0000
# 3 40.7418 37.1535 18.6849 0.0000 0.0000 0.0000
# 4 0.0000 0.0000 0.0000 18.0178 0.0000 0.0000
# 5 0.0000 0.0000 0.0000 0.0000 22.9846 0.0000
# 6 0.0000 0.0000 0.0000 0.0000 0.0000 14.0355
#
#
#
# Elastic Compliance Matrix: (Units=1/GPa)
#
#
# Indices 1 2 3 4 5 6 
#
# 1 0.012107 -0.005622 -0.015220 0.000000 0.000000 0.000000
# 2 -0.005622 0.014420 -0.016413 0.000000 0.000000 0.000000
# 3 -0.015220 -0.016413 0.119342 0.000000 0.000000 0.000000
# 4 0.000000 0.000000 0.000000 0.055501 0.000000 0.000000
# 5 0.000000 0.000000 0.000000 0.000000 0.043507 0.000000
# 6 0.000000 0.000000 0.000000 0.000000 0.000000 0.071248
#
#
# Mechanical properties :
#
#
# Convention : Reuss Voigt Hill
#
# Bulk Modulus (GPa) = 14.01385 84.82208 49.41797
# Shear Modulus (GPa) = 12.06500 22.25450 17.15975
#
# Velocity S-wave (km/s) = 2.62053 3.55906 3.12523
# Velocity P-wave (km/s) = 4.13917 8.07270 6.41487
#
# Compressibility (1/GPa) = 0.07135797
#
# Stress axis : x y z
#
# Youngs Moduli (GPa) = 82.59392 69.34954 8.37930
#
# Poissons Ratio (x) = 0.38991 0.12753
# Poissons Ratio (y) = 0.46438 0.13753
# Poissons Ratio (z) = 1.25709 1.13823
#
# Static dielectric constant tensor:
#      x y z
#    x 1.586440 0.000000 0.000000 
#    y 0.000000 1.569880 0.000000 
#    z 0.000000 0.000000 1.592660 
# 
# From -- ./inp_files/12910.got.cif
#   From: 2010.05.17/outbox.cif.g08.bks.cpg/sg71_7_cif.got.tgz:12910.got - 2010.06.03 16:22:01.
