data_PCOD9522599
_publ_section_title
;
Structure prediction by ZEFSAII (Michael W. Deem and Ramdas Pophale) SiO2 
 PCOD9522599
Probable space group: I M M M
;
_chemical_formula_sum "Si O2"
_cell_formula_units_Z 48
_cell_length_a 13.773991
_cell_length_b 7.758918
_cell_length_c 23.087746
_cell_angle_alpha 90.000000
_cell_angle_beta 90.000000
_cell_angle_gamma 90.000000
_cell_volume 2467.416660
_symmetry_space_group_name_H-M "I M M M"
_symmetry_group_IT_number 71
_symmetry_cell_setting 'orthorhombic'
loop_
_space_group_symop_operation_xyz
x,y,z
-x,-y,z
x,-y,-z
-x,y,-z
-x,-y,-z
x,y,-z
-x,y,z
x,-y,z
1/2+x,1/2+y,1/2+z
1/2-x,1/2-y,1/2+z
1/2+x,1/2-y,1/2-z
1/2-x,1/2+y,1/2-z
1/2-x,1/2-y,1/2-z
1/2+x,1/2+y,1/2-z
1/2-x,1/2+y,1/2+z
1/2+x,1/2-y,1/2+z
loop_
_atom_site_type_symbol
_atom_site_label
_atom_site_fract_x
_atom_site_fract_y
_atom_site_fract_z
Si Si1 0.297164 0.500000 0.567671
Si Si2 0.617436 0.197040 0.645024
Si Si3 0.884617 0.500000 0.637088
Si Si4 0.382080 0.305193 0.774752
O O1 0.318534 0.500000 0.500000
O O2 0.341162 0.666286 0.599982
O O3 0.182354 0.500000 0.581041
O O4 0.500000 0.208197 0.643934
O O5 0.648307 0.244440 0.710726
O O6 0.644570 0.000000 0.632131
O O7 0.859089 0.333672 0.676232
O O8 0.000000 0.500000 0.626108
O O9 0.500000 0.308841 0.773026
O O10 0.348579 0.500000 0.785957
#
# Coordination Sequence:
#
# PCOD9522599 Si02
#       4
#     8  16   8  16
#     4  12  27  41  56  83 119 163 211 242 271 339
#     4  10  20  38  63  90 123 154 183 235 300 358
#     4  10  22  40  61  86 117 153 196 249 301 341
#     4   9  16  32  60  91 119 144 180 236 302 361
#
# _framework density 19.453544999999998
#
# number of rings (size 3 to 8) (size 9 to 14) (size 15 to 20)
#    0.000    2.000    3.333    0.500    0.000    5.000 
#    0.000    1.667    0.000    0.000    0.000    7.000 
#    0.000    0.000    0.000    0.000    0.000    0.000 
#
# Total GULP energy -134198.137959 kJ/mol
# GULP energy per Si atom -5591.589082 kJ/mol
# Density = 1.940927 g / cm^3
# Si number density = 19.453545 Si / 1000 Ang^3
#
#
#
# Elastic Constant Matrix: (Units=GPa)
#
#
# Indices 1 2 3 4 5 6 
#
# 1 66.7335 17.4344 1.2100 0.0000 0.0000 0.0000
# 2 17.4344 163.1080 32.8695 0.0000 0.0000 0.0000
# 3 1.2100 32.8695 74.3341 0.0000 0.0000 0.0000
# 4 0.0000 0.0000 0.0000 15.8198 0.0000 0.0000
# 5 0.0000 0.0000 0.0000 0.0000 23.2921 0.0000
# 6 0.0000 0.0000 0.0000 0.0000 0.0000 9.6490
#
#
#
# Elastic Compliance Matrix: (Units=1/GPa)
#
#
# Indices 1 2 3 4 5 6 
#
# 1 0.015434 -0.001756 0.000525 0.000000 0.000000 0.000000
# 2 -0.001756 0.006930 -0.003036 0.000000 0.000000 0.000000
# 3 0.000525 -0.003036 0.014787 0.000000 0.000000 0.000000
# 4 0.000000 0.000000 0.000000 0.063212 0.000000 0.000000
# 5 0.000000 0.000000 0.000000 0.000000 0.042933 0.000000
# 6 0.000000 0.000000 0.000000 0.000000 0.000000 0.103637
#
#
# Mechanical properties :
#
#
# Convention : Reuss Voigt Hill
#
# Bulk Modulus (GPa) = 34.94270 45.24481 40.09376
# Shear Modulus (GPa) = 18.86752 26.59629 22.73191
#
# Velocity S-wave (km/s) = 3.11766 3.70154 3.42207
# Velocity P-wave (km/s) = 5.56425 6.44801 6.02236
#
# Compressibility (1/GPa) = 0.02861828
#
# Stress axis : x y z
#
# Youngs Moduli (GPa) = 64.79159 144.29273 67.62846
#
# Poissons Ratio (x) = 0.25331 -0.03551
# Poissons Ratio (y) = 0.11374 0.20532
# Poissons Ratio (z) = -0.03402 0.43806
#
# Static dielectric constant tensor:
#      x y z
#    x 1.752050 0.000000 0.000000 
#    y 0.000000 1.664240 0.000000 
#    z 0.000000 0.000000 1.604300 
# 
# From -- ./inp_files/4624.got.cif
#   From: 2010.05.17/outbox.cif.g08.bks.cpg/sg71_3_cif.got.tgz:4624.got - 2010.06.03 16:22:01.
