data_PCOD9522101
_publ_section_title
;
Structure prediction by ZEFSAII (Michael W. Deem and Ramdas Pophale) SiO2 
 PCOD9522101
Probable space group: I M M M
;
_chemical_formula_sum "Si O2"
_cell_formula_units_Z 108
_cell_length_a 15.367532
_cell_length_b 13.313339
_cell_length_c 23.433840
_cell_angle_alpha 90.000000
_cell_angle_beta 90.000000
_cell_angle_gamma 90.000000
_cell_volume 4794.403449
_symmetry_space_group_name_H-M "I M M M"
_symmetry_group_IT_number 71
_symmetry_cell_setting 'orthorhombic'
loop_
_space_group_symop_operation_xyz
x,y,z
-x,-y,z
x,-y,-z
-x,y,-z
-x,-y,-z
x,y,-z
-x,y,z
x,-y,z
1/2+x,1/2+y,1/2+z
1/2-x,1/2-y,1/2+z
1/2+x,1/2-y,1/2-z
1/2-x,1/2+y,1/2-z
1/2-x,1/2-y,1/2-z
1/2+x,1/2+y,1/2-z
1/2-x,1/2+y,1/2+z
1/2+x,1/2-y,1/2+z
loop_
_atom_site_type_symbol
_atom_site_label
_atom_site_fract_x
_atom_site_fract_y
_atom_site_fract_z
Si Si1 0.500000 0.861018 0.000000
Si Si2 0.249048 0.880472 0.587520
Si Si3 0.098666 0.615852 0.300311
Si Si4 0.399838 0.878182 0.500000
Si Si5 0.741201 0.617140 0.780671
Si Si6 0.598018 0.377591 0.689598
Si Si7 0.849333 0.119263 0.063477
Si Si8 0.154866 0.307725 0.582088
O O1 0.576272 0.856513 0.048596
O O2 0.338504 0.854456 0.554626
O O3 0.252164 0.851486 0.654065
O O4 0.172850 0.808049 0.565026
O O5 0.234141 0.000000 0.580422
O O6 0.103193 0.500000 0.321241
O O7 0.165852 0.622418 0.249208
O O8 0.130275 0.683837 0.351865
O O9 0.000000 0.637046 0.283723
O O10 0.500000 0.842589 0.500000
O O11 0.405381 0.000000 0.500000
O O12 0.716265 0.500000 0.786019
O O13 0.669904 0.658592 0.735559
O O14 0.500000 0.352599 0.707894
O O15 0.605344 0.500000 0.687521
O O16 0.611898 0.343364 0.623891
O O17 0.745954 0.137386 0.069606
O O18 0.866965 0.000000 0.062435
O O19 0.876990 0.157226 0.000000
#
# Coordination Sequence:
#
# PCOD9522101 Si02
#       8
#     4  16  16   8  16  16  16  16
#     4  12  26  40  60  90 118 160 210 260 304 370
#     4  10  23  42  67  91 117 161 204 252 320 384
#     4  10  20  36  61  92 127 166 204 251 310 368
#     4   9  19  40  69  94 116 146 197 262 322 375
#     4   9  18  36  61  89 120 158 205 249 307 371
#     4   9  17  32  55  82 119 163 205 249 292 350
#     4  10  20  35  58  86 119 162 204 244 302 367
#     4  12  22  40  60  83 124 161 206 256 306 369
#
# _framework density 22.526264999999999
#
# number of rings (size 3 to 8) (size 9 to 14) (size 15 to 20)
#    0.000    2.000    2.963    0.889    0.000    1.481 
#    1.333    7.407    0.000    0.000    0.000    0.000 
#    0.000    0.000    0.000    0.000    0.000    0.000 
#
# Total GULP energy -301081.896574 kJ/mol
# GULP energy per Si atom -5575.590677 kJ/mol
# Density = 2.247499 g / cm^3
# Si number density = 22.526265 Si / 1000 Ang^3
#
#
#
# Elastic Constant Matrix: (Units=GPa)
#
#
# Indices 1 2 3 4 5 6 
#
# 1 132.5121 11.0967 64.9776 0.0000 0.0000 0.0000
# 2 11.0967 74.0318 9.4338 0.0000 0.0000 0.0000
# 3 64.9776 9.4338 172.0952 0.0000 0.0000 0.0000
# 4 0.0000 0.0000 0.0000 14.8202 0.0000 0.0000
# 5 0.0000 0.0000 0.0000 0.0000 -16.5349 0.0000
# 6 0.0000 0.0000 0.0000 0.0000 0.0000 6.7818
#
#
#
# Elastic Compliance Matrix: (Units=1/GPa)
#
#
# Indices 1 2 3 4 5 6 
#
# 1 0.009328 -0.000956 -0.003469 0.000000 0.000000 0.000000
# 2 -0.000956 0.013701 -0.000390 0.000000 0.000000 0.000000
# 3 -0.003469 -0.000390 0.007142 0.000000 0.000000 0.000000
# 4 0.000000 0.000000 0.000000 0.067476 0.000000 0.000000
# 5 0.000000 0.000000 0.000000 0.000000 -0.060478 0.000000
# 6 0.000000 0.000000 0.000000 0.000000 0.000000 0.147454
#
#
# Mechanical properties :
#
#
# Convention : Reuss Voigt Hill
#
# Bulk Modulus (GPa) = 48.68683 61.07283 54.87983
# Shear Modulus (GPa) = 24.86332 20.55548 22.70940
#
# Velocity S-wave (km/s) = 3.32587 3.02406 3.17855
# Velocity P-wave (km/s) = 6.03398 6.27407 6.15519
#
# Compressibility (1/GPa) = 0.02053943
#
# Stress axis : x y z
#
# Youngs Moduli (GPa) = 107.20642 72.98887 140.01526
#
# Poissons Ratio (x) = 0.06978 0.48578
# Poissons Ratio (y) = 0.10249 0.05462
# Poissons Ratio (z) = 0.37195 0.02847
#
# Static dielectric constant tensor:
#      x y z
#    x 1.763650 0.000000 0.000000 
#    y 0.000000 1.905930 0.000000 
#    z 0.000000 0.000000 2.043650 
# 
# From -- ./inp_files/59953.got.cif
#   From: 2010.05.17/outbox.cif.g08.bks.cpg/sg71_30_cif.got.tgz:59953.got - 2010.06.03 16:22:01.
