data_PCOD9522819
_publ_section_title
;
Structure prediction by ZEFSAII (Michael W. Deem and Ramdas Pophale) SiO2 
 PCOD9522819
Probable space group: I M M M
;
_chemical_formula_sum "Si O2"
_cell_formula_units_Z 112
_cell_length_a 11.447655
_cell_length_b 14.969414
_cell_length_c 34.190547
_cell_angle_alpha 90.000000
_cell_angle_beta 90.000000
_cell_angle_gamma 90.000000
_cell_volume 5859.052386
_symmetry_space_group_name_H-M "I M M M"
_symmetry_group_IT_number 71
_symmetry_cell_setting 'orthorhombic'
loop_
_space_group_symop_operation_xyz
x,y,z
-x,-y,z
x,-y,-z
-x,y,-z
-x,-y,-z
x,y,-z
-x,y,z
x,-y,z
1/2+x,1/2+y,1/2+z
1/2-x,1/2-y,1/2+z
1/2+x,1/2-y,1/2-z
1/2-x,1/2+y,1/2-z
1/2-x,1/2-y,1/2-z
1/2+x,1/2+y,1/2-z
1/2-x,1/2+y,1/2+z
1/2+x,1/2-y,1/2+z
loop_
_atom_site_type_symbol
_atom_site_label
_atom_site_fract_x
_atom_site_fract_y
_atom_site_fract_z
Si Si1 0.859560 0.602032 0.545077
Si Si2 0.865115 0.400411 0.953198
Si Si3 0.871351 0.602887 0.305474
Si Si4 0.756259 0.757318 0.402412
Si Si5 0.638024 0.601507 0.158838
Si Si6 0.373710 0.309208 0.333651
Si Si7 0.802102 0.331688 0.775087
O O1 0.822093 0.622477 0.500000
O O2 0.821141 0.500000 0.554243
O O3 0.819841 0.674960 0.576580
O O4 0.000000 0.601713 0.544901
O O5 0.828120 0.500000 0.940905
O O6 0.786065 0.325068 0.935233
O O7 0.000000 0.388711 0.941060
O O8 0.861986 0.397342 0.000000
O O9 0.872785 0.500000 0.317393
O O10 0.749791 0.643508 0.321948
O O11 0.862799 0.610310 0.258270
O O12 0.000000 0.642709 0.316863
O O13 0.825758 0.819724 0.371207
O O14 0.647281 0.718278 0.378211
O O15 0.500000 0.606184 0.164861
O O16 0.666893 0.500000 0.145232
O O17 0.703848 0.618133 0.199895
O O18 0.500000 0.355570 0.327915
O O19 0.376722 0.219221 0.307676
O O20 0.750000 0.250000 0.750000
#
# Coordination Sequence:
#
# PCOD9522819 Si02
#       7
#    16  16  16  16  16  16  16
#     4   9  19  36  57  81 108 142 190 243 290 339
#     4   9  18  33  54  80 108 139 178 223 271 329
#     4  10  21  37  57  79 103 135 179 231 282 329
#     4  11  20  33  55  80 110 147 186 230 281 337
#     4  10  21  35  52  80 117 153 188 228 283 351
#     4  10  22  36  52  78 110 144 180 220 271 331
#     4   9  19  34  54  75 100 136 182 229 272 320
#
# _framework density 19.115718999999999
#
# number of rings (size 3 to 8) (size 9 to 14) (size 15 to 20)
#    0.000    2.286    0.000    3.429    0.000    8.857 
#    0.000    1.429    0.000    8.143    0.000   11.000 
#    0.000    0.000    0.000    0.000    0.000    0.000 
#
# Total GULP energy -311806.178995 kJ/mol
# GULP energy per Si atom -5567.967482 kJ/mol
# Density = 1.907221 g / cm^3
# Si number density = 19.115719 Si / 1000 Ang^3
#
#
#
# Elastic Constant Matrix: (Units=GPa)
#
#
# Indices 1 2 3 4 5 6 
#
# 1 118.0303 45.0595 30.5583 0.0000 0.0000 0.0000
# 2 45.0595 98.4179 37.6098 0.0000 0.0000 0.0000
# 3 30.5583 37.6098 58.0269 0.0000 0.0000 0.0000
# 4 0.0000 0.0000 0.0000 13.9619 0.0000 0.0000
# 5 0.0000 0.0000 0.0000 0.0000 7.7060 0.0000
# 6 0.0000 0.0000 0.0000 0.0000 0.0000 21.7184
#
#
#
# Elastic Compliance Matrix: (Units=1/GPa)
#
#
# Indices 1 2 3 4 5 6 
#
# 1 0.010715 -0.003655 -0.003274 0.000000 0.000000 0.000000
# 2 -0.003655 0.014752 -0.007637 0.000000 0.000000 0.000000
# 3 -0.003274 -0.007637 0.023908 0.000000 0.000000 0.000000
# 4 0.000000 0.000000 0.000000 0.071624 0.000000 0.000000
# 5 0.000000 0.000000 0.000000 0.000000 0.129769 0.000000
# 6 0.000000 0.000000 0.000000 0.000000 0.000000 0.046044
#
#
# Mechanical properties :
#
#
# Convention : Reuss Voigt Hill
#
# Bulk Modulus (GPa) = 49.39860 55.65890 52.52875
# Shear Modulus (GPa) = 15.02892 19.42709 17.22800
#
# Velocity S-wave (km/s) = 2.80698 3.19139 3.00534
# Velocity P-wave (km/s) = 6.03353 6.53911 6.29140
#
# Compressibility (1/GPa) = 0.02024349
#
# Stress axis : x y z
#
# Youngs Moduli (GPa) = 93.32445 67.78528 41.82776
#
# Poissons Ratio (x) = 0.24773 0.13695
# Poissons Ratio (y) = 0.34107 0.31944
# Poissons Ratio (z) = 0.30556 0.51768
#
# Static dielectric constant tensor:
#      x y z
#    x 1.692190 0.000000 0.000000 
#    y 0.000000 1.678810 0.000000 
#    z 0.000000 0.000000 1.724890 
# 
# From -- ./inp_files/69332.got.cif
#   From: 2010.05.17/outbox.cif.g08.bks.cpg/sg71_35_cif.got.tgz:69332.got - 2010.06.03 16:22:01.
