data_PCOD9522511
_publ_section_title
;
Structure prediction by ZEFSAII (Michael W. Deem and Ramdas Pophale) SiO2 
 PCOD9522511
Probable space group: I M M M
;
_chemical_formula_sum "Si O2"
_cell_formula_units_Z 116
_cell_length_a 7.524176
_cell_length_b 24.574754
_cell_length_c 28.016205
_cell_angle_alpha 90.000000
_cell_angle_beta 90.000000
_cell_angle_gamma 90.000000
_cell_volume 5180.330061
_symmetry_space_group_name_H-M "I M M M"
_symmetry_group_IT_number 71
_symmetry_cell_setting 'orthorhombic'
loop_
_space_group_symop_operation_xyz
x,y,z
-x,-y,z
x,-y,-z
-x,y,-z
-x,-y,-z
x,y,-z
-x,y,z
x,-y,z
1/2+x,1/2+y,1/2+z
1/2-x,1/2-y,1/2+z
1/2+x,1/2-y,1/2-z
1/2-x,1/2+y,1/2-z
1/2-x,1/2-y,1/2-z
1/2+x,1/2+y,1/2-z
1/2-x,1/2+y,1/2+z
1/2+x,1/2-y,1/2+z
loop_
_atom_site_type_symbol
_atom_site_label
_atom_site_fract_x
_atom_site_fract_y
_atom_site_fract_z
Si Si1 0.787303 0.198933 0.785391
Si Si2 0.286275 0.563923 0.947248
Si Si3 0.713102 0.061850 0.054139
Si Si4 0.200028 0.352328 0.870562
Si Si5 0.212131 0.831440 0.109952
Si Si6 0.282613 0.232265 0.447526
Si Si7 0.500000 0.000000 0.280278
Si Si8 0.202574 0.904143 0.725081
O O1 0.750000 0.250000 0.750000
O O2 0.719528 0.194258 0.840101
O O3 0.734075 0.141381 0.762394
O O4 0.000000 0.198612 0.788045
O O5 0.500000 0.570485 0.943454
O O6 0.248941 0.500000 0.944080
O O7 0.194966 0.595884 0.905322
O O8 0.231101 0.582987 0.000000
O O9 0.500000 0.059731 0.051773
O O10 0.754115 0.106542 0.094432
O O11 0.775448 0.000000 0.064670
O O12 0.776456 0.076394 0.000000
O O13 0.277867 0.306280 0.904712
O O14 0.302576 0.370436 0.824269
O O15 0.000000 0.336024 0.855979
O O16 0.271126 0.792978 0.066485
O O17 0.000000 0.826214 0.112611
O O18 0.219907 0.216577 0.500000
O O19 0.500000 0.228368 0.448039
O O20 0.343037 0.047649 0.279888
O O21 0.000000 0.922147 0.736349
#
# Coordination Sequence:
#
# PCOD9522511 Si02
#       8
#    16  16  16  16  16  16   4  16
#     4  10  23  42  67  96 132 173 219 280 342 404
#     4   9  19  34  50  71 104 148 196 251 313 371
#     4   9  19  37  58  85 124 165 204 251 309 375
#     4  11  21  35  57  84 118 162 218 263 320 390
#     4  10  20  37  61  91 122 160 210 259 316 379
#     4   9  18  32  54  87 127 168 210 265 322 381
#     4  12  26  48  72  98 133 178 235 278 352 420
#     4  11  25  45  67  99 135 175 226 288 344 403
#
# _framework density 22.392395
#
# number of rings (size 3 to 8) (size 9 to 14) (size 15 to 20)
#    0.000    2.069    0.690    3.103    1.931    3.862 
#    1.241    2.759    0.000    3.310    0.000    0.000 
#    0.000    0.000    0.000    0.000    0.000    0.000 
#
# Total GULP energy -323232.819834 kJ/mol
# GULP energy per Si atom -5572.979652 kJ/mol
# Density = 2.234143 g / cm^3
# Si number density = 22.392395 Si / 1000 Ang^3
#
#
#
# Elastic Constant Matrix: (Units=GPa)
#
#
# Indices 1 2 3 4 5 6 
#
# 1 76.3862 20.0427 10.1222 0.0000 0.0000 0.0000
# 2 20.0427 122.9127 53.5555 0.0000 0.0000 0.0000
# 3 10.1222 53.5555 91.9301 0.0000 0.0000 0.0000
# 4 0.0000 0.0000 0.0000 22.3543 0.0000 0.0000
# 5 0.0000 0.0000 0.0000 0.0000 14.9140 0.0000
# 6 0.0000 0.0000 0.0000 0.0000 0.0000 28.7032
#
#
#
# Elastic Compliance Matrix: (Units=1/GPa)
#
#
# Indices 1 2 3 4 5 6 
#
# 1 0.013682 -0.002110 -0.000277 0.000000 0.000000 0.000000
# 2 -0.002110 0.011229 -0.006309 0.000000 0.000000 0.000000
# 3 -0.000277 -0.006309 0.014584 0.000000 0.000000 0.000000
# 4 0.000000 0.000000 0.000000 0.044734 0.000000 0.000000
# 5 0.000000 0.000000 0.000000 0.000000 0.067051 0.000000
# 6 0.000000 0.000000 0.000000 0.000000 0.000000 0.034839
#
#
# Mechanical properties :
#
#
# Convention : Reuss Voigt Hill
#
# Bulk Modulus (GPa) = 45.24599 50.96331 48.10465
# Shear Modulus (GPa) = 23.71018 27.02821 25.36919
#
# Velocity S-wave (km/s) = 3.25753 3.47800 3.36957
# Velocity P-wave (km/s) = 5.86502 6.23997 6.05540
#
# Compressibility (1/GPa) = 0.02210141
#
# Stress axis : x y z
#
# Youngs Moduli (GPa) = 73.08983 89.05455 68.56854
#
# Poissons Ratio (x) = 0.18793 0.01900
# Poissons Ratio (y) = 0.15424 0.43262
# Poissons Ratio (z) = 0.02025 0.56187
#
# Static dielectric constant tensor:
#      x y z
#    x 1.893090 0.000000 0.000000 
#    y 0.000000 1.835200 0.000000 
#    z 0.000000 0.000000 1.614210 
# 
# From -- ./inp_files/63650.got.cif
#   From: 2010.05.17/outbox.cif.g08.bks.cpg/sg71_32_cif.got.tgz:63650.got - 2010.06.03 16:22:01.
