data_PCOD9522640
_publ_section_title
;
Structure prediction by ZEFSAII (Michael W. Deem and Ramdas Pophale) SiO2 
 PCOD9522640
Probable space group: I M M M
;
_chemical_formula_sum "Si O2"
_cell_formula_units_Z 104
_cell_length_a 16.041237
_cell_length_b 14.970298
_cell_length_c 21.982611
_cell_angle_alpha 90.000000
_cell_angle_beta 90.000000
_cell_angle_gamma 90.000000
_cell_volume 5278.950329
_symmetry_space_group_name_H-M "I M M M"
_symmetry_group_IT_number 71
_symmetry_cell_setting 'orthorhombic'
loop_
_space_group_symop_operation_xyz
x,y,z
-x,-y,z
x,-y,-z
-x,y,-z
-x,-y,-z
x,y,-z
-x,y,z
x,-y,z
1/2+x,1/2+y,1/2+z
1/2-x,1/2-y,1/2+z
1/2+x,1/2-y,1/2-z
1/2-x,1/2+y,1/2-z
1/2-x,1/2-y,1/2-z
1/2+x,1/2+y,1/2-z
1/2-x,1/2+y,1/2+z
1/2+x,1/2-y,1/2+z
loop_
_atom_site_type_symbol
_atom_site_label
_atom_site_fract_x
_atom_site_fract_y
_atom_site_fract_z
Si Si1 0.000000 0.608779 0.431483
Si Si2 0.597585 0.352631 0.239825
Si Si3 0.403023 0.858242 0.730277
Si Si4 0.720213 0.274323 0.570634
Si Si5 0.400593 0.401883 0.376941
Si Si6 0.746997 0.603443 0.144433
Si Si7 0.659139 0.100550 0.860921
O O1 0.919301 0.639272 0.396875
O O2 0.000000 0.500000 0.429584
O O3 0.000000 0.638371 0.500000
O O4 0.500000 0.375680 0.224032
O O5 0.599023 0.247308 0.255153
O O6 0.620619 0.396608 0.304737
O O7 0.667721 0.373985 0.188914
O O8 0.500000 0.882641 0.717970
O O9 0.334468 0.882610 0.680332
O O10 0.368476 0.901762 0.791750
O O11 0.741045 0.290880 0.500000
O O12 0.629472 0.315562 0.585110
O O13 0.743441 0.174047 0.589646
O O14 0.767938 0.335468 0.619851
O O15 0.500000 0.401189 0.378628
O O16 0.371899 0.500000 0.400304
O O17 0.739276 0.500000 0.126496
O O18 0.676182 0.000000 0.881931
#
# Coordination Sequence:
#
# PCOD9522640 Si02
#       7
#     8  16  16  16  16  16  16
#     4   9  18  32  50  78 119 161 194 222 270 351
#     4  10  20  39  67  96 127 160 196 248 316 377
#     4  11  21  38  65  96 130 162 196 247 313 377
#     4  12  26  43  60  83 119 163 213 260 300 355
#     4  10  21  39  65  96 126 156 194 248 316 381
#     4  12  25  41  64  91 122 164 211 259 312 364
#     4  11  21  35  58  89 122 156 192 238 299 366
#
# _framework density 19.700886000000001
#
# number of rings (size 3 to 8) (size 9 to 14) (size 15 to 20)
#    0.000    1.154    3.846    3.231    0.000    4.308 
#    0.000    0.769    0.000    0.000    0.000    3.231 
#    0.000    0.000    0.000    0.000    0.000    0.000 
#
# Total GULP energy -290035.932878 kJ/mol
# GULP energy per Si atom -5577.614094 kJ/mol
# Density = 1.965605 g / cm^3
# Si number density = 19.700886 Si / 1000 Ang^3
#
#
#
# Elastic Constant Matrix: (Units=GPa)
#
#
# Indices 1 2 3 4 5 6 
#
# 1 94.1129 15.9258 19.2132 0.0000 0.0000 0.0000
# 2 15.9258 116.3748 3.4433 0.0000 0.0000 0.0000
# 3 19.2132 3.4433 25.3196 0.0000 0.0000 0.0000
# 4 0.0000 0.0000 0.0000 20.1467 0.0000 0.0000
# 5 0.0000 0.0000 0.0000 0.0000 22.2463 0.0000
# 6 0.0000 0.0000 0.0000 0.0000 0.0000 -61.0337
#
#
#
# Elastic Compliance Matrix: (Units=1/GPa)
#
#
# Indices 1 2 3 4 5 6 
#
# 1 0.012820 -0.001472 -0.009528 0.000000 0.000000 0.000000
# 2 -0.001472 0.008797 -0.000079 0.000000 0.000000 0.000000
# 3 -0.009528 -0.000079 0.046736 0.000000 0.000000 0.000000
# 4 0.000000 0.000000 0.000000 0.049636 0.000000 0.000000
# 5 0.000000 0.000000 0.000000 0.000000 0.044951 0.000000
# 6 0.000000 0.000000 0.000000 0.000000 0.000000 -0.016384
#
#
# Mechanical properties :
#
#
# Convention : Reuss Voigt Hill
#
# Bulk Modulus (GPa) = 21.64785 34.77465 28.21125
# Shear Modulus (GPa) = 27.15746 9.42019 18.28883
#
# Velocity S-wave (km/s) = 3.71683 2.18906 3.05015
# Velocity P-wave (km/s) = 5.42512 4.90703 5.17256
#
# Compressibility (1/GPa) = 0.04619396
#
# Stress axis : x y z
#
# Youngs Moduli (GPa) = 78.00434 113.67808 21.39689
#
# Poissons Ratio (x) = 0.16739 0.20386
# Poissons Ratio (y) = 0.11486 0.00169
# Poissons Ratio (z) = 0.74321 0.00898
#
# Static dielectric constant tensor:
#      x y z
#    x 1.771060 0.000000 0.000000 
#    y 0.000000 1.765680 0.000000 
#    z 0.000000 0.000000 1.732570 
# 
# From -- ./inp_files/54134.got.cif
#   From: 2010.05.17/outbox.cif.g08.bks.cpg/sg71_28_cif.got.tgz:54134.got - 2010.06.03 16:22:01.
