data_PCOD9522187
_publ_section_title
;
Structure prediction by ZEFSAII (Michael W. Deem and Ramdas Pophale) SiO2 
 PCOD9522187
Probable space group: I M M M
;
_chemical_formula_sum "Si O2"
_cell_formula_units_Z 88
_cell_length_a 21.080047
_cell_length_b 25.229386
_cell_length_c 7.812040
_cell_angle_alpha 90.000000
_cell_angle_beta 90.000000
_cell_angle_gamma 90.000000
_cell_volume 4154.729126
_symmetry_space_group_name_H-M "I M M M"
_symmetry_group_IT_number 71
_symmetry_cell_setting 'orthorhombic'
loop_
_space_group_symop_operation_xyz
x,y,z
-x,-y,z
x,-y,-z
-x,y,-z
-x,-y,-z
x,y,-z
-x,y,z
x,-y,z
1/2+x,1/2+y,1/2+z
1/2-x,1/2-y,1/2+z
1/2+x,1/2-y,1/2-z
1/2-x,1/2+y,1/2-z
1/2-x,1/2-y,1/2-z
1/2+x,1/2+y,1/2-z
1/2-x,1/2+y,1/2+z
1/2+x,1/2-y,1/2+z
loop_
_atom_site_type_symbol
_atom_site_label
_atom_site_fract_x
_atom_site_fract_y
_atom_site_fract_z
Si Si1 0.135996 0.604457 0.290344
Si Si2 0.213199 0.500000 0.293178
Si Si3 0.357422 0.500000 0.200448
Si Si4 0.927877 0.777399 0.801194
Si Si5 0.925835 0.103213 0.702948
Si Si6 0.691593 0.786823 0.806851
Si Si7 0.000000 0.437395 0.290722
O O1 0.133684 0.607500 0.500000
O O2 0.175301 0.552426 0.243333
O O3 0.171663 0.657002 0.223561
O O4 0.063513 0.593510 0.235457
O O5 0.218289 0.500000 0.500000
O O6 0.282701 0.500000 0.216846
O O7 0.385525 0.554410 0.273118
O O8 0.376860 0.500000 0.000000
O O9 0.915306 0.840191 0.788737
O O10 0.873005 0.746936 0.703465
O O11 0.000000 0.768319 0.737070
O O12 0.925291 0.761528 0.000000
O O13 0.912589 0.110633 0.500000
O O14 0.000000 0.089672 0.720452
O O15 0.750000 0.750000 0.750000
O O16 0.708561 0.800492 0.000000
O O17 0.000000 0.500000 0.238950
O O18 0.000000 0.438467 0.500000
#
# Coordination Sequence:
#
# PCOD9522187 Si02
#       7
#    16   8   8  16  16  16   8
#     4   9  19  34  56  86 116 146 186 234 287 348
#     4  10  20  36  55  83 116 149 184 228 287 346
#     4  10  21  34  53  83 113 147 188 232 287 347
#     4  10  22  40  60  84 116 153 195 244 295 348
#     4   9  18  35  58  82 110 145 188 238 288 342
#     4  11  24  40  60  87 119 158 201 246 295 353
#     4   9  14  28  56  88 118 142 174 231 294 345
#
# _framework density 21.180682999999998
#
# number of rings (size 3 to 8) (size 9 to 14) (size 15 to 20)
#    0.000    2.273    0.909    1.364    3.818    2.909 
#    0.000    0.909    0.000    2.727    0.000    0.636 
#    0.000    0.000    0.000    0.000    0.000    0.000 
#
# Total GULP energy -245563.123074 kJ/mol
# GULP energy per Si atom -5580.980070 kJ/mol
# Density = 2.113247 g / cm^3
# Si number density = 21.180683 Si / 1000 Ang^3
#
#
#
# Elastic Constant Matrix: (Units=GPa)
#
#
# Indices 1 2 3 4 5 6 
#
# 1 73.9258 82.9638 3.5310 0.0000 0.0000 0.0000
# 2 82.9638 141.0350 4.4003 0.0000 0.0000 0.0000
# 3 3.5310 4.4003 24.4264 0.0000 0.0000 0.0000
# 4 0.0000 0.0000 0.0000 -13.9223 0.0000 0.0000
# 5 0.0000 0.0000 0.0000 0.0000 21.5530 0.0000
# 6 0.0000 0.0000 0.0000 0.0000 0.0000 34.9481
#
#
#
# Elastic Compliance Matrix: (Units=1/GPa)
#
#
# Indices 1 2 3 4 5 6 
#
# 1 0.039863 -0.023401 -0.001547 0.000000 0.000000 0.000000
# 2 -0.023401 0.020868 -0.000376 0.000000 0.000000 0.000000
# 3 -0.001547 -0.000376 0.041231 0.000000 0.000000 0.000000
# 4 0.000000 0.000000 0.000000 -0.071827 0.000000 0.000000
# 5 0.000000 0.000000 0.000000 0.000000 0.046397 0.000000
# 6 0.000000 0.000000 0.000000 0.000000 0.000000 0.028614
#
#
# Mechanical properties :
#
#
# Convention : Reuss Voigt Hill
#
# Bulk Modulus (GPa) = 19.48832 46.79748 33.14290
# Shear Modulus (GPa) = 28.91854 18.41523 23.66688
#
# Velocity S-wave (km/s) = 3.69904 2.95182 3.34635
# Velocity P-wave (km/s) = 5.24069 5.81034 5.53285
#
# Compressibility (1/GPa) = 0.05131278
#
# Stress axis : x y z
#
# Youngs Moduli (GPa) = 25.08574 47.92028 24.25372
#
# Poissons Ratio (x) = 1.12140 0.03752
# Poissons Ratio (y) = 0.58704 0.00913
# Poissons Ratio (z) = 0.03881 0.01804
#
# Static dielectric constant tensor:
#      x y z
#    x 1.725840 0.000000 0.000000 
#    y 0.000000 1.764840 0.000000 
#    z 0.000000 0.000000 1.798310 
# 
# From -- ./inp_files/10515.got.cif
#   From: 2010.05.17/outbox.cif.g08.bks.cpg/sg71_6_cif.got.tgz:10515.got - 2010.06.03 16:22:01.
