data_PCOD9522448
_publ_section_title
;
Structure prediction by ZEFSAII (Michael W. Deem and Ramdas Pophale) SiO2 
 PCOD9522448
Probable space group: I M M M
;
_chemical_formula_sum "Si O2"
_cell_formula_units_Z 48
_cell_length_a 8.961814
_cell_length_b 16.869468
_cell_length_c 19.305129
_cell_angle_alpha 90.000000
_cell_angle_beta 90.000000
_cell_angle_gamma 90.000000
_cell_volume 2918.569373
_symmetry_space_group_name_H-M "I M M M"
_symmetry_group_IT_number 71
_symmetry_cell_setting 'orthorhombic'
loop_
_space_group_symop_operation_xyz
x,y,z
-x,-y,z
x,-y,-z
-x,y,-z
-x,-y,-z
x,y,-z
-x,y,z
x,-y,z
1/2+x,1/2+y,1/2+z
1/2-x,1/2-y,1/2+z
1/2+x,1/2-y,1/2-z
1/2-x,1/2+y,1/2-z
1/2-x,1/2-y,1/2-z
1/2+x,1/2+y,1/2-z
1/2-x,1/2+y,1/2+z
1/2+x,1/2-y,1/2+z
loop_
_atom_site_type_symbol
_atom_site_label
_atom_site_fract_x
_atom_site_fract_y
_atom_site_fract_z
Si Si1 0.177784 0.693767 0.000000
Si Si2 0.179277 0.500000 0.394838
Si Si3 0.821092 0.119634 0.000000
Si Si4 0.174268 0.910490 0.616967
Si Si5 0.177897 0.500000 0.767498
O O1 0.246523 0.651177 0.067218
O O2 0.210855 0.787164 0.000000
O O3 0.000000 0.683030 0.000000
O O4 0.249633 0.575428 0.433978
O O5 0.213362 0.500000 0.313389
O O6 0.000000 0.500000 0.403666
O O7 0.000000 0.108101 0.000000
O O8 0.000000 0.891724 0.624927
O O9 0.184709 0.000000 0.585635
O O10 0.252174 0.925068 0.691284
O O11 0.000000 0.500000 0.776395
#
# Coordination Sequence:
#
# PCOD9522448 Si02
#       5
#     8   8   8  16   8
#     4  11  21  33  51  78 108 138 173 211 254 302
#     4  10  20  37  59  79  99 132 175 214 260 307
#     4  10  22  36  55  79 103 135 172 214 259 303
#     4   9  19  32  51  79 106 138 173 206 254 305
#     4   9  18  33  54  78 103 134 172 211 252 307
#
# _framework density 16.446413
#
# number of rings (size 3 to 8) (size 9 to 14) (size 15 to 20)
#    1.000    1.333    0.000    4.000    0.000    7.333 
#    0.000    1.667    0.000    0.000    0.000    0.000 
#    0.000    0.000    0.000    0.000    0.000    0.000 
#
# Total GULP energy -133652.854284 kJ/mol
# GULP energy per Si atom -5568.868928 kJ/mol
# Density = 1.640898 g / cm^3
# Si number density = 16.446413 Si / 1000 Ang^3
#
#
#
# Elastic Constant Matrix: (Units=GPa)
#
#
# Indices 1 2 3 4 5 6 
#
# 1 119.3328 78.8920 89.6762 0.0000 0.0000 0.0000
# 2 78.8920 110.9213 78.6350 0.0000 0.0000 0.0000
# 3 89.6762 78.6350 170.8196 0.0000 0.0000 0.0000
# 4 0.0000 0.0000 0.0000 -6.0034 0.0000 0.0000
# 5 0.0000 0.0000 0.0000 0.0000 20.2295 0.0000
# 6 0.0000 0.0000 0.0000 0.0000 0.0000 25.6356
#
#
#
# Elastic Compliance Matrix: (Units=1/GPa)
#
#
# Indices 1 2 3 4 5 6 
#
# 1 0.018753 -0.009439 -0.005500 0.000000 0.000000 0.000000
# 2 -0.009439 0.018134 -0.003392 0.000000 0.000000 0.000000
# 3 -0.005500 -0.003392 0.010303 0.000000 0.000000 0.000000
# 4 0.000000 0.000000 0.000000 -0.166572 0.000000 0.000000
# 5 0.000000 0.000000 0.000000 0.000000 0.049433 0.000000
# 6 0.000000 0.000000 0.000000 0.000000 0.000000 0.039008
#
#
# Mechanical properties :
#
#
# Convention : Reuss Voigt Hill
#
# Bulk Modulus (GPa) = 94.98963 99.49778 97.24371
# Shear Modulus (GPa) = 541.63826 18.23039 279.93433
#
# Velocity S-wave (km/s) = 18.16728 3.33298 13.06061
# Velocity P-wave (km/s) = 22.31478 8.68569 16.93208
#
# Compressibility (1/GPa) = 0.01052746
#
# Stress axis : x y z
#
# Youngs Moduli (GPa) = 53.32426 55.14533 97.05876
#
# Poissons Ratio (x) = 0.52052 0.53380
# Poissons Ratio (y) = 0.50334 0.32926
# Poissons Ratio (z) = 0.29327 0.18708
#
# Static dielectric constant tensor:
#      x y z
#    x 1.548880 0.000000 0.000000 
#    y 0.000000 1.535960 0.000000 
#    z 0.000000 0.000000 1.543560 
# 
# From -- ./inp_files/49898.got.cif
#   From: 2010.05.17/outbox.cif.g08.bks.cpg/sg71_25_cif.got.tgz:49898.got - 2010.06.03 16:22:01.
