data_PCOD9522294
_publ_section_title
;
Structure prediction by ZEFSAII (Michael W. Deem and Ramdas Pophale) SiO2 
 PCOD9522294
Probable space group: I M M M
;
_chemical_formula_sum "Si O2"
_cell_formula_units_Z 88
_cell_length_a 18.905431
_cell_length_b 10.407641
_cell_length_c 22.610090
_cell_angle_alpha 90.000000
_cell_angle_beta 90.000000
_cell_angle_gamma 90.000000
_cell_volume 4448.782535
_symmetry_space_group_name_H-M "I M M M"
_symmetry_group_IT_number 71
_symmetry_cell_setting 'orthorhombic'
loop_
_space_group_symop_operation_xyz
x,y,z
-x,-y,z
x,-y,-z
-x,y,-z
-x,-y,-z
x,y,-z
-x,y,z
x,-y,z
1/2+x,1/2+y,1/2+z
1/2-x,1/2-y,1/2+z
1/2+x,1/2-y,1/2-z
1/2-x,1/2+y,1/2-z
1/2-x,1/2-y,1/2-z
1/2+x,1/2+y,1/2-z
1/2-x,1/2+y,1/2+z
1/2+x,1/2-y,1/2+z
loop_
_atom_site_type_symbol
_atom_site_label
_atom_site_fract_x
_atom_site_fract_y
_atom_site_fract_z
Si Si1 0.338618 0.849910 0.618576
Si Si2 0.921345 0.500000 0.314662
Si Si3 0.814159 0.213900 0.569541
Si Si4 0.139427 0.500000 0.564211
Si Si5 0.084174 0.220190 0.675175
Si Si6 0.421235 0.844718 0.500000
Si Si7 0.916454 0.856731 0.195229
O O1 0.257144 0.836322 0.599563
O O2 0.380846 0.810940 0.559380
O O3 0.366259 0.751301 0.667588
O O4 0.353374 0.000000 0.633426
O O5 0.919784 0.500000 0.385962
O O6 0.888190 0.361685 0.303354
O O7 0.000000 0.500000 0.288566
O O8 0.820743 0.174145 0.500000
O O9 0.815466 0.370005 0.569508
O O10 0.876973 0.178423 0.615250
O O11 0.105543 0.500000 0.500000
O O12 0.093433 0.138352 0.733957
O O13 0.000000 0.232238 0.663552
O O14 0.500000 0.791971 0.500000
O O15 0.424412 0.000000 0.500000
O O16 0.000000 0.824559 0.185219
O O17 0.902985 0.000000 0.170949
#
# Coordination Sequence:
#
# PCOD9522294 Si02
#       7
#    16   8  16   8  16   8  16
#     4  11  23  38  61  91 120 157 199 246 301 357
#     4   8  14  27  50  80 110 145 196 246 286 338
#     4  10  20  36  58  87 124 161 202 250 302 358
#     4   8  16  29  48  76 112 158 193 231 291 349
#     4   9  19  36  59  86 121 162 203 250 300 354
#     4   9  18  36  59  85 116 148 189 242 299 353
#     4  10  23  42  62  88 122 158 199 247 301 360
#
# _framework density 19.780694
#
# number of rings (size 3 to 8) (size 9 to 14) (size 15 to 20)
#    0.000    2.455    0.909    0.545    2.545    3.091 
#    0.000    4.091    0.000    1.636    0.000    3.818 
#    0.000    0.000    0.000    0.000    0.000    0.000 
#
# Total GULP energy -244999.792376 kJ/mol
# GULP energy per Si atom -5568.177099 kJ/mol
# Density = 1.973567 g / cm^3
# Si number density = 19.780694 Si / 1000 Ang^3
#
#
#
# Elastic Constant Matrix: (Units=GPa)
#
#
# Indices 1 2 3 4 5 6 
#
# 1 88.6064 30.0749 51.9967 0.0000 0.0000 0.0000
# 2 30.0749 86.5048 43.3250 0.0000 0.0000 0.0000
# 3 51.9967 43.3250 108.6440 0.0000 0.0000 0.0000
# 4 0.0000 0.0000 0.0000 3.2063 0.0000 0.0000
# 5 0.0000 0.0000 0.0000 0.0000 37.4267 0.0000
# 6 0.0000 0.0000 0.0000 0.0000 0.0000 15.4946
#
#
#
# Elastic Compliance Matrix: (Units=1/GPa)
#
#
# Indices 1 2 3 4 5 6 
#
# 1 0.016010 -0.002160 -0.006801 0.000000 0.000000 0.000000
# 2 -0.002160 0.014736 -0.004843 0.000000 0.000000 0.000000
# 3 -0.006801 -0.004843 0.014391 0.000000 0.000000 0.000000
# 4 0.000000 0.000000 0.000000 0.311890 0.000000 0.000000
# 5 0.000000 0.000000 0.000000 0.000000 0.026719 0.000000
# 6 0.000000 0.000000 0.000000 0.000000 0.000000 0.064539
#
#
# Mechanical properties :
#
#
# Convention : Reuss Voigt Hill
#
# Bulk Modulus (GPa) = 57.04695 59.39427 58.22061
# Shear Modulus (GPa) = 10.37914 21.78275 16.08095
#
# Velocity S-wave (km/s) = 2.29314 3.32205 2.85434
# Velocity P-wave (km/s) = 5.99280 6.69375 6.35295
#
# Compressibility (1/GPa) = 0.01752942
#
# Stress axis : x y z
#
# Youngs Moduli (GPa) = 62.46090 67.85877 69.49006
#
# Poissons Ratio (x) = 0.14657 0.47260
# Poissons Ratio (y) = 0.13491 0.33653
# Poissons Ratio (z) = 0.42480 0.32863
#
# Static dielectric constant tensor:
#      x y z
#    x 1.697040 0.000000 0.000000 
#    y 0.000000 1.758390 0.000000 
#    z 0.000000 0.000000 1.697700 
# 
# From -- ./inp_files/53964.got.cif
#   From: 2010.05.17/outbox.cif.g08.bks.cpg/sg71_27_cif.got.tgz:53964.got - 2010.06.03 16:22:01.
