data_PCOD9522772
_publ_section_title
;
Structure prediction by ZEFSAII (Michael W. Deem and Ramdas Pophale) SiO2 
 PCOD9522772
Probable space group: I M M M
;
_chemical_formula_sum "Si O2"
_cell_formula_units_Z 112
_cell_length_a 28.264807
_cell_length_b 13.231601
_cell_length_c 14.814056
_cell_angle_alpha 90.000000
_cell_angle_beta 90.000000
_cell_angle_gamma 90.000000
_cell_volume 5540.288783
_symmetry_space_group_name_H-M "I M M M"
_symmetry_group_IT_number 71
_symmetry_cell_setting 'orthorhombic'
loop_
_space_group_symop_operation_xyz
x,y,z
-x,-y,z
x,-y,-z
-x,y,-z
-x,-y,-z
x,y,-z
-x,y,z
x,-y,z
1/2+x,1/2+y,1/2+z
1/2-x,1/2-y,1/2+z
1/2+x,1/2-y,1/2-z
1/2-x,1/2+y,1/2-z
1/2-x,1/2-y,1/2-z
1/2+x,1/2+y,1/2-z
1/2-x,1/2+y,1/2+z
1/2+x,1/2-y,1/2+z
loop_
_atom_site_type_symbol
_atom_site_label
_atom_site_fract_x
_atom_site_fract_y
_atom_site_fract_z
Si Si1 0.868794 0.722173 0.101629
Si Si2 0.652933 0.610445 0.894780
Si Si3 0.688082 0.823356 0.109545
Si Si4 0.706613 0.612374 0.609722
Si Si5 0.054331 0.888043 0.869944
Si Si6 0.447239 0.681684 0.166456
Si Si7 0.400476 0.887482 0.222412
O O1 0.826629 0.794670 0.136870
O O2 0.912648 0.799644 0.095885
O O3 0.882277 0.640866 0.177078
O O4 0.858352 0.684285 0.000000
O O5 0.661010 0.500000 0.853232
O O6 0.682156 0.706315 0.859976
O O7 0.597507 0.639601 0.887700
O O8 0.665017 0.603794 0.000000
O O9 0.739042 0.866964 0.134312
O O10 0.644842 0.880202 0.156589
O O11 0.683431 0.828217 0.000000
O O12 0.704196 0.612238 0.500000
O O13 0.691882 0.500000 0.639980
O O14 0.054221 0.876878 0.761628
O O15 0.000000 0.877083 0.898572
O O16 0.071220 0.000000 0.894966
O O17 0.500000 0.671005 0.127527
O O18 0.435770 0.798661 0.190435
O O19 0.420609 0.000000 0.220197
#
# Coordination Sequence:
#
# PCOD9522772 Si02
#       7
#    16  16  16  16  16  16  16
#     4  10  21  35  50  73 105 135 168 211 255 305
#     4   9  17  29  47  73 106 141 171 201 244 301
#     4   9  18  34  55  78 103 131 169 213 252 297
#     4   9  17  31  53  78 104 136 171 210 258 305
#     4   9  17  30  50  74  99 129 163 202 253 308
#     4   9  18  32  49  71 100 131 168 213 254 299
#     4  10  21  36  54  74  97 131 173 213 258 308
#
# _framework density 20.215554000000001
#
# number of rings (size 3 to 8) (size 9 to 14) (size 15 to 20)
#    0.000    2.714    0.000    1.286    0.000    4.286 
#    0.000    2.857    0.000    2.571    0.000    8.000 
#    0.000    0.000    0.000    0.000    0.000    0.000 
#
# Total GULP energy -312373.687234 kJ/mol
# GULP energy per Si atom -5578.101558 kJ/mol
# Density = 2.016954 g / cm^3
# Si number density = 20.215554 Si / 1000 Ang^3
#
#
#
# Elastic Constant Matrix: (Units=GPa)
#
#
# Indices 1 2 3 4 5 6 
#
# 1 46.4046 -7.0849 2.9021 0.0000 0.0000 0.0000
# 2 -7.0849 97.8018 6.3188 0.0000 0.0000 0.0000
# 3 2.9021 6.3188 49.4361 0.0000 0.0000 0.0000
# 4 0.0000 0.0000 0.0000 16.6306 0.0000 0.0000
# 5 0.0000 0.0000 0.0000 0.0000 18.2020 0.0000
# 6 0.0000 0.0000 0.0000 0.0000 0.0000 11.5599
#
#
#
# Elastic Compliance Matrix: (Units=1/GPa)
#
#
# Indices 1 2 3 4 5 6 
#
# 1 0.021900 0.001683 -0.001501 0.000000 0.000000 0.000000
# 2 0.001683 0.010439 -0.001433 0.000000 0.000000 0.000000
# 3 -0.001501 -0.001433 0.020499 0.000000 0.000000 0.000000
# 4 0.000000 0.000000 0.000000 0.060130 0.000000 0.000000
# 5 0.000000 0.000000 0.000000 0.000000 0.054939 0.000000
# 6 0.000000 0.000000 0.000000 0.000000 0.000000 0.086506
#
#
# Mechanical properties :
#
#
# Convention : Reuss Voigt Hill
#
# Bulk Modulus (GPa) = 19.86565 21.99051 20.92808
# Shear Modulus (GPa) = 18.26854 22.04561 20.15708
#
# Velocity S-wave (km/s) = 3.00940 3.30590 3.16113
# Velocity P-wave (km/s) = 4.68226 5.04713 4.86812
#
# Compressibility (1/GPa) = 0.05033814
#
# Stress axis : x y z
#
# Youngs Moduli (GPa) = 45.66115 95.79180 48.78187
#
# Poissons Ratio (x) = -0.16126 0.07321
# Poissons Ratio (y) = -0.07687 0.06991
# Poissons Ratio (z) = 0.06853 0.13729
#
# Static dielectric constant tensor:
#      x y z
#    x 1.697690 0.000000 0.000000 
#    y 0.000000 1.729970 0.000000 
#    z 0.000000 0.000000 1.750530 
# 
# From -- ./inp_files/22672.got.cif
#   From: 2010.05.17/outbox.cif.g08.bks.cpg/sg71_12_cif.got.tgz:22672.got - 2010.06.03 16:22:01.
