data_PCOD9522610
_publ_section_title
;
Structure prediction by ZEFSAII (Michael W. Deem and Ramdas Pophale) SiO2 
 PCOD9522610
Probable space group: I M M M
;
_chemical_formula_sum "Si O2"
_cell_formula_units_Z 66
_cell_length_a 26.394785
_cell_length_b 15.623177
_cell_length_c 7.898593
_cell_angle_alpha 90.000000
_cell_angle_beta 90.000000
_cell_angle_gamma 90.000000
_cell_volume 3257.145939
_symmetry_space_group_name_H-M "I M M M"
_symmetry_group_IT_number 71
_symmetry_cell_setting 'orthorhombic'
loop_
_space_group_symop_operation_xyz
x,y,z
-x,-y,z
x,-y,-z
-x,y,-z
-x,-y,-z
x,y,-z
-x,y,z
x,-y,z
1/2+x,1/2+y,1/2+z
1/2-x,1/2-y,1/2+z
1/2+x,1/2-y,1/2-z
1/2-x,1/2+y,1/2-z
1/2-x,1/2-y,1/2-z
1/2+x,1/2+y,1/2-z
1/2-x,1/2+y,1/2+z
1/2+x,1/2-y,1/2+z
loop_
_atom_site_type_symbol
_atom_site_label
_atom_site_fract_x
_atom_site_fract_y
_atom_site_fract_z
Si Si1 0.650843 0.171680 0.701139
Si Si2 0.500000 0.000000 0.000000
Si Si3 0.366295 0.644692 0.196618
Si Si4 0.556381 0.500000 0.301112
Si Si5 0.914512 0.500000 0.798650
Si Si6 0.254818 0.599183 0.206781
O O1 0.653637 0.187215 0.500000
O O2 0.624993 0.254808 0.779684
O O3 0.619695 0.084704 0.724586
O O4 0.708025 0.156734 0.767505
O O5 0.456382 0.000000 0.847409
O O6 0.410393 0.583573 0.260685
O O7 0.310426 0.624798 0.270842
O O8 0.362115 0.623939 0.000000
O O9 0.500000 0.500000 0.221967
O O10 0.550282 0.500000 0.500000
O O11 0.931214 0.500000 0.000000
O O12 0.245323 0.500000 0.249560
O O13 0.254398 0.604358 0.000000
#
# Coordination Sequence:
#
# PCOD9522610 Si02
#       6
#    16   2  16   8   8  16
#     4  10  20  38  64  92 127 169 209 252 309 389
#     4  12  26  44  72  90 132 162 218 288 330 386
#     4  11  22  37  63  94 128 160 205 259 317 378
#     4  11  25  46  65  84 116 162 214 265 313 372
#     4  10  23  44  68  93 126 173 217 268 332 385
#     4   9  16  32  59  90 127 167 200 246 313 379
#
# _framework density 20.263138000000001
#
# number of rings (size 3 to 8) (size 9 to 14) (size 15 to 20)
#    0.000    1.818    2.424    2.000    1.697    0.970 
#    2.182    1.212    2.667    0.000    0.000    0.000 
#    0.000    0.000    0.000    0.000    0.000    0.000 
#
# Total GULP energy -183949.190062 kJ/mol
# GULP energy per Si atom -5574.217881 kJ/mol
# Density = 2.021702 g / cm^3
# Si number density = 20.263138 Si / 1000 Ang^3
#
#
#
# Elastic Constant Matrix: (Units=GPa)
#
#
# Indices 1 2 3 4 5 6 
#
# 1 151.6210 66.4982 52.8291 0.0000 0.0000 0.0000
# 2 66.4982 132.9022 14.8522 0.0000 0.0000 0.0000
# 3 52.8291 14.8522 57.3130 0.0000 0.0000 0.0000
# 4 0.0000 0.0000 0.0000 14.3482 0.0000 0.0000
# 5 0.0000 0.0000 0.0000 0.0000 11.6191 0.0000
# 6 0.0000 0.0000 0.0000 0.0000 0.0000 18.6844
#
#
#
# Elastic Compliance Matrix: (Units=1/GPa)
#
#
# Indices 1 2 3 4 5 6 
#
# 1 0.012298 -0.005032 -0.010032 0.000000 0.000000 0.000000
# 2 -0.005032 0.009808 0.002097 0.000000 0.000000 0.000000
# 3 -0.010032 0.002097 0.026151 0.000000 0.000000 0.000000
# 4 0.000000 0.000000 0.000000 0.069695 0.000000 0.000000
# 5 0.000000 0.000000 0.000000 0.000000 0.086065 0.000000
# 6 0.000000 0.000000 0.000000 0.000000 0.000000 0.053521
#
#
# Mechanical properties :
#
#
# Convention : Reuss Voigt Hill
#
# Bulk Modulus (GPa) = 44.79639 67.79947 56.29793
# Shear Modulus (GPa) = 17.18730 22.77412 19.98071
#
# Velocity S-wave (km/s) = 2.91556 3.35613 3.14357
# Velocity P-wave (km/s) = 5.78699 6.96780 6.40467
#
# Compressibility (1/GPa) = 0.02232323
#
# Stress axis : x y z
#
# Youngs Moduli (GPa) = 81.31624 101.95913 38.23888
#
# Poissons Ratio (x) = 0.51307 0.38359
# Poissons Ratio (y) = 0.40919 -0.08018
# Poissons Ratio (z) = 0.81573 -0.21379
#
# Static dielectric constant tensor:
#      x y z
#    x 1.754990 0.000000 0.000000 
#    y 0.000000 1.704740 0.000000 
#    z 0.000000 0.000000 1.732730 
# 
# From -- ./inp_files/5648.got.cif
#   From: 2010.05.17/outbox.cif.g08.bks.cpg/sg71_3_cif.got.tgz:5648.got - 2010.06.03 16:22:01.
