data_PCOD9522562
_publ_section_title
;
Structure prediction by ZEFSAII (Michael W. Deem and Ramdas Pophale) SiO2 
 PCOD9522562
Probable space group: I M M M
;
_chemical_formula_sum "Si O2"
_cell_formula_units_Z 92
_cell_length_a 7.852013
_cell_length_b 22.004233
_cell_length_c 28.602744
_cell_angle_alpha 90.000000
_cell_angle_beta 90.000000
_cell_angle_gamma 90.000000
_cell_volume 4941.911276
_symmetry_space_group_name_H-M "I M M M"
_symmetry_group_IT_number 71
_symmetry_cell_setting 'orthorhombic'
loop_
_space_group_symop_operation_xyz
x,y,z
-x,-y,z
x,-y,-z
-x,y,-z
-x,-y,-z
x,y,-z
-x,y,z
x,-y,z
1/2+x,1/2+y,1/2+z
1/2-x,1/2-y,1/2+z
1/2+x,1/2-y,1/2-z
1/2-x,1/2+y,1/2-z
1/2-x,1/2-y,1/2-z
1/2+x,1/2+y,1/2-z
1/2-x,1/2+y,1/2+z
1/2+x,1/2-y,1/2+z
loop_
_atom_site_type_symbol
_atom_site_label
_atom_site_fract_x
_atom_site_fract_y
_atom_site_fract_z
Si Si1 0.699992 0.692409 0.350114
Si Si2 0.190812 0.599162 0.279660
Si Si3 0.500000 0.500000 0.727162
Si Si4 0.793588 0.748501 0.447707
Si Si5 0.702167 0.000000 0.447693
Si Si6 0.796024 0.820629 0.305161
Si Si7 0.203881 0.873133 0.402543
O O1 0.500000 0.683728 0.343729
O O2 0.791357 0.633716 0.329189
O O3 0.737390 0.707071 0.404347
O O4 0.753334 0.752165 0.320577
O O5 0.347173 0.552826 0.273139
O O6 0.212279 0.652098 0.240713
O O7 0.000000 0.573343 0.275263
O O8 0.736149 0.731927 0.500000
O O9 0.735236 0.817204 0.434772
O O10 0.000000 0.748380 0.447764
O O11 0.752269 0.061185 0.421429
O O12 0.500000 0.000000 0.451129
O O13 0.776678 0.000000 0.500000
O O14 0.738285 0.860980 0.349710
O O15 0.000000 0.824864 0.300000
O O16 0.000000 0.868268 0.401643
#
# Coordination Sequence:
#
# PCOD9522562 Si02
#       7
#    16  16   4  16   8  16  16
#     4  11  21  36  59  91 125 157 201 251 305 367
#     4  12  24  42  65  90 122 163 206 249 303 365
#     4  12  26  46  60  90 125 164 203 250 296 364
#     4   9  18  34  56  84 115 148 191 247 308 366
#     4  11  23  34  45  65  99 144 197 251 293 344
#     4  10  20  38  59  86 120 153 200 257 310 358
#     4   9  19  34  53  73 103 148 195 245 297 350
#
# _framework density 18.616278999999999
#
# number of rings (size 3 to 8) (size 9 to 14) (size 15 to 20)
#    0.000    1.652    1.739    4.696    0.000    5.913 
#    0.000    0.000    0.000    0.000    0.000    1.217 
#    0.000    2.783    0.000    0.000    0.000    0.000 
#
# Total GULP energy -256286.340837 kJ/mol
# GULP energy per Si atom -5571.442192 kJ/mol
# Density = 1.857391 g / cm^3
# Si number density = 18.616279 Si / 1000 Ang^3
#
#
#
# Elastic Constant Matrix: (Units=GPa)
#
#
# Indices 1 2 3 4 5 6 
#
# 1 99.8594 19.0124 23.1088 0.0000 0.0000 0.0000
# 2 19.0124 33.6468 33.8911 0.0000 0.0000 0.0000
# 3 23.1088 33.8911 99.1940 0.0000 0.0000 0.0000
# 4 0.0000 0.0000 0.0000 12.0140 0.0000 0.0000
# 5 0.0000 0.0000 0.0000 0.0000 22.3366 0.0000
# 6 0.0000 0.0000 0.0000 0.0000 0.0000 32.4496
#
#
#
# Elastic Compliance Matrix: (Units=1/GPa)
#
#
# Indices 1 2 3 4 5 6 
#
# 1 0.011252 -0.005668 -0.000685 0.000000 0.000000 0.000000
# 2 -0.005668 0.048171 -0.015138 0.000000 0.000000 0.000000
# 3 -0.000685 -0.015138 0.015413 0.000000 0.000000 0.000000
# 4 0.000000 0.000000 0.000000 0.083236 0.000000 0.000000
# 5 0.000000 0.000000 0.000000 0.000000 0.044770 0.000000
# 6 0.000000 0.000000 0.000000 0.000000 0.000000 0.030817
#
#
# Mechanical properties :
#
#
# Convention : Reuss Voigt Hill
#
# Bulk Modulus (GPa) = 31.39305 42.74719 37.07012
# Shear Modulus (GPa) = 17.40591 23.80589 20.60590
#
# Velocity S-wave (km/s) = 3.06107 3.57986 3.33058
# Velocity P-wave (km/s) = 5.42156 6.33241 5.89460
#
# Compressibility (1/GPa) = 0.03185419
#
# Stress axis : x y z
#
# Youngs Moduli (GPa) = 88.87550 20.75926 64.88090
#
# Poissons Ratio (x) = 0.11767 0.04442
# Poissons Ratio (y) = 0.50377 0.98216
# Poissons Ratio (z) = 0.06084 0.31425
#
# Static dielectric constant tensor:
#      x y z
#    x 1.669250 0.000000 0.000000 
#    y 0.000000 1.704100 0.000000 
#    z 0.000000 0.000000 1.669330 
# 
# From -- ./inp_files/63256.got.cif
#   From: 2010.05.17/outbox.cif.g08.bks.cpg/sg71_32_cif.got.tgz:63256.got - 2010.06.03 16:22:01.
