data_PCOD9522468
_publ_section_title
;
Structure prediction by ZEFSAII (Michael W. Deem and Ramdas Pophale) SiO2 
 PCOD9522468
Probable space group: I M M M
;
_chemical_formula_sum "Si O2"
_cell_formula_units_Z 72
_cell_length_a 9.429425
_cell_length_b 31.485061
_cell_length_c 14.133345
_cell_angle_alpha 90.000000
_cell_angle_beta 90.000000
_cell_angle_gamma 90.000000
_cell_volume 4195.992565
_symmetry_space_group_name_H-M "I M M M"
_symmetry_group_IT_number 71
_symmetry_cell_setting 'orthorhombic'
loop_
_space_group_symop_operation_xyz
x,y,z
-x,-y,z
x,-y,-z
-x,y,-z
-x,-y,-z
x,y,-z
-x,y,z
x,-y,z
1/2+x,1/2+y,1/2+z
1/2-x,1/2-y,1/2+z
1/2+x,1/2-y,1/2-z
1/2-x,1/2+y,1/2-z
1/2-x,1/2-y,1/2-z
1/2+x,1/2+y,1/2-z
1/2-x,1/2+y,1/2+z
1/2+x,1/2-y,1/2+z
loop_
_atom_site_type_symbol
_atom_site_label
_atom_site_fract_x
_atom_site_fract_y
_atom_site_fract_z
Si Si1 0.166248 0.000000 0.387300
Si Si2 0.000000 0.725898 0.752768
Si Si3 0.265722 0.336873 0.247287
Si Si4 0.828793 0.500000 0.394431
Si Si5 0.330407 0.933668 0.263636
Si Si6 0.000000 0.196929 0.612296
Si Si7 0.000000 0.805488 0.113066
O O1 0.245535 0.040972 0.344205
O O2 0.175468 0.000000 0.500000
O O3 0.000000 0.000000 0.360065
O O4 0.137401 0.696352 0.752551
O O5 0.000000 0.757955 0.842249
O O6 0.000000 0.756695 0.661451
O O7 0.210628 0.384710 0.243159
O O8 0.364251 0.326768 0.156783
O O9 0.363765 0.328082 0.339102
O O10 0.770133 0.500000 0.500000
O O11 0.791548 0.541241 0.332767
O O12 0.000000 0.500000 0.400572
O O13 0.500000 0.938072 0.278184
O O14 0.000000 0.198444 0.500000
O O15 0.000000 0.805900 0.000000
#
# Coordination Sequence:
#
# PCOD9522468 Si02
#       7
#     8   8  16   8  16   8   8
#     4  10  23  39  60  85 114 151 186 225 282 346
#     4  10  20  38  60  83 110 149 194 238 286 334
#     4  10  21  37  59  84 112 149 194 237 279 340
#     4   8  16  32  54  79 106 135 171 218 274 330
#     4  10  20  37  60  83 113 150 185 233 284 326
#     4  10  22  38  56  80 116 153 188 233 286 340
#     4  10  22  38  56  80 118 155 188 235 288 340
#
# _framework density 17.159230000000001
#
# number of rings (size 3 to 8) (size 9 to 14) (size 15 to 20)
#    0.000    2.444    1.111    3.667    3.111    6.222 
#    0.000    0.000    0.000    1.333    0.000    0.000 
#    0.000    0.000    0.000    0.000    0.000    0.000 
#
# Total GULP energy -200792.369692 kJ/mol
# GULP energy per Si atom -5577.565825 kJ/mol
# Density = 1.712017 g / cm^3
# Si number density = 17.159230 Si / 1000 Ang^3
#
#
#
# Elastic Constant Matrix: (Units=GPa)
#
#
# Indices 1 2 3 4 5 6 
#
# 1 122.4861 60.8542 62.2103 0.0000 0.0000 0.0000
# 2 60.8542 149.4233 60.3420 0.0000 0.0000 0.0000
# 3 62.2103 60.3420 161.2508 0.0002 0.0000 0.0001
# 4 0.0000 0.0000 0.0002 2.0867 0.0000 0.0000
# 5 0.0000 0.0000 0.0000 0.0000 22.5246 -0.0001
# 6 0.0000 0.0000 0.0001 0.0000 -0.0001 81.7067
#
#
#
# Elastic Compliance Matrix: (Units=1/GPa)
#
#
# Indices 1 2 3 4 5 6 
#
# 1 0.011448 -0.003391 -0.003147 0.000000 0.000000 0.000000
# 2 -0.003391 0.008888 -0.002018 0.000000 0.000000 0.000000
# 3 -0.003147 -0.002018 0.008171 -0.000001 0.000000 0.000000
# 4 0.000000 0.000000 -0.000001 0.479225 -0.000001 0.000000
# 5 0.000000 0.000000 0.000000 -0.000001 0.044396 0.000000
# 6 0.000000 0.000000 0.000000 0.000000 0.000000 0.012239
#
#
# Mechanical properties :
#
#
# Convention : Reuss Voigt Hill
#
# Bulk Modulus (GPa) = 87.76548 88.88590 88.32569
# Shear Modulus (GPa) = 8.54296 37.91386 23.22841
#
# Velocity S-wave (km/s) = 2.23371 4.70567 3.68325
# Velocity P-wave (km/s) = 7.60995 9.02427 8.34712
#
# Compressibility (1/GPa) = 0.01139400
#
# Stress axis : x y z
#
# Youngs Moduli (GPa) = 87.35490 112.50720 122.38544
#
# Poissons Ratio (x) = 0.38152 0.38520
# Poissons Ratio (y) = 0.29623 0.24695
# Poissons Ratio (z) = 0.27495 0.22702
#
# Static dielectric constant tensor:
#      x y z
#    x 1.586070 0.000000 0.000000 
#    y 0.000000 1.562280 0.000000 
#    z 0.000000 0.000000 1.562470 
# 
# From -- ./inp_files/31727.got.cif
#   From: 2010.05.17/outbox.cif.g08.bks.cpg/sg71_16_cif.got.tgz:31727.got - 2010.06.03 16:22:01.
