data_PCOD9522739
_publ_section_title
;
Structure prediction by ZEFSAII (Michael W. Deem and Ramdas Pophale) SiO2 
 PCOD9522739
Probable space group: I M M M
;
_chemical_formula_sum "Si O2"
_cell_formula_units_Z 104
_cell_length_a 29.916503
_cell_length_b 20.746777
_cell_length_c 7.572008
_cell_angle_alpha 90.000000
_cell_angle_beta 90.000000
_cell_angle_gamma 90.000000
_cell_volume 4699.725901
_symmetry_space_group_name_H-M "I M M M"
_symmetry_group_IT_number 71
_symmetry_cell_setting 'orthorhombic'
loop_
_space_group_symop_operation_xyz
x,y,z
-x,-y,z
x,-y,-z
-x,y,-z
-x,-y,-z
x,y,-z
-x,y,z
x,-y,z
1/2+x,1/2+y,1/2+z
1/2-x,1/2-y,1/2+z
1/2+x,1/2-y,1/2-z
1/2-x,1/2+y,1/2-z
1/2-x,1/2-y,1/2-z
1/2+x,1/2+y,1/2-z
1/2-x,1/2+y,1/2+z
1/2+x,1/2-y,1/2+z
loop_
_atom_site_type_symbol
_atom_site_label
_atom_site_fract_x
_atom_site_fract_y
_atom_site_fract_z
Si Si1 0.158715 0.071365 0.713120
Si Si2 0.292562 0.795539 0.212965
Si Si3 0.606020 0.201625 0.211888
Si Si4 0.948756 0.572768 0.211574
Si Si5 0.738021 0.069142 0.794257
Si Si6 0.418801 0.337176 0.784116
Si Si7 0.000000 0.073724 0.283666
O O1 0.162147 0.074099 0.500000
O O2 0.208492 0.075194 0.785991
O O3 0.127539 0.129476 0.770850
O O4 0.140176 0.000000 0.757519
O O5 0.250000 0.750000 0.250000
O O6 0.343270 0.783322 0.274382
O O7 0.281706 0.866600 0.284680
O O8 0.294576 0.796755 0.000000
O O9 0.584731 0.131872 0.250438
O O10 0.577200 0.263231 0.273568
O O11 0.607531 0.204584 0.000000
O O12 0.935919 0.500000 0.274170
O O13 0.000000 0.585802 0.274378
O O14 0.950791 0.569294 0.000000
O O15 0.725735 0.000000 0.714446
O O16 0.724780 0.067683 0.000000
O O17 0.457336 0.385365 0.726670
O O18 0.419433 0.337486 0.000000
O O19 0.000000 0.072078 0.500000
O O20 0.000000 0.000000 0.224303
#
# Coordination Sequence:
#
# PCOD9522739 Si02
#       7
#    16  16  16  16  16  16   8
#     4   9  16  28  48  72  98 130 171 215 253 292
#     4  10  21  36  53  76 108 145 181 222 271 323
#     4  10  21  34  53  82 111 140 178 225 276 326
#     4   9  20  40  62  82 108 142 180 226 282 347
#     4   9  18  32  49  69  95 130 169 207 252 306
#     4   9  17  28  43  69 103 133 163 206 253 299
#     4   9  16  26  42  66  98 135 166 194 241 299
#
# _framework density 22.12895
#
# number of rings (size 3 to 8) (size 9 to 14) (size 15 to 20)
#    0.000    2.692    0.000    1.846    1.077    5.538 
#    0.000    3.077    0.000    1.846    0.000    0.000 
#    0.000    3.692    0.000    0.000    0.000    0.000 
#
# Total GULP energy -289971.896063 kJ/mol
# GULP energy per Si atom -5576.382617 kJ/mol
# Density = 2.207858 g / cm^3
# Si number density = 22.128950 Si / 1000 Ang^3
#
#
#
# Elastic Constant Matrix: (Units=GPa)
#
#
# Indices 1 2 3 4 5 6 
#
# 1 86.2200 83.3662 4.2460 0.0000 0.0000 0.0000
# 2 83.3662 203.8767 10.7615 0.0000 0.0000 0.0000
# 3 4.2460 10.7615 49.4999 0.0000 0.0000 0.0000
# 4 0.0000 0.0000 0.0000 11.2106 0.0000 0.0000
# 5 0.0000 0.0000 0.0000 0.0000 8.6655 0.0000
# 6 0.0000 0.0000 0.0000 0.0000 0.0000 39.0063
#
#
#
# Elastic Compliance Matrix: (Units=1/GPa)
#
#
# Indices 1 2 3 4 5 6 
#
# 1 0.019183 -0.007847 0.000061 0.000000 0.000000 0.000000
# 2 -0.007847 0.008172 -0.001103 0.000000 0.000000 0.000000
# 3 0.000061 -0.001103 0.020437 0.000000 0.000000 0.000000
# 4 0.000000 0.000000 0.000000 0.089201 0.000000 0.000000
# 5 0.000000 0.000000 0.000000 0.000000 0.115400 0.000000
# 6 0.000000 0.000000 0.000000 0.000000 0.000000 0.025637
#
#
# Mechanical properties :
#
#
# Convention : Reuss Voigt Hill
#
# Bulk Modulus (GPa) = 33.32087 59.59375 46.45731
# Shear Modulus (GPa) = 16.34985 27.85800 22.10392
#
# Velocity S-wave (km/s) = 2.72112 3.55194 3.16392
# Velocity P-wave (km/s) = 4.99629 6.61894 5.86401
#
# Compressibility (1/GPa) = 0.03001122
#
# Stress axis : x y z
#
# Youngs Moduli (GPa) = 52.13063 122.37101 48.93137
#
# Poissons Ratio (x) = 0.96025 -0.00296
# Poissons Ratio (y) = 0.40907 0.05400
# Poissons Ratio (z) = -0.00316 0.13504
#
# Static dielectric constant tensor:
#      x y z
#    x 1.517180 0.000000 0.000000 
#    y 0.000000 1.839100 0.000000 
#    z 0.000000 0.000000 1.855090 
# 
# From -- ./inp_files/17032.got.cif
#   From: 2010.05.17/outbox.cif.g08.bks.cpg/sg71_9_cif.got.tgz:17032.got - 2010.06.03 16:22:01.
