data_PCOD9522332
_publ_section_title
;
Structure prediction by ZEFSAII (Michael W. Deem and Ramdas Pophale) SiO2 
 PCOD9522332
Probable space group: I M M M
;
_chemical_formula_sum "Si O2"
_cell_formula_units_Z 104
_cell_length_a 27.851189
_cell_length_b 22.872750
_cell_length_c 8.889772
_cell_angle_alpha 90.000000
_cell_angle_beta 90.000000
_cell_angle_gamma 90.000000
_cell_volume 5663.080644
_symmetry_space_group_name_H-M "I M M M"
_symmetry_group_IT_number 71
_symmetry_cell_setting 'orthorhombic'
loop_
_space_group_symop_operation_xyz
x,y,z
-x,-y,z
x,-y,-z
-x,y,-z
-x,-y,-z
x,y,-z
-x,y,z
x,-y,z
1/2+x,1/2+y,1/2+z
1/2-x,1/2-y,1/2+z
1/2+x,1/2-y,1/2-z
1/2-x,1/2+y,1/2-z
1/2-x,1/2-y,1/2-z
1/2+x,1/2+y,1/2-z
1/2-x,1/2+y,1/2+z
1/2+x,1/2-y,1/2+z
loop_
_atom_site_type_symbol
_atom_site_label
_atom_site_fract_x
_atom_site_fract_y
_atom_site_fract_z
Si Si1 0.000000 0.568213 0.682830
Si Si2 0.945776 0.209921 0.181316
Si Si3 0.824045 0.000000 0.817752
Si Si4 0.641249 0.372681 0.681405
Si Si5 0.769622 0.192599 0.328500
Si Si6 0.172213 0.380225 0.827382
Si Si7 0.283327 0.000000 0.317270
Si Si8 0.421366 0.835790 0.820876
O O1 0.045687 0.608629 0.727370
O O2 0.000000 0.500000 0.735074
O O3 0.000000 0.565529 0.500000
O O4 0.906351 0.162229 0.231257
O O5 0.936773 0.274343 0.248156
O O6 0.000000 0.191654 0.219470
O O7 0.942189 0.214695 0.000000
O O8 0.851263 0.940287 0.771450
O O9 0.770008 0.000000 0.751668
O O10 0.820500 0.000000 0.000000
O O11 0.641476 0.372253 0.500000
O O12 0.686831 0.336741 0.740671
O O13 0.784584 0.204370 0.500000
O O14 0.750000 0.250000 0.250000
O O15 0.723651 0.150717 0.330142
O O16 0.185346 0.444435 0.772387
O O17 0.133014 0.348587 0.727232
O O18 0.154147 0.381879 0.000000
O O19 0.278173 0.000000 0.500000
O O20 0.426060 0.830586 0.000000
#
# Coordination Sequence:
#
# PCOD9522332 Si02
#       8
#     8  16   8  16  16  16   8  16
#     4   9  20  38  55  77 111 146 181 230 288 339
#     4  10  21  39  61  83 113 152 192 236 294 353
#     4  10  20  36  59  86 117 149 192 244 290 345
#     4  10  21  37  58  85 115 150 192 240 293 350
#     4  11  22  36  55  80 113 149 185 229 280 338
#     4  10  22  37  54  79 112 146 181 223 272 333
#     4  10  20  38  58  78 112 153 191 229 276 342
#     4  11  22  37  60  85 112 146 190 240 287 337
#
# _framework density 18.364561999999999
#
# number of rings (size 3 to 8) (size 9 to 14) (size 15 to 20)
#    0.000    1.769    2.308    1.846    1.077    6.154 
#    0.000    0.385    0.000    4.154    0.000    0.000 
#    0.000    3.077    0.000    0.000    0.000    0.000 
#
# Total GULP energy -290157.504250 kJ/mol
# GULP energy per Si atom -5579.952005 kJ/mol
# Density = 1.832276 g / cm^3
# Si number density = 18.364562 Si / 1000 Ang^3
#
#
#
# Elastic Constant Matrix: (Units=GPa)
#
#
# Indices 1 2 3 4 5 6 
#
# 1 125.6877 55.5395 19.9544 0.0000 0.0000 0.0000
# 2 55.5395 122.5570 19.7109 0.0000 0.0000 0.0000
# 3 19.9544 19.7109 10.7927 0.0000 0.0000 0.0000
# 4 0.0000 0.0000 0.0000 23.0119 0.0000 0.0000
# 5 0.0000 0.0000 0.0000 0.0000 12.3470 0.0000
# 6 0.0000 0.0000 0.0000 0.0000 0.0000 26.8537
#
#
#
# Elastic Compliance Matrix: (Units=1/GPa)
#
#
# Indices 1 2 3 4 5 6 
#
# 1 0.011823 -0.002608 -0.017095 0.000000 0.000000 0.000000
# 2 -0.002608 0.012128 -0.017328 0.000000 0.000000 0.000000
# 3 -0.017095 -0.017328 0.155908 0.000000 0.000000 0.000000
# 4 0.000000 0.000000 0.000000 0.043456 0.000000 0.000000
# 5 0.000000 0.000000 0.000000 0.000000 0.080991 0.000000
# 6 0.000000 0.000000 0.000000 0.000000 0.000000 0.037239
#
#
# Mechanical properties :
#
#
# Convention : Reuss Voigt Hill
#
# Bulk Modulus (GPa) = 9.45210 49.93854 29.69532
# Shear Modulus (GPa) = 11.08958 23.36468 17.22713
#
# Velocity S-wave (km/s) = 2.46002 3.57076 3.06611
# Velocity P-wave (km/s) = 3.63690 6.65224 5.36094
#
# Compressibility (1/GPa) = 0.10579663
#
# Stress axis : x y z
#
# Youngs Moduli (GPa) = 84.58152 82.45174 6.41404
#
# Poissons Ratio (x) = 0.21506 0.10965
# Poissons Ratio (y) = 0.22062 0.11114
# Poissons Ratio (z) = 1.44595 1.42869
#
# Static dielectric constant tensor:
#      x y z
#    x 1.618900 0.000000 0.000000 
#    y 0.000000 1.607630 0.000000 
#    z 0.000000 0.000000 1.614790 
# 
# From -- ./inp_files/17068.got.cif
#   From: 2010.05.17/outbox.cif.g08.bks.cpg/sg71_9_cif.got.tgz:17068.got - 2010.06.03 16:22:01.
