data_PCOD9522285
_publ_section_title
;
Structure prediction by ZEFSAII (Michael W. Deem and Ramdas Pophale) SiO2 
 PCOD9522285
Probable space group: I M M M
;
_chemical_formula_sum "Si O2"
_cell_formula_units_Z 104
_cell_length_a 19.658951
_cell_length_b 7.907370
_cell_length_c 31.780256
_cell_angle_alpha 90.000000
_cell_angle_beta 90.000000
_cell_angle_gamma 90.000000
_cell_volume 4940.259843
_symmetry_space_group_name_H-M "I M M M"
_symmetry_group_IT_number 71
_symmetry_cell_setting 'orthorhombic'
loop_
_space_group_symop_operation_xyz
x,y,z
-x,-y,z
x,-y,-z
-x,y,-z
-x,-y,-z
x,y,-z
-x,y,z
x,-y,z
1/2+x,1/2+y,1/2+z
1/2-x,1/2-y,1/2+z
1/2+x,1/2-y,1/2-z
1/2-x,1/2+y,1/2-z
1/2-x,1/2-y,1/2-z
1/2+x,1/2+y,1/2-z
1/2-x,1/2+y,1/2+z
1/2+x,1/2-y,1/2+z
loop_
_atom_site_type_symbol
_atom_site_label
_atom_site_fract_x
_atom_site_fract_y
_atom_site_fract_z
Si Si1 0.422596 0.201676 0.673573
Si Si2 0.719030 0.799587 0.046393
Si Si3 0.574725 0.302379 0.078366
Si Si4 0.328966 0.204122 0.249927
Si Si5 0.350968 0.704574 0.412812
Si Si6 0.076594 0.703596 0.325228
Si Si7 0.077894 0.205919 0.000000
O O1 0.500000 0.269526 0.675775
O O2 0.371742 0.267491 0.709754
O O3 0.389480 0.230281 0.628021
O O4 0.427350 0.000000 0.680004
O O5 0.640641 0.775485 0.057264
O O6 0.772474 0.738131 0.081420
O O7 0.731641 0.000000 0.043863
O O8 0.733366 0.727156 0.000000
O O9 0.500000 0.231064 0.067048
O O10 0.574527 0.500000 0.067812
O O11 0.582444 0.281180 0.128577
O O12 0.250000 0.250000 0.250000
O O13 0.367461 0.262941 0.207774
O O14 0.332867 0.000000 0.249997
O O15 0.353905 0.500000 0.409930
O O16 0.386380 0.757299 0.456626
O O17 0.082498 0.500000 0.330179
O O18 0.000000 0.737921 0.309069
O O19 0.000000 0.261224 0.000000
O O20 0.079520 0.000000 0.000000
#
# Coordination Sequence:
#
# PCOD9522285 Si02
#       7
#    16  16  16  16  16  16   8
#     4  10  22  40  59  82 116 154 188 227 280 338
#     4  10  21  38  59  83 114 151 191 236 282 334
#     4  10  22  38  57  84 116 148 185 233 288 342
#     4  10  22  38  57  83 114 149 187 229 277 331
#     4  10  20  36  58  85 113 145 189 235 278 327
#     4   9  18  36  61  83 106 144 191 232 272 325
#     4   9  16  30  55  83 110 141 180 228 277 321
#
# _framework density 21.051525999999999
#
# number of rings (size 3 to 8) (size 9 to 14) (size 15 to 20)
#    0.000    2.231    0.769    1.385    2.154    6.154 
#    0.000    1.923    0.000    4.154    0.000    0.000 
#    0.000    0.000    0.000    0.000    0.000    0.000 
#
# Total GULP energy -290294.180120 kJ/mol
# GULP energy per Si atom -5582.580387 kJ/mol
# Density = 2.100361 g / cm^3
# Si number density = 21.051526 Si / 1000 Ang^3
#
#
#
# Elastic Constant Matrix: (Units=GPa)
#
#
# Indices 1 2 3 4 5 6 
#
# 1 156.3244 6.1109 43.9857 0.0000 0.0000 0.0000
# 2 6.1109 17.2455 -1.8095 0.0000 0.0000 0.0000
# 3 43.9857 -1.8095 54.8630 0.0000 0.0000 0.0000
# 4 0.0000 0.0000 0.0000 16.5422 0.0000 0.0000
# 5 0.0000 0.0000 0.0000 0.0000 36.3268 0.0000
# 6 0.0000 0.0000 0.0000 0.0000 0.0000 23.3658
#
#
#
# Elastic Compliance Matrix: (Units=1/GPa)
#
#
# Indices 1 2 3 4 5 6 
#
# 1 0.008494 -0.003737 -0.006933 0.000000 0.000000 0.000000
# 2 -0.003737 0.059832 0.004970 0.000000 0.000000 0.000000
# 3 -0.006933 0.004970 0.023950 0.000000 0.000000 0.000000
# 4 0.000000 0.000000 0.000000 0.060451 0.000000 0.000000
# 5 0.000000 0.000000 0.000000 0.000000 0.027528 0.000000
# 6 0.000000 0.000000 0.000000 0.000000 0.000000 0.042798
#
#
# Mechanical properties :
#
#
# Convention : Reuss Voigt Hill
#
# Bulk Modulus (GPa) = 12.36492 36.11191 24.23841
# Shear Modulus (GPa) = 19.12693 27.25669 23.19181
#
# Velocity S-wave (km/s) = 3.01753 3.60218 3.32274
# Velocity P-wave (km/s) = 4.24583 5.87301 5.12442
#
# Compressibility (1/GPa) = 0.08087396
#
# Stress axis : x y z
#
# Youngs Moduli (GPa) = 117.73240 16.71350 41.75426
#
# Poissons Ratio (x) = 0.06246 0.28949
# Poissons Ratio (y) = 0.43999 -0.20750
# Poissons Ratio (z) = 0.81625 -0.08306
#
# Static dielectric constant tensor:
#      x y z
#    x 1.766950 0.000000 0.000000 
#    y 0.000000 1.773320 0.000000 
#    z 0.000000 0.000000 1.730910 
# 
# From -- ./inp_files/66410.got.cif
#   From: 2010.05.17/outbox.cif.g08.bks.cpg/sg71_34_cif.got.tgz:66410.got - 2010.06.03 16:22:01.
