data_PCOD9522870
_publ_section_title
;
Structure prediction by ZEFSAII (Michael W. Deem and Ramdas Pophale) SiO2 
 PCOD9522870
Probable space group: I M M M
;
_chemical_formula_sum "Si O2"
_cell_formula_units_Z 90
_cell_length_a 11.220559
_cell_length_b 19.012994
_cell_length_c 19.892384
_cell_angle_alpha 90.000000
_cell_angle_beta 90.000000
_cell_angle_gamma 90.000000
_cell_volume 4243.770007
_symmetry_space_group_name_H-M "I M M M"
_symmetry_group_IT_number 71
_symmetry_cell_setting 'orthorhombic'
loop_
_space_group_symop_operation_xyz
x,y,z
-x,-y,z
x,-y,-z
-x,y,-z
-x,-y,-z
x,y,-z
-x,y,z
x,-y,z
1/2+x,1/2+y,1/2+z
1/2-x,1/2-y,1/2+z
1/2+x,1/2-y,1/2-z
1/2-x,1/2+y,1/2-z
1/2-x,1/2-y,1/2-z
1/2+x,1/2+y,1/2-z
1/2-x,1/2+y,1/2+z
1/2+x,1/2-y,1/2+z
loop_
_atom_site_type_symbol
_atom_site_label
_atom_site_fract_x
_atom_site_fract_y
_atom_site_fract_z
Si Si1 0.141113 0.425070 0.895205
Si Si2 0.500000 0.500000 0.500000
Si Si3 0.250626 0.077556 0.000000
Si Si4 0.140736 0.274190 0.072667
Si Si5 0.000000 0.916020 0.317662
Si Si6 0.500000 0.714529 0.081298
Si Si7 0.243661 0.420364 0.749050
Si Si8 0.201016 0.675110 0.373203
O O1 0.192380 0.500000 0.918600
O O2 0.192387 0.352715 0.922867
O O3 0.163644 0.421154 0.815821
O O4 0.000000 0.426683 0.909829
O O5 0.608006 0.560573 0.500000
O O6 0.288614 0.118992 0.066745
O O7 0.307807 0.000000 0.000000
O O8 0.178349 0.220646 0.129412
O O9 0.000000 0.281752 0.074095
O O10 0.175614 0.244116 0.000000
O O11 0.000000 0.859870 0.378839
O O12 0.878936 0.904735 0.274194
O O13 0.000000 0.000000 0.336998
O O14 0.609055 0.764092 0.105778
O O15 0.500000 0.706819 0.000000
O O16 0.245669 0.500000 0.720584
O O17 0.190077 0.366362 0.695844
#
# Coordination Sequence:
#
# PCOD9522870 Si02
#       8
#    16   2   8  16   8   8  16  16
#     4   9  19  37  58  84 119 157 202 251 308 386
#     4   8  24  36  72  94 120 164 230 260 324 372
#     4  10  22  41  64  96 125 173 215 265 320 384
#     4  10  21  35  58  88 120 156 199 257 320 372
#     4  10  24  46  70  99 131 170 229 290 336 399
#     4  12  26  45  67  97 139 182 224 271 337 409
#     4  10  23  42  64  91 123 165 215 271 325 386
#     4  12  24  41  62  91 135 168 216 270 326 394
#
# _framework density 21.207559
#
# number of rings (size 3 to 8) (size 9 to 14) (size 15 to 20)
#    0.267    1.422    1.778    1.600    3.733    3.378 
#    1.600    3.556    0.000    5.333    0.000    0.000 
#    0.000    0.000    0.000    0.000    0.000    0.000 
#
# Total GULP energy -250651.733269 kJ/mol
# GULP energy per Si atom -5570.038517 kJ/mol
# Density = 2.115929 g / cm^3
# Si number density = 21.207559 Si / 1000 Ang^3
#
#
#
# Elastic Constant Matrix: (Units=GPa)
#
#
# Indices 1 2 3 4 5 6 
#
# 1 29.5727 15.7706 5.9243 0.0000 0.0000 0.0000
# 2 15.7706 131.9339 52.8065 0.0000 0.0000 0.0000
# 3 5.9243 52.8065 88.7218 0.0000 0.0000 0.0000
# 4 0.0000 0.0000 0.0000 33.6097 0.0000 0.0000
# 5 0.0000 0.0000 0.0000 0.0000 15.4232 0.0000
# 6 0.0000 0.0000 0.0000 0.0000 0.0000 25.6572
#
#
#
# Elastic Compliance Matrix: (Units=1/GPa)
#
#
# Indices 1 2 3 4 5 6 
#
# 1 0.036120 -0.004401 0.000207 0.000000 0.000000 0.000000
# 2 -0.004401 0.010486 -0.005947 0.000000 0.000000 0.000000
# 3 0.000207 -0.005947 0.014797 0.000000 0.000000 0.000000
# 4 0.000000 0.000000 0.000000 0.029753 0.000000 0.000000
# 5 0.000000 0.000000 0.000000 0.000000 0.064837 0.000000
# 6 0.000000 0.000000 0.000000 0.000000 0.000000 0.038975
#
#
# Mechanical properties :
#
#
# Convention : Reuss Voigt Hill
#
# Bulk Modulus (GPa) = 24.31778 44.35900 34.33839
# Shear Modulus (GPa) = 21.83807 26.65315 24.24561
#
# Velocity S-wave (km/s) = 3.21242 3.54895 3.38487
# Velocity P-wave (km/s) = 5.02504 6.14454 5.61277
#
# Compressibility (1/GPa) = 0.04112218
#
# Stress axis : x y z
#
# Youngs Moduli (GPa) = 27.68532 95.36529 67.58055
#
# Poissons Ratio (x) = 0.41966 -0.01401
# Poissons Ratio (y) = 0.12183 0.40192
# Poissons Ratio (z) = -0.00574 0.56717
#
# Static dielectric constant tensor:
#      x y z
#    x 1.866520 0.000000 0.000000 
#    y 0.000000 1.794340 0.000000 
#    z 0.000000 0.000000 1.784530 
# 
# From -- ./inp_files/24030.got.cif
#   From: 2010.05.17/outbox.cif.g08.bks.cpg/sg71_13_cif.got.tgz:24030.got - 2010.06.03 16:22:01.
