data_PCOD9522764
_publ_section_title
;
Structure prediction by ZEFSAII (Michael W. Deem and Ramdas Pophale) SiO2 
 PCOD9522764
Probable space group: I M M M
;
_chemical_formula_sum "Si O2"
_cell_formula_units_Z 104
_cell_length_a 13.496755
_cell_length_b 27.191938
_cell_length_c 17.288284
_cell_angle_alpha 90.000000
_cell_angle_beta 90.000000
_cell_angle_gamma 90.000000
_cell_volume 6344.850799
_symmetry_space_group_name_H-M "I M M M"
_symmetry_group_IT_number 71
_symmetry_cell_setting 'orthorhombic'
loop_
_space_group_symop_operation_xyz
x,y,z
-x,-y,z
x,-y,-z
-x,y,-z
-x,-y,-z
x,y,-z
-x,y,z
x,-y,z
1/2+x,1/2+y,1/2+z
1/2-x,1/2-y,1/2+z
1/2+x,1/2-y,1/2-z
1/2-x,1/2+y,1/2-z
1/2-x,1/2-y,1/2-z
1/2+x,1/2+y,1/2-z
1/2-x,1/2+y,1/2+z
1/2+x,1/2-y,1/2+z
loop_
_atom_site_type_symbol
_atom_site_label
_atom_site_fract_x
_atom_site_fract_y
_atom_site_fract_z
Si Si1 0.116862 0.608228 0.406402
Si Si2 0.879398 0.946022 0.172747
Si Si3 0.387238 0.575161 0.500000
Si Si4 0.882586 0.791957 0.589677
Si Si5 0.612019 0.693305 0.500000
Si Si6 0.118084 0.846588 0.737725
Si Si7 0.753293 0.298681 0.642098
Si Si8 0.380025 0.000000 0.088663
O O1 0.129498 0.607378 0.500000
O O2 0.183436 0.651896 0.374193
O O3 0.141974 0.553360 0.375629
O O4 0.000000 0.617459 0.391981
O O5 0.845851 0.939987 0.083204
O O6 0.854662 0.899768 0.226660
O O7 0.000000 0.945519 0.169969
O O8 0.847909 0.000000 0.200388
O O9 0.500000 0.556585 0.500000
O O10 0.389710 0.633987 0.500000
O O11 0.851296 0.797864 0.500000
O O12 0.868780 0.838735 0.646096
O O13 0.826471 0.746860 0.630414
O O14 0.000000 0.781105 0.588772
O O15 0.500000 0.711327 0.500000
O O16 0.671823 0.707934 0.424700
O O17 0.189496 0.808060 0.781182
O O18 0.000000 0.838297 0.754928
O O19 0.500000 0.000000 0.082452
O O20 0.341683 0.000000 0.000000
#
# Coordination Sequence:
#
# PCOD9522764 Si02
#       8
#    16  16   8  16   8  16  16   8
#     4   9  16  27  43  65  93 128 168 207 239 270
#     4   9  16  27  44  65  93 130 164 191 222 269
#     4   9  15  26  41  61  93 132 164 184 208 256
#     4  10  21  37  55  73  91 118 164 215 258 293
#     4  11  20  29  43  66 104 140 162 188 231 289
#     4  10  21  35  50  70 100 132 161 200 246 293
#     4  12  19  31  48  73  97 129 165 197 238 288
#     4   7  12  24  40  58  88 126 163 204 241 267
#
# _framework density 16.391245000000001
#
# number of rings (size 3 to 8) (size 9 to 14) (size 15 to 20)
#    0.000    2.231    3.077    2.538    0.000    2.154 
#    1.385    0.000    0.000    0.462    0.000    3.231 
#    0.000    0.000    0.000    0.000    0.000    5.077 
#
# Total GULP energy -289813.397700 kJ/mol
# GULP energy per Si atom -5573.334571 kJ/mol
# Density = 1.635394 g / cm^3
# Si number density = 16.391245 Si / 1000 Ang^3
#
#
#
# Elastic Constant Matrix: (Units=GPa)
#
#
# Indices 1 2 3 4 5 6 
#
# 1 69.3480 25.0768 29.2244 0.0000 0.0000 0.0000
# 2 25.0768 90.5127 54.7332 0.0001 0.0000 0.0000
# 3 29.2244 54.7332 93.7769 0.0000 0.0000 0.0000
# 4 0.0000 0.0001 0.0000 10.6579 0.0000 0.0000
# 5 0.0000 0.0000 0.0000 0.0000 2.0090 0.0000
# 6 0.0000 0.0000 0.0000 0.0000 0.0000 12.7393
#
#
#
# Elastic Compliance Matrix: (Units=1/GPa)
#
#
# Indices 1 2 3 4 5 6 
#
# 1 0.016908 -0.002315 -0.003918 0.000000 0.000000 0.000000
# 2 -0.002315 0.017391 -0.009429 0.000000 0.000000 0.000000
# 3 -0.003918 -0.009429 0.017388 0.000000 0.000000 0.000000
# 4 0.000000 0.000000 0.000000 0.093828 -0.000001 0.000000
# 5 0.000000 0.000000 0.000000 -0.000001 0.497769 0.000000
# 6 0.000000 0.000000 0.000000 0.000000 0.000000 0.078497
#
#
# Mechanical properties :
#
#
# Convention : Reuss Voigt Hill
#
# Bulk Modulus (GPa) = 49.10851 52.41182 50.76016
# Shear Modulus (GPa) = 6.57987 14.72145 10.65066
#
# Velocity S-wave (km/s) = 2.00574 3.00013 2.55184
# Velocity P-wave (km/s) = 5.94888 6.63671 6.30219
#
# Compressibility (1/GPa) = 0.02036307
#
# Stress axis : x y z
#
# Youngs Moduli (GPa) = 59.14243 57.49984 57.51150
#
# Poissons Ratio (x) = 0.13313 0.22533
# Poissons Ratio (y) = 0.13693 0.54227
# Poissons Ratio (z) = 0.23172 0.54216
#
# Static dielectric constant tensor:
#      x y z
#    x 1.604980 0.000000 0.000000 
#    y 0.000000 1.569650 0.000000 
#    z 0.000000 0.000000 1.542550 
# 
# From -- ./inp_files/45173.got.cif
#   From: 2010.05.17/outbox.cif.g08.bks.cpg/sg71_23_cif.got.tgz:45173.got - 2010.06.03 16:22:01.
