data_PCOD9522266
_publ_section_title
;
Structure prediction by ZEFSAII (Michael W. Deem and Ramdas Pophale) SiO2 
 PCOD9522266
Probable space group: I M M M
;
_chemical_formula_sum "Si O2"
_cell_formula_units_Z 112
_cell_length_a 25.618643
_cell_length_b 15.206025
_cell_length_c 14.313770
_cell_angle_alpha 90.000000
_cell_angle_beta 90.000000
_cell_angle_gamma 90.000000
_cell_volume 5576.039691
_symmetry_space_group_name_H-M "I M M M"
_symmetry_group_IT_number 71
_symmetry_cell_setting 'orthorhombic'
loop_
_space_group_symop_operation_xyz
x,y,z
-x,-y,z
x,-y,-z
-x,y,-z
-x,-y,-z
x,y,-z
-x,y,z
x,-y,z
1/2+x,1/2+y,1/2+z
1/2-x,1/2-y,1/2+z
1/2+x,1/2-y,1/2-z
1/2-x,1/2+y,1/2-z
1/2-x,1/2-y,1/2-z
1/2+x,1/2+y,1/2-z
1/2-x,1/2+y,1/2+z
1/2+x,1/2-y,1/2+z
loop_
_atom_site_type_symbol
_atom_site_label
_atom_site_fract_x
_atom_site_fract_y
_atom_site_fract_z
Si Si1 0.238490 0.218220 0.611837
Si Si2 0.830761 0.405305 0.886839
Si Si3 0.942653 0.338289 0.110487
Si Si4 0.153043 0.101513 0.714397
Si Si5 0.721422 0.401753 0.609448
Si Si6 0.936568 0.402638 0.609441
Si Si7 0.559894 0.273560 0.216452
O O1 0.233656 0.209938 0.500000
O O2 0.293817 0.174703 0.641717
O O3 0.193842 0.161925 0.659282
O O4 0.240391 0.321538 0.634033
O O5 0.811026 0.500000 0.852506
O O6 0.891588 0.393613 0.864229
O O7 0.828391 0.406595 0.000000
O O8 0.939949 0.252238 0.174233
O O9 0.000000 0.379466 0.130147
O O10 0.940274 0.320565 0.000000
O O11 0.172005 0.104865 0.822228
O O12 0.096972 0.144742 0.700238
O O13 0.155485 0.000000 0.684442
O O14 0.707341 0.391249 0.500000
O O15 0.743804 0.500000 0.621457
O O16 0.922687 0.394218 0.500000
O O17 0.918619 0.500000 0.641763
O O18 0.920230 0.315526 0.664848
O O19 0.000000 0.403718 0.615165
O O20 0.500000 0.288762 0.187408
#
# Coordination Sequence:
#
# PCOD9522266 Si02
#       7
#    16  16  16  16  16  16  16
#     4  10  20  36  58  82 111 143 177 223 276 329
#     4   9  17  29  47  73 106 145 183 214 252 310
#     4   9  18  32  50  75 110 149 184 221 269 323
#     4  11  23  37  56  82 111 146 186 226 272 326
#     4   9  19  37  60  84 110 141 178 221 269 322
#     4   8  15  31  55  78  99 129 174 227 280 331
#     4  10  21  36  54  77 106 143 188 234 278 325
#
# _framework density 20.085940999999998
#
# number of rings (size 3 to 8) (size 9 to 14) (size 15 to 20)
#    0.000    2.571    0.000    2.143    0.000    4.286 
#    0.000    3.571    0.000    1.714    0.000    7.000 
#    0.000    0.000    0.000    0.000    0.000    0.000 
#
# Total GULP energy -312304.750894 kJ/mol
# GULP energy per Si atom -5576.870552 kJ/mol
# Density = 2.004022 g / cm^3
# Si number density = 20.085941 Si / 1000 Ang^3
#
#
#
# Elastic Constant Matrix: (Units=GPa)
#
#
# Indices 1 2 3 4 5 6 
#
# 1 79.4595 69.5816 22.4206 0.0000 0.0000 0.0000
# 2 69.5816 161.7864 39.8102 0.0000 0.0000 0.0000
# 3 22.4206 39.8102 59.1990 0.0000 0.0000 0.0000
# 4 0.0000 0.0000 0.0000 18.8747 0.0000 0.0000
# 5 0.0000 0.0000 0.0000 0.0000 15.1742 0.0000
# 6 0.0000 0.0000 0.0000 0.0000 0.0000 26.1868
#
#
#
# Elastic Compliance Matrix: (Units=1/GPa)
#
#
# Indices 1 2 3 4 5 6 
#
# 1 0.020423 -0.008244 -0.002190 0.000000 0.000000 0.000000
# 2 -0.008244 0.010735 -0.004097 0.000000 0.000000 0.000000
# 3 -0.002190 -0.004097 0.020477 0.000000 0.000000 0.000000
# 4 0.000000 0.000000 0.000000 0.052981 0.000000 0.000000
# 5 0.000000 0.000000 0.000000 0.000000 0.065901 0.000000
# 6 0.000000 0.000000 0.000000 0.000000 0.000000 0.038187
#
#
# Mechanical properties :
#
#
# Convention : Reuss Voigt Hill
#
# Bulk Modulus (GPa) = 44.30428 62.67440 53.48934
# Shear Modulus (GPa) = 20.38402 23.28930 21.83666
#
# Velocity S-wave (km/s) = 3.18911 3.40881 3.30079
# Velocity P-wave (km/s) = 5.97209 6.83844 6.41989
#
# Compressibility (1/GPa) = 0.02257118
#
# Stress axis : x y z
#
# Youngs Moduli (GPa) = 48.96527 93.15499 48.83619
#
# Poissons Ratio (x) = 0.76801 0.10698
# Poissons Ratio (y) = 0.40369 0.20006
# Poissons Ratio (z) = 0.10726 0.38161
#
# Static dielectric constant tensor:
#      x y z
#    x 1.716870 0.000000 0.000000 
#    y 0.000000 1.713780 0.000000 
#    z 0.000000 0.000000 1.739900 
# 
# From -- ./inp_files/39253.got.cif
#   From: 2010.05.17/outbox.cif.g08.bks.cpg/sg71_20_cif.got.tgz:39253.got - 2010.06.03 16:22:01.
