data_PCOD9522262
_publ_section_title
;
Structure prediction by ZEFSAII (Michael W. Deem and Ramdas Pophale) SiO2 
 PCOD9522262
Probable space group: I M M M
;
_chemical_formula_sum "Si O2"
_cell_formula_units_Z 90
_cell_length_a 22.708708
_cell_length_b 25.601499
_cell_length_c 7.625776
_cell_angle_alpha 90.000000
_cell_angle_beta 90.000000
_cell_angle_gamma 90.000000
_cell_volume 4433.450508
_symmetry_space_group_name_H-M "I M M M"
_symmetry_group_IT_number 71
_symmetry_cell_setting 'orthorhombic'
loop_
_space_group_symop_operation_xyz
x,y,z
-x,-y,z
x,-y,-z
-x,y,-z
-x,-y,-z
x,y,-z
-x,y,z
x,-y,z
1/2+x,1/2+y,1/2+z
1/2-x,1/2-y,1/2+z
1/2+x,1/2-y,1/2-z
1/2-x,1/2+y,1/2-z
1/2-x,1/2-y,1/2-z
1/2+x,1/2+y,1/2-z
1/2-x,1/2+y,1/2+z
1/2+x,1/2-y,1/2+z
loop_
_atom_site_type_symbol
_atom_site_label
_atom_site_fract_x
_atom_site_fract_y
_atom_site_fract_z
Si Si1 0.000000 0.791591 0.789142
Si Si2 0.000000 0.912296 0.210543
Si Si3 0.500000 0.000000 0.000000
Si Si4 0.875187 0.742060 0.705422
Si Si5 0.130008 0.056278 0.293212
Si Si6 0.830820 0.367224 0.199807
Si Si7 0.877332 0.557754 0.500000
Si Si8 0.302812 0.658551 0.213748
O O1 0.000000 0.851905 0.730955
O O2 0.940846 0.764055 0.724986
O O3 0.000000 0.790942 0.000000
O O4 0.059989 0.938214 0.273827
O O5 0.000000 0.913972 0.000000
O O6 0.553050 0.044760 0.000000
O O7 0.862477 0.733739 0.500000
O O8 0.867207 0.686534 0.795596
O O9 0.831009 0.786995 0.774998
O O10 0.144091 0.055613 0.500000
O O11 0.159950 0.108670 0.221388
O O12 0.148748 0.000000 0.218836
O O13 0.858110 0.409235 0.330859
O O14 0.764986 0.350822 0.258030
O O15 0.827738 0.387082 0.000000
O O16 0.848415 0.500000 0.500000
O O17 0.306983 0.660206 0.000000
#
# Coordination Sequence:
#
# PCOD9522262 Si02
#       8
#     8   8   2  16  16  16   8  16
#     4  11  23  37  55  88 125 168 219 275 330 389
#     4  11  22  36  52  77 120 162 212 273 321 374
#     4   8  24  52  82  96 148 166 216 302 328 412
#     4  11  21  39  64  94 131 175 220 272 333 400
#     4  10  20  36  58  81 110 159 220 269 317 379
#     4  11  23  43  70 103 137 173 218 270 334 408
#     4  10  24  50  74 104 134 175 219 274 339 398
#     4   9  20  37  61  92 131 173 217 268 331 394
#
# _framework density 20.300215999999999
#
# number of rings (size 3 to 8) (size 9 to 14) (size 15 to 20)
#    0.267    1.422    2.667    1.867    0.000    3.911 
#    4.800    3.556    0.000    0.000    0.000    0.000 
#    0.000    0.000    0.000    0.000    0.000    0.000 
#
# Total GULP energy -251133.135137 kJ/mol
# GULP energy per Si atom -5580.736336 kJ/mol
# Density = 2.025401 g / cm^3
# Si number density = 20.300216 Si / 1000 Ang^3
#
#
#
# Elastic Constant Matrix: (Units=GPa)
#
#
# Indices 1 2 3 4 5 6 
#
# 1 94.7451 41.2073 18.1163 0.0000 0.0000 0.0000
# 2 41.2073 151.6811 34.9021 0.0000 0.0000 0.0000
# 3 18.1163 34.9021 79.1762 0.0000 0.0000 0.0000
# 4 0.0000 0.0000 0.0000 2.4243 0.0000 0.0000
# 5 0.0000 0.0000 0.0000 0.0000 6.4557 0.0000
# 6 0.0000 0.0000 0.0000 0.0000 0.0000 408.3360
#
#
#
# Elastic Compliance Matrix: (Units=1/GPa)
#
#
# Indices 1 2 3 4 5 6 
#
# 1 0.012121 -0.002954 -0.001471 0.000000 0.000000 0.000000
# 2 -0.002954 0.008057 -0.002876 0.000000 0.000000 0.000000
# 3 -0.001471 -0.002876 0.014234 0.000000 0.000000 0.000000
# 4 0.000000 0.000000 0.000000 0.412484 0.000000 0.000000
# 5 0.000000 0.000000 0.000000 0.000000 0.154902 0.000000
# 6 0.000000 0.000000 0.000000 0.000000 0.000000 0.002449
#
#
# Mechanical properties :
#
#
# Convention : Reuss Voigt Hill
#
# Bulk Modulus (GPa) = 50.47955 57.11711 53.79833
# Shear Modulus (GPa) = 7.99421 98.86833 53.43127
#
# Velocity S-wave (km/s) = 1.98659 6.98633 5.13592
# Velocity P-wave (km/s) = 5.49386 9.65794 7.85679
#
# Compressibility (1/GPa) = 0.01981000
#
# Stress axis : x y z
#
# Youngs Moduli (GPa) = 82.50243 124.11409 70.25285
#
# Poissons Ratio (x) = 0.36668 0.10334
# Poissons Ratio (y) = 0.24374 0.20203
# Poissons Ratio (z) = 0.12136 0.35692
#
# Static dielectric constant tensor:
#      x y z
#    x 1.685090 0.000000 0.000000 
#    y 0.000000 1.724040 0.000000 
#    z 0.000000 0.000000 1.763700 
# 
# From -- ./inp_files/10592.got.cif
#   From: 2010.05.17/outbox.cif.g08.bks.cpg/sg71_6_cif.got.tgz:10592.got - 2010.06.03 16:22:01.
