data_PCOD9522534
_publ_section_title
;
Structure prediction by ZEFSAII (Michael W. Deem and Ramdas Pophale) SiO2 
 PCOD9522534
Probable space group: I M M M
;
_chemical_formula_sum "Si O2"
_cell_formula_units_Z 90
_cell_length_a 18.422293
_cell_length_b 21.629659
_cell_length_c 12.289637
_cell_angle_alpha 90.000000
_cell_angle_beta 90.000000
_cell_angle_gamma 90.000000
_cell_volume 4897.026039
_symmetry_space_group_name_H-M "I M M M"
_symmetry_group_IT_number 71
_symmetry_cell_setting 'orthorhombic'
loop_
_space_group_symop_operation_xyz
x,y,z
-x,-y,z
x,-y,-z
-x,y,-z
-x,-y,-z
x,y,-z
-x,y,z
x,-y,z
1/2+x,1/2+y,1/2+z
1/2-x,1/2-y,1/2+z
1/2+x,1/2-y,1/2-z
1/2-x,1/2+y,1/2-z
1/2-x,1/2-y,1/2-z
1/2+x,1/2+y,1/2-z
1/2-x,1/2+y,1/2+z
1/2+x,1/2-y,1/2+z
loop_
_atom_site_type_symbol
_atom_site_label
_atom_site_fract_x
_atom_site_fract_y
_atom_site_fract_z
Si Si1 0.500000 0.261003 0.309317
Si Si2 0.337903 0.751245 0.624416
Si Si3 0.743878 0.352240 0.751935
Si Si4 0.631620 0.429731 0.122666
Si Si5 0.000000 0.000000 0.000000
Si Si6 0.000000 0.658420 0.370148
Si Si7 0.500000 0.408908 0.287516
Si Si8 0.137793 0.571351 0.630451
O O1 0.424554 0.244054 0.366793
O O2 0.500000 0.222133 0.196611
O O3 0.500000 0.334970 0.300094
O O4 0.314660 0.756498 0.500000
O O5 0.309173 0.686479 0.673071
O O6 0.299940 0.804066 0.695527
O O7 0.695022 0.383450 0.843973
O O8 0.790234 0.402942 0.687319
O O9 0.659440 0.500000 0.124115
O O10 0.569431 0.425237 0.213362
O O11 0.604297 0.417006 0.000000
O O12 0.000000 0.054078 0.901583
O O13 0.929482 0.616680 0.343646
O O14 0.000000 0.670029 0.500000
O O15 0.147063 0.573388 0.500000
O O16 0.122769 0.500000 0.660575
#
# Coordination Sequence:
#
# PCOD9522534 Si02
#       8
#     8  16  16  16   2   8   8  16
#     4  12  23  43  63  90 120 166 215 249 317 381
#     4  11  24  40  61  87 123 165 206 268 317 380
#     4  11  22  40  60  91 126 157 212 257 323 386
#     4  11  23  42  65  89 123 164 208 256 308 375
#     4  12  28  48  70  96 140 164 214 280 316 372
#     4  10  21  39  63  93 129 163 213 268 315 379
#     4  12  25  44  65  97 125 168 214 261 317 374
#     4  10  20  37  62  93 127 168 209 266 332 389
#
# _framework density 18.378502000000001
#
# number of rings (size 3 to 8) (size 9 to 14) (size 15 to 20)
#    0.000    1.067    4.444    2.400    1.244    2.489 
#    1.600    0.000    0.000    0.000    0.000    1.244 
#    0.000    0.000    0.000    0.000    0.000    0.000 
#
# Total GULP energy -250981.337587 kJ/mol
# GULP energy per Si atom -5577.363057 kJ/mol
# Density = 1.833667 g / cm^3
# Si number density = 18.378502 Si / 1000 Ang^3
#
#
#
# Elastic Constant Matrix: (Units=GPa)
#
#
# Indices 1 2 3 4 5 6 
#
# 1 85.5708 22.5464 32.0531 0.0000 0.0000 0.0000
# 2 22.5464 108.3715 38.0835 0.0000 0.0000 0.0000
# 3 32.0531 38.0835 94.7708 0.0000 0.0000 0.0000
# 4 0.0000 0.0000 0.0000 33.0109 0.0000 0.0000
# 5 0.0000 0.0000 0.0000 0.0000 17.7801 0.0000
# 6 0.0000 0.0000 0.0000 0.0000 0.0000 2.2339
#
#
#
# Elastic Compliance Matrix: (Units=1/GPa)
#
#
# Indices 1 2 3 4 5 6 
#
# 1 0.013564 -0.001409 -0.004021 0.000000 0.000000 0.000000
# 2 -0.001409 0.010891 -0.003900 0.000000 0.000000 0.000000
# 3 -0.004021 -0.003900 0.013479 0.000000 0.000000 0.000000
# 4 0.000000 0.000000 0.000000 0.030293 0.000000 0.000000
# 5 0.000000 0.000000 0.000000 0.000000 0.056243 0.000000
# 6 0.000000 0.000000 0.000000 0.000000 0.000000 0.447646
#
#
# Mechanical properties :
#
#
# Convention : Reuss Voigt Hill
#
# Bulk Modulus (GPa) = 51.88462 52.67546 52.28004
# Shear Modulus (GPa) = 8.37240 23.67366 16.02303
#
# Velocity S-wave (km/s) = 2.13669 3.59293 2.95589
# Velocity P-wave (km/s) = 5.86342 6.77760 6.33702
#
# Compressibility (1/GPa) = 0.01927353
#
# Stress axis : x y z
#
# Youngs Moduli (GPa) = 73.72605 91.81746 74.18862
#
# Poissons Ratio (x) = 0.12934 0.29834
# Poissons Ratio (y) = 0.10386 0.28935
# Poissons Ratio (z) = 0.29648 0.35810
#
# Static dielectric constant tensor:
#      x y z
#    x 1.625500 0.000000 0.000000 
#    y 0.000000 1.631800 0.000000 
#    z 0.000000 0.000000 1.610680 
# 
# From -- ./inp_files/24031.got.cif
#   From: 2010.05.17/outbox.cif.g08.bks.cpg/sg71_13_cif.got.tgz:24031.got - 2010.06.03 16:22:01.
