data_PCOD9522729
_publ_section_title
;
Structure prediction by ZEFSAII (Michael W. Deem and Ramdas Pophale) SiO2 
 PCOD9522729
Probable space group: I M M M
;
_chemical_formula_sum "Si O2"
_cell_formula_units_Z 96
_cell_length_a 14.403255
_cell_length_b 32.492147
_cell_length_c 11.856516
_cell_angle_alpha 90.000000
_cell_angle_beta 90.000000
_cell_angle_gamma 90.000000
_cell_volume 5548.762683
_symmetry_space_group_name_H-M "I M M M"
_symmetry_group_IT_number 71
_symmetry_cell_setting 'orthorhombic'
loop_
_space_group_symop_operation_xyz
x,y,z
-x,-y,z
x,-y,-z
-x,y,-z
-x,-y,-z
x,y,-z
-x,y,z
x,-y,z
1/2+x,1/2+y,1/2+z
1/2-x,1/2-y,1/2+z
1/2+x,1/2-y,1/2-z
1/2-x,1/2+y,1/2-z
1/2-x,1/2-y,1/2-z
1/2+x,1/2+y,1/2-z
1/2-x,1/2+y,1/2+z
1/2+x,1/2-y,1/2+z
loop_
_atom_site_type_symbol
_atom_site_label
_atom_site_fract_x
_atom_site_fract_y
_atom_site_fract_z
Si Si1 0.111239 0.259026 0.869752
Si Si2 0.110948 0.451482 0.500000
Si Si3 0.390404 0.000000 0.364943
Si Si4 0.605647 0.408437 0.633942
Si Si5 0.393388 0.676277 0.761780
Si Si6 0.798224 0.425845 0.731231
Si Si7 0.791014 0.343713 0.130213
O O1 0.133689 0.219640 0.794036
O O2 0.157559 0.301804 0.834691
O O3 0.000000 0.263670 0.867290
O O4 0.138789 0.251124 0.000000
O O5 0.137871 0.500000 0.500000
O O6 0.151017 0.430549 0.388346
O O7 0.000000 0.449519 0.500000
O O8 0.339492 0.960654 0.312059
O O9 0.500000 0.000000 0.332860
O O10 0.384645 0.000000 0.500000
O O11 0.620705 0.413230 0.500000
O O12 0.500000 0.422249 0.659877
O O13 0.610448 0.360171 0.668487
O O14 0.688224 0.429746 0.703525
O O15 0.500000 0.678572 0.801198
O O16 0.318751 0.664448 0.855434
O O17 0.814527 0.381943 0.790047
O O18 0.814551 0.352475 0.000000
#
# Coordination Sequence:
#
# PCOD9522729 Si02
#       7
#    16   8   8  16  16  16  16
#     4   9  17  30  49  74 103 139 183 230 275 317
#     4  11  22  38  61  85 109 141 174 220 280 334
#     4  11  24  41  62  83 106 143 185 222 262 322
#     4   9  17  31  53  82 111 140 178 221 268 321
#     4   9  17  30  51  75 104 142 185 229 267 309
#     4  11  21  37  58  83 112 140 178 225 275 327
#     4  10  21  34  51  77 109 146 182 220 267 322
#
# _framework density 17.301154
#
# number of rings (size 3 to 8) (size 9 to 14) (size 15 to 20)
#    0.000    2.167    1.667    2.000    0.000    3.667 
#    0.000    2.083    1.833    3.500    0.000    0.000 
#    0.000    0.000    0.000    0.000    0.000    0.000 
#
# Total GULP energy -267649.955383 kJ/mol
# GULP energy per Si atom -5576.040737 kJ/mol
# Density = 1.726178 g / cm^3
# Si number density = 17.301154 Si / 1000 Ang^3
#
#
#
# Elastic Constant Matrix: (Units=GPa)
#
#
# Indices 1 2 3 4 5 6 
#
# 1 78.6125 56.1672 41.4966 0.0001 0.0000 0.0000
# 2 56.1672 96.1334 48.2355 0.0001 0.0000 0.0000
# 3 41.4966 48.2355 73.5754 0.0007 -0.0004 -0.0001
# 4 0.0001 0.0001 0.0007 22.6095 -0.0001 0.0000
# 5 0.0000 0.0000 -0.0004 -0.0001 24.9319 0.0000
# 6 0.0000 0.0000 -0.0001 0.0000 0.0000 29.2879
#
#
#
# Elastic Compliance Matrix: (Units=1/GPa)
#
#
# Indices 1 2 3 4 5 6 
#
# 1 0.023693 -0.010637 -0.006389 0.000000 0.000000 0.000000
# 2 -0.010637 0.020277 -0.007294 0.000000 0.000000 0.000000
# 3 -0.006389 -0.007294 0.021977 -0.000001 0.000000 0.000000
# 4 0.000000 0.000000 -0.000001 0.044229 0.000000 0.000000
# 5 0.000000 0.000000 0.000000 0.000000 0.040109 0.000000
# 6 0.000000 0.000000 0.000000 0.000000 0.000000 0.034144
#
#
# Mechanical properties :
#
#
# Convention : Reuss Voigt Hill
#
# Bulk Modulus (GPa) = 57.78315 60.01332 58.89824
# Shear Modulus (GPa) = 20.93452 22.19400 21.56426
#
# Velocity S-wave (km/s) = 3.48229 3.58551 3.53428
# Velocity P-wave (km/s) = 7.04552 7.20444 7.12542
#
# Compressibility (1/GPa) = 0.01730608
#
# Stress axis : x y z
#
# Youngs Moduli (GPa) = 42.20568 49.31696 45.50204
#
# Poissons Ratio (x) = 0.52460 0.29073
# Poissons Ratio (y) = 0.44895 0.33189
# Poissons Ratio (z) = 0.26967 0.35972
#
# Static dielectric constant tensor:
#      x y z
#    x 1.597770 0.000000 0.000000 
#    y 0.000000 1.572130 0.000000 
#    z 0.000000 0.000000 1.562560 
# 
# From -- ./inp_files/22617.got.cif
#   From: 2010.05.17/outbox.cif.g08.bks.cpg/sg71_12_cif.got.tgz:22617.got - 2010.06.03 16:22:01.
