data_PCOD9522545
_publ_section_title
;
Structure prediction by ZEFSAII (Michael W. Deem and Ramdas Pophale) SiO2 
 PCOD9522545
Probable space group: I M M M
;
_chemical_formula_sum "Si O2"
_cell_formula_units_Z 64
_cell_length_a 11.780993
_cell_length_b 14.721533
_cell_length_c 19.250265
_cell_angle_alpha 90.000000
_cell_angle_beta 90.000000
_cell_angle_gamma 90.000000
_cell_volume 3338.655797
_symmetry_space_group_name_H-M "I M M M"
_symmetry_group_IT_number 71
_symmetry_cell_setting 'orthorhombic'
loop_
_space_group_symop_operation_xyz
x,y,z
-x,-y,z
x,-y,-z
-x,y,-z
-x,-y,-z
x,y,-z
-x,y,z
x,-y,z
1/2+x,1/2+y,1/2+z
1/2-x,1/2-y,1/2+z
1/2+x,1/2-y,1/2-z
1/2-x,1/2+y,1/2-z
1/2-x,1/2-y,1/2-z
1/2+x,1/2+y,1/2-z
1/2-x,1/2+y,1/2+z
1/2+x,1/2-y,1/2+z
loop_
_atom_site_type_symbol
_atom_site_label
_atom_site_fract_x
_atom_site_fract_y
_atom_site_fract_z
Si Si1 0.136128 0.000000 0.081166
Si Si2 0.751716 0.139858 0.183564
Si Si3 0.000000 0.396047 0.362259
Si Si4 0.774431 0.849182 0.661372
Si Si5 0.500000 0.699159 0.920069
Si Si6 0.864852 0.500000 0.917839
O O1 0.187875 0.915014 0.122533
O O2 0.000000 0.000000 0.085295
O O3 0.168925 0.000000 0.000000
O O4 0.616770 0.117687 0.180342
O O5 0.794136 0.115321 0.260394
O O6 0.770806 0.246600 0.171185
O O7 0.000000 0.309725 0.413963
O O8 0.000000 0.500000 0.389917
O O9 0.890194 0.838656 0.618936
O O10 0.689583 0.913001 0.619660
O O11 0.500000 0.672898 0.000000
O O12 0.000000 0.500000 0.909820
O O13 0.838138 0.500000 0.000000
#
# Coordination Sequence:
#
# PCOD9522545 Si02
#       6
#     8  16   8  16   8   8
#     4  11  25  41  61  93 129 165 203 247 307 381
#     4  10  22  41  64  93 125 162 211 250 315 367
#     4  10  20  37  63  99 122 161 198 260 311 371
#     4  10  23  41  64  90 123 167 206 265 302 366
#     4  10  22  40  62  94 127 162 209 254 315 373
#     4  11  25  41  61  91 122 166 214 254 308 364
#
# _framework density 19.169391000000001
#
# number of rings (size 3 to 8) (size 9 to 14) (size 15 to 20)
#    0.000    1.750    1.250    1.500    3.500    6.750 
#    0.000    3.750    0.000    0.000    0.000    0.000 
#    0.000    0.000    0.000    0.000    0.000    0.000 
#
# Total GULP energy -178692.392271 kJ/mol
# GULP energy per Si atom -5584.137258 kJ/mol
# Density = 1.912576 g / cm^3
# Si number density = 19.169391 Si / 1000 Ang^3
#
#
#
# Elastic Constant Matrix: (Units=GPa)
#
#
# Indices 1 2 3 4 5 6 
#
# 1 86.4398 52.2725 83.2475 0.0000 0.0000 0.0000
# 2 52.2725 119.0623 65.6600 0.0000 0.0000 0.0000
# 3 83.2475 65.6600 208.8452 0.0000 0.0000 0.0001
# 4 0.0000 0.0000 0.0000 12.0543 0.0000 0.0001
# 5 0.0000 0.0000 0.0000 0.0000 21.5760 0.0000
# 6 0.0000 0.0000 0.0001 0.0001 0.0000 1568.9786
#
#
#
# Elastic Compliance Matrix: (Units=1/GPa)
#
#
# Indices 1 2 3 4 5 6 
#
# 1 0.021582 -0.005723 -0.006803 0.000000 0.000000 0.000000
# 2 -0.005723 0.011678 -0.001390 0.000000 0.000000 0.000000
# 3 -0.006803 -0.001390 0.007937 0.000000 0.000000 0.000000
# 4 0.000000 0.000000 0.000000 0.082958 0.000000 0.000000
# 5 0.000000 0.000000 0.000000 0.000000 0.046348 0.000000
# 6 0.000000 0.000000 0.000000 0.000000 0.000000 0.000637
#
#
# Mechanical properties :
#
#
# Convention : Reuss Voigt Hill
#
# Bulk Modulus (GPa) = 74.83003 90.74524 82.78764
# Shear Modulus (GPa) = 24.57864 334.73296 179.65580
#
# Velocity S-wave (km/s) = 3.58464 13.22866 9.69142
# Velocity P-wave (km/s) = 7.50025 16.75624 12.98124
#
# Compressibility (1/GPa) = 0.01336362
#
# Stress axis : x y z
#
# Youngs Moduli (GPa) = 46.33523 85.62814 125.98913
#
# Poissons Ratio (x) = 0.49008 0.85714
# Poissons Ratio (y) = 0.26519 0.17516
# Poissons Ratio (z) = 0.31523 0.11905
#
# Static dielectric constant tensor:
#      x y z
#    x 1.636420 0.000000 0.000000 
#    y 0.000000 1.684190 0.000000 
#    z 0.000000 0.000000 1.638760 
# 
# From -- ./inp_files/23274.got.cif
#   From: 2010.05.17/outbox.cif.g08.bks.cpg/sg71_12_cif.got.tgz:23274.got - 2010.06.03 16:22:01.
