data_PCOD9523798
_publ_section_title
;
Structure prediction by ZEFSAII (Michael W. Deem and Ramdas Pophale) SiO2 
 PCOD9523798
Probable space group: I M M M
;
_chemical_formula_sum "Si O2"
_cell_formula_units_Z 112
_cell_length_a 18.072660
_cell_length_b 14.957929
_cell_length_c 22.231642
_cell_angle_alpha 90.000000
_cell_angle_beta 90.000000
_cell_angle_gamma 90.000000
_cell_volume 6009.870114
_symmetry_space_group_name_H-M "I M M M"
_symmetry_group_IT_number 71
_symmetry_cell_setting 'orthorhombic'
loop_
_space_group_symop_operation_xyz
x,y,z
-x,-y,z
x,-y,-z
-x,y,-z
-x,-y,-z
x,y,-z
-x,y,z
x,-y,z
1/2+x,1/2+y,1/2+z
1/2-x,1/2-y,1/2+z
1/2+x,1/2-y,1/2-z
1/2-x,1/2+y,1/2-z
1/2-x,1/2-y,1/2-z
1/2+x,1/2+y,1/2-z
1/2-x,1/2+y,1/2+z
1/2+x,1/2-y,1/2+z
loop_
_atom_site_type_symbol
_atom_site_label
_atom_site_fract_x
_atom_site_fract_y
_atom_site_fract_z
Si Si1 0.412731 0.283815 0.755346
Si Si2 0.417671 0.364046 0.929752
Si Si3 0.689944 0.597813 0.171982
Si Si4 0.083350 0.668694 0.374429
Si Si5 0.314261 0.237733 0.358642
Si Si6 0.231889 0.602118 0.572096
Si Si7 0.415069 0.101137 0.427793
O O1 0.500000 0.294778 0.746554
O O2 0.374592 0.371544 0.783082
O O3 0.403422 0.206691 0.806786
O O4 0.369846 0.262912 0.694599
O O5 0.500000 0.394102 0.909966
O O6 0.350889 0.403865 0.892294
O O7 0.415562 0.258242 0.915525
O O8 0.410625 0.380991 0.000000
O O9 0.720391 0.500000 0.186431
O O10 0.749481 0.676657 0.169620
O O11 0.149804 0.609588 0.399190
O O12 0.000000 0.630730 0.377219
O O13 0.280099 0.322903 0.393348
O O14 0.358950 0.173667 0.403490
O O15 0.229335 0.620101 0.500000
O O16 0.258998 0.500000 0.580264
O O17 0.414482 0.101813 0.500000
O O18 0.500000 0.118768 0.408369
O O19 0.395467 0.000000 0.408075
#
# Coordination Sequence:
#
# PCOD9523798 Si02
#       7
#    16  16  16  16  16  16  16
#     4  10  22  41  62  85 112 152 203 243 288 354
#     4   9  17  31  53  80 113 153 191 228 276 341
#     4  11  23  36  56  87 121 153 188 235 298 363
#     4   9  18  36  60  83 112 150 193 243 296 352
#     4  12  22  39  61  88 119 160 192 250 302 358
#     4  11  24  39  58  86 120 160 208 258 305 353
#     4   9  19  37  62  92 123 155 193 237 290 355
#
# _framework density 18.636009999999999
#
# number of rings (size 3 to 8) (size 9 to 14) (size 15 to 20)
#    0.000    1.857    2.857    3.857    0.000    3.714 
#    0.000    2.143    0.000    3.000    0.000    5.000 
#    0.000    0.000    0.000    0.000    0.000    0.000 
#
# Total GULP energy -312462.389106 kJ/mol
# GULP energy per Si atom -5579.685520 kJ/mol
# Density = 1.859359 g / cm^3
# Si number density = 18.636010 Si / 1000 Ang^3
#
#
#
# Elastic Constant Matrix: (Units=GPa)
#
#
# Indices 1 2 3 4 5 6 
#
# 1 109.6011 63.9184 50.1325 0.0000 0.0000 0.0000
# 2 63.9184 114.4627 40.8668 0.0000 0.0000 0.0000
# 3 50.1325 40.8668 73.3689 0.0000 0.0000 0.0000
# 4 0.0000 0.0000 0.0000 -16.0966 0.0000 0.0000
# 5 0.0000 0.0000 0.0000 0.0000 -6.6440 0.0000
# 6 0.0000 0.0000 0.0000 0.0000 0.0000 128.2313
#
#
#
# Elastic Compliance Matrix: (Units=1/GPa)
#
#
# Indices 1 2 3 4 5 6 
#
# 1 0.016335 -0.006412 -0.007590 0.000000 0.000000 0.000000
# 2 -0.006412 0.013422 -0.003095 0.000000 0.000000 0.000000
# 3 -0.007590 -0.003095 0.020540 0.000000 0.000000 0.000000
# 4 0.000000 0.000000 0.000000 -0.062125 0.000000 0.000000
# 5 0.000000 0.000000 0.000000 0.000000 -0.150511 0.000000
# 6 0.000000 0.000000 0.000000 0.000000 0.000000 0.007798
#
#
# Mechanical properties :
#
#
# Convention : Reuss Voigt Hill
#
# Bulk Modulus (GPa) = 62.10007 67.47422 64.78715
# Shear Modulus (GPa) = -43.48651 30.59914 -6.44369
#
# Velocity S-wave (km/s) = -4.83584 4.05648 -1.86149
# Velocity P-wave (km/s) = 1.48813 7.63053 5.49725
#
# Compressibility (1/GPa) = 0.01610304
#
# Stress axis : x y z
#
# Youngs Moduli (GPa) = 61.21716 74.50444 48.68549
#
# Poissons Ratio (x) = 0.47772 0.36954
# Poissons Ratio (y) = 0.39252 0.15067
# Poissons Ratio (z) = 0.46466 0.23058
#
# Static dielectric constant tensor:
#      x y z
#    x 1.652210 0.000000 0.000000 
#    y 0.000000 1.678000 0.000000 
#    z 0.000000 0.000000 1.640650 
# 
# From -- ./inp_files/59909.got.cif
#   From: 2010.05.17/outbox.cif.g08.bks.cpg/sg71_30_cif.got.tgz:59909.got - 2010.06.03 16:22:01.
