data_PCOD9523742
_publ_section_title
;
Structure prediction by ZEFSAII (Michael W. Deem and Ramdas Pophale) SiO2 
 PCOD9523742
Probable space group: I M M M
;
_chemical_formula_sum "Si O2"
_cell_formula_units_Z 88
_cell_length_a 7.812910
_cell_length_b 20.016575
_cell_length_c 25.033421
_cell_angle_alpha 90.000000
_cell_angle_beta 90.000000
_cell_angle_gamma 90.000000
_cell_volume 3914.919108
_symmetry_space_group_name_H-M "I M M M"
_symmetry_group_IT_number 71
_symmetry_cell_setting 'orthorhombic'
loop_
_space_group_symop_operation_xyz
x,y,z
-x,-y,z
x,-y,-z
-x,y,-z
-x,-y,-z
x,y,-z
-x,y,z
x,-y,z
1/2+x,1/2+y,1/2+z
1/2-x,1/2-y,1/2+z
1/2+x,1/2-y,1/2-z
1/2-x,1/2+y,1/2-z
1/2-x,1/2-y,1/2-z
1/2+x,1/2+y,1/2-z
1/2-x,1/2+y,1/2+z
1/2+x,1/2-y,1/2+z
loop_
_atom_site_type_symbol
_atom_site_label
_atom_site_fract_x
_atom_site_fract_y
_atom_site_fract_z
Si Si1 0.693701 0.500000 0.276273
Si Si2 0.797087 0.726855 0.942540
Si Si3 0.203814 0.000000 0.061192
Si Si4 0.297606 0.148111 0.342268
Si Si5 0.803083 0.647620 0.722542
Si Si6 0.704694 0.856819 0.891486
Si Si7 0.689812 0.500000 0.851241
O O1 0.500000 0.500000 0.299799
O O2 0.795036 0.432477 0.286727
O O3 0.673089 0.500000 0.212723
O O4 0.721791 0.692009 0.889877
O O5 0.773359 0.805754 0.935198
O O6 0.000000 0.712058 0.942734
O O7 0.726181 0.705437 0.000000
O O8 0.254641 0.067347 0.092337
O O9 0.000000 0.000000 0.057955
O O10 0.272484 0.000000 0.000000
O O11 0.500000 0.161193 0.337234
O O12 0.226124 0.159573 0.281724
O O13 0.278311 0.070930 0.360629
O O14 0.722781 0.669162 0.666184
O O15 0.000000 0.670144 0.724284
O O16 0.500000 0.851203 0.888724
O O17 0.500000 0.500000 0.875336
#
# Coordination Sequence:
#
# PCOD9523742 Si02
#       7
#     8  16   8  16  16  16   8
#     4   9  16  26  45  75 108 140 172 209 257 311
#     4  10  22  40  59  79 105 141 186 230 271 320
#     4  11  24  41  60  82 110 147 191 232 266 310
#     4   9  18  35  58  80 108 147 183 218 266 324
#     4   9  18  32  50  76 109 142 176 215 265 324
#     4  11  23  37  56  83 113 144 180 225 276 327
#     4   9  17  30  51  82 113 137 170 218 265 312
#
# _framework density 22.478114000000001
#
# number of rings (size 3 to 8) (size 9 to 14) (size 15 to 20)
#    0.000    2.273    0.000    2.455    0.000   10.545 
#    0.000    0.455    0.000    2.727    0.000    0.000 
#    0.000    0.000    0.000    0.000    0.000    0.000 
#
# Total GULP energy -245312.036634 kJ/mol
# GULP energy per Si atom -5575.273560 kJ/mol
# Density = 2.242695 g / cm^3
# Si number density = 22.478114 Si / 1000 Ang^3
#
#
#
# Elastic Constant Matrix: (Units=GPa)
#
#
# Indices 1 2 3 4 5 6 
#
# 1 47.1179 -12.3406 10.8020 0.0000 0.0000 0.0000
# 2 -12.3406 58.0077 53.4005 0.0000 0.0000 0.0000
# 3 10.8020 53.4005 191.4608 0.0000 0.0000 0.0000
# 4 0.0000 0.0000 0.0000 43.3725 0.0000 0.0000
# 5 0.0000 0.0000 0.0000 0.0000 11.8260 0.0000
# 6 0.0000 0.0000 0.0000 0.0000 0.0000 5.3263
#
#
#
# Elastic Compliance Matrix: (Units=1/GPa)
#
#
# Indices 1 2 3 4 5 6 
#
# 1 0.024366 0.008677 -0.003795 0.000000 0.000000 0.000000
# 2 0.008677 0.026284 -0.007821 0.000000 0.000000 0.000000
# 3 -0.003795 -0.007821 0.007618 0.000000 0.000000 0.000000
# 4 0.000000 0.000000 0.000000 0.023056 0.000000 0.000000
# 5 0.000000 0.000000 0.000000 0.000000 0.084560 0.000000
# 6 0.000000 0.000000 0.000000 0.000000 0.000000 0.187746
#
#
# Mechanical properties :
#
#
# Convention : Reuss Voigt Hill
#
# Bulk Modulus (GPa) = 19.08685 44.47891 31.78288
# Shear Modulus (GPa) = 13.26361 28.41992 20.84176
#
# Velocity S-wave (km/s) = 2.43177 3.55961 3.04830
# Velocity P-wave (km/s) = 4.04900 6.06012 5.15361
#
# Compressibility (1/GPa) = 0.05239208
#
# Stress axis : x y z
#
# Youngs Moduli (GPa) = 41.04088 38.04524 131.26208
#
# Poissons Ratio (x) = -0.33012 0.49812
# Poissons Ratio (y) = -0.35611 1.02655
# Poissons Ratio (z) = 0.15574 0.29754
#
# Static dielectric constant tensor:
#      x y z
#    x 1.842220 0.000000 0.000000 
#    y 0.000000 1.847860 0.000000 
#    z 0.000000 0.000000 1.904990 
# 
# From -- ./inp_files/50543.got.cif
#   From: 2010.05.17/outbox.cif.g08.bks.cpg/sg71_26_cif.got.tgz:50543.got - 2010.06.03 16:22:01.
