data_PCOD9523459
_publ_section_title
;
Structure prediction by ZEFSAII (Michael W. Deem and Ramdas Pophale) SiO2 
 PCOD9523459
Probable space group: I M M M
;
_chemical_formula_sum "Si O2"
_cell_formula_units_Z 64
_cell_length_a 26.909919
_cell_length_b 8.108329
_cell_length_c 14.149571
_cell_angle_alpha 90.000000
_cell_angle_beta 90.000000
_cell_angle_gamma 90.000000
_cell_volume 3087.358239
_symmetry_space_group_name_H-M "I M M M"
_symmetry_group_IT_number 71
_symmetry_cell_setting 'orthorhombic'
loop_
_space_group_symop_operation_xyz
x,y,z
-x,-y,z
x,-y,-z
-x,y,-z
-x,-y,-z
x,y,-z
-x,y,z
x,-y,z
1/2+x,1/2+y,1/2+z
1/2-x,1/2-y,1/2+z
1/2+x,1/2-y,1/2-z
1/2-x,1/2+y,1/2-z
1/2-x,1/2-y,1/2-z
1/2+x,1/2+y,1/2-z
1/2-x,1/2+y,1/2+z
1/2+x,1/2-y,1/2+z
loop_
_atom_site_type_symbol
_atom_site_label
_atom_site_fract_x
_atom_site_fract_y
_atom_site_fract_z
Si Si1 0.609554 0.201247 0.609598
Si Si2 0.943267 0.500000 0.384907
Si Si3 0.614629 0.320329 0.886896
Si Si4 0.500000 0.807307 0.614740
Si Si5 0.306615 0.197815 0.238800
O O1 0.617484 0.250050 0.500000
O O2 0.554435 0.262000 0.641067
O O3 0.655643 0.248451 0.676355
O O4 0.607333 0.000000 0.610834
O O5 0.941031 0.500000 0.500000
O O6 0.916674 0.335062 0.351051
O O7 0.000000 0.500000 0.357612
O O8 0.597510 0.500000 0.854070
O O9 0.670077 0.285166 0.852602
O O10 0.611736 0.319117 0.000000
O O11 0.500000 0.804697 0.500000
O O12 0.500000 0.000000 0.643014
O O13 0.250000 0.250000 0.250000
O O14 0.309248 0.000000 0.229371
#
# Coordination Sequence:
#
# PCOD9523459 Si02
#       5
#    16   8  16   8  16
#     4   8  15  29  50  78 110 143 181 228 287 352
#     4   9  18  36  62  90 119 153 197 244 293 356
#     4  10  21  39  61  85 119 159 199 245 298 353
#     4   7  10  22  46  74 104 135 170 217 274 342
#     4  11  22  36  54  82 116 155 200 250 295 349
#
# _framework density 20.729697000000002
#
# number of rings (size 3 to 8) (size 9 to 14) (size 15 to 20)
#    0.000    2.750    1.250    2.250    0.000    1.500 
#    2.250    5.000    0.000    2.250    0.000    0.000 
#    0.000   12.000    0.000    0.000    0.000    0.000 
#
# Total GULP energy -178495.304524 kJ/mol
# GULP energy per Si atom -5577.978266 kJ/mol
# Density = 2.068252 g / cm^3
# Si number density = 20.729697 Si / 1000 Ang^3
#
#
#
# Elastic Constant Matrix: (Units=GPa)
#
#
# Indices 1 2 3 4 5 6 
#
# 1 167.9261 56.8830 25.1878 0.0000 0.0000 0.0000
# 2 56.8830 116.9129 22.5264 0.0000 0.0000 0.0000
# 3 25.1878 22.5264 52.4675 0.0000 0.0000 0.0000
# 4 0.0000 0.0000 0.0000 6.0173 0.0000 0.0000
# 5 0.0000 0.0000 0.0000 0.0000 34.0170 0.0000
# 6 0.0000 0.0000 0.0000 0.0000 0.0000 19.8991
#
#
#
# Elastic Compliance Matrix: (Units=1/GPa)
#
#
# Indices 1 2 3 4 5 6 
#
# 1 0.007351 -0.003158 -0.002173 0.000000 0.000000 0.000000
# 2 -0.003158 0.010681 -0.003070 0.000000 0.000000 0.000000
# 3 -0.002173 -0.003070 0.021421 0.000000 0.000000 0.000000
# 4 0.000000 0.000000 0.000000 0.166188 0.000000 0.000000
# 5 0.000000 0.000000 0.000000 0.000000 0.029397 0.000000
# 6 0.000000 0.000000 0.000000 0.000000 0.000000 0.050254
#
#
# Mechanical properties :
#
#
# Convention : Reuss Voigt Hill
#
# Bulk Modulus (GPa) = 44.14800 60.72232 52.43516
# Shear Modulus (GPa) = 16.14761 27.50063 21.82412
#
# Velocity S-wave (km/s) = 2.79401 3.64624 3.24820
# Velocity P-wave (km/s) = 5.63488 6.86169 6.27832
#
# Compressibility (1/GPa) = 0.02265108
#
# Stress axis : x y z
#
# Youngs Moduli (GPa) = 136.04400 93.62225 46.68389
#
# Poissons Ratio (x) = 0.29563 0.10145
# Poissons Ratio (y) = 0.42958 0.14332
# Poissons Ratio (z) = 0.29563 0.28742
#
# Static dielectric constant tensor:
#      x y z
#    x 1.536380 0.000000 0.000000 
#    y 0.000000 1.746300 0.000000 
#    z 0.000000 0.000000 1.770160 
# 
# From -- ./inp_files/5860.got.cif
#   From: 2010.05.17/outbox.cif.g08.bks.cpg/sg71_3_cif.got.tgz:5860.got - 2010.06.03 16:22:01.
