data_PCOD9523107
_publ_section_title
;
Structure prediction by ZEFSAII (Michael W. Deem and Ramdas Pophale) SiO2 
 PCOD9523107
Probable space group: I M M M
;
_chemical_formula_sum "Si O2"
_cell_formula_units_Z 88
_cell_length_a 20.106293
_cell_length_b 30.735028
_cell_length_c 8.844250
_cell_angle_alpha 90.000000
_cell_angle_beta 90.000000
_cell_angle_gamma 90.000000
_cell_volume 5465.458870
_symmetry_space_group_name_H-M "I M M M"
_symmetry_group_IT_number 71
_symmetry_cell_setting 'orthorhombic'
loop_
_space_group_symop_operation_xyz
x,y,z
-x,-y,z
x,-y,-z
-x,y,-z
-x,-y,-z
x,y,-z
-x,y,z
x,-y,z
1/2+x,1/2+y,1/2+z
1/2-x,1/2-y,1/2+z
1/2+x,1/2-y,1/2-z
1/2-x,1/2+y,1/2-z
1/2-x,1/2-y,1/2-z
1/2+x,1/2+y,1/2-z
1/2-x,1/2+y,1/2+z
1/2+x,1/2-y,1/2+z
loop_
_atom_site_type_symbol
_atom_site_label
_atom_site_fract_x
_atom_site_fract_y
_atom_site_fract_z
Si Si1 0.786548 0.707561 0.820670
Si Si2 0.575392 0.670299 0.825428
Si Si3 0.798237 0.131274 0.822554
Si Si4 0.074814 0.275286 0.676152
Si Si5 0.500000 0.447211 0.327026
Si Si6 0.858304 0.949488 0.680816
O O1 0.722083 0.790393 0.500000
O O2 0.750000 0.750000 0.750000
O O3 0.753087 0.663921 0.756476
O O4 0.863827 0.708558 0.774390
O O5 0.500000 0.656529 0.791642
O O6 0.629926 0.652539 0.712642
O O7 0.576792 0.722682 0.820328
O O8 0.591201 0.657635 0.000000
O O9 0.805010 0.083416 0.751076
O O10 0.785694 0.129088 0.000000
O O11 0.084124 0.287891 0.500000
O O12 0.000000 0.288450 0.723225
O O13 0.500000 0.500000 0.333309
O O14 0.500000 0.430907 0.500000
O O15 0.431689 0.436355 0.241343
O O16 0.858109 0.946574 0.500000
O O17 0.847172 0.000000 0.723456
#
# Coordination Sequence:
#
# PCOD9523107 Si02
#       6
#    16  16  16  16   8  16
#     4  12  23  36  53  75 105 137 174 214 256 305
#     4   9  18  32  49  69  97 133 172 214 258 304
#     4  12  24  35  51  74 100 134 173 215 262 308
#     4   9  18  34  55  76 101 134 170 210 256 303
#     4   9  17  31  51  73  97 127 167 215 261 305
#     4  10  21  37  54  71  95 129 169 214 264 312
#
# _framework density 16.101118
#
# number of rings (size 3 to 8) (size 9 to 14) (size 15 to 20)
#    0.000    1.727    1.818    5.182    1.273    2.909 
#    0.000    1.818    0.000    0.000    0.000    0.000 
#    0.000    0.727    0.000    7.636    0.000    3.273 
#
# Total GULP energy -245741.171155 kJ/mol
# GULP energy per Si atom -5585.026617 kJ/mol
# Density = 1.606447 g / cm^3
# Si number density = 16.101118 Si / 1000 Ang^3
#
#
#
# Elastic Constant Matrix: (Units=GPa)
#
#
# Indices 1 2 3 4 5 6 
#
# 1 84.3623 52.0213 49.2607 0.0000 0.0000 0.0000
# 2 52.0213 94.3524 47.4738 0.0000 0.0000 0.0000
# 3 49.2607 47.4738 112.8103 0.0000 0.0001 0.0000
# 4 0.0000 0.0000 0.0000 22.7159 0.0000 0.0000
# 5 0.0000 0.0000 0.0001 0.0000 27.2207 0.0000
# 6 0.0000 0.0000 0.0000 0.0000 0.0000 30.6631
#
#
#
# Elastic Compliance Matrix: (Units=1/GPa)
#
#
# Indices 1 2 3 4 5 6 
#
# 1 0.020126 -0.008468 -0.005225 0.000000 0.000000 0.000000
# 2 -0.008468 0.017008 -0.003460 0.000000 0.000000 0.000000
# 3 -0.005225 -0.003460 0.012602 0.000000 0.000000 0.000000
# 4 0.000000 0.000000 0.000000 0.044022 0.000000 0.000000
# 5 0.000000 0.000000 0.000000 0.000000 0.036737 0.000000
# 6 0.000000 0.000000 0.000000 0.000000 0.000000 0.032612
#
#
# Mechanical properties :
#
#
# Convention : Reuss Voigt Hill
#
# Bulk Modulus (GPa) = 64.80402 65.44850 65.12626
# Shear Modulus (GPa) = 24.68450 25.63789 25.16119
#
# Velocity S-wave (km/s) = 3.91972 3.99470 3.95739
# Velocity P-wave (km/s) = 7.79879 7.87486 7.83692
#
# Compressibility (1/GPa) = 0.01543114
#
# Stress axis : x y z
#
# Youngs Moduli (GPa) = 49.68677 58.79563 79.35181
#
# Poissons Ratio (x) = 0.49785 0.41462
# Poissons Ratio (y) = 0.42072 0.27456
# Poissons Ratio (z) = 0.25962 0.20343
#
# Static dielectric constant tensor:
#      x y z
#    x 1.532560 0.000000 0.000000 
#    y 0.000000 1.566030 0.000000 
#    z 0.000000 0.000000 1.547570 
# 
# From -- ./inp_files/11326.got.cif
#   From: 2010.05.17/outbox.cif.g08.bks.cpg/sg71_6_cif.got.tgz:11326.got - 2010.06.03 16:22:01.
