data_PCOD9523955
_publ_section_title
;
Structure prediction by ZEFSAII (Michael W. Deem and Ramdas Pophale) SiO2 
 PCOD9523955
Probable space group: I M M M
;
_chemical_formula_sum "Si O2"
_cell_formula_units_Z 44
_cell_length_a 25.109077
_cell_length_b 7.686676
_cell_length_c 11.802731
_cell_angle_alpha 90.000000
_cell_angle_beta 90.000000
_cell_angle_gamma 90.000000
_cell_volume 2277.990104
_symmetry_space_group_name_H-M "I M M M"
_symmetry_group_IT_number 71
_symmetry_cell_setting 'orthorhombic'
loop_
_space_group_symop_operation_xyz
x,y,z
-x,-y,z
x,-y,-z
-x,y,-z
-x,-y,-z
x,y,-z
-x,y,z
x,-y,z
1/2+x,1/2+y,1/2+z
1/2-x,1/2-y,1/2+z
1/2+x,1/2-y,1/2-z
1/2-x,1/2+y,1/2-z
1/2-x,1/2-y,1/2-z
1/2+x,1/2+y,1/2-z
1/2-x,1/2+y,1/2+z
1/2+x,1/2-y,1/2+z
loop_
_atom_site_type_symbol
_atom_site_label
_atom_site_fract_x
_atom_site_fract_y
_atom_site_fract_z
Si Si1 0.274680 0.000000 0.500000
Si Si2 0.500000 0.709932 0.132037
Si Si3 0.390642 0.800285 0.745883
Si Si4 0.829079 0.000000 0.628642
Si Si5 0.637707 0.702986 0.500000
O O1 0.234044 0.000000 0.393791
O O2 0.311389 0.830340 0.500000
O O3 0.500000 0.500000 0.138860
O O4 0.552816 0.777674 0.193164
O O5 0.500000 0.759682 0.000000
O O6 0.349824 0.668593 0.805961
O O7 0.394011 0.746618 0.614405
O O8 0.373073 0.000000 0.753509
O O9 0.852592 0.000000 0.500000
O O10 0.652333 0.500000 0.500000
#
# Coordination Sequence:
#
# PCOD9523955 Si02
#       5
#     4   8  16   8   8
#     4  10  26  46  68 102 128 184 242 274 346 400
#     4  11  23  42  71 101 141 181 223 271 342 407
#     4  12  24  43  71 100 140 180 223 286 336 410
#     4  10  24  44  65  99 132 176 232 274 340 394
#     4  12  24  47  69  97 138 179 233 284 341 399
#
# _framework density 19.315273999999999
#
# number of rings (size 3 to 8) (size 9 to 14) (size 15 to 20)
#    0.545    0.182    5.455    1.636    0.000    7.273 
#    0.000    3.636    0.000    0.000    0.000    0.000 
#    0.000    0.000    0.000    0.000    0.000    0.000 
#
# Total GULP energy -122960.402049 kJ/mol
# GULP energy per Si atom -5589.109184 kJ/mol
# Density = 1.927131 g / cm^3
# Si number density = 19.315274 Si / 1000 Ang^3
#
#
#
# Elastic Constant Matrix: (Units=GPa)
#
#
# Indices 1 2 3 4 5 6 
#
# 1 100.2822 42.7278 56.4845 0.0000 0.0000 0.0000
# 2 42.7278 187.6581 62.0007 0.0000 0.0000 0.0000
# 3 56.4845 62.0007 179.4821 0.0000 0.0000 0.0000
# 4 0.0000 0.0000 0.0000 24.9772 0.0000 0.0000
# 5 0.0000 0.0000 0.0000 0.0000 -71.7425 0.0000
# 6 0.0000 0.0000 0.0000 0.0000 0.0000 17.4835
#
#
#
# Elastic Compliance Matrix: (Units=1/GPa)
#
#
# Indices 1 2 3 4 5 6 
#
# 1 0.012616 -0.001762 -0.003362 0.000000 0.000000 0.000000
# 2 -0.001762 0.006261 -0.001608 0.000000 0.000000 0.000000
# 3 -0.003362 -0.001608 0.007185 0.000000 0.000000 0.000000
# 4 0.000000 0.000000 0.000000 0.040037 0.000000 0.000000
# 5 0.000000 0.000000 0.000000 0.000000 -0.013939 0.000000
# 6 0.000000 0.000000 0.000000 0.000000 0.000000 0.057197
#
#
# Mechanical properties :
#
#
# Convention : Reuss Voigt Hill
#
# Bulk Modulus (GPa) = 79.37459 87.76093 83.56776
# Shear Modulus (GPa) = 39.36357 14.55759 26.96058
#
# Velocity S-wave (km/s) = 4.51926 2.74831 3.74012
# Velocity P-wave (km/s) = 8.27134 7.45692 7.87466
#
# Compressibility (1/GPa) = 0.01259849
#
# Stress axis : x y z
#
# Youngs Moduli (GPa) = 79.26401 159.70800 139.17491
#
# Poissons Ratio (x) = 0.28138 0.46787
# Poissons Ratio (y) = 0.13965 0.22386
# Poissons Ratio (z) = 0.26647 0.25689
#
# Static dielectric constant tensor:
#      x y z
#    x 1.642570 0.000000 0.000000 
#    y 0.000000 1.661010 0.000000 
#    z 0.000000 0.000000 1.675700 
# 
# From -- ./inp_files/26736.got.cif
#   From: 2010.05.17/outbox.cif.g08.bks.cpg/sg71_14_cif.got.tgz:26736.got - 2010.06.03 16:22:01.
