data_PCOD9523971
_publ_section_title
;
Structure prediction by ZEFSAII (Michael W. Deem and Ramdas Pophale) SiO2 
 PCOD9523971
Probable space group: I M M M
;
_chemical_formula_sum "Si O2"
_cell_formula_units_Z 58
_cell_length_a 9.873689
_cell_length_b 16.468733
_cell_length_c 19.752028
_cell_angle_alpha 90.000000
_cell_angle_beta 90.000000
_cell_angle_gamma 90.000000
_cell_volume 3211.820938
_symmetry_space_group_name_H-M "I M M M"
_symmetry_group_IT_number 71
_symmetry_cell_setting 'orthorhombic'
loop_
_space_group_symop_operation_xyz
x,y,z
-x,-y,z
x,-y,-z
-x,y,-z
-x,-y,-z
x,y,-z
-x,y,z
x,-y,z
1/2+x,1/2+y,1/2+z
1/2-x,1/2-y,1/2+z
1/2+x,1/2-y,1/2-z
1/2-x,1/2+y,1/2-z
1/2-x,1/2-y,1/2-z
1/2+x,1/2+y,1/2-z
1/2-x,1/2+y,1/2+z
1/2+x,1/2-y,1/2+z
loop_
_atom_site_type_symbol
_atom_site_label
_atom_site_fract_x
_atom_site_fract_y
_atom_site_fract_z
Si Si1 0.663349 0.353201 0.309403
Si Si2 0.000000 0.500000 0.500000
Si Si3 0.000000 0.905187 0.580550
Si Si4 0.152723 0.500000 0.639132
Si Si5 0.751347 0.826651 0.345939
Si Si6 0.000000 0.596527 0.078532
O O1 0.500000 0.364450 0.315983
O O2 0.756254 0.423053 0.341154
O O3 0.708663 0.267578 0.342095
O O4 0.703187 0.349745 0.230038
O O5 0.115748 0.500000 0.560187
O O6 0.873698 0.853849 0.606742
O O7 0.000000 0.909198 0.500000
O O8 0.000000 0.000000 0.605444
O O9 0.000000 0.500000 0.672620
O O10 0.626656 0.874313 0.377865
O O11 0.000000 0.500000 0.074398
O O12 0.000000 0.627248 0.000000
#
# Coordination Sequence:
#
# PCOD9523971 Si02
#       6
#    16   2   8   8  16   8
#     4  11  24  43  67 101 131 169 225 271 337 387
#     4   8  24  52  62 104 128 160 234 268 332 396
#     4  11  24  42  65  97 135 178 220 260 330 401
#     4  10  25  45  73  95 126 172 215 281 327 398
#     4  11  24  41  66  97 134 171 217 279 318 394
#     4  11  24  42  63  95 135 173 215 259 324 400
#
# _framework density 18.058292000000002
#
# number of rings (size 3 to 8) (size 9 to 14) (size 15 to 20)
#    0.414    0.828    2.759    2.069    7.724    2.207 
#    7.448    1.379    0.000    0.000    0.000    0.000 
#    0.000    0.000    0.000    0.000    0.000    0.000 
#
# Total GULP energy -161450.017780 kJ/mol
# GULP energy per Si atom -5567.241992 kJ/mol
# Density = 1.801719 g / cm^3
# Si number density = 18.058292 Si / 1000 Ang^3
#
#
#
# Elastic Constant Matrix: (Units=GPa)
#
#
# Indices 1 2 3 4 5 6 
#
# 1 220.3259 88.4135 67.4049 0.0000 0.0000 0.0000
# 2 88.4135 122.5282 77.9581 0.0000 0.0000 0.0000
# 3 67.4049 77.9581 85.9275 0.0000 0.0000 0.0000
# 4 0.0000 0.0000 0.0000 28.2818 0.0000 0.0000
# 5 0.0000 0.0000 0.0000 0.0000 37.2114 0.0000
# 6 0.0000 0.0000 0.0000 0.0000 0.0000 50.4548
#
#
#
# Elastic Compliance Matrix: (Units=1/GPa)
#
#
# Indices 1 2 3 4 5 6 
#
# 1 0.006531 -0.003437 -0.002005 0.000000 0.000000 0.000000
# 2 -0.003437 0.021114 -0.016459 0.000000 0.000000 0.000000
# 3 -0.002005 -0.016459 0.028143 0.000000 0.000000 0.000000
# 4 0.000000 0.000000 0.000000 0.035358 0.000000 0.000000
# 5 0.000000 0.000000 0.000000 0.000000 0.026874 0.000000
# 6 0.000000 0.000000 0.000000 0.000000 0.000000 0.019820
#
#
# Mechanical properties :
#
#
# Convention : Reuss Voigt Hill
#
# Bulk Modulus (GPa) = 83.43492 99.59273 91.51382
# Shear Modulus (GPa) = 26.93411 36.18995 31.56203
#
# Velocity S-wave (km/s) = 3.86620 4.48153 4.18519
# Velocity P-wave (km/s) = 8.13839 9.05810 8.61054
#
# Compressibility (1/GPa) = 0.01198539
#
# Stress axis : x y z
#
# Youngs Moduli (GPa) = 153.10517 47.36265 35.53245
#
# Poissons Ratio (x) = 0.16279 0.07125
# Poissons Ratio (y) = 0.52625 0.58484
# Poissons Ratio (z) = 0.30699 0.77955
#
# Static dielectric constant tensor:
#      x y z
#    x 1.357370 0.000000 0.000000 
#    y 0.000000 1.631140 0.000000 
#    z 0.000000 0.000000 1.597010 
# 
# From -- ./inp_files/31167.got.cif
#   From: 2010.05.17/outbox.cif.g08.bks.cpg/sg71_16_cif.got.tgz:31167.got - 2010.06.03 16:22:01.
