data_PCOD9523598
_publ_section_title
;
Structure prediction by ZEFSAII (Michael W. Deem and Ramdas Pophale) SiO2 
 PCOD9523598
Probable space group: I M M M
;
_chemical_formula_sum "Si O2"
_cell_formula_units_Z 88
_cell_length_a 15.710738
_cell_length_b 19.861479
_cell_length_c 14.990648
_cell_angle_alpha 90.000000
_cell_angle_beta 90.000000
_cell_angle_gamma 90.000000
_cell_volume 4677.659209
_symmetry_space_group_name_H-M "I M M M"
_symmetry_group_IT_number 71
_symmetry_cell_setting 'orthorhombic'
loop_
_space_group_symop_operation_xyz
x,y,z
-x,-y,z
x,-y,-z
-x,y,-z
-x,-y,-z
x,y,-z
-x,y,z
x,-y,z
1/2+x,1/2+y,1/2+z
1/2-x,1/2-y,1/2+z
1/2+x,1/2-y,1/2-z
1/2-x,1/2+y,1/2-z
1/2-x,1/2-y,1/2-z
1/2+x,1/2+y,1/2-z
1/2-x,1/2+y,1/2+z
1/2+x,1/2-y,1/2+z
loop_
_atom_site_type_symbol
_atom_site_label
_atom_site_fract_x
_atom_site_fract_y
_atom_site_fract_z
Si Si1 0.759025 0.921511 0.362817
Si Si2 0.091526 0.420979 0.342581
Si Si3 0.722823 0.577001 0.352090
Si Si4 0.597692 0.418288 0.000000
Si Si5 0.096126 0.658574 0.157497
Si Si6 0.597047 0.304264 0.602973
O O1 0.771833 0.917832 0.256014
O O2 0.844041 0.899214 0.414934
O O3 0.675053 0.879471 0.387768
O O4 0.744360 0.000000 0.384751
O O5 0.094958 0.500000 0.314099
O O6 0.181825 0.409860 0.388932
O O7 0.091381 0.374402 0.255409
O O8 0.000000 0.411748 0.389040
O O9 0.698511 0.500000 0.374344
O O10 0.658499 0.633291 0.383602
O O11 0.592304 0.500000 0.000000
O O12 0.500000 0.393294 0.000000
O O13 0.116264 0.737847 0.160249
O O14 0.000000 0.651604 0.118523
O O15 0.601752 0.281979 0.500000
O O16 0.500000 0.325090 0.621894
#
# Coordination Sequence:
#
# PCOD9523598 Si02
#       6
#    16  16  16   8  16  16
#     4   9  18  31  51  79 103 129 167 202 240 298
#     4   8  14  27  50  79 106 128 153 192 245 302
#     4   9  18  33  53  75  96 124 166 211 252 298
#     4   9  18  32  47  67 101 137 165 200 244 284
#     4   9  17  30  50  72 101 134 160 196 246 299
#     4  10  22  36  48  68  98 133 171 210 254 295
#
# _framework density 18.812829000000001
#
# number of rings (size 3 to 8) (size 9 to 14) (size 15 to 20)
#    0.000    3.000    0.000    1.636    1.273    5.455 
#    0.000    2.727    0.000    3.273    0.000    2.545 
#    0.000    0.000    0.000    0.000    0.000    0.000 
#
# Total GULP energy -244964.014574 kJ/mol
# GULP energy per Si atom -5567.363968 kJ/mol
# Density = 1.877001 g / cm^3
# Si number density = 18.812829 Si / 1000 Ang^3
#
#
#
# Elastic Constant Matrix: (Units=GPa)
#
#
# Indices 1 2 3 4 5 6 
#
# 1 151.3020 76.5549 13.9083 0.0000 0.0000 0.0000
# 2 76.5549 93.2475 12.5342 0.0000 0.0000 0.0000
# 3 13.9083 12.5342 37.9131 0.0000 0.0000 0.0000
# 4 0.0000 0.0000 0.0000 4.8339 0.0000 0.0000
# 5 0.0000 0.0000 0.0000 0.0000 7.5967 0.0000
# 6 0.0000 0.0000 0.0000 0.0000 0.0000 27.9574
#
#
#
# Elastic Compliance Matrix: (Units=1/GPa)
#
#
# Indices 1 2 3 4 5 6 
#
# 1 0.011352 -0.009167 -0.001134 0.000000 0.000000 0.000000
# 2 -0.009167 0.018626 -0.002795 0.000000 0.000000 0.000000
# 3 -0.001134 -0.002795 0.027716 0.000000 0.000000 0.000000
# 4 0.000000 0.000000 0.000000 0.206870 0.000000 0.000000
# 5 0.000000 0.000000 0.000000 0.000000 0.131636 0.000000
# 6 0.000000 0.000000 0.000000 0.000000 0.000000 0.035769
#
#
# Mechanical properties :
#
#
# Convention : Reuss Voigt Hill
#
# Bulk Modulus (GPa) = 31.74372 54.27303 43.00837
# Shear Modulus (GPa) = 10.66867 20.04197 15.35532
#
# Velocity S-wave (km/s) = 2.38396 3.26749 2.86005
# Velocity P-wave (km/s) = 4.94851 6.56863 5.81527
#
# Compressibility (1/GPa) = 0.03150230
#
# Stress axis : x y z
#
# Youngs Moduli (GPa) = 88.09026 53.68796 36.08027
#
# Poissons Ratio (x) = 0.49218 0.04090
# Poissons Ratio (y) = 0.80756 0.10084
# Poissons Ratio (z) = 0.09987 0.15005
#
# Static dielectric constant tensor:
#      x y z
#    x 1.695990 0.000000 0.000000 
#    y 0.000000 1.616100 0.000000 
#    z 0.000000 0.000000 1.676710 
# 
# From -- ./inp_files/36366.got.cif
#   From: 2010.05.17/outbox.cif.g08.bks.cpg/sg71_19_cif.got.tgz:36366.got - 2010.06.03 16:22:01.
