data_PCOD9523738
_publ_section_title
;
Structure prediction by ZEFSAII (Michael W. Deem and Ramdas Pophale) SiO2 
 PCOD9523738
Probable space group: I M M M
;
_chemical_formula_sum "Si O2"
_cell_formula_units_Z 104
_cell_length_a 27.107431
_cell_length_b 8.448970
_cell_length_c 23.962406
_cell_angle_alpha 90.000000
_cell_angle_beta 90.000000
_cell_angle_gamma 90.000000
_cell_volume 5488.106762
_symmetry_space_group_name_H-M "I M M M"
_symmetry_group_IT_number 71
_symmetry_cell_setting 'orthorhombic'
loop_
_space_group_symop_operation_xyz
x,y,z
-x,-y,z
x,-y,-z
-x,y,-z
-x,-y,-z
x,y,-z
-x,y,z
x,-y,z
1/2+x,1/2+y,1/2+z
1/2-x,1/2-y,1/2+z
1/2+x,1/2-y,1/2-z
1/2-x,1/2+y,1/2-z
1/2-x,1/2-y,1/2-z
1/2+x,1/2+y,1/2-z
1/2-x,1/2+y,1/2+z
1/2+x,1/2-y,1/2+z
loop_
_atom_site_type_symbol
_atom_site_label
_atom_site_fract_x
_atom_site_fract_y
_atom_site_fract_z
Si Si1 0.500000 0.307288 0.062910
Si Si2 0.323974 0.808837 0.936991
Si Si3 0.590819 0.310486 0.139669
Si Si4 0.057210 0.690914 0.759848
Si Si5 0.129138 0.320905 0.143846
Si Si6 0.056763 0.177441 0.066503
Si Si7 0.209348 0.809982 0.062607
O O1 0.500000 0.500000 0.061341
O O2 0.548289 0.258617 0.096552
O O3 0.500000 0.248069 0.000000
O O4 0.358027 0.739392 0.888735
O O5 0.266556 0.762481 0.931036
O O6 0.326330 0.000000 0.934753
O O7 0.340076 0.760305 0.000000
O O8 0.589106 0.500000 0.145471
O O9 0.577118 0.235687 0.198942
O O10 0.055636 0.500000 0.765647
O O11 0.097774 0.751167 0.804675
O O12 0.000000 0.747082 0.767210
O O13 0.142113 0.500000 0.158689
O O14 0.088977 0.309748 0.094679
O O15 0.176457 0.243502 0.114655
O O16 0.000000 0.189563 0.083895
O O17 0.075070 0.000000 0.081895
O O18 0.058541 0.186773 0.000000
O O19 0.207828 0.000000 0.061044
O O20 0.192451 0.755717 0.000000
#
# Coordination Sequence:
#
# PCOD9523738 Si02
#       7
#     8  16  16  16  16  16  16
#     4   9  18  32  51  81 119 145 164 207 270 327
#     4   9  19  37  60  85 114 148 183 219 269 333
#     4  11  21  35  57  85 115 146 182 225 275 327
#     4  10  22  40  57  74 107 152 191 230 276 327
#     4  11  22  34  52  79 107 140 185 234 283 330
#     4   9  18  32  49  71 101 137 176 221 276 337
#     4   9  19  37  59  82 111 147 185 228 277 330
#
# _framework density 18.950068999999999
#
# number of rings (size 3 to 8) (size 9 to 14) (size 15 to 20)
#    0.000    2.231    0.769    3.692    0.000    6.154 
#    0.000    3.077    0.000    1.846    0.000    0.000 
#    0.000    0.000    0.000    0.000    0.000    0.000 
#
# Total GULP energy -289917.438194 kJ/mol
# GULP energy per Si atom -5575.335350 kJ/mol
# Density = 1.890694 g / cm^3
# Si number density = 18.950069 Si / 1000 Ang^3
#
#
#
# Elastic Constant Matrix: (Units=GPa)
#
#
# Indices 1 2 3 4 5 6 
#
# 1 104.8855 12.8617 70.7149 0.0000 0.0000 0.0000
# 2 12.8617 9.7759 11.4751 0.0000 0.0000 0.0000
# 3 70.7149 11.4751 114.3901 0.0000 0.0000 0.0000
# 4 0.0000 0.0000 0.0000 21.4250 0.0000 0.0000
# 5 0.0000 0.0000 0.0000 0.0000 32.2190 0.0000
# 6 0.0000 0.0000 0.0000 0.0000 0.0000 18.8748
#
#
#
# Elastic Compliance Matrix: (Units=1/GPa)
#
#
# Indices 1 2 3 4 5 6 
#
# 1 0.017448 -0.011669 -0.009616 0.000000 0.000000 0.000000
# 2 -0.011669 0.123749 -0.005200 0.000000 0.000000 0.000000
# 3 -0.009616 -0.005200 0.015208 0.000000 0.000000 0.000000
# 4 0.000000 0.000000 0.000000 0.046674 0.000000 0.000000
# 5 0.000000 0.000000 0.000000 0.000000 0.031038 0.000000
# 6 0.000000 0.000000 0.000000 0.000000 0.000000 0.052981
#
#
# Mechanical properties :
#
#
# Convention : Reuss Voigt Hill
#
# Bulk Modulus (GPa) = 9.66785 46.57274 28.12030
# Shear Modulus (GPa) = 13.34949 23.43709 18.39329
#
# Velocity S-wave (km/s) = 2.65704 3.52061 3.11886
# Velocity P-wave (km/s) = 3.81129 6.41530 5.27646
#
# Compressibility (1/GPa) = 0.10343559
#
# Stress axis : x y z
#
# Youngs Moduli (GPa) = 57.31278 8.08087 65.75464
#
# Poissons Ratio (x) = 0.09429 0.63228
# Poissons Ratio (y) = 0.66877 0.34195
# Poissons Ratio (z) = 0.55110 0.04202
#
# Static dielectric constant tensor:
#      x y z
#    x 1.666420 0.000000 0.000000 
#    y 0.000000 1.688390 0.000000 
#    z 0.000000 0.000000 1.653820 
# 
# From -- ./inp_files/56669.got.cif
#   From: 2010.05.17/outbox.cif.g08.bks.cpg/sg71_29_cif.got.tgz:56669.got - 2010.06.03 16:22:01.
