data_PCOD9523857
_publ_section_title
;
Structure prediction by ZEFSAII (Michael W. Deem and Ramdas Pophale) SiO2 
 PCOD9523857
Probable space group: I M M M
;
_chemical_formula_sum "Si O2"
_cell_formula_units_Z 60
_cell_length_a 8.758299
_cell_length_b 17.924569
_cell_length_c 20.326820
_cell_angle_alpha 90.000000
_cell_angle_beta 90.000000
_cell_angle_gamma 90.000000
_cell_volume 3191.081753
_symmetry_space_group_name_H-M "I M M M"
_symmetry_group_IT_number 71
_symmetry_cell_setting 'orthorhombic'
loop_
_space_group_symop_operation_xyz
x,y,z
-x,-y,z
x,-y,-z
-x,y,-z
-x,-y,-z
x,y,-z
-x,y,z
x,-y,z
1/2+x,1/2+y,1/2+z
1/2-x,1/2-y,1/2+z
1/2+x,1/2-y,1/2-z
1/2-x,1/2+y,1/2-z
1/2-x,1/2-y,1/2-z
1/2+x,1/2+y,1/2-z
1/2-x,1/2+y,1/2+z
1/2+x,1/2-y,1/2+z
loop_
_atom_site_type_symbol
_atom_site_label
_atom_site_fract_x
_atom_site_fract_y
_atom_site_fract_z
Si Si1 0.000000 0.749130 0.000000
Si Si2 0.316270 0.000000 0.577266
Si Si3 0.180950 0.119830 0.325288
Si Si4 0.332000 0.269330 0.634455
Si Si5 0.682560 0.916485 0.816355
O O1 0.130067 0.751337 0.941201
O O2 0.250026 0.928318 0.614847
O O3 0.500000 0.000000 0.582936
O O4 0.278083 0.000000 0.500000
O O5 0.226164 0.205793 0.335333
O O6 0.257911 0.091724 0.258200
O O7 0.000000 0.109484 0.322352
O O8 0.500000 0.267817 0.668491
O O9 0.260909 0.350629 0.643056
O O10 0.500000 0.908338 0.817111
O O11 0.721167 0.000000 0.840030
#
# Coordination Sequence:
#
# PCOD9523857 Si02
#       5
#     4   8  16  16  16
#     4   8  24  44  67  95 122 176 218 266 326 389
#     4  11  25  41  61  89 131 177 212 257 316 387
#     4  12  24  39  63  96 131 168 216 265 319 385
#     4  10  22  42  66  90 124 168 215 263 322 387
#     4  11  23  41  65  95 130 169 215 272 327 380
#
# _framework density 18.802402000000001
#
# number of rings (size 3 to 8) (size 9 to 14) (size 15 to 20)
#    0.800    0.400    1.333    5.200    1.867    2.667 
#    0.000    3.333    0.000    1.600    0.000    0.000 
#    0.000    0.000    0.000    0.000    0.000    0.000 
#
# Total GULP energy -167032.202104 kJ/mol
# GULP energy per Si atom -5567.740070 kJ/mol
# Density = 1.875961 g / cm^3
# Si number density = 18.802402 Si / 1000 Ang^3
#
#
#
# Elastic Constant Matrix: (Units=GPa)
#
#
# Indices 1 2 3 4 5 6 
#
# 1 61.5148 11.4396 -3.4350 0.0000 0.0000 0.0000
# 2 11.4396 95.7425 -12.2896 0.0000 0.0000 0.0000
# 3 -3.4350 -12.2896 20.5756 0.0000 0.0000 0.0000
# 4 0.0000 0.0000 0.0000 -48.2479 0.0000 0.0000
# 5 0.0000 0.0000 0.0000 0.0000 35.3911 0.0000
# 6 0.0000 0.0000 0.0000 0.0000 0.0000 -71.2578
#
#
#
# Elastic Compliance Matrix: (Units=1/GPa)
#
#
# Indices 1 2 3 4 5 6 
#
# 1 0.016682 -0.001772 0.001727 0.000000 0.000000 0.000000
# 2 -0.001772 0.011500 0.006573 0.000000 0.000000 0.000000
# 3 0.001727 0.006573 0.052816 0.000000 0.000000 0.000000
# 4 0.000000 0.000000 0.000000 -0.020726 0.000000 0.000000
# 5 0.000000 0.000000 0.000000 0.000000 0.028256 0.000000
# 6 0.000000 0.000000 0.000000 0.000000 0.000000 -0.014034
#
#
# Mechanical properties :
#
#
# Convention : Reuss Voigt Hill
#
# Bulk Modulus (GPa) = 10.63213 18.80700 14.71957
# Shear Modulus (GPa) = 53.88609 -4.68172 24.60218
#
# Velocity S-wave (km/s) = 5.35923 -1.57967 3.62119
# Velocity P-wave (km/s) = 6.63039 2.58786 5.03285
#
# Compressibility (1/GPa) = 0.09405453
#
# Stress axis : x y z
#
# Youngs Moduli (GPa) = 59.94441 86.95578 18.93383
#
# Poissons Ratio (x) = 0.15405 -0.03270
# Poissons Ratio (y) = 0.10620 -0.12445
# Poissons Ratio (z) = -0.10351 -0.57157
#
# Static dielectric constant tensor:
#      x y z
#    x 1.641200 0.000000 0.000000 
#    y 0.000000 1.671670 0.000000 
#    z 0.000000 0.000000 1.620270 
# 
# From -- ./inp_files/49976.got.cif
#   From: 2010.05.17/outbox.cif.g08.bks.cpg/sg71_25_cif.got.tgz:49976.got - 2010.06.03 16:22:01.
