data_PCOD9523706
_publ_section_title
;
Structure prediction by ZEFSAII (Michael W. Deem and Ramdas Pophale) SiO2 
 PCOD9523706
Probable space group: I M M M
;
_chemical_formula_sum "Si O2"
_cell_formula_units_Z 56
_cell_length_a 10.809267
_cell_length_b 13.692338
_cell_length_c 19.385985
_cell_angle_alpha 90.000000
_cell_angle_beta 90.000000
_cell_angle_gamma 90.000000
_cell_volume 2869.205986
_symmetry_space_group_name_H-M "I M M M"
_symmetry_group_IT_number 71
_symmetry_cell_setting 'orthorhombic'
loop_
_space_group_symop_operation_xyz
x,y,z
-x,-y,z
x,-y,-z
-x,y,-z
-x,-y,-z
x,y,-z
-x,y,z
x,-y,z
1/2+x,1/2+y,1/2+z
1/2-x,1/2-y,1/2+z
1/2+x,1/2-y,1/2-z
1/2-x,1/2+y,1/2-z
1/2-x,1/2-y,1/2-z
1/2+x,1/2+y,1/2-z
1/2-x,1/2+y,1/2+z
1/2+x,1/2-y,1/2+z
loop_
_atom_site_type_symbol
_atom_site_label
_atom_site_fract_x
_atom_site_fract_y
_atom_site_fract_z
Si Si1 0.500000 0.617847 0.578253
Si Si2 0.137416 0.198813 0.670393
Si Si3 0.362013 0.882544 0.418964
Si Si4 0.216464 0.884383 0.815783
O O1 0.500000 0.500000 0.574335
O O2 0.500000 0.655537 0.500000
O O3 0.622626 0.640912 0.621946
O O4 0.247902 0.158563 0.623536
O O5 0.151039 0.146148 0.744341
O O6 0.165228 0.314003 0.679549
O O7 0.000000 0.181828 0.642797
O O8 0.349637 0.859592 0.500000
O O9 0.500000 0.849699 0.395836
O O10 0.360347 0.000000 0.412574
O O11 0.242021 0.000000 0.816501
#
# Coordination Sequence:
#
# PCOD9523706 Si02
#       4
#     8  16  16  16
#     4   9  18  36  62  86 108 148 206 257 298 344
#     4  11  23  37  59  90 124 159 199 250 311 366
#     4   9  20  39  61  87 121 162 206 249 297 361
#     4  10  22  39  58  84 121 160 202 250 303 366
#
# _framework density 19.517595
#
# number of rings (size 3 to 8) (size 9 to 14) (size 15 to 20)
#    0.000    2.143    1.429    1.714    2.000    5.143 
#    0.000    1.429    0.000    0.000    0.000    6.000 
#    0.000    0.000    0.000    0.000    0.000    0.000 
#
# Total GULP energy -156361.621036 kJ/mol
# GULP energy per Si atom -5584.343608 kJ/mol
# Density = 1.947317 g / cm^3
# Si number density = 19.517595 Si / 1000 Ang^3
#
#
#
# Elastic Constant Matrix: (Units=GPa)
#
#
# Indices 1 2 3 4 5 6 
#
# 1 164.3181 40.5546 74.6594 0.0000 0.0000 0.0000
# 2 40.5546 94.7788 48.1751 0.0000 0.0000 0.0000
# 3 74.6594 48.1751 98.9745 0.0000 0.0000 0.0000
# 4 0.0000 0.0000 0.0000 6.7605 0.0000 0.0000
# 5 0.0000 0.0000 0.0000 0.0000 21.7318 0.0000
# 6 0.0000 0.0000 0.0000 0.0000 0.0000 18.7281
#
#
#
# Elastic Compliance Matrix: (Units=1/GPa)
#
#
# Indices 1 2 3 4 5 6 
#
# 1 0.009281 -0.000548 -0.006734 0.000000 0.000000 0.000000
# 2 -0.000548 0.014052 -0.006426 0.000000 0.000000 0.000000
# 3 -0.006734 -0.006426 0.018311 0.000000 0.000000 0.000000
# 4 0.000000 0.000000 0.000000 0.147919 0.000000 0.000000
# 5 0.000000 0.000000 0.000000 0.000000 0.046016 0.000000
# 6 0.000000 0.000000 0.000000 0.000000 0.000000 0.053396
#
#
# Mechanical properties :
#
#
# Convention : Reuss Voigt Hill
#
# Bulk Modulus (GPa) = 70.28813 76.09438 73.19126
# Shear Modulus (GPa) = 15.56992 22.42288 18.99640
#
# Velocity S-wave (km/s) = 2.82749 3.39315 3.12315
# Velocity P-wave (km/s) = 6.83743 7.37723 7.11245
#
# Compressibility (1/GPa) = 0.01422715
#
# Stress axis : x y z
#
# Youngs Moduli (GPa) = 107.75127 71.16545 54.61242
#
# Poissons Ratio (x) = 0.03902 0.36775
# Poissons Ratio (y) = 0.05909 0.35094
# Poissons Ratio (z) = 0.72557 0.45730
#
# Static dielectric constant tensor:
#      x y z
#    x 1.657610 0.000000 0.000000 
#    y 0.000000 1.729590 0.000000 
#    z 0.000000 0.000000 1.664820 
# 
# From -- ./inp_files/30972.got.cif
#   From: 2010.05.17/outbox.cif.g08.bks.cpg/sg71_16_cif.got.tgz:30972.got - 2010.06.03 16:22:01.
