data_PCOD9523506
_publ_section_title
;
Structure prediction by ZEFSAII (Michael W. Deem and Ramdas Pophale) SiO2 
 PCOD9523506
Probable space group: I M M M
;
_chemical_formula_sum "Si O2"
_cell_formula_units_Z 112
_cell_length_a 14.397248
_cell_length_b 27.383878
_cell_length_c 13.791798
_cell_angle_alpha 90.000000
_cell_angle_beta 90.000000
_cell_angle_gamma 90.000000
_cell_volume 5437.450603
_symmetry_space_group_name_H-M "I M M M"
_symmetry_group_IT_number 71
_symmetry_cell_setting 'orthorhombic'
loop_
_space_group_symop_operation_xyz
x,y,z
-x,-y,z
x,-y,-z
-x,y,-z
-x,-y,-z
x,y,-z
-x,y,z
x,-y,z
1/2+x,1/2+y,1/2+z
1/2-x,1/2-y,1/2+z
1/2+x,1/2-y,1/2-z
1/2-x,1/2+y,1/2-z
1/2-x,1/2-y,1/2-z
1/2+x,1/2+y,1/2-z
1/2-x,1/2+y,1/2+z
1/2+x,1/2-y,1/2+z
loop_
_atom_site_type_symbol
_atom_site_label
_atom_site_fract_x
_atom_site_fract_y
_atom_site_fract_z
Si Si1 0.133110 0.000000 0.611733
Si Si2 0.766375 0.557704 0.387591
Si Si3 0.604992 0.901193 0.274435
Si Si4 0.611997 0.793730 0.288400
Si Si5 0.727765 0.763099 0.109382
Si Si6 0.111830 0.163447 0.605796
Si Si7 0.103786 0.086973 0.242313
Si Si8 0.856334 0.500000 0.110362
O O1 0.101574 0.953592 0.673211
O O2 0.244657 0.000000 0.613872
O O3 0.103715 0.000000 0.500000
O O4 0.774807 0.569813 0.500000
O O5 0.787375 0.500000 0.375112
O O6 0.831104 0.588643 0.317456
O O7 0.664520 0.567805 0.345391
O O8 0.500000 0.896985 0.238938
O O9 0.623924 0.849407 0.326968
O O10 0.613239 0.949676 0.339483
O O11 0.500000 0.783404 0.281855
O O12 0.667062 0.794135 0.185476
O O13 0.671345 0.753999 0.349723
O O14 0.666670 0.713640 0.104929
O O15 0.735423 0.783085 0.000000
O O16 0.128600 0.138934 0.500000
O O17 0.143054 0.133168 0.699199
O O18 0.000000 0.170434 0.612979
O O19 0.000000 0.097901 0.209965
O O20 0.887537 0.500000 0.000000
#
# Coordination Sequence:
#
# PCOD9523506 Si02
#       8
#     8  16  16  16  16  16  16   8
#     4  11  21  33  53  81 117 154 189 236 294 360
#     4  11  23  39  55  76 108 150 205 256 298 346
#     4  11  22  41  65  90 124 161 201 246 300 360
#     4  10  23  40  62  94 127 160 202 254 306 361
#     4  10  21  39  64  89 121 162 202 247 304 363
#     4   9  18  32  55  86 116 149 192 242 299 369
#     4  11  20  34  54  79 113 153 196 246 306 362
#     4  11  23  39  63  93 129 166 197 236 296 370
#
# _framework density 20.597888999999999
#
# number of rings (size 3 to 8) (size 9 to 14) (size 15 to 20)
#    0.000    1.571    2.857    2.143    0.000    4.571 
#    0.000    4.286    0.000    0.000    0.000    4.000 
#    0.000    0.000    0.000    0.000    0.000    0.000 
#
# Total GULP energy -312528.804047 kJ/mol
# GULP energy per Si atom -5580.871501 kJ/mol
# Density = 2.055101 g / cm^3
# Si number density = 20.597889 Si / 1000 Ang^3
#
#
#
# Elastic Constant Matrix: (Units=GPa)
#
#
# Indices 1 2 3 4 5 6 
#
# 1 93.4197 3.8306 10.1764 0.0000 0.0000 0.0000
# 2 3.8306 55.5914 3.0730 -0.0002 0.0001 0.0000
# 3 10.1764 3.0730 73.5509 -0.0001 0.0001 0.0000
# 4 0.0000 -0.0002 -0.0001 19.8586 0.0001 0.0000
# 5 0.0000 0.0001 0.0001 0.0001 207.8618 0.0000
# 6 0.0000 0.0000 0.0000 0.0000 0.0000 29.9352
#
#
#
# Elastic Compliance Matrix: (Units=1/GPa)
#
#
# Indices 1 2 3 4 5 6 
#
# 1 0.010893 -0.000669 -0.001479 0.000000 0.000000 0.000000
# 2 -0.000669 0.018071 -0.000662 0.000000 0.000000 0.000000
# 3 -0.001479 -0.000662 0.013828 0.000000 0.000000 0.000000
# 4 0.000000 0.000000 0.000000 0.050356 0.000000 0.000000
# 5 0.000000 0.000000 0.000000 0.000000 0.004811 0.000000
# 6 0.000000 0.000000 0.000000 0.000000 0.000000 0.033406
#
#
# Mechanical properties :
#
#
# Convention : Reuss Voigt Hill
#
# Bulk Modulus (GPa) = 26.90239 28.52467 27.71353
# Shear Modulus (GPa) = 33.47250 65.22991 49.35120
#
# Velocity S-wave (km/s) = 4.03556 5.63356 4.90014
# Velocity P-wave (km/s) = 5.89944 7.49629 6.74529
#
# Compressibility (1/GPa) = 0.03717142
#
# Stress axis : x y z
#
# Youngs Moduli (GPa) = 91.80263 55.33696 72.31510
#
# Poissons Ratio (x) = 0.03701 0.10697
# Poissons Ratio (y) = 0.06140 0.04791
# Poissons Ratio (z) = 0.13579 0.03666
#
# Static dielectric constant tensor:
#      x y z
#    x 1.756590 0.000000 0.000000 
#    y 0.000000 1.805740 0.000000 
#    z 0.000000 0.000000 1.738930 
# 
# From -- ./inp_files/35201.got.cif
#   From: 2010.05.17/outbox.cif.g08.bks.cpg/sg71_18_cif.got.tgz:35201.got - 2010.06.03 16:22:01.
