data_PCOD9523074
_publ_section_title
;
Structure prediction by ZEFSAII (Michael W. Deem and Ramdas Pophale) SiO2 
 PCOD9523074
Probable space group: I M M M
;
_chemical_formula_sum "Si O2"
_cell_formula_units_Z 88
_cell_length_a 24.661551
_cell_length_b 20.481977
_cell_length_c 8.559275
_cell_angle_alpha 90.000000
_cell_angle_beta 90.000000
_cell_angle_gamma 90.000000
_cell_volume 4323.438052
_symmetry_space_group_name_H-M "I M M M"
_symmetry_group_IT_number 71
_symmetry_cell_setting 'orthorhombic'
loop_
_space_group_symop_operation_xyz
x,y,z
-x,-y,z
x,-y,-z
-x,y,-z
-x,-y,-z
x,y,-z
-x,y,z
x,-y,z
1/2+x,1/2+y,1/2+z
1/2-x,1/2-y,1/2+z
1/2+x,1/2-y,1/2-z
1/2-x,1/2+y,1/2-z
1/2-x,1/2-y,1/2-z
1/2+x,1/2+y,1/2-z
1/2-x,1/2+y,1/2+z
1/2+x,1/2-y,1/2+z
loop_
_atom_site_type_symbol
_atom_site_label
_atom_site_fract_x
_atom_site_fract_y
_atom_site_fract_z
Si Si1 0.369111 0.375049 0.312289
Si Si2 0.439406 0.106693 0.816704
Si Si3 0.827156 0.430405 0.186875
Si Si4 0.255810 0.323637 0.187858
Si Si5 0.935894 0.000000 0.687985
Si Si6 0.062922 0.252940 0.820352
O O1 0.365752 0.381130 0.500000
O O2 0.309625 0.361823 0.243116
O O3 0.402874 0.436497 0.247479
O O4 0.401538 0.308532 0.274983
O O5 0.500000 0.090023 0.758828
O O6 0.389801 0.073550 0.731230
O O7 0.431775 0.184033 0.787220
O O8 0.437103 0.092099 0.000000
O O9 0.804549 0.500000 0.244313
O O10 0.794638 0.367633 0.244830
O O11 0.822417 0.429638 0.000000
O O12 0.250000 0.250000 0.250000
O O13 0.255825 0.320423 0.000000
O O14 0.935509 0.000000 0.500000
O O15 0.000000 0.000000 0.737858
O O16 0.000000 0.233039 0.819121
O O17 0.076926 0.272107 0.000000
#
# Coordination Sequence:
#
# PCOD9523074 Si02
#       6
#    16  16  16  16   8  16
#     4  11  23  39  62  91 123 162 210 262 318 380
#     4  10  21  36  57  88 122 153 190 242 302 360
#     4  10  23  42  62  84 114 157 203 246 295 357
#     4  11  24  42  65  92 125 163 209 264 319 379
#     4  11  25  43  63  91 129 173 218 265 324 393
#     4   9  18  34  57  84 116 155 198 245 296 354
#
# _framework density 20.354171000000001
#
# number of rings (size 3 to 8) (size 9 to 14) (size 15 to 20)
#    0.000    1.727    0.000    3.545    1.273   10.545 
#    0.000    3.636    0.000    0.000    0.000    0.000 
#    0.000    0.000    0.000    0.000    0.000    0.000 
#
# Total GULP energy -245775.930427 kJ/mol
# GULP energy per Si atom -5585.816601 kJ/mol
# Density = 2.030784 g / cm^3
# Si number density = 20.354171 Si / 1000 Ang^3
#
#
#
# Elastic Constant Matrix: (Units=GPa)
#
#
# Indices 1 2 3 4 5 6 
#
# 1 119.3723 76.9753 24.4062 0.0000 0.0000 0.0000
# 2 76.9753 124.0441 26.8064 0.0000 0.0000 0.0000
# 3 24.4062 26.8064 29.5099 0.0000 0.0000 0.0000
# 4 0.0000 0.0000 0.0000 24.5313 0.0000 0.0000
# 5 0.0000 0.0000 0.0000 0.0000 29.4860 0.0000
# 6 0.0000 0.0000 0.0000 0.0000 0.0000 29.4560
#
#
#
# Elastic Compliance Matrix: (Units=1/GPa)
#
#
# Indices 1 2 3 4 5 6 
#
# 1 0.014480 -0.007960 -0.004745 0.000000 0.000000 0.000000
# 2 -0.007960 0.014407 -0.006503 0.000000 0.000000 0.000000
# 3 -0.004745 -0.006503 0.043719 0.000000 0.000000 0.000000
# 4 0.000000 0.000000 0.000000 0.040764 0.000000 0.000000
# 5 0.000000 0.000000 0.000000 0.000000 0.033914 0.000000
# 6 0.000000 0.000000 0.000000 0.000000 0.000000 0.033949
#
#
# Mechanical properties :
#
#
# Convention : Reuss Voigt Hill
#
# Bulk Modulus (GPa) = 29.24942 58.81135 44.03039
# Shear Modulus (GPa) = 21.64060 26.34388 23.99224
#
# Velocity S-wave (km/s) = 3.26422 3.60151 3.43700
# Velocity P-wave (km/s) = 5.34867 6.80082 6.11798
#
# Compressibility (1/GPa) = 0.03418871
#
# Stress axis : x y z
#
# Youngs Moduli (GPa) = 69.05887 69.41147 22.87345
#
# Poissons Ratio (x) = 0.55254 0.10853
# Poissons Ratio (y) = 0.54973 0.14875
# Poissons Ratio (z) = 0.32768 0.45141
#
# Static dielectric constant tensor:
#      x y z
#    x 1.733240 0.000000 0.000000 
#    y 0.000000 1.735080 0.000000 
#    z 0.000000 0.000000 1.703650 
# 
# From -- ./inp_files/12530.got.cif
#   From: 2010.05.17/outbox.cif.g08.bks.cpg/sg71_7_cif.got.tgz:12530.got - 2010.06.03 16:22:01.
