data_PCOD9523463
_publ_section_title
;
Structure prediction by ZEFSAII (Michael W. Deem and Ramdas Pophale) SiO2 
 PCOD9523463
Probable space group: I M M M
;
_chemical_formula_sum "Si O2"
_cell_formula_units_Z 76
_cell_length_a 29.162218
_cell_length_b 8.097813
_cell_length_c 16.762232
_cell_angle_alpha 90.000000
_cell_angle_beta 90.000000
_cell_angle_gamma 90.000000
_cell_volume 3958.404239
_symmetry_space_group_name_H-M "I M M M"
_symmetry_group_IT_number 71
_symmetry_cell_setting 'orthorhombic'
loop_
_space_group_symop_operation_xyz
x,y,z
-x,-y,z
x,-y,-z
-x,y,-z
-x,-y,-z
x,y,-z
-x,y,z
x,-y,z
1/2+x,1/2+y,1/2+z
1/2-x,1/2-y,1/2+z
1/2+x,1/2-y,1/2-z
1/2-x,1/2+y,1/2-z
1/2-x,1/2-y,1/2-z
1/2+x,1/2+y,1/2-z
1/2-x,1/2+y,1/2+z
1/2+x,1/2-y,1/2+z
loop_
_atom_site_type_symbol
_atom_site_label
_atom_site_fract_x
_atom_site_fract_y
_atom_site_fract_z
Si Si1 0.666188 0.500000 0.500000
Si Si2 0.597481 0.194839 0.500000
Si Si3 0.500000 0.195427 0.911479
Si Si4 0.688081 0.307612 0.903161
Si Si5 0.907264 0.806230 0.326483
Si Si6 0.245540 0.500000 0.408077
Si Si7 0.551738 0.803223 0.330273
O O1 0.636926 0.332607 0.500000
O O2 0.700047 0.500000 0.423001
O O3 0.567521 0.221876 0.579297
O O4 0.612418 0.000000 0.500000
O O5 0.453575 0.240251 0.866214
O O6 0.500000 0.000000 0.918005
O O7 0.500000 0.270854 0.000000
O O8 0.696893 0.500000 0.878969
O O9 0.639692 0.246766 0.866683
O O10 0.725880 0.172840 0.875834
O O11 0.685156 0.310961 0.000000
O O12 0.912820 0.770014 0.232926
O O13 0.907137 0.000000 0.339962
O O14 0.227764 0.500000 0.500000
O O15 0.500000 0.738206 0.317581
O O16 0.550496 0.000000 0.316262
#
# Coordination Sequence:
#
# PCOD9523463 Si02
#       7
#     4   8   8  16  16   8  16
#     4  10  22  40  65 102 114 145 198 264 316 386
#     4  10  23  42  66  92 118 158 197 258 315 375
#     4  11  23  35  49  76 119 172 211 247 284 344
#     4   9  18  33  54  84 115 157 204 237 284 352
#     4  11  22  34  53  84 121 161 205 248 296 350
#     4   8  18  34  58  88 112 147 186 251 304 353
#     4  10  21  39  61  87 121 162 205 245 300 363
#
# _framework density 19.199656000000001
#
# number of rings (size 3 to 8) (size 9 to 14) (size 15 to 20)
#    0.316    1.789    1.053    1.895    4.421    3.789 
#    0.000    0.526    0.000    1.263    0.000    0.000 
#    0.000    0.000    0.000    0.000    0.000    0.000 
#
# Total GULP energy -211747.846574 kJ/mol
# GULP energy per Si atom -5572.311752 kJ/mol
# Density = 1.915596 g / cm^3
# Si number density = 19.199656 Si / 1000 Ang^3
#
#
#
# Elastic Constant Matrix: (Units=GPa)
#
#
# Indices 1 2 3 4 5 6 
#
# 1 68.6902 40.4798 -3.8415 0.0000 0.0000 0.0000
# 2 40.4798 64.3184 4.8372 0.0000 0.0000 0.0000
# 3 -3.8415 4.8372 44.4399 0.0000 0.0000 0.0000
# 4 0.0000 0.0000 0.0000 11.4444 0.0000 0.0000
# 5 0.0000 0.0000 0.0000 0.0000 0.3030 0.0000
# 6 0.0000 0.0000 0.0000 0.0000 0.0000 25.5900
#
#
#
# Elastic Compliance Matrix: (Units=1/GPa)
#
#
# Indices 1 2 3 4 5 6 
#
# 1 0.023732 -0.015215 0.003708 0.000000 0.000000 0.000000
# 2 -0.015215 0.025430 -0.004083 0.000000 0.000000 0.000000
# 3 0.003708 -0.004083 0.023267 0.000000 0.000000 0.000000
# 4 0.000000 0.000000 0.000000 0.087379 0.000000 0.000000
# 5 0.000000 0.000000 0.000000 0.000000 3.300331 0.000000
# 6 0.000000 0.000000 0.000000 0.000000 0.000000 0.039078
#
#
# Mechanical properties :
#
#
# Convention : Reuss Voigt Hill
#
# Bulk Modulus (GPa) = 24.24339 28.93328 26.58833
# Shear Modulus (GPa) = 1.41078 16.53233 8.97155
#
# Velocity S-wave (km/s) = 0.85813 2.93759 2.16400
# Velocity P-wave (km/s) = 3.69273 5.15833 4.48579
#
# Compressibility (1/GPa) = 0.04124836
#
# Stress axis : x y z
#
# Youngs Moduli (GPa) = 42.13777 39.32303 42.97887
#
# Poissons Ratio (x) = 0.59829 -0.15935
# Poissons Ratio (y) = 0.64112 0.17549
# Poissons Ratio (z) = -0.15623 0.16057
#
# Static dielectric constant tensor:
#      x y z
#    x 1.702020 0.000000 0.000000 
#    y 0.000000 1.688790 0.000000 
#    z 0.000000 0.000000 1.683600 
# 
# From -- ./inp_files/48648.got.cif
#   From: 2010.05.17/outbox.cif.g08.bks.cpg/sg71_25_cif.got.tgz:48648.got - 2010.06.03 16:22:01.
