data_PCOD9523272
_publ_section_title
;
Structure prediction by ZEFSAII (Michael W. Deem and Ramdas Pophale) SiO2 
 PCOD9523272
Probable space group: I M M M
;
_chemical_formula_sum "Si O2"
_cell_formula_units_Z 104
_cell_length_a 23.577909
_cell_length_b 8.850238
_cell_length_c 27.118477
_cell_angle_alpha 90.000000
_cell_angle_beta 90.000000
_cell_angle_gamma 90.000000
_cell_volume 5658.815475
_symmetry_space_group_name_H-M "I M M M"
_symmetry_group_IT_number 71
_symmetry_cell_setting 'orthorhombic'
loop_
_space_group_symop_operation_xyz
x,y,z
-x,-y,z
x,-y,-z
-x,y,-z
-x,-y,-z
x,y,-z
-x,y,z
x,-y,z
1/2+x,1/2+y,1/2+z
1/2-x,1/2-y,1/2+z
1/2+x,1/2-y,1/2-z
1/2-x,1/2+y,1/2-z
1/2-x,1/2-y,1/2-z
1/2+x,1/2+y,1/2-z
1/2-x,1/2+y,1/2+z
1/2+x,1/2-y,1/2+z
loop_
_atom_site_type_symbol
_atom_site_label
_atom_site_fract_x
_atom_site_fract_y
_atom_site_fract_z
Si Si1 0.935497 0.816986 0.288354
Si Si2 0.740290 0.818193 0.057112
Si Si3 0.065131 0.680825 0.179535
Si Si4 0.632549 0.318921 0.409195
Si Si5 0.067538 0.323669 0.000000
Si Si6 0.567608 0.832852 0.056608
Si Si7 0.144768 0.174446 0.625227
O O1 0.928142 0.749800 0.233978
O O2 0.884382 0.767201 0.324307
O O3 0.000000 0.774233 0.305395
O O4 0.934154 0.000000 0.286602
O O5 0.803421 0.776930 0.075262
O O6 0.695831 0.757565 0.097301
O O7 0.736515 0.000000 0.056055
O O8 0.731186 0.766028 0.000000
O O9 0.070538 0.500000 0.181383
O O10 0.110015 0.749351 0.141621
O O11 0.000000 0.715771 0.163395
O O12 0.629542 0.500000 0.406724
O O13 0.592404 0.256970 0.452146
O O14 0.084231 0.500000 0.000000
O O15 0.000000 0.315515 0.000000
O O16 0.500000 0.828792 0.057309
O O17 0.593326 0.697897 0.087100
O O18 0.585321 0.000000 0.075788
O O19 0.586569 0.824973 0.000000
O O20 0.159923 0.000000 0.631991
#
# Coordination Sequence:
#
# PCOD9523272 Si02
#       7
#    16  16  16  16   8  16  16
#     4   9  19  37  58  81 113 150 187 232 285 341
#     4  10  22  41  59  78 110 152 197 239 279 332
#     4  10  21  37  59  89 120 147 181 229 286 344
#     4  11  22  39  61  85 114 153 196 232 277 337
#     4  11  23  37  57  89 125 153 182 229 284 337
#     4   9  18  32  49  71 102 141 182 226 282 345
#     4  11  22  34  53  82 110 142 189 239 289 340
#
# _framework density 18.378405999999998
#
# number of rings (size 3 to 8) (size 9 to 14) (size 15 to 20)
#    0.000    1.923    0.769    3.462    0.000    9.231 
#    0.000    3.077    0.000    0.000    0.000    0.000 
#    0.000    0.000    0.000    0.000    0.000    0.000 
#
# Total GULP energy -290090.625466 kJ/mol
# GULP energy per Si atom -5578.665874 kJ/mol
# Density = 1.833658 g / cm^3
# Si number density = 18.378406 Si / 1000 Ang^3
#
#
#
# Elastic Constant Matrix: (Units=GPa)
#
#
# Indices 1 2 3 4 5 6 
#
# 1 103.0158 34.7063 69.0360 0.0000 0.0000 0.0000
# 2 34.7063 27.8744 30.5325 0.0000 0.0000 0.0000
# 3 69.0360 30.5325 109.0536 0.0000 0.0000 0.0000
# 4 0.0000 0.0000 0.0000 26.0137 0.0000 0.0000
# 5 0.0000 0.0000 0.0000 0.0000 -33.0937 0.0000
# 6 0.0000 0.0000 0.0000 0.0000 0.0000 26.9580
#
#
#
# Elastic Compliance Matrix: (Units=1/GPa)
#
#
# Indices 1 2 3 4 5 6 
#
# 1 0.021242 -0.016902 -0.008715 0.000000 0.000000 0.000000
# 2 -0.016902 0.065193 -0.007553 0.000000 0.000000 0.000000
# 3 -0.008715 -0.007553 0.016801 0.000000 0.000000 0.000000
# 4 0.000000 0.000000 0.000000 0.038441 0.000000 0.000000
# 5 0.000000 0.000000 0.000000 0.000000 -0.030217 0.000000
# 6 0.000000 0.000000 0.000000 0.000000 0.000000 0.037095
#
#
# Mechanical properties :
#
#
# Convention : Reuss Voigt Hill
#
# Bulk Modulus (GPa) = 27.10276 56.49928 41.80102
# Shear Modulus (GPa) = 22.00767 11.02019 16.51393
#
# Velocity S-wave (km/s) = 3.46421 2.45139 3.00084
# Velocity P-wave (km/s) = 5.54798 6.23068 5.89921
#
# Compressibility (1/GPa) = 0.03689661
#
# Stress axis : x y z
#
# Youngs Moduli (GPa) = 47.07665 15.33908 59.51927
#
# Poissons Ratio (x) = 0.25927 0.51870
# Poissons Ratio (y) = 0.79570 0.44953
# Poissons Ratio (z) = 0.41027 0.11585
#
# Static dielectric constant tensor:
#      x y z
#    x 1.643260 0.000000 0.000000 
#    y 0.000000 1.637690 0.000000 
#    z 0.000000 0.000000 1.415020 
# 
# From -- ./inp_files/66803.got.cif
#   From: 2010.05.17/outbox.cif.g08.bks.cpg/sg71_34_cif.got.tgz:66803.got - 2010.06.03 16:22:01.
