data_PCOD9523641
_publ_section_title
;
Structure prediction by ZEFSAII (Michael W. Deem and Ramdas Pophale) SiO2 
 PCOD9523641
Probable space group: I M M M
;
_chemical_formula_sum "Si O2"
_cell_formula_units_Z 64
_cell_length_a 13.681671
_cell_length_b 8.454439
_cell_length_c 29.391147
_cell_angle_alpha 90.000000
_cell_angle_beta 90.000000
_cell_angle_gamma 90.000000
_cell_volume 3399.699041
_symmetry_space_group_name_H-M "I M M M"
_symmetry_group_IT_number 71
_symmetry_cell_setting 'orthorhombic'
loop_
_space_group_symop_operation_xyz
x,y,z
-x,-y,z
x,-y,-z
-x,y,-z
-x,-y,-z
x,y,-z
-x,y,z
x,-y,z
1/2+x,1/2+y,1/2+z
1/2-x,1/2-y,1/2+z
1/2+x,1/2-y,1/2-z
1/2-x,1/2+y,1/2-z
1/2-x,1/2-y,1/2-z
1/2+x,1/2+y,1/2-z
1/2-x,1/2+y,1/2+z
1/2+x,1/2-y,1/2+z
loop_
_atom_site_type_symbol
_atom_site_label
_atom_site_fract_x
_atom_site_fract_y
_atom_site_fract_z
Si Si1 0.209078 0.186101 0.385917
Si Si2 0.199501 0.811778 0.205020
Si Si3 0.890677 0.692216 0.946470
Si Si4 0.500000 0.312641 0.248390
Si Si5 0.000000 0.687219 0.643912
O O1 0.258560 0.218369 0.337325
O O2 0.292503 0.249356 0.420872
O O3 0.099479 0.254914 0.380919
O O4 0.197802 0.000000 0.394608
O O5 0.250000 0.750000 0.250000
O O6 0.089370 0.777624 0.218576
O O7 0.214234 0.000000 0.198091
O O8 0.890801 0.500000 0.942440
O O9 0.000000 0.745086 0.930175
O O10 0.884496 0.730220 0.000000
O O11 0.500000 0.500000 0.238414
O O12 0.500000 0.236715 0.197852
O O13 0.000000 0.500000 0.643246
#
# Coordination Sequence:
#
# PCOD9523641 Si02
#       5
#    16  16  16   8   8
#     4  11  22  36  58  86 116 148 188 238 288 340
#     4  11  22  36  54  79 112 152 193 234 278 330
#     4   8  16  34  60  89 117 144 179 228 285 342
#     4  10  22  38  54  73 108 151 192 238 280 325
#     4  12  24  38  57  77 110 156 197 236 280 338
#
# _framework density 18.825195999999998
#
# number of rings (size 3 to 8) (size 9 to 14) (size 15 to 20)
#    0.000    1.750    2.500    3.375    1.750    1.000 
#    0.000    0.625    0.000    6.750    0.000    7.000 
#    0.000    0.000    0.000    0.000    0.000    0.000 
#
# Total GULP energy -178257.979184 kJ/mol
# GULP energy per Si atom -5570.561849 kJ/mol
# Density = 1.878235 g / cm^3
# Si number density = 18.825196 Si / 1000 Ang^3
#
#
#
# Elastic Constant Matrix: (Units=GPa)
#
#
# Indices 1 2 3 4 5 6 
#
# 1 199.8670 45.5228 56.9072 0.0000 0.0000 0.0000
# 2 45.5228 20.6593 1.3194 0.0000 0.0000 0.0000
# 3 56.9072 1.3194 66.8981 0.0000 0.0000 0.0000
# 4 0.0000 0.0000 0.0000 14.9245 0.0000 0.0000
# 5 0.0000 0.0000 0.0000 0.0000 43.5642 0.0000
# 6 0.0000 0.0000 0.0000 0.0000 0.0000 16.2938
#
#
#
# Elastic Compliance Matrix: (Units=1/GPa)
#
#
# Indices 1 2 3 4 5 6 
#
# 1 0.017885 -0.038486 -0.014455 0.000000 0.000000 0.000000
# 2 -0.038486 0.131283 0.030149 0.000000 0.000000 0.000000
# 3 -0.014455 0.030149 0.026649 0.000000 0.000000 0.000000
# 4 0.000000 0.000000 0.000000 0.067004 0.000000 0.000000
# 5 0.000000 0.000000 0.000000 0.000000 0.022955 0.000000
# 6 0.000000 0.000000 0.000000 0.000000 0.000000 0.061373
#
#
# Mechanical properties :
#
#
# Convention : Reuss Voigt Hill
#
# Bulk Modulus (GPa) = 7.67849 54.99145 31.33497
# Shear Modulus (GPa) = 12.01510 27.20151 19.60831
#
# Velocity S-wave (km/s) = 2.52909 3.80538 3.23088
# Velocity P-wave (km/s) = 3.55192 6.97014 5.53168
#
# Compressibility (1/GPa) = 0.13023398
#
# Stress axis : x y z
#
# Youngs Moduli (GPa) = 55.91369 7.61714 37.52420
#
# Poissons Ratio (x) = 0.29315 0.54240
# Poissons Ratio (y) = 2.15189 -1.13132
# Poissons Ratio (z) = 0.80822 -0.22965
#
# Static dielectric constant tensor:
#      x y z
#    x 1.667730 0.000000 0.000000 
#    y 0.000000 1.630510 0.000000 
#    z 0.000000 0.000000 1.621640 
# 
# From -- ./inp_files/5873.got.cif
#   From: 2010.05.17/outbox.cif.g08.bks.cpg/sg71_3_cif.got.tgz:5873.got - 2010.06.03 16:22:01.
