data_PCOD9523414
_publ_section_title
;
Structure prediction by ZEFSAII (Michael W. Deem and Ramdas Pophale) SiO2 
 PCOD9523414
Probable space group: I M M M
;
_chemical_formula_sum "Si O2"
_cell_formula_units_Z 72
_cell_length_a 8.874913
_cell_length_b 29.009679
_cell_length_c 15.025672
_cell_angle_alpha 90.000000
_cell_angle_beta 90.000000
_cell_angle_gamma 90.000000
_cell_volume 3868.485131
_symmetry_space_group_name_H-M "I M M M"
_symmetry_group_IT_number 71
_symmetry_cell_setting 'orthorhombic'
loop_
_space_group_symop_operation_xyz
x,y,z
-x,-y,z
x,-y,-z
-x,y,-z
-x,-y,-z
x,y,-z
-x,y,z
x,-y,z
1/2+x,1/2+y,1/2+z
1/2-x,1/2-y,1/2+z
1/2+x,1/2-y,1/2-z
1/2-x,1/2+y,1/2-z
1/2-x,1/2-y,1/2-z
1/2+x,1/2+y,1/2-z
1/2-x,1/2+y,1/2+z
1/2+x,1/2-y,1/2+z
loop_
_atom_site_type_symbol
_atom_site_label
_atom_site_fract_x
_atom_site_fract_y
_atom_site_fract_z
Si Si1 0.320723 0.689964 0.500000
Si Si2 0.167346 0.052272 0.893054
Si Si3 0.179605 0.700868 0.000000
Si Si4 0.674723 0.862348 0.167191
Si Si5 0.680876 0.632684 0.139363
Si Si6 0.182808 0.946219 0.500000
O O1 0.500000 0.681115 0.500000
O O2 0.293571 0.744630 0.500000
O O3 0.250434 0.667555 0.411232
O O4 0.298941 0.085065 0.862665
O O5 0.000000 0.069234 0.864058
O O6 0.183432 0.000000 0.861483
O O7 0.165333 0.051825 0.000000
O O8 0.254001 0.675121 0.916891
O O9 0.000000 0.693266 0.000000
O O10 0.500000 0.850401 0.175137
O O11 0.756097 0.860994 0.262045
O O12 0.500000 0.633727 0.139470
O O13 0.726001 0.585342 0.086206
O O14 0.000000 0.947921 0.500000
O O15 0.234810 0.000000 0.500000
#
# Coordination Sequence:
#
# PCOD9523414 Si02
#       6
#     8  16   8  16  16   8
#     4  11  24  42  63  84 113 153 196 242 299 366
#     4   9  18  34  56  79 109 153 197 234 279 341
#     4  10  22  42  65  88 113 145 190 250 307 353
#     4  12  24  37  57  88 122 155 195 247 298 345
#     4  10  21  38  62  88 119 159 196 237 292 355
#     4   8  16  34  61  91 117 148 195 240 276 327
#
# _framework density 18.611937000000001
#
# number of rings (size 3 to 8) (size 9 to 14) (size 15 to 20)
#    0.000    1.889    1.111    4.667    0.000    4.000 
#    0.000    3.333    0.000   11.333    0.000    0.000 
#    0.000    0.000    0.000    0.000    0.000    0.000 
#
# Total GULP energy -200822.349442 kJ/mol
# GULP energy per Si atom -5578.398596 kJ/mol
# Density = 1.856957 g / cm^3
# Si number density = 18.611937 Si / 1000 Ang^3
#
#
#
# Elastic Constant Matrix: (Units=GPa)
#
#
# Indices 1 2 3 4 5 6 
#
# 1 95.8090 65.7971 63.2559 0.0000 -0.0004 0.0000
# 2 65.7971 118.6753 76.0905 0.0001 0.0034 0.0000
# 3 63.2559 76.0905 152.0083 0.0005 0.0149 0.0000
# 4 0.0000 0.0001 0.0005 -16.4059 0.0081 0.0000
# 5 -0.0004 0.0034 0.0149 0.0081 382.8768 0.0004
# 6 0.0000 0.0000 0.0000 0.0000 0.0004 26.8113
#
#
#
# Elastic Compliance Matrix: (Units=1/GPa)
#
#
# Indices 1 2 3 4 5 6 
#
# 1 0.018172 -0.007697 -0.003709 0.000000 0.000000 0.000000
# 2 -0.007697 0.015669 -0.004640 0.000000 0.000000 0.000000
# 3 -0.003709 -0.004640 0.010445 0.000000 0.000000 0.000000
# 4 0.000000 0.000000 0.000000 -0.060954 0.000001 0.000000
# 5 0.000000 0.000000 0.000000 0.000001 0.002612 0.000000
# 6 0.000000 0.000000 0.000000 0.000000 0.000000 0.037298
#
#
# Mechanical properties :
#
#
# Convention : Reuss Voigt Hill
#
# Bulk Modulus (GPa) = 82.01443 86.30883 84.16163
# Shear Modulus (GPa) = 84.17494 89.41305 86.79400
#
# Velocity S-wave (km/s) = 6.73235 6.93866 6.83628
# Velocity P-wave (km/s) = 10.22711 10.51983 10.37450
#
# Compressibility (1/GPa) = 0.01219298
#
# Stress axis : x y z
#
# Youngs Moduli (GPa) = 55.02859 63.81981 95.73962
#
# Poissons Ratio (x) = 0.49122 0.35512
# Poissons Ratio (y) = 0.42356 0.44427
# Poissons Ratio (z) = 0.20412 0.29615
#
# Static dielectric constant tensor:
#      x y z
#    x 1.640120 0.000000 0.000000 
#    y 0.000000 1.652140 0.000000 
#    z 0.000000 0.000000 1.748320 
# 
# From -- ./inp_files/31493.got.cif
#   From: 2010.05.17/outbox.cif.g08.bks.cpg/sg71_16_cif.got.tgz:31493.got - 2010.06.03 16:22:01.
