data_PCOD9523245
_publ_section_title
;
Structure prediction by ZEFSAII (Michael W. Deem and Ramdas Pophale) SiO2 
 PCOD9523245
Probable space group: I M M M
;
_chemical_formula_sum "Si O2"
_cell_formula_units_Z 72
_cell_length_a 15.122948
_cell_length_b 29.476072
_cell_length_c 8.588919
_cell_angle_alpha 90.000000
_cell_angle_beta 90.000000
_cell_angle_gamma 90.000000
_cell_volume 3828.640372
_symmetry_space_group_name_H-M "I M M M"
_symmetry_group_IT_number 71
_symmetry_cell_setting 'orthorhombic'
loop_
_space_group_symop_operation_xyz
x,y,z
-x,-y,z
x,-y,-z
-x,y,-z
-x,-y,-z
x,y,-z
-x,y,z
x,-y,z
1/2+x,1/2+y,1/2+z
1/2-x,1/2-y,1/2+z
1/2+x,1/2-y,1/2-z
1/2-x,1/2+y,1/2-z
1/2-x,1/2-y,1/2-z
1/2+x,1/2+y,1/2-z
1/2-x,1/2+y,1/2+z
1/2+x,1/2-y,1/2+z
loop_
_atom_site_type_symbol
_atom_site_label
_atom_site_fract_x
_atom_site_fract_y
_atom_site_fract_z
Si Si1 0.500000 0.446647 0.813121
Si Si2 0.635736 0.373227 0.685652
Si Si3 0.393866 0.949031 0.175455
Si Si4 0.500000 0.702772 0.688915
Si Si5 0.328899 0.862949 0.679168
Si Si6 0.000000 0.306573 0.190776
O O1 0.500000 0.500000 0.762084
O O2 0.585320 0.417228 0.756159
O O3 0.500000 0.446578 0.000000
O O4 0.627875 0.377611 0.500000
O O5 0.582761 0.328075 0.736203
O O6 0.736382 0.364556 0.732349
O O7 0.500000 0.950150 0.174731
O O8 0.363640 0.914086 0.303438
O O9 0.361202 0.000000 0.201154
O O10 0.365979 0.934670 0.000000
O O11 0.500000 0.705135 0.500000
O O12 0.500000 0.754433 0.743132
O O13 0.313258 0.850485 0.500000
O O14 0.409811 0.831923 0.741017
O O15 0.000000 0.308575 0.000000
#
# Coordination Sequence:
#
# PCOD9523245 Si02
#       6
#     8  16  16   8  16   8
#     4  10  21  39  63  89 115 144 181 228 278 328
#     4  10  21  37  59  84 112 148 185 227 276 327
#     4   9  18  33  52  73 102 141 181 222 267 317
#     4   8  17  37  59  78 105 141 183 229 281 334
#     4  11  21  34  54  82 114 148 185 228 278 329
#     4   9  19  35  55  80 111 146 183 230 281 329
#
# _framework density 18.805630000000001
#
# number of rings (size 3 to 8) (size 9 to 14) (size 15 to 20)
#    0.000    2.333    1.111    3.000    0.000    3.111 
#    0.000    1.111    0.000   14.667    0.000    0.000 
#    0.000    0.000    0.000    0.000    0.000    0.000 
#
# Total GULP energy -200594.832611 kJ/mol
# GULP energy per Si atom -5572.078684 kJ/mol
# Density = 1.876283 g / cm^3
# Si number density = 18.805630 Si / 1000 Ang^3
#
#
#
# Elastic Constant Matrix: (Units=GPa)
#
#
# Indices 1 2 3 4 5 6 
#
# 1 134.2413 76.1327 27.1797 -0.0010 0.0014 -0.0001
# 2 76.1327 139.0109 28.8408 0.0003 0.0027 0.0002
# 3 27.1797 28.8408 35.3985 -0.0032 0.0096 -0.0001
# 4 -0.0010 0.0003 -0.0032 10.8475 0.0015 0.0002
# 5 0.0014 0.0027 0.0096 0.0015 -6.3553 -0.0002
# 6 -0.0001 0.0002 -0.0001 0.0002 -0.0002 -4.1671
#
#
#
# Elastic Compliance Matrix: (Units=1/GPa)
#
#
# Indices 1 2 3 4 5 6 
#
# 1 0.011346 -0.005303 -0.004391 0.000000 -0.000006 0.000000
# 2 -0.005303 0.011135 -0.005001 -0.000002 -0.000004 0.000001
# 3 -0.004391 -0.005001 0.035696 0.000010 0.000051 -0.000001
# 4 0.000000 -0.000002 0.000010 0.092187 0.000022 0.000005
# 5 -0.000006 -0.000004 0.000051 0.000022 -0.157349 0.000008
# 6 0.000000 0.000001 -0.000001 0.000005 0.000008 -0.239977
#
#
# Mechanical properties :
#
#
# Convention : Reuss Voigt Hill
#
# Bulk Modulus (GPa) = 34.73745 63.66190 49.19967
# Shear Modulus (GPa) = -24.04123 11.83152 -6.10486
#
# Velocity S-wave (km/s) = -3.57936 2.51100 -1.80370
# Velocity P-wave (km/s) = 1.19562 6.50637 4.67774
#
# Compressibility (1/GPa) = 0.02878738
#
# Stress axis : x y z
#
# Youngs Moduli (GPa) = 88.13935 89.80368 28.01443
#
# Poissons Ratio (x) = 0.47620 0.12301
# Poissons Ratio (y) = 0.46738 0.14010
# Poissons Ratio (z) = 0.38703 0.44911
#
# Static dielectric constant tensor:
#      x y z
#    x 1.956310 0.000000 0.000000 
#    y 0.000000 1.648490 0.000000 
#    z 0.000000 0.000000 1.672140 
# 
# From -- ./inp_files/6175.got.cif
#   From: 2010.05.17/outbox.cif.g08.bks.cpg/sg71_4_cif.got.tgz:6175.got - 2010.06.03 16:22:01.
