data_PCOD9523565
_publ_section_title
;
Structure prediction by ZEFSAII (Michael W. Deem and Ramdas Pophale) SiO2 
 PCOD9523565
Probable space group: I M M M
;
_chemical_formula_sum "Si O2"
_cell_formula_units_Z 104
_cell_length_a 22.601487
_cell_length_b 27.985633
_cell_length_c 8.435117
_cell_angle_alpha 90.000000
_cell_angle_beta 90.000000
_cell_angle_gamma 90.000000
_cell_volume 5335.354228
_symmetry_space_group_name_H-M "I M M M"
_symmetry_group_IT_number 71
_symmetry_cell_setting 'orthorhombic'
loop_
_space_group_symop_operation_xyz
x,y,z
-x,-y,z
x,-y,-z
-x,y,-z
-x,-y,-z
x,y,-z
-x,y,z
x,-y,z
1/2+x,1/2+y,1/2+z
1/2-x,1/2-y,1/2+z
1/2+x,1/2-y,1/2-z
1/2-x,1/2+y,1/2-z
1/2-x,1/2-y,1/2-z
1/2+x,1/2+y,1/2-z
1/2-x,1/2+y,1/2+z
1/2+x,1/2-y,1/2+z
loop_
_atom_site_type_symbol
_atom_site_label
_atom_site_fract_x
_atom_site_fract_y
_atom_site_fract_z
Si Si1 0.430597 0.500000 0.310324
Si Si2 0.000000 0.794563 0.190333
Si Si3 0.500000 0.815693 0.193632
Si Si4 0.310276 0.229116 0.683325
Si Si5 0.297076 0.946837 0.690873
Si Si6 0.624347 0.860990 0.186476
Si Si7 0.836503 0.922854 0.690820
Si Si8 0.623631 0.317103 0.187287
O O1 0.500000 0.500000 0.253681
O O2 0.432973 0.500000 0.500000
O O3 0.390430 0.454705 0.256586
O O4 0.000000 0.738170 0.238191
O O5 0.944447 0.820249 0.269411
O O6 0.000000 0.798462 0.000000
O O7 0.559275 0.844110 0.243821
O O8 0.500000 0.811472 0.000000
O O9 0.304571 0.215841 0.500000
O O10 0.250000 0.250000 0.750000
O O11 0.332929 0.183616 0.778206
O O12 0.354799 0.272668 0.709460
O O13 0.294416 0.945899 0.500000
O O14 0.344112 0.907165 0.741570
O O15 0.229325 0.937582 0.746612
O O16 0.314685 0.000000 0.742817
O O17 0.619000 0.868633 0.000000
O O18 0.838037 0.928691 0.500000
O O19 0.844981 0.866861 0.725723
O O20 0.632436 0.306663 0.000000
#
# Coordination Sequence:
#
# PCOD9523565 Si02
#       8
#     8   8   8  16  16  16  16  16
#     4  11  25  41  59  89 125 160 203 264 321 369
#     4  12  24  38  60  88 124 170 210 253 309 377
#     4  10  22  42  65  89 127 172 214 260 318 387
#     4  12  24  39  60  90 125 162 205 251 309 376
#     4  10  21  41  67  94 125 162 210 269 326 382
#     4  11  23  40  65  94 126 167 212 263 324 388
#     4  10  22  42  66  89 118 165 213 255 312 379
#     4  11  23  39  61  90 123 160 204 254 304 364
#
# _framework density 19.492615000000001
#
# number of rings (size 3 to 8) (size 9 to 14) (size 15 to 20)
#    0.000    1.154    2.308    4.154    1.077    4.615 
#    0.000    0.385    0.000    2.308    0.000    0.000 
#    0.000    0.000    0.000    0.000    0.000    0.000 
#
# Total GULP energy -290506.861237 kJ/mol
# GULP energy per Si atom -5586.670408 kJ/mol
# Density = 1.944825 g / cm^3
# Si number density = 19.492615 Si / 1000 Ang^3
#
#
#
# Elastic Constant Matrix: (Units=GPa)
#
#
# Indices 1 2 3 4 5 6 
#
# 1 81.4997 29.9280 1.5654 0.0000 0.0000 0.0000
# 2 29.9280 114.0892 12.4117 0.0000 0.0000 0.0000
# 3 1.5654 12.4117 19.7855 0.0000 0.0000 0.0000
# 4 0.0000 0.0000 0.0000 70.4501 0.0000 0.0000
# 5 0.0000 0.0000 0.0000 0.0000 28.5567 0.0000
# 6 0.0000 0.0000 0.0000 0.0000 0.0000 39.5715
#
#
#
# Elastic Compliance Matrix: (Units=1/GPa)
#
#
# Indices 1 2 3 4 5 6 
#
# 1 0.013607 -0.003705 0.001248 0.000000 0.000000 0.000000
# 2 -0.003705 0.010416 -0.006241 0.000000 0.000000 0.000000
# 3 0.001248 -0.006241 0.054358 0.000000 0.000000 0.000000
# 4 0.000000 0.000000 0.000000 0.014194 0.000000 0.000000
# 5 0.000000 0.000000 0.000000 0.000000 0.035018 0.000000
# 6 0.000000 0.000000 0.000000 0.000000 0.000000 0.025271
#
#
# Mechanical properties :
#
#
# Convention : Reuss Voigt Hill
#
# Bulk Modulus (GPa) = 16.39767 33.68717 25.04242
# Shear Modulus (GPa) = 26.23452 39.14696 32.69074
#
# Velocity S-wave (km/s) = 3.67259 4.48626 4.09966
# Velocity P-wave (km/s) = 5.13949 6.64492 5.94009
#
# Compressibility (1/GPa) = 0.06098428
#
# Stress axis : x y z
#
# Youngs Moduli (GPa) = 73.49392 96.00685 18.39646
#
# Poissons Ratio (x) = 0.35571 -0.02295
# Poissons Ratio (y) = 0.27230 0.11481
# Poissons Ratio (z) = -0.09170 0.59917
#
# Static dielectric constant tensor:
#      x y z
#    x 1.453260 0.000000 0.000000 
#    y 0.000000 1.560160 0.000000 
#    z 0.000000 0.000000 1.677430 
# 
# From -- ./inp_files/11232.got.cif
#   From: 2010.05.17/outbox.cif.g08.bks.cpg/sg71_6_cif.got.tgz:11232.got - 2010.06.03 16:22:01.
