data_PCOD9523948
_publ_section_title
;
Structure prediction by ZEFSAII (Michael W. Deem and Ramdas Pophale) SiO2 
 PCOD9523948
Probable space group: I M M M
;
_chemical_formula_sum "Si O2"
_cell_formula_units_Z 104
_cell_length_a 29.700936
_cell_length_b 7.474633
_cell_length_c 21.767303
_cell_angle_alpha 90.000000
_cell_angle_beta 90.000000
_cell_angle_gamma 90.000000
_cell_volume 4832.419549
_symmetry_space_group_name_H-M "I M M M"
_symmetry_group_IT_number 71
_symmetry_cell_setting 'orthorhombic'
loop_
_space_group_symop_operation_xyz
x,y,z
-x,-y,z
x,-y,-z
-x,y,-z
-x,-y,-z
x,y,-z
-x,y,z
x,-y,z
1/2+x,1/2+y,1/2+z
1/2-x,1/2-y,1/2+z
1/2+x,1/2-y,1/2-z
1/2-x,1/2+y,1/2-z
1/2-x,1/2-y,1/2-z
1/2+x,1/2+y,1/2-z
1/2-x,1/2+y,1/2+z
1/2+x,1/2-y,1/2+z
loop_
_atom_site_type_symbol
_atom_site_label
_atom_site_fract_x
_atom_site_fract_y
_atom_site_fract_z
Si Si1 0.781941 0.789595 0.193302
Si Si2 0.096974 0.216049 0.933031
Si Si3 0.376236 0.294577 0.073996
Si Si4 0.225258 0.213061 0.429401
Si Si5 0.500000 0.700704 0.574215
Si Si6 0.121923 0.212879 0.196523
Si Si7 0.051289 0.500000 0.238844
Si Si8 0.947752 0.500000 0.385468
O O1 0.750000 0.750000 0.250000
O O2 0.759976 0.741082 0.127043
O O3 0.830018 0.719200 0.218294
O O4 0.789905 0.000000 0.187569
O O5 0.128468 0.247212 0.876558
O O6 0.047781 0.287654 0.913991
O O7 0.091689 0.000000 0.937442
O O8 0.110309 0.281821 0.000000
O O9 0.380889 0.500000 0.096840
O O10 0.325522 0.224855 0.088833
O O11 0.417218 0.170121 0.095236
O O12 0.377278 0.298853 0.000000
O O13 0.236503 0.277980 0.500000
O O14 0.220880 0.000000 0.435076
O O15 0.500000 0.500000 0.601979
O O16 0.500000 0.682722 0.500000
O O17 0.080113 0.327095 0.219301
O O18 0.114145 0.000000 0.206472
O O19 0.049165 0.500000 0.312197
O O20 0.000000 0.500000 0.214620
O O21 0.000000 0.500000 0.409073
#
# Coordination Sequence:
#
# PCOD9523948 Si02
#       8
#    16  16  16  16   8  16   8   8
#     4  11  25  40  63  97 128 170 220 273 332 389
#     4   8  14  28  53  82 113 148 191 248 311 371
#     4   9  20  39  65  98 132 169 213 260 319 393
#     4   9  20  39  63  94 133 174 215 266 331 399
#     4   7  10  18  40  75 103 133 178 225 283 348
#     4  10  24  43  64  92 124 165 218 269 327 392
#     4  11  28  47  65  91 129 176 223 277 333 385
#     4  11  25  42  63  93 130 173 219 273 331 385
#
# _framework density 21.521308000000001
#
# number of rings (size 3 to 8) (size 9 to 14) (size 15 to 20)
#    0.000    2.538    0.000    2.538    6.462    2.769 
#    0.000    4.231    0.000    0.462    0.000    0.000 
#    0.000    0.000    0.000    0.000    0.000    0.000 
#
# Total GULP energy -289619.996640 kJ/mol
# GULP energy per Si atom -5569.615320 kJ/mol
# Density = 2.147232 g / cm^3
# Si number density = 21.521308 Si / 1000 Ang^3
#
#
#
# Elastic Constant Matrix: (Units=GPa)
#
#
# Indices 1 2 3 4 5 6 
#
# 1 148.6702 47.7415 35.6855 0.0000 0.0000 0.0000
# 2 47.7415 99.8765 13.0956 0.0000 0.0000 0.0000
# 3 35.6855 13.0956 59.2567 0.0000 0.0000 0.0000
# 4 0.0000 0.0000 0.0000 26.1918 0.0000 0.0000
# 5 0.0000 0.0000 0.0000 0.0000 36.3613 0.0000
# 6 0.0000 0.0000 0.0000 0.0000 0.0000 30.0605
#
#
#
# Elastic Compliance Matrix: (Units=1/GPa)
#
#
# Indices 1 2 3 4 5 6 
#
# 1 0.009025 -0.003709 -0.004615 0.000000 0.000000 0.000000
# 2 -0.003709 0.011835 -0.000382 0.000000 0.000000 0.000000
# 3 -0.004615 -0.000382 0.019740 0.000000 0.000000 0.000000
# 4 0.000000 0.000000 0.000000 0.038180 0.000000 0.000000
# 5 0.000000 0.000000 0.000000 0.000000 0.027502 0.000000
# 6 0.000000 0.000000 0.000000 0.000000 0.000000 0.033266
#
#
# Mechanical properties :
#
#
# Convention : Reuss Voigt Hill
#
# Bulk Modulus (GPa) = 43.12686 55.64986 49.38836
# Shear Modulus (GPa) = 30.36006 32.60809 31.48408
#
# Velocity S-wave (km/s) = 3.76000 3.89672 3.82897
# Velocity P-wave (km/s) = 6.23961 6.79412 6.52276
#
# Compressibility (1/GPa) = 0.02318741
#
# Stress axis : x y z
#
# Youngs Moduli (GPa) = 110.80120 84.49276 50.65939
#
# Poissons Ratio (x) = 0.31338 0.23382
# Poissons Ratio (y) = 0.41095 0.01935
# Poissons Ratio (z) = 0.51140 0.03228
#
# Static dielectric constant tensor:
#      x y z
#    x 1.938260 0.000000 0.000000 
#    y 0.000000 1.932230 0.000000 
#    z 0.000000 0.000000 1.781740 
# 
# From -- ./inp_files/56295.got.cif
#   From: 2010.05.17/outbox.cif.g08.bks.cpg/sg71_29_cif.got.tgz:56295.got - 2010.06.03 16:22:01.
