data_PCOD9523142
_publ_section_title
;
Structure prediction by ZEFSAII (Michael W. Deem and Ramdas Pophale) SiO2 
 PCOD9523142
Probable space group: I M M M
;
_chemical_formula_sum "Si O2"
_cell_formula_units_Z 88
_cell_length_a 17.314527
_cell_length_b 7.469527
_cell_length_c 29.664795
_cell_angle_alpha 90.000000
_cell_angle_beta 90.000000
_cell_angle_gamma 90.000000
_cell_volume 3836.587300
_symmetry_space_group_name_H-M "I M M M"
_symmetry_group_IT_number 71
_symmetry_cell_setting 'orthorhombic'
loop_
_space_group_symop_operation_xyz
x,y,z
-x,-y,z
x,-y,-z
-x,y,-z
-x,-y,-z
x,y,-z
-x,y,z
x,-y,z
1/2+x,1/2+y,1/2+z
1/2-x,1/2-y,1/2+z
1/2+x,1/2-y,1/2-z
1/2-x,1/2+y,1/2-z
1/2-x,1/2-y,1/2-z
1/2+x,1/2+y,1/2-z
1/2-x,1/2+y,1/2+z
1/2+x,1/2-y,1/2+z
loop_
_atom_site_type_symbol
_atom_site_label
_atom_site_fract_x
_atom_site_fract_y
_atom_site_fract_z
Si Si1 0.818005 0.219420 0.051609
Si Si2 0.159192 0.281847 0.402168
Si Si3 0.085915 0.788625 0.135730
Si Si4 0.832162 0.711560 0.773207
Si Si5 0.000000 0.281725 0.551753
Si Si6 0.913660 0.281494 0.686678
O O1 0.734547 0.276380 0.071029
O O2 0.879980 0.281617 0.088654
O O3 0.818299 0.000000 0.051214
O O4 0.829956 0.276397 0.000000
O O5 0.161059 0.500000 0.402643
O O6 0.149788 0.225789 0.350109
O O7 0.079481 0.224366 0.425371
O O8 0.146590 0.771528 0.176712
O O9 0.000000 0.717297 0.146906
O O10 0.078248 0.000000 0.129097
O O11 0.839858 0.500000 0.774967
O O12 0.750000 0.750000 0.750000
O O13 0.893550 0.781867 0.736549
O O14 0.000000 0.500000 0.554126
O O15 0.000000 0.229014 0.500000
O O16 0.913037 0.500000 0.686858
O O17 0.000000 0.227734 0.673170
#
# Coordination Sequence:
#
# PCOD9523142 Si02
#       6
#    16  16  16  16   8  16
#     4   9  17  29  47  72 103 142 186 233 286 340
#     4   9  14  22  36  59  94 132 172 214 261 318
#     4  10  21  37  56  80 111 146 188 236 285 340
#     4  11  22  36  56  81 110 144 184 227 279 339
#     4   9  14  18  28  50  84 126 165 203 252 309
#     4   9  16  27  44  68  99 137 174 208 253 315
#
# _framework density 22.937051
#
# number of rings (size 3 to 8) (size 9 to 14) (size 15 to 20)
#    0.000    2.455    0.909    2.727    0.000    6.545 
#    0.000    1.818    0.000    0.545    0.000    1.273 
#    0.000    0.000    0.000    1.636    0.000    1.818 
#
# Total GULP energy -245690.546263 kJ/mol
# GULP energy per Si atom -5583.876051 kJ/mol
# Density = 2.288485 g / cm^3
# Si number density = 22.937051 Si / 1000 Ang^3
#
#
#
# Elastic Constant Matrix: (Units=GPa)
#
#
# Indices 1 2 3 4 5 6 
#
# 1 120.7623 2.3325 67.1991 0.0000 0.0000 0.0000
# 2 2.3325 65.5890 4.4929 0.0000 0.0000 0.0000
# 3 67.1991 4.4929 192.0288 0.0000 0.0000 0.0000
# 4 0.0000 0.0000 0.0000 3.3465 0.0000 0.0000
# 5 0.0000 0.0000 0.0000 0.0000 37.1696 0.0000
# 6 0.0000 0.0000 0.0000 0.0000 0.0000 -3.6179
#
#
#
# Elastic Compliance Matrix: (Units=1/GPa)
#
#
# Indices 1 2 3 4 5 6 
#
# 1 0.010284 -0.000119 -0.003596 0.000000 0.000000 0.000000
# 2 -0.000119 0.015272 -0.000316 0.000000 0.000000 0.000000
# 3 -0.003596 -0.000316 0.006473 0.000000 0.000000 0.000000
# 4 0.000000 0.000000 0.000000 0.298823 0.000000 0.000000
# 5 0.000000 0.000000 0.000000 0.000000 0.026904 0.000000
# 6 0.000000 0.000000 0.000000 0.000000 0.000000 -0.276401
#
#
# Mechanical properties :
#
#
# Convention : Reuss Voigt Hill
#
# Bulk Modulus (GPa) = 41.72268 58.49211 50.10739
# Shear Modulus (GPa) = 51.33090 27.67000 39.50045
#
# Velocity S-wave (km/s) = 4.73578 3.47702 4.15435
# Velocity P-wave (km/s) = 6.93780 6.45570 6.70108
#
# Compressibility (1/GPa) = 0.02396778
#
# Stress axis : x y z
#
# Youngs Moduli (GPa) = 97.23761 65.47795 154.47966
#
# Poissons Ratio (x) = 0.00782 0.55552
# Poissons Ratio (y) = 0.01161 0.04874
# Poissons Ratio (z) = 0.34967 0.02066
#
# Static dielectric constant tensor:
#      x y z
#    x 1.824560 0.000000 0.000000 
#    y 0.000000 1.927610 0.000000 
#    z 0.000000 0.000000 1.833490 
# 
# From -- ./inp_files/70352.got.cif
#   From: 2010.05.17/outbox.cif.g08.bks.cpg/sg71_36_cif.got.tgz:70352.got - 2010.06.03 16:22:01.
