data_PCOD9523267
_publ_section_title
;
Structure prediction by ZEFSAII (Michael W. Deem and Ramdas Pophale) SiO2 
 PCOD9523267
Probable space group: I M M M
;
_chemical_formula_sum "Si O2"
_cell_formula_units_Z 104
_cell_length_a 25.566335
_cell_length_b 20.996529
_cell_length_c 8.211177
_cell_angle_alpha 90.000000
_cell_angle_beta 90.000000
_cell_angle_gamma 90.000000
_cell_volume 4407.795074
_symmetry_space_group_name_H-M "I M M M"
_symmetry_group_IT_number 71
_symmetry_cell_setting 'orthorhombic'
loop_
_space_group_symop_operation_xyz
x,y,z
-x,-y,z
x,-y,-z
-x,y,-z
-x,-y,-z
x,y,-z
-x,y,z
x,-y,z
1/2+x,1/2+y,1/2+z
1/2-x,1/2-y,1/2+z
1/2+x,1/2-y,1/2-z
1/2-x,1/2+y,1/2-z
1/2-x,1/2-y,1/2-z
1/2+x,1/2+y,1/2-z
1/2-x,1/2+y,1/2+z
1/2+x,1/2-y,1/2+z
loop_
_atom_site_type_symbol
_atom_site_label
_atom_site_fract_x
_atom_site_fract_y
_atom_site_fract_z
Si Si1 0.443641 0.889149 0.812720
Si Si2 0.937486 0.133953 0.314887
Si Si3 0.330140 0.924186 0.679205
Si Si4 0.217639 0.073187 0.190667
Si Si5 0.301557 0.286661 0.303484
Si Si6 0.909586 0.265000 0.186876
Si Si7 0.440011 0.500000 0.800592
O O1 0.500000 0.911225 0.743635
O O2 0.388679 0.907173 0.732479
O O3 0.441862 0.812729 0.797142
O O4 0.441740 0.909436 0.000000
O O5 0.919240 0.147162 0.500000
O O6 0.928578 0.193008 0.200525
O O7 0.914764 0.066699 0.253050
O O8 0.000000 0.124371 0.326328
O O9 0.319348 0.896107 0.500000
O O10 0.280076 0.911531 0.791683
O O11 0.330758 0.000000 0.667097
O O12 0.193451 0.139817 0.258432
O O13 0.209032 0.000000 0.258526
O O14 0.204513 0.069569 0.000000
O O15 0.302835 0.290668 0.500000
O O16 0.250000 0.250000 0.250000
O O17 0.349956 0.241697 0.255580
O O18 0.913291 0.286702 0.000000
O O19 0.500000 0.500000 0.740024
O O20 0.441402 0.500000 0.000000
#
# Coordination Sequence:
#
# PCOD9523267 Si02
#       7
#    16  16  16  16  16  16   8
#     4  11  24  40  58  81 110 148 194 236 272 323
#     4   9  17  32  54  77 103 139 183 225 265 316
#     4  10  21  37  59  88 119 147 177 221 280 339
#     4   9  18  36  61  84 110 149 194 234 275 332
#     4  10  22  38  56  81 109 142 184 229 280 334
#     4  11  23  37  53  80 113 143 178 226 286 337
#     4   7  12  26  49  73  97 131 175 219 257 297
#
# _framework density 23.594563999999998
#
# number of rings (size 3 to 8) (size 9 to 14) (size 15 to 20)
#    0.000    2.231    0.000    3.692    0.000    8.923 
#    1.385    1.923    0.000    1.385    0.000    0.000 
#    0.000    0.000    0.000    0.000    0.000    0.000 
#
# Total GULP energy -290102.074139 kJ/mol
# GULP energy per Si atom -5578.886041 kJ/mol
# Density = 2.354086 g / cm^3
# Si number density = 23.594564 Si / 1000 Ang^3
#
#
#
# Elastic Constant Matrix: (Units=GPa)
#
#
# Indices 1 2 3 4 5 6 
#
# 1 65.0114 -6.4509 1.7991 0.0000 0.0000 0.0000
# 2 -6.4509 55.7290 -0.7331 0.0000 0.0000 0.0000
# 3 1.7991 -0.7331 27.2550 0.0000 0.0000 0.0000
# 4 0.0000 0.0000 0.0000 23.5111 0.0000 0.0000
# 5 0.0000 0.0000 0.0000 0.0000 9.3090 0.0000
# 6 0.0000 0.0000 0.0000 0.0000 0.0000 10.8144
#
#
#
# Elastic Compliance Matrix: (Units=1/GPa)
#
#
# Indices 1 2 3 4 5 6 
#
# 1 0.015587 0.001791 -0.000981 0.000000 0.000000 0.000000
# 2 0.001791 0.018156 0.000370 0.000000 0.000000 0.000000
# 3 -0.000981 0.000370 0.036765 0.000000 0.000000 0.000000
# 4 0.000000 0.000000 0.000000 0.042533 0.000000 0.000000
# 5 0.000000 0.000000 0.000000 0.000000 0.107423 0.000000
# 6 0.000000 0.000000 0.000000 0.000000 0.000000 0.092469
#
#
# Mechanical properties :
#
#
# Convention : Reuss Voigt Hill
#
# Bulk Modulus (GPa) = 13.72313 15.24730 14.48522
# Shear Modulus (GPa) = 14.93154 18.95226 16.94190
#
# Velocity S-wave (km/s) = 2.51836 2.83724 2.68254
# Velocity P-wave (km/s) = 3.77955 4.14843 3.96828
#
# Compressibility (1/GPa) = 0.07286967
#
# Stress axis : x y z
#
# Youngs Moduli (GPa) = 64.15685 55.07761 27.19964
#
# Poissons Ratio (x) = -0.09866 0.02667
# Poissons Ratio (y) = -0.11493 -0.01007
# Poissons Ratio (z) = 0.06292 -0.02038
#
# Static dielectric constant tensor:
#      x y z
#    x 1.990020 0.000000 0.000000 
#    y 0.000000 1.968240 0.000000 
#    z 0.000000 0.000000 1.871130 
# 
# From -- ./inp_files/15058.got.cif
#   From: 2010.05.17/outbox.cif.g08.bks.cpg/sg71_8_cif.got.tgz:15058.got - 2010.06.03 16:22:01.
