data_PCOD9523913
_publ_section_title
;
Structure prediction by ZEFSAII (Michael W. Deem and Ramdas Pophale) SiO2 
 PCOD9523913
Probable space group: I M M M
;
_chemical_formula_sum "Si O2"
_cell_formula_units_Z 100
_cell_length_a 13.793937
_cell_length_b 16.804561
_cell_length_c 21.536842
_cell_angle_alpha 90.000000
_cell_angle_beta 90.000000
_cell_angle_gamma 90.000000
_cell_volume 4992.262713
_symmetry_space_group_name_H-M "I M M M"
_symmetry_group_IT_number 71
_symmetry_cell_setting 'orthorhombic'
loop_
_space_group_symop_operation_xyz
x,y,z
-x,-y,z
x,-y,-z
-x,y,-z
-x,-y,-z
x,y,-z
-x,y,z
x,-y,z
1/2+x,1/2+y,1/2+z
1/2-x,1/2-y,1/2+z
1/2+x,1/2-y,1/2-z
1/2-x,1/2+y,1/2-z
1/2-x,1/2-y,1/2-z
1/2+x,1/2+y,1/2-z
1/2-x,1/2+y,1/2+z
1/2+x,1/2-y,1/2+z
loop_
_atom_site_type_symbol
_atom_site_label
_atom_site_fract_x
_atom_site_fract_y
_atom_site_fract_z
Si Si1 0.393770 0.364685 0.073515
Si Si2 0.358078 0.500000 0.500000
Si Si3 0.266088 0.088900 0.661716
Si Si4 0.389991 0.403762 0.739481
Si Si5 0.384453 0.191106 0.569659
Si Si6 0.390303 0.175140 0.925285
Si Si7 0.817145 0.133233 0.897273
O O1 0.500000 0.389121 0.095561
O O2 0.312555 0.413558 0.106846
O O3 0.381671 0.270063 0.086344
O O4 0.390436 0.373791 0.000000
O O5 0.354734 0.568963 0.445865
O O6 0.199585 0.124252 0.717193
O O7 0.348434 0.140893 0.628923
O O8 0.299570 0.000000 0.678215
O O9 0.500000 0.376148 0.755172
O O10 0.390135 0.500000 0.744894
O O11 0.365264 0.380408 0.669239
O O12 0.354077 0.161713 0.500000
O O13 0.500000 0.194170 0.570007
O O14 0.342437 0.279255 0.577916
O O15 0.500000 0.151023 0.907449
O O16 0.300481 0.130016 0.894600
O O17 0.381747 0.163907 0.000000
#
# Coordination Sequence:
#
# PCOD9523913 Si02
#       7
#    16   4  16  16  16  16  16
#     4   9  17  31  55  87 119 153 197 253 313 366
#     4  12  24  36  74 104 126 168 212 264 326 384
#     4  11  23  40  62  87 121 170 213 258 310 378
#     4  10  23  42  63  91 130 170 211 264 325 382
#     4  11  24  42  65  94 130 168 208 267 327 380
#     4   9  17  32  57  86 123 164 197 243 309 372
#     4  12  21  42  64  97 131 166 212 265 323 389
#
# _framework density 20.030998
#
# number of rings (size 3 to 8) (size 9 to 14) (size 15 to 20)
#    0.000    1.600    4.000    2.400    0.000    3.200 
#    0.000    4.800    0.000    0.960    0.000    0.000 
#    0.000    0.000    0.000    0.000    0.000    0.000 
#
# Total GULP energy -278464.917172 kJ/mol
# GULP energy per Si atom -5569.298343 kJ/mol
# Density = 1.998541 g / cm^3
# Si number density = 20.030998 Si / 1000 Ang^3
#
#
#
# Elastic Constant Matrix: (Units=GPa)
#
#
# Indices 1 2 3 4 5 6 
#
# 1 93.1095 13.8721 32.6768 0.0000 0.0000 0.0000
# 2 13.8721 32.5002 16.0219 0.0000 0.0000 0.0000
# 3 32.6768 16.0219 102.4937 0.0000 0.0000 0.0000
# 4 0.0000 0.0000 0.0000 23.7620 0.0000 0.0000
# 5 0.0000 0.0000 0.0000 0.0000 41.5211 0.0000
# 6 0.0000 0.0000 0.0000 0.0000 0.0000 1.4654
#
#
#
# Elastic Compliance Matrix: (Units=1/GPa)
#
#
# Indices 1 2 3 4 5 6 
#
# 1 0.012480 -0.003646 -0.003409 0.000000 0.000000 0.000000
# 2 -0.003646 0.034404 -0.004216 0.000000 0.000000 0.000000
# 3 -0.003409 -0.004216 0.011502 0.000000 0.000000 0.000000
# 4 0.000000 0.000000 0.000000 0.042084 0.000000 0.000000
# 5 0.000000 0.000000 0.000000 0.000000 0.024084 0.000000
# 6 0.000000 0.000000 0.000000 0.000000 0.000000 0.682430
#
#
# Mechanical properties :
#
#
# Convention : Reuss Voigt Hill
#
# Bulk Modulus (GPa) = 27.89821 39.24945 33.57383
# Shear Modulus (GPa) = 5.94196 24.38518 15.16357
#
# Velocity S-wave (km/s) = 1.72419 3.49287 2.75436
# Velocity P-wave (km/s) = 4.23338 5.99197 5.18774
#
# Compressibility (1/GPa) = 0.03584460
#
# Stress axis : x y z
#
# Youngs Moduli (GPa) = 80.13085 29.06677 86.93810
#
# Poissons Ratio (x) = 0.10598 0.29635
# Poissons Ratio (y) = 0.29218 0.36649
# Poissons Ratio (z) = 0.27314 0.12253
#
# Static dielectric constant tensor:
#      x y z
#    x 1.744790 0.000000 0.000000 
#    y 0.000000 1.737580 0.000000 
#    z 0.000000 0.000000 1.707130 
# 
# From -- ./inp_files/53210.got.cif
#   From: 2010.05.17/outbox.cif.g08.bks.cpg/sg71_27_cif.got.tgz:53210.got - 2010.06.03 16:22:01.
