data_PCOD9523330
_publ_section_title
;
Structure prediction by ZEFSAII (Michael W. Deem and Ramdas Pophale) SiO2 
 PCOD9523330
Probable space group: I M M M
;
_chemical_formula_sum "Si O2"
_cell_formula_units_Z 88
_cell_length_a 17.268897
_cell_length_b 19.562023
_cell_length_c 14.027576
_cell_angle_alpha 90.000000
_cell_angle_beta 90.000000
_cell_angle_gamma 90.000000
_cell_volume 4738.719418
_symmetry_space_group_name_H-M "I M M M"
_symmetry_group_IT_number 71
_symmetry_cell_setting 'orthorhombic'
loop_
_space_group_symop_operation_xyz
x,y,z
-x,-y,z
x,-y,-z
-x,y,-z
-x,-y,-z
x,y,-z
-x,y,z
x,-y,z
1/2+x,1/2+y,1/2+z
1/2-x,1/2-y,1/2+z
1/2+x,1/2-y,1/2-z
1/2-x,1/2+y,1/2-z
1/2-x,1/2-y,1/2-z
1/2+x,1/2+y,1/2-z
1/2-x,1/2+y,1/2+z
1/2+x,1/2-y,1/2+z
loop_
_atom_site_type_symbol
_atom_site_label
_atom_site_fract_x
_atom_site_fract_y
_atom_site_fract_z
Si Si1 0.677037 0.793428 0.214819
Si Si2 0.088509 0.919153 0.217994
Si Si3 0.912619 0.500000 0.114910
Si Si4 0.092605 0.178708 0.393762
Si Si5 0.093656 0.649842 0.890988
Si Si6 0.754776 0.920097 0.887034
O O1 0.750000 0.750000 0.250000
O O2 0.632730 0.748913 0.136310
O O3 0.623870 0.802203 0.308174
O O4 0.704449 0.865415 0.171101
O O5 0.109939 0.876874 0.312412
O O6 0.155079 0.907310 0.140308
O O7 0.000000 0.900603 0.189335
O O8 0.088439 0.000000 0.239203
O O9 0.876670 0.573331 0.135614
O O10 0.000000 0.500000 0.155799
O O11 0.919901 0.500000 0.000000
O O12 0.116841 0.157381 0.500000
O O13 0.000000 0.187489 0.393710
O O14 0.000000 0.647636 0.891248
O O15 0.117676 0.666372 0.000000
O O16 0.737772 0.000000 0.863311
O O17 0.743673 0.911306 0.000000
#
# Coordination Sequence:
#
# PCOD9523330 Si02
#       6
#    16  16   8  16  16  16
#     4  12  23  37  56  82 115 153 190 232 278 339
#     4   9  18  36  61  87 112 144 192 237 278 334
#     4   7  12  28  54  82 107 131 164 213 273 329
#     4  10  21  38  58  81 113 151 188 228 277 333
#     4   9  19  36  59  86 113 141 179 228 280 332
#     4  10  22  40  59  82 115 153 192 235 284 335
#
# _framework density 18.570418
#
# number of rings (size 3 to 8) (size 9 to 14) (size 15 to 20)
#    0.000    2.273    1.818    2.182    1.273    2.182 
#    0.000    3.636    0.000    0.000    0.000    3.818 
#    0.000    0.000    0.000    0.000    0.000    0.000 
#
# Total GULP energy -245245.556091 kJ/mol
# GULP energy per Si atom -5573.762638 kJ/mol
# Density = 1.852815 g / cm^3
# Si number density = 18.570418 Si / 1000 Ang^3
#
#
#
# Elastic Constant Matrix: (Units=GPa)
#
#
# Indices 1 2 3 4 5 6 
#
# 1 21.8447 16.8365 24.5942 0.0000 0.0000 0.0000
# 2 16.8365 36.6078 24.5588 0.0000 0.0000 0.0000
# 3 24.5942 24.5588 77.1234 0.0000 0.0000 0.0000
# 4 0.0000 0.0000 0.0000 32.5903 0.0000 0.0000
# 5 0.0000 0.0000 0.0000 0.0000 24.1618 0.0000
# 6 0.0000 0.0000 0.0000 0.0000 0.0000 28.2242
#
#
#
# Elastic Compliance Matrix: (Units=1/GPa)
#
#
# Indices 1 2 3 4 5 6 
#
# 1 0.089406 -0.027966 -0.019605 0.000000 0.000000 0.000000
# 2 -0.027966 0.043485 -0.004929 0.000000 0.000000 0.000000
# 3 -0.019605 -0.004929 0.020788 0.000000 0.000000 0.000000
# 4 0.000000 0.000000 0.000000 0.030684 0.000000 0.000000
# 5 0.000000 0.000000 0.000000 0.000000 0.041388 0.000000
# 6 0.000000 0.000000 0.000000 0.000000 0.000000 0.035431
#
#
# Mechanical properties :
#
#
# Convention : Reuss Voigt Hill
#
# Bulk Modulus (GPa) = 20.54348 29.72832 25.13590
# Shear Modulus (GPa) = 13.07502 21.63435 17.35469
#
# Velocity S-wave (km/s) = 2.65633 3.41690 3.06033
# Velocity P-wave (km/s) = 4.52709 5.62229 5.10415
#
# Compressibility (1/GPa) = 0.04867723
#
# Stress axis : x y z
#
# Youngs Moduli (GPa) = 11.18498 22.99621 48.10509
#
# Poissons Ratio (x) = 0.64312 0.94312
# Poissons Ratio (y) = 0.31280 0.23711
# Poissons Ratio (z) = 0.21929 0.11335
#
# Static dielectric constant tensor:
#      x y z
#    x 1.640130 0.000000 0.000000 
#    y 0.000000 1.667340 0.000000 
#    z 0.000000 0.000000 1.611380 
# 
# From -- ./inp_files/23975.got.cif
#   From: 2010.05.17/outbox.cif.g08.bks.cpg/sg71_12_cif.got.tgz:23975.got - 2010.06.03 16:22:01.
