data_PCOD9523557
_publ_section_title
;
Structure prediction by ZEFSAII (Michael W. Deem and Ramdas Pophale) SiO2 
 PCOD9523557
Probable space group: I M M M
;
_chemical_formula_sum "Si O2"
_cell_formula_units_Z 44
_cell_length_a 11.783159
_cell_length_b 10.441630
_cell_length_c 20.536291
_cell_angle_alpha 90.000000
_cell_angle_beta 90.000000
_cell_angle_gamma 90.000000
_cell_volume 2526.690501
_symmetry_space_group_name_H-M "I M M M"
_symmetry_group_IT_number 71
_symmetry_cell_setting 'orthorhombic'
loop_
_space_group_symop_operation_xyz
x,y,z
-x,-y,z
x,-y,-z
-x,y,-z
-x,-y,-z
x,y,-z
-x,y,z
x,-y,z
1/2+x,1/2+y,1/2+z
1/2-x,1/2-y,1/2+z
1/2+x,1/2-y,1/2-z
1/2-x,1/2+y,1/2-z
1/2-x,1/2-y,1/2-z
1/2+x,1/2+y,1/2-z
1/2-x,1/2+y,1/2+z
1/2+x,1/2-y,1/2+z
loop_
_atom_site_type_symbol
_atom_site_label
_atom_site_fract_x
_atom_site_fract_y
_atom_site_fract_z
Si Si1 0.000000 0.500000 0.261812
Si Si2 0.131077 0.500000 0.864407
Si Si3 0.128933 0.000000 0.920874
Si Si4 0.742548 0.256337 0.922416
Si Si5 0.500000 0.148584 0.111820
O O1 0.106624 0.500000 0.213013
O O2 0.000000 0.380008 0.310790
O O3 0.200856 0.623338 0.887245
O O4 0.000000 0.500000 0.891756
O O5 0.192620 0.872110 0.900494
O O6 0.000000 0.000000 0.898441
O O7 0.129372 0.000000 0.000000
O O8 0.611137 0.225842 0.908810
O O9 0.757796 0.273214 0.000000
O O10 0.500000 0.000000 0.084300
#
# Coordination Sequence:
#
# PCOD9523557 Si02
#       5
#     4   8   8  16   8
#     4   8  22  44  60  84 118 178 204 242 296 350
#     4  10  23  41  58  90 125 166 200 246 306 367
#     4   9  17  29  50  83 114 152 198 235 290 360
#     4  11  21  35  62  90 123 158 193 258 317 360
#     4  10  21  41  60  88 118 161 206 252 289 357
#
# _framework density 17.414085
#
# number of rings (size 3 to 8) (size 9 to 14) (size 15 to 20)
#    1.091    0.909    1.818    2.182    0.000    5.818 
#    0.000    1.818    0.000    0.000    0.000    0.000 
#    0.000    0.000    0.000    0.000    0.000    0.000 
#
# Total GULP energy -122553.086697 kJ/mol
# GULP energy per Si atom -5570.594850 kJ/mol
# Density = 1.737445 g / cm^3
# Si number density = 17.414085 Si / 1000 Ang^3
#
#
#
# Elastic Constant Matrix: (Units=GPa)
#
#
# Indices 1 2 3 4 5 6 
#
# 1 108.7280 42.1277 -16.2519 0.0000 0.0000 0.0000
# 2 42.1277 123.1503 12.6731 0.0000 0.0000 0.0000
# 3 -16.2519 12.6731 51.2679 0.0000 0.0000 0.0000
# 4 0.0000 0.0000 0.0000 19.7684 0.0000 0.0000
# 5 0.0000 0.0000 0.0000 0.0000 21.8657 0.0000
# 6 0.0000 0.0000 0.0000 0.0000 0.0000 37.5712
#
#
#
# Elastic Compliance Matrix: (Units=1/GPa)
#
#
# Indices 1 2 3 4 5 6 
#
# 1 0.011650 -0.004479 0.004800 0.000000 0.000000 0.000000
# 2 -0.004479 0.010054 -0.003905 0.000000 0.000000 0.000000
# 3 0.004800 -0.003905 0.021992 0.000000 0.000000 0.000000
# 4 0.000000 0.000000 0.000000 0.050586 0.000000 0.000000
# 5 0.000000 0.000000 0.000000 0.000000 0.045734 0.000000
# 6 0.000000 0.000000 0.000000 0.000000 0.000000 0.026616
#
#
# Mechanical properties :
#
#
# Convention : Reuss Voigt Hill
#
# Bulk Modulus (GPa) = 27.37578 40.02710 33.70144
# Shear Modulus (GPa) = 26.88493 32.14754 29.51624
#
# Velocity S-wave (km/s) = 3.93346 4.30125 4.12146
# Velocity P-wave (km/s) = 6.03192 6.90674 6.48410
#
# Compressibility (1/GPa) = 0.03652865
#
# Stress axis : x y z
#
# Youngs Moduli (GPa) = 85.83406 99.45912 45.47009
#
# Poissons Ratio (x) = 0.44552 -0.21828
# Poissons Ratio (y) = 0.38449 0.17758
# Poissons Ratio (z) = -0.41204 0.38842
#
# Static dielectric constant tensor:
#      x y z
#    x 1.607550 0.000000 0.000000 
#    y 0.000000 1.575740 0.000000 
#    z 0.000000 0.000000 1.586340 
# 
# From -- ./inp_files/26738.got.cif
#   From: 2010.05.17/outbox.cif.g08.bks.cpg/sg71_14_cif.got.tgz:26738.got - 2010.06.03 16:22:01.
