data_PCOD9523495
_publ_section_title
;
Structure prediction by ZEFSAII (Michael W. Deem and Ramdas Pophale) SiO2 
 PCOD9523495
Probable space group: I M M M
;
_chemical_formula_sum "Si O2"
_cell_formula_units_Z 104
_cell_length_a 8.839454
_cell_length_b 33.358242
_cell_length_c 19.047955
_cell_angle_alpha 90.000000
_cell_angle_beta 90.000000
_cell_angle_gamma 90.000000
_cell_volume 5616.644694
_symmetry_space_group_name_H-M "I M M M"
_symmetry_group_IT_number 71
_symmetry_cell_setting 'orthorhombic'
loop_
_space_group_symop_operation_xyz
x,y,z
-x,-y,z
x,-y,-z
-x,y,-z
-x,-y,-z
x,y,-z
-x,y,z
x,-y,z
1/2+x,1/2+y,1/2+z
1/2-x,1/2-y,1/2+z
1/2+x,1/2-y,1/2-z
1/2-x,1/2+y,1/2-z
1/2-x,1/2-y,1/2-z
1/2+x,1/2+y,1/2-z
1/2-x,1/2+y,1/2+z
1/2+x,1/2-y,1/2+z
loop_
_atom_site_type_symbol
_atom_site_label
_atom_site_fract_x
_atom_site_fract_y
_atom_site_fract_z
Si Si1 0.826003 0.000000 0.914646
Si Si2 0.817685 0.046440 0.582092
Si Si3 0.180276 0.266331 0.322261
Si Si4 0.675661 0.916755 0.084432
Si Si5 0.818767 0.381139 0.829753
Si Si6 0.319209 0.198935 0.417835
Si Si7 0.820864 0.853597 0.817134
O O1 0.738215 0.960106 0.893109
O O2 0.000000 0.000000 0.890522
O O3 0.828545 0.000000 0.000000
O O4 0.777985 0.053984 0.500000
O O5 0.741478 0.078923 0.632382
O O6 0.000000 0.049677 0.587766
O O7 0.777266 0.000000 0.597975
O O8 0.250000 0.250000 0.250000
O O9 0.233453 0.235909 0.382503
O O10 0.243411 0.310933 0.331265
O O11 0.000000 0.267188 0.317421
O O12 0.500000 0.912010 0.104546
O O13 0.776674 0.883234 0.120293
O O14 0.684875 0.914507 0.000000
O O15 0.782215 0.342412 0.878032
O O16 0.744014 0.372635 0.754579
O O17 0.000000 0.383245 0.822172
O O18 0.284761 0.195439 0.500000
O O19 0.500000 0.205438 0.409876
O O20 0.000000 0.848433 0.810946
#
# Coordination Sequence:
#
# PCOD9523495 Si02
#       7
#     8  16  16  16  16  16  16
#     4   9  17  33  59  89 121 157 196 241 296 357
#     4   9  19  37  60  86 120 162 205 250 301 357
#     4  12  24  41  64  88 118 159 201 244 299 359
#     4  10  21  39  63  91 123 159 202 252 302 357
#     4  11  22  38  61  89 123 160 201 250 302 359
#     4  10  22  40  63  92 124 159 200 248 299 353
#     4  12  25  41  63  89 120 161 202 248 306 363
#
# _framework density 18.516394999999999
#
# number of rings (size 3 to 8) (size 9 to 14) (size 15 to 20)
#    0.000    1.462    1.538    4.846    0.000    4.615 
#    1.385    0.769    0.000    0.000    0.000    0.000 
#    0.000    0.000    0.000    0.000    0.000    0.000 
#
# Total GULP energy -290646.832876 kJ/mol
# GULP energy per Si atom -5589.362171 kJ/mol
# Density = 1.847425 g / cm^3
# Si number density = 18.516395 Si / 1000 Ang^3
#
#
#
# Elastic Constant Matrix: (Units=GPa)
#
#
# Indices 1 2 3 4 5 6 
#
# 1 92.4294 46.9022 39.4422 0.0000 0.0000 0.0000
# 2 46.9022 129.9215 34.5739 0.0000 0.0000 0.0000
# 3 39.4422 34.5739 50.9684 0.0000 0.0000 0.0000
# 4 0.0000 0.0000 0.0000 23.8203 0.0000 0.0000
# 5 0.0000 0.0000 0.0000 0.0000 24.0277 0.0000
# 6 0.0000 0.0000 0.0000 0.0000 0.0000 36.7020
#
#
#
# Elastic Compliance Matrix: (Units=1/GPa)
#
#
# Indices 1 2 3 4 5 6 
#
# 1 0.017213 -0.003257 -0.011111 0.000000 0.000000 0.000000
# 2 -0.003257 0.010009 -0.004269 0.000000 0.000000 0.000000
# 3 -0.011111 -0.004269 0.031114 0.000000 0.000000 0.000000
# 4 0.000000 0.000000 0.000000 0.041981 0.000000 0.000000
# 5 0.000000 0.000000 0.000000 0.000000 0.041619 0.000000
# 6 0.000000 0.000000 0.000000 0.000000 0.000000 0.027246
#
#
# Mechanical properties :
#
#
# Convention : Reuss Voigt Hill
#
# Bulk Modulus (GPa) = 47.47887 57.23955 52.35921
# Shear Modulus (GPa) = 23.42169 27.07006 25.24587
#
# Velocity S-wave (km/s) = 3.56042 3.82769 3.69648
# Velocity P-wave (km/s) = 6.52682 7.10739 6.82328
#
# Compressibility (1/GPa) = 0.02106200
#
# Stress axis : x y z
#
# Youngs Moduli (GPa) = 58.09442 99.91200 32.13977
#
# Poissons Ratio (x) = 0.32544 0.35711
# Poissons Ratio (y) = 0.18923 0.13720
# Poissons Ratio (z) = 0.64550 0.42650
#
# Static dielectric constant tensor:
#      x y z
#    x 1.620930 0.000000 0.000000 
#    y 0.000000 1.611340 0.000000 
#    z 0.000000 0.000000 1.626940 
# 
# From -- ./inp_files/15037.got.cif
#   From: 2010.05.17/outbox.cif.g08.bks.cpg/sg71_8_cif.got.tgz:15037.got - 2010.06.03 16:22:01.
