data_PCOD9523808
_publ_section_title
;
Structure prediction by ZEFSAII (Michael W. Deem and Ramdas Pophale) SiO2 
 PCOD9523808
Probable space group: I M M M
;
_chemical_formula_sum "Si O2"
_cell_formula_units_Z 76
_cell_length_a 20.865900
_cell_length_b 19.377348
_cell_length_c 9.667324
_cell_angle_alpha 90.000000
_cell_angle_beta 90.000000
_cell_angle_gamma 90.000000
_cell_volume 3908.748565
_symmetry_space_group_name_H-M "I M M M"
_symmetry_group_IT_number 71
_symmetry_cell_setting 'orthorhombic'
loop_
_space_group_symop_operation_xyz
x,y,z
-x,-y,z
x,-y,-z
-x,y,-z
-x,-y,-z
x,y,-z
-x,y,z
x,-y,z
1/2+x,1/2+y,1/2+z
1/2-x,1/2-y,1/2+z
1/2+x,1/2-y,1/2-z
1/2-x,1/2+y,1/2-z
1/2-x,1/2-y,1/2-z
1/2+x,1/2+y,1/2-z
1/2-x,1/2+y,1/2+z
1/2+x,1/2-y,1/2+z
loop_
_atom_site_type_symbol
_atom_site_label
_atom_site_fract_x
_atom_site_fract_y
_atom_site_fract_z
Si Si1 0.424749 0.697548 0.837658
Si Si2 0.500000 0.852968 0.500000
Si Si3 0.740290 0.920083 0.344556
Si Si4 0.635560 0.581408 0.662550
Si Si5 0.385552 0.160400 0.725712
Si Si6 0.423029 0.079061 0.000000
O O1 0.500000 0.716241 0.828999
O O2 0.411663 0.628544 0.751669
O O3 0.385364 0.759250 0.767064
O O4 0.408875 0.690299 0.000000
O O5 0.556627 0.852072 0.619696
O O6 0.768140 0.914121 0.500000
O O7 0.794432 0.907622 0.230181
O O8 0.681198 0.868500 0.330982
O O9 0.717885 0.000000 0.329593
O O10 0.634276 0.599200 0.500000
O O11 0.620849 0.500000 0.675930
O O12 0.399424 0.118182 0.865025
O O13 0.500000 0.079813 0.000000
O O14 0.400811 0.000000 0.000000
#
# Coordination Sequence:
#
# PCOD9523808 Si02
#       6
#    16   4  16  16  16   8
#     4  11  24  42  68  93 126 168 211 263 322 391
#     4  12  24  38  63  90 139 178 210 270 320 370
#     4  10  22  41  63  90 128 172 215 263 318 379
#     4  10  24  44  67  96 126 161 211 268 328 392
#     4  12  23  41  61  94 130 171 216 263 318 380
#     4  11  22  38  58  83 124 172 215 260 309 363
#
# _framework density 19.443562
#
# number of rings (size 3 to 8) (size 9 to 14) (size 15 to 20)
#    0.000    1.158    4.211    1.263    2.947    2.947 
#    0.000    4.211    0.000    0.000    0.000    0.000 
#    0.000    0.000    0.000    0.000    0.000    0.000 
#
# Total GULP energy -211795.699142 kJ/mol
# GULP energy per Si atom -5573.571030 kJ/mol
# Density = 1.939931 g / cm^3
# Si number density = 19.443562 Si / 1000 Ang^3
#
#
#
# Elastic Constant Matrix: (Units=GPa)
#
#
# Indices 1 2 3 4 5 6 
#
# 1 25.0989 18.1070 9.7363 0.0000 0.0000 0.0000
# 2 18.1070 63.2901 34.2742 0.0000 0.0000 0.0000
# 3 9.7363 34.2742 134.5462 0.0000 0.0000 0.0000
# 4 0.0000 0.0000 0.0000 -7.8985 0.0000 0.0000
# 5 0.0000 0.0000 0.0000 0.0000 28.0036 0.0000
# 6 0.0000 0.0000 0.0000 0.0000 0.0000 5.6407
#
#
#
# Elastic Compliance Matrix: (Units=1/GPa)
#
#
# Indices 1 2 3 4 5 6 
#
# 1 0.050204 -0.014379 0.000030 0.000000 0.000000 0.000000
# 2 -0.014379 0.022447 -0.004678 0.000000 0.000000 0.000000
# 3 0.000030 -0.004678 0.008622 0.000000 0.000000 0.000000
# 4 0.000000 0.000000 0.000000 -0.126607 0.000000 0.000000
# 5 0.000000 0.000000 0.000000 0.000000 0.035710 0.000000
# 6 0.000000 0.000000 0.000000 0.000000 0.000000 0.177284
#
#
# Mechanical properties :
#
#
# Convention : Reuss Voigt Hill
#
# Bulk Modulus (GPa) = 23.13779 38.57446 30.85613
# Shear Modulus (GPa) = 22.71480 15.87035 19.29257
#
# Velocity S-wave (km/s) = 3.42166 2.86007 3.15339
# Velocity P-wave (km/s) = 5.24749 5.54878 5.40024
#
# Compressibility (1/GPa) = 0.04321934
#
# Stress axis : x y z
#
# Youngs Moduli (GPa) = 19.91854 44.54883 115.98514
#
# Poissons Ratio (x) = 0.64059 -0.00348
# Poissons Ratio (y) = 0.28642 0.54254
# Poissons Ratio (z) = -0.00060 0.20838
#
# Static dielectric constant tensor:
#      x y z
#    x 1.657070 0.000000 0.000000 
#    y 0.000000 1.691850 0.000000 
#    z 0.000000 0.000000 1.664730 
# 
# From -- ./inp_files/14612.got.cif
#   From: 2010.05.17/outbox.cif.g08.bks.cpg/sg71_8_cif.got.tgz:14612.got - 2010.06.03 16:22:01.
