data_PCOD9523586
_publ_section_title
;
Structure prediction by ZEFSAII (Michael W. Deem and Ramdas Pophale) SiO2 
 PCOD9523586
Probable space group: I M M M
;
_chemical_formula_sum "Si O2"
_cell_formula_units_Z 66
_cell_length_a 14.698717
_cell_length_b 9.978648
_cell_length_c 28.035613
_cell_angle_alpha 90.000000
_cell_angle_beta 90.000000
_cell_angle_gamma 90.000000
_cell_volume 4112.076521
_symmetry_space_group_name_H-M "I M M M"
_symmetry_group_IT_number 71
_symmetry_cell_setting 'orthorhombic'
loop_
_space_group_symop_operation_xyz
x,y,z
-x,-y,z
x,-y,-z
-x,y,-z
-x,-y,-z
x,y,-z
-x,y,z
x,-y,z
1/2+x,1/2+y,1/2+z
1/2-x,1/2-y,1/2+z
1/2+x,1/2-y,1/2-z
1/2-x,1/2+y,1/2-z
1/2-x,1/2-y,1/2-z
1/2+x,1/2+y,1/2-z
1/2-x,1/2+y,1/2+z
1/2+x,1/2-y,1/2+z
loop_
_atom_site_type_symbol
_atom_site_label
_atom_site_fract_x
_atom_site_fract_y
_atom_site_fract_z
Si Si1 0.816904 0.745279 0.885182
Si Si2 0.692302 0.500000 0.446958
Si Si3 0.000000 0.000000 0.000000
Si Si4 0.704571 0.661728 0.792583
Si Si5 0.500000 0.660211 0.334426
Si Si6 0.892869 0.500000 0.943071
Si Si7 0.000000 0.161695 0.274419
O O1 0.752333 0.695833 0.842656
O O2 0.910224 0.790563 0.860262
O O3 0.843706 0.628056 0.921289
O O4 0.783131 0.870325 0.916219
O O5 0.734211 0.500000 0.500000
O O6 0.582590 0.500000 0.458998
O O7 0.712436 0.500000 0.782901
O O8 0.750000 0.750000 0.750000
O O9 0.597555 0.698955 0.795957
O O10 0.500000 0.500000 0.333352
O O11 0.500000 0.710225 0.280141
O O12 0.000000 0.500000 0.929542
O O13 0.888838 0.500000 0.000000
O O14 0.000000 0.000000 0.273904
#
# Coordination Sequence:
#
# PCOD9523586 Si02
#       7
#    16   8   2  16   8   8   8
#     4  12  21  35  54  81 114 153 187 231 283 336
#     4  10  22  34  55  79 110 150 193 227 270 343
#     4   8  20  36  52  86 120 142 204 230 256 352
#     4  11  23  38  58  84 114 150 194 233 278 338
#     4  11  19  31  53  81 112 153 194 220 270 341
#     4  11  24  34  49  76 117 150 181 232 296 339
#     4   9  20  37  54  78 111 152 188 225 265 331
#
# _framework density 16.050286
#
# number of rings (size 3 to 8) (size 9 to 14) (size 15 to 20)
#    0.364    0.848    6.061    1.455    1.697    0.000 
#    0.000    1.818    0.000    0.000    0.000    5.091 
#    0.000    0.000    0.000    0.000    0.000    0.000 
#
# Total GULP energy -183736.273114 kJ/mol
# GULP energy per Si atom -5567.765852 kJ/mol
# Density = 1.601376 g / cm^3
# Si number density = 16.050286 Si / 1000 Ang^3
#
#
#
# Elastic Constant Matrix: (Units=GPa)
#
#
# Indices 1 2 3 4 5 6 
#
# 1 95.8603 35.4852 47.2828 0.0000 0.0000 0.0000
# 2 35.4852 113.5319 53.4391 0.0000 0.0000 0.0000
# 3 47.2828 53.4391 108.6041 0.0000 0.0000 0.0000
# 4 0.0000 0.0000 0.0000 34.3902 0.0000 0.0000
# 5 0.0000 0.0000 0.0000 0.0000 16.4062 0.0000
# 6 0.0000 0.0000 0.0000 0.0000 0.0000 -34.6299
#
#
#
# Elastic Compliance Matrix: (Units=1/GPa)
#
#
# Indices 1 2 3 4 5 6 
#
# 1 0.013594 -0.001904 -0.004981 0.000000 0.000000 0.000000
# 2 -0.001904 0.011730 -0.004943 0.000000 0.000000 0.000000
# 3 -0.004981 -0.004943 0.013809 0.000000 0.000000 0.000000
# 4 0.000000 0.000000 0.000000 0.029078 0.000000 0.000000
# 5 0.000000 0.000000 0.000000 0.000000 0.060952 0.000000
# 6 0.000000 0.000000 0.000000 0.000000 0.000000 -0.028877
#
#
# Mechanical properties :
#
#
# Convention : Reuss Voigt Hill
#
# Bulk Modulus (GPa) = 64.61729 65.60116 65.10923
# Shear Modulus (GPa) = 38.72946 15.35258 27.04102
#
# Velocity S-wave (km/s) = 4.91757 3.09614 4.10905
# Velocity P-wave (km/s) = 8.51997 7.33092 7.94772
#
# Compressibility (1/GPa) = 0.01547573
#
# Stress axis : x y z
#
# Youngs Moduli (GPa) = 73.56318 85.25335 72.41892
#
# Poissons Ratio (x) = 0.16233 0.36075
# Poissons Ratio (y) = 0.14007 0.35794
# Poissons Ratio (z) = 0.36645 0.42138
#
# Static dielectric constant tensor:
#      x y z
#    x 1.527660 0.000000 0.000000 
#    y 0.000000 1.559160 0.000000 
#    z 0.000000 0.000000 1.535400 
# 
# From -- ./inp_files/62836.got.cif
#   From: 2010.05.17/outbox.cif.g08.bks.cpg/sg71_32_cif.got.tgz:62836.got - 2010.06.03 16:22:01.
