data_PCOD9523337
_publ_section_title
;
Structure prediction by ZEFSAII (Michael W. Deem and Ramdas Pophale) SiO2 
 PCOD9523337
Probable space group: I M M M
;
_chemical_formula_sum "Si O2"
_cell_formula_units_Z 112
_cell_length_a 14.944385
_cell_length_b 26.617273
_cell_length_c 13.742751
_cell_angle_alpha 90.000000
_cell_angle_beta 90.000000
_cell_angle_gamma 90.000000
_cell_volume 5466.574663
_symmetry_space_group_name_H-M "I M M M"
_symmetry_group_IT_number 71
_symmetry_cell_setting 'orthorhombic'
loop_
_space_group_symop_operation_xyz
x,y,z
-x,-y,z
x,-y,-z
-x,y,-z
-x,-y,-z
x,y,-z
-x,y,z
x,-y,z
1/2+x,1/2+y,1/2+z
1/2-x,1/2-y,1/2+z
1/2+x,1/2-y,1/2-z
1/2-x,1/2+y,1/2-z
1/2-x,1/2-y,1/2-z
1/2+x,1/2+y,1/2-z
1/2-x,1/2+y,1/2+z
1/2+x,1/2-y,1/2+z
loop_
_atom_site_type_symbol
_atom_site_label
_atom_site_fract_x
_atom_site_fract_y
_atom_site_fract_z
Si Si1 0.275431 0.556422 0.616932
Si Si2 0.102164 0.602254 0.717001
Si Si3 0.158859 0.699156 0.389326
Si Si4 0.640106 0.657493 0.390312
Si Si5 0.899595 0.911411 0.384085
Si Si6 0.203497 0.442572 0.115485
Si Si7 0.598318 0.700851 0.811834
O O1 0.269285 0.558236 0.500000
O O2 0.298971 0.500000 0.646266
O O3 0.177515 0.571420 0.657005
O O4 0.348414 0.599231 0.641198
O O5 0.107401 0.659203 0.677807
O O6 0.140142 0.595068 0.825757
O O7 0.000000 0.584365 0.708131
O O8 0.123257 0.700790 0.500000
O O9 0.258579 0.677374 0.394860
O O10 0.161948 0.754387 0.343520
O O11 0.602892 0.660995 0.500000
O O12 0.598064 0.688380 0.302584
O O13 0.903491 0.920428 0.500000
O O14 0.807313 0.937284 0.351186
O O15 0.884983 0.852185 0.364082
O O16 0.000000 0.924512 0.345805
O O17 0.174521 0.500000 0.133612
O O18 0.200687 0.433385 0.000000
O O19 0.500000 0.718604 0.842080
#
# Coordination Sequence:
#
# PCOD9523337 Si02
#       7
#    16  16  16  16  16  16  16
#     4   9  18  33  54  79 106 139 180 225 272 318
#     4  11  22  35  53  78 109 145 183 224 269 318
#     4  10  21  38  59  80 105 140 181 224 271 323
#     4   9  19  35  54  77 106 143 184 222 262 313
#     4   9  18  33  55  83 109 134 174 229 282 327
#     4  10  22  39  57  78 108 147 186 224 268 319
#     4  11  21  33  53  80 110 142 173 214 271 328
#
# _framework density 20.488150000000001
#
# number of rings (size 3 to 8) (size 9 to 14) (size 15 to 20)
#    0.000    2.143    0.000    4.714    0.000    4.571 
#    0.000    5.000    0.000    3.000    0.000    2.000 
#    0.000    0.000    0.000    1.286    0.000    0.286 
#
# Total GULP energy -312345.219479 kJ/mol
# GULP energy per Si atom -5577.593205 kJ/mol
# Density = 2.044152 g / cm^3
# Si number density = 20.488150 Si / 1000 Ang^3
#
#
#
# Elastic Constant Matrix: (Units=GPa)
#
#
# Indices 1 2 3 4 5 6 
#
# 1 59.2788 23.7871 15.2267 0.0000 0.0000 0.0000
# 2 23.7871 71.7497 25.0279 0.0000 0.0000 0.0000
# 3 15.2267 25.0279 85.7107 0.0000 -0.0001 0.0000
# 4 0.0000 0.0000 0.0000 30.5832 0.0000 0.0000
# 5 0.0000 0.0000 -0.0001 0.0000 3.4088 0.0000
# 6 0.0000 0.0000 0.0000 0.0000 0.0000 4.8962
#
#
#
# Elastic Compliance Matrix: (Units=1/GPa)
#
#
# Indices 1 2 3 4 5 6 
#
# 1 0.019697 -0.005912 -0.001773 0.000000 0.000000 0.000000
# 2 -0.005912 0.017292 -0.003999 0.000000 0.000000 0.000000
# 3 -0.001773 -0.003999 0.013150 0.000000 0.000000 0.000000
# 4 0.000000 0.000000 0.000000 0.032698 0.000000 0.000000
# 5 0.000000 0.000000 0.000000 0.000000 0.293360 0.000000
# 6 0.000000 0.000000 0.000000 0.000000 0.000000 0.204240
#
#
# Mechanical properties :
#
#
# Convention : Reuss Voigt Hill
#
# Bulk Modulus (GPa) = 37.35318 38.31364 37.83341
# Shear Modulus (GPa) = 8.16023 17.95746 13.05884
#
# Velocity S-wave (km/s) = 1.99789 2.96375 2.52739
# Velocity P-wave (km/s) = 4.85729 5.51840 5.19837
#
# Compressibility (1/GPa) = 0.02677148
#
# Stress axis : x y z
#
# Youngs Moduli (GPa) = 50.76897 57.82934 76.04611
#
# Poissons Ratio (x) = 0.34187 0.13483
# Poissons Ratio (y) = 0.30013 0.30412
# Poissons Ratio (z) = 0.09001 0.23127
#
# Static dielectric constant tensor:
#      x y z
#    x 1.716380 0.000000 0.000000 
#    y 0.000000 1.724110 0.000000 
#    z 0.000000 0.000000 1.776790 
# 
# From -- ./inp_files/34915.got.cif
#   From: 2010.05.17/outbox.cif.g08.bks.cpg/sg71_18_cif.got.tgz:34915.got - 2010.06.03 16:22:01.
