data_PCOD9523922
_publ_section_title
;
Structure prediction by ZEFSAII (Michael W. Deem and Ramdas Pophale) SiO2 
 PCOD9523922
Probable space group: I M M M
;
_chemical_formula_sum "Si O2"
_cell_formula_units_Z 80
_cell_length_a 19.658952
_cell_length_b 23.800110
_cell_length_c 8.815975
_cell_angle_alpha 90.000000
_cell_angle_beta 90.000000
_cell_angle_gamma 90.000000
_cell_volume 4124.864403
_symmetry_space_group_name_H-M "I M M M"
_symmetry_group_IT_number 71
_symmetry_cell_setting 'orthorhombic'
loop_
_space_group_symop_operation_xyz
x,y,z
-x,-y,z
x,-y,-z
-x,y,-z
-x,-y,-z
x,y,-z
-x,y,z
x,-y,z
1/2+x,1/2+y,1/2+z
1/2-x,1/2-y,1/2+z
1/2+x,1/2-y,1/2-z
1/2-x,1/2+y,1/2-z
1/2-x,1/2-y,1/2-z
1/2+x,1/2+y,1/2-z
1/2-x,1/2+y,1/2+z
1/2+x,1/2-y,1/2+z
loop_
_atom_site_type_symbol
_atom_site_label
_atom_site_fract_x
_atom_site_fract_y
_atom_site_fract_z
Si Si1 0.423673 0.066927 0.168666
Si Si2 0.686756 0.872827 0.674539
Si Si3 0.317326 0.433914 0.317891
Si Si4 0.579513 0.651542 0.183175
Si Si5 0.674746 0.243064 0.181659
O O1 0.500000 0.089166 0.190396
O O2 0.372471 0.082609 0.299934
O O3 0.427604 0.000000 0.162420
O O4 0.398948 0.085454 0.000000
O O5 0.702336 0.860821 0.500000
O O6 0.753945 0.898294 0.752341
O O7 0.656246 0.817823 0.755108
O O8 0.315465 0.431353 0.500000
O O9 0.313522 0.500000 0.273628
O O10 0.384367 0.402574 0.256350
O O11 0.500000 0.656792 0.224608
O O12 0.623827 0.706696 0.226969
O O13 0.583451 0.646835 0.000000
O O14 0.750000 0.250000 0.250000
O O15 0.678073 0.242543 0.000000
#
# Coordination Sequence:
#
# PCOD9523922 Si02
#       5
#    16  16  16  16  16
#     4   9  19  37  59  83 116 159 204 252 307 363
#     4  12  24  37  59  91 125 162 204 254 307 363
#     4  11  24  41  63  91 123 163 210 258 309 367
#     4  10  23  43  66  93 124 160 203 252 309 372
#     4  11  22  39  64  91 121 159 200 247 300 359
#
# _framework density 19.394577000000002
#
# number of rings (size 3 to 8) (size 9 to 14) (size 15 to 20)
#    0.000    1.400    2.000    4.200    0.000    7.200 
#    0.000    5.000    0.000    0.000    0.000    0.000 
#    0.000    0.000    0.000    0.000    0.000    0.000 
#
# Total GULP energy -223282.617803 kJ/mol
# GULP energy per Si atom -5582.065445 kJ/mol
# Density = 1.935043 g / cm^3
# Si number density = 19.394577 Si / 1000 Ang^3
#
#
#
# Elastic Constant Matrix: (Units=GPa)
#
#
# Indices 1 2 3 4 5 6 
#
# 1 93.5167 36.1784 33.8389 0.0000 0.0000 0.0000
# 2 36.1784 105.4865 37.4561 0.0000 0.0000 0.0000
# 3 33.8389 37.4561 62.3119 0.0000 0.0000 0.0000
# 4 0.0000 0.0000 0.0000 32.3944 0.0000 0.0000
# 5 0.0000 0.0000 0.0000 0.0000 27.9010 0.0000
# 6 0.0000 0.0000 0.0000 0.0000 0.0000 31.0865
#
#
#
# Elastic Compliance Matrix: (Units=1/GPa)
#
#
# Indices 1 2 3 4 5 6 
#
# 1 0.013866 -0.002647 -0.005939 0.000000 0.000000 0.000000
# 2 -0.002647 0.012558 -0.006111 0.000000 0.000000 0.000000
# 3 -0.005939 -0.006111 0.022947 0.000000 0.000000 0.000000
# 4 0.000000 0.000000 0.000000 0.030870 0.000000 0.000000
# 5 0.000000 0.000000 0.000000 0.000000 0.035841 0.000000
# 6 0.000000 0.000000 0.000000 0.000000 0.000000 0.032168
#
#
# Mechanical properties :
#
#
# Convention : Reuss Voigt Hill
#
# Bulk Modulus (GPa) = 50.05808 52.91796 51.48802
# Shear Modulus (GPa) = 27.12926 28.53249 27.83087
#
# Velocity S-wave (km/s) = 3.74412 3.83973 3.79223
# Velocity P-wave (km/s) = 6.67515 6.85581 6.76608
#
# Compressibility (1/GPa) = 0.01997679
#
# Stress axis : x y z
#
# Youngs Moduli (GPa) = 72.11717 79.63324 43.57863
#
# Poissons Ratio (x) = 0.21077 0.25882
# Poissons Ratio (y) = 0.19088 0.26631
# Poissons Ratio (z) = 0.42832 0.48664
#
# Static dielectric constant tensor:
#      x y z
#    x 1.692910 0.000000 0.000000 
#    y 0.000000 1.794650 0.000000 
#    z 0.000000 0.000000 1.684740 
# 
# From -- ./inp_files/8337.got.cif
#   From: 2010.05.17/outbox.cif.g08.bks.cpg/sg71_5_cif.got.tgz:8337.got - 2010.06.03 16:22:01.
