data_PCOD9523656
_publ_section_title
;
Structure prediction by ZEFSAII (Michael W. Deem and Ramdas Pophale) SiO2 
 PCOD9523656
Probable space group: I M M M
;
_chemical_formula_sum "Si O2"
_cell_formula_units_Z 88
_cell_length_a 23.243590
_cell_length_b 16.990810
_cell_length_c 12.711530
_cell_angle_alpha 90.000000
_cell_angle_beta 90.000000
_cell_angle_gamma 90.000000
_cell_volume 5020.131765
_symmetry_space_group_name_H-M "I M M M"
_symmetry_group_IT_number 71
_symmetry_cell_setting 'orthorhombic'
loop_
_space_group_symop_operation_xyz
x,y,z
-x,-y,z
x,-y,-z
-x,y,-z
-x,-y,-z
x,y,-z
-x,y,z
x,-y,z
1/2+x,1/2+y,1/2+z
1/2-x,1/2-y,1/2+z
1/2+x,1/2-y,1/2-z
1/2-x,1/2+y,1/2-z
1/2-x,1/2-y,1/2-z
1/2+x,1/2+y,1/2-z
1/2-x,1/2+y,1/2+z
1/2+x,1/2-y,1/2+z
loop_
_atom_site_type_symbol
_atom_site_label
_atom_site_fract_x
_atom_site_fract_y
_atom_site_fract_z
Si Si1 0.434261 0.408517 0.626732
Si Si2 0.417079 0.000000 0.623972
Si Si3 0.220503 0.500000 0.877599
Si Si4 0.065212 0.350552 0.729001
Si Si5 0.257238 0.672690 0.123060
Si Si6 0.069920 0.410595 0.500000
Si Si7 0.654659 0.278581 0.704444
O O1 0.434708 0.406217 0.500000
O O2 0.500000 0.385000 0.660599
O O3 0.425919 0.500000 0.658736
O O4 0.381724 0.353179 0.662893
O O5 0.348147 0.000000 0.624929
O O6 0.435647 0.924746 0.692043
O O7 0.434519 0.000000 0.500000
O O8 0.240401 0.415026 0.834967
O O9 0.238310 0.500000 0.000000
O O10 0.086255 0.372885 0.611424
O O11 0.106883 0.286947 0.776867
O O12 0.000000 0.321191 0.719036
O O13 0.311964 0.699906 0.188991
O O14 0.204904 0.735203 0.137266
O O15 0.269729 0.667484 0.000000
O O16 0.090945 0.500000 0.500000
O O17 0.000000 0.412497 0.500000
#
# Coordination Sequence:
#
# PCOD9523656 Si02
#       7
#    16   8   8  16  16   8  16
#     4   9  19  37  60  84 112 148 188 233 289 346
#     4  11  21  35  57  86 120 150 184 229 279 344
#     4   9  18  37  57  73 105 147 181 219 277 339
#     4  11  22  36  55  83 116 152 191 230 282 339
#     4  10  22  38  56  81 111 146 187 230 280 334
#     4   9  18  34  54  74 107 155 193 221 261 332
#     4  11  22  35  58  85 112 146 185 239 280 332
#
# _framework density 17.529419999999998
#
# number of rings (size 3 to 8) (size 9 to 14) (size 15 to 20)
#    0.000    1.909    2.727    1.909    2.545    1.455 
#    0.000    0.000    0.000    0.000    0.000    1.273 
#    0.000    0.000    0.000    0.000    0.000    0.000 
#
# Total GULP energy -245061.773141 kJ/mol
# GULP energy per Si atom -5569.585753 kJ/mol
# Density = 1.748952 g / cm^3
# Si number density = 17.529420 Si / 1000 Ang^3
#
#
#
# Elastic Constant Matrix: (Units=GPa)
#
#
# Indices 1 2 3 4 5 6 
#
# 1 93.2752 54.8149 22.6464 0.0000 0.0000 0.0000
# 2 54.8149 99.4094 25.6255 0.0000 0.0000 0.0000
# 3 22.6464 25.6255 77.5682 0.0000 0.0000 0.0000
# 4 0.0000 0.0000 0.0000 23.3421 0.0000 0.0000
# 5 0.0000 0.0000 0.0000 0.0000 18.1079 0.0000
# 6 0.0000 0.0000 0.0000 0.0000 0.0000 39.2725
#
#
#
# Elastic Compliance Matrix: (Units=1/GPa)
#
#
# Indices 1 2 3 4 5 6 
#
# 1 0.016122 -0.008391 -0.001935 0.000000 0.000000 0.000000
# 2 -0.008391 0.015363 -0.002626 0.000000 0.000000 0.000000
# 3 -0.001935 -0.002626 0.014324 0.000000 0.000000 0.000000
# 4 0.000000 0.000000 0.000000 0.042841 0.000000 0.000000
# 5 0.000000 0.000000 0.000000 0.000000 0.055224 0.000000
# 6 0.000000 0.000000 0.000000 0.000000 0.000000 0.025463
#
#
# Mechanical properties :
#
#
# Convention : Reuss Voigt Hill
#
# Bulk Modulus (GPa) = 50.23516 52.93628 51.58572
# Shear Modulus (GPa) = 24.76771 27.28888 26.02830
#
# Velocity S-wave (km/s) = 3.76296 3.94984 3.85754
# Velocity P-wave (km/s) = 6.89925 7.14603 7.02373
#
# Compressibility (1/GPa) = 0.01990638
#
# Stress axis : x y z
#
# Youngs Moduli (GPa) = 62.02782 65.09135 69.81218
#
# Poissons Ratio (x) = 0.54618 0.13507
# Poissons Ratio (y) = 0.52047 0.18330
# Poissons Ratio (z) = 0.12001 0.17090
#
# Static dielectric constant tensor:
#      x y z
#    x 1.581590 0.000000 0.000000 
#    y 0.000000 1.628810 0.000000 
#    z 0.000000 0.000000 1.624580 
# 
# From -- ./inp_files/25705.got.cif
#   From: 2010.05.17/outbox.cif.g08.bks.cpg/sg71_13_cif.got.tgz:25705.got - 2010.06.03 16:22:01.
