data_PCOD9523688
_publ_section_title
;
Structure prediction by ZEFSAII (Michael W. Deem and Ramdas Pophale) SiO2 
 PCOD9523688
Probable space group: I M M M
;
_chemical_formula_sum "Si O2"
_cell_formula_units_Z 68
_cell_length_a 23.701912
_cell_length_b 7.697823
_cell_length_c 17.085615
_cell_angle_alpha 90.000000
_cell_angle_beta 90.000000
_cell_angle_gamma 90.000000
_cell_volume 3117.323821
_symmetry_space_group_name_H-M "I M M M"
_symmetry_group_IT_number 71
_symmetry_cell_setting 'orthorhombic'
loop_
_space_group_symop_operation_xyz
x,y,z
-x,-y,z
x,-y,-z
-x,y,-z
-x,-y,-z
x,y,-z
-x,y,z
x,-y,z
1/2+x,1/2+y,1/2+z
1/2-x,1/2-y,1/2+z
1/2+x,1/2-y,1/2-z
1/2-x,1/2+y,1/2-z
1/2-x,1/2-y,1/2-z
1/2+x,1/2+y,1/2-z
1/2-x,1/2+y,1/2+z
1/2+x,1/2-y,1/2+z
loop_
_atom_site_type_symbol
_atom_site_label
_atom_site_fract_x
_atom_site_fract_y
_atom_site_fract_z
Si Si1 0.399198 0.199867 0.911974
Si Si2 0.348633 0.799077 0.372401
Si Si3 0.438403 0.701013 0.748079
Si Si4 0.227519 0.206252 0.409645
Si Si5 0.126802 0.000000 0.000000
O O1 0.430343 0.290303 0.841123
O O2 0.332110 0.206340 0.894200
O O3 0.417410 0.000000 0.912844
O O4 0.406639 0.271845 0.000000
O O5 0.387128 0.792342 0.295712
O O6 0.282571 0.752206 0.359204
O O7 0.371456 0.655118 0.432220
O O8 0.348630 0.000000 0.401969
O O9 0.500000 0.773828 0.726956
O O10 0.437156 0.500000 0.724714
O O11 0.243553 0.250240 0.500000
O O12 0.217115 0.000000 0.405260
#
# Coordination Sequence:
#
# PCOD9523688 Si02
#       5
#    16  16  16  16   4
#     4  10  22  38  63  95 126 167 214 261 323 389
#     4  11  23  40  67  99 132 174 214 259 325 381
#     4  11  25  45  65  88 124 169 218 275 328 378
#     4   9  18  34  59  92 129 163 205 257 312 380
#     4  12  22  40  69 100 134 172 211 266 310 392
#
# _framework density 21.813583000000001
#
# number of rings (size 3 to 8) (size 9 to 14) (size 15 to 20)
#    0.000    1.647    2.353    1.765    1.647    4.706 
#    0.000    3.529    0.000    1.412    0.000    0.000 
#    0.000    0.000    0.000    0.000    0.000    0.000 
#
# Total GULP energy -189313.563841 kJ/mol
# GULP energy per Si atom -5568.045995 kJ/mol
# Density = 2.176393 g / cm^3
# Si number density = 21.813583 Si / 1000 Ang^3
#
#
#
# Elastic Constant Matrix: (Units=GPa)
#
#
# Indices 1 2 3 4 5 6 
#
# 1 34.9115 -2.9539 5.4092 0.0000 0.0000 0.0000
# 2 -2.9539 90.5024 17.1107 0.0000 0.0000 0.0000
# 3 5.4092 17.1107 60.7580 0.0000 0.0000 0.0000
# 4 0.0000 0.0000 0.0000 33.7828 0.0000 0.0000
# 5 0.0000 0.0000 0.0000 0.0000 -82.7401 0.0000
# 6 0.0000 0.0000 0.0000 0.0000 0.0000 16.0767
#
#
#
# Elastic Compliance Matrix: (Units=1/GPa)
#
#
# Indices 1 2 3 4 5 6 
#
# 1 0.029243 0.001528 -0.003034 0.000000 0.000000 0.000000
# 2 0.001528 0.011751 -0.003445 0.000000 0.000000 0.000000
# 3 -0.003034 -0.003445 0.017699 0.000000 0.000000 0.000000
# 4 0.000000 0.000000 0.000000 0.029601 0.000000 0.000000
# 5 0.000000 0.000000 0.000000 0.000000 -0.012086 0.000000
# 6 0.000000 0.000000 0.000000 0.000000 0.000000 0.062202
#
#
# Mechanical properties :
#
#
# Convention : Reuss Voigt Hill
#
# Bulk Modulus (GPa) = 20.49561 25.03376 22.76469
# Shear Modulus (GPa) = 30.38118 4.53092 17.45605
#
# Velocity S-wave (km/s) = 3.73602 1.44278 2.83192
# Velocity P-wave (km/s) = 5.29403 3.77844 4.59909
#
# Compressibility (1/GPa) = 0.04879093
#
# Stress axis : x y z
#
# Youngs Moduli (GPa) = 34.19592 85.10140 56.50008
#
# Poissons Ratio (x) = -0.13004 0.17141
# Poissons Ratio (y) = -0.05225 0.19466
# Poissons Ratio (z) = 0.10374 0.29320
#
# Static dielectric constant tensor:
#      x y z
#    x 1.814370 0.000000 0.000000 
#    y 0.000000 1.786530 0.000000 
#    z 0.000000 0.000000 1.789280 
# 
# From -- ./inp_files/9628.got.cif
#   From: 2010.05.17/outbox.cif.g08.bks.cpg/sg71_5_cif.got.tgz:9628.got - 2010.06.03 16:22:01.
