data_PCOD9523995
_publ_section_title
;
Structure prediction by ZEFSAII (Michael W. Deem and Ramdas Pophale) SiO2 
 PCOD9523995
Probable space group: I M M M
;
_chemical_formula_sum "Si O2"
_cell_formula_units_Z 88
_cell_length_a 27.631706
_cell_length_b 14.170950
_cell_length_c 14.136424
_cell_angle_alpha 90.000000
_cell_angle_beta 90.000000
_cell_angle_gamma 90.000000
_cell_volume 5535.364546
_symmetry_space_group_name_H-M "I M M M"
_symmetry_group_IT_number 71
_symmetry_cell_setting 'orthorhombic'
loop_
_space_group_symop_operation_xyz
x,y,z
-x,-y,z
x,-y,-z
-x,y,-z
-x,-y,-z
x,y,-z
-x,y,z
x,-y,z
1/2+x,1/2+y,1/2+z
1/2-x,1/2-y,1/2+z
1/2+x,1/2-y,1/2-z
1/2-x,1/2+y,1/2-z
1/2-x,1/2-y,1/2-z
1/2+x,1/2+y,1/2-z
1/2-x,1/2+y,1/2+z
1/2+x,1/2-y,1/2+z
loop_
_atom_site_type_symbol
_atom_site_label
_atom_site_fract_x
_atom_site_fract_y
_atom_site_fract_z
Si Si1 0.556960 0.709627 0.385711
Si Si2 0.058531 0.000000 0.893203
Si Si3 0.852527 0.281785 0.204888
Si Si4 0.295646 0.391393 0.387084
Si Si5 0.800721 0.719323 0.389070
Si Si6 0.768807 0.605511 0.113307
O O1 0.563779 0.712641 0.500000
O O2 0.500000 0.725520 0.368165
O O3 0.570014 0.602402 0.352289
O O4 0.593234 0.779621 0.333594
O O5 0.000000 0.000000 0.900636
O O6 0.078791 0.000000 0.000000
O O7 0.827907 0.184779 0.166873
O O8 0.844753 0.288219 0.316976
O O9 0.818881 0.362472 0.159749
O O10 0.304393 0.379639 0.500000
O O11 0.304865 0.500000 0.362188
O O12 0.239537 0.361995 0.371854
O O13 0.813161 0.719409 0.500000
O O14 0.771619 0.815961 0.365529
O O15 0.754746 0.500000 0.141884
O O16 0.775043 0.608014 0.000000
#
# Coordination Sequence:
#
# PCOD9523995 Si02
#       6
#    16   8  16  16  16  16
#     4   9  17  29  44  64  90 113 135 171 221 270
#     4   7  12  24  40  58  83 111 129 151 202 266
#     4  11  19  27  45  67  86 115 154 181 209 257
#     4   9  17  28  44  69  96 114 133 172 224 269
#     4   9  19  32  42  59  89 120 150 184 215 247
#     4   9  17  30  46  64  90 120 147 176 212 258
#
# _framework density 15.897778000000001
#
# number of rings (size 3 to 8) (size 9 to 14) (size 15 to 20)
#    0.000    2.818    0.000    6.000    1.273    2.909 
#    0.000    0.000    0.000    1.091    0.000    2.545 
#    0.000    2.182    0.000    6.182    0.000    0.182 
#
# Total GULP energy -245201.179804 kJ/mol
# GULP energy per Si atom -5572.754086 kJ/mol
# Density = 1.586159 g / cm^3
# Si number density = 15.897778 Si / 1000 Ang^3
#
#
#
# Elastic Constant Matrix: (Units=GPa)
#
#
# Indices 1 2 3 4 5 6 
#
# 1 59.5648 -9.9538 33.4318 0.0000 0.0000 0.0000
# 2 -9.9538 32.8574 -0.2064 0.0000 0.0000 0.0000
# 3 33.4318 -0.2064 48.6694 0.0000 0.0000 0.0000
# 4 0.0000 0.0000 0.0000 6.1511 0.0000 0.0000
# 5 0.0000 0.0000 0.0000 0.0000 21.6267 0.0000
# 6 0.0000 0.0000 0.0000 0.0000 0.0000 10.9204
#
#
#
# Elastic Compliance Matrix: (Units=1/GPa)
#
#
# Indices 1 2 3 4 5 6 
#
# 1 0.029700 0.008869 -0.020364 0.000000 0.000000 0.000000
# 2 0.008869 0.033084 -0.005952 0.000000 0.000000 0.000000
# 3 -0.020364 -0.005952 0.034510 0.000000 0.000000 0.000000
# 4 0.000000 0.000000 0.000000 0.162571 0.000000 0.000000
# 5 0.000000 0.000000 0.000000 0.000000 0.046239 0.000000
# 6 0.000000 0.000000 0.000000 0.000000 0.000000 0.091572
#
#
# Mechanical properties :
#
#
# Convention : Reuss Voigt Hill
#
# Bulk Modulus (GPa) = 16.02547 20.84831 18.43689
# Shear Modulus (GPa) = 11.02852 15.59432 13.31142
#
# Velocity S-wave (km/s) = 2.63670 3.13535 2.89678
# Velocity P-wave (km/s) = 4.40134 5.12344 4.77606
#
# Compressibility (1/GPa) = 0.06240065
#
# Stress axis : x y z
#
# Youngs Moduli (GPa) = 33.66981 30.22603 28.97727
#
# Poissons Ratio (x) = -0.26809 0.59009
# Poissons Ratio (y) = -0.29863 0.17248
# Poissons Ratio (z) = 0.68565 0.17991
#
# Static dielectric constant tensor:
#      x y z
#    x 1.533250 0.000000 0.000000 
#    y 0.000000 1.556430 0.000000 
#    z 0.000000 0.000000 1.548940 
# 
# From -- ./inp_files/40245.got.cif
#   From: 2010.05.17/outbox.cif.g08.bks.cpg/sg71_21_cif.got.tgz:40245.got - 2010.06.03 16:22:01.
