data_PCOD9523007
_publ_section_title
;
Structure prediction by ZEFSAII (Michael W. Deem and Ramdas Pophale) SiO2 
 PCOD9523007
Probable space group: I M M M
;
_chemical_formula_sum "Si O2"
_cell_formula_units_Z 72
_cell_length_a 8.865442
_cell_length_b 31.981973
_cell_length_c 13.423093
_cell_angle_alpha 90.000000
_cell_angle_beta 90.000000
_cell_angle_gamma 90.000000
_cell_volume 3805.907636
_symmetry_space_group_name_H-M "I M M M"
_symmetry_group_IT_number 71
_symmetry_cell_setting 'orthorhombic'
loop_
_space_group_symop_operation_xyz
x,y,z
-x,-y,z
x,-y,-z
-x,y,-z
-x,-y,-z
x,y,-z
-x,y,z
x,-y,z
1/2+x,1/2+y,1/2+z
1/2-x,1/2-y,1/2+z
1/2+x,1/2-y,1/2-z
1/2-x,1/2+y,1/2-z
1/2-x,1/2-y,1/2-z
1/2+x,1/2+y,1/2-z
1/2-x,1/2+y,1/2+z
1/2+x,1/2-y,1/2+z
loop_
_atom_site_type_symbol
_atom_site_label
_atom_site_fract_x
_atom_site_fract_y
_atom_site_fract_z
Si Si1 0.177857 0.684463 0.301279
Si Si2 0.176063 0.549857 0.500000
Si Si3 0.183437 0.048722 0.387992
Si Si4 0.679039 0.725900 0.113765
Si Si5 0.319424 0.595229 0.688040
O O1 0.225191 0.699262 0.191004
O O2 0.212999 0.725004 0.368891
O O3 0.266686 0.642704 0.326400
O O4 0.000000 0.676445 0.308042
O O5 0.188362 0.500000 0.500000
O O6 0.253090 0.568017 0.598628
O O7 0.000000 0.561687 0.500000
O O8 0.232848 0.061237 0.500000
O O9 0.233177 0.077227 0.295658
O O10 0.000000 0.049855 0.388679
O O11 0.226148 0.000000 0.372231
O O12 0.500000 0.720378 0.135649
O O13 0.706011 0.714254 0.000000
O O14 0.500000 0.592992 0.686087
#
# Coordination Sequence:
#
# PCOD9523007 Si02
#       5
#    16   8  16  16  16
#     4  10  21  36  55  83 115 148 187 235 290 349
#     4  11  25  43  61  83 117 161 203 249 305 353
#     4   8  15  30  53  80 109 142 181 228 282 336
#     4   9  19  37  59  79 106 149 193 238 288 343
#     4  11  22  36  58  88 118 151 193 242 289 351
#
# _framework density 18.917957000000001
#
# number of rings (size 3 to 8) (size 9 to 14) (size 15 to 20)
#    0.000    2.333    0.000    3.000    1.556    4.000 
#    0.000    2.222    0.000    2.000    0.000    7.778 
#    0.000    0.000    0.000    0.000    0.000    0.000 
#
# Total GULP energy -200949.914804 kJ/mol
# GULP energy per Si atom -5581.942078 kJ/mol
# Density = 1.887490 g / cm^3
# Si number density = 18.917957 Si / 1000 Ang^3
#
#
#
# Elastic Constant Matrix: (Units=GPa)
#
#
# Indices 1 2 3 4 5 6 
#
# 1 46.7415 30.8965 26.7589 0.0000 0.0000 0.0000
# 2 30.8965 44.8870 12.8348 0.0000 0.0000 0.0000
# 3 26.7589 12.8348 75.6896 -0.0001 0.0000 0.0000
# 4 0.0000 0.0000 -0.0001 -1.4268 0.0000 0.0000
# 5 0.0000 0.0000 0.0000 0.0000 21.2757 0.0000
# 6 0.0000 0.0000 0.0000 0.0000 0.0000 21.4784
#
#
#
# Elastic Compliance Matrix: (Units=1/GPa)
#
#
# Indices 1 2 3 4 5 6 
#
# 1 0.047588 -0.029369 -0.011844 0.000002 0.000000 0.000000
# 2 -0.029369 0.041539 0.003339 -0.000002 0.000000 0.000000
# 3 -0.011844 0.003339 0.016833 -0.000001 0.000000 0.000000
# 4 0.000002 -0.000002 -0.000001 -0.700894 0.000000 0.000000
# 5 0.000000 0.000000 0.000000 0.000000 0.047002 0.000000
# 6 0.000000 0.000000 0.000000 0.000000 0.000000 0.046558
#
#
# Mechanical properties :
#
#
# Convention : Reuss Voigt Hill
#
# Bulk Modulus (GPa) = 33.09940 34.25538 33.67739
# Shear Modulus (GPa) = -12.03207 14.72068 1.34431
#
# Velocity S-wave (km/s) = -2.52467 2.79253 0.84388
# Velocity P-wave (km/s) = 3.00594 5.34268 4.33474
#
# Compressibility (1/GPa) = 0.03021203
#
# Stress axis : x y z
#
# Youngs Moduli (GPa) = 21.01376 24.07403 59.40779
#
# Poissons Ratio (x) = 0.70703 0.70361
# Poissons Ratio (y) = 0.61715 -0.19838
# Poissons Ratio (z) = 0.24888 -0.08039
#
# Static dielectric constant tensor:
#      x y z
#    x 1.638040 0.000000 0.000000 
#    y 0.000000 1.639510 0.000000 
#    z 0.000000 0.000000 1.651720 
# 
# From -- ./inp_files/14318.got.cif
#   From: 2010.05.17/outbox.cif.g08.bks.cpg/sg71_8_cif.got.tgz:14318.got - 2010.06.03 16:22:01.
