data_PCOD9523356
_publ_section_title
;
Structure prediction by ZEFSAII (Michael W. Deem and Ramdas Pophale) SiO2 
 PCOD9523356
Probable space group: I M M M
;
_chemical_formula_sum "Si O2"
_cell_formula_units_Z 50
_cell_length_a 11.416975
_cell_length_b 12.496435
_cell_length_c 19.355013
_cell_angle_alpha 90.000000
_cell_angle_beta 90.000000
_cell_angle_gamma 90.000000
_cell_volume 2761.408466
_symmetry_space_group_name_H-M "I M M M"
_symmetry_group_IT_number 71
_symmetry_cell_setting 'orthorhombic'
loop_
_space_group_symop_operation_xyz
x,y,z
-x,-y,z
x,-y,-z
-x,y,-z
-x,-y,-z
x,y,-z
-x,y,z
x,-y,z
1/2+x,1/2+y,1/2+z
1/2-x,1/2-y,1/2+z
1/2+x,1/2-y,1/2-z
1/2-x,1/2+y,1/2-z
1/2-x,1/2-y,1/2-z
1/2+x,1/2+y,1/2-z
1/2-x,1/2+y,1/2+z
1/2+x,1/2-y,1/2+z
loop_
_atom_site_type_symbol
_atom_site_label
_atom_site_fract_x
_atom_site_fract_y
_atom_site_fract_z
Si Si1 0.500000 0.129886 0.921857
Si Si2 0.243326 0.000000 0.576135
Si Si3 0.863135 0.328807 0.171923
Si Si4 0.000000 0.000000 0.500000
Si Si5 0.281129 0.124044 0.827321
O O1 0.383946 0.159344 0.879779
O O2 0.500000 0.000000 0.924708
O O3 0.500000 0.172746 0.000000
O O4 0.285837 0.101806 0.619564
O O5 0.300807 0.000000 0.500000
O O6 0.105289 0.000000 0.559349
O O7 0.826229 0.205047 0.166034
O O8 0.832037 0.364932 0.249899
O O9 0.000000 0.346142 0.159352
O O10 0.252297 0.000000 0.840300
#
# Coordination Sequence:
#
# PCOD9523356 Si02
#       5
#     8   8  16   2  16
#     4   9  18  35  61  87 117 161 210 264 312 371
#     4  10  23  44  66  91 126 166 208 263 320 375
#     4  11  22  38  62  91 127 172 215 261 316 383
#     4   8  24  48  62 100 130 156 206 278 308 378
#     4  10  21  38  59  91 126 168 216 266 316 373
#
# _framework density 18.106703
#
# number of rings (size 3 to 8) (size 9 to 14) (size 15 to 20)
#    0.480    1.440    3.200    0.480    0.000    4.480 
#    5.760    0.000    0.000    0.000    0.000    6.720 
#    0.000    0.000    0.000    0.000    0.000    0.000 
#
# Total GULP energy -139197.537031 kJ/mol
# GULP energy per Si atom -5567.901481 kJ/mol
# Density = 1.806549 g / cm^3
# Si number density = 18.106703 Si / 1000 Ang^3
#
#
#
# Elastic Constant Matrix: (Units=GPa)
#
#
# Indices 1 2 3 4 5 6 
#
# 1 123.4800 42.0233 46.3035 0.0000 0.0000 0.0000
# 2 42.0233 94.3922 23.6253 0.0000 0.0000 0.0000
# 3 46.3035 23.6253 140.3873 0.0000 0.0000 0.0000
# 4 0.0000 0.0000 0.0000 -10.9947 0.0000 0.0000
# 5 0.0000 0.0000 0.0000 0.0000 33.5055 0.0000
# 6 0.0000 0.0000 0.0000 0.0000 0.0000 7.9831
#
#
#
# Elastic Compliance Matrix: (Units=1/GPa)
#
#
# Indices 1 2 3 4 5 6 
#
# 1 0.010499 -0.003975 -0.002794 0.000000 0.000000 0.000000
# 2 -0.003975 0.012565 -0.000803 0.000000 0.000000 0.000000
# 3 -0.002794 -0.000803 0.008180 0.000000 0.000000 0.000000
# 4 0.000000 0.000000 0.000000 -0.090953 0.000000 0.000000
# 5 0.000000 0.000000 0.000000 0.000000 0.029846 0.000000
# 6 0.000000 0.000000 0.000000 0.000000 0.000000 0.125265
#
#
# Mechanical properties :
#
#
# Convention : Reuss Voigt Hill
#
# Bulk Modulus (GPa) = 62.11515 64.68486 63.40001
# Shear Modulus (GPa) = 43.13600 22.51927 32.82763
#
# Velocity S-wave (km/s) = 4.88620 3.53044 4.26256
# Velocity P-wave (km/s) = 8.13712 7.24020 7.70173
#
# Compressibility (1/GPa) = 0.01609913
#
# Stress axis : x y z
#
# Youngs Moduli (GPa) = 95.24823 79.58760 122.25135
#
# Poissons Ratio (x) = 0.31635 0.34156
# Poissons Ratio (y) = 0.37859 0.09823
# Poissons Ratio (z) = 0.26611 0.06395
#
# Static dielectric constant tensor:
#      x y z
#    x 1.580720 0.000000 0.000000 
#    y 0.000000 1.646920 0.000000 
#    z 0.000000 0.000000 1.612550 
# 
# From -- ./inp_files/51384.got.cif
#   From: 2010.05.17/outbox.cif.g08.bks.cpg/sg71_26_cif.got.tgz:51384.got - 2010.06.03 16:22:01.
