data_PCOD9523237
_publ_section_title
;
Structure prediction by ZEFSAII (Michael W. Deem and Ramdas Pophale) SiO2 
 PCOD9523237
Probable space group: I M M M
;
_chemical_formula_sum "Si O2"
_cell_formula_units_Z 116
_cell_length_a 18.084188
_cell_length_b 18.044256
_cell_length_c 16.931241
_cell_angle_alpha 90.000000
_cell_angle_beta 90.000000
_cell_angle_gamma 90.000000
_cell_volume 5524.930061
_symmetry_space_group_name_H-M "I M M M"
_symmetry_group_IT_number 71
_symmetry_cell_setting 'orthorhombic'
loop_
_space_group_symop_operation_xyz
x,y,z
-x,-y,z
x,-y,-z
-x,y,-z
-x,-y,-z
x,y,-z
-x,y,z
x,-y,z
1/2+x,1/2+y,1/2+z
1/2-x,1/2-y,1/2+z
1/2+x,1/2-y,1/2-z
1/2-x,1/2+y,1/2-z
1/2-x,1/2-y,1/2-z
1/2+x,1/2+y,1/2-z
1/2-x,1/2+y,1/2+z
1/2+x,1/2-y,1/2+z
loop_
_atom_site_type_symbol
_atom_site_label
_atom_site_fract_x
_atom_site_fract_y
_atom_site_fract_z
Si Si1 0.624323 0.377381 0.408314
Si Si2 0.584417 0.811578 0.858869
Si Si3 0.633726 0.916972 0.406494
Si Si4 0.915172 0.268974 0.822383
Si Si5 0.283074 0.585715 0.183305
Si Si6 0.280596 0.085661 0.850361
Si Si7 0.500000 0.500000 0.365149
Si Si8 0.915839 0.149194 0.411392
O O1 0.602813 0.367554 0.500000
O O2 0.627240 0.298182 0.363958
O O3 0.707396 0.408692 0.402921
O O4 0.565568 0.434664 0.370731
O O5 0.500000 0.841608 0.860709
O O6 0.599571 0.782830 0.769625
O O7 0.649208 0.868150 0.879152
O O8 0.586386 0.738052 0.911217
O O9 0.623239 0.912950 0.500000
O O10 0.595538 0.847779 0.365075
O O11 0.720021 0.910225 0.383445
O O12 0.610003 0.000000 0.379640
O O13 0.000000 0.246052 0.829331
O O14 0.300976 0.500000 0.198532
O O15 0.246464 0.614379 0.263911
O O16 0.356772 0.622906 0.152037
O O17 0.302527 0.000000 0.840886
O O18 0.899246 0.121261 0.500000
O O19 0.000000 0.126993 0.390730
#
# Coordination Sequence:
#
# PCOD9523237 Si02
#       8
#    16  16  16  16  16  16   4  16
#     4  12  25  42  66  96 131 172 215 266 324 380
#     4  10  23  43  65  90 126 164 207 267 322 375
#     4  10  21  37  58  88 127 166 206 258 319 377
#     4  11  23  39  64  94 124 166 217 258 310 388
#     4  10  21  39  60  88 121 160 204 256 309 374
#     4  11  24  42  64  94 124 162 215 264 315 385
#     4  12  25  48  68  92 140 180 209 266 331 374
#     4  10  22  40  61  87 121 163 209 256 315 379
#
# _framework density 20.995740999999999
#
# number of rings (size 3 to 8) (size 9 to 14) (size 15 to 20)
#    0.000    1.379    2.759    2.276    1.931    4.138 
#    1.241    2.759    0.000    0.000    0.000    2.897 
#    0.000    0.000    0.000    0.000    0.000    0.000 
#
# Total GULP energy -323443.358604 kJ/mol
# GULP energy per Si atom -5576.609631 kJ/mol
# Density = 2.094795 g / cm^3
# Si number density = 20.995741 Si / 1000 Ang^3
#
#
#
# Elastic Constant Matrix: (Units=GPa)
#
#
# Indices 1 2 3 4 5 6 
#
# 1 88.1692 24.1710 -2.9136 0.0000 0.0000 0.0000
# 2 24.1710 69.7819 2.0713 0.0000 0.0000 0.0000
# 3 -2.9136 2.0713 35.5927 0.0000 0.0000 0.0000
# 4 0.0000 0.0000 0.0000 12.0168 0.0000 0.0000
# 5 0.0000 0.0000 0.0000 0.0000 12.9603 0.0000
# 6 0.0000 0.0000 0.0000 0.0000 0.0000 43.7503
#
#
#
# Elastic Compliance Matrix: (Units=1/GPa)
#
#
# Indices 1 2 3 4 5 6 
#
# 1 0.012590 -0.004399 0.001287 0.000000 0.000000 0.000000
# 2 -0.004399 0.015892 -0.001285 0.000000 0.000000 0.000000
# 3 0.001287 -0.001285 0.028276 0.000000 0.000000 0.000000
# 4 0.000000 0.000000 0.000000 0.083217 0.000000 0.000000
# 5 0.000000 0.000000 0.000000 0.000000 0.077159 0.000000
# 6 0.000000 0.000000 0.000000 0.000000 0.000000 0.022857
#
#
# Mechanical properties :
#
#
# Convention : Reuss Voigt Hill
#
# Bulk Modulus (GPa) = 20.84928 26.68903 23.76916
# Shear Modulus (GPa) = 18.88404 25.09315 21.98859
#
# Velocity S-wave (km/s) = 3.00229 3.46085 3.23969
# Velocity P-wave (km/s) = 4.68723 5.35810 5.03385
#
# Compressibility (1/GPa) = 0.04796328
#
# Stress axis : x y z
#
# Youngs Moduli (GPa) = 79.42580 62.92354 35.36604
#
# Poissons Ratio (x) = 0.27681 -0.04550
# Poissons Ratio (y) = 0.34941 0.04544
# Poissons Ratio (z) = -0.10219 0.08086
#
# Static dielectric constant tensor:
#      x y z
#    x 1.747860 0.000000 0.000000 
#    y 0.000000 1.742720 0.000000 
#    z 0.000000 0.000000 1.770600 
# 
# From -- ./inp_files/46211.got.cif
#   From: 2010.05.17/outbox.cif.g08.bks.cpg/sg71_24_cif.got.tgz:46211.got - 2010.06.03 16:22:01.
