data_PCOD9523274
_publ_section_title
;
Structure prediction by ZEFSAII (Michael W. Deem and Ramdas Pophale) SiO2 
 PCOD9523274
Probable space group: I M M M
;
_chemical_formula_sum "Si O2"
_cell_formula_units_Z 104
_cell_length_a 8.165834
_cell_length_b 29.280997
_cell_length_c 20.297441
_cell_angle_alpha 90.000000
_cell_angle_beta 90.000000
_cell_angle_gamma 90.000000
_cell_volume 4853.194479
_symmetry_space_group_name_H-M "I M M M"
_symmetry_group_IT_number 71
_symmetry_cell_setting 'orthorhombic'
loop_
_space_group_symop_operation_xyz
x,y,z
-x,-y,z
x,-y,-z
-x,y,-z
-x,-y,-z
x,y,-z
-x,y,z
x,-y,z
1/2+x,1/2+y,1/2+z
1/2-x,1/2-y,1/2+z
1/2+x,1/2-y,1/2-z
1/2-x,1/2+y,1/2-z
1/2-x,1/2-y,1/2-z
1/2+x,1/2+y,1/2-z
1/2-x,1/2+y,1/2+z
1/2+x,1/2-y,1/2+z
loop_
_atom_site_type_symbol
_atom_site_label
_atom_site_fract_x
_atom_site_fract_y
_atom_site_fract_z
Si Si1 0.698218 0.113928 0.786374
Si Si2 0.304186 0.552174 0.827924
Si Si3 0.808172 0.401466 0.572452
Si Si4 0.302250 0.366227 0.076428
Si Si5 0.694768 0.210743 0.798037
Si Si6 0.304633 0.762935 0.575047
Si Si7 0.316496 0.500000 0.578438
O O1 0.500000 0.108526 0.786598
O O2 0.768509 0.072597 0.744437
O O3 0.759793 0.119865 0.861619
O O4 0.747867 0.163820 0.761816
O O5 0.500000 0.549935 0.836644
O O6 0.241356 0.500000 0.836092
O O7 0.241784 0.591788 0.877915
O O8 0.734887 0.392589 0.500000
O O9 0.785366 0.454715 0.590197
O O10 0.000000 0.390478 0.568453
O O11 0.500000 0.366354 0.079572
O O12 0.246193 0.314847 0.093972
O O13 0.253649 0.373879 0.000000
O O14 0.500000 0.207508 0.801958
O O15 0.750000 0.250000 0.750000
O O16 0.750190 0.225889 0.871128
O O17 0.242047 0.754327 0.500000
O O18 0.500000 0.761972 0.573028
O O19 0.500000 0.500000 0.608333
O O20 0.338646 0.500000 0.500000
#
# Coordination Sequence:
#
# PCOD9523274 Si02
#       7
#    16  16  16  16  16  16   8
#     4  10  23  39  56  80 108 144 188 234 282 333
#     4  10  22  38  56  82 115 150 188 234 288 341
#     4   9  18  34  54  74  99 134 177 222 265 311
#     4   9  18  35  60  87 115 150 191 232 278 338
#     4  11  23  39  60  85 114 150 193 239 288 345
#     4  10  21  37  59  89 123 155 189 234 289 349
#     4   9  17  29  47  73 101 129 164 207 256 307
#
# _framework density 21.429185
#
# number of rings (size 3 to 8) (size 9 to 14) (size 15 to 20)
#    0.000    2.231    0.000    2.077    1.077    8.000 
#    0.000    3.077    0.000    1.846    0.000    3.231 
#    0.000    0.000    0.000    0.000    0.000    0.000 
#
# Total GULP energy -289748.971766 kJ/mol
# GULP energy per Si atom -5572.095611 kJ/mol
# Density = 2.138041 g / cm^3
# Si number density = 21.429185 Si / 1000 Ang^3
#
#
#
# Elastic Constant Matrix: (Units=GPa)
#
#
# Indices 1 2 3 4 5 6 
#
# 1 17.4915 1.3944 1.1059 0.0000 0.0000 0.0000
# 2 1.3944 86.4713 12.3813 0.0000 0.0000 0.0000
# 3 1.1059 12.3813 73.3749 0.0000 0.0000 0.0000
# 4 0.0000 0.0000 0.0000 39.8577 0.0000 0.0000
# 5 0.0000 0.0000 0.0000 0.0000 25.0310 0.0000
# 6 0.0000 0.0000 0.0000 0.0000 0.0000 22.0190
#
#
#
# Elastic Compliance Matrix: (Units=1/GPa)
#
#
# Indices 1 2 3 4 5 6 
#
# 1 0.057282 -0.000820 -0.000725 0.000000 0.000000 0.000000
# 2 -0.000820 0.011863 -0.001989 0.000000 0.000000 0.000000
# 3 -0.000725 -0.001989 0.013975 0.000000 0.000000 0.000000
# 4 0.000000 0.000000 0.000000 0.025089 0.000000 0.000000
# 5 0.000000 0.000000 0.000000 0.000000 0.039950 0.000000
# 6 0.000000 0.000000 0.000000 0.000000 0.000000 0.045415
#
#
# Mechanical properties :
#
#
# Convention : Reuss Voigt Hill
#
# Bulk Modulus (GPa) = 13.14901 23.01120 18.08011
# Shear Modulus (GPa) = 22.12453 28.21197 25.16825
#
# Velocity S-wave (km/s) = 3.21666 3.63233 3.43079
# Velocity P-wave (km/s) = 4.46601 5.32478 4.91419
#
# Compressibility (1/GPa) = 0.07605133
#
# Stress axis : x y z
#
# Youngs Moduli (GPa) = 17.45752 84.29857 71.55510
#
# Poissons Ratio (x) = 0.06912 0.05188
# Poissons Ratio (y) = 0.01431 0.14235
# Poissons Ratio (z) = 0.01266 0.16770
#
# Static dielectric constant tensor:
#      x y z
#    x 1.776570 0.000000 0.000000 
#    y 0.000000 1.817150 0.000000 
#    z 0.000000 0.000000 1.851250 
# 
# From -- ./inp_files/14997.got.cif
#   From: 2010.05.17/outbox.cif.g08.bks.cpg/sg71_8_cif.got.tgz:14997.got - 2010.06.03 16:22:01.
