data_PCOD9523255
_publ_section_title
;
Structure prediction by ZEFSAII (Michael W. Deem and Ramdas Pophale) SiO2 
 PCOD9523255
Probable space group: I M M M
;
_chemical_formula_sum "Si O2"
_cell_formula_units_Z 68
_cell_length_a 7.755587
_cell_length_b 23.405203
_cell_length_c 15.858344
_cell_angle_alpha 90.000000
_cell_angle_beta 90.000000
_cell_angle_gamma 90.000000
_cell_volume 2878.623859
_symmetry_space_group_name_H-M "I M M M"
_symmetry_group_IT_number 71
_symmetry_cell_setting 'orthorhombic'
loop_
_space_group_symop_operation_xyz
x,y,z
-x,-y,z
x,-y,-z
-x,y,-z
-x,-y,-z
x,y,-z
-x,y,z
x,-y,z
1/2+x,1/2+y,1/2+z
1/2-x,1/2-y,1/2+z
1/2+x,1/2-y,1/2-z
1/2-x,1/2+y,1/2-z
1/2-x,1/2-y,1/2-z
1/2+x,1/2+y,1/2-z
1/2-x,1/2+y,1/2+z
1/2+x,1/2-y,1/2+z
loop_
_atom_site_type_symbol
_atom_site_label
_atom_site_fract_x
_atom_site_fract_y
_atom_site_fract_z
Si Si1 0.305109 0.799309 0.130753
Si Si2 0.807094 0.921679 0.902673
Si Si3 0.000000 0.500000 0.656714
Si Si4 0.707856 0.062738 0.400619
Si Si5 0.296661 0.318096 0.180949
O O1 0.500000 0.802956 0.099022
O O2 0.203943 0.853208 0.097013
O O3 0.241495 0.734233 0.120047
O O4 0.300902 0.809945 0.231562
O O5 0.000000 0.936988 0.874341
O O6 0.653414 0.950380 0.850294
O O7 0.782118 0.939711 0.000000
O O8 0.751077 0.065932 0.500000
O O9 0.500000 0.063168 0.393373
O O10 0.774093 0.118802 0.354862
O O11 0.765868 0.000000 0.368928
O O12 0.500000 0.309013 0.197268
#
# Coordination Sequence:
#
# PCOD9523255 Si02
#       5
#    16  16   4  16  16
#     4  10  21  39  60  83 117 158 199 248 302 355
#     4  11  23  39  62  90 120 160 206 248 299 360
#     4  12  23  42  64  86 126 164 193 252 309 350
#     4   9  19  37  59  83 114 153 195 238 291 359
#     4  10  21  37  59  86 117 153 194 247 306 358
#
# _framework density 23.622399000000001
#
# number of rings (size 3 to 8) (size 9 to 14) (size 15 to 20)
#    0.000    1.882    1.176    3.529    0.000    5.647 
#    2.118    5.882    0.000    0.000    0.000    0.000 
#    0.000    0.000    0.000    0.000    0.000    0.000 
#
# Total GULP energy -189508.619721 kJ/mol
# GULP energy per Si atom -5573.782933 kJ/mol
# Density = 2.356863 g / cm^3
# Si number density = 23.622399 Si / 1000 Ang^3
#
#
#
# Elastic Constant Matrix: (Units=GPa)
#
#
# Indices 1 2 3 4 5 6 
#
# 1 113.8329 40.9921 13.6545 0.0000 0.0000 0.0000
# 2 40.9921 238.3853 42.2724 -0.0001 0.0000 0.0000
# 3 13.6545 42.2724 29.0931 -0.0002 0.0000 0.0000
# 4 0.0000 -0.0001 -0.0002 -31.0732 0.0000 0.0000
# 5 0.0000 0.0000 0.0000 0.0000 5.6326 0.0000
# 6 0.0000 0.0000 0.0000 0.0000 0.0000 -10.9726
#
#
#
# Elastic Compliance Matrix: (Units=1/GPa)
#
#
# Indices 1 2 3 4 5 6 
#
# 1 0.009533 -0.001139 -0.002819 0.000000 0.000000 0.000000
# 2 -0.001139 0.005787 -0.007874 0.000000 0.000000 0.000000
# 3 -0.002819 -0.007874 0.047136 0.000000 0.000000 0.000000
# 4 0.000000 0.000000 0.000000 -0.032182 0.000000 0.000000
# 5 0.000000 0.000000 0.000000 0.000000 0.177538 0.000000
# 6 0.000000 0.000000 0.000000 0.000000 0.000000 -0.091136
#
#
# Mechanical properties :
#
#
# Convention : Reuss Voigt Hill
#
# Bulk Modulus (GPa) = 25.77827 63.90548 44.84188
# Shear Modulus (GPa) = 32.62193 11.67685 22.14939
#
# Velocity S-wave (km/s) = 3.72018 2.22573 3.06542
# Velocity P-wave (km/s) = 5.42119 5.80662 5.61721
#
# Compressibility (1/GPa) = 0.03879236
#
# Stress axis : x y z
#
# Youngs Moduli (GPa) = 104.89601 172.79865 21.21522
#
# Poissons Ratio (x) = 0.19690 0.05980
# Poissons Ratio (y) = 0.11953 0.16705
# Poissons Ratio (z) = 0.29567 1.36059
#
# Static dielectric constant tensor:
#      x y z
#    x 1.878020 0.000000 0.000000 
#    y 0.000000 1.934740 0.000000 
#    z 0.000000 0.000000 1.920870 
# 
# From -- ./inp_files/41928.got.cif
#   From: 2010.05.17/outbox.cif.g08.bks.cpg/sg71_21_cif.got.tgz:41928.got - 2010.06.03 16:22:01.
