data_PCOD9523423
_publ_section_title
;
Structure prediction by ZEFSAII (Michael W. Deem and Ramdas Pophale) SiO2 
 PCOD9523423
Probable space group: I M M M
;
_chemical_formula_sum "Si O2"
_cell_formula_units_Z 64
_cell_length_a 8.991941
_cell_length_b 13.778226
_cell_length_c 26.829092
_cell_angle_alpha 90.000000
_cell_angle_beta 90.000000
_cell_angle_gamma 90.000000
_cell_volume 3323.936568
_symmetry_space_group_name_H-M "I M M M"
_symmetry_group_IT_number 71
_symmetry_cell_setting 'orthorhombic'
loop_
_space_group_symop_operation_xyz
x,y,z
-x,-y,z
x,-y,-z
-x,y,-z
-x,-y,-z
x,y,-z
-x,y,z
x,-y,z
1/2+x,1/2+y,1/2+z
1/2-x,1/2-y,1/2+z
1/2+x,1/2-y,1/2-z
1/2-x,1/2+y,1/2-z
1/2-x,1/2-y,1/2-z
1/2+x,1/2+y,1/2-z
1/2-x,1/2+y,1/2+z
1/2+x,1/2-y,1/2+z
loop_
_atom_site_type_symbol
_atom_site_label
_atom_site_fract_x
_atom_site_fract_y
_atom_site_fract_z
Si Si1 0.821533 0.110120 0.377477
Si Si2 0.824452 0.000000 0.910716
Si Si3 0.162163 0.500000 0.688685
Si Si4 0.177738 0.216076 0.941425
Si Si5 0.670334 0.159210 0.273611
O O1 0.755480 0.199142 0.409581
O O2 0.757244 0.120495 0.321625
O O3 0.000000 0.118111 0.376543
O O4 0.783642 0.000000 0.395477
O O5 0.789050 0.000000 0.852171
O O6 0.768829 0.894901 0.930348
O O7 0.000000 0.000000 0.921915
O O8 0.168766 0.587657 0.726909
O O9 0.000000 0.500000 0.662732
O O10 0.000000 0.218803 0.930745
O O11 0.199291 0.234709 0.000000
O O12 0.500000 0.178659 0.288813
O O13 0.750000 0.250000 0.250000
#
# Coordination Sequence:
#
# PCOD9523423 Si02
#       5
#    16   8   8  16  16
#     4  11  24  41  61  88 124 164 208 257 308 365
#     4  10  21  38  62  92 124 157 199 252 307 370
#     4  10  22  37  55  83 119 155 192 234 289 353
#     4  10  22  41  65  91 120 159 206 257 316 376
#     4  11  22  38  59  86 120 159 201 246 297 357
#
# _framework density 19.254279
#
# number of rings (size 3 to 8) (size 9 to 14) (size 15 to 20)
#    0.000    1.500    1.250    3.375    0.000   11.000 
#    0.000    2.500    0.000    2.250    0.000    0.000 
#    0.000    0.000    0.000    0.000    0.000    0.000 
#
# Total GULP energy -178516.808870 kJ/mol
# GULP energy per Si atom -5578.650277 kJ/mol
# Density = 1.921046 g / cm^3
# Si number density = 19.254279 Si / 1000 Ang^3
#
#
#
# Elastic Constant Matrix: (Units=GPa)
#
#
# Indices 1 2 3 4 5 6 
#
# 1 50.7055 48.3170 19.9656 0.0000 0.0000 0.0000
# 2 48.3170 152.9135 34.8837 0.0000 0.0000 0.0000
# 3 19.9656 34.8837 68.6745 0.0000 0.0000 0.0000
# 4 0.0000 0.0000 0.0000 23.2324 0.0000 0.0000
# 5 0.0000 0.0000 0.0000 0.0000 29.7512 0.0000
# 6 0.0000 0.0000 0.0000 0.0000 0.0000 24.3569
#
#
#
# Elastic Compliance Matrix: (Units=1/GPa)
#
#
# Indices 1 2 3 4 5 6 
#
# 1 0.029307 -0.008276 -0.004317 0.000000 0.000000 0.000000
# 2 -0.008276 0.009734 -0.002538 0.000000 0.000000 0.000000
# 3 -0.004317 -0.002538 0.017106 0.000000 0.000000 0.000000
# 4 0.000000 0.000000 0.000000 0.043043 0.000000 0.000000
# 5 0.000000 0.000000 0.000000 0.000000 0.033612 0.000000
# 6 0.000000 0.000000 0.000000 0.000000 0.000000 0.041056
#
#
# Mechanical properties :
#
#
# Convention : Reuss Voigt Hill
#
# Bulk Modulus (GPa) = 38.63201 53.18067 45.90634
# Shear Modulus (GPa) = 23.50198 26.74325 25.12261
#
# Velocity S-wave (km/s) = 3.49751 3.73091 3.61609
# Velocity P-wave (km/s) = 6.03472 6.79998 6.42874
#
# Compressibility (1/GPa) = 0.02588527
#
# Stress axis : x y z
#
# Youngs Moduli (GPa) = 34.12123 102.73704 58.45970
#
# Poissons Ratio (x) = 0.85021 0.25236
# Poissons Ratio (y) = 0.28237 0.14839
# Poissons Ratio (z) = 0.14729 0.26078
#
# Static dielectric constant tensor:
#      x y z
#    x 1.685560 0.000000 0.000000 
#    y 0.000000 1.668770 0.000000 
#    z 0.000000 0.000000 1.623020 
# 
# From -- ./inp_files/26869.got.cif
#   From: 2010.05.17/outbox.cif.g08.bks.cpg/sg71_14_cif.got.tgz:26869.got - 2010.06.03 16:22:01.
