data_PCOD9523967
_publ_section_title
;
Structure prediction by ZEFSAII (Michael W. Deem and Ramdas Pophale) SiO2 
 PCOD9523967
Probable space group: I M M M
;
_chemical_formula_sum "Si O2"
_cell_formula_units_Z 46
_cell_length_a 23.486242
_cell_length_b 13.669044
_cell_length_c 7.675583
_cell_angle_alpha 90.000000
_cell_angle_beta 90.000000
_cell_angle_gamma 90.000000
_cell_volume 2464.126761
_symmetry_space_group_name_H-M "I M M M"
_symmetry_group_IT_number 71
_symmetry_cell_setting 'orthorhombic'
loop_
_space_group_symop_operation_xyz
x,y,z
-x,-y,z
x,-y,-z
-x,y,-z
-x,-y,-z
x,y,-z
-x,y,z
x,-y,z
1/2+x,1/2+y,1/2+z
1/2-x,1/2-y,1/2+z
1/2+x,1/2-y,1/2-z
1/2-x,1/2+y,1/2-z
1/2-x,1/2-y,1/2-z
1/2+x,1/2+y,1/2-z
1/2-x,1/2+y,1/2+z
1/2+x,1/2-y,1/2+z
loop_
_atom_site_type_symbol
_atom_site_label
_atom_site_fract_x
_atom_site_fract_y
_atom_site_fract_z
Si Si1 0.879890 0.187938 0.696834
Si Si2 0.710056 0.000000 0.500000
Si Si3 0.696442 0.500000 0.298169
Si Si4 0.500000 0.615888 0.700522
Si Si5 0.610040 0.153597 0.500000
Si Si6 0.500000 0.000000 0.500000
O O1 0.863116 0.215339 0.500000
O O2 0.943898 0.147991 0.701616
O O3 0.840613 0.097827 0.760751
O O4 0.883607 0.277547 0.830477
O O5 0.750749 0.000000 0.667537
O O6 0.666846 0.910496 0.500000
O O7 0.713087 0.500000 0.500000
O O8 0.500000 0.500000 0.687665
O O9 0.500000 0.654780 0.500000
O O10 0.552112 0.086814 0.500000
#
# Coordination Sequence:
#
# PCOD9523967 Si02
#       6
#    16   4   8   8   8   2
#     4  12  23  40  67 102 136 176 221 273 340 406
#     4  11  28  47  66  93 132 183 224 288 336 379
#     4  12  23  44  66  97 142 172 217 282 340 393
#     4  11  20  33  59  95 137 169 201 260 337 398
#     4  11  25  47  71  97 130 178 228 276 331 392
#     4  10  24  52  74  94 140 172 220 278 326 388
#
# _framework density 18.667870000000001
#
# number of rings (size 3 to 8) (size 9 to 14) (size 15 to 20)
#    0.000    0.522    6.957    1.565    0.000    3.478 
#    0.000    3.478    0.000    0.000    0.000    0.000 
#    0.000    0.000    0.000    0.000    0.000    0.000 
#
# Total GULP energy -128131.289505 kJ/mol
# GULP energy per Si atom -5570.925631 kJ/mol
# Density = 1.862538 g / cm^3
# Si number density = 18.667870 Si / 1000 Ang^3
#
#
#
# Elastic Constant Matrix: (Units=GPa)
#
#
# Indices 1 2 3 4 5 6 
#
# 1 164.8446 73.9725 60.0527 0.0000 0.0000 0.0000
# 2 73.9725 150.7743 76.1951 0.0000 0.0000 0.0000
# 3 60.0527 76.1951 184.8160 0.0000 0.0000 0.0000
# 4 0.0000 0.0000 0.0000 16.0234 0.0000 0.0000
# 5 0.0000 0.0000 0.0000 0.0000 30.5060 0.0000
# 6 0.0000 0.0000 0.0000 0.0000 0.0000 -5.6879
#
#
#
# Elastic Compliance Matrix: (Units=1/GPa)
#
#
# Indices 1 2 3 4 5 6 
#
# 1 0.007997 -0.003297 -0.001239 0.000000 0.000000 0.000000
# 2 -0.003297 0.009738 -0.002943 0.000000 0.000000 0.000000
# 3 -0.001239 -0.002943 0.007027 0.000000 0.000000 0.000000
# 4 0.000000 0.000000 0.000000 0.062409 0.000000 0.000000
# 5 0.000000 0.000000 0.000000 0.000000 0.032780 0.000000
# 6 0.000000 0.000000 0.000000 0.000000 0.000000 -0.175811
#
#
# Mechanical properties :
#
#
# Convention : Reuss Voigt Hill
#
# Bulk Modulus (GPa) = 102.01651 102.31951 102.16801
# Shear Modulus (GPa) = -132.86222 27.51593 -52.67314
#
# Velocity S-wave (km/s) = -8.44548 3.84340 -5.31763
# Velocity P-wave (km/s) = 6.35096 8.63858 4.14068
#
# Compressibility (1/GPa) = 0.00980234
#
# Stress axis : x y z
#
# Youngs Moduli (GPa) = 125.03972 102.69525 142.31232
#
# Poissons Ratio (x) = 0.33863 0.17635
# Poissons Ratio (y) = 0.41231 0.41884
# Poissons Ratio (z) = 0.15495 0.30224
#
# Static dielectric constant tensor:
#      x y z
#    x 1.621480 0.000000 0.000000 
#    y 0.000000 1.753370 0.000000 
#    z 0.000000 0.000000 1.673840 
# 
# From -- ./inp_files/11778.got.cif
#   From: 2010.05.17/outbox.cif.g08.bks.cpg/sg71_6_cif.got.tgz:11778.got - 2010.06.03 16:22:01.
