data_PCOD9523311
_publ_section_title
;
Structure prediction by ZEFSAII (Michael W. Deem and Ramdas Pophale) SiO2 
 PCOD9523311
Probable space group: I M M M
;
_chemical_formula_sum "Si O2"
_cell_formula_units_Z 64
_cell_length_a 10.837203
_cell_length_b 7.947004
_cell_length_c 34.031144
_cell_angle_alpha 90.000000
_cell_angle_beta 90.000000
_cell_angle_gamma 90.000000
_cell_volume 2930.874274
_symmetry_space_group_name_H-M "I M M M"
_symmetry_group_IT_number 71
_symmetry_cell_setting 'orthorhombic'
loop_
_space_group_symop_operation_xyz
x,y,z
-x,-y,z
x,-y,-z
-x,y,-z
-x,-y,-z
x,y,-z
-x,y,z
x,-y,z
1/2+x,1/2+y,1/2+z
1/2-x,1/2-y,1/2+z
1/2+x,1/2-y,1/2-z
1/2-x,1/2+y,1/2-z
1/2-x,1/2-y,1/2-z
1/2+x,1/2+y,1/2-z
1/2-x,1/2+y,1/2+z
1/2+x,1/2-y,1/2+z
loop_
_atom_site_type_symbol
_atom_site_label
_atom_site_fract_x
_atom_site_fract_y
_atom_site_fract_z
Si Si1 0.644049 0.808827 0.000000
Si Si2 0.741011 0.198965 0.079834
Si Si3 0.500000 0.691805 0.778885
Si Si4 0.000000 0.309334 0.807257
Si Si5 0.726995 0.200227 0.167378
Si Si6 0.000000 0.296718 0.953173
O O1 0.679721 0.724487 0.959107
O O2 0.500000 0.827512 0.000000
O O3 0.700913 0.000000 0.000000
O O4 0.709723 0.266075 0.122800
O O5 0.883513 0.223398 0.069634
O O6 0.708755 0.000000 0.081116
O O7 0.500000 0.500000 0.764722
O O8 0.500000 0.803923 0.740016
O O9 0.623875 0.722353 0.804146
O O10 0.869805 0.230262 0.820819
O O11 0.000000 0.500000 0.822025
O O12 0.706222 0.000000 0.167892
O O13 0.000000 0.500000 0.951218
O O14 0.000000 0.251641 0.000000
#
# Coordination Sequence:
#
# PCOD9523311 Si02
#       6
#     8  16   8   8  16   8
#     4   9  18  33  57  86 116 155 206 255 298 347
#     4  10  21  37  62  89 120 160 208 257 302 361
#     4  12  26  45  69  97 130 170 210 259 322 392
#     4  12  25  45  70  96 129 170 212 262 322 389
#     4  11  24  42  66  99 133 168 214 269 321 379
#     4  11  22  35  54  82 120 159 201 254 311 364
#
# _framework density 21.836487999999999
#
# number of rings (size 3 to 8) (size 9 to 14) (size 15 to 20)
#    0.000    1.250    1.250    4.875    1.750    5.500 
#    0.000    0.000    0.000    0.750    0.000    0.000 
#    0.000    0.000    0.000    0.000    0.000    0.000 
#
# Total GULP energy -178722.420908 kJ/mol
# GULP energy per Si atom -5585.075653 kJ/mol
# Density = 2.178679 g / cm^3
# Si number density = 21.836488 Si / 1000 Ang^3
#
#
#
# Elastic Constant Matrix: (Units=GPa)
#
#
# Indices 1 2 3 4 5 6 
#
# 1 85.5507 -10.6900 22.5432 0.0000 0.0000 0.0000
# 2 -10.6900 48.0218 -11.8484 0.0000 0.0001 0.0000
# 3 22.5432 -11.8484 135.2535 0.0000 0.0001 0.0000
# 4 0.0000 0.0000 0.0000 37.2224 0.0001 0.0000
# 5 0.0000 0.0001 0.0001 0.0001 1481.3622 0.0000
# 6 0.0000 0.0000 0.0000 0.0000 0.0000 -24.9915
#
#
#
# Elastic Compliance Matrix: (Units=1/GPa)
#
#
# Indices 1 2 3 4 5 6 
#
# 1 0.012472 0.002314 -0.001876 0.000000 0.000000 0.000000
# 2 0.002314 0.021713 0.001516 0.000000 0.000000 0.000000
# 3 -0.001876 0.001516 0.007839 0.000000 0.000000 0.000000
# 4 0.000000 0.000000 0.000000 0.026866 0.000000 0.000000
# 5 0.000000 0.000000 0.000000 0.000000 0.000675 0.000000
# 6 0.000000 0.000000 0.000000 0.000000 0.000000 -0.040014
#
#
# Mechanical properties :
#
#
# Convention : Reuss Voigt Hill
#
# Bulk Modulus (GPa) = 21.77113 29.87060 25.82086
# Shear Modulus (GPa) = 122.08622 316.64003 219.36313
#
# Velocity S-wave (km/s) = 7.48536 12.05487 10.03370
# Velocity P-wave (km/s) = 9.20322 14.40377 12.08652
#
# Compressibility (1/GPa) = 0.04593239
#
# Stress axis : x y z
#
# Youngs Moduli (GPa) = 80.17672 46.05521 127.56605
#
# Poissons Ratio (x) = -0.10655 0.23933
# Poissons Ratio (y) = -0.18549 -0.19345
# Poissons Ratio (z) = 0.15042 -0.06984
#
# Static dielectric constant tensor:
#      x y z
#    x 1.545830 0.000000 0.000000 
#    y 0.000000 1.813480 0.000000 
#    z 0.000000 0.000000 1.840230 
# 
# From -- ./inp_files/68845.got.cif
#   From: 2010.05.17/outbox.cif.g08.bks.cpg/sg71_35_cif.got.tgz:68845.got - 2010.06.03 16:22:01.
