data_PCOD9523687
_publ_section_title
;
Structure prediction by ZEFSAII (Michael W. Deem and Ramdas Pophale) SiO2 
 PCOD9523687
Probable space group: I M M M
;
_chemical_formula_sum "Si O2"
_cell_formula_units_Z 88
_cell_length_a 13.625791
_cell_length_b 12.363866
_cell_length_c 28.374027
_cell_angle_alpha 90.000000
_cell_angle_beta 90.000000
_cell_angle_gamma 90.000000
_cell_volume 4780.100090
_symmetry_space_group_name_H-M "I M M M"
_symmetry_group_IT_number 71
_symmetry_cell_setting 'orthorhombic'
loop_
_space_group_symop_operation_xyz
x,y,z
-x,-y,z
x,-y,-z
-x,y,-z
-x,-y,-z
x,y,-z
-x,y,z
x,-y,z
1/2+x,1/2+y,1/2+z
1/2-x,1/2-y,1/2+z
1/2+x,1/2-y,1/2-z
1/2-x,1/2+y,1/2-z
1/2-x,1/2-y,1/2-z
1/2+x,1/2+y,1/2-z
1/2-x,1/2+y,1/2+z
1/2+x,1/2-y,1/2+z
loop_
_atom_site_type_symbol
_atom_site_label
_atom_site_fract_x
_atom_site_fract_y
_atom_site_fract_z
Si Si1 0.116668 0.737671 0.373325
Si Si2 0.381935 0.000000 0.726038
Si Si3 0.778364 0.721879 0.056154
Si Si4 0.775789 0.286360 0.802420
Si Si5 0.387391 0.000000 0.557332
Si Si6 0.117352 0.126141 0.872523
Si Si7 0.617505 0.000000 0.164576
O O1 0.170052 0.770946 0.421486
O O2 0.175417 0.799693 0.332106
O O3 0.139970 0.610951 0.362458
O O4 0.000000 0.753164 0.372803
O O5 0.338857 0.105430 0.701231
O O6 0.500000 0.000000 0.725014
O O7 0.347283 0.000000 0.781183
O O8 0.830094 0.608951 0.070777
O O9 0.839764 0.817691 0.080609
O O10 0.777808 0.729455 0.000000
O O11 0.750000 0.250000 0.750000
O O12 0.837991 0.195275 0.829686
O O13 0.500000 0.000000 0.574579
O O14 0.391042 0.000000 0.500000
O O15 0.000000 0.134082 0.872502
O O16 0.144480 0.000000 0.869129
O O17 0.500000 0.000000 0.168892
#
# Coordination Sequence:
#
# PCOD9523687 Si02
#       7
#    16   8  16  16   8  16   8
#     4  10  22  39  59  85 122 162 201 244 299 358
#     4  11  22  39  64  92 119 159 209 255 301 362
#     4  10  22  38  63  92 118 155 204 250 302 357
#     4  11  23  36  63  87 119 154 206 251 299 354
#     4   9  18  37  63  88 114 147 194 248 299 356
#     4  10  23  40  58  86 125 162 195 244 311 370
#     4   9  18  36  60  82 112 159 200 239 299 357
#
# _framework density 18.409655999999998
#
# number of rings (size 3 to 8) (size 9 to 14) (size 15 to 20)
#    0.000    1.909    1.818    1.091    6.364    5.455 
#    0.000    7.273    0.000    3.273    0.000    0.000 
#    0.000    0.000    0.000    0.000    0.000    0.000 
#
# Total GULP energy -245649.226638 kJ/mol
# GULP energy per Si atom -5582.936969 kJ/mol
# Density = 1.836775 g / cm^3
# Si number density = 18.409656 Si / 1000 Ang^3
#
#
#
# Elastic Constant Matrix: (Units=GPa)
#
#
# Indices 1 2 3 4 5 6 
#
# 1 152.8308 78.7626 58.5659 0.0000 0.0000 0.0000
# 2 78.7626 150.0917 62.6148 0.0000 0.0000 0.0000
# 3 58.5659 62.6148 126.6321 0.0000 0.0000 0.0000
# 4 0.0000 0.0000 0.0000 28.0680 0.0000 0.0000
# 5 0.0000 0.0000 0.0000 0.0000 27.8091 0.0000
# 6 0.0000 0.0000 0.0000 0.0000 0.0000 33.6195
#
#
#
# Elastic Compliance Matrix: (Units=1/GPa)
#
#
# Indices 1 2 3 4 5 6 
#
# 1 0.009531 -0.003984 -0.002438 0.000000 0.000000 0.000000
# 2 -0.003984 0.010060 -0.003131 0.000000 0.000000 0.000000
# 3 -0.002438 -0.003131 0.010573 0.000000 0.000000 0.000000
# 4 0.000000 0.000000 0.000000 0.035628 0.000000 0.000000
# 5 0.000000 0.000000 0.000000 0.000000 0.035959 0.000000
# 6 0.000000 0.000000 0.000000 0.000000 0.000000 0.029745
#
#
# Mechanical properties :
#
#
# Convention : Reuss Voigt Hill
#
# Bulk Modulus (GPa) = 90.44794 92.16013 91.30404
# Shear Modulus (GPa) = 32.40700 33.20675 32.80687
#
# Velocity S-wave (km/s) = 4.20018 4.25169 4.22601
# Velocity P-wave (km/s) = 8.52991 8.61811 8.57412
#
# Compressibility (1/GPa) = 0.01105608
#
# Stress axis : x y z
#
# Youngs Moduli (GPa) = 104.92375 99.40507 94.58331
#
# Poissons Ratio (x) = 0.39607 0.23057
# Poissons Ratio (y) = 0.41806 0.29618
# Poissons Ratio (z) = 0.25577 0.31128
#
# Static dielectric constant tensor:
#      x y z
#    x 1.644510 0.000000 0.000000 
#    y 0.000000 1.635900 0.000000 
#    z 0.000000 0.000000 1.630460 
# 
# From -- ./inp_files/65361.got.cif
#   From: 2010.05.17/outbox.cif.g08.bks.cpg/sg71_33_cif.got.tgz:65361.got - 2010.06.03 16:22:01.
