data_PCOD9523373
_publ_section_title
;
Structure prediction by ZEFSAII (Michael W. Deem and Ramdas Pophale) SiO2 
 PCOD9523373
Probable space group: I M M M
;
_chemical_formula_sum "Si O2"
_cell_formula_units_Z 104
_cell_length_a 26.575044
_cell_length_b 8.641610
_cell_length_c 22.126568
_cell_angle_alpha 90.000000
_cell_angle_beta 90.000000
_cell_angle_gamma 90.000000
_cell_volume 5081.392140
_symmetry_space_group_name_H-M "I M M M"
_symmetry_group_IT_number 71
_symmetry_cell_setting 'orthorhombic'
loop_
_space_group_symop_operation_xyz
x,y,z
-x,-y,z
x,-y,-z
-x,y,-z
-x,-y,-z
x,y,-z
-x,y,z
x,-y,z
1/2+x,1/2+y,1/2+z
1/2-x,1/2-y,1/2+z
1/2+x,1/2-y,1/2-z
1/2-x,1/2+y,1/2-z
1/2-x,1/2-y,1/2-z
1/2+x,1/2+y,1/2-z
1/2-x,1/2+y,1/2+z
1/2+x,1/2-y,1/2+z
loop_
_atom_site_type_symbol
_atom_site_label
_atom_site_fract_x
_atom_site_fract_y
_atom_site_fract_z
Si Si1 0.444177 0.314260 0.663130
Si Si2 0.796332 0.186716 0.566312
Si Si3 0.500000 0.685682 0.071082
Si Si4 0.394219 0.816118 0.883926
Si Si5 0.214118 0.313701 0.839272
Si Si6 0.624409 0.814314 0.567871
Si Si7 0.143429 0.185366 0.257012
O O1 0.500000 0.259324 0.678632
O O2 0.444482 0.500000 0.660920
O O3 0.425225 0.250682 0.599396
O O4 0.402430 0.270589 0.712227
O O5 0.774096 0.227339 0.500000
O O6 0.852401 0.251566 0.570204
O O7 0.764330 0.237625 0.625171
O O8 0.797563 0.000000 0.569136
O O9 0.500000 0.500000 0.074601
O O10 0.550799 0.747512 0.102306
O O11 0.500000 0.730702 0.000000
O O12 0.371831 0.762200 0.819659
O O13 0.396877 0.000000 0.887011
O O14 0.216241 0.500000 0.831176
O O15 0.170978 0.275228 0.888760
O O16 0.194307 0.239427 0.777024
O O17 0.631338 0.757110 0.500000
O O18 0.621773 0.000000 0.566646
O O19 0.145536 0.000000 0.264575
#
# Coordination Sequence:
#
# PCOD9523373 Si02
#       7
#    16  16   8  16  16  16  16
#     4   9  19  34  51  73 102 141 188 241 295 348
#     4  10  21  39  64  92 122 161 206 248 301 369
#     4  11  25  47  73  97 125 163 204 247 300 365
#     4  12  26  42  63  94 127 160 199 250 307 361
#     4   9  18  35  59  86 118 155 198 251 301 352
#     4   9  17  30  49  75 107 144 187 236 292 350
#     4  10  21  38  60  85 116 157 204 250 302 364
#
# _framework density 20.466832
#
# number of rings (size 3 to 8) (size 9 to 14) (size 15 to 20)
#    0.000    2.077    0.000    3.000    1.077    7.385 
#    0.000    1.538    0.000    2.769    0.000    0.000 
#    0.000    0.000    0.000    0.000    0.000    0.000 
#
# Total GULP energy -290324.966472 kJ/mol
# GULP energy per Si atom -5583.172432 kJ/mol
# Density = 2.042025 g / cm^3
# Si number density = 20.466832 Si / 1000 Ang^3
#
#
#
# Elastic Constant Matrix: (Units=GPa)
#
#
# Indices 1 2 3 4 5 6 
#
# 1 138.7671 22.7915 40.5423 0.0000 0.0000 0.0000
# 2 22.7915 18.5879 21.9766 0.0000 0.0000 0.0000
# 3 40.5423 21.9766 111.9353 0.0000 0.0000 0.0000
# 4 0.0000 0.0000 0.0000 26.6270 0.0000 0.0000
# 5 0.0000 0.0000 0.0000 0.0000 29.7739 0.0000
# 6 0.0000 0.0000 0.0000 0.0000 0.0000 28.8306
#
#
#
# Elastic Compliance Matrix: (Units=1/GPa)
#
#
# Indices 1 2 3 4 5 6 
#
# 1 0.009202 -0.009562 -0.001456 0.000000 0.000000 0.000000
# 2 -0.009562 0.079998 -0.012243 0.000000 0.000000 0.000000
# 3 -0.001456 -0.012243 0.011865 0.000000 0.000000 0.000000
# 4 0.000000 0.000000 0.000000 0.037556 0.000000 0.000000
# 5 0.000000 0.000000 0.000000 0.000000 0.033586 0.000000
# 6 0.000000 0.000000 0.000000 0.000000 0.000000 0.034685
#
#
# Mechanical properties :
#
#
# Convention : Reuss Voigt Hill
#
# Bulk Modulus (GPa) = 18.33398 48.87902 33.60650
# Shear Modulus (GPa) = 18.40973 29.31162 23.86068
#
# Velocity S-wave (km/s) = 3.00241 3.78848 3.41812
# Velocity P-wave (km/s) = 4.58220 6.56283 5.65983
#
# Compressibility (1/GPa) = 0.05454352
#
# Stress axis : x y z
#
# Youngs Moduli (GPa) = 108.67071 12.50026 84.28416
#
# Poissons Ratio (x) = 0.11953 0.12268
# Poissons Ratio (y) = 1.03914 1.03189
# Poissons Ratio (z) = 0.15818 0.15304
#
# Static dielectric constant tensor:
#      x y z
#    x 1.762020 0.000000 0.000000 
#    y 0.000000 1.688080 0.000000 
#    z 0.000000 0.000000 1.752940 
# 
# From -- ./inp_files/56219.got.cif
#   From: 2010.05.17/outbox.cif.g08.bks.cpg/sg71_29_cif.got.tgz:56219.got - 2010.06.03 16:22:01.
