data_PCOD9523814
_publ_section_title
;
Structure prediction by ZEFSAII (Michael W. Deem and Ramdas Pophale) SiO2 
 PCOD9523814
Probable space group: I M M M
;
_chemical_formula_sum "Si O2"
_cell_formula_units_Z 104
_cell_length_a 23.580821
_cell_length_b 24.957663
_cell_length_c 7.933629
_cell_angle_alpha 90.000000
_cell_angle_beta 90.000000
_cell_angle_gamma 90.000000
_cell_volume 4669.116664
_symmetry_space_group_name_H-M "I M M M"
_symmetry_group_IT_number 71
_symmetry_cell_setting 'orthorhombic'
loop_
_space_group_symop_operation_xyz
x,y,z
-x,-y,z
x,-y,-z
-x,y,-z
-x,-y,-z
x,y,-z
-x,y,z
x,-y,z
1/2+x,1/2+y,1/2+z
1/2-x,1/2-y,1/2+z
1/2+x,1/2-y,1/2-z
1/2-x,1/2+y,1/2-z
1/2-x,1/2-y,1/2-z
1/2+x,1/2+y,1/2-z
1/2-x,1/2+y,1/2+z
1/2+x,1/2-y,1/2+z
loop_
_atom_site_type_symbol
_atom_site_label
_atom_site_fract_x
_atom_site_fract_y
_atom_site_fract_z
Si Si1 0.565201 0.000000 0.200306
Si Si2 0.156771 0.588385 0.203685
Si Si3 0.000000 0.733728 0.296813
Si Si4 0.593551 0.441831 0.205658
Si Si5 0.500000 0.357732 0.794052
Si Si6 0.202443 0.791618 0.696236
Si Si7 0.217871 0.911510 0.706875
Si Si8 0.621410 0.204895 0.697106
O O1 0.604071 0.051024 0.248773
O O2 0.500000 0.000000 0.268392
O O3 0.560537 0.000000 0.000000
O O4 0.219507 0.569058 0.259132
O O5 0.148299 0.649727 0.264152
O O6 0.157551 0.589844 0.000000
O O7 0.000000 0.796032 0.239761
O O8 0.944905 0.704215 0.228837
O O9 0.000000 0.732770 0.500000
O O10 0.570237 0.500000 0.255280
O O11 0.554995 0.392011 0.260717
O O12 0.659160 0.438592 0.259159
O O13 0.593027 0.439907 0.000000
O O14 0.500000 0.356803 0.000000
O O15 0.208826 0.800485 0.500000
O O16 0.250000 0.750000 0.750000
O O17 0.210634 0.850252 0.769990
O O18 0.144491 0.760073 0.726192
O O19 0.217993 0.914079 0.500000
O O20 0.635163 0.207433 0.500000
#
# Coordination Sequence:
#
# PCOD9523814 Si02
#       8
#     8  16   8  16   8  16  16  16
#     4  11  27  47  65  89 119 150 193 250 308 371
#     4  10  22  41  64  87 116 155 197 243 300 361
#     4  11  23  38  59  85 117 160 194 237 307 370
#     4   9  16  26  47  77 113 152 192 239 286 332
#     4   9  17  31  48  77 119 157 192 231 286 350
#     4  11  20  35  57  85 123 163 200 242 297 360
#     4   9  18  33  53  84 121 157 198 244 294 352
#     4  11  23  40  60  89 121 154 202 253 298 361
#
# _framework density 22.274021000000001
#
# number of rings (size 3 to 8) (size 9 to 14) (size 15 to 20)
#    0.000    1.923    1.538    2.538    2.154    5.231 
#    0.000    0.000    0.000    0.000    0.000    0.000 
#    0.000    4.308    0.000    0.000    0.000    0.000 
#
# Total GULP energy -290334.876389 kJ/mol
# GULP energy per Si atom -5583.363007 kJ/mol
# Density = 2.222332 g / cm^3
# Si number density = 22.274021 Si / 1000 Ang^3
#
#
#
# Elastic Constant Matrix: (Units=GPa)
#
#
# Indices 1 2 3 4 5 6 
#
# 1 147.4540 26.5484 -3.8763 0.0000 0.0000 0.0000
# 2 26.5484 89.7597 3.4071 0.0000 0.0000 0.0000
# 3 -3.8763 3.4071 17.7188 0.0000 0.0000 0.0000
# 4 0.0000 0.0000 0.0000 14.7130 0.0000 0.0000
# 5 0.0000 0.0000 0.0000 0.0000 21.4238 0.0000
# 6 0.0000 0.0000 0.0000 0.0000 0.0000 30.4849
#
#
#
# Elastic Compliance Matrix: (Units=1/GPa)
#
#
# Indices 1 2 3 4 5 6 
#
# 1 0.007234 -0.002216 0.002009 0.000000 0.000000 0.000000
# 2 -0.002216 0.011901 -0.002773 0.000000 0.000000 0.000000
# 3 0.002009 -0.002773 0.057410 0.000000 0.000000 0.000000
# 4 0.000000 0.000000 0.000000 0.067967 0.000000 0.000000
# 5 0.000000 0.000000 0.000000 0.000000 0.046677 0.000000
# 6 0.000000 0.000000 0.000000 0.000000 0.000000 0.032803
#
#
# Mechanical properties :
#
#
# Convention : Reuss Voigt Hill
#
# Bulk Modulus (GPa) = 14.16753 34.12122 24.14437
# Shear Modulus (GPa) = 19.72535 28.58123 24.15329
#
# Velocity S-wave (km/s) = 2.97909 3.58601 3.29655
# Velocity P-wave (km/s) = 4.26705 5.70071 5.03517
#
# Compressibility (1/GPa) = 0.07058396
#
# Stress axis : x y z
#
# Youngs Moduli (GPa) = 138.24560 84.02320 17.41861
#
# Poissons Ratio (x) = 0.18617 -0.03499
# Poissons Ratio (y) = 0.30631 0.04831
# Poissons Ratio (z) = -0.27767 0.23302
#
# Static dielectric constant tensor:
#      x y z
#    x 1.845000 0.000000 0.000000 
#    y 0.000000 1.833060 0.000000 
#    z 0.000000 0.000000 1.822640 
# 
# From -- ./inp_files/11217.got.cif
#   From: 2010.05.17/outbox.cif.g08.bks.cpg/sg71_6_cif.got.tgz:11217.got - 2010.06.03 16:22:01.
