data_PCOD9523282
_publ_section_title
;
Structure prediction by ZEFSAII (Michael W. Deem and Ramdas Pophale) SiO2 
 PCOD9523282
Probable space group: I M M M
;
_chemical_formula_sum "Si O2"
_cell_formula_units_Z 104
_cell_length_a 23.610820
_cell_length_b 24.633854
_cell_length_c 7.598231
_cell_angle_alpha 90.000000
_cell_angle_beta 90.000000
_cell_angle_gamma 90.000000
_cell_volume 4419.324849
_symmetry_space_group_name_H-M "I M M M"
_symmetry_group_IT_number 71
_symmetry_cell_setting 'orthorhombic'
loop_
_space_group_symop_operation_xyz
x,y,z
-x,-y,z
x,-y,-z
-x,y,-z
-x,-y,-z
x,y,-z
-x,y,z
x,-y,z
1/2+x,1/2+y,1/2+z
1/2-x,1/2-y,1/2+z
1/2+x,1/2-y,1/2-z
1/2-x,1/2+y,1/2-z
1/2-x,1/2-y,1/2-z
1/2+x,1/2+y,1/2-z
1/2-x,1/2+y,1/2+z
1/2+x,1/2-y,1/2+z
loop_
_atom_site_type_symbol
_atom_site_label
_atom_site_fract_x
_atom_site_fract_y
_atom_site_fract_z
Si Si1 0.565489 0.000000 0.208648
Si Si2 0.161186 0.587705 0.211497
Si Si3 0.000000 0.731337 0.214951
Si Si4 0.590007 0.441506 0.294802
Si Si5 0.500000 0.355605 0.715788
Si Si6 0.201975 0.794057 0.209321
Si Si7 0.216109 0.916849 0.700314
Si Si8 0.620946 0.203147 0.714752
O O1 0.605831 0.948756 0.255831
O O2 0.500000 0.000000 0.279440
O O3 0.560350 0.000000 0.000000
O O4 0.222504 0.566999 0.277068
O O5 0.152362 0.649194 0.277480
O O6 0.167366 0.590090 0.000000
O O7 0.056349 0.701120 0.270316
O O8 0.000000 0.793636 0.275225
O O9 0.000000 0.731972 0.000000
O O10 0.574442 0.443665 0.500000
O O11 0.574782 0.500000 0.215318
O O12 0.554844 0.390269 0.225739
O O13 0.657543 0.434650 0.286359
O O14 0.500000 0.351988 0.500000
O O15 0.250000 0.750000 0.250000
O O16 0.214042 0.851201 0.297150
O O17 0.146382 0.761174 0.267747
O O18 0.198662 0.804150 0.000000
O O19 0.213256 0.936255 0.500000
O O20 0.624373 0.202589 0.500000
#
# Coordination Sequence:
#
# PCOD9523282 Si02
#       8
#     8  16   8  16   8  16  16  16
#     4  11  27  47  65  89 121 154 197 254 317 371
#     4  10  22  41  63  88 118 157 204 248 296 360
#     4   9  16  27  52  85 115 146 183 236 289 336
#     4  10  21  37  60  88 117 157 208 255 305 366
#     4   9  17  34  58  88 123 157 196 246 301 358
#     4  11  20  35  57  85 122 159 196 241 295 356
#     4  11  23  39  58  87 125 162 202 252 305 359
#     4   9  18  33  55  87 119 147 189 240 287 344
#
# _framework density 23.533007999999999
#
# number of rings (size 3 to 8) (size 9 to 14) (size 15 to 20)
#    0.000    1.923    1.538    2.308    2.154    5.538 
#    0.000    0.385    0.000    0.923    0.000    0.000 
#    0.000    0.000    0.000    0.000    0.000    0.000 
#
# Total GULP energy -290485.448235 kJ/mol
# GULP energy per Si atom -5586.258620 kJ/mol
# Density = 2.347945 g / cm^3
# Si number density = 23.533008 Si / 1000 Ang^3
#
#
#
# Elastic Constant Matrix: (Units=GPa)
#
#
# Indices 1 2 3 4 5 6 
#
# 1 149.5151 18.7664 0.5332 0.0000 0.0000 0.0000
# 2 18.7664 101.9259 0.0243 0.0000 0.0000 0.0000
# 3 0.5332 0.0243 58.5972 0.0000 0.0000 0.0000
# 4 0.0000 0.0000 0.0000 7.5849 0.0000 0.0000
# 5 0.0000 0.0000 0.0000 0.0000 15.4193 0.0000
# 6 0.0000 0.0000 0.0000 0.0000 0.0000 7.8310
#
#
#
# Elastic Compliance Matrix: (Units=1/GPa)
#
#
# Indices 1 2 3 4 5 6 
#
# 1 0.006847 -0.001261 -0.000062 0.000000 0.000000 0.000000
# 2 -0.001261 0.010043 0.000007 0.000000 0.000000 0.000000
# 3 -0.000062 0.000007 0.017066 0.000000 0.000000 0.000000
# 4 0.000000 0.000000 0.000000 0.131842 0.000000 0.000000
# 5 0.000000 0.000000 0.000000 0.000000 0.064854 0.000000
# 6 0.000000 0.000000 0.000000 0.000000 0.000000 0.127697
#
#
# Mechanical properties :
#
#
# Convention : Reuss Voigt Hill
#
# Bulk Modulus (GPa) = 31.92237 38.74287 35.33262
# Shear Modulus (GPa) = 13.46181 25.54799 19.50490
#
# Velocity S-wave (km/s) = 2.39433 3.29845 2.88207
# Velocity P-wave (km/s) = 4.60849 5.56824 5.11094
#
# Compressibility (1/GPa) = 0.03132599
#
# Stress axis : x y z
#
# Youngs Moduli (GPa) = 146.05511 99.57039 58.59523
#
# Poissons Ratio (x) = 0.12552 0.00362
# Poissons Ratio (y) = 0.18412 -0.00043
# Poissons Ratio (z) = 0.00902 -0.00073
#
# Static dielectric constant tensor:
#      x y z
#    x 1.917120 0.000000 0.000000 
#    y 0.000000 1.874440 0.000000 
#    z 0.000000 0.000000 1.899380 
# 
# From -- ./inp_files/11219.got.cif
#   From: 2010.05.17/outbox.cif.g08.bks.cpg/sg71_6_cif.got.tgz:11219.got - 2010.06.03 16:22:01.
