data_PCOD9523528
_publ_section_title
;
Structure prediction by ZEFSAII (Michael W. Deem and Ramdas Pophale) SiO2 
 PCOD9523528
Probable space group: I M M M
;
_chemical_formula_sum "Si O2"
_cell_formula_units_Z 96
_cell_length_a 14.082485
_cell_length_b 33.721204
_cell_length_c 11.243041
_cell_angle_alpha 90.000000
_cell_angle_beta 90.000000
_cell_angle_gamma 90.000000
_cell_volume 5339.076754
_symmetry_space_group_name_H-M "I M M M"
_symmetry_group_IT_number 71
_symmetry_cell_setting 'orthorhombic'
loop_
_space_group_symop_operation_xyz
x,y,z
-x,-y,z
x,-y,-z
-x,y,-z
-x,-y,-z
x,y,-z
-x,y,z
x,-y,z
1/2+x,1/2+y,1/2+z
1/2-x,1/2-y,1/2+z
1/2+x,1/2-y,1/2-z
1/2-x,1/2+y,1/2-z
1/2-x,1/2-y,1/2-z
1/2+x,1/2+y,1/2-z
1/2-x,1/2+y,1/2+z
1/2+x,1/2-y,1/2+z
loop_
_atom_site_type_symbol
_atom_site_label
_atom_site_fract_x
_atom_site_fract_y
_atom_site_fract_z
Si Si1 0.105884 0.043945 0.141679
Si Si2 0.609064 0.613385 0.000000
Si Si3 0.114172 0.243448 0.746046
Si Si4 0.735928 0.395467 0.235348
Si Si5 0.766041 0.690021 0.641997
Si Si6 0.612429 0.044906 0.642535
Si Si7 0.393600 0.707537 0.000000
O O1 0.179675 0.076998 0.174021
O O2 0.000000 0.053932 0.186237
O O3 0.130723 0.000000 0.187804
O O4 0.100800 0.041451 0.000000
O O5 0.669978 0.604015 0.882795
O O6 0.500000 0.597629 0.000000
O O7 0.601470 0.660826 0.000000
O O8 0.151474 0.287607 0.717982
O O9 0.173458 0.218763 0.843254
O O10 0.147336 0.222014 0.623265
O O11 0.000000 0.241130 0.762520
O O12 0.748683 0.352296 0.294236
O O13 0.831380 0.419251 0.202719
O O14 0.787660 0.686225 0.500000
O O15 0.626697 0.047341 0.500000
O O16 0.500000 0.047918 0.664937
O O17 0.642731 0.000000 0.679104
O O18 0.500000 0.724832 0.000000
#
# Coordination Sequence:
#
# PCOD9523528 Si02
#       7
#    16   8  16  16  16  16   8
#     4   9  19  36  56  79 111 151 189 225 275 343
#     4  11  22  34  52  84 115 146 183 227 284 342
#     4  10  21  40  61  79 110 151 189 229 278 334
#     4  12  21  35  57  85 116 148 185 236 287 341
#     4  11  24  37  57  87 116 145 189 235 280 337
#     4   9  19  37  59  82 111 150 195 238 284 337
#     4   9  16  34  60  76 100 149 187 214 268 334
#
# _framework density 17.980637000000002
#
# number of rings (size 3 to 8) (size 9 to 14) (size 15 to 20)
#    0.000    1.833    3.333    2.500    0.000    1.667 
#    0.000    0.000    0.000    3.500    0.000    5.833 
#    0.000    0.000    0.000    0.000    0.000    0.000 
#
# Total GULP energy -267282.375256 kJ/mol
# GULP energy per Si atom -5568.382818 kJ/mol
# Density = 1.793971 g / cm^3
# Si number density = 17.980637 Si / 1000 Ang^3
#
#
#
# Elastic Constant Matrix: (Units=GPa)
#
#
# Indices 1 2 3 4 5 6 
#
# 1 92.9459 59.5445 22.0276 -0.0003 0.0002 0.0001
# 2 59.5445 109.5453 29.5196 0.0000 -0.0001 -0.0003
# 3 22.0276 29.5196 59.0604 -0.0009 0.0012 -0.0001
# 4 -0.0003 0.0000 -0.0009 8.0313 0.0003 -0.0002
# 5 0.0002 -0.0001 0.0012 0.0003 24.2172 -0.0003
# 6 0.0001 -0.0003 -0.0001 -0.0002 -0.0003 68.3948
#
#
#
# Elastic Compliance Matrix: (Units=1/GPa)
#
#
# Indices 1 2 3 4 5 6 
#
# 1 0.016700 -0.008551 -0.001955 0.000000 0.000000 0.000000
# 2 -0.008551 0.014928 -0.004272 -0.000001 0.000000 0.000000
# 3 -0.001955 -0.004272 0.019796 0.000002 -0.000001 0.000000
# 4 0.000000 -0.000001 0.000002 0.124512 -0.000001 0.000000
# 5 0.000000 0.000000 -0.000001 -0.000001 0.041293 0.000000
# 6 0.000000 0.000000 0.000000 0.000000 0.000000 0.014621
#
#
# Mechanical properties :
#
#
# Convention : Reuss Voigt Hill
#
# Bulk Modulus (GPa) = 45.72712 53.74835 49.73773
# Shear Modulus (GPa) = 18.60848 30.15935 24.38392
#
# Velocity S-wave (km/s) = 3.22050 4.09996 3.68655
# Velocity P-wave (km/s) = 6.27020 7.23672 6.77073
#
# Compressibility (1/GPa) = 0.02186886
#
# Stress axis : x y z
#
# Youngs Moduli (GPa) = 59.87966 66.98957 50.51500
#
# Poissons Ratio (x) = 0.57281 0.09875
# Poissons Ratio (y) = 0.51202 0.21580
# Poissons Ratio (z) = 0.11705 0.28618
#
# Static dielectric constant tensor:
#      x y z
#    x 1.639020 0.000000 0.000000 
#    y 0.000000 1.616210 0.000000 
#    z 0.000000 0.000000 1.647410 
# 
# From -- ./inp_files/22638.got.cif
#   From: 2010.05.17/outbox.cif.g08.bks.cpg/sg71_12_cif.got.tgz:22638.got - 2010.06.03 16:22:01.
