data_PCOD9523817
_publ_section_title
;
Structure prediction by ZEFSAII (Michael W. Deem and Ramdas Pophale) SiO2 
 PCOD9523817
Probable space group: I M M M
;
_chemical_formula_sum "Si O2"
_cell_formula_units_Z 100
_cell_length_a 17.767499
_cell_length_b 20.691951
_cell_length_c 14.486920
_cell_angle_alpha 90.000000
_cell_angle_beta 90.000000
_cell_angle_gamma 90.000000
_cell_volume 5326.032385
_symmetry_space_group_name_H-M "I M M M"
_symmetry_group_IT_number 71
_symmetry_cell_setting 'orthorhombic'
loop_
_space_group_symop_operation_xyz
x,y,z
-x,-y,z
x,-y,-z
-x,y,-z
-x,-y,-z
x,y,-z
-x,y,z
x,-y,z
1/2+x,1/2+y,1/2+z
1/2-x,1/2-y,1/2+z
1/2+x,1/2-y,1/2-z
1/2-x,1/2+y,1/2-z
1/2-x,1/2-y,1/2-z
1/2+x,1/2+y,1/2-z
1/2-x,1/2+y,1/2+z
1/2+x,1/2-y,1/2+z
loop_
_atom_site_type_symbol
_atom_site_label
_atom_site_fract_x
_atom_site_fract_y
_atom_site_fract_z
Si Si1 0.209597 0.256754 0.604020
Si Si2 0.913150 0.074973 0.751847
Si Si3 0.000000 0.418201 0.000000
Si Si4 0.083549 0.706818 0.748425
Si Si5 0.383275 0.929400 0.329482
Si Si6 0.873226 0.811302 0.891316
Si Si7 0.781551 0.895643 0.393202
O O1 0.181482 0.268486 0.500000
O O2 0.146856 0.268853 0.679418
O O3 0.283531 0.300012 0.618491
O O4 0.231950 0.181615 0.610022
O O5 0.897638 0.125782 0.834050
O O6 0.852688 0.088006 0.671063
O O7 0.000000 0.084395 0.720997
O O8 0.905321 0.000000 0.781240
O O9 0.065402 0.421514 0.919863
O O10 0.097177 0.631661 0.766989
O O11 0.090912 0.748270 0.842725
O O12 0.000000 0.717871 0.711384
O O13 0.295535 0.926061 0.356684
O O14 0.399106 0.000000 0.288508
O O15 0.891479 0.814685 0.000000
O O16 0.794907 0.913752 0.500000
#
# Coordination Sequence:
#
# PCOD9523817 Si02
#       7
#    16  16   4  16  16  16  16
#     4  10  22  41  64  89 122 157 201 258 306 350
#     4  11  25  43  61  88 125 160 205 259 305 356
#     4  12  25  40  56  92 140 164 193 250 307 370
#     4  12  24  37  62  91 122 160 203 248 301 364
#     4  12  24  38  59  91 132 165 198 246 304 371
#     4  11  23  41  64  88 117 157 205 252 303 358
#     4  11  22  39  64  90 121 165 206 247 306 367
#
# _framework density 18.775703
#
# number of rings (size 3 to 8) (size 9 to 14) (size 15 to 20)
#    0.000    0.800    4.800    3.120    1.120    3.200 
#    0.000    3.200    0.000    1.440    0.000    1.120 
#    0.000    0.000    0.000    0.000    0.000    0.000 
#
# Total GULP energy -278925.413075 kJ/mol
# GULP energy per Si atom -5578.508262 kJ/mol
# Density = 1.873297 g / cm^3
# Si number density = 18.775703 Si / 1000 Ang^3
#
#
#
# Elastic Constant Matrix: (Units=GPa)
#
#
# Indices 1 2 3 4 5 6 
#
# 1 116.9493 14.8909 33.1989 0.0000 0.0000 0.0000
# 2 14.8909 89.3423 12.4046 0.0000 0.0000 0.0000
# 3 33.1989 12.4046 49.2957 0.0000 0.0000 0.0000
# 4 0.0000 0.0000 0.0000 87.2187 0.0000 0.0000
# 5 0.0000 0.0000 0.0000 0.0000 17.4701 0.0000
# 6 0.0000 0.0000 0.0000 0.0000 0.0000 6.3610
#
#
#
# Elastic Compliance Matrix: (Units=1/GPa)
#
#
# Indices 1 2 3 4 5 6 
#
# 1 0.010628 -0.000806 -0.006954 0.000000 0.000000 0.000000
# 2 -0.000806 0.011659 -0.002391 0.000000 0.000000 0.000000
# 3 -0.006954 -0.002391 0.025571 0.000000 0.000000 0.000000
# 4 0.000000 0.000000 0.000000 0.011465 0.000000 0.000000
# 5 0.000000 0.000000 0.000000 0.000000 0.057241 0.000000
# 6 0.000000 0.000000 0.000000 0.000000 0.000000 0.157209
#
#
# Mechanical properties :
#
#
# Convention : Reuss Voigt Hill
#
# Bulk Modulus (GPa) = 36.29130 41.84181 39.06656
# Shear Modulus (GPa) = 16.48749 35.21615 25.85182
#
# Velocity S-wave (km/s) = 2.96654 4.33555 3.71465
# Velocity P-wave (km/s) = 5.57715 6.88448 6.26501
#
# Compressibility (1/GPa) = 0.02755481
#
# Stress axis : x y z
#
# Youngs Moduli (GPa) = 94.09549 85.76909 39.10673
#
# Poissons Ratio (x) = 0.06911 0.27197
# Poissons Ratio (y) = 0.07582 0.09351
# Poissons Ratio (z) = 0.65439 0.20510
#
# Static dielectric constant tensor:
#      x y z
#    x 1.646400 0.000000 0.000000 
#    y 0.000000 1.668110 0.000000 
#    z 0.000000 0.000000 1.624790 
# 
# From -- ./inp_files/36710.got.cif
#   From: 2010.05.17/outbox.cif.g08.bks.cpg/sg71_19_cif.got.tgz:36710.got - 2010.06.03 16:22:01.
