data_PCOD9523263
_publ_section_title
;
Structure prediction by ZEFSAII (Michael W. Deem and Ramdas Pophale) SiO2 
 PCOD9523263
Probable space group: I M M M
;
_chemical_formula_sum "Si O2"
_cell_formula_units_Z 88
_cell_length_a 8.376268
_cell_length_b 28.285902
_cell_length_c 18.818597
_cell_angle_alpha 90.000000
_cell_angle_beta 90.000000
_cell_angle_gamma 90.000000
_cell_volume 4458.695753
_symmetry_space_group_name_H-M "I M M M"
_symmetry_group_IT_number 71
_symmetry_cell_setting 'orthorhombic'
loop_
_space_group_symop_operation_xyz
x,y,z
-x,-y,z
x,-y,-z
-x,y,-z
-x,-y,-z
x,y,-z
-x,y,z
x,-y,z
1/2+x,1/2+y,1/2+z
1/2-x,1/2-y,1/2+z
1/2+x,1/2-y,1/2-z
1/2-x,1/2+y,1/2-z
1/2-x,1/2-y,1/2-z
1/2+x,1/2+y,1/2-z
1/2-x,1/2+y,1/2+z
1/2+x,1/2-y,1/2+z
loop_
_atom_site_type_symbol
_atom_site_label
_atom_site_fract_x
_atom_site_fract_y
_atom_site_fract_z
Si Si1 0.694336 0.554129 0.423590
Si Si2 0.309453 0.902038 0.652796
Si Si3 0.690878 0.500000 0.916867
Si Si4 0.191473 0.873373 0.808124
Si Si5 0.818168 0.306265 0.084492
Si Si6 0.811524 0.704504 0.582905
O O1 0.745729 0.573727 0.500000
O O2 0.500000 0.554735 0.422937
O O3 0.744144 0.500000 0.418765
O O4 0.749942 0.584463 0.358783
O O5 0.500000 0.905541 0.645276
O O6 0.266623 0.885053 0.732242
O O7 0.251339 0.856886 0.607356
O O8 0.242706 0.952198 0.624923
O O9 0.500000 0.500000 0.919170
O O10 0.749079 0.500000 0.000000
O O11 0.233850 0.827521 0.855597
O O12 0.000000 0.874639 0.799864
O O13 0.721241 0.259201 0.102535
O O14 0.000000 0.301496 0.113099
O O15 0.827661 0.306839 0.000000
O O16 0.752966 0.696938 0.500000
O O17 0.000000 0.695382 0.582439
#
# Coordination Sequence:
#
# PCOD9523263 Si02
#       6
#    16  16   8  16  16  16
#     4   8  15  29  50  76 105 142 191 243 289 337
#     4  11  24  41  62  90 123 159 196 245 308 363
#     4  11  25  45  69  95 122 155 200 249 295 357
#     4  11  22  35  56  85 120 161 201 246 297 357
#     4   9  19  38  63  87 112 148 198 249 298 360
#     4  10  21  37  59  87 120 158 200 249 302 356
#
# _framework density 19.736713999999999
#
# number of rings (size 3 to 8) (size 9 to 14) (size 15 to 20)
#    0.000    2.091    0.000    3.545    1.273    5.455 
#    0.000    1.818    0.000    0.000    0.000    3.818 
#    0.000    0.000    0.000    0.000    0.000    0.000 
#
# Total GULP energy -245234.595512 kJ/mol
# GULP energy per Si atom -5573.513534 kJ/mol
# Density = 1.969179 g / cm^3
# Si number density = 19.736714 Si / 1000 Ang^3
#
#
#
# Elastic Constant Matrix: (Units=GPa)
#
#
# Indices 1 2 3 4 5 6 
#
# 1 24.6470 14.3796 17.3173 0.0000 0.0000 0.0000
# 2 14.3796 130.5695 63.3222 0.0000 0.0000 0.0000
# 3 17.3173 63.3222 83.9461 -0.0002 0.0000 0.0000
# 4 0.0000 0.0000 -0.0002 67.0328 0.0000 0.0000
# 5 0.0000 0.0000 0.0000 0.0000 26.9487 0.0000
# 6 0.0000 0.0000 0.0000 0.0000 0.0000 17.8687
#
#
#
# Elastic Compliance Matrix: (Units=1/GPa)
#
#
# Indices 1 2 3 4 5 6 
#
# 1 0.047498 -0.000755 -0.009229 0.000000 0.000000 0.000000
# 2 -0.000755 0.012089 -0.008963 0.000000 0.000000 0.000000
# 3 -0.009229 -0.008963 0.020577 0.000000 0.000000 0.000000
# 4 0.000000 0.000000 0.000000 0.014918 0.000000 0.000000
# 5 0.000000 0.000000 0.000000 0.000000 0.037108 0.000000
# 6 0.000000 0.000000 0.000000 0.000000 0.000000 0.055964
#
#
# Mechanical properties :
#
#
# Convention : Reuss Voigt Hill
#
# Bulk Modulus (GPa) = 23.65754 47.68898 35.67326
# Shear Modulus (GPa) = 20.82150 31.97960 26.40055
#
# Velocity S-wave (km/s) = 3.25154 4.02967 3.66134
# Velocity P-wave (km/s) = 5.10973 6.77245 5.99897
#
# Compressibility (1/GPa) = 0.04226982
#
# Stress axis : x y z
#
# Youngs Moduli (GPa) = 21.05365 82.72195 48.59773
#
# Poissons Ratio (x) = 0.06248 0.44849
# Poissons Ratio (y) = 0.01590 0.43558
# Poissons Ratio (z) = 0.19430 0.74143
#
# Static dielectric constant tensor:
#      x y z
#    x 1.699510 0.000000 0.000000 
#    y 0.000000 1.695010 0.000000 
#    z 0.000000 0.000000 1.742980 
# 
# From -- ./inp_files/42511.got.cif
#   From: 2010.05.17/outbox.cif.g08.bks.cpg/sg71_22_cif.got.tgz:42511.got - 2010.06.03 16:22:01.
