data_PCOD9523609
_publ_section_title
;
Structure prediction by ZEFSAII (Michael W. Deem and Ramdas Pophale) SiO2 
 PCOD9523609
Probable space group: I M M M
;
_chemical_formula_sum "Si O2"
_cell_formula_units_Z 34
_cell_length_a 15.866727
_cell_length_b 17.536847
_cell_length_c 5.447144
_cell_angle_alpha 90.000000
_cell_angle_beta 90.000000
_cell_angle_gamma 90.000000
_cell_volume 1515.680694
_symmetry_space_group_name_H-M "I M M M"
_symmetry_group_IT_number 71
_symmetry_cell_setting 'orthorhombic'
loop_
_space_group_symop_operation_xyz
x,y,z
-x,-y,z
x,-y,-z
-x,y,-z
-x,-y,-z
x,y,-z
-x,y,z
x,-y,z
1/2+x,1/2+y,1/2+z
1/2-x,1/2-y,1/2+z
1/2+x,1/2-y,1/2-z
1/2-x,1/2+y,1/2-z
1/2-x,1/2-y,1/2-z
1/2+x,1/2+y,1/2-z
1/2-x,1/2+y,1/2+z
1/2+x,1/2-y,1/2+z
loop_
_atom_site_type_symbol
_atom_site_label
_atom_site_fract_x
_atom_site_fract_y
_atom_site_fract_z
Si Si1 0.816370 0.800051 0.000000
Si Si2 0.595362 0.144634 0.500000
Si Si3 0.000000 0.000000 0.500000
Si Si4 0.839531 0.586068 0.500000
Si Si5 0.408446 0.656471 0.000000
O O1 0.831158 0.709224 0.000000
O O2 0.861891 0.824424 0.250480
O O3 0.728815 0.845329 0.000000
O O4 0.500000 0.177473 0.500000
O O5 0.608283 0.097495 0.250240
O O6 0.928753 0.067185 0.500000
O O7 0.802555 0.500000 0.500000
O O8 0.500000 0.696981 0.000000
#
# Coordination Sequence:
#
# PCOD9523609 Si02
#       5
#     8   8   2   8   8
#     4  12  24  44  71 100 139 176 231 287 347 408
#     4  12  26  48  73 101 138 183 235 284 339 412
#     4   8  24  34  60  98 152 178 228 270 340 414
#     4  12  28  45  73 104 139 181 228 289 351 404
#     4  10  22  36  62  97 140 185 227 265 338 409
#
# _framework density 22.432162999999999
#
# number of rings (size 3 to 8) (size 9 to 14) (size 15 to 20)
#    0.706    0.000    0.000    7.765    3.294    3.765 
#    0.000    0.000    0.000    0.000    0.000    0.000 
#    0.000    0.000    0.000    0.000    0.000    0.000 
#
# Total GULP energy -94704.433678 kJ/mol
# GULP energy per Si atom -5570.849040 kJ/mol
# Density = 2.238111 g / cm^3
# Si number density = 22.432163 Si / 1000 Ang^3
#
#
#
# Elastic Constant Matrix: (Units=GPa)
#
#
# Indices 1 2 3 4 5 6 
#
# 1 97.4227 0.2693 54.4365 0.0000 0.0000 0.0000
# 2 0.2693 109.6331 37.5592 0.0000 0.0000 0.0000
# 3 54.4365 37.5592 240.1228 0.0000 0.0000 0.0000
# 4 0.0000 0.0000 0.0000 1.0380 0.0000 0.0000
# 5 0.0000 0.0000 0.0000 0.0000 10.5568 0.0000
# 6 0.0000 0.0000 0.0000 0.0000 0.0000 36.7402
#
#
#
# Elastic Compliance Matrix: (Units=1/GPa)
#
#
# Indices 1 2 3 4 5 6 
#
# 1 0.011845 0.000941 -0.002832 0.000000 0.000000 0.000000
# 2 0.000941 0.009713 -0.001733 0.000000 0.000000 0.000000
# 3 -0.002832 -0.001733 0.005078 0.000000 0.000000 0.000000
# 4 0.000000 0.000000 0.000000 0.963389 0.000000 0.000000
# 5 0.000000 0.000000 0.000000 0.000000 0.094726 0.000000
# 6 0.000000 0.000000 0.000000 0.000000 0.000000 0.027218
#
#
# Mechanical properties :
#
#
# Convention : Reuss Voigt Hill
#
# Bulk Modulus (GPa) = 51.58008 70.18987 60.88498
# Shear Modulus (GPa) = 4.44177 33.32789 18.88483
#
# Velocity S-wave (km/s) = 1.40868 3.85868 2.90464
# Velocity P-wave (km/s) = 5.06849 7.15614 6.20080
#
# Compressibility (1/GPa) = 0.01938733
#
# Stress axis : x y z
#
# Youngs Moduli (GPa) = 84.42654 102.95915 196.94089
#
# Poissons Ratio (x) = -0.09691 0.55782
# Poissons Ratio (y) = -0.07947 0.34122
# Poissons Ratio (z) = 0.23913 0.17839
#
# Static dielectric constant tensor:
#      x y z
#    x 1.859660 0.000000 0.000000 
#    y 0.000000 1.796020 0.000000 
#    z 0.000000 0.000000 1.752290 
# 
# From -- ./inp_files/472.got.cif
#   From: 2010.05.17/outbox.cif.g08.bks.cpg/sg71_1_cif.got.tgz:472.got - 2010.06.03 16:22:01.
