data_PCOD9523597
_publ_section_title
;
Structure prediction by ZEFSAII (Michael W. Deem and Ramdas Pophale) SiO2 
 PCOD9523597
Probable space group: I M M M
;
_chemical_formula_sum "Si O2"
_cell_formula_units_Z 82
_cell_length_a 21.205035
_cell_length_b 24.456485
_cell_length_c 10.254060
_cell_angle_alpha 90.000000
_cell_angle_beta 90.000000
_cell_angle_gamma 90.000000
_cell_volume 5317.761878
_symmetry_space_group_name_H-M "I M M M"
_symmetry_group_IT_number 71
_symmetry_cell_setting 'orthorhombic'
loop_
_space_group_symop_operation_xyz
x,y,z
-x,-y,z
x,-y,-z
-x,y,-z
-x,-y,-z
x,y,-z
-x,y,z
x,-y,z
1/2+x,1/2+y,1/2+z
1/2-x,1/2-y,1/2+z
1/2+x,1/2-y,1/2-z
1/2-x,1/2+y,1/2-z
1/2-x,1/2-y,1/2-z
1/2+x,1/2+y,1/2-z
1/2-x,1/2+y,1/2+z
1/2+x,1/2-y,1/2+z
loop_
_atom_site_type_symbol
_atom_site_label
_atom_site_fract_x
_atom_site_fract_y
_atom_site_fract_z
Si Si1 0.000000 0.000000 0.500000
Si Si2 0.854971 0.233930 0.239291
Si Si3 0.616256 0.414403 0.000000
Si Si4 0.216522 0.062199 0.272621
Si Si5 0.575122 0.675018 0.500000
Si Si6 0.144625 0.937862 0.000000
Si Si7 0.574952 0.287702 0.000000
Si Si8 0.232234 0.671259 0.155320
O O1 0.944470 0.952659 0.500000
O O2 0.894032 0.203756 0.126359
O O3 0.895766 0.238132 0.369898
O O4 0.827419 0.291947 0.192897
O O5 0.793434 0.197644 0.274961
O O6 0.659758 0.426655 0.874590
O O7 0.595590 0.351407 0.000000
O O8 0.268146 0.108402 0.300811
O O9 0.238505 0.000000 0.290957
O O10 0.187531 0.067633 0.128502
O O11 0.500000 0.680826 0.500000
O O12 0.594451 0.611038 0.500000
O O13 0.117753 0.000000 0.000000
O O14 0.500000 0.284041 0.000000
O O15 0.241726 0.674256 0.000000
#
# Coordination Sequence:
#
# PCOD9523597 Si02
#       8
#     2  16   8  16   8   8   8  16
#     4  12  24  32  52  74 104 152 192 246 236 272
#     4  11  22  35  52  80 100 135 183 216 280 312
#     4  12  20  35  49  75 100 140 195 221 252 292
#     4  11  20  34  54  75 104 136 175 223 264 308
#     4  12  22  37  51  71 106 146 183 221 257 311
#     4  10  22  36  47  71 106 138 182 220 249 299
#     4  12  22  36  54  75 110 142 182 223 252 316
#     4  11  20  34  58  76 104 131 174 233 268 321
#
# _framework density 15.420021999999999
#
# number of rings (size 3 to 8) (size 9 to 14) (size 15 to 20)
#    0.000    0.780    8.293    0.585    0.000    0.976 
#    1.756    0.000    0.000    0.000    0.000    0.000 
#    0.000    4.683    0.000    0.000    0.000    0.000 
#
# Total GULP energy -228685.951512 kJ/mol
# GULP energy per Si atom -5577.706134 kJ/mol
# Density = 1.538493 g / cm^3
# Si number density = 15.420022 Si / 1000 Ang^3
#
#
#
# Elastic Constant Matrix: (Units=GPa)
#
#
# Indices 1 2 3 4 5 6 
#
# 1 70.8364 69.0286 43.2356 0.0000 0.0000 0.0000
# 2 69.0286 136.4962 50.3841 0.0000 0.0000 0.0000
# 3 43.2356 50.3841 125.3860 0.0000 0.0000 0.0000
# 4 0.0000 0.0000 0.0000 37.4798 0.0000 0.0000
# 5 0.0000 0.0000 0.0000 0.0000 9.2920 0.0000
# 6 0.0000 0.0000 0.0000 0.0000 0.0000 23.5361
#
#
#
# Elastic Compliance Matrix: (Units=1/GPa)
#
#
# Indices 1 2 3 4 5 6 
#
# 1 0.030326 -0.013475 -0.005042 0.000000 0.000000 0.000000
# 2 -0.013475 0.014590 -0.001216 0.000000 0.000000 0.000000
# 3 -0.005042 -0.001216 0.010203 0.000000 0.000000 0.000000
# 4 0.000000 0.000000 0.000000 0.026681 0.000000 0.000000
# 5 0.000000 0.000000 0.000000 0.000000 0.107620 0.000000
# 6 0.000000 0.000000 0.000000 0.000000 0.000000 0.042488
#
#
# Mechanical properties :
#
#
# Convention : Reuss Voigt Hill
#
# Bulk Modulus (GPa) = 63.89232 73.11279 68.50256
# Shear Modulus (GPa) = 18.07725 25.39960 21.73843
#
# Velocity S-wave (km/s) = 3.42764 4.06295 3.75874
# Velocity P-wave (km/s) = 7.56237 8.33830 7.95980
#
# Compressibility (1/GPa) = 0.01565133
#
# Stress axis : x y z
#
# Youngs Moduli (GPa) = 32.97520 68.54144 98.01314
#
# Poissons Ratio (x) = 0.92360 0.49420
# Poissons Ratio (y) = 0.44434 0.11920
# Poissons Ratio (z) = 0.16627 0.08335
#
# Static dielectric constant tensor:
#      x y z
#    x 1.472630 0.000000 0.000000 
#    y 0.000000 1.536510 0.000000 
#    z 0.000000 0.000000 1.524260 
# 
# From -- ./inp_files/10359.got.cif
#   From: 2010.05.17/outbox.cif.g08.bks.cpg/sg71_6_cif.got.tgz:10359.got - 2010.06.03 16:22:01.
