data_PCOD9523933
_publ_section_title
;
Structure prediction by ZEFSAII (Michael W. Deem and Ramdas Pophale) SiO2 
 PCOD9523933
Probable space group: I M M M
;
_chemical_formula_sum "Si O2"
_cell_formula_units_Z 58
_cell_length_a 14.073911
_cell_length_b 25.793797
_cell_length_c 8.667265
_cell_angle_alpha 90.000000
_cell_angle_beta 90.000000
_cell_angle_gamma 90.000000
_cell_volume 3146.387102
_symmetry_space_group_name_H-M "I M M M"
_symmetry_group_IT_number 71
_symmetry_cell_setting 'orthorhombic'
loop_
_space_group_symop_operation_xyz
x,y,z
-x,-y,z
x,-y,-z
-x,y,-z
-x,-y,-z
x,y,-z
-x,y,z
x,-y,z
1/2+x,1/2+y,1/2+z
1/2-x,1/2-y,1/2+z
1/2+x,1/2-y,1/2-z
1/2-x,1/2+y,1/2-z
1/2-x,1/2-y,1/2-z
1/2+x,1/2+y,1/2-z
1/2-x,1/2+y,1/2+z
1/2+x,1/2-y,1/2+z
loop_
_atom_site_type_symbol
_atom_site_label
_atom_site_fract_x
_atom_site_fract_y
_atom_site_fract_z
Si Si1 0.806539 0.201303 0.315418
Si Si2 0.797629 0.399241 0.684274
Si Si3 0.500000 0.500000 0.000000
Si Si4 0.701324 0.500000 0.171408
Si Si5 0.000000 0.242532 0.814231
Si Si6 0.000000 0.634065 0.185614
O O1 0.801723 0.199429 0.500000
O O2 0.750000 0.250000 0.250000
O O3 0.760987 0.149861 0.246406
O O4 0.911175 0.212632 0.255790
O O5 0.802499 0.398653 0.500000
O O6 0.741185 0.449713 0.742072
O O7 0.904452 0.392566 0.750434
O O8 0.587509 0.500000 0.866715
O O9 0.746004 0.500000 0.000000
O O10 0.000000 0.304099 0.771848
O O11 0.000000 0.240309 0.000000
O O12 0.000000 0.631643 0.000000
#
# Coordination Sequence:
#
# PCOD9523933 Si02
#       6
#    16  16   2   8   8   8
#     4  12  24  40  63  94 133 181 228 279 338 406
#     4  12  25  43  69 101 140 177 226 281 342 406
#     4   8  24  48  82  94 132 168 230 280 332 388
#     4  10  23  48  74 100 129 175 222 281 335 396
#     4  11  23  40  63  94 132 176 231 282 342 403
#     4  11  23  40  67 100 138 183 224 276 338 408
#
# _framework density 18.433841999999999
#
# number of rings (size 3 to 8) (size 9 to 14) (size 15 to 20)
#    0.414    0.276    2.759    6.207    0.000    2.759 
#    0.000    5.517    0.000    0.000    0.000    0.000 
#    0.000    0.000    0.000    0.000    0.000    0.000 
#
# Total GULP energy -161734.604273 kJ/mol
# GULP energy per Si atom -5577.055320 kJ/mol
# Density = 1.839189 g / cm^3
# Si number density = 18.433842 Si / 1000 Ang^3
#
#
#
# Elastic Constant Matrix: (Units=GPa)
#
#
# Indices 1 2 3 4 5 6 
#
# 1 216.0344 96.2259 78.7489 0.0000 0.0000 0.0000
# 2 96.2259 165.4651 71.0408 -0.0004 -0.0001 0.0000
# 3 78.7489 71.0408 171.6863 -0.0013 -0.0003 0.0000
# 4 0.0000 -0.0004 -0.0013 32.6750 -0.0001 0.0000
# 5 0.0000 -0.0001 -0.0003 -0.0001 30.7252 0.0000
# 6 0.0000 0.0000 0.0000 0.0000 0.0000 18.3954
#
#
#
# Elastic Compliance Matrix: (Units=1/GPa)
#
#
# Indices 1 2 3 4 5 6 
#
# 1 0.006660 -0.003115 -0.001766 0.000000 0.000000 0.000000
# 2 -0.003115 0.008806 -0.002215 0.000000 0.000000 0.000000
# 3 -0.001766 -0.002215 0.007551 0.000000 0.000000 0.000000
# 4 0.000000 0.000000 0.000000 0.030604 0.000000 0.000000
# 5 0.000000 0.000000 0.000000 0.000000 0.032547 0.000000
# 6 0.000000 0.000000 0.000000 0.000000 0.000000 0.054361
#
#
# Mechanical properties :
#
#
# Convention : Reuss Voigt Hill
#
# Bulk Modulus (GPa) = 113.30902 116.13523 114.72213
# Shear Modulus (GPa) = 31.71318 36.83715 34.27516
#
# Velocity S-wave (km/s) = 4.15224 4.47513 4.31671
# Velocity P-wave (km/s) = 9.19726 9.47841 9.33889
#
# Compressibility (1/GPa) = 0.00882542
#
# Stress axis : x y z
#
# Youngs Moduli (GPa) = 150.14855 113.55798 132.43090
#
# Poissons Ratio (x) = 0.35373 0.23386
# Poissons Ratio (y) = 0.46771 0.29334
# Poissons Ratio (z) = 0.26515 0.25153
#
# Static dielectric constant tensor:
#      x y z
#    x 1.569760 0.000000 0.000000 
#    y 0.000000 1.609160 0.000000 
#    z 0.000000 0.000000 1.615620 
# 
# From -- ./inp_files/5146.got.cif
#   From: 2010.05.17/outbox.cif.g08.bks.cpg/sg71_3_cif.got.tgz:5146.got - 2010.06.03 16:22:01.
