data_PCOD9523868
_publ_section_title
;
Structure prediction by ZEFSAII (Michael W. Deem and Ramdas Pophale) SiO2 
 PCOD9523868
Probable space group: I M M M
;
_chemical_formula_sum "Si O2"
_cell_formula_units_Z 68
_cell_length_a 20.942890
_cell_length_b 9.015519
_cell_length_c 18.716359
_cell_angle_alpha 90.000000
_cell_angle_beta 90.000000
_cell_angle_gamma 90.000000
_cell_volume 3533.854884
_symmetry_space_group_name_H-M "I M M M"
_symmetry_group_IT_number 71
_symmetry_cell_setting 'orthorhombic'
loop_
_space_group_symop_operation_xyz
x,y,z
-x,-y,z
x,-y,-z
-x,y,-z
-x,-y,-z
x,y,-z
-x,y,z
x,-y,z
1/2+x,1/2+y,1/2+z
1/2-x,1/2-y,1/2+z
1/2+x,1/2-y,1/2-z
1/2-x,1/2+y,1/2-z
1/2-x,1/2-y,1/2-z
1/2+x,1/2+y,1/2-z
1/2-x,1/2+y,1/2+z
1/2+x,1/2-y,1/2+z
loop_
_atom_site_type_symbol
_atom_site_label
_atom_site_fract_x
_atom_site_fract_y
_atom_site_fract_z
Si Si1 0.370507 0.835804 0.700443
Si Si2 0.426079 0.832577 0.914132
Si Si3 0.500000 0.000000 0.729463
Si Si4 0.303914 0.677420 0.584057
Si Si5 0.683745 0.674695 0.836609
O O1 0.363500 0.744781 0.627435
O O2 0.330727 0.750793 0.760761
O O3 0.341768 0.000000 0.688981
O O4 0.442581 0.872317 0.724815
O O5 0.500000 0.815285 0.893005
O O6 0.379528 0.712645 0.882215
O O7 0.406493 0.000000 0.890604
O O8 0.423453 0.830119 0.000000
O O9 0.305052 0.713630 0.500000
O O10 0.301339 0.500000 0.591344
O O11 0.242060 0.749078 0.621723
O O12 0.692228 0.500000 0.829208
#
# Coordination Sequence:
#
# PCOD9523868 Si02
#       5
#    16  16   4  16  16
#     4  10  22  43  67  93 124 164 214 262 316 382
#     4   9  19  35  54  78 115 165 214 259 311 376
#     4   8  24  44  71  98 121 174 216 260 330 380
#     4  11  24  43  66  94 129 170 214 266 324 384
#     4  12  24  36  59  93 130 168 210 261 318 376
#
# _framework density 19.242442
#
# number of rings (size 3 to 8) (size 9 to 14) (size 15 to 20)
#    0.706    0.941    0.000    5.647    1.647    5.647 
#    0.000    4.118    0.000    1.412    0.000    0.000 
#    0.000    0.000    0.000    0.000    0.000    0.000 
#
# Total GULP energy -189342.680968 kJ/mol
# GULP energy per Si atom -5568.902381 kJ/mol
# Density = 1.919865 g / cm^3
# Si number density = 19.242442 Si / 1000 Ang^3
#
#
#
# Elastic Constant Matrix: (Units=GPa)
#
#
# Indices 1 2 3 4 5 6 
#
# 1 64.7426 26.9303 26.8736 0.0000 0.0000 0.0000
# 2 26.9303 104.4235 54.0080 0.0000 0.0000 0.0000
# 3 26.8736 54.0080 114.9445 0.0000 0.0000 0.0000
# 4 0.0000 0.0000 0.0000 30.4978 0.0000 0.0000
# 5 0.0000 0.0000 0.0000 0.0000 18.0691 0.0000
# 6 0.0000 0.0000 0.0000 0.0000 0.0000 37.6733
#
#
#
# Elastic Compliance Matrix: (Units=1/GPa)
#
#
# Indices 1 2 3 4 5 6 
#
# 1 0.017898 -0.003239 -0.002663 0.000000 0.000000 0.000000
# 2 -0.003239 0.013237 -0.005462 0.000000 0.000000 0.000000
# 3 -0.002663 -0.005462 0.011889 0.000000 0.000000 0.000000
# 4 0.000000 0.000000 0.000000 0.032789 0.000000 0.000000
# 5 0.000000 0.000000 0.000000 0.000000 0.055343 0.000000
# 6 0.000000 0.000000 0.000000 0.000000 0.000000 0.026544
#
#
# Mechanical properties :
#
#
# Convention : Reuss Voigt Hill
#
# Bulk Modulus (GPa) = 49.26975 55.52602 52.39788
# Shear Modulus (GPa) = 26.71039 29.00129 27.85584
#
# Velocity S-wave (km/s) = 3.72976 3.88642 3.80889
# Velocity P-wave (km/s) = 6.64894 7.00412 6.82884
#
# Compressibility (1/GPa) = 0.02029643
#
# Stress axis : x y z
#
# Youngs Moduli (GPa) = 55.87148 75.54759 84.11208
#
# Poissons Ratio (x) = 0.24467 0.22398
# Poissons Ratio (y) = 0.18095 0.45944
# Poissons Ratio (z) = 0.14878 0.41266
#
# Static dielectric constant tensor:
#      x y z
#    x 1.678510 0.000000 0.000000 
#    y 0.000000 1.650130 0.000000 
#    z 0.000000 0.000000 1.716410 
# 
# From -- ./inp_files/47913.got.cif
#   From: 2010.05.17/outbox.cif.g08.bks.cpg/sg71_24_cif.got.tgz:47913.got - 2010.06.03 16:22:01.
