data_PCOD9523360
_publ_section_title
;
Structure prediction by ZEFSAII (Michael W. Deem and Ramdas Pophale) SiO2 
 PCOD9523360
Probable space group: I M M M
;
_chemical_formula_sum "Si O2"
_cell_formula_units_Z 104
_cell_length_a 18.882040
_cell_length_b 29.022406
_cell_length_c 9.503954
_cell_angle_alpha 90.000000
_cell_angle_beta 90.000000
_cell_angle_gamma 90.000000
_cell_volume 5208.187995
_symmetry_space_group_name_H-M "I M M M"
_symmetry_group_IT_number 71
_symmetry_cell_setting 'orthorhombic'
loop_
_space_group_symop_operation_xyz
x,y,z
-x,-y,z
x,-y,-z
-x,y,-z
-x,-y,-z
x,y,-z
-x,y,z
x,-y,z
1/2+x,1/2+y,1/2+z
1/2-x,1/2-y,1/2+z
1/2+x,1/2-y,1/2-z
1/2-x,1/2+y,1/2-z
1/2-x,1/2-y,1/2-z
1/2+x,1/2+y,1/2-z
1/2-x,1/2+y,1/2+z
1/2+x,1/2-y,1/2+z
loop_
_atom_site_type_symbol
_atom_site_label
_atom_site_fract_x
_atom_site_fract_y
_atom_site_fract_z
Si Si1 0.914973 0.379675 0.164923
Si Si2 0.259421 0.228392 0.500000
Si Si3 0.812106 0.555133 0.665499
Si Si4 0.583796 0.209545 0.841378
Si Si5 0.669097 0.554931 0.163703
Si Si6 0.581794 0.622391 0.662457
Si Si7 0.819664 0.793252 0.752377
O O1 0.873608 0.417042 0.256052
O O2 0.898065 0.329136 0.227200
O O3 0.000000 0.385616 0.179222
O O4 0.897174 0.382167 0.000000
O O5 0.232892 0.193586 0.626663
O O6 0.281926 0.266513 0.378527
O O7 0.808608 0.566869 0.500000
O O8 0.823715 0.500000 0.677087
O O9 0.738736 0.566080 0.744281
O O10 0.500000 0.218900 0.829919
O O11 0.627556 0.255669 0.818286
O O12 0.598020 0.192219 0.000000
O O13 0.658361 0.500000 0.172760
O O14 0.604519 0.582190 0.232415
O O15 0.679353 0.566811 0.000000
O O16 0.590123 0.607547 0.500000
O O17 0.500000 0.636189 0.682846
O O18 0.633780 0.664917 0.691895
#
# Coordination Sequence:
#
# PCOD9523360 Si02
#       7
#    16   8  16  16  16  16  16
#     4  10  22  38  57  88 124 163 212 261 315 376
#     4  10  24  38  62  84 128 162 206 254 320 370
#     4  10  21  39  64  91 121 164 209 257 319 386
#     4  10  21  38  60  83 116 162 207 253 304 364
#     4  10  23  44  68  97 130 164 210 268 329 393
#     4  11  25  44  68  97 131 173 217 267 325 385
#     4  11  22  44  60  93 123 168 208 262 307 379
#
# _framework density 19.968557000000001
#
# number of rings (size 3 to 8) (size 9 to 14) (size 15 to 20)
#    0.000    1.692    1.538    1.846    2.154    6.154 
#    2.769    3.077    0.000    0.000    0.000    0.000 
#    0.000    0.000    0.000    0.000    0.000    0.000 
#
# Total GULP energy -289583.791401 kJ/mol
# GULP energy per Si atom -5568.919065 kJ/mol
# Density = 1.992311 g / cm^3
# Si number density = 19.968557 Si / 1000 Ang^3
#
#
#
# Elastic Constant Matrix: (Units=GPa)
#
#
# Indices 1 2 3 4 5 6 
#
# 1 48.4152 21.5055 40.1896 0.0000 0.0000 0.0000
# 2 21.5055 35.1117 25.0482 0.0000 0.0000 0.0000
# 3 40.1896 25.0482 149.4323 -0.0002 -0.0002 0.0000
# 4 0.0000 0.0000 -0.0002 28.9103 0.0000 0.0000
# 5 0.0000 0.0000 -0.0002 0.0000 37.6903 0.0000
# 6 0.0000 0.0000 0.0000 0.0000 0.0000 33.6949
#
#
#
# Elastic Compliance Matrix: (Units=1/GPa)
#
#
# Indices 1 2 3 4 5 6 
#
# 1 0.032733 -0.015638 -0.006182 0.000000 0.000000 0.000000
# 2 -0.015638 0.039820 -0.002469 0.000000 0.000000 0.000000
# 3 -0.006182 -0.002469 0.008769 0.000000 0.000000 0.000000
# 4 0.000000 0.000000 0.000000 0.034590 0.000000 0.000000
# 5 0.000000 0.000000 0.000000 0.000000 0.026532 0.000000
# 6 0.000000 0.000000 0.000000 0.000000 0.000000 0.029678
#
#
# Mechanical properties :
#
#
# Convention : Reuss Voigt Hill
#
# Bulk Modulus (GPa) = 30.54095 45.16064 37.85079
# Shear Modulus (GPa) = 21.58765 29.80682 25.69724
#
# Velocity S-wave (km/s) = 3.29155 3.86772 3.59121
# Velocity P-wave (km/s) = 5.45650 6.52769 6.01598
#
# Compressibility (1/GPa) = 0.03274293
#
# Stress axis : x y z
#
# Youngs Moduli (GPa) = 30.55037 25.11301 114.04456
#
# Poissons Ratio (x) = 0.39272 0.70504
# Poissons Ratio (y) = 0.47775 0.28156
# Poissons Ratio (z) = 0.18887 0.06200
#
# Static dielectric constant tensor:
#      x y z
#    x 1.746250 0.000000 0.000000 
#    y 0.000000 1.685460 0.000000 
#    z 0.000000 0.000000 1.686460 
# 
# From -- ./inp_files/11129.got.cif
#   From: 2010.05.17/outbox.cif.g08.bks.cpg/sg71_6_cif.got.tgz:11129.got - 2010.06.03 16:22:01.
