data_PCOD9523041
_publ_section_title
;
Structure prediction by ZEFSAII (Michael W. Deem and Ramdas Pophale) SiO2 
 PCOD9523041
Probable space group: I M M M
;
_chemical_formula_sum "Si O2"
_cell_formula_units_Z 72
_cell_length_a 7.922213
_cell_length_b 28.900051
_cell_length_c 13.953081
_cell_angle_alpha 90.000000
_cell_angle_beta 90.000000
_cell_angle_gamma 90.000000
_cell_volume 3194.590820
_symmetry_space_group_name_H-M "I M M M"
_symmetry_group_IT_number 71
_symmetry_cell_setting 'orthorhombic'
loop_
_space_group_symop_operation_xyz
x,y,z
-x,-y,z
x,-y,-z
-x,y,-z
-x,-y,-z
x,y,-z
-x,y,z
x,-y,z
1/2+x,1/2+y,1/2+z
1/2-x,1/2-y,1/2+z
1/2+x,1/2-y,1/2-z
1/2-x,1/2+y,1/2-z
1/2-x,1/2-y,1/2-z
1/2+x,1/2+y,1/2-z
1/2-x,1/2+y,1/2+z
1/2+x,1/2-y,1/2+z
loop_
_atom_site_type_symbol
_atom_site_label
_atom_site_fract_x
_atom_site_fract_y
_atom_site_fract_z
Si Si1 0.302561 0.095696 0.798353
Si Si2 0.305656 0.500000 0.386092
Si Si3 0.706045 0.053763 0.606570
Si Si4 0.802802 0.192182 0.815832
Si Si5 0.197278 0.214096 0.395558
O O1 0.500000 0.106526 0.793121
O O2 0.233095 0.086372 0.691199
O O3 0.215968 0.139353 0.847149
O O4 0.279816 0.046690 0.849502
O O5 0.500000 0.500000 0.352882
O O6 0.302848 0.500000 0.500000
O O7 0.760545 0.067176 0.500000
O O8 0.500000 0.054305 0.608578
O O9 0.754434 0.000000 0.623232
O O10 0.733720 0.194884 0.705764
O O11 0.713388 0.230541 0.880131
O O12 0.000000 0.204932 0.813764
O O13 0.271635 0.201356 0.500000
O O14 0.000000 0.201452 0.397868
#
# Coordination Sequence:
#
# PCOD9523041 Si02
#       5
#    16   8  16  16  16
#     4  11  21  36  59  85 113 149 190 231 275 330
#     4  11  25  43  60  79 108 148 193 241 288 327
#     4   8  14  27  49  77 107 138 175 219 265 315
#     4  10  21  36  56  85 117 148 183 230 284 336
#     4   9  19  38  61  83 111 148 188 231 279 334
#
# _framework density 22.538098999999999
#
# number of rings (size 3 to 8) (size 9 to 14) (size 15 to 20)
#    0.000    2.333    1.111    2.333    0.000    4.000 
#    0.000    0.000    0.000    2.667    0.000    0.000 
#    0.000    0.000    0.000    0.000    0.000    0.000 
#
# Total GULP energy -200988.775540 kJ/mol
# GULP energy per Si atom -5583.021543 kJ/mol
# Density = 2.248680 g / cm^3
# Si number density = 22.538099 Si / 1000 Ang^3
#
#
#
# Elastic Constant Matrix: (Units=GPa)
#
#
# Indices 1 2 3 4 5 6 
#
# 1 39.2614 -8.8130 2.6986 0.0000 0.0000 0.0000
# 2 -8.8130 81.9569 -12.9780 -0.0001 0.0000 0.0000
# 3 2.6986 -12.9780 49.8704 0.0001 -0.0001 0.0000
# 4 0.0000 -0.0001 0.0001 4.6379 0.0000 0.0000
# 5 0.0000 0.0000 -0.0001 0.0000 11.3863 0.0000
# 6 0.0000 0.0000 0.0000 0.0000 0.0000 16.9452
#
#
#
# Elastic Compliance Matrix: (Units=1/GPa)
#
#
# Indices 1 2 3 4 5 6 
#
# 1 0.026125 0.002696 -0.000712 0.000000 0.000000 0.000000
# 2 0.002696 0.013004 0.003238 0.000000 0.000000 0.000000
# 3 -0.000712 0.003238 0.020933 0.000000 0.000000 0.000000
# 4 0.000000 0.000000 0.000000 0.215614 0.000000 0.000000
# 5 0.000000 0.000000 0.000000 0.000000 0.087825 0.000000
# 6 0.000000 0.000000 0.000000 0.000000 0.000000 0.059014
#
#
# Mechanical properties :
#
#
# Convention : Reuss Voigt Hill
#
# Bulk Modulus (GPa) = 14.18287 14.76710 14.47499
# Shear Modulus (GPa) = 11.47918 19.27262 15.37590
#
# Velocity S-wave (km/s) = 2.25927 2.92740 2.61476
# Velocity P-wave (km/s) = 3.62108 4.24176 3.94365
#
# Compressibility (1/GPa) = 0.07050760
#
# Stress axis : x y z
#
# Youngs Moduli (GPa) = 38.27824 76.89776 47.77097
#
# Poissons Ratio (x) = -0.20735 0.03401
# Poissons Ratio (y) = -0.10322 -0.15469
# Poissons Ratio (z) = 0.02725 -0.24901
#
# Static dielectric constant tensor:
#      x y z
#    x 1.822180 0.000000 0.000000 
#    y 0.000000 1.847790 0.000000 
#    z 0.000000 0.000000 1.867960 
# 
# From -- ./inp_files/6017.got.cif
#   From: 2010.05.17/outbox.cif.g08.bks.cpg/sg71_4_cif.got.tgz:6017.got - 2010.06.03 16:22:01.
