data_PCOD9523525
_publ_section_title
;
Structure prediction by ZEFSAII (Michael W. Deem and Ramdas Pophale) SiO2 
 PCOD9523525
Probable space group: I M M M
;
_chemical_formula_sum "Si O2"
_cell_formula_units_Z 104
_cell_length_a 26.918028
_cell_length_b 18.983622
_cell_length_c 11.424522
_cell_angle_alpha 90.000000
_cell_angle_beta 90.000000
_cell_angle_gamma 90.000000
_cell_volume 5837.949804
_symmetry_space_group_name_H-M "I M M M"
_symmetry_group_IT_number 71
_symmetry_cell_setting 'orthorhombic'
loop_
_space_group_symop_operation_xyz
x,y,z
-x,-y,z
x,-y,-z
-x,y,-z
-x,-y,-z
x,y,-z
-x,y,z
x,-y,z
1/2+x,1/2+y,1/2+z
1/2-x,1/2-y,1/2+z
1/2+x,1/2-y,1/2-z
1/2-x,1/2+y,1/2-z
1/2-x,1/2-y,1/2-z
1/2+x,1/2+y,1/2-z
1/2-x,1/2+y,1/2+z
1/2+x,1/2-y,1/2+z
loop_
_atom_site_type_symbol
_atom_site_label
_atom_site_fract_x
_atom_site_fract_y
_atom_site_fract_z
Si Si1 0.442223 0.915802 0.500000
Si Si2 0.190793 0.418817 0.362334
Si Si3 0.560187 0.582214 0.742616
Si Si4 0.614171 0.291294 0.367219
Si Si5 0.594816 0.146330 0.740442
Si Si6 0.000000 0.580802 0.361034
Si Si7 0.732582 0.703999 0.637004
Si Si8 0.943474 0.914687 0.500000
O O1 0.500000 0.891942 0.500000
O O2 0.415196 0.888024 0.614656
O O3 0.442184 0.000000 0.500000
O O4 0.177438 0.418908 0.500000
O O5 0.197976 0.500000 0.326106
O O6 0.145918 0.382824 0.292859
O O7 0.239487 0.370621 0.350216
O O8 0.500000 0.587513 0.740525
O O9 0.572131 0.500000 0.721185
O O10 0.585284 0.636611 0.656141
O O11 0.578425 0.603067 0.873986
O O12 0.603924 0.267508 0.500000
O O13 0.597405 0.229956 0.279105
O O14 0.673211 0.301951 0.355919
O O15 0.548819 0.120999 0.818341
O O16 0.000000 0.500000 0.313767
O O17 0.000000 0.577024 0.500000
O O18 0.743665 0.728613 0.500000
O O19 0.750000 0.750000 0.750000
O O20 0.000000 0.887365 0.500000
O O21 0.946523 0.000000 0.500000
#
# Coordination Sequence:
#
# PCOD9523525 Si02
#       8
#     8  16  16  16  16   8  16   8
#     4  11  22  36  56  81 114 164 207 235 281 355
#     4  10  21  39  66  93 115 149 199 248 298 359
#     4   9  19  37  60  86 118 159 202 243 292 350
#     4  11  24  39  57  86 123 158 194 247 301 349
#     4  12  22  38  58  85 122 157 195 243 295 355
#     4  11  24  41  59  83 120 156 196 254 302 348
#     4  10  21  42  64  85 118 157 195 245 305 360
#     4   7  12  30  56  79 107 145 188 236 284 335
#
# _framework density 17.814473
#
# number of rings (size 3 to 8) (size 9 to 14) (size 15 to 20)
#    0.000    1.769    3.077    2.769    1.077    2.462 
#    4.154    2.308    0.000    0.000    0.000    0.000 
#    0.000    0.000    0.000    0.000    0.000    0.000 
#
# Total GULP energy -289919.657541 kJ/mol
# GULP energy per Si atom -5575.378030 kJ/mol
# Density = 1.777393 g / cm^3
# Si number density = 17.814473 Si / 1000 Ang^3
#
#
#
# Elastic Constant Matrix: (Units=GPa)
#
#
# Indices 1 2 3 4 5 6 
#
# 1 65.7105 51.4241 31.5631 0.0000 0.0000 0.0000
# 2 51.4241 118.9529 46.7673 0.0000 0.0000 0.0000
# 3 31.5631 46.7673 76.1191 0.0000 0.0000 0.0000
# 4 0.0000 0.0000 0.0000 33.9562 0.0000 0.0000
# 5 0.0000 0.0000 0.0000 0.0000 25.6846 0.0000
# 6 0.0000 0.0000 0.0000 0.0000 0.0000 26.4795
#
#
#
# Elastic Compliance Matrix: (Units=1/GPa)
#
#
# Indices 1 2 3 4 5 6 
#
# 1 0.024242 -0.008607 -0.004764 0.000000 0.000000 0.000000
# 2 -0.008607 0.014140 -0.005119 0.000000 0.000000 0.000000
# 3 -0.004764 -0.005119 0.018258 0.000000 0.000000 0.000000
# 4 0.000000 0.000000 0.000000 0.029450 0.000000 0.000000
# 5 0.000000 0.000000 0.000000 0.000000 0.038934 0.000000
# 6 0.000000 0.000000 0.000000 0.000000 0.000000 0.037765
#
#
# Mechanical properties :
#
#
# Convention : Reuss Voigt Hill
#
# Bulk Modulus (GPa) = 50.86340 57.81019 54.33680
# Shear Modulus (GPa) = 24.23400 25.95926 25.09663
#
# Velocity S-wave (km/s) = 3.69230 3.82147 3.75744
# Velocity P-wave (km/s) = 6.84041 7.21063 7.02796
#
# Compressibility (1/GPa) = 0.01966050
#
# Stress axis : x y z
#
# Youngs Moduli (GPa) = 41.24998 70.72120 54.77178
#
# Poissons Ratio (x) = 0.60871 0.26093
# Poissons Ratio (y) = 0.35504 0.28035
# Poissons Ratio (z) = 0.19652 0.36199
#
# Static dielectric constant tensor:
#      x y z
#    x 1.589700 0.000000 0.000000 
#    y 0.000000 1.592250 0.000000 
#    z 0.000000 0.000000 1.635290 
# 
# From -- ./inp_files/28938.got.cif
#   From: 2010.05.17/outbox.cif.g08.bks.cpg/sg71_15_cif.got.tgz:28938.got - 2010.06.03 16:22:01.
