data_PCOD9523839
_publ_section_title
;
Structure prediction by ZEFSAII (Michael W. Deem and Ramdas Pophale) SiO2 
 PCOD9523839
Probable space group: I M M M
;
_chemical_formula_sum "Si O2"
_cell_formula_units_Z 64
_cell_length_a 15.286402
_cell_length_b 12.370176
_cell_length_c 17.039127
_cell_angle_alpha 90.000000
_cell_angle_beta 90.000000
_cell_angle_gamma 90.000000
_cell_volume 3222.021952
_symmetry_space_group_name_H-M "I M M M"
_symmetry_group_IT_number 71
_symmetry_cell_setting 'orthorhombic'
loop_
_space_group_symop_operation_xyz
x,y,z
-x,-y,z
x,-y,-z
-x,y,-z
-x,-y,-z
x,y,-z
-x,y,z
x,-y,z
1/2+x,1/2+y,1/2+z
1/2-x,1/2-y,1/2+z
1/2+x,1/2-y,1/2-z
1/2-x,1/2+y,1/2-z
1/2-x,1/2-y,1/2-z
1/2+x,1/2+y,1/2-z
1/2-x,1/2+y,1/2+z
1/2+x,1/2-y,1/2+z
loop_
_atom_site_type_symbol
_atom_site_label
_atom_site_fract_x
_atom_site_fract_y
_atom_site_fract_z
Si Si1 0.134707 0.500000 0.909438
Si Si2 0.343598 0.265546 0.850015
Si Si3 0.000000 0.872323 0.906925
Si Si4 0.152090 0.000000 0.590693
Si Si5 0.365329 0.779813 0.674495
Si Si6 0.104784 0.624228 0.500000
O O1 0.241393 0.500000 0.909568
O O2 0.106650 0.392417 0.864512
O O3 0.106749 0.500000 0.000000
O O4 0.374475 0.388105 0.868275
O O5 0.381130 0.224190 0.767583
O O6 0.238455 0.268298 0.840073
O O7 0.365337 0.189126 0.922985
O O8 0.916460 0.816271 0.867566
O O9 0.000000 0.000000 0.893920
O O10 0.000000 0.851508 0.000000
O O11 0.123154 0.000000 0.500000
O O12 0.136890 0.500000 0.500000
O O13 0.000000 0.622168 0.500000
#
# Coordination Sequence:
#
# PCOD9523839 Si02
#       6
#     8  16   8   8  16   8
#     4   9  18  35  64  88 118 155 203 267 309 364
#     4  10  22  41  66  92 123 169 210 262 319 382
#     4  11  26  43  61  92 135 171 208 263 315 379
#     4   9  16  34  61  92 118 150 208 259 301 376
#     4  10  23  40  64  94 127 161 216 259 317 379
#     4  11  26  43  63  90 130 168 218 267 318 372
#
# _framework density 19.863303999999999
#
# number of rings (size 3 to 8) (size 9 to 14) (size 15 to 20)
#    0.000    2.000    1.250    0.750    8.750    1.500 
#    0.000    2.500    0.000    0.000    0.000    0.000 
#    0.000    0.000    0.000    0.000    0.000    0.000 
#
# Total GULP energy -178845.553833 kJ/mol
# GULP energy per Si atom -5588.923557 kJ/mol
# Density = 1.981809 g / cm^3
# Si number density = 19.863304 Si / 1000 Ang^3
#
#
#
# Elastic Constant Matrix: (Units=GPa)
#
#
# Indices 1 2 3 4 5 6 
#
# 1 34.7374 26.7788 31.4488 0.0000 0.0000 0.0000
# 2 26.7788 176.3533 137.1048 0.0000 0.0000 0.0000
# 3 31.4488 137.1048 224.0506 0.0000 0.0000 0.0000
# 4 0.0000 0.0000 0.0000 37.4779 0.0000 0.0000
# 5 0.0000 0.0000 0.0000 0.0000 9.7021 0.0000
# 6 0.0000 0.0000 0.0000 0.0000 0.0000 13.6190
#
#
#
# Elastic Compliance Matrix: (Units=1/GPa)
#
#
# Indices 1 2 3 4 5 6 
#
# 1 0.033660 -0.002743 -0.003046 0.000000 0.000000 0.000000
# 2 -0.002743 0.011040 -0.006371 0.000000 0.000000 0.000000
# 3 -0.003046 -0.006371 0.008789 0.000000 0.000000 0.000000
# 4 0.000000 0.000000 0.000000 0.026682 0.000000 0.000000
# 5 0.000000 0.000000 0.000000 0.000000 0.103070 0.000000
# 6 0.000000 0.000000 0.000000 0.000000 0.000000 0.073427
#
#
# Mechanical properties :
#
#
# Convention : Reuss Voigt Hill
#
# Bulk Modulus (GPa) = 34.28262 91.75627 63.01944
# Shear Modulus (GPa) = 17.19922 28.14706 22.67314
#
# Velocity S-wave (km/s) = 2.94577 3.76844 3.38221
# Velocity P-wave (km/s) = 5.37279 8.07645 6.85915
#
# Compressibility (1/GPa) = 0.02916930
#
# Stress axis : x y z
#
# Youngs Moduli (GPa) = 29.70914 90.58186 113.77529
#
# Poissons Ratio (x) = 0.24846 0.34657
# Poissons Ratio (y) = 0.08149 0.72482
# Poissons Ratio (z) = 0.09050 0.57706
#
# Static dielectric constant tensor:
#      x y z
#    x 1.701920 0.000000 0.000000 
#    y 0.000000 1.669260 0.000000 
#    z 0.000000 0.000000 1.665260 
# 
# From -- ./inp_files/35846.got.cif
#   From: 2010.05.17/outbox.cif.g08.bks.cpg/sg71_18_cif.got.tgz:35846.got - 2010.06.03 16:22:01.
