data_PCOD9523708
_publ_section_title
;
Structure prediction by ZEFSAII (Michael W. Deem and Ramdas Pophale) SiO2 
 PCOD9523708
Probable space group: I M M M
;
_chemical_formula_sum "Si O2"
_cell_formula_units_Z 112
_cell_length_a 15.760715
_cell_length_b 22.462332
_cell_length_c 15.437600
_cell_angle_alpha 90.000000
_cell_angle_beta 90.000000
_cell_angle_gamma 90.000000
_cell_volume 5465.256401
_symmetry_space_group_name_H-M "I M M M"
_symmetry_group_IT_number 71
_symmetry_cell_setting 'orthorhombic'
loop_
_space_group_symop_operation_xyz
x,y,z
-x,-y,z
x,-y,-z
-x,y,-z
-x,-y,-z
x,y,-z
-x,y,z
x,-y,z
1/2+x,1/2+y,1/2+z
1/2-x,1/2-y,1/2+z
1/2+x,1/2-y,1/2-z
1/2-x,1/2+y,1/2-z
1/2-x,1/2-y,1/2-z
1/2+x,1/2+y,1/2-z
1/2-x,1/2+y,1/2+z
1/2+x,1/2-y,1/2+z
loop_
_atom_site_type_symbol
_atom_site_label
_atom_site_fract_x
_atom_site_fract_y
_atom_site_fract_z
Si Si1 0.723807 0.933085 0.399555
Si Si2 0.901629 0.665893 0.898322
Si Si3 0.351628 0.255644 0.251757
Si Si4 0.090366 0.068192 0.627698
Si Si5 0.901441 0.332835 0.397499
Si Si6 0.905292 0.885360 0.811006
Si Si7 0.263780 0.067987 0.896275
O O1 0.699652 0.938971 0.500000
O O2 0.657335 0.886956 0.362246
O O3 0.818737 0.906600 0.398088
O O4 0.724407 0.000000 0.361714
O O5 0.885518 0.721337 0.836483
O O6 0.000000 0.648654 0.894823
O O7 0.881014 0.678312 0.000000
O O8 0.250000 0.250000 0.250000
O O9 0.385513 0.223134 0.165484
O O10 0.382597 0.322872 0.264816
O O11 0.091031 0.069092 0.731241
O O12 0.000000 0.095727 0.600638
O O13 0.091098 0.000000 0.596698
O O14 0.885961 0.319518 0.500000
O O15 0.837672 0.385874 0.369700
O O16 0.000000 0.350906 0.389257
O O17 0.827452 0.905172 0.870242
O O18 0.000000 0.882087 0.850698
O O19 0.273154 0.000000 0.863166
O O20 0.268215 0.065130 0.000000
#
# Coordination Sequence:
#
# PCOD9523708 Si02
#       7
#    16  16  16  16  16  16  16
#     4   9  18  33  54  80 110 149 195 240 292 350
#     4  10  22  39  58  85 122 159 197 244 296 356
#     4  12  23  40  65  89 123 165 205 255 310 372
#     4   9  18  33  53  78 110 147 189 241 298 351
#     4  10  22  42  66  93 128 166 208 263 321 376
#     4  11  22  37  58  85 118 158 200 246 303 368
#     4  10  22  40  62  90 122 160 209 261 318 380
#
# _framework density 20.493091
#
# number of rings (size 3 to 8) (size 9 to 14) (size 15 to 20)
#    0.000    1.857    1.429    2.571    0.000    3.143 
#    0.000    5.714    0.000    2.571    0.000    0.000 
#    0.000    0.000    0.000    0.000    0.000    0.000 
#
# Total GULP energy -312363.532789 kJ/mol
# GULP energy per Si atom -5577.920228 kJ/mol
# Density = 2.044645 g / cm^3
# Si number density = 20.493091 Si / 1000 Ang^3
#
#
#
# Elastic Constant Matrix: (Units=GPa)
#
#
# Indices 1 2 3 4 5 6 
#
# 1 126.4579 35.5618 20.7296 0.0000 0.0000 0.0000
# 2 35.5618 100.9998 24.3516 0.0000 0.0000 0.0000
# 3 20.7296 24.3516 56.8395 0.0001 0.0000 0.0000
# 4 0.0000 0.0000 0.0001 18.2349 0.0000 0.0000
# 5 0.0000 0.0000 0.0000 0.0000 33.6492 0.0000
# 6 0.0000 0.0000 0.0000 0.0000 0.0000 22.7672
#
#
#
# Elastic Compliance Matrix: (Units=1/GPa)
#
#
# Indices 1 2 3 4 5 6 
#
# 1 0.009006 -0.002653 -0.002148 0.000000 0.000000 0.000000
# 2 -0.002653 0.011823 -0.004098 0.000000 0.000000 0.000000
# 3 -0.002148 -0.004098 0.020132 0.000000 0.000000 0.000000
# 4 0.000000 0.000000 0.000000 0.054840 0.000000 0.000000
# 5 0.000000 0.000000 0.000000 0.000000 0.029718 0.000000
# 6 0.000000 0.000000 0.000000 0.000000 0.000000 0.043923
#
#
# Mechanical properties :
#
#
# Convention : Reuss Voigt Hill
#
# Bulk Modulus (GPa) = 43.17046 49.50925 46.33986
# Shear Modulus (GPa) = 25.64611 28.50721 27.07666
#
# Velocity S-wave (km/s) = 3.54142 3.73374 3.63885
# Velocity P-wave (km/s) = 6.15092 6.54211 6.34953
#
# Compressibility (1/GPa) = 0.02316399
#
# Stress axis : x y z
#
# Youngs Moduli (GPa) = 111.03771 84.57972 49.67135
#
# Poissons Ratio (x) = 0.22440 0.10669
# Poissons Ratio (y) = 0.29460 0.20354
# Poissons Ratio (z) = 0.23849 0.34659
#
# Static dielectric constant tensor:
#      x y z
#    x 1.752460 0.000000 0.000000 
#    y 0.000000 1.756740 0.000000 
#    z 0.000000 0.000000 1.740520 
# 
# From -- ./inp_files/34841.got.cif
#   From: 2010.05.17/outbox.cif.g08.bks.cpg/sg71_18_cif.got.tgz:34841.got - 2010.06.03 16:22:01.
