data_PCOD9523453
_publ_section_title
;
Structure prediction by ZEFSAII (Michael W. Deem and Ramdas Pophale) SiO2 
 PCOD9523453
Probable space group: I M M M
;
_chemical_formula_sum "Si O2"
_cell_formula_units_Z 80
_cell_length_a 14.967934
_cell_length_b 31.553514
_cell_length_c 8.422363
_cell_angle_alpha 90.000000
_cell_angle_beta 90.000000
_cell_angle_gamma 90.000000
_cell_volume 3977.805528
_symmetry_space_group_name_H-M "I M M M"
_symmetry_group_IT_number 71
_symmetry_cell_setting 'orthorhombic'
loop_
_space_group_symop_operation_xyz
x,y,z
-x,-y,z
x,-y,-z
-x,y,-z
-x,-y,-z
x,y,-z
-x,y,z
x,-y,z
1/2+x,1/2+y,1/2+z
1/2-x,1/2-y,1/2+z
1/2+x,1/2-y,1/2-z
1/2-x,1/2+y,1/2-z
1/2-x,1/2-y,1/2-z
1/2+x,1/2+y,1/2-z
1/2-x,1/2+y,1/2+z
1/2+x,1/2-y,1/2+z
loop_
_atom_site_type_symbol
_atom_site_label
_atom_site_fract_x
_atom_site_fract_y
_atom_site_fract_z
Si Si1 0.397524 0.368441 0.308743
Si Si2 0.769043 0.796304 0.680951
Si Si3 0.704648 0.546371 0.694215
Si Si4 0.100284 0.336550 0.317097
Si Si5 0.903371 0.561658 0.313452
O O1 0.399038 0.370686 0.500000
O O2 0.500000 0.366565 0.252234
O O3 0.341282 0.326780 0.263950
O O4 0.348314 0.411721 0.252352
O O5 0.796505 0.791907 0.500000
O O6 0.750000 0.750000 0.750000
O O7 0.674468 0.819747 0.700569
O O8 0.707170 0.548528 0.500000
O O9 0.666132 0.500000 0.735784
O O10 0.807776 0.547571 0.751371
O O11 0.123685 0.325068 0.500000
O O12 0.098896 0.387351 0.310144
O O13 0.000000 0.321075 0.284311
O O14 0.904547 0.549387 0.500000
O O15 0.000000 0.548586 0.244730
#
# Coordination Sequence:
#
# PCOD9523453 Si02
#       5
#    16  16  16  16  16
#     4  10  21  39  61  84 117 158 201 251 301 348
#     4  12  25  40  61  86 115 149 189 238 291 356
#     4   9  16  27  49  83 120 155 195 244 295 347
#     4   9  17  33  58  84 113 148 184 226 278 338
#     4   8  13  23  44  75 111 148 182 223 278 335
#
# _framework density 20.111591000000001
#
# number of rings (size 3 to 8) (size 9 to 14) (size 15 to 20)
#    0.000    2.400    2.000    3.000    0.000    2.400 
#    0.000    4.000    0.000    0.600    0.000    1.400 
#    0.000    3.200    0.000    0.000    0.000    0.000 
#
# Total GULP energy -222975.288681 kJ/mol
# GULP energy per Si atom -5574.382217 kJ/mol
# Density = 2.006582 g / cm^3
# Si number density = 20.111591 Si / 1000 Ang^3
#
#
#
# Elastic Constant Matrix: (Units=GPa)
#
#
# Indices 1 2 3 4 5 6 
#
# 1 127.6962 73.3622 17.9619 -0.0001 -0.0007 -0.0005
# 2 73.3622 145.9542 15.2238 0.0009 0.0000 -0.0005
# 3 17.9619 15.2238 11.8752 -0.0003 0.0077 -0.0019
# 4 -0.0001 0.0009 -0.0003 3.8986 0.0001 0.0001
# 5 -0.0007 0.0000 0.0077 0.0001 12.4002 -0.0005
# 6 -0.0005 -0.0005 -0.0019 0.0001 -0.0005 -10.0516
#
#
#
# Elastic Compliance Matrix: (Units=1/GPa)
#
#
# Indices 1 2 3 4 5 6 
#
# 1 0.012424 -0.004946 -0.012451 0.000000 0.000008 0.000002
# 2 -0.004946 0.009878 -0.005182 -0.000003 0.000003 0.000001
# 3 -0.012451 -0.005182 0.109687 0.000010 -0.000069 -0.000019
# 4 0.000000 -0.000003 0.000010 0.256505 -0.000001 0.000003
# 5 0.000008 0.000003 -0.000069 -0.000001 0.080644 -0.000004
# 6 0.000002 0.000001 -0.000019 0.000003 -0.000004 -0.099487
#
#
# Mechanical properties :
#
#
# Convention : Reuss Voigt Hill
#
# Bulk Modulus (GPa) = 11.51687 55.40238 33.45963
# Shear Modulus (GPa) = 11.26751 13.18128 12.22440
#
# Velocity S-wave (km/s) = 2.36953 2.56287 2.46809
# Velocity P-wave (km/s) = 3.63664 6.03034 4.97947
#
# Compressibility (1/GPa) = 0.08682913
#
# Stress axis : x y z
#
# Youngs Moduli (GPa) = 80.48903 101.23414 9.11688
#
# Poissons Ratio (x) = 0.50071 0.11352
# Poissons Ratio (y) = 0.39810 0.04725
# Poissons Ratio (z) = 1.00220 0.52463
#
# Static dielectric constant tensor:
#      x y z
#    x 1.736220 0.000000 0.000000 
#    y 0.000000 1.744760 0.000000 
#    z 0.000000 0.000000 1.703090 
# 
# From -- ./inp_files/8325.got.cif
#   From: 2010.05.17/outbox.cif.g08.bks.cpg/sg71_5_cif.got.tgz:8325.got - 2010.06.03 16:22:01.
