data_PCOD9523756
_publ_section_title
;
Structure prediction by ZEFSAII (Michael W. Deem and Ramdas Pophale) SiO2 
 PCOD9523756
Probable space group: I M M M
;
_chemical_formula_sum "Si O2"
_cell_formula_units_Z 96
_cell_length_a 19.565030
_cell_length_b 8.539316
_cell_length_c 30.208374
_cell_angle_alpha 90.000000
_cell_angle_beta 90.000000
_cell_angle_gamma 90.000000
_cell_volume 5046.972667
_symmetry_space_group_name_H-M "I M M M"
_symmetry_group_IT_number 71
_symmetry_cell_setting 'orthorhombic'
loop_
_space_group_symop_operation_xyz
x,y,z
-x,-y,z
x,-y,-z
-x,y,-z
-x,-y,-z
x,y,-z
-x,y,z
x,-y,z
1/2+x,1/2+y,1/2+z
1/2-x,1/2-y,1/2+z
1/2+x,1/2-y,1/2-z
1/2-x,1/2+y,1/2-z
1/2-x,1/2-y,1/2-z
1/2+x,1/2+y,1/2-z
1/2-x,1/2+y,1/2+z
1/2+x,1/2-y,1/2+z
loop_
_atom_site_type_symbol
_atom_site_label
_atom_site_fract_x
_atom_site_fract_y
_atom_site_fract_z
Si Si1 0.077037 0.817875 0.947092
Si Si2 0.078400 0.310719 0.199366
Si Si3 0.920518 0.690733 0.450014
Si Si4 0.179214 0.814023 0.728603
Si Si5 0.823775 0.317594 0.118605
Si Si6 0.322874 0.185375 0.870295
O O1 0.131874 0.707285 0.925015
O O2 0.000000 0.776651 0.932632
O O3 0.089634 0.000000 0.934828
O O4 0.079158 0.809237 0.000000
O O5 0.077604 0.500000 0.200006
O O6 0.116003 0.249881 0.242933
O O7 0.126841 0.263444 0.158491
O O8 0.000000 0.256785 0.195073
O O9 0.899767 0.740866 0.500000
O O10 0.917986 0.500000 0.450119
O O11 0.873003 0.743731 0.409440
O O12 0.000000 0.734895 0.443499
O O13 0.250000 0.750000 0.750000
O O14 0.169976 0.763125 0.677798
O O15 0.182275 0.000000 0.731363
O O16 0.806626 0.500000 0.125892
O O17 0.754951 0.219555 0.116146
O O18 0.334043 0.000000 0.865174
#
# Coordination Sequence:
#
# PCOD9523756 Si02
#       6
#    16  16  16  16  16  16
#     4   9  19  36  56  78 108 148 193 241 290 341
#     4  10  22  40  61  85 115 153 196 242 295 354
#     4   8  16  34  60  89 120 154 196 246 297 352
#     4  12  24  40  61  85 117 158 201 246 300 358
#     4  11  22  36  56  83 116 154 192 238 293 352
#     4  11  22  36  60  91 120 155 196 242 298 357
#
# _framework density 19.021304000000001
#
# number of rings (size 3 to 8) (size 9 to 14) (size 15 to 20)
#    0.000    1.833    1.667    4.000    0.000    3.667 
#    0.000    4.167    0.000    3.000    0.000    4.667 
#    0.000    0.000    0.000    0.000    0.000    0.000 
#
# Total GULP energy -267987.314282 kJ/mol
# GULP energy per Si atom -5583.069048 kJ/mol
# Density = 1.897801 g / cm^3
# Si number density = 19.021304 Si / 1000 Ang^3
#
#
#
# Elastic Constant Matrix: (Units=GPa)
#
#
# Indices 1 2 3 4 5 6 
#
# 1 114.6776 17.1694 69.2384 0.0000 0.0000 0.0000
# 2 17.1694 9.3558 10.4529 0.0000 0.0000 0.0000
# 3 69.2384 10.4529 112.3338 0.0000 0.0000 0.0000
# 4 0.0000 0.0000 0.0000 26.6755 0.0000 0.0000
# 5 0.0000 0.0000 0.0000 0.0000 41.7650 0.0000
# 6 0.0000 0.0000 0.0000 0.0000 0.0000 12.0865
#
#
#
# Elastic Compliance Matrix: (Units=1/GPa)
#
#
# Indices 1 2 3 4 5 6 
#
# 1 0.017160 -0.021956 -0.008533 0.000000 0.000000 0.000000
# 2 -0.021956 0.147381 -0.000181 0.000000 0.000000 0.000000
# 3 -0.008533 -0.000181 0.014179 0.000000 0.000000 0.000000
# 4 0.000000 0.000000 0.000000 0.037488 0.000000 0.000000
# 5 0.000000 0.000000 0.000000 0.000000 0.023944 0.000000
# 6 0.000000 0.000000 0.000000 0.000000 0.000000 0.082737
#
#
# Mechanical properties :
#
#
# Convention : Reuss Voigt Hill
#
# Bulk Modulus (GPa) = 8.51952 47.78762 28.15357
# Shear Modulus (GPa) = 11.81043 25.40584 18.60814
#
# Velocity S-wave (km/s) = 2.49450 3.65862 3.13114
# Velocity P-wave (km/s) = 3.57566 6.55935 5.28254
#
# Compressibility (1/GPa) = 0.11737748
#
# Stress axis : x y z
#
# Youngs Moduli (GPa) = 58.27639 6.78514 70.52893
#
# Poissons Ratio (x) = 0.14898 0.60186
# Poissons Ratio (y) = 1.27954 0.01276
# Poissons Ratio (z) = 0.49730 0.00123
#
# Static dielectric constant tensor:
#      x y z
#    x 1.645570 0.000000 0.000000 
#    y 0.000000 1.668640 0.000000 
#    z 0.000000 0.000000 1.668460 
# 
# From -- ./inp_files/66332.got.cif
#   From: 2010.05.17/outbox.cif.g08.bks.cpg/sg71_34_cif.got.tgz:66332.got - 2010.06.03 16:22:01.
