data_PCOD9523870
_publ_section_title
;
Structure prediction by ZEFSAII (Michael W. Deem and Ramdas Pophale) SiO2 
 PCOD9523870
Probable space group: I M M M
;
_chemical_formula_sum "Si O2"
_cell_formula_units_Z 72
_cell_length_a 7.617338
_cell_length_b 16.148236
_cell_length_c 28.878270
_cell_angle_alpha 90.000000
_cell_angle_beta 90.000000
_cell_angle_gamma 90.000000
_cell_volume 3552.216990
_symmetry_space_group_name_H-M "I M M M"
_symmetry_group_IT_number 71
_symmetry_cell_setting 'orthorhombic'
loop_
_space_group_symop_operation_xyz
x,y,z
-x,-y,z
x,-y,-z
-x,y,-z
-x,-y,-z
x,y,-z
-x,y,z
x,-y,z
1/2+x,1/2+y,1/2+z
1/2-x,1/2-y,1/2+z
1/2+x,1/2-y,1/2-z
1/2-x,1/2+y,1/2-z
1/2-x,1/2-y,1/2-z
1/2+x,1/2+y,1/2-z
1/2-x,1/2+y,1/2+z
1/2+x,1/2-y,1/2+z
loop_
_atom_site_type_symbol
_atom_site_label
_atom_site_fract_x
_atom_site_fract_y
_atom_site_fract_z
Si Si1 0.199841 0.398851 0.701776
Si Si2 0.712388 0.096113 0.694472
Si Si3 0.704126 0.671027 0.099666
Si Si4 0.712915 0.500000 0.052604
Si Si5 0.000000 0.783567 0.944668
Si Si6 0.000000 0.901246 0.133072
O O1 0.196271 0.500000 0.701481
O O2 0.262949 0.377539 0.753566
O O3 0.330803 0.370908 0.661880
O O4 0.000000 0.370365 0.694785
O O5 0.500000 0.095037 0.693502
O O6 0.777386 0.156780 0.654576
O O7 0.771121 0.000000 0.686645
O O8 0.500000 0.685272 0.088166
O O9 0.765103 0.582746 0.078709
O O10 0.830352 0.737048 0.076170
O O11 0.500000 0.500000 0.051987
O O12 0.775901 0.500000 0.000000
O O13 0.000000 0.871647 0.919337
O O14 0.000000 0.784200 0.000000
O O15 0.000000 0.000000 0.135194
#
# Coordination Sequence:
#
# PCOD9523870 Si02
#       6
#    16  16  16   8   8   8
#     4   8  16  32  59  93 124 153 187 239 297 361
#     4   9  16  30  56  91 129 166 203 236 277 340
#     4  11  22  37  59  88 124 167 204 246 292 345
#     4   9  18  33  53  81 114 159 217 250 271 326
#     4  12  28  46  62  84 119 157 202 264 323 361
#     4  10  22  43  69  93 110 146 203 255 317 386
#
# _framework density 20.269033
#
# number of rings (size 3 to 8) (size 9 to 14) (size 15 to 20)
#    0.000    2.333    2.222    2.000    1.556    2.889 
#    0.000    2.222    0.000    0.000    0.000    4.667 
#    0.000    0.000    0.000    0.000    0.000    0.000 
#
# Total GULP energy -201089.438654 kJ/mol
# GULP energy per Si atom -5585.817740 kJ/mol
# Density = 2.022290 g / cm^3
# Si number density = 20.269033 Si / 1000 Ang^3
#
#
#
# Elastic Constant Matrix: (Units=GPa)
#
#
# Indices 1 2 3 4 5 6 
#
# 1 95.2033 23.3241 51.6100 0.0000 0.0000 0.0000
# 2 23.3241 27.1770 40.7680 0.0000 0.0000 0.0000
# 3 51.6100 40.7680 142.1382 0.0000 0.0000 0.0000
# 4 0.0000 0.0000 0.0000 12.3141 0.0000 0.0000
# 5 0.0000 0.0000 0.0000 0.0000 9.7813 0.0000
# 6 0.0000 0.0000 0.0000 0.0000 0.0000 -0.1881
#
#
#
# Elastic Compliance Matrix: (Units=1/GPa)
#
#
# Indices 1 2 3 4 5 6 
#
# 1 0.013933 -0.007668 -0.002860 0.000000 0.000000 0.000000
# 2 -0.007668 0.068803 -0.016950 0.000000 0.000000 0.000000
# 3 -0.002860 -0.016950 0.012935 0.000000 0.000000 0.000000
# 4 0.000000 0.000000 0.000000 0.081208 0.000000 0.000000
# 5 0.000000 0.000000 0.000000 0.000000 0.102236 0.000000
# 6 0.000000 0.000000 0.000000 0.000000 0.000000 -5.316057
#
#
# Mechanical properties :
#
#
# Convention : Reuss Voigt Hill
#
# Bulk Modulus (GPa) = 24.56011 55.10253 39.83132
# Shear Modulus (GPa) = -1.00636 14.30254 6.64809
#
# Velocity S-wave (km/s) = -0.70539 2.65926 1.81302
# Velocity P-wave (km/s) = 3.38820 6.05586 4.90680
#
# Compressibility (1/GPa) = 0.04071643
#
# Stress axis : x y z
#
# Youngs Moduli (GPa) = 71.77423 14.53426 77.30776
#
# Poissons Ratio (x) = 0.11144 0.22107
# Poissons Ratio (y) = 0.55034 1.31036
# Poissons Ratio (z) = 0.20525 0.24635
#
# Static dielectric constant tensor:
#      x y z
#    x 1.726320 0.000000 0.000000 
#    y 0.000000 1.725320 0.000000 
#    z 0.000000 0.000000 1.708170 
# 
# From -- ./inp_files/67866.got.cif
#   From: 2010.05.17/outbox.cif.g08.bks.cpg/sg71_34_cif.got.tgz:67866.got - 2010.06.03 16:22:01.
