data_PCOD9523721
_publ_section_title
;
Structure prediction by ZEFSAII (Michael W. Deem and Ramdas Pophale) SiO2 
 PCOD9523721
Probable space group: I M M M
;
_chemical_formula_sum "Si O2"
_cell_formula_units_Z 72
_cell_length_a 14.589228
_cell_length_b 30.153449
_cell_length_c 8.930116
_cell_angle_alpha 90.000000
_cell_angle_beta 90.000000
_cell_angle_gamma 90.000000
_cell_volume 3928.496824
_symmetry_space_group_name_H-M "I M M M"
_symmetry_group_IT_number 71
_symmetry_cell_setting 'orthorhombic'
loop_
_space_group_symop_operation_xyz
x,y,z
-x,-y,z
x,-y,-z
-x,y,-z
-x,-y,-z
x,y,-z
-x,y,z
x,-y,z
1/2+x,1/2+y,1/2+z
1/2-x,1/2-y,1/2+z
1/2+x,1/2-y,1/2-z
1/2-x,1/2+y,1/2-z
1/2-x,1/2-y,1/2-z
1/2+x,1/2+y,1/2-z
1/2-x,1/2+y,1/2+z
1/2+x,1/2-y,1/2+z
loop_
_atom_site_type_symbol
_atom_site_label
_atom_site_fract_x
_atom_site_fract_y
_atom_site_fract_z
Si Si1 0.000000 0.330616 0.677341
Si Si2 0.690117 0.551443 0.819836
Si Si3 0.000000 0.767435 0.178994
Si Si4 0.177028 0.628117 0.823574
Si Si5 0.000000 0.054014 0.827682
Si Si6 0.689005 0.711450 0.175977
O O1 0.000000 0.283281 0.761556
O O2 0.910155 0.357239 0.728793
O O3 0.000000 0.323096 0.500000
O O4 0.703482 0.500000 0.776660
O O5 0.774532 0.582531 0.775972
O O6 0.593917 0.567873 0.751948
O O7 0.682385 0.553416 0.000000
O O8 0.908421 0.789833 0.242607
O O9 0.000000 0.767361 0.000000
O O10 0.254049 0.666236 0.810991
O O11 0.151243 0.625285 0.000000
O O12 0.000000 0.000000 0.821655
O O13 0.000000 0.067838 0.000000
O O14 0.750000 0.750000 0.250000
O O15 0.675456 0.721178 0.000000
#
# Coordination Sequence:
#
# PCOD9523721 Si02
#       6
#     8  16   8  16   8  16
#     4  12  24  38  60  84 110 148 193 236 285 349
#     4   9  18  35  59  85 113 150 194 236 279 333
#     4  12  24  39  59  83 117 154 191 238 288 341
#     4  10  22  39  60  84 114 149 189 238 288 337
#     4   9  17  30  51  80 114 150 182 223 282 336
#     4  11  22  37  58  84 114 149 190 235 285 338
#
# _framework density 18.327621000000001
#
# number of rings (size 3 to 8) (size 9 to 14) (size 15 to 20)
#    0.000    1.667    2.222    3.000    0.000    4.000 
#    0.000    5.000    0.000    3.333    0.000    0.000 
#    0.000    0.000    0.000    0.000    0.000    0.000 
#
# Total GULP energy -201130.275030 kJ/mol
# GULP energy per Si atom -5586.952084 kJ/mol
# Density = 1.828591 g / cm^3
# Si number density = 18.327621 Si / 1000 Ang^3
#
#
#
# Elastic Constant Matrix: (Units=GPa)
#
#
# Indices 1 2 3 4 5 6 
#
# 1 131.0654 27.7999 70.4332 -0.0001 -0.0001 -0.0001
# 2 27.7999 52.1017 33.9772 0.0015 -0.0001 0.0004
# 3 70.4332 33.9772 109.4661 0.0038 -0.0005 0.0015
# 4 -0.0001 0.0015 0.0038 18.1829 -0.0002 0.0007
# 5 -0.0001 -0.0001 -0.0005 -0.0002 37.0464 -0.0002
# 6 -0.0001 0.0004 0.0015 0.0007 -0.0002 20.0751
#
#
#
# Elastic Compliance Matrix: (Units=1/GPa)
#
#
# Indices 1 2 3 4 5 6 
#
# 1 0.011779 -0.001683 -0.007056 0.000002 0.000000 0.000001
# 2 -0.001683 0.024305 -0.006461 -0.000001 0.000000 0.000000
# 3 -0.007056 -0.006461 0.015681 -0.000003 0.000000 -0.000001
# 4 0.000002 -0.000001 -0.000003 0.054997 0.000000 -0.000002
# 5 0.000000 0.000000 0.000000 0.000000 0.026993 0.000000
# 6 0.000001 0.000000 -0.000001 -0.000002 0.000000 0.049813
#
#
# Mechanical properties :
#
#
# Convention : Reuss Voigt Hill
#
# Bulk Modulus (GPa) = 46.80880 61.89486 54.35183
# Shear Modulus (GPa) = 22.61529 25.75574 24.18552
#
# Velocity S-wave (km/s) = 3.51657 3.75280 3.63660
# Velocity P-wave (km/s) = 6.48720 7.25415 6.88137
#
# Compressibility (1/GPa) = 0.02136351
#
# Stress axis : x y z
#
# Youngs Moduli (GPa) = 84.89847 41.14427 63.77198
#
# Poissons Ratio (x) = 0.06925 0.45000
# Poissons Ratio (y) = 0.14290 0.41203
# Poissons Ratio (z) = 0.59907 0.26583
#
# Static dielectric constant tensor:
#      x y z
#    x 1.604520 0.000000 0.000000 
#    y 0.000000 1.635690 0.000000 
#    z 0.000000 0.000000 1.619180 
# 
# From -- ./inp_files/6222.got.cif
#   From: 2010.05.17/outbox.cif.g08.bks.cpg/sg71_4_cif.got.tgz:6222.got - 2010.06.03 16:22:01.
