data_PCOD9523238
_publ_section_title
;
Structure prediction by ZEFSAII (Michael W. Deem and Ramdas Pophale) SiO2 
 PCOD9523238
Probable space group: I M M M
;
_chemical_formula_sum "Si O2"
_cell_formula_units_Z 90
_cell_length_a 20.631403
_cell_length_b 8.659943
_cell_length_c 25.774194
_cell_angle_alpha 90.000000
_cell_angle_beta 90.000000
_cell_angle_gamma 90.000000
_cell_volume 4604.992094
_symmetry_space_group_name_H-M "I M M M"
_symmetry_group_IT_number 71
_symmetry_cell_setting 'orthorhombic'
loop_
_space_group_symop_operation_xyz
x,y,z
-x,-y,z
x,-y,-z
-x,y,-z
-x,-y,-z
x,y,-z
-x,y,z
x,-y,z
1/2+x,1/2+y,1/2+z
1/2-x,1/2-y,1/2+z
1/2+x,1/2-y,1/2-z
1/2-x,1/2+y,1/2-z
1/2-x,1/2-y,1/2-z
1/2+x,1/2+y,1/2-z
1/2-x,1/2+y,1/2+z
1/2+x,1/2-y,1/2+z
loop_
_atom_site_type_symbol
_atom_site_label
_atom_site_fract_x
_atom_site_fract_y
_atom_site_fract_z
Si Si1 0.259781 0.815662 0.941233
Si Si2 0.632646 0.184580 0.143366
Si Si3 0.500000 0.500000 0.000000
Si Si4 0.116158 0.683985 0.941753
Si Si5 0.000000 0.170961 0.606712
Si Si6 0.071521 0.813986 0.165536
Si Si7 0.822531 0.184451 0.751573
O O1 0.311665 0.770494 0.898024
O O2 0.191900 0.728373 0.935837
O O3 0.247357 0.000000 0.936191
O O4 0.284443 0.788146 0.000000
O O5 0.563775 0.237235 0.121999
O O6 0.645103 0.265984 0.197841
O O7 0.635601 0.000000 0.149719
O O8 0.500000 0.631574 0.046022
O O9 0.108399 0.500000 0.939382
O O10 0.080186 0.759537 0.893460
O O11 0.096331 0.735592 0.000000
O O12 0.000000 0.000000 0.633033
O O13 0.131319 0.759138 0.201316
O O14 0.000000 0.764771 0.184774
O O15 0.073227 0.000000 0.166452
O O16 0.750000 0.250000 0.750000
O O17 0.818215 0.000000 0.755652
#
# Coordination Sequence:
#
# PCOD9523238 Si02
#       7
#    16  16   2  16   8  16  16
#     4   9  19  35  57  84 117 157 199 246 299 359
#     4  11  23  39  61  91 123 160 210 264 319 382
#     4   8  24  44  62  88 128 172 222 260 320 404
#     4  10  21  37  58  89 123 154 192 243 303 364
#     4  10  23  41  61  87 123 168 211 260 318 386
#     4  10  23  42  63  86 116 158 205 248 298 361
#     4  11  24  42  65  92 125 165 209 264 320 381
#
# _framework density 19.544008999999999
#
# number of rings (size 3 to 8) (size 9 to 14) (size 15 to 20)
#    0.267    1.600    0.000    2.933    2.489    8.889 
#    0.000    2.222    0.000    0.000    0.000    0.000 
#    0.000    0.000    0.000    0.000    0.000    0.000 
#
# Total GULP energy -251027.356490 kJ/mol
# GULP energy per Si atom -5578.385700 kJ/mol
# Density = 1.949953 g / cm^3
# Si number density = 19.544009 Si / 1000 Ang^3
#
#
#
# Elastic Constant Matrix: (Units=GPa)
#
#
# Indices 1 2 3 4 5 6 
#
# 1 110.7222 21.0259 64.6744 0.0000 0.0000 0.0000
# 2 21.0259 23.5858 18.2673 0.0000 0.0000 0.0000
# 3 64.6744 18.2673 120.5565 0.0000 0.0000 0.0000
# 4 0.0000 0.0000 0.0000 31.1506 0.0000 0.0000
# 5 0.0000 0.0000 0.0000 0.0000 44.3087 0.0000
# 6 0.0000 0.0000 0.0000 0.0000 0.0000 25.9081
#
#
#
# Elastic Compliance Matrix: (Units=1/GPa)
#
#
# Indices 1 2 3 4 5 6 
#
# 1 0.014291 -0.007707 -0.006499 0.000000 0.000000 0.000000
# 2 -0.007707 0.052191 -0.003774 0.000000 0.000000 0.000000
# 3 -0.006499 -0.003774 0.012353 0.000000 0.000000 0.000000
# 4 0.000000 0.000000 0.000000 0.032102 0.000000 0.000000
# 5 0.000000 0.000000 0.000000 0.000000 0.022569 0.000000
# 6 0.000000 0.000000 0.000000 0.000000 0.000000 0.038598
#
#
# Mechanical properties :
#
#
# Convention : Reuss Voigt Hill
#
# Bulk Modulus (GPa) = 23.32266 51.42217 37.37241
# Shear Modulus (GPa) = 22.48642 30.33328 26.40985
#
# Velocity S-wave (km/s) = 3.39566 3.94388 3.67999
# Velocity P-wave (km/s) = 5.22813 6.86345 6.10083
#
# Compressibility (1/GPa) = 0.04287676
#
# Stress axis : x y z
#
# Youngs Moduli (GPa) = 69.97284 19.16022 80.95059
#
# Poissons Ratio (x) = 0.14766 0.52610
# Poissons Ratio (y) = 0.53925 0.30550
# Poissons Ratio (z) = 0.45476 0.07231
#
# Static dielectric constant tensor:
#      x y z
#    x 1.677400 0.000000 0.000000 
#    y 0.000000 1.671320 0.000000 
#    z 0.000000 0.000000 1.676860 
# 
# From -- ./inp_files/61141.got.cif
#   From: 2010.05.17/outbox.cif.g08.bks.cpg/sg71_31_cif.got.tgz:61141.got - 2010.06.03 16:22:01.
