data_PCOD9523801
_publ_section_title
;
Structure prediction by ZEFSAII (Michael W. Deem and Ramdas Pophale) SiO2 
 PCOD9523801
Probable space group: I M M M
;
_chemical_formula_sum "Si O2"
_cell_formula_units_Z 80
_cell_length_a 17.782836
_cell_length_b 19.238035
_cell_length_c 12.149598
_cell_angle_alpha 90.000000
_cell_angle_beta 90.000000
_cell_angle_gamma 90.000000
_cell_volume 4156.460353
_symmetry_space_group_name_H-M "I M M M"
_symmetry_group_IT_number 71
_symmetry_cell_setting 'orthorhombic'
loop_
_space_group_symop_operation_xyz
x,y,z
-x,-y,z
x,-y,-z
-x,y,-z
-x,-y,-z
x,y,-z
-x,y,z
x,-y,z
1/2+x,1/2+y,1/2+z
1/2-x,1/2-y,1/2+z
1/2+x,1/2-y,1/2-z
1/2-x,1/2+y,1/2-z
1/2-x,1/2-y,1/2-z
1/2+x,1/2+y,1/2-z
1/2-x,1/2+y,1/2+z
1/2+x,1/2-y,1/2+z
loop_
_atom_site_type_symbol
_atom_site_label
_atom_site_fract_x
_atom_site_fract_y
_atom_site_fract_z
Si Si1 0.730458 0.422854 0.254017
Si Si2 0.314031 0.202594 0.692157
Si Si3 0.907733 0.220413 0.000000
Si Si4 0.183389 0.916924 0.000000
Si Si5 0.912482 0.723504 0.381759
Si Si6 0.086653 0.109469 0.627813
O O1 0.762152 0.500000 0.244398
O O2 0.770832 0.369007 0.171228
O O3 0.727552 0.403790 0.384397
O O4 0.644371 0.422269 0.212793
O O5 0.250000 0.250000 0.750000
O O6 0.363266 0.243077 0.602058
O O7 0.372421 0.183435 0.786746
O O8 0.884894 0.138871 0.000000
O O9 0.000000 0.229144 0.000000
O O10 0.164008 0.000000 0.000000
O O11 0.877182 0.709169 0.500000
O O12 0.906777 0.806564 0.362875
O O13 0.000000 0.707482 0.384544
O O14 0.102865 0.091540 0.500000
O O15 0.000000 0.091239 0.649471
#
# Coordination Sequence:
#
# PCOD9523801 Si02
#       6
#    16  16   8   8  16  16
#     4  11  24  39  58  88 125 164 208 258 314 371
#     4  12  23  37  64  88 122 163 215 256 305 362
#     4  12  26  43  65  98 134 170 214 264 319 383
#     4  10  22  41  62  93 133 171 203 245 316 397
#     4   9  18  33  58  87 115 146 191 248 303 354
#     4   9  18  34  56  84 118 154 194 241 297 368
#
# _framework density 19.247146000000001
#
# number of rings (size 3 to 8) (size 9 to 14) (size 15 to 20)
#    0.000    1.600    4.000    1.800    4.200    3.400 
#    0.000    3.000    0.000    3.000    0.000    1.400 
#    0.000    0.000    0.000    0.000    0.000    0.000 
#
# Total GULP energy -222875.990407 kJ/mol
# GULP energy per Si atom -5571.899760 kJ/mol
# Density = 1.920334 g / cm^3
# Si number density = 19.247146 Si / 1000 Ang^3
#
#
#
# Elastic Constant Matrix: (Units=GPa)
#
#
# Indices 1 2 3 4 5 6 
#
# 1 77.7854 36.5463 37.0116 0.0000 0.0000 0.0000
# 2 36.5463 71.4927 14.9593 0.0000 0.0000 0.0000
# 3 37.0116 14.9593 63.4031 0.0000 0.0000 0.0000
# 4 0.0000 0.0000 0.0000 17.4678 0.0000 0.0000
# 5 0.0000 0.0000 0.0000 0.0000 30.4209 0.0000
# 6 0.0000 0.0000 0.0000 0.0000 0.0000 13.0120
#
#
#
# Elastic Compliance Matrix: (Units=1/GPa)
#
#
# Indices 1 2 3 4 5 6 
#
# 1 0.022323 -0.009136 -0.010876 0.000000 0.000000 0.000000
# 2 -0.009136 0.018453 0.000979 0.000000 0.000000 0.000000
# 3 -0.010876 0.000979 0.021890 0.000000 0.000000 0.000000
# 4 0.000000 0.000000 0.000000 0.057248 0.000000 0.000000
# 5 0.000000 0.000000 0.000000 0.000000 0.032872 0.000000
# 6 0.000000 0.000000 0.000000 0.000000 0.000000 0.076852
#
#
# Mechanical properties :
#
#
# Convention : Reuss Voigt Hill
#
# Bulk Modulus (GPa) = 40.64831 43.30173 41.97502
# Shear Modulus (GPa) = 18.12241 20.45776 19.29009
#
# Velocity S-wave (km/s) = 3.07182 3.26375 3.16924
# Velocity P-wave (km/s) = 5.80917 6.06212 5.93699
#
# Compressibility (1/GPa) = 0.02460127
#
# Stress axis : x y z
#
# Youngs Moduli (GPa) = 44.79717 54.19309 45.68367
#
# Poissons Ratio (x) = 0.49508 0.49683
# Poissons Ratio (y) = 0.40925 -0.04473
# Poissons Ratio (z) = 0.48719 -0.05307
#
# Static dielectric constant tensor:
#      x y z
#    x 1.708060 0.000000 0.000000 
#    y 0.000000 1.715250 0.000000 
#    z 0.000000 0.000000 1.732200 
# 
# From -- ./inp_files/23859.got.cif
#   From: 2010.05.17/outbox.cif.g08.bks.cpg/sg71_12_cif.got.tgz:23859.got - 2010.06.03 16:22:01.
