data_PCOD9523893
_publ_section_title
;
Structure prediction by ZEFSAII (Michael W. Deem and Ramdas Pophale) SiO2 
 PCOD9523893
Probable space group: I M M M
;
_chemical_formula_sum "Si O2"
_cell_formula_units_Z 104
_cell_length_a 27.980600
_cell_length_b 8.726857
_cell_length_c 22.408891
_cell_angle_alpha 90.000000
_cell_angle_beta 90.000000
_cell_angle_gamma 90.000000
_cell_volume 5471.863396
_symmetry_space_group_name_H-M "I M M M"
_symmetry_group_IT_number 71
_symmetry_cell_setting 'orthorhombic'
loop_
_space_group_symop_operation_xyz
x,y,z
-x,-y,z
x,-y,-z
-x,y,-z
-x,-y,-z
x,y,-z
-x,y,z
x,-y,z
1/2+x,1/2+y,1/2+z
1/2-x,1/2-y,1/2+z
1/2+x,1/2-y,1/2-z
1/2-x,1/2+y,1/2-z
1/2-x,1/2-y,1/2-z
1/2+x,1/2+y,1/2-z
1/2-x,1/2+y,1/2+z
1/2+x,1/2-y,1/2+z
loop_
_atom_site_type_symbol
_atom_site_label
_atom_site_fract_x
_atom_site_fract_y
_atom_site_fract_z
Si Si1 0.556173 0.669657 0.000000
Si Si2 0.555524 0.683471 0.771623
Si Si3 0.809874 0.315928 0.930988
Si Si4 0.603297 0.178249 0.889278
Si Si5 0.199306 0.821480 0.264198
Si Si6 0.709433 0.820427 0.111562
Si Si7 0.377428 0.181204 0.322141
O O1 0.570243 0.756959 0.059489
O O2 0.578739 0.500000 0.000000
O O3 0.500000 0.654100 0.000000
O O4 0.500000 0.730646 0.780139
O O5 0.557719 0.500000 0.771590
O O6 0.588565 0.740185 0.826884
O O7 0.576164 0.741802 0.707893
O O8 0.803036 0.500000 0.922970
O O9 0.758834 0.234491 0.917970
O O10 0.851554 0.268304 0.884162
O O11 0.822985 0.287950 0.000000
O O12 0.657060 0.188106 0.917649
O O13 0.595627 0.000000 0.876908
O O14 0.250000 0.750000 0.250000
O O15 0.197895 0.792771 0.334041
O O16 0.162214 0.721701 0.227305
O O17 0.194487 0.000000 0.248907
O O18 0.715858 0.000000 0.129702
O O19 0.385543 0.000000 0.326422
#
# Coordination Sequence:
#
# PCOD9523893 Si02
#       7
#     8  16  16  16  16  16  16
#     4  11  25  43  61  81 111 157 211 259 306 359
#     4  11  24  41  63  91 121 153 196 252 312 371
#     4  10  23  41  61  87 121 162 204 247 300 363
#     4  11  24  40  60  87 121 159 204 253 303 359
#     4  12  22  34  56  85 119 156 193 237 288 345
#     4  11  23  37  56  85 120 157 198 242 290 351
#     4  11  22  38  61  89 121 156 199 249 303 368
#
# _framework density 19.006322999999998
#
# number of rings (size 3 to 8) (size 9 to 14) (size 15 to 20)
#    0.000    1.000    3.077    3.923    1.077    6.462 
#    0.000    0.000    0.000    0.462    0.000    3.231 
#    0.000    0.000    0.000    0.000    0.000    0.000 
#
# Total GULP energy -289823.609577 kJ/mol
# GULP energy per Si atom -5573.530953 kJ/mol
# Density = 1.896306 g / cm^3
# Si number density = 19.006323 Si / 1000 Ang^3
#
#
#
# Elastic Constant Matrix: (Units=GPa)
#
#
# Indices 1 2 3 4 5 6 
#
# 1 87.6739 26.5219 44.0195 0.0000 0.0000 0.0000
# 2 26.5219 49.5686 22.5677 0.0000 0.0000 0.0000
# 3 44.0195 22.5677 111.8573 0.0000 0.0000 0.0000
# 4 0.0000 0.0000 0.0000 15.9719 0.0000 0.0000
# 5 0.0000 0.0000 0.0000 0.0000 32.1650 0.0000
# 6 0.0000 0.0000 0.0000 0.0000 0.0000 27.9571
#
#
#
# Elastic Compliance Matrix: (Units=1/GPa)
#
#
# Indices 1 2 3 4 5 6 
#
# 1 0.015763 -0.006177 -0.004957 0.000000 0.000000 0.000000
# 2 -0.006177 0.024635 -0.002539 0.000000 0.000000 0.000000
# 3 -0.004957 -0.002539 0.011403 0.000000 0.000000 0.000000
# 4 0.000000 0.000000 0.000000 0.062610 0.000000 0.000000
# 5 0.000000 0.000000 0.000000 0.000000 0.031090 0.000000
# 6 0.000000 0.000000 0.000000 0.000000 0.000000 0.035769
#
#
# Mechanical properties :
#
#
# Convention : Reuss Voigt Hill
#
# Bulk Modulus (GPa) = 40.89264 48.36868 44.63066
# Shear Modulus (GPa) = 23.06592 25.61817 24.34205
#
# Velocity S-wave (km/s) = 3.48744 3.67533 3.58262
# Velocity P-wave (km/s) = 6.14641 6.59657 6.37546
#
# Compressibility (1/GPa) = 0.02445428
#
# Stress axis : x y z
#
# Youngs Moduli (GPa) = 63.43769 40.59201 87.69573
#
# Poissons Ratio (x) = 0.25075 0.43472
# Poissons Ratio (y) = 0.39188 0.22268
# Poissons Ratio (z) = 0.31447 0.10307
#
# Static dielectric constant tensor:
#      x y z
#    x 1.653480 0.000000 0.000000 
#    y 0.000000 1.657750 0.000000 
#    z 0.000000 0.000000 1.678460 
# 
# From -- ./inp_files/56259.got.cif
#   From: 2010.05.17/outbox.cif.g08.bks.cpg/sg71_29_cif.got.tgz:56259.got - 2010.06.03 16:22:01.
