data_PCOD9523355
_publ_section_title
;
Structure prediction by ZEFSAII (Michael W. Deem and Ramdas Pophale) SiO2 
 PCOD9523355
Probable space group: I M M M
;
_chemical_formula_sum "Si O2"
_cell_formula_units_Z 64
_cell_length_a 12.321601
_cell_length_b 31.883926
_cell_length_c 8.413819
_cell_angle_alpha 90.000000
_cell_angle_beta 90.000000
_cell_angle_gamma 90.000000
_cell_volume 3305.461468
_symmetry_space_group_name_H-M "I M M M"
_symmetry_group_IT_number 71
_symmetry_cell_setting 'orthorhombic'
loop_
_space_group_symop_operation_xyz
x,y,z
-x,-y,z
x,-y,-z
-x,y,-z
-x,-y,-z
x,y,-z
-x,y,z
x,-y,z
1/2+x,1/2+y,1/2+z
1/2-x,1/2-y,1/2+z
1/2+x,1/2-y,1/2-z
1/2-x,1/2+y,1/2-z
1/2-x,1/2-y,1/2-z
1/2+x,1/2+y,1/2-z
1/2-x,1/2+y,1/2+z
1/2+x,1/2-y,1/2+z
loop_
_atom_site_type_symbol
_atom_site_label
_atom_site_fract_x
_atom_site_fract_y
_atom_site_fract_z
Si Si1 0.239255 0.953861 0.805786
Si Si2 0.500000 0.429371 0.692781
Si Si3 0.500000 0.668820 0.309373
Si Si4 0.874943 0.627480 0.692331
Si Si5 0.772422 0.796615 0.688672
O O1 0.113983 0.948659 0.753375
O O2 0.310447 0.914204 0.752998
O O3 0.279784 0.000000 0.758311
O O4 0.239105 0.952720 0.000000
O O5 0.500000 0.432968 0.500000
O O6 0.500000 0.380300 0.733192
O O7 0.500000 0.671655 0.500000
O O8 0.608185 0.689701 0.243747
O O9 0.874163 0.626874 0.500000
O O10 0.811999 0.669043 0.745670
O O11 0.000000 0.627249 0.745326
O O12 0.766234 0.796864 0.500000
O O13 0.750000 0.750000 0.750000
#
# Coordination Sequence:
#
# PCOD9523355 Si02
#       5
#    16   8   8  16  16
#     4   9  16  28  51  86 122 156 198 250 305 357
#     4   9  15  27  52  84 120 154 190 243 301 355
#     4  11  21  40  67  93 124 158 197 248 307 362
#     4  10  21  38  59  86 122 161 205 256 305 358
#     4  12  26  43  64  90 121 159 204 251 305 364
#
# _framework density 19.361896999999999
#
# number of rings (size 3 to 8) (size 9 to 14) (size 15 to 20)
#    0.000    1.750    2.500    3.000    1.750    2.500 
#    0.000    2.500    0.000    0.750    0.000    3.500 
#    0.000    0.000    0.000    0.000    0.000    0.000 
#
# Total GULP energy -178743.681142 kJ/mol
# GULP energy per Si atom -5585.740036 kJ/mol
# Density = 1.931783 g / cm^3
# Si number density = 19.361897 Si / 1000 Ang^3
#
#
#
# Elastic Constant Matrix: (Units=GPa)
#
#
# Indices 1 2 3 4 5 6 
#
# 1 169.8203 103.1674 22.1684 0.0002 0.0000 -0.0004
# 2 103.1674 196.5693 25.2596 0.0001 -0.0001 0.0003
# 3 22.1684 25.2596 24.5908 -0.0006 -0.0002 0.0009
# 4 0.0002 0.0001 -0.0006 19.6959 0.0000 -0.0003
# 5 0.0000 -0.0001 -0.0002 0.0000 19.1427 0.0001
# 6 -0.0004 0.0003 0.0009 -0.0003 0.0001 48.0773
#
#
#
# Elastic Compliance Matrix: (Units=1/GPa)
#
#
# Indices 1 2 3 4 5 6 
#
# 1 0.008932 -0.004209 -0.003729 0.000000 0.000000 0.000000
# 2 -0.004209 0.007844 -0.004263 0.000000 0.000000 0.000000
# 3 -0.003729 -0.004263 0.048407 0.000002 0.000001 -0.000001
# 4 0.000000 0.000000 0.000002 0.050772 0.000000 0.000000
# 5 0.000000 0.000000 0.000001 0.000000 0.052239 0.000000
# 6 0.000000 0.000000 -0.000001 0.000000 0.000000 0.020800
#
#
# Mechanical properties :
#
#
# Convention : Reuss Voigt Hill
#
# Bulk Modulus (GPa) = 24.52139 76.90789 50.71464
# Shear Modulus (GPa) = 22.02744 33.40885 27.71814
#
# Velocity S-wave (km/s) = 3.37660 4.15841 3.78773
# Velocity P-wave (km/s) = 5.28149 7.92868 6.73640
#
# Compressibility (1/GPa) = 0.04078072
#
# Stress axis : x y z
#
# Youngs Moduli (GPa) = 111.95368 127.48522 20.65836
#
# Poissons Ratio (x) = 0.53656 0.07704
# Poissons Ratio (y) = 0.47119 0.08807
# Poissons Ratio (z) = 0.41748 0.54349
#
# Static dielectric constant tensor:
#      x y z
#    x 1.658850 0.000000 0.000000 
#    y 0.000000 1.672310 0.000000 
#    z 0.000000 0.000000 1.672590 
# 
# From -- ./inp_files/3719.got.cif
#   From: 2010.05.17/outbox.cif.g08.bks.cpg/sg71_2_cif.got.tgz:3719.got - 2010.06.03 16:22:01.
