data_PCOD9523068
_publ_section_title
;
Structure prediction by ZEFSAII (Michael W. Deem and Ramdas Pophale) SiO2 
 PCOD9523068
Probable space group: I M M M
;
_chemical_formula_sum "Si O2"
_cell_formula_units_Z 88
_cell_length_a 16.613308
_cell_length_b 8.755322
_cell_length_c 28.436647
_cell_angle_alpha 90.000000
_cell_angle_beta 90.000000
_cell_angle_gamma 90.000000
_cell_volume 4136.248537
_symmetry_space_group_name_H-M "I M M M"
_symmetry_group_IT_number 71
_symmetry_cell_setting 'orthorhombic'
loop_
_space_group_symop_operation_xyz
x,y,z
-x,-y,z
x,-y,-z
-x,y,-z
-x,-y,-z
x,y,-z
-x,y,z
x,-y,z
1/2+x,1/2+y,1/2+z
1/2-x,1/2-y,1/2+z
1/2+x,1/2-y,1/2-z
1/2-x,1/2+y,1/2-z
1/2-x,1/2-y,1/2-z
1/2+x,1/2+y,1/2-z
1/2-x,1/2+y,1/2+z
1/2+x,1/2-y,1/2+z
loop_
_atom_site_type_symbol
_atom_site_label
_atom_site_fract_x
_atom_site_fract_y
_atom_site_fract_z
Si Si1 0.860684 0.176956 0.945942
Si Si2 0.902915 0.828803 0.500000
Si Si3 0.751408 0.822418 0.139684
Si Si4 0.591352 0.815819 0.100331
Si Si5 0.500000 0.176888 0.386917
Si Si6 0.000000 0.181200 0.783512
Si Si7 0.329121 0.179755 0.725248
O O1 0.781907 0.180984 0.913780
O O2 0.924751 0.281286 0.919690
O O3 0.889731 0.000000 0.944787
O O4 0.847411 0.219056 0.000000
O O5 0.885052 0.744020 0.548640
O O6 0.000000 0.838886 0.500000
O O7 0.868994 0.000000 0.500000
O O8 0.750000 0.750000 0.250000
O O9 0.809102 0.719865 0.171072
O O10 0.757350 0.000000 0.155765
O O11 0.500000 0.765195 0.110840
O O12 0.658810 0.770748 0.138208
O O13 0.592101 0.000000 0.098889
O O14 0.500000 0.275336 0.339146
O O15 0.500000 0.000000 0.372998
O O16 0.083682 0.248888 0.763304
O O17 0.000000 0.000000 0.778404
O O18 0.332423 0.000000 0.733472
#
# Coordination Sequence:
#
# PCOD9523068 Si02
#       7
#    16   8  16  16   8   8  16
#     4  10  21  36  57  86 124 174 222 265 321 389
#     4   9  17  29  47  73 107 152 205 260 315 373
#     4  10  21  38  62  90 126 168 213 268 326 388
#     4   9  18  33  54  80 113 158 209 259 312 373
#     4  12  23  37  60  91 128 172 220 267 319 383
#     4  12  24  45  75 104 136 177 221 275 340 405
#     4  12  26  47  74 104 135 171 217 270 331 403
#
# _framework density 21.275317000000001
#
# number of rings (size 3 to 8) (size 9 to 14) (size 15 to 20)
#    0.000    1.545    1.818    3.818    1.273    3.273 
#    1.636    0.000    0.000    0.000    0.000    0.000 
#    0.000    0.000    0.000    0.000    0.000    0.000 
#
# Total GULP energy -245750.533229 kJ/mol
# GULP energy per Si atom -5585.239392 kJ/mol
# Density = 2.122689 g / cm^3
# Si number density = 21.275317 Si / 1000 Ang^3
#
#
#
# Elastic Constant Matrix: (Units=GPa)
#
#
# Indices 1 2 3 4 5 6 
#
# 1 153.0925 65.6285 27.4570 0.0000 0.0000 0.0000
# 2 65.6285 104.1381 13.0053 0.0000 0.0000 0.0000
# 3 27.4570 13.0053 45.7298 0.0000 0.0000 0.0000
# 4 0.0000 0.0000 0.0000 5.8364 0.0000 0.0000
# 5 0.0000 0.0000 0.0000 0.0000 33.5164 0.0000
# 6 0.0000 0.0000 0.0000 0.0000 0.0000 24.0755
#
#
#
# Elastic Compliance Matrix: (Units=1/GPa)
#
#
# Indices 1 2 3 4 5 6 
#
# 1 0.009679 -0.005572 -0.004227 0.000000 0.000000 0.000000
# 2 -0.005572 0.013164 -0.000398 0.000000 0.000000 0.000000
# 3 -0.004227 -0.000398 0.024519 0.000000 0.000000 0.000000
# 4 0.000000 0.000000 0.000000 0.171340 0.000000 0.000000
# 5 0.000000 0.000000 0.000000 0.000000 0.029836 0.000000
# 6 0.000000 0.000000 0.000000 0.000000 0.000000 0.041536
#
#
# Mechanical properties :
#
#
# Convention : Reuss Voigt Hill
#
# Bulk Modulus (GPa) = 37.08160 57.23800 47.15980
# Shear Modulus (GPa) = 15.65167 25.81030 20.73098
#
# Velocity S-wave (km/s) = 2.71527 3.48682 3.12495
# Velocity P-wave (km/s) = 5.22470 6.57057 5.93590
#
# Compressibility (1/GPa) = 0.02696755
#
# Stress axis : x y z
#
# Youngs Moduli (GPa) = 103.32167 75.96671 40.78537
#
# Poissons Ratio (x) = 0.42326 0.17238
# Poissons Ratio (y) = 0.57567 0.01625
# Poissons Ratio (z) = 0.43670 0.03026
#
# Static dielectric constant tensor:
#      x y z
#    x 1.805720 0.000000 0.000000 
#    y 0.000000 1.744060 0.000000 
#    z 0.000000 0.000000 1.789180 
# 
# From -- ./inp_files/55634.got.cif
#   From: 2010.05.17/outbox.cif.g08.bks.cpg/sg71_28_cif.got.tgz:55634.got - 2010.06.03 16:22:01.
