data_PCOD9523421
_publ_section_title
;
Structure prediction by ZEFSAII (Michael W. Deem and Ramdas Pophale) SiO2 
 PCOD9523421
Probable space group: I M M M
;
_chemical_formula_sum "Si O2"
_cell_formula_units_Z 88
_cell_length_a 12.130568
_cell_length_b 14.612702
_cell_length_c 26.299855
_cell_angle_alpha 90.000000
_cell_angle_beta 90.000000
_cell_angle_gamma 90.000000
_cell_volume 4661.922167
_symmetry_space_group_name_H-M "I M M M"
_symmetry_group_IT_number 71
_symmetry_cell_setting 'orthorhombic'
loop_
_space_group_symop_operation_xyz
x,y,z
-x,-y,z
x,-y,-z
-x,y,-z
-x,-y,-z
x,y,-z
-x,y,z
x,-y,z
1/2+x,1/2+y,1/2+z
1/2-x,1/2-y,1/2+z
1/2+x,1/2-y,1/2-z
1/2-x,1/2+y,1/2-z
1/2-x,1/2-y,1/2-z
1/2+x,1/2+y,1/2-z
1/2-x,1/2+y,1/2+z
1/2+x,1/2-y,1/2+z
loop_
_atom_site_type_symbol
_atom_site_label
_atom_site_fract_x
_atom_site_fract_y
_atom_site_fract_z
Si Si1 0.500000 0.111870 0.635922
Si Si2 0.868349 0.000000 0.636105
Si Si3 0.000000 0.106315 0.061154
Si Si4 0.819036 0.755186 0.898607
Si Si5 0.366611 0.500000 0.747434
Si Si6 0.734724 0.172770 0.791926
Si Si7 0.500000 0.108605 0.243065
Si Si8 0.127763 0.158431 0.443131
O O1 0.604645 0.165042 0.611414
O O2 0.500000 0.133963 0.696674
O O3 0.500000 0.000000 0.629496
O O4 0.824496 0.000000 0.693470
O O5 0.843367 0.912748 0.601483
O O6 0.000000 0.000000 0.642115
O O7 0.896125 0.163081 0.081974
O O8 0.000000 0.000000 0.077407
O O9 0.000000 0.109068 0.000000
O O10 0.764117 0.785291 0.845943
O O11 0.720260 0.734759 0.937306
O O12 0.500000 0.500000 0.745846
O O13 0.316187 0.410889 0.720954
O O14 0.750000 0.250000 0.750000
O O15 0.608926 0.141946 0.785365
O O16 0.500000 0.000000 0.242776
O O17 0.133799 0.117753 0.500000
O O18 0.000000 0.187464 0.435962
#
# Coordination Sequence:
#
# PCOD9523421 Si02
#       8
#     8   8   8  16   8  16   8  16
#     4  10  23  41  61  90 127 170 209 257 309 376
#     4   9  19  36  56  89 121 169 201 244 304 373
#     4  10  24  46  71  92 119 160 216 278 333 378
#     4  11  24  39  66  94 123 166 213 264 319 377
#     4  11  26  40  63  92 132 162 211 261 311 368
#     4  12  25  40  61  91 128 170 211 259 312 382
#     4  11  23  41  57  82 128 170 213 250 317 379
#     4  10  21  38  62  91 125 162 207 259 316 381
#
# _framework density 18.876334
#
# number of rings (size 3 to 8) (size 9 to 14) (size 15 to 20)
#    0.000    1.364    2.727    1.909    7.636    1.091 
#    0.000    0.000    0.000    1.636    0.000    2.545 
#    0.000    0.000    0.000    0.000    0.000    0.000 
#
# Total GULP energy -245678.883971 kJ/mol
# GULP energy per Si atom -5583.610999 kJ/mol
# Density = 1.883337 g / cm^3
# Si number density = 18.876334 Si / 1000 Ang^3
#
#
#
# Elastic Constant Matrix: (Units=GPa)
#
#
# Indices 1 2 3 4 5 6 
#
# 1 142.2662 51.9055 30.7892 0.0000 0.0000 0.0000
# 2 51.9055 102.6128 20.6213 0.0000 0.0000 0.0000
# 3 30.7892 20.6213 76.4794 0.0000 0.0000 0.0000
# 4 0.0000 0.0000 0.0000 16.3749 0.0000 0.0000
# 5 0.0000 0.0000 0.0000 0.0000 28.3163 0.0000
# 6 0.0000 0.0000 0.0000 0.0000 0.0000 19.2597
#
#
#
# Elastic Compliance Matrix: (Units=1/GPa)
#
#
# Indices 1 2 3 4 5 6 
#
# 1 0.009068 -0.004074 -0.002552 0.000000 0.000000 0.000000
# 2 -0.004074 0.012134 -0.001632 0.000000 0.000000 0.000000
# 3 -0.002552 -0.001632 0.014543 0.000000 0.000000 0.000000
# 4 0.000000 0.000000 0.000000 0.061069 0.000000 0.000000
# 5 0.000000 0.000000 0.000000 0.000000 0.035315 0.000000
# 6 0.000000 0.000000 0.000000 0.000000 0.000000 0.051922
#
#
# Mechanical properties :
#
#
# Convention : Reuss Voigt Hill
#
# Bulk Modulus (GPa) = 52.00400 58.66563 55.33481
# Shear Modulus (GPa) = 24.15738 27.32632 25.74185
#
# Velocity S-wave (km/s) = 3.58127 3.80893 3.69685
# Velocity P-wave (km/s) = 6.68658 7.10565 6.89930
#
# Compressibility (1/GPa) = 0.01922929
#
# Stress axis : x y z
#
# Youngs Moduli (GPa) = 110.28071 82.41278 68.76273
#
# Poissons Ratio (x) = 0.33575 0.17549
# Poissons Ratio (y) = 0.44928 0.11220
# Poissons Ratio (z) = 0.28144 0.13447
#
# Static dielectric constant tensor:
#      x y z
#    x 1.658390 0.000000 0.000000 
#    y 0.000000 1.731310 0.000000 
#    z 0.000000 0.000000 1.587710 
# 
# From -- ./inp_files/64525.got.cif
#   From: 2010.05.17/outbox.cif.g08.bks.cpg/sg71_33_cif.got.tgz:64525.got - 2010.06.03 16:22:01.
