data_PCOD9523964
_publ_section_title
;
Structure prediction by ZEFSAII (Michael W. Deem and Ramdas Pophale) SiO2 
 PCOD9523964
Probable space group: I M M M
;
_chemical_formula_sum "Si O2"
_cell_formula_units_Z 64
_cell_length_a 15.438520
_cell_length_b 7.955037
_cell_length_c 25.745083
_cell_angle_alpha 90.000000
_cell_angle_beta 90.000000
_cell_angle_gamma 90.000000
_cell_volume 3161.856568
_symmetry_space_group_name_H-M "I M M M"
_symmetry_group_IT_number 71
_symmetry_cell_setting 'orthorhombic'
loop_
_space_group_symop_operation_xyz
x,y,z
-x,-y,z
x,-y,-z
-x,y,-z
-x,-y,-z
x,y,-z
-x,y,z
x,-y,z
1/2+x,1/2+y,1/2+z
1/2-x,1/2-y,1/2+z
1/2+x,1/2-y,1/2-z
1/2-x,1/2+y,1/2-z
1/2-x,1/2-y,1/2-z
1/2+x,1/2+y,1/2-z
1/2-x,1/2+y,1/2+z
1/2+x,1/2-y,1/2+z
loop_
_atom_site_type_symbol
_atom_site_label
_atom_site_fract_x
_atom_site_fract_y
_atom_site_fract_z
Si Si1 0.146025 0.807852 0.630620
Si Si2 0.000000 0.694259 0.830843
Si Si3 0.396615 0.000000 0.057227
Si Si4 0.101372 0.204980 0.000000
Si Si5 0.829079 0.197836 0.111848
Si Si6 0.000000 0.800051 0.714109
O O1 0.127828 0.669681 0.586928
O O2 0.248948 0.792903 0.638189
O O3 0.084983 0.762902 0.679404
O O4 0.123838 0.000000 0.616051
O O5 0.084647 0.779368 0.854823
O O6 0.000000 0.709177 0.768859
O O7 0.000000 0.500000 0.846645
O O8 0.500000 0.000000 0.053849
O O9 0.356732 0.000000 0.000000
O O10 0.149001 0.257377 0.053115
O O11 0.000000 0.258485 0.000000
O O12 0.100034 0.000000 0.000000
O O13 0.807408 0.000000 0.109263
O O14 0.000000 0.000000 0.724444
#
# Coordination Sequence:
#
# PCOD9523964 Si02
#       6
#    16   8   8   8  16   8
#     4  11  24  43  68  98 134 172 224 273 328 393
#     4  12  26  41  63  94 130 171 223 276 332 392
#     4  11  24  42  68  99 135 179 223 266 332 394
#     4   9  18  36  64  91 124 172 213 255 321 387
#     4  11  22  40  66  96 132 172 219 271 327 399
#     4  10  24  46  69  90 122 171 220 279 337 385
#
# _framework density 20.241271999999999
#
# number of rings (size 3 to 8) (size 9 to 14) (size 15 to 20)
#    0.000    1.250    3.750    1.875    3.500    1.500 
#    0.000    3.750    0.000    0.000    0.000    0.000 
#    0.000    0.000    0.000    0.000    0.000    0.000 
#
# Total GULP energy -178826.480709 kJ/mol
# GULP energy per Si atom -5588.327522 kJ/mol
# Density = 2.019520 g / cm^3
# Si number density = 20.241272 Si / 1000 Ang^3
#
#
#
# Elastic Constant Matrix: (Units=GPa)
#
#
# Indices 1 2 3 4 5 6 
#
# 1 140.1237 8.8642 49.7909 0.0000 0.0000 0.0000
# 2 8.8642 75.1750 35.1637 0.0000 0.0000 0.0000
# 3 49.7909 35.1637 120.1750 0.0000 0.0000 0.0000
# 4 0.0000 0.0000 0.0000 21.1127 0.0000 0.0000
# 5 0.0000 0.0000 0.0000 0.0000 -10.6920 0.0000
# 6 0.0000 0.0000 0.0000 0.0000 0.0000 15.2117
#
#
#
# Elastic Compliance Matrix: (Units=1/GPa)
#
#
# Indices 1 2 3 4 5 6 
#
# 1 0.008404 0.000739 -0.003698 0.000000 0.000000 0.000000
# 2 0.000739 0.015477 -0.004835 0.000000 0.000000 0.000000
# 3 -0.003698 -0.004835 0.011268 0.000000 0.000000 0.000000
# 4 0.000000 0.000000 0.000000 0.047365 0.000000 0.000000
# 5 0.000000 0.000000 0.000000 0.000000 -0.093527 0.000000
# 6 0.000000 0.000000 0.000000 0.000000 0.000000 0.065739
#
#
# Mechanical properties :
#
#
# Convention : Reuss Voigt Hill
#
# Bulk Modulus (GPa) = 51.12267 58.12345 54.62306
# Shear Modulus (GPa) = 65.07634 21.23680 43.15657
#
# Velocity S-wave (km/s) = 5.67628 3.24262 4.62248
# Velocity P-wave (km/s) = 8.26267 6.54195 7.45214
#
# Compressibility (1/GPa) = 0.01956079
#
# Stress axis : x y z
#
# Youngs Moduli (GPa) = 118.99276 64.61357 88.74665
#
# Poissons Ratio (x) = -0.04774 0.32819
# Poissons Ratio (y) = -0.08792 0.42906
# Poissons Ratio (z) = 0.44005 0.31238
#
# Static dielectric constant tensor:
#      x y z
#    x 1.796780 0.000000 0.000000 
#    y 0.000000 1.702020 0.000000 
#    z 0.000000 0.000000 1.690020 
# 
# From -- ./inp_files/59511.got.cif
#   From: 2010.05.17/outbox.cif.g08.bks.cpg/sg71_30_cif.got.tgz:59511.got - 2010.06.03 16:22:01.
