data_PCOD9523135
_publ_section_title
;
Structure prediction by ZEFSAII (Michael W. Deem and Ramdas Pophale) SiO2 
 PCOD9523135
Probable space group: I M M M
;
_chemical_formula_sum "Si O2"
_cell_formula_units_Z 88
_cell_length_a 18.186115
_cell_length_b 8.900539
_cell_length_c 31.496093
_cell_angle_alpha 90.000000
_cell_angle_beta 90.000000
_cell_angle_gamma 90.000000
_cell_volume 5098.153702
_symmetry_space_group_name_H-M "I M M M"
_symmetry_group_IT_number 71
_symmetry_cell_setting 'orthorhombic'
loop_
_space_group_symop_operation_xyz
x,y,z
-x,-y,z
x,-y,-z
-x,y,-z
-x,-y,-z
x,y,-z
-x,y,z
x,-y,z
1/2+x,1/2+y,1/2+z
1/2-x,1/2-y,1/2+z
1/2+x,1/2-y,1/2-z
1/2-x,1/2+y,1/2-z
1/2-x,1/2-y,1/2-z
1/2+x,1/2+y,1/2-z
1/2-x,1/2+y,1/2+z
1/2+x,1/2-y,1/2+z
loop_
_atom_site_type_symbol
_atom_site_label
_atom_site_fract_x
_atom_site_fract_y
_atom_site_fract_z
Si Si1 0.299459 0.180797 0.884976
Si Si2 0.736350 0.679711 0.704410
Si Si3 0.587933 0.326456 0.500000
Si Si4 0.419203 0.678657 0.663855
Si Si5 0.147234 0.321933 0.915634
Si Si6 0.587099 0.680827 0.951298
O O1 0.289715 0.226211 0.834995
O O2 0.224283 0.241450 0.905502
O O3 0.365385 0.245339 0.913749
O O4 0.301463 0.000000 0.886252
O O5 0.742391 0.500000 0.707504
O O6 0.750000 0.750000 0.750000
O O7 0.652130 0.715954 0.691559
O O8 0.612765 0.500000 0.500000
O O9 0.500000 0.325805 0.500000
O O10 0.617206 0.240526 0.540692
O O11 0.500000 0.705882 0.682785
O O12 0.414256 0.500000 0.653904
O O13 0.408806 0.771782 0.621065
O O14 0.157065 0.500000 0.916126
O O15 0.500000 0.713980 0.946669
O O16 0.595799 0.500000 0.948962
O O17 0.608683 0.725808 0.000000
#
# Coordination Sequence:
#
# PCOD9523135 Si02
#       6
#    16  16   8  16  16  16
#     4  10  21  37  56  79 108 143 182 222 268 326
#     4   9  19  35  55  79 106 138 177 223 276 329
#     4  11  23  37  51  69 100 141 178 213 257 305
#     4   9  18  35  56  76 102 136 174 216 265 323
#     4  11  22  34  51  76 105 137 175 219 262 307
#     4   9  19  36  57  82 113 146 182 229 281 328
#
# _framework density 17.261150000000001
#
# number of rings (size 3 to 8) (size 9 to 14) (size 15 to 20)
#    0.000    2.273    0.000    4.636    1.273    7.636 
#    0.000    1.818    0.000    3.273    0.000    0.000 
#    0.000    0.000    0.000    0.000    0.000    0.000 
#
# Total GULP energy -245297.396452 kJ/mol
# GULP energy per Si atom -5574.940828 kJ/mol
# Density = 1.722186 g / cm^3
# Si number density = 17.261150 Si / 1000 Ang^3
#
#
#
# Elastic Constant Matrix: (Units=GPa)
#
#
# Indices 1 2 3 4 5 6 
#
# 1 89.3570 36.4846 72.8319 0.0000 0.0000 0.0000
# 2 36.4846 41.5273 53.2522 0.0000 0.0000 0.0000
# 3 72.8319 53.2522 165.0485 0.0000 0.0000 0.0000
# 4 0.0000 0.0000 0.0000 37.6323 0.0000 0.0000
# 5 0.0000 0.0000 0.0000 0.0000 13.7636 0.0000
# 6 0.0000 0.0000 0.0000 0.0000 0.0000 18.6896
#
#
#
# Elastic Compliance Matrix: (Units=1/GPa)
#
#
# Indices 1 2 3 4 5 6 
#
# 1 0.019884 -0.010606 -0.005352 0.000000 0.000000 0.000000
# 2 -0.010606 0.046732 -0.010398 0.000000 0.000000 0.000000
# 3 -0.005352 -0.010398 0.011776 0.000000 0.000000 0.000000
# 4 0.000000 0.000000 0.000000 0.026573 0.000000 0.000000
# 5 0.000000 0.000000 0.000000 0.000000 0.072656 0.000000
# 6 0.000000 0.000000 0.000000 0.000000 0.000000 0.053506
#
#
# Mechanical properties :
#
#
# Convention : Reuss Voigt Hill
#
# Bulk Modulus (GPa) = 38.94159 69.00780 53.97469
# Shear Modulus (GPa) = 17.09999 22.90802 20.00401
#
# Velocity S-wave (km/s) = 3.15090 3.64695 3.40796
# Velocity P-wave (km/s) = 5.98722 7.60257 6.84273
#
# Compressibility (1/GPa) = 0.02567949
#
# Stress axis : x y z
#
# Youngs Moduli (GPa) = 50.29161 21.39856 84.92199
#
# Poissons Ratio (x) = 0.22695 0.45454
# Poissons Ratio (y) = 0.53339 0.88300
# Poissons Ratio (z) = 0.26918 0.22250
#
# Static dielectric constant tensor:
#      x y z
#    x 1.596750 0.000000 0.000000 
#    y 0.000000 1.576550 0.000000 
#    z 0.000000 0.000000 1.566210 
# 
# From -- ./inp_files/8784.got.cif
#   From: 2010.05.17/outbox.cif.g08.bks.cpg/sg71_5_cif.got.tgz:8784.got - 2010.06.03 16:22:01.
