data_PCOD9523750
_publ_section_title
;
Structure prediction by ZEFSAII (Michael W. Deem and Ramdas Pophale) SiO2 
 PCOD9523750
Probable space group: I M M M
;
_chemical_formula_sum "Si O2"
_cell_formula_units_Z 80
_cell_length_a 11.613318
_cell_length_b 23.159266
_cell_length_c 17.588485
_cell_angle_alpha 90.000000
_cell_angle_beta 90.000000
_cell_angle_gamma 90.000000
_cell_volume 4730.527177
_symmetry_space_group_name_H-M "I M M M"
_symmetry_group_IT_number 71
_symmetry_cell_setting 'orthorhombic'
loop_
_space_group_symop_operation_xyz
x,y,z
-x,-y,z
x,-y,-z
-x,y,-z
-x,-y,-z
x,y,-z
-x,y,z
x,-y,z
1/2+x,1/2+y,1/2+z
1/2-x,1/2-y,1/2+z
1/2+x,1/2-y,1/2-z
1/2-x,1/2+y,1/2-z
1/2-x,1/2-y,1/2-z
1/2+x,1/2+y,1/2-z
1/2-x,1/2+y,1/2+z
1/2+x,1/2-y,1/2+z
loop_
_atom_site_type_symbol
_atom_site_label
_atom_site_fract_x
_atom_site_fract_y
_atom_site_fract_z
Si Si1 0.365514 0.408129 0.000000
Si Si2 0.865409 0.670277 0.232338
Si Si3 0.786055 0.219933 0.865091
Si Si4 0.000000 0.068658 0.763226
Si Si5 0.772439 0.933373 0.665661
Si Si6 0.500000 0.356051 0.414622
Si Si7 0.133355 0.769208 0.500000
O O1 0.305099 0.429044 0.076943
O O2 0.500000 0.426074 0.000000
O O3 0.361684 0.338590 0.000000
O O4 0.841976 0.726197 0.179704
O O5 0.785744 0.681133 0.305829
O O6 0.823572 0.612754 0.189229
O O7 0.000000 0.667445 0.251538
O O8 0.887145 0.183421 0.903614
O O9 0.698556 0.245288 0.926623
O O10 0.112725 0.083161 0.713451
O O11 0.000000 0.099759 0.844219
O O12 0.000000 0.000000 0.774010
O O13 0.742786 0.000000 0.683395
O O14 0.500000 0.381021 0.500000
O O15 0.000000 0.751915 0.500000
#
# Coordination Sequence:
#
# PCOD9523750 Si02
#       7
#     8  16  16   8  16   8   8
#     4  11  21  34  57  88 118 154 195 242 294 340
#     4  11  23  38  58  81 116 158 196 244 287 345
#     4  11  22  37  57  88 115 149 195 236 293 353
#     4  10  22  40  60  86 117 152 195 247 289 342
#     4  11  22  37  59  85 117 154 202 244 287 346
#     4  12  22  37  65  91 117 148 187 241 302 354
#     4  11  22  36  57  85 120 156 188 236 293 361
#
# _framework density 16.911435999999998
#
# number of rings (size 3 to 8) (size 9 to 14) (size 15 to 20)
#    0.000    1.000    7.000    0.900    0.000    1.000 
#    0.000    1.500    0.000    1.200    0.000    0.000 
#    0.000    6.400    0.000    0.000    0.000    0.000 
#
# Total GULP energy -223425.778053 kJ/mol
# GULP energy per Si atom -5585.644451 kJ/mol
# Density = 1.687294 g / cm^3
# Si number density = 16.911436 Si / 1000 Ang^3
#
#
#
# Elastic Constant Matrix: (Units=GPa)
#
#
# Indices 1 2 3 4 5 6 
#
# 1 103.0060 33.7596 27.0202 0.0000 0.0000 0.0000
# 2 33.7596 55.4603 25.8457 0.0000 0.0000 0.0000
# 3 27.0202 25.8457 102.8187 0.0000 0.0000 0.0000
# 4 0.0000 0.0000 0.0000 47.2975 0.0000 0.0000
# 5 0.0000 0.0000 0.0000 0.0000 24.3314 0.0000
# 6 0.0000 0.0000 0.0000 0.0000 0.0000 11.6754
#
#
#
# Elastic Compliance Matrix: (Units=1/GPa)
#
#
# Indices 1 2 3 4 5 6 
#
# 1 0.012338 -0.006795 -0.001534 0.000000 0.000000 0.000000
# 2 -0.006795 0.024166 -0.004289 0.000000 0.000000 0.000000
# 3 -0.001534 -0.004289 0.011207 0.000000 0.000000 0.000000
# 4 0.000000 0.000000 0.000000 0.021143 0.000000 0.000000
# 5 0.000000 0.000000 0.000000 0.000000 0.041099 0.000000
# 6 0.000000 0.000000 0.000000 0.000000 0.000000 0.085650
#
#
# Mechanical properties :
#
#
# Convention : Reuss Voigt Hill
#
# Bulk Modulus (GPa) = 44.49531 48.28179 46.38855
# Shear Modulus (GPa) = 21.89807 28.30483 25.10145
#
# Velocity S-wave (km/s) = 3.60233 4.09554 3.85683
# Velocity P-wave (km/s) = 6.60835 7.13977 6.87919
#
# Compressibility (1/GPa) = 0.02247428
#
# Stress axis : x y z
#
# Youngs Moduli (GPa) = 81.05246 41.38053 89.22890
#
# Poissons Ratio (x) = 0.28119 0.13689
# Poissons Ratio (y) = 0.55077 0.38269
# Poissons Ratio (z) = 0.12435 0.17748
#
# Static dielectric constant tensor:
#      x y z
#    x 1.546670 0.000000 0.000000 
#    y 0.000000 1.554370 0.000000 
#    z 0.000000 0.000000 1.558510 
# 
# From -- ./inp_files/23891.got.cif
#   From: 2010.05.17/outbox.cif.g08.bks.cpg/sg71_12_cif.got.tgz:23891.got - 2010.06.03 16:22:01.
