data_PCOD9523070
_publ_section_title
;
Structure prediction by ZEFSAII (Michael W. Deem and Ramdas Pophale) SiO2 
 PCOD9523070
Probable space group: I M M M
;
_chemical_formula_sum "Si O2"
_cell_formula_units_Z 104
_cell_length_a 22.135381
_cell_length_b 28.223728
_cell_length_c 8.862078
_cell_angle_alpha 90.000000
_cell_angle_beta 90.000000
_cell_angle_gamma 90.000000
_cell_volume 5536.520952
_symmetry_space_group_name_H-M "I M M M"
_symmetry_group_IT_number 71
_symmetry_cell_setting 'orthorhombic'
loop_
_space_group_symop_operation_xyz
x,y,z
-x,-y,z
x,-y,-z
-x,y,-z
-x,-y,-z
x,y,-z
-x,y,z
x,-y,z
1/2+x,1/2+y,1/2+z
1/2-x,1/2-y,1/2+z
1/2+x,1/2-y,1/2-z
1/2-x,1/2+y,1/2-z
1/2-x,1/2-y,1/2-z
1/2+x,1/2+y,1/2-z
1/2-x,1/2+y,1/2+z
1/2+x,1/2-y,1/2+z
loop_
_atom_site_type_symbol
_atom_site_label
_atom_site_fract_x
_atom_site_fract_y
_atom_site_fract_z
Si Si1 0.069930 0.305149 0.320138
Si Si2 0.500000 0.943468 0.327241
Si Si3 0.430616 0.702463 0.680006
Si Si4 0.427942 0.445328 0.333291
Si Si5 0.742753 0.054671 0.682819
Si Si6 0.621069 0.096005 0.180996
Si Si7 0.349407 0.623578 0.825730
O O1 0.074742 0.296882 0.500000
O O2 0.079995 0.256052 0.235019
O O3 0.114144 0.348185 0.279452
O O4 0.000000 0.319918 0.290710
O O5 0.500000 0.925191 0.500000
O O6 0.440326 0.927086 0.241033
O O7 0.500000 0.000000 0.333170
O O8 0.430308 0.700235 0.500000
O O9 0.500000 0.689098 0.729613
O O10 0.378203 0.668664 0.743067
O O11 0.408548 0.426919 0.500000
O O12 0.500000 0.443150 0.330974
O O13 0.409940 0.500000 0.323518
O O14 0.400815 0.415851 0.198591
O O15 0.742878 0.055023 0.500000
O O16 0.677872 0.070402 0.744274
O O17 0.790709 0.094961 0.733355
O O18 0.756676 0.000000 0.729069
O O19 0.624375 0.092204 0.000000
O O20 0.339560 0.635411 0.000000
#
# Coordination Sequence:
#
# PCOD9523070 Si02
#       7
#    16   8  16  16  16  16  16
#     4   9  18  36  59  85 118 149 180 228 289 343
#     4  11  23  37  57  87 123 159 191 229 282 343
#     4  10  21  36  57  87 118 148 189 239 289 344
#     4   9  18  32  50  74 105 139 178 231 291 345
#     4  10  23  42  59  79 113 155 197 239 285 342
#     4  11  22  38  61  90 118 148 190 239 289 340
#     4  11  22  36  55  78 108 150 195 238 286 340
#
# _framework density 18.784358999999998
#
# number of rings (size 3 to 8) (size 9 to 14) (size 15 to 20)
#    0.000    1.923    0.769    3.462    0.000    9.231 
#    0.000    1.538    0.000    0.000    0.000    0.000 
#    0.000    0.000    0.000    0.000    0.000    0.000 
#
# Total GULP energy -290077.033242 kJ/mol
# GULP energy per Si atom -5578.404485 kJ/mol
# Density = 1.874160 g / cm^3
# Si number density = 18.784359 Si / 1000 Ang^3
#
#
#
# Elastic Constant Matrix: (Units=GPa)
#
#
# Indices 1 2 3 4 5 6 
#
# 1 91.6162 53.7574 23.3432 0.0000 0.0000 0.0000
# 2 53.7574 95.4414 28.1192 0.0000 0.0000 0.0000
# 3 23.3432 28.1192 20.5980 0.0000 0.0000 0.0000
# 4 0.0000 0.0000 0.0000 31.1960 0.0000 0.0000
# 5 0.0000 0.0000 0.0000 0.0000 20.5890 0.0000
# 6 0.0000 0.0000 0.0000 0.0000 0.0000 35.8769
#
#
#
# Elastic Compliance Matrix: (Units=1/GPa)
#
#
# Indices 1 2 3 4 5 6 
#
# 1 0.017617 -0.006759 -0.010738 0.000000 0.000000 0.000000
# 2 -0.006759 0.020120 -0.019807 0.000000 0.000000 0.000000
# 3 -0.010738 -0.019807 0.087757 0.000000 0.000000 0.000000
# 4 0.000000 0.000000 0.000000 0.032055 0.000000 0.000000
# 5 0.000000 0.000000 0.000000 0.000000 0.048570 0.000000
# 6 0.000000 0.000000 0.000000 0.000000 0.000000 0.027873
#
#
# Mechanical properties :
#
#
# Convention : Reuss Voigt Hill
#
# Bulk Modulus (GPa) = 19.65172 46.45502 33.05337
# Shear Modulus (GPa) = 15.35803 24.36144 19.85974
#
# Velocity S-wave (km/s) = 2.86247 3.60516 3.25506
# Velocity P-wave (km/s) = 4.62703 6.48952 5.63575
#
# Compressibility (1/GPa) = 0.05088614
#
# Stress axis : x y z
#
# Youngs Moduli (GPa) = 56.76304 49.70080 11.39513
#
# Poissons Ratio (x) = 0.33594 0.12236
# Poissons Ratio (y) = 0.38368 0.22570
# Poissons Ratio (z) = 0.60950 0.98443
#
# Static dielectric constant tensor:
#      x y z
#    x 1.643570 0.000000 0.000000 
#    y 0.000000 1.659140 0.000000 
#    z 0.000000 0.000000 1.658480 
# 
# From -- ./inp_files/11135.got.cif
#   From: 2010.05.17/outbox.cif.g08.bks.cpg/sg71_6_cif.got.tgz:11135.got - 2010.06.03 16:22:01.
