data_PCOD9523606
_publ_section_title
;
Structure prediction by ZEFSAII (Michael W. Deem and Ramdas Pophale) SiO2 
 PCOD9523606
Probable space group: I M M M
;
_chemical_formula_sum "Si O2"
_cell_formula_units_Z 88
_cell_length_a 17.483257
_cell_length_b 13.902411
_cell_length_c 20.040648
_cell_angle_alpha 90.000000
_cell_angle_beta 90.000000
_cell_angle_gamma 90.000000
_cell_volume 4871.068368
_symmetry_space_group_name_H-M "I M M M"
_symmetry_group_IT_number 71
_symmetry_cell_setting 'orthorhombic'
loop_
_space_group_symop_operation_xyz
x,y,z
-x,-y,z
x,-y,-z
-x,y,-z
-x,-y,-z
x,y,-z
-x,y,z
x,-y,z
1/2+x,1/2+y,1/2+z
1/2-x,1/2-y,1/2+z
1/2+x,1/2-y,1/2-z
1/2-x,1/2+y,1/2-z
1/2-x,1/2-y,1/2-z
1/2+x,1/2+y,1/2-z
1/2-x,1/2+y,1/2+z
1/2+x,1/2-y,1/2+z
loop_
_atom_site_type_symbol
_atom_site_label
_atom_site_fract_x
_atom_site_fract_y
_atom_site_fract_z
Si Si1 0.754203 0.000000 0.785231
Si Si2 0.081451 0.716318 0.784704
Si Si3 0.416219 0.000000 0.273129
Si Si4 0.618595 0.291804 0.141128
Si Si5 0.087907 0.000000 0.697902
Si Si6 0.223196 0.197065 0.139649
Si Si7 0.414953 0.807246 0.000000
Si Si8 0.745356 0.386617 0.500000
O O1 0.751716 0.902677 0.827271
O O2 0.671003 0.000000 0.751758
O O3 0.835727 0.000000 0.745215
O O4 0.081011 0.604960 0.805996
O O5 0.089480 0.728478 0.704359
O O6 0.150471 0.767861 0.820319
O O7 0.000000 0.760902 0.802950
O O8 0.500000 0.000000 0.234008
O O9 0.595531 0.401432 0.155760
O O10 0.709937 0.276006 0.143749
O O11 0.591588 0.254128 0.068858
O O12 0.000000 0.000000 0.726637
O O13 0.211925 0.168019 0.063570
O O14 0.338341 0.872627 0.000000
O O15 0.500000 0.852921 0.000000
O O16 0.728639 0.500000 0.500000
#
# Coordination Sequence:
#
# PCOD9523606 Si02
#       8
#     8  16   8  16   8  16   8   8
#     4  12  20  35  59  86 116 150 194 235 296 346
#     4  11  21  37  60  87 116 149 195 243 291 342
#     4  10  22  36  57  89 119 149 191 244 290 340
#     4  11  22  38  56  82 117 155 196 233 286 340
#     4  12  24  35  57  89 119 151 196 245 286 344
#     4  11  22  38  61  84 116 157 189 237 291 349
#     4  10  22  38  56  79 118 158 190 233 282 338
#     4  10  22  39  58  83 115 150 194 234 287 348
#
# _framework density 18.065852
#
# number of rings (size 3 to 8) (size 9 to 14) (size 15 to 20)
#    0.000    1.091    4.545    3.273    0.000    0.545 
#    0.000    1.364    0.000    2.182    0.000    1.909 
#    0.000    0.000    0.000    0.000    0.000    0.000 
#
# Total GULP energy -244983.817032 kJ/mol
# GULP energy per Si atom -5567.814023 kJ/mol
# Density = 1.802473 g / cm^3
# Si number density = 18.065852 Si / 1000 Ang^3
#
#
#
# Elastic Constant Matrix: (Units=GPa)
#
#
# Indices 1 2 3 4 5 6 
#
# 1 115.1372 0.2950 41.4490 0.0000 0.0000 0.0000
# 2 0.2950 74.4815 4.8996 0.0000 0.0000 0.0000
# 3 41.4490 4.8996 71.5265 0.0000 0.0000 0.0000
# 4 0.0000 0.0000 0.0000 13.4554 0.0000 0.0000
# 5 0.0000 0.0000 0.0000 0.0000 -4.7733 0.0000
# 6 0.0000 0.0000 0.0000 0.0000 0.0000 72.2650
#
#
#
# Elastic Compliance Matrix: (Units=1/GPa)
#
#
# Indices 1 2 3 4 5 6 
#
# 1 0.010985 0.000377 -0.006392 0.000000 0.000000 0.000000
# 2 0.000377 0.013500 -0.001143 0.000000 0.000000 0.000000
# 3 -0.006392 -0.001143 0.017763 0.000000 0.000000 0.000000
# 4 0.000000 0.000000 0.000000 0.074320 0.000000 0.000000
# 5 0.000000 0.000000 0.000000 0.000000 -0.209499 0.000000
# 6 0.000000 0.000000 0.000000 0.000000 0.000000 0.013838
#
#
# Mechanical properties :
#
#
# Convention : Reuss Voigt Hill
#
# Bulk Modulus (GPa) = 35.80076 39.38137 37.59106
# Shear Modulus (GPa) = -90.14505 30.48953 -29.82776
#
# Velocity S-wave (km/s) = -7.07152 4.11261 -4.06773
# Velocity P-wave (km/s) = 6.84217 6.66314 1.09951
#
# Compressibility (1/GPa) = 0.02793237
#
# Stress axis : x y z
#
# Youngs Moduli (GPa) = 91.03063 74.07483 56.29656
#
# Poissons Ratio (x) = -0.02792 0.35983
# Poissons Ratio (y) = -0.03431 0.06436
# Poissons Ratio (z) = 0.58184 0.08468
#
# Static dielectric constant tensor:
#      x y z
#    x 1.659010 0.000000 0.000000 
#    y 0.000000 1.615290 0.000000 
#    z 0.000000 0.000000 1.618460 
# 
# From -- ./inp_files/44772.got.cif
#   From: 2010.05.17/outbox.cif.g08.bks.cpg/sg71_23_cif.got.tgz:44772.got - 2010.06.03 16:22:01.
