data_PCOD9523633
_publ_section_title
;
Structure prediction by ZEFSAII (Michael W. Deem and Ramdas Pophale) SiO2 
 PCOD9523633
Probable space group: I M M M
;
_chemical_formula_sum "Si O2"
_cell_formula_units_Z 88
_cell_length_a 8.249540
_cell_length_b 23.693777
_cell_length_c 21.608223
_cell_angle_alpha 90.000000
_cell_angle_beta 90.000000
_cell_angle_gamma 90.000000
_cell_volume 4223.602930
_symmetry_space_group_name_H-M "I M M M"
_symmetry_group_IT_number 71
_symmetry_cell_setting 'orthorhombic'
loop_
_space_group_symop_operation_xyz
x,y,z
-x,-y,z
x,-y,-z
-x,y,-z
-x,-y,-z
x,y,-z
-x,y,z
x,-y,z
1/2+x,1/2+y,1/2+z
1/2-x,1/2-y,1/2+z
1/2+x,1/2-y,1/2-z
1/2-x,1/2+y,1/2-z
1/2-x,1/2-y,1/2-z
1/2+x,1/2+y,1/2-z
1/2-x,1/2+y,1/2+z
1/2+x,1/2-y,1/2+z
loop_
_atom_site_type_symbol
_atom_site_label
_atom_site_fract_x
_atom_site_fract_y
_atom_site_fract_z
Si Si1 0.824387 0.065808 0.750301
Si Si2 0.813280 0.180132 0.070158
Si Si3 0.309746 0.063340 0.500000
Si Si4 0.000000 0.563453 0.301109
Si Si5 0.000000 0.401448 0.566753
Si Si6 0.312176 0.381577 0.123803
Si Si7 0.803536 0.761297 0.320681
O O1 0.666204 0.092487 0.780693
O O2 0.802404 0.071038 0.676931
O O3 0.000000 0.092066 0.765479
O O4 0.831081 0.000000 0.768813
O O5 0.664917 0.135638 0.070778
O O6 0.776315 0.220867 0.127761
O O7 0.000000 0.158413 0.075859
O O8 0.804166 0.206283 0.000000
O O9 0.500000 0.056363 0.500000
O O10 0.267613 0.097879 0.561398
O O11 0.233799 0.000000 0.500000
O O12 0.000000 0.500000 0.273099
O O13 0.000000 0.559940 0.374023
O O14 0.000000 0.429664 0.500000
O O15 0.500000 0.372259 0.108785
O O16 0.255356 0.324320 0.156968
O O17 0.750000 0.750000 0.250000
O O18 0.000000 0.755913 0.323630
#
# Coordination Sequence:
#
# PCOD9523633 Si02
#       7
#    16  16   8   8   8  16  16
#     4   9  19  37  60  86 117 157 203 247 301 369
#     4  10  22  41  64  87 118 164 208 250 302 366
#     4  11  25  41  61  91 125 165 217 273 319 376
#     4  10  22  37  62  93 122 156 193 247 312 366
#     4  10  22  41  64  90 119 159 200 248 297 361
#     4  10  23  40  60  86 119 163 205 257 317 372
#     4  11  24  40  61  92 127 160 205 262 320 377
#
# _framework density 20.835293
#
# number of rings (size 3 to 8) (size 9 to 14) (size 15 to 20)
#    0.000    1.909    0.909    1.364    5.091    3.818 
#    0.000    0.000    0.000    0.000    0.000    5.091 
#    0.000    0.000    0.000    0.000    0.000    0.000 
#
# Total GULP energy -245305.625687 kJ/mol
# GULP energy per Si atom -5575.127857 kJ/mol
# Density = 2.078787 g / cm^3
# Si number density = 20.835293 Si / 1000 Ang^3
#
#
#
# Elastic Constant Matrix: (Units=GPa)
#
#
# Indices 1 2 3 4 5 6 
#
# 1 149.2937 30.1718 70.7912 0.0000 0.0000 0.0000
# 2 30.1718 56.2206 39.2057 0.0000 0.0000 0.0000
# 3 70.7912 39.2057 154.2259 0.0000 0.0000 0.0000
# 4 0.0000 0.0000 0.0000 -89.4387 0.0000 0.0000
# 5 0.0000 0.0000 0.0000 0.0000 40.0321 0.0000
# 6 0.0000 0.0000 0.0000 0.0000 0.0000 -4.4845
#
#
#
# Elastic Compliance Matrix: (Units=1/GPa)
#
#
# Indices 1 2 3 4 5 6 
#
# 1 0.008803 -0.002317 -0.003452 0.000000 0.000000 0.000000
# 2 -0.002317 0.022230 -0.004587 0.000000 0.000000 0.000000
# 3 -0.003452 -0.004587 0.009234 0.000000 0.000000 0.000000
# 4 0.000000 0.000000 0.000000 -0.011181 0.000000 0.000000
# 5 0.000000 0.000000 0.000000 0.000000 0.024980 0.000000
# 6 0.000000 0.000000 0.000000 0.000000 0.000000 -0.222990
#
#
# Mechanical properties :
#
#
# Convention : Reuss Voigt Hill
#
# Bulk Modulus (GPa) = 51.13857 71.11974 61.12916
# Shear Modulus (GPa) = -35.28771 3.85989 -15.71391
#
# Velocity S-wave (km/s) = -4.11986 1.36257 -2.74924
# Velocity P-wave (km/s) = 1.40230 6.05672 4.39604
#
# Compressibility (1/GPa) = 0.01955471
#
# Stress axis : x y z
#
# Youngs Moduli (GPa) = 113.59461 44.98485 108.28974
#
# Poissons Ratio (x) = 0.10425 0.37378
# Poissons Ratio (y) = 0.26324 0.49676
# Poissons Ratio (z) = 0.39209 0.20636
#
# Static dielectric constant tensor:
#      x y z
#    x 1.836000 0.000000 0.000000 
#    y 0.000000 1.788730 0.000000 
#    z 0.000000 0.000000 1.719700 
# 
# From -- ./inp_files/50558.got.cif
#   From: 2010.05.17/outbox.cif.g08.bks.cpg/sg71_26_cif.got.tgz:50558.got - 2010.06.03 16:22:01.
