data_PCOD9523740
_publ_section_title
;
Structure prediction by ZEFSAII (Michael W. Deem and Ramdas Pophale) SiO2 
 PCOD9523740
Probable space group: I M M M
;
_chemical_formula_sum "Si O2"
_cell_formula_units_Z 100
_cell_length_a 31.007911
_cell_length_b 20.996693
_cell_length_c 7.318062
_cell_angle_alpha 90.000000
_cell_angle_beta 90.000000
_cell_angle_gamma 90.000000
_cell_volume 4764.523702
_symmetry_space_group_name_H-M "I M M M"
_symmetry_group_IT_number 71
_symmetry_cell_setting 'orthorhombic'
loop_
_space_group_symop_operation_xyz
x,y,z
-x,-y,z
x,-y,-z
-x,y,-z
-x,-y,-z
x,y,-z
-x,y,z
x,-y,z
1/2+x,1/2+y,1/2+z
1/2-x,1/2-y,1/2+z
1/2+x,1/2-y,1/2-z
1/2-x,1/2+y,1/2-z
1/2-x,1/2-y,1/2-z
1/2+x,1/2+y,1/2-z
1/2-x,1/2+y,1/2+z
1/2+x,1/2-y,1/2+z
loop_
_atom_site_type_symbol
_atom_site_label
_atom_site_fract_x
_atom_site_fract_y
_atom_site_fract_z
Si Si1 0.451970 0.621527 0.788450
Si Si2 0.594161 0.000000 0.000000
Si Si3 0.611473 0.884650 0.723465
Si Si4 0.637463 0.570738 0.223323
Si Si5 0.299740 0.826120 0.712202
Si Si6 0.048889 0.268402 0.219507
Si Si7 0.297482 0.319905 0.221116
O O1 0.500000 0.613124 0.708634
O O2 0.411044 0.584799 0.711530
O O3 0.441441 0.696941 0.784191
O O4 0.454913 0.602176 0.000000
O O5 0.595585 0.944255 0.839020
O O6 0.609643 0.893437 0.500000
O O7 0.660713 0.868088 0.780248
O O8 0.582525 0.822773 0.769533
O O9 0.651391 0.500000 0.275970
O O10 0.669717 0.626099 0.282986
O O11 0.636921 0.573032 0.000000
O O12 0.295994 0.842958 0.500000
O O13 0.311109 0.751281 0.725103
O O14 0.251405 0.831912 0.789069
O O15 0.000000 0.284201 0.278996
O O16 0.048905 0.265108 0.000000
O O17 0.296509 0.320225 0.000000
#
# Coordination Sequence:
#
# PCOD9523740 Si02
#       7
#    16   4  16  16  16  16  16
#     4   9  17  28  47  77 107 137 180 230 271 318
#     4  12  26  40  61  84 112 156 190 218 281 342
#     4  10  22  40  58  82 114 148 189 233 275 337
#     4   9  17  29  45  70 105 142 180 218 266 328
#     4   9  18  33  54  78 104 134 173 231 289 324
#     4   9  18  34  57  82 108 139 176 226 282 325
#     4   9  17  30  52  79 102 133 182 231 276 334
#
# _framework density 20.988458000000001
#
# number of rings (size 3 to 8) (size 9 to 14) (size 15 to 20)
#    0.000    2.720    0.000    1.200    2.240    0.320 
#    1.440    2.400    0.000    3.840    0.000    2.240 
#    0.000    0.000    0.000    0.000    0.000    0.000 
#
# Total GULP energy -278493.603904 kJ/mol
# GULP energy per Si atom -5569.872078 kJ/mol
# Density = 2.094069 g / cm^3
# Si number density = 20.988458 Si / 1000 Ang^3
#
#
#
# Elastic Constant Matrix: (Units=GPa)
#
#
# Indices 1 2 3 4 5 6 
#
# 1 55.2063 29.4007 -1.9175 0.0000 0.0000 0.0000
# 2 29.4007 41.3145 -13.1254 0.0000 0.0000 0.0000
# 3 -1.9175 -13.1254 87.8080 0.0000 0.0000 0.0000
# 4 0.0000 0.0000 0.0000 4.7993 0.0000 0.0000
# 5 0.0000 0.0000 0.0000 0.0000 -9.3853 0.0000
# 6 0.0000 0.0000 0.0000 0.0000 0.0000 -3.9049
#
#
#
# Elastic Compliance Matrix: (Units=1/GPa)
#
#
# Indices 1 2 3 4 5 6 
#
# 1 0.029740 -0.022002 -0.002639 0.000000 0.000000 0.000000
# 2 -0.022002 0.041689 0.005751 0.000000 0.000000 0.000000
# 3 -0.002639 0.005751 0.012191 0.000000 0.000000 0.000000
# 4 0.000000 0.000000 0.000000 0.208364 0.000000 0.000000
# 5 0.000000 0.000000 0.000000 0.000000 -0.106550 0.000000
# 6 0.000000 0.000000 0.000000 0.000000 0.000000 -0.256088
#
#
# Mechanical properties :
#
#
# Convention : Reuss Voigt Hill
#
# Bulk Modulus (GPa) = 21.81577 23.67160 22.74369
# Shear Modulus (GPa) = -284.18684 9.63323 -137.27681
#
# Velocity S-wave (km/s) = -11.64884 2.14470 -8.09616
# Velocity P-wave (km/s) = 13.05797 4.17563 8.74856
#
# Compressibility (1/GPa) = 0.04583839
#
# Stress axis : x y z
#
# Youngs Moduli (GPa) = 33.62508 23.98705 82.03096
#
# Poissons Ratio (x) = 0.52777 0.21651
# Poissons Ratio (y) = 0.73983 -0.47177
# Poissons Ratio (z) = 0.08875 -0.13795
#
# Static dielectric constant tensor:
#      x y z
#    x 1.773170 0.000000 0.000000 
#    y 0.000000 1.691270 0.000000 
#    z 0.000000 0.000000 1.806230 
# 
# From -- ./inp_files/16999.got.cif
#   From: 2010.05.17/outbox.cif.g08.bks.cpg/sg71_9_cif.got.tgz:16999.got - 2010.06.03 16:22:01.
