data_PCOD9523085
_publ_section_title
;
Structure prediction by ZEFSAII (Michael W. Deem and Ramdas Pophale) SiO2 
 PCOD9523085
Probable space group: I M M M
;
_chemical_formula_sum "Si O2"
_cell_formula_units_Z 88
_cell_length_a 22.479249
_cell_length_b 15.701037
_cell_length_c 12.939372
_cell_angle_alpha 90.000000
_cell_angle_beta 90.000000
_cell_angle_gamma 90.000000
_cell_volume 4566.919261
_symmetry_space_group_name_H-M "I M M M"
_symmetry_group_IT_number 71
_symmetry_cell_setting 'orthorhombic'
loop_
_space_group_symop_operation_xyz
x,y,z
-x,-y,z
x,-y,-z
-x,y,-z
-x,-y,-z
x,y,-z
-x,y,z
x,-y,z
1/2+x,1/2+y,1/2+z
1/2-x,1/2-y,1/2+z
1/2+x,1/2-y,1/2-z
1/2-x,1/2+y,1/2-z
1/2-x,1/2-y,1/2-z
1/2+x,1/2+y,1/2-z
1/2-x,1/2+y,1/2+z
1/2+x,1/2-y,1/2+z
loop_
_atom_site_type_symbol
_atom_site_label
_atom_site_fract_x
_atom_site_fract_y
_atom_site_fract_z
Si Si1 0.639881 0.599769 0.694700
Si Si2 0.066009 0.500000 0.221745
Si Si3 0.731800 0.152049 0.774419
Si Si4 0.895152 0.640003 0.382424
Si Si5 0.931751 0.895713 0.000000
Si Si6 0.692918 0.000000 0.622258
Si Si7 0.432613 0.333262 0.882069
O O1 0.629029 0.500000 0.698299
O O2 0.708811 0.615631 0.673910
O O3 0.600910 0.636748 0.601926
O O4 0.616899 0.635005 0.803227
O O5 0.074510 0.420266 0.298695
O O6 0.121784 0.500000 0.143916
O O7 0.000000 0.500000 0.175654
O O8 0.750000 0.250000 0.750000
O O9 0.673378 0.150382 0.845790
O O10 0.718051 0.085587 0.679800
O O11 0.897387 0.606814 0.500000
O O12 0.926481 0.731470 0.382201
O O13 0.000000 0.871309 0.000000
O O14 0.928853 0.000000 0.000000
O O15 0.705729 0.000000 0.500000
O O16 0.500000 0.358075 0.850710
O O17 0.422982 0.362977 0.000000
#
# Coordination Sequence:
#
# PCOD9523085 Si02
#       7
#    16   8  16  16   8   8  16
#     4  11  22  39  58  86 117 157 201 253 307 371
#     4  10  21  39  62  89 119 158 208 252 302 369
#     4  11  22  40  61  92 124 163 210 256 313 373
#     4  10  21  36  58  88 120 155 193 250 311 369
#     4   9  20  38  60  84 114 155 197 249 310 366
#     4  10  24  44  65  94 130 168 209 259 318 383
#     4  10  21  37  58  86 119 153 194 248 309 371
#
# _framework density 19.269006999999998
#
# number of rings (size 3 to 8) (size 9 to 14) (size 15 to 20)
#    0.000    1.727    2.727    1.364    1.273    4.545 
#    0.000    0.909    0.000    0.000    0.000    0.000 
#    0.000    0.000    0.000    0.000    0.000    0.000 
#
# Total GULP energy -245449.723372 kJ/mol
# GULP energy per Si atom -5578.402804 kJ/mol
# Density = 1.922515 g / cm^3
# Si number density = 19.269007 Si / 1000 Ang^3
#
#
#
# Elastic Constant Matrix: (Units=GPa)
#
#
# Indices 1 2 3 4 5 6 
#
# 1 119.7159 -1.9220 21.8436 0.0000 0.0000 0.0000
# 2 -1.9220 63.1868 13.4691 0.0000 0.0000 0.0000
# 3 21.8436 13.4691 56.5129 0.0000 0.0000 0.0000
# 4 0.0000 0.0000 0.0000 17.4940 0.0000 0.0000
# 5 0.0000 0.0000 0.0000 0.0000 17.6921 0.0000
# 6 0.0000 0.0000 0.0000 0.0000 0.0000 19.8081
#
#
#
# Elastic Compliance Matrix: (Units=1/GPa)
#
#
# Indices 1 2 3 4 5 6 
#
# 1 0.009056 0.001076 -0.003757 0.000000 0.000000 0.000000
# 2 0.001076 0.016801 -0.004420 0.000000 0.000000 0.000000
# 3 -0.003757 -0.004420 0.020201 0.000000 0.000000 0.000000
# 4 0.000000 0.000000 0.000000 0.057162 0.000000 0.000000
# 5 0.000000 0.000000 0.000000 0.000000 0.056522 0.000000
# 6 0.000000 0.000000 0.000000 0.000000 0.000000 0.050484
#
#
# Mechanical properties :
#
#
# Convention : Reuss Voigt Hill
#
# Bulk Modulus (GPa) = 31.39133 34.02187 32.70660
# Shear Modulus (GPa) = 21.27233 24.73385 23.00309
#
# Velocity S-wave (km/s) = 3.32620 3.58663 3.45887
# Velocity P-wave (km/s) = 5.57476 5.90309 5.74128
#
# Compressibility (1/GPa) = 0.03185593
#
# Stress axis : x y z
#
# Youngs Moduli (GPa) = 110.42566 59.51996 49.50321
#
# Poissons Ratio (x) = -0.06406 0.18598
# Poissons Ratio (y) = -0.11885 0.21882
# Poissons Ratio (z) = 0.41485 0.26310
#
# Static dielectric constant tensor:
#      x y z
#    x 1.693140 0.000000 0.000000 
#    y 0.000000 1.693120 0.000000 
#    z 0.000000 0.000000 1.661850 
# 
# From -- ./inp_files/25692.got.cif
#   From: 2010.05.17/outbox.cif.g08.bks.cpg/sg71_13_cif.got.tgz:25692.got - 2010.06.03 16:22:01.
