data_PCOD9523176
_publ_section_title
;
Structure prediction by ZEFSAII (Michael W. Deem and Ramdas Pophale) SiO2 
 PCOD9523176
Probable space group: I M M M
;
_chemical_formula_sum "Si O2"
_cell_formula_units_Z 88
_cell_length_a 15.362330
_cell_length_b 13.915132
_cell_length_c 20.827282
_cell_angle_alpha 90.000000
_cell_angle_beta 90.000000
_cell_angle_gamma 90.000000
_cell_volume 4452.224117
_symmetry_space_group_name_H-M "I M M M"
_symmetry_group_IT_number 71
_symmetry_cell_setting 'orthorhombic'
loop_
_space_group_symop_operation_xyz
x,y,z
-x,-y,z
x,-y,-z
-x,y,-z
-x,-y,-z
x,y,-z
-x,y,z
x,-y,z
1/2+x,1/2+y,1/2+z
1/2-x,1/2-y,1/2+z
1/2+x,1/2-y,1/2-z
1/2-x,1/2+y,1/2-z
1/2-x,1/2-y,1/2-z
1/2+x,1/2+y,1/2-z
1/2-x,1/2+y,1/2+z
1/2+x,1/2-y,1/2+z
loop_
_atom_site_type_symbol
_atom_site_label
_atom_site_fract_x
_atom_site_fract_y
_atom_site_fract_z
Si Si1 0.217921 0.885632 0.316886
Si Si2 0.500000 0.109801 0.922049
Si Si3 0.901902 0.610882 0.869169
Si Si4 0.094759 0.115189 0.794660
Si Si5 0.360252 0.301923 0.569245
Si Si6 0.161675 0.257251 0.574084
O O1 0.322185 0.871258 0.320306
O O2 0.172461 0.851957 0.251466
O O3 0.174705 0.829815 0.376468
O O4 0.203067 0.000000 0.323614
O O5 0.585801 0.170401 0.904677
O O6 0.500000 0.000000 0.897820
O O7 0.500000 0.104490 0.000000
O O8 0.894445 0.500000 0.890953
O O9 0.885734 0.689527 0.924007
O O10 0.000000 0.623820 0.843590
O O11 0.103040 0.150084 0.867287
O O12 0.000000 0.145351 0.768826
O O13 0.097411 0.000000 0.795505
O O14 0.389413 0.339106 0.500000
O O15 0.255690 0.308743 0.572844
O O16 0.143989 0.226432 0.500000
#
# Coordination Sequence:
#
# PCOD9523176 Si02
#       6
#    16   8  16  16  16  16
#     4   9  19  36  58  82 115 154 190 236 287 342
#     4   9  18  34  55  81 115 151 189 234 282 334
#     4   9  18  33  55  85 118 150 185 230 287 346
#     4  10  22  38  56  80 109 147 193 237 288 344
#     4  10  21  37  57  82 111 146 189 238 289 342
#     4   9  19  34  56  86 114 146 189 233 283 343
#
# _framework density 19.765402000000002
#
# number of rings (size 3 to 8) (size 9 to 14) (size 15 to 20)
#    0.000    2.636    0.000    0.545    1.273    6.182 
#    0.000    7.273    2.000    2.727    0.000    0.000 
#    0.000    0.000    0.000    0.000    0.000    0.000 
#
# Total GULP energy -245257.174005 kJ/mol
# GULP energy per Si atom -5574.026682 kJ/mol
# Density = 1.972042 g / cm^3
# Si number density = 19.765402 Si / 1000 Ang^3
#
#
#
# Elastic Constant Matrix: (Units=GPa)
#
#
# Indices 1 2 3 4 5 6 
#
# 1 155.6521 54.9116 53.8581 0.0000 0.0000 0.0000
# 2 54.9116 51.4560 22.2804 0.0000 0.0000 0.0000
# 3 53.8581 22.2804 101.6091 0.0000 0.0000 0.0000
# 4 0.0000 0.0000 0.0000 7.8282 0.0000 0.0000
# 5 0.0000 0.0000 0.0000 0.0000 13.9451 0.0000
# 6 0.0000 0.0000 0.0000 0.0000 0.0000 20.8659
#
#
#
# Elastic Compliance Matrix: (Units=1/GPa)
#
#
# Indices 1 2 3 4 5 6 
#
# 1 0.011466 -0.010612 -0.003751 0.000000 0.000000 0.000000
# 2 -0.010612 0.031295 -0.001237 0.000000 0.000000 0.000000
# 3 -0.003751 -0.001237 0.012101 0.000000 0.000000 0.000000
# 4 0.000000 0.000000 0.000000 0.127743 0.000000 0.000000
# 5 0.000000 0.000000 0.000000 0.000000 0.071710 0.000000
# 6 0.000000 0.000000 0.000000 0.000000 0.000000 0.047925
#
#
# Mechanical properties :
#
#
# Convention : Reuss Voigt Hill
#
# Bulk Modulus (GPa) = 42.26223 63.42414 52.84319
# Shear Modulus (GPa) = 14.64871 20.37232 17.51052
#
# Velocity S-wave (km/s) = 2.72532 3.21394 2.97967
# Velocity P-wave (km/s) = 5.59746 6.77722 6.21539
#
# Compressibility (1/GPa) = 0.02366179
#
# Stress axis : x y z
#
# Youngs Moduli (GPa) = 87.21287 31.95434 82.63803
#
# Poissons Ratio (x) = 0.33911 0.30995
# Poissons Ratio (y) = 0.92552 0.10223
# Poissons Ratio (z) = 0.32711 0.03953
#
# Static dielectric constant tensor:
#      x y z
#    x 1.723660 0.000000 0.000000 
#    y 0.000000 1.699240 0.000000 
#    z 0.000000 0.000000 1.679060 
# 
# From -- ./inp_files/37731.got.cif
#   From: 2010.05.17/outbox.cif.g08.bks.cpg/sg71_19_cif.got.tgz:37731.got - 2010.06.03 16:22:01.
