data_PCOD9523625
_publ_section_title
;
Structure prediction by ZEFSAII (Michael W. Deem and Ramdas Pophale) SiO2 
 PCOD9523625
Probable space group: I M M M
;
_chemical_formula_sum "Si O2"
_cell_formula_units_Z 96
_cell_length_a 12.087841
_cell_length_b 21.088158
_cell_length_c 19.255960
_cell_angle_alpha 90.000000
_cell_angle_beta 90.000000
_cell_angle_gamma 90.000000
_cell_volume 4908.542557
_symmetry_space_group_name_H-M "I M M M"
_symmetry_group_IT_number 71
_symmetry_cell_setting 'orthorhombic'
loop_
_space_group_symop_operation_xyz
x,y,z
-x,-y,z
x,-y,-z
-x,y,-z
-x,-y,-z
x,y,-z
-x,y,z
x,-y,z
1/2+x,1/2+y,1/2+z
1/2-x,1/2-y,1/2+z
1/2+x,1/2-y,1/2-z
1/2-x,1/2+y,1/2-z
1/2-x,1/2-y,1/2-z
1/2+x,1/2+y,1/2-z
1/2-x,1/2+y,1/2+z
1/2+x,1/2-y,1/2+z
loop_
_atom_site_type_symbol
_atom_site_label
_atom_site_fract_x
_atom_site_fract_y
_atom_site_fract_z
Si Si1 0.000000 0.927830 0.738122
Si Si2 0.000000 0.073395 0.903228
Si Si3 0.366610 0.181960 0.000000
Si Si4 0.240618 0.753812 0.128746
Si Si5 0.305281 0.424062 0.500000
Si Si6 0.367343 0.929225 0.277621
Si Si7 0.132393 0.625715 0.923804
Si Si8 0.310833 0.666447 0.250733
O O1 0.892751 0.886921 0.721799
O O2 0.000000 0.927179 0.821636
O O3 0.000000 0.000000 0.713064
O O4 0.885357 0.096913 0.936299
O O5 0.000000 0.000000 0.925255
O O6 0.316288 0.215515 0.930779
O O7 0.500000 0.181938 0.000000
O O8 0.309533 0.112742 0.000000
O O9 0.172347 0.696548 0.094278
O O10 0.307899 0.720016 0.191486
O O11 0.165372 0.801799 0.174705
O O12 0.287174 0.500000 0.500000
O O13 0.500000 0.924302 0.269926
O O14 0.338913 0.919176 0.359104
O O15 0.304963 0.871379 0.240841
O O16 0.333178 0.000000 0.254627
O O17 0.000000 0.625933 0.926302
O O18 0.174673 0.606784 0.000000
#
# Coordination Sequence:
#
# PCOD9523625 Si02
#       8
#     8   8   8  16   8  16  16  16
#     4  11  21  34  57  87 114 145 189 241 295 344
#     4   8  16  33  58  84 113 140 174 232 290 340
#     4  12  25  38  58  82 115 157 198 238 275 342
#     4  10  22  40  54  81 110 155 197 236 289 335
#     4   9  18  37  59  83 115 148 184 229 288 342
#     4   9  18  34  56  81 111 146 183 227 282 341
#     4   9  17  32  55  83 112 136 175 231 285 345
#     4  10  22  37  58  82 114 151 192 243 288 345
#
# _framework density 19.557739999999999
#
# number of rings (size 3 to 8) (size 9 to 14) (size 15 to 20)
#    0.000    2.333    0.833    2.000    2.333    1.167 
#    6.000    2.500    0.000    0.000    0.000    0.583 
#    0.000    0.000    0.000    0.000    0.000    0.000 
#
# Total GULP energy -267320.866613 kJ/mol
# GULP energy per Si atom -5569.184721 kJ/mol
# Density = 1.951323 g / cm^3
# Si number density = 19.557740 Si / 1000 Ang^3
#
#
#
# Elastic Constant Matrix: (Units=GPa)
#
#
# Indices 1 2 3 4 5 6 
#
# 1 46.3648 23.2518 -3.4948 0.0000 0.0000 0.0000
# 2 23.2518 91.0179 9.0387 0.0000 0.0000 0.0000
# 3 -3.4948 9.0387 54.5172 0.0000 0.0000 0.0000
# 4 0.0000 0.0000 0.0000 24.3435 0.0000 0.0000
# 5 0.0000 0.0000 0.0000 0.0000 14.8289 0.0000
# 6 0.0000 0.0000 0.0000 0.0000 0.0000 22.1881
#
#
#
# Elastic Compliance Matrix: (Units=1/GPa)
#
#
# Indices 1 2 3 4 5 6 
#
# 1 0.025128 -0.006689 0.002720 0.000000 0.000000 0.000000
# 2 -0.006689 0.012952 -0.002576 0.000000 0.000000 0.000000
# 3 0.002720 -0.002576 0.018944 0.000000 0.000000 0.000000
# 4 0.000000 0.000000 0.000000 0.041079 0.000000 0.000000
# 5 0.000000 0.000000 0.000000 0.000000 0.067436 0.000000
# 6 0.000000 0.000000 0.000000 0.000000 0.000000 0.045069
#
#
# Mechanical properties :
#
#
# Convention : Reuss Voigt Hill
#
# Bulk Modulus (GPa) = 22.76221 27.72124 25.24172
# Shear Modulus (GPa) = 20.97816 23.14570 22.06193
#
# Velocity S-wave (km/s) = 3.27865 3.44387 3.36228
# Velocity P-wave (km/s) = 5.09867 5.47891 5.29221
#
# Compressibility (1/GPa) = 0.04393247
#
# Stress axis : x y z
#
# Youngs Moduli (GPa) = 39.79655 77.21081 52.78634
#
# Poissons Ratio (x) = 0.51649 -0.14357
# Poissons Ratio (y) = 0.26621 0.13598
# Poissons Ratio (z) = -0.10824 0.19890
#
# Static dielectric constant tensor:
#      x y z
#    x 1.716820 0.000000 0.000000 
#    y 0.000000 1.722300 0.000000 
#    z 0.000000 0.000000 1.717860 
# 
# From -- ./inp_files/52064.got.cif
#   From: 2010.05.17/outbox.cif.g08.bks.cpg/sg71_27_cif.got.tgz:52064.got - 2010.06.03 16:22:01.
