data_PCOD9523603
_publ_section_title
;
Structure prediction by ZEFSAII (Michael W. Deem and Ramdas Pophale) SiO2 
 PCOD9523603
Probable space group: I M M M
;
_chemical_formula_sum "Si O2"
_cell_formula_units_Z 116
_cell_length_a 26.646864
_cell_length_b 25.810384
_cell_length_c 9.272589
_cell_angle_alpha 90.000000
_cell_angle_beta 90.000000
_cell_angle_gamma 90.000000
_cell_volume 6377.369520
_symmetry_space_group_name_H-M "I M M M"
_symmetry_group_IT_number 71
_symmetry_cell_setting 'orthorhombic'
loop_
_space_group_symop_operation_xyz
x,y,z
-x,-y,z
x,-y,-z
-x,y,-z
-x,-y,-z
x,y,-z
-x,y,z
x,-y,z
1/2+x,1/2+y,1/2+z
1/2-x,1/2-y,1/2+z
1/2+x,1/2-y,1/2-z
1/2-x,1/2+y,1/2-z
1/2-x,1/2-y,1/2-z
1/2+x,1/2+y,1/2-z
1/2-x,1/2+y,1/2+z
1/2+x,1/2-y,1/2+z
loop_
_atom_site_type_symbol
_atom_site_label
_atom_site_fract_x
_atom_site_fract_y
_atom_site_fract_z
Si Si1 0.632472 0.333510 0.832955
Si Si2 0.870272 0.441884 0.329419
Si Si3 0.059498 0.344531 0.329859
Si Si4 0.939650 0.760270 0.168015
Si Si5 0.234719 0.196905 0.826739
Si Si6 0.221895 0.601874 0.164456
Si Si7 0.168392 0.943720 0.705219
Si Si8 0.670694 0.500000 0.500000
O O1 0.585302 0.305136 0.762796
O O2 0.679986 0.317411 0.735487
O O3 0.632397 0.395955 0.829385
O O4 0.639766 0.317621 0.000000
O O5 0.857280 0.437831 0.500000
O O6 0.890365 0.500000 0.306034
O O7 0.909503 0.396293 0.296548
O O8 0.821060 0.433147 0.233846
O O9 0.066745 0.332449 0.500000
O O10 0.075519 0.295342 0.234882
O O11 0.000000 0.353096 0.307498
O O12 0.000000 0.763198 0.176589
O O13 0.924976 0.764034 0.000000
O O14 0.250000 0.250000 0.750000
O O15 0.270821 0.151598 0.766887
O O16 0.235638 0.200114 0.000000
O O17 0.275398 0.572704 0.161278
O O18 0.209769 0.617058 0.000000
O O19 0.154144 0.000000 0.645580
O O20 0.170582 0.955262 0.874513
#
# Coordination Sequence:
#
# PCOD9523603 Si02
#       8
#    16  16  16  16  16  16  16   4
#     4  11  23  37  59  87 118 152 191 235 285 341
#     4  10  22  36  56  82 110 148 191 237 290 346
#     4   9  19  38  60  82 109 141 183 237 294 351
#     4  10  22  39  62  88 114 148 191 239 291 347
#     4  11  23  38  57  80 114 153 191 234 282 340
#     4  11  23  36  53  78 115 152 193 236 280 334
#     4   9  20  34  57  82 114 150 193 231 273 333
#     4   8  20  32  58  84 113 154 195 232 282 324
#
# _framework density 18.189316999999999
#
# number of rings (size 3 to 8) (size 9 to 14) (size 15 to 20)
#    0.414    1.517    0.000    4.138    7.724    3.586 
#    0.000    1.379    0.000    0.414    0.000    5.310 
#    0.000    0.000    0.000    0.000    0.000    0.000 
#
# Total GULP energy -322994.448033 kJ/mol
# GULP energy per Si atom -5568.869794 kJ/mol
# Density = 1.814792 g / cm^3
# Si number density = 18.189317 Si / 1000 Ang^3
#
#
#
# Elastic Constant Matrix: (Units=GPa)
#
#
# Indices 1 2 3 4 5 6 
#
# 1 34.3613 43.0152 30.7343 0.0000 0.0000 0.0000
# 2 43.0152 147.7321 61.7089 0.0000 0.0000 0.0000
# 3 30.7343 61.7089 158.2195 0.0000 0.0000 0.0000
# 4 0.0000 0.0000 0.0000 30.8435 0.0000 0.0000
# 5 0.0000 0.0000 0.0000 0.0000 -0.6211 0.0000
# 6 0.0000 0.0000 0.0000 0.0000 0.0000 20.6833
#
#
#
# Elastic Compliance Matrix: (Units=1/GPa)
#
#
# Indices 1 2 3 4 5 6 
#
# 1 0.048530 -0.012176 -0.004678 0.000000 0.000000 0.000000
# 2 -0.012176 0.011142 -0.001980 0.000000 0.000000 0.000000
# 3 -0.004678 -0.001980 0.008001 0.000000 0.000000 0.000000
# 4 0.000000 0.000000 0.000000 0.032422 0.000000 0.000000
# 5 0.000000 0.000000 0.000000 0.000000 -1.610000 0.000000
# 6 0.000000 0.000000 0.000000 0.000000 0.000000 0.048348
#
#
# Mechanical properties :
#
#
# Convention : Reuss Voigt Hill
#
# Bulk Modulus (GPa) = 33.32926 67.91442 50.62184
# Shear Modulus (GPa) = -3.53635 23.83809 10.15087
#
# Velocity S-wave (km/s) = -1.39585 3.62409 2.36491
# Velocity P-wave (km/s) = 3.97057 7.41152 5.94542
#
# Compressibility (1/GPa) = 0.03000366
#
# Stress axis : x y z
#
# Youngs Moduli (GPa) = 20.60591 89.75399 124.97934
#
# Poissons Ratio (x) = 1.09289 0.58464
# Poissons Ratio (y) = 0.25091 0.24748
# Poissons Ratio (z) = 0.09639 0.17773
#
# Static dielectric constant tensor:
#      x y z
#    x 1.615350 0.000000 0.000000 
#    y 0.000000 1.646240 0.000000 
#    z 0.000000 0.000000 1.642240 
# 
# From -- ./inp_files/13430.got.cif
#   From: 2010.05.17/outbox.cif.g08.bks.cpg/sg71_7_cif.got.tgz:13430.got - 2010.06.03 16:22:01.
