data_PCOD9523691
_publ_section_title
;
Structure prediction by ZEFSAII (Michael W. Deem and Ramdas Pophale) SiO2 
 PCOD9523691
Probable space group: I M M M
;
_chemical_formula_sum "Si O2"
_cell_formula_units_Z 104
_cell_length_a 31.132482
_cell_length_b 18.737077
_cell_length_c 8.984860
_cell_angle_alpha 90.000000
_cell_angle_beta 90.000000
_cell_angle_gamma 90.000000
_cell_volume 5241.153770
_symmetry_space_group_name_H-M "I M M M"
_symmetry_group_IT_number 71
_symmetry_cell_setting 'orthorhombic'
loop_
_space_group_symop_operation_xyz
x,y,z
-x,-y,z
x,-y,-z
-x,y,-z
-x,-y,-z
x,y,-z
-x,y,z
x,-y,z
1/2+x,1/2+y,1/2+z
1/2-x,1/2-y,1/2+z
1/2+x,1/2-y,1/2-z
1/2-x,1/2+y,1/2-z
1/2-x,1/2-y,1/2-z
1/2+x,1/2+y,1/2-z
1/2-x,1/2+y,1/2+z
1/2+x,1/2-y,1/2+z
loop_
_atom_site_type_symbol
_atom_site_label
_atom_site_fract_x
_atom_site_fract_y
_atom_site_fract_z
Si Si1 0.930243 0.077998 0.677311
Si Si2 0.825463 0.584444 0.177211
Si Si3 0.550855 0.000000 0.331736
Si Si4 0.348678 0.370957 0.328473
Si Si5 0.570936 0.720043 0.669328
Si Si6 0.760442 0.826694 0.678148
Si Si7 0.410420 0.862651 0.176580
O O1 0.933182 0.086394 0.500000
O O2 0.880370 0.080037 0.730771
O O3 0.948480 0.148191 0.758329
O O4 0.947970 0.000000 0.717774
O O5 0.826740 0.500000 0.216136
O O6 0.779135 0.619468 0.205106
O O7 0.861768 0.627872 0.264732
O O8 0.833905 0.590302 0.000000
O O9 0.566015 0.069439 0.245453
O O10 0.500000 0.000000 0.340702
O O11 0.568935 0.000000 0.500000
O O12 0.344804 0.395493 0.500000
O O13 0.377844 0.298991 0.332820
O O14 0.303504 0.357023 0.252938
O O15 0.556564 0.729405 0.500000
O O16 0.567154 0.791216 0.763048
O O17 0.766023 0.819260 0.500000
O O18 0.750000 0.750000 0.750000
O O19 0.411066 0.863323 0.000000
#
# Coordination Sequence:
#
# PCOD9523691 Si02
#       7
#    16  16   8  16  16  16  16
#     4   9  17  30  49  74 105 140 183 235 287 333
#     4  10  22  39  56  73  99 139 185 232 284 346
#     4  11  25  45  69  93 121 157 187 219 277 347
#     4   9  19  32  47  69  99 139 184 234 287 336
#     4   9  19  33  53  78 108 149 191 229 280 343
#     4  11  22  34  50  70  95 131 178 233 287 339
#     4  12  23  37  61  89 116 143 181 232 281 333
#
# _framework density 19.842960000000001
#
# number of rings (size 3 to 8) (size 9 to 14) (size 15 to 20)
#    0.923    1.000    0.769    3.923    0.000    7.385 
#    0.000    1.538    0.000    0.000    0.000    0.000 
#    0.000    0.615    0.000    6.462    0.000    2.769 
#
# Total GULP energy -290062.142951 kJ/mol
# GULP energy per Si atom -5578.118134 kJ/mol
# Density = 1.979780 g / cm^3
# Si number density = 19.842960 Si / 1000 Ang^3
#
#
#
# Elastic Constant Matrix: (Units=GPa)
#
#
# Indices 1 2 3 4 5 6 
#
# 1 68.7970 13.7049 22.2846 0.0000 0.0000 0.0000
# 2 13.7049 144.4744 63.4069 0.0000 0.0000 0.0000
# 3 22.2846 63.4069 114.1941 0.0000 0.0000 0.0000
# 4 0.0000 0.0000 0.0000 31.0743 0.0000 0.0000
# 5 0.0000 0.0000 0.0000 0.0000 -10.9462 0.0000
# 6 0.0000 0.0000 0.0000 0.0000 0.0000 -57.0914
#
#
#
# Elastic Compliance Matrix: (Units=1/GPa)
#
#
# Indices 1 2 3 4 5 6 
#
# 1 0.015520 -0.000189 -0.002924 0.000000 0.000000 0.000000
# 2 -0.000189 0.009154 -0.005046 0.000000 0.000000 0.000000
# 3 -0.002924 -0.005046 0.012129 0.000000 0.000000 0.000000
# 4 0.000000 0.000000 0.000000 0.032181 0.000000 0.000000
# 5 0.000000 0.000000 0.000000 0.000000 -0.091356 0.000000
# 6 0.000000 0.000000 0.000000 0.000000 0.000000 -0.017516
#
#
# Mechanical properties :
#
#
# Convention : Reuss Voigt Hill
#
# Bulk Modulus (GPa) = 48.81344 58.47313 53.64329
# Shear Modulus (GPa) = -298.67929 7.81196 -145.43367
#
# Velocity S-wave (km/s) = -12.28203 1.98631 -8.57038
# Velocity P-wave (km/s) = 13.28449 5.89852 8.41681
#
# Compressibility (1/GPa) = 0.02048616
#
# Stress axis : x y z
#
# Youngs Moduli (GPa) = 64.43207 109.23992 82.44435
#
# Poissons Ratio (x) = 0.02066 0.24104
# Poissons Ratio (y) = 0.01218 0.41601
# Poissons Ratio (z) = 0.18838 0.55122
#
# Static dielectric constant tensor:
#      x y z
#    x 1.695380 0.000000 0.000000 
#    y 0.000000 1.722160 0.000000 
#    z 0.000000 0.000000 1.663670 
# 
# From -- ./inp_files/15045.got.cif
#   From: 2010.05.17/outbox.cif.g08.bks.cpg/sg71_8_cif.got.tgz:15045.got - 2010.06.03 16:22:01.
