data_PCOD9523878
_publ_section_title
;
Structure prediction by ZEFSAII (Michael W. Deem and Ramdas Pophale) SiO2 
 PCOD9523878
Probable space group: I M M M
;
_chemical_formula_sum "Si O2"
_cell_formula_units_Z 64
_cell_length_a 24.612122
_cell_length_b 15.881142
_cell_length_c 8.681503
_cell_angle_alpha 90.000000
_cell_angle_beta 90.000000
_cell_angle_gamma 90.000000
_cell_volume 3393.326962
_symmetry_space_group_name_H-M "I M M M"
_symmetry_group_IT_number 71
_symmetry_cell_setting 'orthorhombic'
loop_
_space_group_symop_operation_xyz
x,y,z
-x,-y,z
x,-y,-z
-x,y,-z
-x,-y,-z
x,y,-z
-x,y,z
x,-y,z
1/2+x,1/2+y,1/2+z
1/2-x,1/2-y,1/2+z
1/2+x,1/2-y,1/2-z
1/2-x,1/2+y,1/2-z
1/2-x,1/2-y,1/2-z
1/2+x,1/2+y,1/2-z
1/2-x,1/2+y,1/2+z
1/2+x,1/2-y,1/2+z
loop_
_atom_site_type_symbol
_atom_site_label
_atom_site_fract_x
_atom_site_fract_y
_atom_site_fract_z
Si Si1 0.500000 0.363284 0.813488
Si Si2 0.000000 0.676190 0.182661
Si Si3 0.774324 0.336299 0.685495
Si Si4 0.890520 0.402490 0.314675
Si Si5 0.212896 0.000000 0.313925
Si Si6 0.587587 0.500000 0.186882
O O1 0.500000 0.271531 0.743322
O O2 0.552684 0.418209 0.767018
O O3 0.500000 0.356884 0.000000
O O4 0.053993 0.630678 0.243632
O O5 0.000000 0.675000 0.000000
O O6 0.771178 0.336770 0.500000
O O7 0.750000 0.250000 0.750000
O O8 0.837596 0.348716 0.729686
O O9 0.742081 0.416720 0.750468
O O10 0.895380 0.398635 0.500000
O O11 0.881057 0.500000 0.272053
O O12 0.149742 0.000000 0.263495
O O13 0.215010 0.000000 0.500000
O O14 0.587612 0.500000 0.000000
#
# Coordination Sequence:
#
# PCOD9523878 Si02
#       6
#     8   8  16  16   8   8
#     4   9  18  39  63  85 116 160 207 246 287 358
#     4  12  26  38  57  94 126 151 194 255 314 359
#     4  11  24  43  65  94 127 167 213 259 311 373
#     4  10  22  44  67  85 114 161 209 247 298 372
#     4  11  22  39  64  97 129 164 208 258 316 375
#     4   8  18  36  62  88 115 157 206 245 288 353
#
# _framework density 18.860545999999999
#
# number of rings (size 3 to 8) (size 9 to 14) (size 15 to 20)
#    0.000    1.750    1.250    3.375    3.500    4.000 
#    0.000    2.500    0.000    0.000    0.000    0.000 
#    0.000    0.000    0.000    0.000    0.000    0.000 
#
# Total GULP energy -178815.253832 kJ/mol
# GULP energy per Si atom -5587.976682 kJ/mol
# Density = 1.881762 g / cm^3
# Si number density = 18.860546 Si / 1000 Ang^3
#
#
#
# Elastic Constant Matrix: (Units=GPa)
#
#
# Indices 1 2 3 4 5 6 
#
# 1 198.3839 92.4771 59.1484 0.0000 0.0000 0.0000
# 2 92.4771 157.9215 52.0131 0.0000 0.0000 0.0000
# 3 59.1484 52.0131 47.2236 0.0000 0.0000 0.0000
# 4 0.0000 0.0000 0.0000 32.2854 0.0000 0.0000
# 5 0.0000 0.0000 0.0000 0.0000 30.3030 0.0000
# 6 0.0000 0.0000 0.0000 0.0000 0.0000 2.0149
#
#
#
# Elastic Compliance Matrix: (Units=1/GPa)
#
#
# Indices 1 2 3 4 5 6 
#
# 1 0.008556 -0.002324 -0.008157 0.000000 0.000000 0.000000
# 2 -0.002324 0.010568 -0.008730 0.000000 0.000000 0.000000
# 3 -0.008157 -0.008730 0.041008 0.000000 0.000000 0.000000
# 4 0.000000 0.000000 0.000000 0.030974 0.000000 0.000000
# 5 0.000000 0.000000 0.000000 0.000000 0.033000 0.000000
# 6 0.000000 0.000000 0.000000 0.000000 0.000000 0.496305
#
#
# Mechanical properties :
#
#
# Convention : Reuss Voigt Hill
#
# Bulk Modulus (GPa) = 46.05930 90.08959 68.07444
# Shear Modulus (GPa) = 7.50673 26.24670 16.87671
#
# Velocity S-wave (km/s) = 1.99719 3.73449 2.99459
# Velocity P-wave (km/s) = 5.45824 8.15261 6.93749
#
# Compressibility (1/GPa) = 0.02171114
#
# Stress axis : x y z
#
# Youngs Moduli (GPa) = 116.87731 94.62407 24.38548
#
# Poissons Ratio (x) = 0.21987 0.19892
# Poissons Ratio (y) = 0.27158 0.21288
# Poissons Ratio (z) = 0.95340 0.82603
#
# Static dielectric constant tensor:
#      x y z
#    x 1.645260 0.000000 0.000000 
#    y 0.000000 1.619550 0.000000 
#    z 0.000000 0.000000 1.638950 
# 
# From -- ./inp_files/12033.got.cif
#   From: 2010.05.17/outbox.cif.g08.bks.cpg/sg71_7_cif.got.tgz:12033.got - 2010.06.03 16:22:01.
